0:0
     RDKit          3D

 44 46  0  0  0  0  0  0  0  0999 V2000
   59.3310   35.3460   46.8790 C   0  0  0  0  0  0  0  0  0  0  0  0
   59.5260   33.8460   46.6200 C   0  0  0  0  0  0  0  0  0  0  0  0
   59.1540   33.4600   45.1820 C   0  0  0  0  0  0  0  0  0  0  0  0
   58.7540   33.0210   47.6190 C   0  0  0  0  0  0  0  0  0  0  0  0
   57.5020   33.0670   47.7590 O   0  0  0  0  0  0  0  0  0  0  0  0
   59.5940   32.1840   48.4130 N   0  0  0  0  0  0  0  0  0  0  0  0
   59.2050   31.4990   49.6460 C   0  0  0  0  0  0  0  0  0  0  0  0
   59.7530   30.0930   49.6910 C   0  0  0  0  0  0  0  0  0  0  0  0
   60.5210   29.7500   50.6290 O   0  0  0  0  0  0  0  0  0  0  0  0
   59.3020   29.0910   48.7720 N   0  0  0  0  0  0  0  0  0  0  0  0
   59.3130   29.1960   47.3430 C   0  0  0  0  0  0  0  0  0  0  0  0
   60.4630   28.8910   46.6000 C   0  0  0  0  0  0  0  0  0  0  0  0
   60.4370   28.9590   45.2050 C   0  0  0  0  0  0  0  0  0  0  0  0
   59.2580   29.3160   44.5420 C   0  0  0  0  0  0  0  0  0  0  0  0
   58.0980   29.5990   45.2750 C   0  0  0  0  0  0  0  0  0  0  0  0
   56.6030   30.0130   44.4420 S   0  0  0  0  0  0  0  0  0  0  0  0
   56.6960   29.5040   42.7930 N   0  0  0  0  0  0  0  0  0  0  0  0
   56.3840   31.4990   44.4960 O   0  0  0  0  0  0  0  0  0  0  0  0
   55.4420   29.3320   45.1120 O   0  0  0  0  0  0  0  0  0  0  0  0
   58.1250   29.5210   46.6750 C   0  0  0  0  0  0  0  0  0  0  0  0
   60.9170   32.4800   47.9840 C   0  0  0  0  0  0  0  0  0  0  0  0
   62.1040   31.9460   48.4940 C   0  0  0  0  0  0  0  0  0  0  0  0
   63.3210   32.3700   47.9370 C   0  0  0  0  0  0  0  0  0  0  0  0
   63.3340   33.3140   46.8910 C   0  0  0  0  0  0  0  0  0  0  0  0
   62.1320   33.8410   46.3960 C   0  0  0  0  0  0  0  0  0  0  0  0
   60.9270   33.4090   46.9600 C   0  0  0  0  0  0  0  0  0  0  0  0
   59.3070   35.5308   47.9631 H   0  0  0  0  0  0  0  0  0  0  0  0
   60.1638   35.9070   46.4298 H   0  0  0  0  0  0  0  0  0  0  0  0
   58.3825   35.6754   46.4298 H   0  0  0  0  0  0  0  0  0  0  0  0
   58.3908   32.6681   45.2007 H   0  0  0  0  0  0  0  0  0  0  0  0
   58.7556   34.3409   44.6573 H   0  0  0  0  0  0  0  0  0  0  0  0
   60.0490   33.0944   44.6573 H   0  0  0  0  0  0  0  0  0  0  0  0
   59.5943   32.0626   50.5067 H   0  0  0  0  0  0  0  0  0  0  0  0
   58.1069   31.4440   49.6800 H   0  0  0  0  0  0  0  0  0  0  0  0
   61.3882   28.5974   47.1175 H   0  0  0  0  0  0  0  0  0  0  0  0
   61.3448   28.7315   44.6270 H   0  0  0  0  0  0  0  0  0  0  0  0
   59.2417   29.3746   43.4437 H   0  0  0  0  0  0  0  0  0  0  0  0
   57.6960   29.5940   42.5020 H   0  0  0  0  0  0  0  0  0  0  0  0
   56.4690   28.4840   42.7750 H   0  0  0  0  0  0  0  0  0  0  0  0
   57.2088   29.7160   47.2516 H   0  0  0  0  0  0  0  0  0  0  0  0
   62.0850   31.2111   49.3123 H   0  0  0  0  0  0  0  0  0  0  0  0
   64.2690   31.9633   48.3190 H   0  0  0  0  0  0  0  0  0  0  0  0
   64.2923   33.6396   46.4601 H   0  0  0  0  0  0  0  0  0  0  0  0
   62.1369   34.5793   45.5806 H   0  0  0  0  0  0  0  0  0  0  0  0
  1  2  1  0
  2  3  1  0
  2  4  1  0
  4  5  2  0
  4  6  1  0
  6  7  1  0
  7  8  1  0
  8  9  2  0
  8 10  1  0
 10 11  1  0
 11 12  2  0
 12 13  1  0
 13 14  2  0
 14 15  1  0
 15 16  1  0
 16 17  1  0
 16 18  2  0
 16 19  2  0
 15 20  2  0
  6 21  1  0
 21 22  2  0
 22 23  1  0
 23 24  2  0
 24 25  1  0
 25 26  2  0
 26  2  1  0
 20 11  1  0
 26 21  1  0
  1 27  1  0
  1 28  1  0
  1 29  1  0
  3 30  1  0
  3 31  1  0
  3 32  1  0
  7 33  1  0
  7 34  1  0
 12 35  1  0
 13 36  1  0
 14 37  1  0
 17 38  1  0
 17 39  1  0
 20 40  1  0
 22 41  1  0
 23 42  1  0
 24 43  1  0
 25 44  1  0
M  CHG  1  10  -1
M  END
>  <UniqueID>  (1) 
1

>  <SMILES>  (1) 
CC1(C)C(=O)N(CC(=O)[N-]c2cccc(S(N)(=O)=O)c2)c2ccccc21

>  <Energy>  (1) 
65.68228590354721

>  <Genealogy>  (1) 
CC1(C)C(=O)N(CC(=O)[N-]c2cccc(S(N)(=O)=O)c2)c2ccccc21 (protonated)
CC1(C)C(=O)N(CC(=O)[N-]c2cccc(S(N)(=O)=O)c2)c2ccccc21 (3D coordinates assigned)
CC1(C)C(=O)N(CC(=O)[N-]c2cccc(S(N)(=O)=O)c2)c2ccccc21 (nonaromatic ring conformer: 65.68228590354721 kcal/mol)

>  <smiles>  (1) 
CC1(C)C(=O)N(CC(=O)Nc2cccc(S(N)(=O)=O)c2)c2ccccc21

>  <score_type>  (1) 
oracle

>  <origin>  (1) 
adg

>  <m_score__min__energy>  (1) 
-11.18

>  <m_primary>  (1) 
energy

$$$$
1:0
     RDKit          3D

 59 63  0  0  0  0  0  0  0  0999 V2000
   59.6400   35.7110   45.8460 C   0  0  0  0  0  0  0  0  0  0  0  0
   59.8000   34.2760   46.0470 N   0  0  0  0  0  0  0  0  0  0  0  0
   60.7990   33.6680   46.7330 C   0  0  0  0  0  0  0  0  0  0  0  0
   60.6050   32.2900   46.7340 C   0  0  0  0  0  0  0  0  0  0  0  0
   61.4910   31.2590   47.3720 C   0  0  0  0  0  0  0  0  0  0  0  0
   60.8800   30.7270   48.6080 N   0  0  0  0  0  0  0  0  0  0  0  0
   59.7330   31.5420   49.0520 C   0  0  0  0  0  0  0  0  0  0  0  0
   58.9110   30.7680   50.0880 C   0  0  0  0  0  0  0  0  0  0  0  0
   59.7590   30.2030   51.1370 N   0  0  0  0  0  0  0  0  0  0  0  0
   61.1260   29.8630   50.8920 C   0  0  0  0  0  0  0  0  0  0  0  0
   61.7490   29.1350   51.7150 O   0  0  0  0  0  0  0  0  0  0  0  0
   61.8470   30.4380   49.7030 C   0  0  2  0  0  0  0  0  0  0  0  0
   62.7020   31.6390   50.1100 C   0  0  0  0  0  0  0  0  0  0  0  0
   62.1310   32.6720   50.8710 C   0  0  0  0  0  0  0  0  0  0  0  0
   62.8940   33.7780   51.2600 C   0  0  0  0  0  0  0  0  0  0  0  0
   64.2360   33.8670   50.8910 C   0  0  0  0  0  0  0  0  0  0  0  0
   64.8180   32.8570   50.1220 C   0  0  0  0  0  0  0  0  0  0  0  0
   64.0620   31.7480   49.7320 C   0  0  0  0  0  0  0  0  0  0  0  0
   59.4250   32.0730   46.0470 C   0  0  0  0  0  0  0  0  0  0  0  0
   58.7350   30.8960   45.7560 C   0  0  0  0  0  0  0  0  0  0  0  0
   57.5500   30.9880   44.9990 C   0  0  0  0  0  0  0  0  0  0  0  0
   56.6390   29.5270   44.6290 S   0  0  0  0  0  0  0  0  0  0  0  0
   55.1730   29.8290   44.4850 O   0  0  0  0  0  0  0  0  0  0  0  0
   57.1280   28.9700   43.3200 O   0  0  0  0  0  0  0  0  0  0  0  0
   56.9010   28.3410   45.8690 N   0  0  0  0  0  0  0  0  0  0  0  0
   58.1710   27.9320   46.4010 C   0  0  0  0  0  0  0  0  0  0  0  0
   59.0920   27.3120   45.5440 C   0  0  0  0  0  0  0  0  0  0  0  0
   60.3370   26.8930   46.0250 C   0  0  0  0  0  0  0  0  0  0  0  0
   60.6740   27.0970   47.3620 C   0  0  0  0  0  0  0  0  0  0  0  0
   59.7580   27.7000   48.2290 C   0  0  0  0  0  0  0  0  0  0  0  0
   58.5100   28.1150   47.7560 C   0  0  0  0  0  0  0  0  0  0  0  0
   57.0890   32.2530   44.5620 C   0  0  0  0  0  0  0  0  0  0  0  0
   57.7950   33.4240   44.8890 C   0  0  0  0  0  0  0  0  0  0  0  0
   58.9670   33.2990   45.6360 C   0  0  0  0  0  0  0  0  0  0  0  0
   59.5839   36.2140   46.8226 H   0  0  0  0  0  0  0  0  0  0  0  0
   60.5003   36.1004   45.2819 H   0  0  0  0  0  0  0  0  0  0  0  0
   58.7151   35.9013   45.2819 H   0  0  0  0  0  0  0  0  0  0  0  0
   61.6390   34.1874   47.2174 H   0  0  0  0  0  0  0  0  0  0  0  0
   61.6483   30.4321   46.6638 H   0  0  0  0  0  0  0  0  0  0  0  0
   62.4495   31.7326   47.6308 H   0  0  0  0  0  0  0  0  0  0  0  0
   60.1018   32.4752   49.5028 H   0  0  0  0  0  0  0  0  0  0  0  0
   59.0966   31.7730   48.1850 H   0  0  0  0  0  0  0  0  0  0  0  0
   58.1822   31.4515   50.5480 H   0  0  0  0  0  0  0  0  0  0  0  0
   58.4029   29.9391   49.5735 H   0  0  0  0  0  0  0  0  0  0  0  0
   59.3000   29.8480   52.0050 H   0  0  0  0  0  0  0  0  0  0  0  0
   62.5545   29.6961   49.3042 H   0  0  0  0  0  0  0  0  0  0  0  0
   61.0726   32.6107   51.1643 H   0  0  0  0  0  0  0  0  0  0  0  0
   62.4347   34.5789   51.8580 H   0  0  0  0  0  0  0  0  0  0  0  0
   64.8364   34.7333   51.2059 H   0  0  0  0  0  0  0  0  0  0  0  0
   65.8736   32.9344   49.8226 H   0  0  0  0  0  0  0  0  0  0  0  0
   64.5266   30.9550   49.1276 H   0  0  0  0  0  0  0  0  0  0  0  0
   59.1060   29.9221   46.1080 H   0  0  0  0  0  0  0  0  0  0  0  0
   58.8336   27.1541   44.4865 H   0  0  0  0  0  0  0  0  0  0  0  0
   61.0509   26.4020   45.3473 H   0  0  0  0  0  0  0  0  0  0  0  0
   61.6603   26.7837   47.7348 H   0  0  0  0  0  0  0  0  0  0  0  0
   60.0203   27.8483   49.2869 H   0  0  0  0  0  0  0  0  0  0  0  0
   57.7912   28.5854   48.4431 H   0  0  0  0  0  0  0  0  0  0  0  0
   56.1701   32.3204   43.9611 H   0  0  0  0  0  0  0  0  0  0  0  0
   57.4336   34.4111   44.5650 H   0  0  0  0  0  0  0  0  0  0  0  0
  1  2  1  0
  2  3  1  0
  3  4  2  0
  4  5  1  0
  5  6  1  0
  6  7  1  0
  7  8  1  0
  8  9  1  0
  9 10  1  0
 10 11  2  0
 10 12  1  0
 12 13  1  0
 13 14  2  0
 14 15  1  0
 15 16  2  0
 16 17  1  0
 17 18  2  0
  4 19  1  0
 19 20  2  0
 20 21  1  0
 21 22  1  0
 22 23  2  0
 22 24  2  0
 22 25  1  0
 25 26  1  0
 26 27  2  0
 27 28  1  0
 28 29  2  0
 29 30  1  0
 30 31  2  0
 21 32  2  0
 32 33  1  0
 33 34  2  0
 34  2  1  0
 12  6  1  0
 18 13  1  0
 34 19  1  0
 31 26  1  0
  1 35  1  0
  1 36  1  0
  1 37  1  0
  3 38  1  0
  5 39  1  0
  5 40  1  0
  7 41  1  0
  7 42  1  0
  8 43  1  0
  8 44  1  0
  9 45  1  0
 12 46  1  6
 14 47  1  0
 15 48  1  0
 16 49  1  0
 17 50  1  0
 18 51  1  0
 20 52  1  0
 27 53  1  0
 28 54  1  0
 29 55  1  0
 30 56  1  0
 31 57  1  0
 32 58  1  0
 33 59  1  0
M  CHG  1  25  -1
M  END
>  <UniqueID>  (2) 
2

>  <SMILES>  (2) 
Cn1cc(CN2CCNC(=O)[C@@H]2c2ccccc2)c2cc(S(=O)(=O)[N-]c3ccccc3)ccc21

>  <Energy>  (2) 
106.65669965740487

>  <Genealogy>  (2) 
Cn1cc(CN2CCNC(=O)C2c2ccccc2)c2cc(S(=O)(=O)[N-]c3ccccc3)ccc21 (protonated)
Cn1cc(CN2CCNC(=O)[C@@H]2c2ccccc2)c2cc(S(=O)(=O)[N-]c3ccccc3)ccc21 (chirality)
Cn1cc(CN2CCNC(=O)[C@@H]2c2ccccc2)c2cc(S(=O)(=O)[N-]c3ccccc3)ccc21 (3D coordinates assigned)
Cn1cc(CN2CCNC(=O)[C@@H]2c2ccccc2)c2cc(S(=O)(=O)[N-]c3ccccc3)ccc21 (nonaromatic ring conformer: 106.65669965740487 kcal/mol)

>  <smiles>  (2) 
Cn1cc(CN2CCNC(=O)C2c2ccccc2)c2cc(S(=O)(=O)Nc3ccccc3)ccc21

>  <score_type>  (2) 
oracle

>  <origin>  (2) 
adg

>  <m_score__min__energy>  (2) 
-11.26

>  <m_primary>  (2) 
energy

$$$$
2:0
     RDKit          3D

 67 70  0  0  0  0  0  0  0  0999 V2000
   64.5190   33.1010   49.0480 C   0  0  0  0  0  0  0  0  0  0  0  0
   63.2210   32.4590   49.3320 N   0  0  0  0  0  0  0  0  0  0  0  0
   63.4220   31.2930   50.2110 C   0  0  0  0  0  0  0  0  0  0  0  0
   62.5400   32.0580   48.0830 C   0  0  0  0  0  0  0  0  0  0  0  0
   61.5670   33.1490   47.5940 C   0  0  0  0  0  0  0  0  0  0  0  0
   60.1010   32.9220   48.0410 C   0  0  1  0  0  0  0  0  0  0  0  0
   59.7470   33.6550   49.3230 C   0  0  0  0  0  0  0  0  0  0  0  0
   59.6420   34.9090   49.3120 O   0  0  0  0  0  0  0  0  0  0  0  0
   59.4620   32.9620   50.5480 N   0  0  0  0  0  0  0  0  0  0  0  0
   58.6500   31.7540   50.7010 C   0  0  2  0  0  0  0  0  0  0  0  0
   58.4050   31.4840   52.1950 C   0  0  0  0  0  0  0  0  0  0  0  0
   57.1150   30.7290   52.4090 C   0  0  0  0  0  0  0  0  0  0  0  0
   57.1300   29.4580   53.0090 C   0  0  0  0  0  0  0  0  0  0  0  0
   55.9380   28.7500   53.1850 C   0  0  0  0  0  0  0  0  0  0  0  0
   54.7280   29.2930   52.7490 C   0  0  0  0  0  0  0  0  0  0  0  0
   54.7050   30.5500   52.1380 C   0  0  0  0  0  0  0  0  0  0  0  0
   55.8940   31.2690   51.9690 C   0  0  0  0  0  0  0  0  0  0  0  0
   59.3560   30.6040   50.0410 C   0  0  0  0  0  0  0  0  0  0  0  0
   58.9870   29.9830   48.8660 C   0  0  0  0  0  0  0  0  0  0  0  0
   59.9150   29.0400   48.6380 N   0  0  0  0  0  0  0  0  0  0  0  0
   59.9440   28.0830   47.5350 C   0  0  0  0  0  0  0  0  0  0  0  0
   59.0550   28.5540   46.4170 C   0  0  0  0  0  0  0  0  0  0  0  0
   57.7800   27.9960   46.2430 C   0  0  0  0  0  0  0  0  0  0  0  0
   56.9360   28.4720   45.2350 C   0  0  0  0  0  0  0  0  0  0  0  0
   57.3620   29.5060   44.3930 C   0  0  0  0  0  0  0  0  0  0  0  0
   56.3000   30.1020   43.1290 Cl  0  0  0  0  0  0  0  0  0  0  0  0
   58.6300   30.0700   44.5630 C   0  0  0  0  0  0  0  0  0  0  0  0
   59.4720   29.6010   45.5770 C   0  0  0  0  0  0  0  0  0  0  0  0
   60.8130   29.0880   49.6100 N   0  0  0  0  0  0  0  0  0  0  0  0
   60.5030   30.0410   50.4760 N   0  0  0  0  0  0  0  0  0  0  0  0
   59.1520   33.3370   46.9310 C   0  0  0  0  0  0  0  0  0  0  0  0
   57.8740   32.7540   46.8290 C   0  0  0  0  0  0  0  0  0  0  0  0
   57.0260   33.0890   45.7670 C   0  0  0  0  0  0  0  0  0  0  0  0
   57.4480   33.9990   44.7940 C   0  0  0  0  0  0  0  0  0  0  0  0
   58.7130   34.5850   44.8860 C   0  0  0  0  0  0  0  0  0  0  0  0
   59.5600   34.2580   45.9450 C   0  0  0  0  0  0  0  0  0  0  0  0
   65.0204   33.3490   49.9951 H   0  0  0  0  0  0  0  0  0  0  0  0
   65.1503   32.4112   48.4686 H   0  0  0  0  0  0  0  0  0  0  0  0
   64.3539   34.0213   48.4686 H   0  0  0  0  0  0  0  0  0  0  0  0
   63.3669   31.6124   51.2622 H   0  0  0  0  0  0  0  0  0  0  0  0
   62.6394   30.5456   50.0134 H   0  0  0  0  0  0  0  0  0  0  0  0
   64.4096   30.8508   50.0134 H   0  0  0  0  0  0  0  0  0  0  0  0
   63.2967   31.8793   47.3049 H   0  0  0  0  0  0  0  0  0  0  0  0
   61.9611   31.1445   48.2838 H   0  0  0  0  0  0  0  0  0  0  0  0
   61.9046   34.1182   47.9898 H   0  0  0  0  0  0  0  0  0  0  0  0
   61.5762   33.1185   46.4945 H   0  0  0  0  0  0  0  0  0  0  0  0
   59.9962   31.8471   48.2499 H   0  0  0  0  0  0  0  0  0  0  0  0
   57.6708   31.8850   50.2172 H   0  0  0  0  0  0  0  0  0  0  0  0
   59.2396   30.8886   52.5936 H   0  0  0  0  0  0  0  0  0  0  0  0
   58.3339   32.4499   52.7165 H   0  0  0  0  0  0  0  0  0  0  0  0
   58.0826   29.0194   53.3409 H   0  0  0  0  0  0  0  0  0  0  0  0
   55.9532   27.7621   53.6685 H   0  0  0  0  0  0  0  0  0  0  0  0
   53.7922   28.7314   52.8864 H   0  0  0  0  0  0  0  0  0  0  0  0
   53.7518   30.9745   51.7897 H   0  0  0  0  0  0  0  0  0  0  0  0
   55.8729   32.2593   51.4906 H   0  0  0  0  0  0  0  0  0  0  0  0
   58.1106   30.2135   48.2425 H   0  0  0  0  0  0  0  0  0  0  0  0
   60.9750   27.9871   47.1639 H   0  0  0  0  0  0  0  0  0  0  0  0
   59.5830   27.1083   47.8951 H   0  0  0  0  0  0  0  0  0  0  0  0
   57.4431   27.1817   46.9013 H   0  0  0  0  0  0  0  0  0  0  0  0
   55.9359   28.0334   45.1034 H   0  0  0  0  0  0  0  0  0  0  0  0
   58.9651   30.8815   43.9003 H   0  0  0  0  0  0  0  0  0  0  0  0
   60.4647   30.0536   45.7175 H   0  0  0  0  0  0  0  0  0  0  0  0
   57.5404   32.0313   47.5882 H   0  0  0  0  0  0  0  0  0  0  0  0
   56.0262   32.6354   45.6982 H   0  0  0  0  0  0  0  0  0  0  0  0
   56.7838   34.2541   43.9551 H   0  0  0  0  0  0  0  0  0  0  0  0
   59.0415   35.3053   44.1222 H   0  0  0  0  0  0  0  0  0  0  0  0
   60.5548   34.7228   46.0112 H   0  0  0  0  0  0  0  0  0  0  0  0
  1  2  1  0
  2  3  1  0
  2  4  1  0
  4  5  1  0
  5  6  1  0
  6  7  1  0
  7  8  2  0
  7  9  1  0
  9 10  1  0
 10 11  1  0
 11 12  1  0
 12 13  2  0
 13 14  1  0
 14 15  2  0
 15 16  1  0
 16 17  2  0
 10 18  1  0
 18 19  2  0
 19 20  1  0
 20 21  1  0
 21 22  1  0
 22 23  2  0
 23 24  1  0
 24 25  2  0
 25 26  1  0
 25 27  1  0
 27 28  2  0
 20 29  1  0
 29 30  2  0
  6 31  1  0
 31 32  2  0
 32 33  1  0
 33 34  2  0
 34 35  1  0
 35 36  2  0
 17 12  1  0
 30 18  1  0
 36 31  1  0
 28 22  1  0
  1 37  1  0
  1 38  1  0
  1 39  1  0
  3 40  1  0
  3 41  1  0
  3 42  1  0
  4 43  1  0
  4 44  1  0
  5 45  1  0
  5 46  1  0
  6 47  1  1
 10 48  1  6
 11 49  1  0
 11 50  1  0
 13 51  1  0
 14 52  1  0
 15 53  1  0
 16 54  1  0
 17 55  1  0
 19 56  1  0
 21 57  1  0
 21 58  1  0
 23 59  1  0
 24 60  1  0
 27 61  1  0
 28 62  1  0
 32 63  1  0
 33 64  1  0
 34 65  1  0
 35 66  1  0
 36 67  1  0
M  CHG  1   9  -1
M  END
>  <UniqueID>  (3) 
3

>  <SMILES>  (3) 
CN(C)CC[C@@H](C(=O)[N-][C@H](Cc1ccccc1)c1cn(Cc2ccc(Cl)cc2)nn1)c1ccccc1

>  <Energy>  (3) 
95.52399116961911

>  <Genealogy>  (3) 
CN(C)CCC(C(=O)[N-]C(Cc1ccccc1)c1cn(Cc2ccc(Cl)cc2)nn1)c1ccccc1 (protonated)
CN(C)CC[C@@H](C(=O)[N-][C@H](Cc1ccccc1)c1cn(Cc2ccc(Cl)cc2)nn1)c1ccccc1 (chirality)
CN(C)CC[C@@H](C(=O)[N-][C@H](Cc1ccccc1)c1cn(Cc2ccc(Cl)cc2)nn1)c1ccccc1 (3D coordinates assigned)
CN(C)CC[C@@H](C(=O)[N-][C@H](Cc1ccccc1)c1cn(Cc2ccc(Cl)cc2)nn1)c1ccccc1 (optimized conformer: 95.52399116961911 kcal/mol)

>  <smiles>  (3) 
CN(C)CCC(C(=O)NC(Cc1ccccc1)c1cn(Cc2ccc(Cl)cc2)nn1)c1ccccc1

>  <score_type>  (3) 
oracle

>  <origin>  (3) 
adg

>  <m_score__min__energy>  (3) 
-12.869999999999999

>  <m_primary>  (3) 
energy

$$$$
3:0
     RDKit          3D

 69 73  0  0  0  0  0  0  0  0999 V2000
   57.3160   33.0290   52.3600 C   0  0  0  0  0  0  0  0  0  0  0  0
   58.7850   33.2700   52.8180 C   0  0  0  0  0  0  0  0  0  0  0  0
   58.8840   34.6820   53.4380 C   0  0  0  0  0  0  0  0  0  0  0  0
   59.6570   33.2810   51.5600 C   0  0  0  0  0  0  0  0  0  0  0  0
   59.2240   33.8260   50.5060 O   0  0  0  0  0  0  0  0  0  0  0  0
   60.9990   32.7700   51.5880 N   0  0  0  0  0  0  0  0  0  0  0  0
   62.0880   33.0680   50.2650 S   0  0  0  0  0  0  0  0  0  0  0  0
   63.1390   31.9940   50.2190 O   0  0  0  0  0  0  0  0  0  0  0  0
   62.7850   34.3880   50.4500 O   0  0  0  0  0  0  0  0  0  0  0  0
   61.1740   33.0710   48.7610 C   0  0  0  0  0  0  0  0  0  0  0  0
   61.1580   34.2090   47.9490 C   0  0  0  0  0  0  0  0  0  0  0  0
   60.4140   34.2190   46.7680 C   0  0  0  0  0  0  0  0  0  0  0  0
   59.6690   33.0910   46.3840 C   0  0  0  0  0  0  0  0  0  0  0  0
   59.6740   31.9440   47.2070 C   0  0  0  0  0  0  0  0  0  0  0  0
   60.4260   31.9470   48.3960 C   0  0  0  0  0  0  0  0  0  0  0  0
   58.8910   30.7480   46.8150 C   0  0  0  0  0  0  0  0  0  0  0  0
   58.8790   29.7290   47.5600 O   0  0  0  0  0  0  0  0  0  0  0  0
   58.1210   30.7470   45.5470 C   0  0  0  0  0  0  0  0  0  0  0  0
   57.3970   29.6080   45.1510 C   0  0  0  0  0  0  0  0  0  0  0  0
   56.6790   29.6080   43.9550 C   0  0  0  0  0  0  0  0  0  0  0  0
   56.6730   30.7410   43.1420 C   0  0  0  0  0  0  0  0  0  0  0  0
   57.3880   31.8800   43.5220 C   0  0  0  0  0  0  0  0  0  0  0  0
   58.1180   31.8940   44.7240 C   0  0  0  0  0  0  0  0  0  0  0  0
   58.8810   33.0970   45.1290 C   0  0  0  0  0  0  0  0  0  0  0  0
   58.8620   34.1290   44.4030 O   0  0  0  0  0  0  0  0  0  0  0  0
   61.3550   31.7590   52.5710 C   0  0  0  0  0  0  0  0  0  0  0  0
   60.6940   32.0670   53.9090 C   0  0  0  0  0  0  0  0  0  0  0  0
   59.2200   32.1810   53.7740 N   0  0  1  0  0  0  0  0  0  0  0  0
   58.4990   32.1630   55.0960 C   0  0  0  0  0  0  0  0  0  0  0  0
   57.8370   30.8340   55.5410 C   0  0  0  0  0  0  0  0  0  0  0  0
   58.5420   29.6660   55.0090 N   0  0  0  0  0  0  0  0  0  0  0  0
   57.9550   29.2310   53.4280 S   0  0  0  0  0  0  0  0  0  0  0  0
   57.0540   30.3210   52.9170 O   0  0  0  0  0  0  0  0  0  0  0  0
   57.1720   27.9530   53.5450 O   0  0  0  0  0  0  0  0  0  0  0  0
   59.3000   28.9830   52.3010 C   0  0  0  0  0  0  0  0  0  0  0  0
   60.4240   28.2550   52.7310 C   0  0  0  0  0  0  0  0  0  0  0  0
   61.5170   28.0670   51.8820 C   0  0  0  0  0  0  0  0  0  0  0  0
   61.4980   28.5960   50.5920 C   0  0  0  0  0  0  0  0  0  0  0  0
   60.3830   29.3070   50.1430 C   0  0  0  0  0  0  0  0  0  0  0  0
   59.2730   29.4980   50.9820 C   0  0  0  0  0  0  0  0  0  0  0  0
   58.1340   30.2040   50.4670 N   0  0  0  0  0  0  0  0  0  0  0  0
   56.6692   32.9229   53.2434 H   0  0  0  0  0  0  0  0  0  0  0  0
   56.9752   33.8832   51.7566 H   0  0  0  0  0  0  0  0  0  0  0  0
   57.2660   32.1107   51.7566 H   0  0  0  0  0  0  0  0  0  0  0  0
   58.8784   34.6020   54.5351 H   0  0  0  0  0  0  0  0  0  0  0  0
   59.8180   35.1618   53.1101 H   0  0  0  0  0  0  0  0  0  0  0  0
   58.0261   35.2874   53.1101 H   0  0  0  0  0  0  0  0  0  0  0  0
   61.7336   35.0995   48.2418 H   0  0  0  0  0  0  0  0  0  0  0  0
   60.4108   35.1170   46.1328 H   0  0  0  0  0  0  0  0  0  0  0  0
   60.4257   31.0581   49.0439 H   0  0  0  0  0  0  0  0  0  0  0  0
   57.3970   28.7115   45.7885 H   0  0  0  0  0  0  0  0  0  0  0  0
   56.1164   28.7124   43.6526 H   0  0  0  0  0  0  0  0  0  0  0  0
   56.1046   30.7382   42.2002 H   0  0  0  0  0  0  0  0  0  0  0  0
   57.3798   32.7710   42.8770 H   0  0  0  0  0  0  0  0  0  0  0  0
   61.0167   30.7739   52.2173 H   0  0  0  0  0  0  0  0  0  0  0  0
   62.4470   31.7571   52.7032 H   0  0  0  0  0  0  0  0  0  0  0  0
   60.9266   31.2581   54.6172 H   0  0  0  0  0  0  0  0  0  0  0  0
   61.0828   33.0296   54.2726 H   0  0  0  0  0  0  0  0  0  0  0  0
   58.9370   31.2830   53.3100 H   0  0  0  0  0  0  0  0  0  0  0  0
   59.2281   32.4418   55.8710 H   0  0  0  0  0  0  0  0  0  0  0  0
   57.6583   32.8596   54.9621 H   0  0  0  0  0  0  0  0  0  0  0  0
   57.8448   30.7837   56.6398 H   0  0  0  0  0  0  0  0  0  0  0  0
   56.8091   30.8183   55.1497 H   0  0  0  0  0  0  0  0  0  0  0  0
   60.4424   27.8298   53.7453 H   0  0  0  0  0  0  0  0  0  0  0  0
   62.3933   27.5013   52.2312 H   0  0  0  0  0  0  0  0  0  0  0  0
   62.3625   28.4531   49.9270 H   0  0  0  0  0  0  0  0  0  0  0  0
   60.3741   29.7208   49.1239 H   0  0  0  0  0  0  0  0  0  0  0  0
   58.0140   30.3320   49.4370 H   0  0  0  0  0  0  0  0  0  0  0  0
   57.3730   30.5640   51.0800 H   0  0  0  0  0  0  0  0  0  0  0  0
  1  2  1  0
  2  3  1  0
  2  4  1  0
  4  5  2  0
  4  6  1  0
  6  7  1  0
  7  8  2  0
  7  9  2  0
  7 10  1  0
 10 11  2  0
 11 12  1  0
 12 13  2  0
 13 14  1  0
 14 15  2  0
 14 16  1  0
 16 17  2  0
 16 18  1  0
 18 19  2  0
 19 20  1  0
 20 21  2  0
 21 22  1  0
 22 23  2  0
 23 24  1  0
 24 25  2  0
  6 26  1  0
 26 27  1  0
 27 28  1  0
 28 29  1  0
 29 30  1  0
 30 31  1  0
 31 32  1  0
 32 33  2  0
 32 34  2  0
 32 35  1  0
 35 36  2  0
 36 37  1  0
 37 38  2  0
 38 39  1  0
 39 40  2  0
 40 41  1  0
 28  2  1  0
 40 35  1  0
 15 10  1  0
 23 18  1  0
 24 13  1  0
  1 42  1  0
  1 43  1  0
  1 44  1  0
  3 45  1  0
  3 46  1  0
  3 47  1  0
 11 48  1  0
 12 49  1  0
 15 50  1  0
 19 51  1  0
 20 52  1  0
 21 53  1  0
 22 54  1  0
 26 55  1  0
 26 56  1  0
 27 57  1  0
 27 58  1  0
 28 59  1  6
 29 60  1  0
 29 61  1  0
 30 62  1  0
 30 63  1  0
 36 64  1  0
 37 65  1  0
 38 66  1  0
 39 67  1  0
 41 68  1  0
 41 69  1  0
M  CHG  2  28   1  31  -1
M  END
>  <UniqueID>  (4) 
4

>  <SMILES>  (4) 
CC1(C)C(=O)N(S(=O)(=O)c2ccc3c(c2)C(=O)c2ccccc2C3=O)CC[N@H+]1CC[N-]S(=O)(=O)c1ccccc1N

>  <Energy>  (4) 
100.69607245008467

>  <Genealogy>  (4) 
CC1(C)C(=O)N(S(=O)(=O)c2ccc3c(c2)C(=O)c2ccccc2C3=O)CC[NH+]1CC[N-]S(=O)(=O)c1ccccc1N (protonated)
CC1(C)C(=O)N(S(=O)(=O)c2ccc3c(c2)C(=O)c2ccccc2C3=O)CC[N@H+]1CC[N-]S(=O)(=O)c1ccccc1N (chirality)
CC1(C)C(=O)N(S(=O)(=O)c2ccc3c(c2)C(=O)c2ccccc2C3=O)CC[N@H+]1CC[N-]S(=O)(=O)c1ccccc1N (3D coordinates assigned)
CC1(C)C(=O)N(S(=O)(=O)c2ccc3c(c2)C(=O)c2ccccc2C3=O)CC[N@H+]1CC[N-]S(=O)(=O)c1ccccc1N (nonaromatic ring conformer: 100.69607245008467 kcal/mol)

>  <smiles>  (4) 
CC1(C)C(=O)N(S(=O)(=O)c2ccc3c(c2)C(=O)c2ccccc2C3=O)CCN1CCNS(=O)(=O)c1ccccc1N

>  <score_type>  (4) 
oracle

>  <origin>  (4) 
adg

>  <m_score__min__energy>  (4) 
-11.85

>  <m_primary>  (4) 
energy

$$$$
4:0
     RDKit          3D

 61 62  0  0  0  0  0  0  0  0999 V2000
   58.5010   32.2500   50.3810 C   0  0  0  0  0  0  0  0  0  0  0  0
   58.5740   31.8960   49.0020 O   0  0  0  0  0  0  0  0  0  0  0  0
   58.6780   32.8200   47.9520 C   0  0  0  0  0  0  0  0  0  0  0  0
   59.5000   33.9350   48.1360 C   0  0  0  0  0  0  0  0  0  0  0  0
   59.6540   34.8760   47.1150 C   0  0  0  0  0  0  0  0  0  0  0  0
   58.9880   34.7100   45.8980 C   0  0  0  0  0  0  0  0  0  0  0  0
   59.1760   35.6240   44.9100 F   0  0  0  0  0  0  0  0  0  0  0  0
   58.1430   33.6020   45.6990 C   0  0  0  0  0  0  0  0  0  0  0  0
   57.4580   33.3770   44.3740 C   0  0  0  0  0  0  0  0  0  0  0  0
   58.2600   32.4320   43.4720 C   0  0  0  0  0  0  0  0  0  0  0  0
   57.4910   31.2200   43.1570 N   0  0  0  0  0  0  0  0  0  0  0  0
   56.6870   30.8160   44.3180 C   0  0  0  0  0  0  0  0  0  0  0  0
   56.6210   29.2820   44.4500 C   0  0  0  0  0  0  0  0  0  0  0  0
   57.9010   28.6120   45.0000 C   0  0  0  0  0  0  0  0  0  0  0  0
   57.6790   27.6760   46.2020 C   0  0  0  0  0  0  0  0  0  0  0  0
   58.5190   28.0700   47.4270 C   0  0  0  0  0  0  0  0  0  0  0  0
   59.8250   28.8020   47.0500 C   0  0  0  0  0  0  0  0  0  0  0  0
   59.8720   30.2200   47.4570 N   0  0  0  0  0  0  0  0  0  0  0  0
   60.8960   30.9880   46.7270 C   0  0  0  0  0  0  0  0  0  0  0  0
   62.2520   30.9830   47.4600 C   0  0  0  0  0  0  0  0  0  0  0  0
   62.3460   32.0740   48.5140 C   0  0  0  0  0  0  0  0  0  0  0  0
   62.7800   33.3800   48.1750 C   0  0  0  0  0  0  0  0  0  0  0  0
   63.2070   33.8300   46.5240 Cl  0  0  0  0  0  0  0  0  0  0  0  0
   62.8870   34.3610   49.1650 C   0  0  0  0  0  0  0  0  0  0  0  0
   62.5630   34.0650   50.4890 C   0  0  0  0  0  0  0  0  0  0  0  0
   62.1340   32.7860   50.8350 C   0  0  0  0  0  0  0  0  0  0  0  0
   62.0280   31.7870   49.8640 C   0  0  0  0  0  0  0  0  0  0  0  0
   61.4770   30.1940   50.3830 Cl  0  0  0  0  0  0  0  0  0  0  0  0
   57.9950   32.6580   46.7290 C   0  0  0  0  0  0  0  0  0  0  0  0
   58.6848   31.3585   50.9986 H   0  0  0  0  0  0  0  0  0  0  0  0
   59.2606   33.0137   50.6042 H   0  0  0  0  0  0  0  0  0  0  0  0
   57.5013   32.6509   50.6042 H   0  0  0  0  0  0  0  0  0  0  0  0
   60.0290   34.0726   49.0906 H   0  0  0  0  0  0  0  0  0  0  0  0
   60.3022   35.7511   47.2698 H   0  0  0  0  0  0  0  0  0  0  0  0
   56.4657   32.9387   44.5561 H   0  0  0  0  0  0  0  0  0  0  0  0
   57.3737   34.3476   43.8634 H   0  0  0  0  0  0  0  0  0  0  0  0
   58.5077   32.9535   42.5357 H   0  0  0  0  0  0  0  0  0  0  0  0
   59.1760   32.1355   44.0041 H   0  0  0  0  0  0  0  0  0  0  0  0
   58.1800   30.4550   42.9770 H   0  0  0  0  0  0  0  0  0  0  0  0
   57.1389   31.2345   45.2294 H   0  0  0  0  0  0  0  0  0  0  0  0
   55.6640   31.1959   44.1797 H   0  0  0  0  0  0  0  0  0  0  0  0
   55.7898   29.0343   45.1266 H   0  0  0  0  0  0  0  0  0  0  0  0
   56.4881   28.8937   43.4294 H   0  0  0  0  0  0  0  0  0  0  0  0
   58.3543   28.0239   44.1884 H   0  0  0  0  0  0  0  0  0  0  0  0
   58.5453   29.4277   45.3598 H   0  0  0  0  0  0  0  0  0  0  0  0
   56.6153   27.7078   46.4804 H   0  0  0  0  0  0  0  0  0  0  0  0
   57.9912   26.6662   45.8974 H   0  0  0  0  0  0  0  0  0  0  0  0
   57.9174   28.7325   48.0666 H   0  0  0  0  0  0  0  0  0  0  0  0
   58.7991   27.1422   47.9473 H   0  0  0  0  0  0  0  0  0  0  0  0
   60.6637   28.2783   47.5321 H   0  0  0  0  0  0  0  0  0  0  0  0
   59.8842   28.7899   45.9517 H   0  0  0  0  0  0  0  0  0  0  0  0
   60.0210   30.3010   48.4880 H   0  0  0  0  0  0  0  0  0  0  0  0
   58.9320   30.6240   47.2450 H   0  0  0  0  0  0  0  0  0  0  0  0
   61.0296   30.5436   45.7297 H   0  0  0  0  0  0  0  0  0  0  0  0
   60.5522   32.0304   46.6548 H   0  0  0  0  0  0  0  0  0  0  0  0
   62.3852   30.0069   47.9494 H   0  0  0  0  0  0  0  0  0  0  0  0
   63.0373   31.1705   46.7129 H   0  0  0  0  0  0  0  0  0  0  0  0
   63.2286   35.3721   48.8984 H   0  0  0  0  0  0  0  0  0  0  0  0
   62.6465   34.8435   51.2616 H   0  0  0  0  0  0  0  0  0  0  0  0
   61.8767   32.5607   51.8805 H   0  0  0  0  0  0  0  0  0  0  0  0
   57.3413   31.7859   46.5803 H   0  0  0  0  0  0  0  0  0  0  0  0
  1  2  1  0
  2  3  1  0
  3  4  2  0
  4  5  1  0
  5  6  2  0
  6  7  1  0
  6  8  1  0
  8  9  1  0
  9 10  1  0
 10 11  1  0
 11 12  1  0
 12 13  1  0
 13 14  1  0
 14 15  1  0
 15 16  1  0
 16 17  1  0
 17 18  1  0
 18 19  1  0
 19 20  1  0
 20 21  1  0
 21 22  2  0
 22 23  1  0
 22 24  1  0
 24 25  2  0
 25 26  1  0
 26 27  2  0
 27 28  1  0
  8 29  2  0
 29  3  1  0
 27 21  1  0
  1 30  1  0
  1 31  1  0
  1 32  1  0
  4 33  1  0
  5 34  1  0
  9 35  1  0
  9 36  1  0
 10 37  1  0
 10 38  1  0
 11 39  1  0
 12 40  1  0
 12 41  1  0
 13 42  1  0
 13 43  1  0
 14 44  1  0
 14 45  1  0
 15 46  1  0
 15 47  1  0
 16 48  1  0
 16 49  1  0
 17 50  1  0
 17 51  1  0
 18 52  1  0
 18 53  1  0
 19 54  1  0
 19 55  1  0
 20 56  1  0
 20 57  1  0
 24 58  1  0
 25 59  1  0
 26 60  1  0
 29 61  1  0
M  CHG  1  18   1
M  END
>  <UniqueID>  (5) 
5

>  <SMILES>  (5) 
COc1ccc(F)c(CCNCCCCCC[NH2+]CCc2c(Cl)cccc2Cl)c1

>  <Energy>  (5) 
50.10371950007075

>  <Genealogy>  (5) 
COc1ccc(F)c(CCNCCCCCC[NH2+]CCc2c(Cl)cccc2Cl)c1 (protonated)
COc1ccc(F)c(CCNCCCCCC[NH2+]CCc2c(Cl)cccc2Cl)c1 (3D coordinates assigned)
COc1ccc(F)c(CCNCCCCCC[NH2+]CCc2c(Cl)cccc2Cl)c1 (optimized conformer: 50.10371950007075 kcal/mol)

>  <smiles>  (5) 
COc1ccc(F)c(CCNCCCCCCNCCc2c(Cl)cccc2Cl)c1

>  <score_type>  (5) 
oracle

>  <origin>  (5) 
adg

>  <m_score__min__energy>  (5) 
-6.7300000000000004

>  <m_primary>  (5) 
energy

$$$$
5:0
     RDKit          3D

 61 64  0  0  0  0  0  0  0  0999 V2000
   64.7070   33.2590   49.2330 C   0  0  0  0  0  0  0  0  0  0  0  0
   63.5420   33.7790   49.9580 N   0  0  0  0  0  0  0  0  0  0  0  0
   63.7580   34.6650   51.1070 C   0  0  0  0  0  0  0  0  0  0  0  0
   62.1980   33.4190   49.5480 C   0  0  0  0  0  0  0  0  0  0  0  0
   61.0970   34.2170   49.9100 C   0  0  0  0  0  0  0  0  0  0  0  0
   59.8030   33.8540   49.5360 C   0  0  0  0  0  0  0  0  0  0  0  0
   59.5720   32.6890   48.7900 C   0  0  0  0  0  0  0  0  0  0  0  0
   60.6660   31.8920   48.3940 C   0  0  0  0  0  0  0  0  0  0  0  0
   61.9630   32.2570   48.7870 C   0  0  0  0  0  0  0  0  0  0  0  0
   60.4490   30.3970   47.4630 S   0  0  0  0  0  0  0  0  0  0  0  0
   61.7030   30.1200   46.6800 O   0  0  0  0  0  0  0  0  0  0  0  0
   60.2170   29.2790   48.4400 O   0  0  0  0  0  0  0  0  0  0  0  0
   59.1070   30.4680   46.3520 N   0  0  0  0  0  0  0  0  0  0  0  0
   58.5390   29.2490   45.8490 C   0  0  0  0  0  0  0  0  0  0  0  0
   58.6860   28.9130   44.4930 C   0  0  0  0  0  0  0  0  0  0  0  0
   58.1710   27.7100   44.0020 C   0  0  0  0  0  0  0  0  0  0  0  0
   57.5060   26.8190   44.8670 C   0  0  0  0  0  0  0  0  0  0  0  0
   57.0180   25.5770   44.4360 O   0  0  0  0  0  0  0  0  0  0  0  0
   56.0460   24.8120   45.0940 C   0  0  0  0  0  0  0  0  0  0  0  0
   55.3350   25.3340   45.9980 O   0  0  0  0  0  0  0  0  0  0  0  0
   55.9790   23.3190   44.8360 C   0  0  0  0  0  0  0  0  0  0  0  0
   55.8780   23.0270   43.3230 C   0  0  0  0  0  0  0  0  0  0  0  0
   54.7390   22.7520   45.5520 C   0  0  0  0  0  0  0  0  0  0  0  0
   57.2470   22.6400   45.3890 C   0  0  0  0  0  0  0  0  0  0  0  0
   57.3700   27.1540   46.2200 C   0  0  0  0  0  0  0  0  0  0  0  0
   57.8740   28.3630   46.7060 C   0  0  0  0  0  0  0  0  0  0  0  0
   58.5490   31.7270   45.9380 C   0  0  0  0  0  0  0  0  0  0  0  0
   58.4440   32.0190   44.5680 C   0  0  0  0  0  0  0  0  0  0  0  0
   57.8620   33.2130   44.1410 C   0  0  0  0  0  0  0  0  0  0  0  0
   57.3750   34.1260   45.0780 C   0  0  0  0  0  0  0  0  0  0  0  0
   57.4690   33.8470   46.4440 C   0  0  0  0  0  0  0  0  0  0  0  0
   58.0410   32.6410   46.8830 C   0  0  0  0  0  0  0  0  0  0  0  0
   58.1690   32.3650   48.3550 C   0  0  0  0  0  0  0  0  0  0  0  0
   65.4660   32.9202   49.9535 H   0  0  0  0  0  0  0  0  0  0  0  0
   64.3981   32.4133   48.6010 H   0  0  0  0  0  0  0  0  0  0  0  0
   65.1302   34.0536   48.6010 H   0  0  0  0  0  0  0  0  0  0  0  0
   63.6196   34.0972   52.0389 H   0  0  0  0  0  0  0  0  0  0  0  0
   64.7808   35.0683   51.0718 H   0  0  0  0  0  0  0  0  0  0  0  0
   63.0356   35.4938   51.0718 H   0  0  0  0  0  0  0  0  0  0  0  0
   61.2582   35.1356   50.4933 H   0  0  0  0  0  0  0  0  0  0  0  0
   58.9540   34.4888   49.8296 H   0  0  0  0  0  0  0  0  0  0  0  0
   62.8131   31.6230   48.4949 H   0  0  0  0  0  0  0  0  0  0  0  0
   59.2098   29.6011   43.8132 H   0  0  0  0  0  0  0  0  0  0  0  0
   58.2853   27.4583   42.9373 H   0  0  0  0  0  0  0  0  0  0  0  0
   55.5219   21.9974   43.1713 H   0  0  0  0  0  0  0  0  0  0  0  0
   55.1713   23.7314   42.8600 H   0  0  0  0  0  0  0  0  0  0  0  0
   56.8689   23.1442   42.8600 H   0  0  0  0  0  0  0  0  0  0  0  0
   54.8823   22.8175   46.6407 H   0  0  0  0  0  0  0  0  0  0  0  0
   53.8510   23.3336   45.2634 H   0  0  0  0  0  0  0  0  0  0  0  0
   54.5980   21.6999   45.2634 H   0  0  0  0  0  0  0  0  0  0  0  0
   57.2206   22.6541   46.4886 H   0  0  0  0  0  0  0  0  0  0  0  0
   57.2888   21.5988   45.0366 H   0  0  0  0  0  0  0  0  0  0  0  0
   58.1367   23.1824   45.0366 H   0  0  0  0  0  0  0  0  0  0  0  0
   56.8623   26.4596   46.9056 H   0  0  0  0  0  0  0  0  0  0  0  0
   57.7478   28.6206   47.7680 H   0  0  0  0  0  0  0  0  0  0  0  0
   58.8235   31.3009   43.8262 H   0  0  0  0  0  0  0  0  0  0  0  0
   57.7869   33.4349   43.0662 H   0  0  0  0  0  0  0  0  0  0  0  0
   56.9163   35.0670   44.7403 H   0  0  0  0  0  0  0  0  0  0  0  0
   57.0936   34.5745   47.1787 H   0  0  0  0  0  0  0  0  0  0  0  0
   57.4558   32.9907   48.9116 H   0  0  0  0  0  0  0  0  0  0  0  0
   57.9510   31.3058   48.5565 H   0  0  0  0  0  0  0  0  0  0  0  0
  1  2  1  0
  2  3  1  0
  2  4  1  0
  4  5  2  0
  5  6  1  0
  6  7  2  0
  7  8  1  0
  8  9  2  0
  8 10  1  0
 10 11  2  0
 10 12  2  0
 10 13  1  0
 13 14  1  0
 14 15  2  0
 15 16  1  0
 16 17  2  0
 17 18  1  0
 18 19  1  0
 19 20  2  0
 19 21  1  0
 21 22  1  0
 21 23  1  0
 21 24  1  0
 17 25  1  0
 25 26  2  0
 13 27  1  0
 27 28  2  0
 28 29  1  0
 29 30  2  0
 30 31  1  0
 31 32  2  0
 32 33  1  0
  9  4  1  0
 26 14  1  0
 32 27  1  0
 33  7  1  0
  1 34  1  0
  1 35  1  0
  1 36  1  0
  3 37  1  0
  3 38  1  0
  3 39  1  0
  5 40  1  0
  6 41  1  0
  9 42  1  0
 15 43  1  0
 16 44  1  0
 22 45  1  0
 22 46  1  0
 22 47  1  0
 23 48  1  0
 23 49  1  0
 23 50  1  0
 24 51  1  0
 24 52  1  0
 24 53  1  0
 25 54  1  0
 26 55  1  0
 28 56  1  0
 29 57  1  0
 30 58  1  0
 31 59  1  0
 33 60  1  0
 33 61  1  0
M  END
>  <UniqueID>  (6) 
6

>  <SMILES>  (6) 
CN(C)c1ccc2c(c1)S(=O)(=O)N(c1ccc(OC(=O)C(C)(C)C)cc1)c1ccccc1C2

>  <Energy>  (6) 
83.04697727048907

>  <Genealogy>  (6) 
CN(C)c1ccc2c(c1)S(=O)(=O)N(c1ccc(OC(=O)C(C)(C)C)cc1)c1ccccc1C2 (3D coordinates assigned)
CN(C)c1ccc2c(c1)S(=O)(=O)N(c1ccc(OC(=O)C(C)(C)C)cc1)c1ccccc1C2 (nonaromatic ring conformer: 83.04697727048907 kcal/mol)

>  <smiles>  (6) 
CN(C)c1ccc2c(c1)S(=O)(=O)N(c1ccc(OC(=O)C(C)(C)C)cc1)c1ccccc1C2

>  <score_type>  (6) 
oracle

>  <origin>  (6) 
adg

>  <m_score__min__energy>  (6) 
-8.8399999999999999

>  <m_primary>  (6) 
energy

$$$$
6:0
     RDKit          3D

 55 58  0  0  0  0  0  0  0  0999 V2000
   60.1580   31.4270   50.4890 O   0  0  0  0  0  0  0  0  0  0  0  0
   59.2300   32.2710   50.5860 C   0  0  0  0  0  0  0  0  0  0  0  0
   58.1810   32.3410   49.5020 C   0  0  0  0  0  0  0  0  0  0  0  0
   58.7450   32.7960   48.2230 N   0  0  0  0  0  0  0  0  0  0  0  0
   58.2920   32.2550   46.9630 C   0  0  0  0  0  0  0  0  0  0  0  0
   58.5920   30.9270   46.5970 C   0  0  0  0  0  0  0  0  0  0  0  0
   58.1600   30.4160   45.3700 C   0  0  0  0  0  0  0  0  0  0  0  0
   57.4270   31.2210   44.4930 C   0  0  0  0  0  0  0  0  0  0  0  0
   56.8890   30.5790   42.9520 Cl  0  0  0  0  0  0  0  0  0  0  0  0
   57.1220   32.5390   44.8470 C   0  0  0  0  0  0  0  0  0  0  0  0
   57.5510   33.0520   46.0740 C   0  0  0  0  0  0  0  0  0  0  0  0
   59.7550   34.2180   48.2300 S   0  0  0  0  0  0  0  0  0  0  0  0
   59.6210   34.8990   49.5640 O   0  0  0  0  0  0  0  0  0  0  0  0
   59.2840   35.1610   47.1580 O   0  0  0  0  0  0  0  0  0  0  0  0
   61.4570   33.8100   47.9490 C   0  0  0  0  0  0  0  0  0  0  0  0
   61.9630   33.8910   46.6410 C   0  0  0  0  0  0  0  0  0  0  0  0
   63.2920   33.5720   46.3650 C   0  0  0  0  0  0  0  0  0  0  0  0
   64.1440   33.1670   47.3890 C   0  0  0  0  0  0  0  0  0  0  0  0
   63.6710   33.0830   48.7050 C   0  0  0  0  0  0  0  0  0  0  0  0
   64.5240   32.6800   49.7380 C   0  0  0  0  0  0  0  0  0  0  0  0
   64.0460   32.6000   51.0430 C   0  0  0  0  0  0  0  0  0  0  0  0
   62.7170   32.9250   51.3070 C   0  0  0  0  0  0  0  0  0  0  0  0
   61.8890   33.3170   50.3010 N   0  0  0  0  0  0  0  0  0  0  0  0
   62.3200   33.4050   49.0020 C   0  0  0  0  0  0  0  0  0  0  0  0
   59.2400   33.1690   51.7050 N   0  0  0  0  0  0  0  0  0  0  0  0
   58.4160   33.0690   52.9070 C   0  0  0  0  0  0  0  0  0  0  0  0
   58.3830   31.6360   53.4550 C   0  0  0  0  0  0  0  0  0  0  0  0
   57.0970   30.9350   53.0970 C   0  0  0  0  0  0  0  0  0  0  0  0
   56.1350   31.5830   52.3030 C   0  0  0  0  0  0  0  0  0  0  0  0
   54.9560   30.9220   51.9460 C   0  0  0  0  0  0  0  0  0  0  0  0
   54.7330   29.6090   52.3730 C   0  0  0  0  0  0  0  0  0  0  0  0
   55.6890   28.9560   53.1550 C   0  0  0  0  0  0  0  0  0  0  0  0
   56.8700   29.6130   53.5150 C   0  0  0  0  0  0  0  0  0  0  0  0
   57.7457   31.3404   49.3630 H   0  0  0  0  0  0  0  0  0  0  0  0
   57.4152   33.0662   49.8145 H   0  0  0  0  0  0  0  0  0  0  0  0
   59.1699   30.2888   47.2817 H   0  0  0  0  0  0  0  0  0  0  0  0
   58.3973   29.3780   45.0937 H   0  0  0  0  0  0  0  0  0  0  0  0
   56.5436   33.1728   44.1587 H   0  0  0  0  0  0  0  0  0  0  0  0
   57.3064   34.0893   46.3465 H   0  0  0  0  0  0  0  0  0  0  0  0
   61.3011   34.2107   45.8226 H   0  0  0  0  0  0  0  0  0  0  0  0
   63.6689   33.6406   45.3339 H   0  0  0  0  0  0  0  0  0  0  0  0
   65.1903   32.9125   47.1643 H   0  0  0  0  0  0  0  0  0  0  0  0
   65.5718   32.4265   49.5192 H   0  0  0  0  0  0  0  0  0  0  0  0
   64.7120   32.2828   51.8590 H   0  0  0  0  0  0  0  0  0  0  0  0
   62.3343   32.8642   52.3365 H   0  0  0  0  0  0  0  0  0  0  0  0
   60.9080   33.5490   50.5660 H   0  0  0  0  0  0  0  0  0  0  0  0
   58.8282   33.7362   53.6783 H   0  0  0  0  0  0  0  0  0  0  0  0
   57.3882   33.3590   52.6432 H   0  0  0  0  0  0  0  0  0  0  0  0
   59.2270   31.0721   53.0312 H   0  0  0  0  0  0  0  0  0  0  0  0
   58.4547   31.6850   54.5516 H   0  0  0  0  0  0  0  0  0  0  0  0
   56.3105   32.6138   51.9614 H   0  0  0  0  0  0  0  0  0  0  0  0
   54.2034   31.4348   51.3290 H   0  0  0  0  0  0  0  0  0  0  0  0
   53.8044   29.0901   52.0930 H   0  0  0  0  0  0  0  0  0  0  0  0
   55.5124   27.9227   53.4883 H   0  0  0  0  0  0  0  0  0  0  0  0
   57.6226   29.0937   54.1266 H   0  0  0  0  0  0  0  0  0  0  0  0
  1  2  2  0
  2  3  1  0
  3  4  1  0
  4  5  1  0
  5  6  2  0
  6  7  1  0
  7  8  2  0
  8  9  1  0
  8 10  1  0
 10 11  2  0
  4 12  1  0
 12 13  2  0
 12 14  2  0
 12 15  1  0
 15 16  2  0
 16 17  1  0
 17 18  2  0
 18 19  1  0
 19 20  2  0
 20 21  1  0
 21 22  2  0
 22 23  1  0
 23 24  2  0
  2 25  1  0
 25 26  1  0
 26 27  1  0
 27 28  1  0
 28 29  2  0
 29 30  1  0
 30 31  2  0
 31 32  1  0
 32 33  2  0
 11  5  1  0
 24 15  1  0
 33 28  1  0
 24 19  1  0
  3 34  1  0
  3 35  1  0
  6 36  1  0
  7 37  1  0
 10 38  1  0
 11 39  1  0
 16 40  1  0
 17 41  1  0
 18 42  1  0
 20 43  1  0
 21 44  1  0
 22 45  1  0
 23 46  1  0
 26 47  1  0
 26 48  1  0
 27 49  1  0
 27 50  1  0
 29 51  1  0
 30 52  1  0
 31 53  1  0
 32 54  1  0
 33 55  1  0
M  CHG  2  23   1  25  -1
M  END
>  <UniqueID>  (7) 
7

>  <SMILES>  (7) 
O=C(CN(c1ccc(Cl)cc1)S(=O)(=O)c1cccc2ccc[nH+]c12)[N-]CCc1ccccc1

>  <Energy>  (7) 
66.4190646696349

>  <Genealogy>  (7) 
O=C(CN(c1ccc(Cl)cc1)S(=O)(=O)c1cccc2ccc[nH+]c12)[N-]CCc1ccccc1 (protonated)
O=C(CN(c1ccc(Cl)cc1)S(=O)(=O)c1cccc2ccc[nH+]c12)[N-]CCc1ccccc1 (3D coordinates assigned)
O=C(CN(c1ccc(Cl)cc1)S(=O)(=O)c1cccc2ccc[nH+]c12)[N-]CCc1ccccc1 (optimized conformer: 66.4190646696349 kcal/mol)

>  <smiles>  (7) 
O=C(CN(c1ccc(Cl)cc1)S(=O)(=O)c1cccc2cccnc12)NCCc1ccccc1

>  <score_type>  (7) 
oracle

>  <origin>  (7) 
adg

>  <m_score__min__energy>  (7) 
-9.7100000000000009

>  <m_primary>  (7) 
energy

$$$$
7:0
     RDKit          3D

 65 67  0  0  0  0  0  0  0  0999 V2000
   57.5610   21.5460   43.6880 C   0  0  0  0  0  0  0  0  0  0  0  0
   58.9710   21.8310   44.2050 C   0  0  0  0  0  0  0  0  0  0  0  0
   58.9750   22.5070   45.5870 C   0  0  0  0  0  0  0  0  0  0  0  0
   57.9710   23.6310   45.6760 C   0  0  0  0  0  0  0  0  0  0  0  0
   56.8420   23.5080   46.4980 C   0  0  0  0  0  0  0  0  0  0  0  0
   55.9180   24.5510   46.5840 C   0  0  0  0  0  0  0  0  0  0  0  0
   56.1000   25.7150   45.8350 C   0  0  0  0  0  0  0  0  0  0  0  0
   55.1750   26.7490   45.9380 O   0  0  0  0  0  0  0  0  0  0  0  0
   57.1980   25.8330   44.9700 C   0  0  0  0  0  0  0  0  0  0  0  0
   57.3430   27.0340   44.2010 N   0  0  0  0  0  0  0  0  0  0  0  0
   57.1430   28.6570   44.7940 S   0  0  0  0  0  0  0  0  0  0  0  0
   55.7280   28.8860   45.2360 O   0  0  0  0  0  0  0  0  0  0  0  0
   57.4620   29.5850   43.6590 O   0  0  0  0  0  0  0  0  0  0  0  0
   58.2500   28.9640   46.1470 C   0  0  0  0  0  0  0  0  0  0  0  0
   58.8160   27.8510   46.7940 C   0  0  0  0  0  0  0  0  0  0  0  0
   59.7380   28.0100   47.8250 C   0  0  0  0  0  0  0  0  0  0  0  0
   60.1210   29.2910   48.2410 C   0  0  0  0  0  0  0  0  0  0  0  0
   61.1330   29.4630   49.3100 C   0  0  0  0  0  0  0  0  0  0  0  0
   61.3570   28.5070   50.1110 O   0  0  0  0  0  0  0  0  0  0  0  0
   61.8150   30.7220   49.4840 N   0  0  0  0  0  0  0  0  0  0  0  0
   62.9280   30.8770   50.4310 C   0  0  2  0  0  0  0  0  0  0  0  0
   62.3830   31.2440   51.8220 C   0  0  0  0  0  0  0  0  0  0  0  0
   63.9100   31.9460   49.9030 C   0  0  0  0  0  0  0  0  0  0  0  0
   63.6140   32.3530   48.4590 C   0  0  0  0  0  0  0  0  0  0  0  0
   59.5330   30.4090   47.6320 C   0  0  0  0  0  0  0  0  0  0  0  0
   58.5980   30.2690   46.5910 C   0  0  0  0  0  0  0  0  0  0  0  0
   57.9770   31.7650   45.8650 S   0  0  0  0  0  0  0  0  0  0  0  0
   56.6450   31.4950   45.2220 O   0  0  0  0  0  0  0  0  0  0  0  0
   58.9030   32.2700   44.7960 O   0  0  0  0  0  0  0  0  0  0  0  0
   57.7540   32.9390   47.1270 N   0  0  0  0  0  0  0  0  0  0  0  0
   58.6720   33.2170   48.1930 C   0  0  0  0  0  0  0  0  0  0  0  0
   58.5300   32.6270   49.4630 C   0  0  0  0  0  0  0  0  0  0  0  0
   59.4290   32.9470   50.4910 C   0  0  0  0  0  0  0  0  0  0  0  0
   60.4820   33.8380   50.2540 C   0  0  0  0  0  0  0  0  0  0  0  0
   60.6530   34.3940   48.9830 C   0  0  0  0  0  0  0  0  0  0  0  0
   59.7570   34.0800   47.9510 C   0  0  0  0  0  0  0  0  0  0  0  0
   59.9900   34.8090   46.3660 Cl  0  0  0  0  0  0  0  0  0  0  0  0
   58.1460   24.7960   44.9130 C   0  0  0  0  0  0  0  0  0  0  0  0
   56.8790   21.4081   44.5400 H   0  0  0  0  0  0  0  0  0  0  0  0
   57.2167   22.3927   43.0760 H   0  0  0  0  0  0  0  0  0  0  0  0
   57.5726   20.6320   43.0760 H   0  0  0  0  0  0  0  0  0  0  0  0
   59.5175   20.8791   44.2780 H   0  0  0  0  0  0  0  0  0  0  0  0
   59.4493   22.5234   43.4967 H   0  0  0  0  0  0  0  0  0  0  0  0
   58.7315   21.7535   46.3505 H   0  0  0  0  0  0  0  0  0  0  0  0
   59.9753   22.9345   45.7505 H   0  0  0  0  0  0  0  0  0  0  0  0
   56.6836   22.5864   47.0773 H   0  0  0  0  0  0  0  0  0  0  0  0
   55.0434   24.4553   47.2443 H   0  0  0  0  0  0  0  0  0  0  0  0
   58.5253   26.8376   46.4801 H   0  0  0  0  0  0  0  0  0  0  0  0
   60.1680   27.1243   48.3156 H   0  0  0  0  0  0  0  0  0  0  0  0
   61.4200   31.5700   49.0240 H   0  0  0  0  0  0  0  0  0  0  0  0
   63.4755   29.9276   50.5254 H   0  0  0  0  0  0  0  0  0  0  0  0
   63.0309   30.8077   52.5965 H   0  0  0  0  0  0  0  0  0  0  0  0
   62.3659   32.3383   51.9321 H   0  0  0  0  0  0  0  0  0  0  0  0
   61.3625   30.8484   51.9321 H   0  0  0  0  0  0  0  0  0  0  0  0
   63.8373   32.8380   50.5426 H   0  0  0  0  0  0  0  0  0  0  0  0
   64.9203   31.5116   49.9267 H   0  0  0  0  0  0  0  0  0  0  0  0
   62.9670   33.2426   48.4541 H   0  0  0  0  0  0  0  0  0  0  0  0
   64.5574   32.5829   47.9421 H   0  0  0  0  0  0  0  0  0  0  0  0
   63.1047   31.5263   47.9421 H   0  0  0  0  0  0  0  0  0  0  0  0
   59.8090   31.4168   47.9759 H   0  0  0  0  0  0  0  0  0  0  0  0
   57.7132   31.9142   49.6495 H   0  0  0  0  0  0  0  0  0  0  0  0
   59.3060   32.4962   51.4868 H   0  0  0  0  0  0  0  0  0  0  0  0
   61.1745   34.1005   51.0673 H   0  0  0  0  0  0  0  0  0  0  0  0
   61.4921   35.0792   48.7919 H   0  0  0  0  0  0  0  0  0  0  0  0
   59.0301   24.8984   44.2665 H   0  0  0  0  0  0  0  0  0  0  0  0
  1  2  1  0
  2  3  1  0
  3  4  1  0
  4  5  2  0
  5  6  1  0
  6  7  2  0
  7  8  1  0
  7  9  1  0
  9 10  1  0
 10 11  1  0
 11 12  2  0
 11 13  2  0
 11 14  1  0
 14 15  2  0
 15 16  1  0
 16 17  2  0
 17 18  1  0
 18 19  2  0
 18 20  1  0
 20 21  1  0
 21 22  1  0
 21 23  1  0
 23 24  1  0
 17 25  1  0
 25 26  2  0
 26 27  1  0
 27 28  2  0
 27 29  2  0
 27 30  1  0
 30 31  1  0
 31 32  2  0
 32 33  1  0
 33 34  2  0
 34 35  1  0
 35 36  2  0
 36 37  1  0
  9 38  2  0
 38  4  1  0
 26 14  1  0
 36 31  1  0
  1 39  1  0
  1 40  1  0
  1 41  1  0
  2 42  1  0
  2 43  1  0
  3 44  1  0
  3 45  1  0
  5 46  1  0
  6 47  1  0
 15 48  1  0
 16 49  1  0
 20 50  1  0
 21 51  1  1
 22 52  1  0
 22 53  1  0
 22 54  1  0
 23 55  1  0
 23 56  1  0
 24 57  1  0
 24 58  1  0
 24 59  1  0
 25 60  1  0
 32 61  1  0
 33 62  1  0
 34 63  1  0
 35 64  1  0
 38 65  1  0
M  CHG  3   8  -1  10  -1  30  -1
M  END
>  <UniqueID>  (8) 
8

>  <SMILES>  (8) 
CCCc1ccc([O-])c([N-]S(=O)(=O)c2ccc(C(=O)N[C@H](C)CC)cc2S(=O)(=O)[N-]c2ccccc2Cl)c1

>  <Energy>  (8) 
78.78160722503908

>  <Genealogy>  (8) 
CCCc1ccc([O-])c([N-]S(=O)(=O)c2ccc(C(=O)NC(C)CC)cc2S(=O)(=O)[N-]c2ccccc2Cl)c1 (protonated)
CCCc1ccc([O-])c([N-]S(=O)(=O)c2ccc(C(=O)N[C@H](C)CC)cc2S(=O)(=O)[N-]c2ccccc2Cl)c1 (chirality)
CCCc1ccc([O-])c([N-]S(=O)(=O)c2ccc(C(=O)N[C@H](C)CC)cc2S(=O)(=O)[N-]c2ccccc2Cl)c1 (3D coordinates assigned)
CCCc1ccc([O-])c([N-]S(=O)(=O)c2ccc(C(=O)N[C@H](C)CC)cc2S(=O)(=O)[N-]c2ccccc2Cl)c1 (optimized conformer: 78.78160722503908 kcal/mol)

>  <smiles>  (8) 
CCCc1ccc(O)c(NS(=O)(=O)c2ccc(C(=O)NC(C)CC)cc2S(=O)(=O)Nc2ccccc2Cl)c1

>  <score_type>  (8) 
oracle

>  <origin>  (8) 
adg

>  <m_score__min__energy>  (8) 
-17.739999999999998

>  <m_primary>  (8) 
energy

$$$$
8:0
     RDKit          3D

 54 57  0  0  0  0  0  0  0  0999 V2000
   58.8860   33.4570   51.8760 C   0  0  0  0  0  0  0  0  0  0  0  0
   60.1150   33.8340   51.5090 C   0  0  0  0  0  0  0  0  0  0  0  0
   61.1750   32.8330   51.1080 C   0  0  0  0  0  0  0  0  0  0  0  0
   62.0840   33.3230   50.0380 N   0  0  1  0  0  0  0  0  0  0  0  0
   62.4060   32.2700   49.0390 C   0  0  0  0  0  0  0  0  0  0  0  0
   61.5530   31.0350   49.2170 C   0  0  0  0  0  0  0  0  0  0  0  0
   60.3890   30.8530   48.4510 C   0  0  0  0  0  0  0  0  0  0  0  0
   59.5980   29.7130   48.6320 C   0  0  0  0  0  0  0  0  0  0  0  0
   59.9630   28.7500   49.5770 C   0  0  0  0  0  0  0  0  0  0  0  0
   61.1190   28.9240   50.3420 C   0  0  0  0  0  0  0  0  0  0  0  0
   61.9130   30.0620   50.1640 C   0  0  0  0  0  0  0  0  0  0  0  0
   61.5300   34.5350   49.3820 C   0  0  0  0  0  0  0  0  0  0  0  0
   60.6120   34.1860   48.2300 C   0  0  0  0  0  0  0  0  0  0  0  0
   59.2730   33.8380   48.4650 C   0  0  0  0  0  0  0  0  0  0  0  0
   58.4420   33.4740   47.4020 C   0  0  0  0  0  0  0  0  0  0  0  0
   58.9360   33.4600   46.0880 C   0  0  0  0  0  0  0  0  0  0  0  0
   58.0620   33.0020   44.9540 C   0  0  0  0  0  0  0  0  0  0  0  0
   57.8060   31.5290   45.0690 C   0  0  0  0  0  0  0  0  0  0  0  0
   58.8390   30.6440   45.4300 C   0  0  0  0  0  0  0  0  0  0  0  0
   58.5520   29.3180   45.4640 N   0  0  0  0  0  0  0  0  0  0  0  0
   59.3550   28.2850   45.7710 C   0  0  0  0  0  0  0  0  0  0  0  0
   58.6200   27.1140   45.6620 C   0  0  0  0  0  0  0  0  0  0  0  0
   59.2170   25.4940   45.9560 Cl  0  0  0  0  0  0  0  0  0  0  0  0
   57.3310   27.4500   45.2750 C   0  0  0  0  0  0  0  0  0  0  0  0
   57.3390   28.8270   45.1640 C   0  0  0  0  0  0  0  0  0  0  0  0
   56.3080   29.6900   44.7970 C   0  0  0  0  0  0  0  0  0  0  0  0
   55.1620   29.2570   44.5060 O   0  0  0  0  0  0  0  0  0  0  0  0
   56.5720   31.0280   44.7540 N   0  0  0  0  0  0  0  0  0  0  0  0
   60.2770   33.8050   45.8540 C   0  0  0  0  0  0  0  0  0  0  0  0
   61.1070   34.1690   46.9170 C   0  0  0  0  0  0  0  0  0  0  0  0
   58.1407   34.2140   52.1613 H   0  0  0  0  0  0  0  0  0  0  0  0
   58.6201   32.3898   51.8926 H   0  0  0  0  0  0  0  0  0  0  0  0
   60.3628   34.9057   51.4984 H   0  0  0  0  0  0  0  0  0  0  0  0
   61.7798   32.5932   51.9950 H   0  0  0  0  0  0  0  0  0  0  0  0
   60.6513   31.9525   50.7074 H   0  0  0  0  0  0  0  0  0  0  0  0
   62.9740   33.5990   50.5170 H   0  0  0  0  0  0  0  0  0  0  0  0
   62.2371   32.6750   48.0303 H   0  0  0  0  0  0  0  0  0  0  0  0
   63.4569   31.9784   49.1822 H   0  0  0  0  0  0  0  0  0  0  0  0
   60.0987   31.6092   47.7067 H   0  0  0  0  0  0  0  0  0  0  0  0
   58.6879   29.5746   48.0299 H   0  0  0  0  0  0  0  0  0  0  0  0
   59.3398   27.8547   49.7185 H   0  0  0  0  0  0  0  0  0  0  0  0
   61.4052   28.1653   51.0852 H   0  0  0  0  0  0  0  0  0  0  0  0
   62.8227   30.1953   50.7679 H   0  0  0  0  0  0  0  0  0  0  0  0
   60.9625   35.1136   50.1258 H   0  0  0  0  0  0  0  0  0  0  0  0
   62.3713   35.1195   48.9814 H   0  0  0  0  0  0  0  0  0  0  0  0
   58.8757   33.8518   49.4906 H   0  0  0  0  0  0  0  0  0  0  0  0
   57.3953   33.1970   47.5959 H   0  0  0  0  0  0  0  0  0  0  0  0
   57.1046   33.5424   44.9903 H   0  0  0  0  0  0  0  0  0  0  0  0
   58.5695   33.2077   44.0000 H   0  0  0  0  0  0  0  0  0  0  0  0
   59.8450   31.0145   45.6763 H   0  0  0  0  0  0  0  0  0  0  0  0
   60.4141   28.3561   46.0594 H   0  0  0  0  0  0  0  0  0  0  0  0
   56.4864   26.7685   45.0956 H   0  0  0  0  0  0  0  0  0  0  0  0
   60.6757   33.7885   44.8289 H   0  0  0  0  0  0  0  0  0  0  0  0
   62.1544   34.4438   46.7238 H   0  0  0  0  0  0  0  0  0  0  0  0
  1  2  2  0
  2  3  1  0
  3  4  1  0
  4  5  1  0
  5  6  1  0
  6  7  2  0
  7  8  1  0
  8  9  2  0
  9 10  1  0
 10 11  2  0
  4 12  1  0
 12 13  1  0
 13 14  2  0
 14 15  1  0
 15 16  2  0
 16 17  1  0
 17 18  1  0
 18 19  2  0
 19 20  1  0
 20 21  1  0
 21 22  2  0
 22 23  1  0
 22 24  1  0
 24 25  2  0
 25 26  1  0
 26 27  2  0
 26 28  1  0
 16 29  1  0
 29 30  2  0
 11  6  1  0
 30 13  1  0
 28 18  1  0
 25 20  1  0
  1 31  1  0
  1 32  1  0
  2 33  1  0
  3 34  1  0
  3 35  1  0
  4 36  1  1
  5 37  1  0
  5 38  1  0
  7 39  1  0
  8 40  1  0
  9 41  1  0
 10 42  1  0
 11 43  1  0
 12 44  1  0
 12 45  1  0
 14 46  1  0
 15 47  1  0
 17 48  1  0
 17 49  1  0
 19 50  1  0
 21 51  1  0
 24 52  1  0
 29 53  1  0
 30 54  1  0
M  CHG  2   4   1  28  -1
M  END
>  <UniqueID>  (9) 
9

>  <SMILES>  (9) 
C=CC[N@@H+](Cc1ccccc1)Cc1ccc(Cc2cn3cc(Cl)cc3c(=O)[n-]2)cc1

>  <Energy>  (9) 
91.9536363504354

>  <Genealogy>  (9) 
C=CC[NH+](Cc1ccccc1)Cc1ccc(Cc2cn3cc(Cl)cc3c(=O)[n-]2)cc1 (protonated)
C=CC[N@@H+](Cc1ccccc1)Cc1ccc(Cc2cn3cc(Cl)cc3c(=O)[n-]2)cc1 (chirality)
C=CC[N@@H+](Cc1ccccc1)Cc1ccc(Cc2cn3cc(Cl)cc3c(=O)[n-]2)cc1 (3D coordinates assigned)
C=CC[N@@H+](Cc1ccccc1)Cc1ccc(Cc2cn3cc(Cl)cc3c(=O)[n-]2)cc1 (optimized conformer: 91.9536363504354 kcal/mol)

>  <smiles>  (9) 
C=CCN(Cc1ccccc1)Cc1ccc(Cc2cn3cc(Cl)cc3c(=O)[nH]2)cc1

>  <score_type>  (9) 
oracle

>  <origin>  (9) 
adg

>  <m_score__min__energy>  (9) 
-9.5

>  <m_primary>  (9) 
energy

$$$$
9:0
     RDKit          3D

 36 37  0  0  0  0  0  0  0  0999 V2000
   57.5038   25.3936   46.9603 H   0  0  0  0  0  0  0  0  0  0  0  0
   57.6160   26.3940   46.5170 C   0  0  0  0  0  0  0  0  0  0  0  0
   58.8690   27.0060   46.4960 C   0  0  0  0  0  0  0  0  0  0  0  0
   59.7376   26.4871   46.9276 H   0  0  0  0  0  0  0  0  0  0  0  0
   59.0290   28.2770   45.9290 C   0  0  0  0  0  0  0  0  0  0  0  0
   60.3870   28.9320   45.9160 C   0  0  0  0  0  0  0  0  0  0  0  0
   61.1624   28.1550   45.9866 H   0  0  0  0  0  0  0  0  0  0  0  0
   60.4954   29.4985   44.9793 H   0  0  0  0  0  0  0  0  0  0  0  0
   60.5310   29.8570   47.0420 N   0  0  0  0  0  0  0  0  0  0  0  0
   60.8540   31.1170   46.9850 C   0  0  0  0  0  0  0  0  0  0  0  0
   59.8740   32.0280   46.7470 N   0  0  0  0  0  0  0  0  0  0  0  0
   60.1370   33.3610   46.6800 C   0  0  0  0  0  0  0  0  0  0  0  0
   59.0270   34.3360   46.4170 C   0  0  0  0  0  0  0  0  0  0  0  0
   59.2080   34.9610   45.1960 F   0  0  0  0  0  0  0  0  0  0  0  0
   57.8160   33.6670   46.4010 F   0  0  0  0  0  0  0  0  0  0  0  0
   59.0050   35.2960   47.4120 F   0  0  0  0  0  0  0  0  0  0  0  0
   61.4470   33.8100   46.8610 C   0  0  0  0  0  0  0  0  0  0  0  0
   61.6836   34.8833   46.8143 H   0  0  0  0  0  0  0  0  0  0  0  0
   62.4490   32.8710   47.1020 C   0  0  0  0  0  0  0  0  0  0  0  0
   63.6390   33.2510   47.2650 O   0  0  0  0  0  0  0  0  0  0  0  0
   62.1430   31.5460   47.1580 N   0  0  0  0  0  0  0  0  0  0  0  0
   62.9210   30.8720   47.3300 H   0  0  0  0  0  0  0  0  0  0  0  0
   57.9110   28.9390   45.4010 C   0  0  0  0  0  0  0  0  0  0  0  0
   58.0259   29.9453   44.9720 H   0  0  0  0  0  0  0  0  0  0  0  0
   56.6420   28.3270   45.4150 C   0  0  0  0  0  0  0  0  0  0  0  0
   55.5060   28.9570   44.8830 O   0  0  0  0  0  0  0  0  0  0  0  0
   55.5400   30.0550   43.9760 C   0  0  0  0  0  0  0  0  0  0  0  0
   55.5692   30.9976   44.5423 H   0  0  0  0  0  0  0  0  0  0  0  0
   56.4362   29.9798   43.3427 H   0  0  0  0  0  0  0  0  0  0  0  0
   54.6408   30.0354   43.3427 H   0  0  0  0  0  0  0  0  0  0  0  0
   56.4930   27.0490   45.9740 C   0  0  0  0  0  0  0  0  0  0  0  0
   55.2170   26.4640   45.9750 O   0  0  0  0  0  0  0  0  0  0  0  0
   54.9470   25.1160   45.6080 C   0  0  0  0  0  0  0  0  0  0  0  0
   54.8249   24.5064   46.5154 H   0  0  0  0  0  0  0  0  0  0  0  0
   54.0230   25.0762   45.0124 H   0  0  0  0  0  0  0  0  0  0  0  0
   55.7843   24.7234   45.0124 H   0  0  0  0  0  0  0  0  0  0  0  0
  1  2  1  0
  2  3  2  0
  3  4  1  0
  3  5  1  0
  5  6  1  0
  6  7  1  0
  6  8  1  0
  6  9  1  0
  9 10  2  0
 10 11  1  0
 11 12  1  0
 12 13  1  0
 13 14  1  0
 13 15  1  0
 13 16  1  0
 12 17  2  0
 17 18  1  0
 17 19  1  0
 19 20  2  0
 19 21  1  0
 21 22  1  0
  5 23  2  0
 23 24  1  0
 23 25  1  0
 25 26  1  0
 26 27  1  0
 27 28  1  0
 27 29  1  0
 27 30  1  0
 25 31  2  0
 31 32  1  0
 32 33  1  0
 33 34  1  0
 33 35  1  0
 33 36  1  0
 31  2  1  0
 21 10  1  0
M  CHG  1  11  -1
M  END
>  <UniqueID>  (10) 
10

>  <SMILES>  (10) 
COc1ccc(C/N=c2/[n-]c(C(F)(F)F)cc(=O)[nH]2)cc1OC

>  <Energy>  (10) 
36.5206247591011

>  <Genealogy>  (10) 
COc1ccc(CN=c2[n-]c(C(F)(F)F)cc(=O)[nH]2)cc1OC (protonated)
COc1ccc(C/N=c2/[n-]c(C(F)(F)F)cc(=O)[nH]2)cc1OC (cis-trans isomerization)
COc1ccc(C/N=c2/[n-]c(C(F)(F)F)cc(=O)[nH]2)cc1OC (3D coordinates assigned)
COc1ccc(C/N=c2/[n-]c(C(F)(F)F)cc(=O)[nH]2)cc1OC (optimized conformer: 36.5206247591011 kcal/mol)

>  <smiles>  (10) 
COc1ccc(CN=c2[nH]c(C(F)(F)F)cc(=O)[nH]2)cc1OC

>  <score_type>  (10) 
oracle

>  <origin>  (10) 
adg

>  <m_score__min__energy>  (10) 
-7.9000000000000004

>  <m_primary>  (10) 
energy

$$$$
10:0
     RDKit          3D

 60 63  0  0  0  0  0  0  0  0999 V2000
   57.0260   30.8690   42.2960 C   0  0  0  0  0  0  0  0  0  0  0  0
   57.0190   29.5250   43.0110 C   0  0  0  0  0  0  0  0  0  0  0  0
   56.4090   29.6910   44.6800 S   0  0  0  0  0  0  0  0  0  0  0  0
   56.0840   28.3380   45.2460 O   0  0  0  0  0  0  0  0  0  0  0  0
   55.1530   30.5170   44.6890 O   0  0  0  0  0  0  0  0  0  0  0  0
   57.6180   30.4410   45.6740 N   0  0  0  0  0  0  0  0  0  0  0  0
   57.9860   31.8240   45.5900 C   0  0  0  0  0  0  0  0  0  0  0  0
   57.0480   32.8010   45.2050 C   0  0  0  0  0  0  0  0  0  0  0  0
   57.3840   34.1550   45.2310 C   0  0  0  0  0  0  0  0  0  0  0  0
   58.6570   34.5520   45.6370 C   0  0  0  0  0  0  0  0  0  0  0  0
   59.6040   33.5930   45.9980 C   0  0  0  0  0  0  0  0  0  0  0  0
   59.2870   32.2290   45.9590 C   0  0  0  0  0  0  0  0  0  0  0  0
   60.5910   31.0590   46.3980 S   0  0  0  0  0  0  0  0  0  0  0  0
   61.3250   32.0330   47.7260 C   0  0  0  0  0  0  0  0  0  0  0  0
   62.5890   32.6090   47.5380 C   0  0  0  0  0  0  0  0  0  0  0  0
   63.1350   33.4480   48.5090 C   0  0  0  0  0  0  0  0  0  0  0  0
   62.4440   33.7040   49.6960 C   0  0  0  0  0  0  0  0  0  0  0  0
   63.0260   34.5740   50.6300 O   0  0  0  0  0  0  0  0  0  0  0  0
   64.0920   34.2210   51.5050 C   0  0  0  0  0  0  0  0  0  0  0  0
   61.2050   33.0760   49.9190 C   0  0  0  0  0  0  0  0  0  0  0  0
   60.6440   32.2220   48.9520 C   0  0  0  0  0  0  0  0  0  0  0  0
   59.3710   31.4710   49.2920 C   0  0  0  0  0  0  0  0  0  0  0  0
   59.4660   30.0570   48.9090 N   0  0  0  0  0  0  0  0  0  0  0  0
   58.7990   29.5530   47.8820 N   0  0  0  0  0  0  0  0  0  0  0  0
   59.1240   28.2510   47.7320 C   0  0  0  0  0  0  0  0  0  0  0  0
   58.6130   27.3580   46.6530 C   0  0  0  0  0  0  0  0  0  0  0  0
   57.7740   26.2660   46.9610 C   0  0  0  0  0  0  0  0  0  0  0  0
   57.3210   25.4090   45.9550 C   0  0  0  0  0  0  0  0  0  0  0  0
   57.6910   25.6290   44.6270 C   0  0  0  0  0  0  0  0  0  0  0  0
   58.5150   26.7060   44.3030 C   0  0  0  0  0  0  0  0  0  0  0  0
   58.9740   27.5670   45.3060 C   0  0  0  0  0  0  0  0  0  0  0  0
   60.0370   27.9130   48.7200 C   0  0  0  0  0  0  0  0  0  0  0  0
   60.2210   29.0700   49.4540 C   0  0  0  0  0  0  0  0  0  0  0  0
   61.0780   29.1430   50.6550 C   0  0  0  0  0  0  0  0  0  0  0  0
   60.8870   28.3880   51.6420 O   0  0  0  0  0  0  0  0  0  0  0  0
   62.1560   30.0190   50.6740 O   0  0  0  0  0  0  0  0  0  0  0  0
   57.0302   31.6798   43.0394 H   0  0  0  0  0  0  0  0  0  0  0  0
   57.9246   30.9445   41.6660 H   0  0  0  0  0  0  0  0  0  0  0  0
   56.1283   30.9538   41.6660 H   0  0  0  0  0  0  0  0  0  0  0  0
   56.3717   28.8275   42.4592 H   0  0  0  0  0  0  0  0  0  0  0  0
   58.0502   29.1443   43.0512 H   0  0  0  0  0  0  0  0  0  0  0  0
   56.0424   32.4944   44.8812 H   0  0  0  0  0  0  0  0  0  0  0  0
   56.6430   34.9104   44.9306 H   0  0  0  0  0  0  0  0  0  0  0  0
   58.9149   35.6207   45.6728 H   0  0  0  0  0  0  0  0  0  0  0  0
   60.6080   33.9107   46.3159 H   0  0  0  0  0  0  0  0  0  0  0  0
   63.1542   32.3978   46.6182 H   0  0  0  0  0  0  0  0  0  0  0  0
   64.1177   33.9120   48.3389 H   0  0  0  0  0  0  0  0  0  0  0  0
   63.7614   34.3305   52.5484 H   0  0  0  0  0  0  0  0  0  0  0  0
   64.3868   33.1773   51.3213 H   0  0  0  0  0  0  0  0  0  0  0  0
   64.9515   34.8825   51.3213 H   0  0  0  0  0  0  0  0  0  0  0  0
   60.6677   33.2551   50.8620 H   0  0  0  0  0  0  0  0  0  0  0  0
   59.1947   31.5374   50.3757 H   0  0  0  0  0  0  0  0  0  0  0  0
   58.5401   31.9264   48.7333 H   0  0  0  0  0  0  0  0  0  0  0  0
   58.1360   30.1060   47.2960 H   0  0  0  0  0  0  0  0  0  0  0  0
   57.4735   26.0877   48.0040 H   0  0  0  0  0  0  0  0  0  0  0  0
   56.6712   24.5588   46.2099 H   0  0  0  0  0  0  0  0  0  0  0  0
   57.3326   24.9530   43.8367 H   0  0  0  0  0  0  0  0  0  0  0  0
   58.8050   26.8793   43.2562 H   0  0  0  0  0  0  0  0  0  0  0  0
   59.6226   28.4150   45.0412 H   0  0  0  0  0  0  0  0  0  0  0  0
   60.5124   26.9347   48.8842 H   0  0  0  0  0  0  0  0  0  0  0  0
  1  2  1  0
  2  3  1  0
  3  4  2  0
  3  5  2  0
  3  6  1  0
  6  7  1  0
  7  8  2  0
  8  9  1  0
  9 10  2  0
 10 11  1  0
 11 12  2  0
 12 13  1  0
 13 14  1  0
 14 15  2  0
 15 16  1  0
 16 17  2  0
 17 18  1  0
 18 19  1  0
 17 20  1  0
 20 21  2  0
 21 22  1  0
 22 23  1  0
 23 24  1  0
 24 25  2  0
 25 26  1  0
 26 27  2  0
 27 28  1  0
 28 29  2  0
 29 30  1  0
 30 31  2  0
 25 32  1  0
 32 33  2  0
 33 34  1  0
 34 35  2  0
 34 36  1  0
 12  7  1  0
 21 14  1  0
 33 23  1  0
 31 26  1  0
  1 37  1  0
  1 38  1  0
  1 39  1  0
  2 40  1  0
  2 41  1  0
  8 42  1  0
  9 43  1  0
 10 44  1  0
 11 45  1  0
 15 46  1  0
 16 47  1  0
 19 48  1  0
 19 49  1  0
 19 50  1  0
 20 51  1  0
 22 52  1  0
 22 53  1  0
 24 54  1  0
 27 55  1  0
 28 56  1  0
 29 57  1  0
 30 58  1  0
 31 59  1  0
 32 60  1  0
M  CHG  3   6  -1  24   1  36  -1
M  END
>  <UniqueID>  (11) 
11

>  <SMILES>  (11) 
CCS(=O)(=O)[N-]c1ccccc1Sc1ccc(OC)cc1Cn1[nH+]c(-c2ccccc2)cc1C(=O)[O-]

>  <Energy>  (11) 
94.27021762918528

>  <Genealogy>  (11) 
CCS(=O)(=O)[N-]c1ccccc1Sc1ccc(OC)cc1Cn1[nH+]c(-c2ccccc2)cc1C(=O)[O-] (protonated)
CCS(=O)(=O)[N-]c1ccccc1Sc1ccc(OC)cc1Cn1[nH+]c(-c2ccccc2)cc1C(=O)[O-] (3D coordinates assigned)
CCS(=O)(=O)[N-]c1ccccc1Sc1ccc(OC)cc1Cn1[nH+]c(-c2ccccc2)cc1C(=O)[O-] (optimized conformer: 94.27021762918528 kcal/mol)

>  <smiles>  (11) 
CCS(=O)(=O)Nc1ccccc1Sc1ccc(OC)cc1Cn1nc(-c2ccccc2)cc1C(=O)O

>  <score_type>  (11) 
oracle

>  <origin>  (11) 
adg

>  <m_score__min__energy>  (11) 
-11.359999999999999

>  <m_primary>  (11) 
energy

$$$$
11:0
     RDKit          3D

 31 32  0  0  0  0  0  0  0  0999 V2000
   58.7681   33.0010   43.0655 H   0  0  0  0  0  0  0  0  0  0  0  0
   58.0700   32.2260   42.7160 C   0  0  0  0  0  0  0  0  0  0  0  0
   57.5300   32.3440   41.5840 O   0  0  0  0  0  0  0  0  0  0  0  0
   57.7820   31.0660   43.5810 C   0  0  0  0  0  0  0  0  0  0  0  0
   56.4550   30.7220   43.8530 C   0  0  0  0  0  0  0  0  0  0  0  0
   55.6394   31.3192   43.4192 H   0  0  0  0  0  0  0  0  0  0  0  0
   56.1510   29.6290   44.6690 C   0  0  0  0  0  0  0  0  0  0  0  0
   54.8120   29.3420   44.9000 O   0  0  0  0  0  0  0  0  0  0  0  0
   57.1900   28.8500   45.2360 C   0  0  0  0  0  0  0  0  0  0  0  0
   56.9520   27.7380   46.0680 O   0  0  0  0  0  0  0  0  0  0  0  0
   57.0290   26.3670   45.6910 C   0  0  0  0  0  0  0  0  0  0  0  0
   57.0642   25.7398   46.5940 H   0  0  0  0  0  0  0  0  0  0  0  0
   56.1444   26.1007   45.0939 H   0  0  0  0  0  0  0  0  0  0  0  0
   57.9379   26.2014   45.0939 H   0  0  0  0  0  0  0  0  0  0  0  0
   58.5350   29.1960   44.9620 C   0  0  0  0  0  0  0  0  0  0  0  0
   59.6410   28.3960   45.5430 C   0  0  0  0  0  0  0  0  0  0  0  0
   60.0325   27.5284   44.9917 H   0  0  0  0  0  0  0  0  0  0  0  0
   60.1530   28.7090   46.6970 N   0  0  0  0  0  0  0  0  0  0  0  0
   60.0930   29.9930   47.3420 C   0  0  0  0  0  0  0  0  0  0  0  0
   61.1710   30.8720   47.1670 C   0  0  0  0  0  0  0  0  0  0  0  0
   62.0316   30.5640   46.5551 H   0  0  0  0  0  0  0  0  0  0  0  0
   61.1620   32.1360   47.7630 C   0  0  0  0  0  0  0  0  0  0  0  0
   62.0170   32.8142   47.6249 H   0  0  0  0  0  0  0  0  0  0  0  0
   60.0690   32.5400   48.5340 C   0  0  0  0  0  0  0  0  0  0  0  0
   60.0580   34.1270   49.2810 Cl  0  0  0  0  0  0  0  0  0  0  0  0
   58.9810   31.6790   48.7040 C   0  0  0  0  0  0  0  0  0  0  0  0
   58.1181   31.9983   49.3069 H   0  0  0  0  0  0  0  0  0  0  0  0
   58.9860   30.4130   48.1100 C   0  0  0  0  0  0  0  0  0  0  0  0
   58.1242   29.7423   48.2418 H   0  0  0  0  0  0  0  0  0  0  0  0
   58.8170   30.3010   44.1380 C   0  0  0  0  0  0  0  0  0  0  0  0
   59.8631   30.5684   43.9279 H   0  0  0  0  0  0  0  0  0  0  0  0
  1  2  1  0
  2  3  2  0
  2  4  1  0
  4  5  2  0
  5  6  1  0
  5  7  1  0
  7  8  1  0
  7  9  2  0
  9 10  1  0
 10 11  1  0
 11 12  1  0
 11 13  1  0
 11 14  1  0
  9 15  1  0
 15 16  1  0
 16 17  1  0
 16 18  2  0
 18 19  1  0
 19 20  2  0
 20 21  1  0
 20 22  1  0
 22 23  1  0
 22 24  2  0
 24 25  1  0
 24 26  1  0
 26 27  1  0
 26 28  2  0
 28 29  1  0
 15 30  2  0
 30 31  1  0
 30  4  1  0
 28 19  1  0
M  CHG  1   8  -1
M  END
>  <UniqueID>  (12) 
12

>  <SMILES>  (12) 
COc1c([O-])cc(C=O)cc1/C=N/c1ccc(Cl)cc1

>  <Energy>  (12) 
37.913357408768626

>  <Genealogy>  (12) 
COc1c([O-])cc(C=O)cc1C=Nc1ccc(Cl)cc1 (protonated)
COc1c([O-])cc(C=O)cc1/C=N/c1ccc(Cl)cc1 (cis-trans isomerization)
COc1c([O-])cc(C=O)cc1/C=N/c1ccc(Cl)cc1 (3D coordinates assigned)
COc1c([O-])cc(C=O)cc1/C=N/c1ccc(Cl)cc1 (optimized conformer: 37.913357408768626 kcal/mol)

>  <smiles>  (12) 
COc1c(O)cc(C=O)cc1C=Nc1ccc(Cl)cc1

>  <score_type>  (12) 
oracle

>  <origin>  (12) 
adg

>  <m_score__min__energy>  (12) 
-10.92

>  <m_primary>  (12) 
energy

$$$$
12:0
     RDKit          3D

 42 46  0  0  0  0  0  0  0  0999 V2000
   59.2450   33.5850   46.1250 C   0  0  0  0  0  0  0  0  0  0  0  0
   59.6440   32.4200   46.7830 C   0  0  0  0  0  0  0  0  0  0  0  0
   59.2740   31.1690   46.2800 C   0  0  0  0  0  0  0  0  0  0  0  0
   58.5000   31.0710   45.1080 C   0  0  0  0  0  0  0  0  0  0  0  0
   58.1170   29.7380   44.5860 C   0  0  0  0  0  0  0  0  0  0  0  0
   58.2400   28.5120   45.2210 C   0  0  0  0  0  0  0  0  0  0  0  0
   57.7700   27.5860   44.3620 N   0  0  0  0  0  0  0  0  0  0  0  0
   57.6930   26.1630   44.5750 C   0  0  0  0  0  0  0  0  0  0  0  0
   57.9330   25.6130   45.8630 C   0  0  0  0  0  0  0  0  0  0  0  0
   57.8610   24.2270   46.0820 C   0  0  0  0  0  0  0  0  0  0  0  0
   57.5520   23.4110   44.9970 C   0  0  0  0  0  0  0  0  0  0  0  0
   57.4020   22.0410   44.8960 C   0  0  0  0  0  0  0  0  0  0  0  0
   57.4710   21.0300   45.9990 C   0  0  0  0  0  0  0  0  0  0  0  0
   56.7760   21.5520   47.2160 C   0  0  0  0  0  0  0  0  0  0  0  0
   55.4420   21.8690   47.3150 C   0  0  0  0  0  0  0  0  0  0  0  0
   55.1770   22.2360   48.5800 N   0  0  0  0  0  0  0  0  0  0  0  0
   56.3650   22.1230   49.2130 C   0  0  0  0  0  0  0  0  0  0  0  0
   57.3660   21.6980   48.4140 N   0  0  0  0  0  0  0  0  0  0  0  0
   57.0620   21.7950   43.5690 C   0  0  0  0  0  0  0  0  0  0  0  0
   57.0190   22.9540   42.8720 N   0  0  0  0  0  0  0  0  0  0  0  0
   57.3160   23.9280   43.7500 C   0  0  0  0  0  0  0  0  0  0  0  0
   57.3780   25.2980   43.5000 C   0  0  0  0  0  0  0  0  0  0  0  0
   57.3810   28.2200   43.2660 N   0  0  0  0  0  0  0  0  0  0  0  0
   57.5760   29.5250   43.3680 N   0  0  0  0  0  0  0  0  0  0  0  0
   58.1050   32.2530   44.4540 C   0  0  0  0  0  0  0  0  0  0  0  0
   58.4770   33.5020   44.9620 C   0  0  0  0  0  0  0  0  0  0  0  0
   59.5358   34.5684   46.5230 H   0  0  0  0  0  0  0  0  0  0  0  0
   60.2503   32.4865   47.6984 H   0  0  0  0  0  0  0  0  0  0  0  0
   59.5899   30.2547   46.8037 H   0  0  0  0  0  0  0  0  0  0  0  0
   58.6424   28.3305   46.2286 H   0  0  0  0  0  0  0  0  0  0  0  0
   58.1787   26.2821   46.7008 H   0  0  0  0  0  0  0  0  0  0  0  0
   58.0430   23.8000   47.0793 H   0  0  0  0  0  0  0  0  0  0  0  0
   56.9831   20.1000   45.6717 H   0  0  0  0  0  0  0  0  0  0  0  0
   58.5255   20.8327   46.2423 H   0  0  0  0  0  0  0  0  0  0  0  0
   54.7116   21.8288   46.4935 H   0  0  0  0  0  0  0  0  0  0  0  0
   56.5034   22.3555   50.2792 H   0  0  0  0  0  0  0  0  0  0  0  0
   56.8574   20.8000   43.1469 H   0  0  0  0  0  0  0  0  0  0  0  0
   56.7870   23.0650   41.8610 H   0  0  0  0  0  0  0  0  0  0  0  0
   57.1869   25.6967   42.4927 H   0  0  0  0  0  0  0  0  0  0  0  0
   56.9500   27.7670   42.4290 H   0  0  0  0  0  0  0  0  0  0  0  0
   57.4998   32.1942   43.5374 H   0  0  0  0  0  0  0  0  0  0  0  0
   58.1639   34.4206   44.4442 H   0  0  0  0  0  0  0  0  0  0  0  0
  1  2  2  0
  2  3  1  0
  3  4  2  0
  4  5  1  0
  5  6  2  0
  6  7  1  0
  7  8  1  0
  8  9  2  0
  9 10  1  0
 10 11  2  0
 11 12  1  0
 12 13  1  0
 13 14  1  0
 14 15  2  0
 15 16  1  0
 16 17  1  0
 17 18  2  0
 12 19  2  0
 19 20  1  0
 20 21  1  0
 21 22  2  0
  7 23  1  0
 23 24  2  0
  4 25  1  0
 25 26  2  0
 26  1  1  0
 24  5  1  0
 22  8  1  0
 21 11  1  0
 18 14  1  0
  1 27  1  0
  2 28  1  0
  3 29  1  0
  6 30  1  0
  9 31  1  0
 10 32  1  0
 13 33  1  0
 13 34  1  0
 15 35  1  0
 17 36  1  0
 19 37  1  0
 20 38  1  0
 22 39  1  0
 23 40  1  0
 25 41  1  0
 26 42  1  0
M  CHG  2  16  -1  23   1
M  END
>  <UniqueID>  (13) 
13

>  <SMILES>  (13) 
c1ccc(-c2cn(-c3ccc4c(Cc5c[n-]cn5)c[nH]c4c3)[nH+]n2)cc1

>  <Energy>  (13) 
146.04266931538643

>  <Genealogy>  (13) 
c1ccc(-c2cn(-c3ccc4c(Cc5c[n-]cn5)c[nH]c4c3)[nH+]n2)cc1 (protonated)
c1ccc(-c2cn(-c3ccc4c(Cc5c[n-]cn5)c[nH]c4c3)[nH+]n2)cc1 (3D coordinates assigned)
c1ccc(-c2cn(-c3ccc4c(Cc5c[n-]cn5)c[nH]c4c3)[nH+]n2)cc1 (optimized conformer: 146.04266931538643 kcal/mol)

>  <smiles>  (13) 
c1ccc(-c2cn(-c3ccc4c(Cc5c[nH]cn5)c[nH]c4c3)nn2)cc1

>  <score_type>  (13) 
oracle

>  <origin>  (13) 
adg

>  <m_score__min__energy>  (13) 
-8.2699999999999996

>  <m_primary>  (13) 
energy

$$$$
13:0
     RDKit          3D

 36 38  0  0  0  0  0  0  0  0999 V2000
   63.2450   33.6260   49.5240 C   0  0  0  0  0  0  0  0  0  0  0  0
   62.1050   33.6920   48.5500 C   0  0  0  0  0  0  0  0  0  0  0  0
   62.3310   33.4720   47.1820 C   0  0  0  0  0  0  0  0  0  0  0  0
   61.2750   33.5680   46.2710 C   0  0  0  0  0  0  0  0  0  0  0  0
   59.9870   33.8960   46.7150 C   0  0  0  0  0  0  0  0  0  0  0  0
   58.6580   34.0120   45.5680 S   0  0  0  0  0  0  0  0  0  0  0  0
   58.7890   35.2620   44.7430 O   0  0  0  0  0  0  0  0  0  0  0  0
   57.3560   34.0590   46.3180 O   0  0  0  0  0  0  0  0  0  0  0  0
   58.6580   32.6360   44.5110 N   0  0  0  0  0  0  0  0  0  0  0  0
   57.8620   31.4640   44.7580 C   0  0  0  0  0  0  0  0  0  0  0  0
   56.6330   31.3070   44.0950 C   0  0  0  0  0  0  0  0  0  0  0  0
   55.8670   30.1570   44.2680 C   0  0  0  0  0  0  0  0  0  0  0  0
   56.3080   29.1330   45.1020 C   0  0  0  0  0  0  0  0  0  0  0  0
   55.5210   27.9930   45.2450 O   0  0  0  0  0  0  0  0  0  0  0  0
   57.5300   29.2580   45.7890 C   0  0  0  0  0  0  0  0  0  0  0  0
   57.9800   28.2340   46.6420 C   0  0  0  0  0  0  0  0  0  0  0  0
   59.1800   28.3700   47.3380 C   0  0  0  0  0  0  0  0  0  0  0  0
   59.9420   29.5290   47.2010 C   0  0  0  0  0  0  0  0  0  0  0  0
   59.5150   30.5570   46.3580 C   0  0  0  0  0  0  0  0  0  0  0  0
   58.3150   30.4350   45.6240 C   0  0  0  0  0  0  0  0  0  0  0  0
   59.7660   34.1390   48.0770 C   0  0  0  0  0  0  0  0  0  0  0  0
   60.8190   34.0430   48.9890 C   0  0  0  0  0  0  0  0  0  0  0  0
   62.8516   33.6488   50.5510 H   0  0  0  0  0  0  0  0  0  0  0  0
   63.8075   32.6938   49.3674 H   0  0  0  0  0  0  0  0  0  0  0  0
   63.9114   34.4871   49.3674 H   0  0  0  0  0  0  0  0  0  0  0  0
   63.3417   33.2234   46.8260 H   0  0  0  0  0  0  0  0  0  0  0  0
   61.4558   33.3854   45.2014 H   0  0  0  0  0  0  0  0  0  0  0  0
   59.2640   32.6900   43.6620 H   0  0  0  0  0  0  0  0  0  0  0  0
   56.2706   32.1043   43.4295 H   0  0  0  0  0  0  0  0  0  0  0  0
   54.9062   30.0568   43.7418 H   0  0  0  0  0  0  0  0  0  0  0  0
   57.3806   27.3193   46.7606 H   0  0  0  0  0  0  0  0  0  0  0  0
   59.5266   27.5604   47.9972 H   0  0  0  0  0  0  0  0  0  0  0  0
   60.8839   29.6343   47.7594 H   0  0  0  0  0  0  0  0  0  0  0  0
   60.1196   31.4712   46.2648 H   0  0  0  0  0  0  0  0  0  0  0  0
   58.7589   34.4065   48.4293 H   0  0  0  0  0  0  0  0  0  0  0  0
   60.6399   34.2433   50.0557 H   0  0  0  0  0  0  0  0  0  0  0  0
  1  2  1  0
  2  3  2  0
  3  4  1  0
  4  5  2  0
  5  6  1  0
  6  7  2  0
  6  8  2  0
  6  9  1  0
  9 10  1  0
 10 11  2  0
 11 12  1  0
 12 13  2  0
 13 14  1  0
 13 15  1  0
 15 16  2  0
 16 17  1  0
 17 18  2  0
 18 19  1  0
 19 20  2  0
  5 21  1  0
 21 22  2  0
 22  2  1  0
 20 10  1  0
 20 15  1  0
  1 23  1  0
  1 24  1  0
  1 25  1  0
  3 26  1  0
  4 27  1  0
  9 28  1  0
 11 29  1  0
 12 30  1  0
 16 31  1  0
 17 32  1  0
 18 33  1  0
 19 34  1  0
 21 35  1  0
 22 36  1  0
M  CHG  1  14  -1
M  END
>  <UniqueID>  (14) 
14

>  <SMILES>  (14) 
Cc1ccc(S(=O)(=O)Nc2ccc([O-])c3ccccc23)cc1

>  <Energy>  (14) 
48.71794419875699

>  <Genealogy>  (14) 
Cc1ccc(S(=O)(=O)Nc2ccc([O-])c3ccccc23)cc1 (protonated)
Cc1ccc(S(=O)(=O)Nc2ccc([O-])c3ccccc23)cc1 (3D coordinates assigned)
Cc1ccc(S(=O)(=O)Nc2ccc([O-])c3ccccc23)cc1 (optimized conformer: 48.71794419875699 kcal/mol)

>  <smiles>  (14) 
Cc1ccc(S(=O)(=O)Nc2ccc(O)c3ccccc23)cc1

>  <score_type>  (14) 
oracle

>  <origin>  (14) 
adg

>  <m_score__min__energy>  (14) 
-11.300000000000001

>  <m_primary>  (14) 
energy

$$$$
14:0
     RDKit          3D

 40 43  0  0  0  0  0  0  0  0999 V2000
   55.3730   26.7190   46.0170 N   0  0  0  0  0  0  0  0  0  0  0  0
   57.0320   27.0870   45.7040 S   0  0  0  0  0  0  0  0  0  0  0  0
   57.8120   27.0250   46.9880 O   0  0  0  0  0  0  0  0  0  0  0  0
   57.5970   26.0740   44.7480 O   0  0  0  0  0  0  0  0  0  0  0  0
   57.1560   28.6990   45.0090 C   0  0  0  0  0  0  0  0  0  0  0  0
   56.9570   28.8910   43.6230 C   0  0  0  0  0  0  0  0  0  0  0  0
   57.0420   30.1750   43.0600 C   0  0  0  0  0  0  0  0  0  0  0  0
   57.3230   31.2480   43.9010 C   0  0  0  0  0  0  0  0  0  0  0  0
   57.5090   31.0710   45.2590 C   0  0  0  0  0  0  0  0  0  0  0  0
   57.4300   29.8030   45.8400 C   0  0  0  0  0  0  0  0  0  0  0  0
   57.7790   32.3770   45.8660 C   0  0  0  0  0  0  0  0  0  0  0  0
   57.9750   32.6320   47.1660 C   0  0  0  0  0  0  0  0  0  0  0  0
   59.2470   33.1270   47.7130 C   0  0  0  0  0  0  0  0  0  0  0  0
   60.3440   32.1790   48.5580 S   0  0  0  0  0  0  0  0  0  0  0  0
   61.4780   33.4200   48.7160 C   0  0  0  0  0  0  0  0  0  0  0  0
   62.7850   33.3150   49.4040 C   0  0  0  0  0  0  0  0  0  0  0  0
   63.0630   34.0770   50.5540 C   0  0  0  0  0  0  0  0  0  0  0  0
   64.3020   33.9680   51.1940 C   0  0  0  0  0  0  0  0  0  0  0  0
   65.2760   33.1010   50.6940 C   0  0  0  0  0  0  0  0  0  0  0  0
   65.0120   32.3390   49.5530 C   0  0  0  0  0  0  0  0  0  0  0  0
   63.7750   32.4440   48.9100 C   0  0  0  0  0  0  0  0  0  0  0  0
   61.0460   34.5480   48.1040 N   0  0  0  0  0  0  0  0  0  0  0  0
   59.8180   34.3910   47.5390 C   0  0  0  0  0  0  0  0  0  0  0  0
   59.2160   35.4350   46.7740 N   0  0  0  0  0  0  0  0  0  0  0  0
   57.7050   33.3110   44.7300 C   0  0  0  0  0  0  0  0  0  0  0  0
   57.8010   34.5650   44.7960 O   0  0  0  0  0  0  0  0  0  0  0  0
   57.4390   32.6130   43.5170 N   0  0  0  0  0  0  0  0  0  0  0  0
   54.8820   26.7220   45.0950 H   0  0  0  0  0  0  0  0  0  0  0  0
   56.7336   28.0273   42.9795 H   0  0  0  0  0  0  0  0  0  0  0  0
   56.8903   30.3288   41.9814 H   0  0  0  0  0  0  0  0  0  0  0  0
   57.5784   29.6697   46.9218 H   0  0  0  0  0  0  0  0  0  0  0  0
   57.1400   32.4621   47.8616 H   0  0  0  0  0  0  0  0  0  0  0  0
   62.3008   34.7629   50.9523 H   0  0  0  0  0  0  0  0  0  0  0  0
   64.5097   34.5666   52.0932 H   0  0  0  0  0  0  0  0  0  0  0  0
   66.2502   33.0181   51.1980 H   0  0  0  0  0  0  0  0  0  0  0  0
   65.7788   31.6553   49.1599 H   0  0  0  0  0  0  0  0  0  0  0  0
   63.5737   31.8419   48.0117 H   0  0  0  0  0  0  0  0  0  0  0  0
   58.9040   35.2790   45.7910 H   0  0  0  0  0  0  0  0  0  0  0  0
   59.1120   36.3890   47.1850 H   0  0  0  0  0  0  0  0  0  0  0  0
   57.3100   33.0200   42.5640 H   0  0  0  0  0  0  0  0  0  0  0  0
  1  2  1  0
  2  3  2  0
  2  4  2  0
  2  5  1  0
  5  6  2  0
  6  7  1  0
  7  8  2  0
  8  9  1  0
  9 10  2  0
  9 11  1  0
 11 12  2  3
 12 13  1  0
 13 14  1  0
 14 15  1  0
 15 16  1  0
 16 17  2  0
 17 18  1  0
 18 19  2  0
 19 20  1  0
 20 21  2  0
 15 22  2  0
 22 23  1  0
 23 24  1  0
 11 25  1  0
 25 26  2  0
 25 27  1  0
 10  5  1  0
 23 13  2  0
 27  8  1  0
 21 16  1  0
  1 28  1  0
  6 29  1  0
  7 30  1  0
 10 31  1  0
 12 32  1  0
 17 33  1  0
 18 34  1  0
 19 35  1  0
 20 36  1  0
 21 37  1  0
 24 38  1  0
 24 39  1  0
 27 40  1  0
M  CHG  1   1  -1
M  END
>  <UniqueID>  (15) 
15

>  <SMILES>  (15) 
[NH-]S(=O)(=O)c1ccc2c(c1)C(=Cc1sc(-c3ccccc3)nc1N)C(=O)N2

>  <Energy>  (15) 
110.74862345104005

>  <Genealogy>  (15) 
[NH-]S(=O)(=O)c1ccc2c(c1)C(=Cc1sc(-c3ccccc3)nc1N)C(=O)N2 (protonated)
[NH-]S(=O)(=O)c1ccc2c(c1)C(=Cc1sc(-c3ccccc3)nc1N)C(=O)N2 (3D coordinates assigned)
[NH-]S(=O)(=O)c1ccc2c(c1)C(=Cc1sc(-c3ccccc3)nc1N)C(=O)N2 (nonaromatic ring conformer: 110.74862345104005 kcal/mol)

>  <smiles>  (15) 
Nc1nc(-c2ccccc2)sc1C=C1C(=O)Nc2ccc(S(N)(=O)=O)cc21

>  <score_type>  (15) 
oracle

>  <origin>  (15) 
adg

>  <m_score__min__energy>  (15) 
-11.300000000000001

>  <m_primary>  (15) 
energy

$$$$
15:0
     RDKit          3D

 39 41  0  0  0  0  0  0  0  0999 V2000
   66.7230   32.6740   50.2040 C   0  0  0  0  0  0  0  0  0  0  0  0
   65.2320   32.4790   49.9500 C   0  0  0  0  0  0  0  0  0  0  0  0
   64.8420   33.0940   48.7220 O   0  0  0  0  0  0  0  0  0  0  0  0
   63.5240   33.2120   48.2490 C   0  0  0  0  0  0  0  0  0  0  0  0
   62.3980   32.9140   49.0430 C   0  0  0  0  0  0  0  0  0  0  0  0
   61.1100   33.0510   48.5170 C   0  0  0  0  0  0  0  0  0  0  0  0
   60.9270   33.4810   47.1980 C   0  0  0  0  0  0  0  0  0  0  0  0
   59.6100   33.6200   46.6630 N   0  0  0  0  0  0  0  0  0  0  0  0
   58.3540   32.8480   46.6470 C   0  0  0  0  0  0  0  0  0  0  0  0
   57.5740   33.8350   45.8370 C   0  0  0  0  0  0  0  0  0  0  0  0
   57.2580   33.3500   44.4970 N   0  0  0  0  0  0  0  0  0  0  0  0
   57.6930   32.1160   43.9040 C   0  0  0  0  0  0  0  0  0  0  0  0
   58.4960   32.1810   42.9350 O   0  0  0  0  0  0  0  0  0  0  0  0
   57.2480   30.7820   44.3830 C   0  0  0  0  0  0  0  0  0  0  0  0
   58.1850   29.7860   44.6950 C   0  0  0  0  0  0  0  0  0  0  0  0
   57.7420   28.5390   45.1330 C   0  0  0  0  0  0  0  0  0  0  0  0
   56.3720   28.3090   45.2460 C   0  0  0  0  0  0  0  0  0  0  0  0
   55.9430   27.1920   45.6400 O   0  0  0  0  0  0  0  0  0  0  0  0
   55.5000   29.2990   44.9280 N   0  0  0  0  0  0  0  0  0  0  0  0
   55.9250   30.4920   44.5100 N   0  0  0  0  0  0  0  0  0  0  0  0
   58.8560   34.6040   45.8640 C   0  0  0  0  0  0  0  0  0  0  0  0
   62.0430   33.7740   46.4050 C   0  0  0  0  0  0  0  0  0  0  0  0
   63.3330   33.6380   46.9290 C   0  0  0  0  0  0  0  0  0  0  0  0
   66.9102   32.6985   51.2877 H   0  0  0  0  0  0  0  0  0  0  0  0
   67.2836   31.8415   49.7538 H   0  0  0  0  0  0  0  0  0  0  0  0
   67.0507   33.6226   49.7538 H   0  0  0  0  0  0  0  0  0  0  0  0
   65.0126   31.4023   49.8997 H   0  0  0  0  0  0  0  0  0  0  0  0
   64.6703   32.9463   50.7722 H   0  0  0  0  0  0  0  0  0  0  0  0
   62.5332   32.5725   50.0799 H   0  0  0  0  0  0  0  0  0  0  0  0
   60.2358   32.8196   49.1433 H   0  0  0  0  0  0  0  0  0  0  0  0
   58.4596   31.8751   46.1447 H   0  0  0  0  0  0  0  0  0  0  0  0
   57.9336   32.5535   47.6199 H   0  0  0  0  0  0  0  0  0  0  0  0
   56.5956   34.2371   46.1389 H   0  0  0  0  0  0  0  0  0  0  0  0
   59.2617   29.9875   44.5948 H   0  0  0  0  0  0  0  0  0  0  0  0
   58.4633   27.7479   45.3858 H   0  0  0  0  0  0  0  0  0  0  0  0
   59.2828   34.7537   44.8613 H   0  0  0  0  0  0  0  0  0  0  0  0
   58.8147   35.6346   46.2463 H   0  0  0  0  0  0  0  0  0  0  0  0
   61.9052   34.1120   45.3673 H   0  0  0  0  0  0  0  0  0  0  0  0
   64.2047   33.8677   46.2986 H   0  0  0  0  0  0  0  0  0  0  0  0
  1  2  1  0
  2  3  1  0
  3  4  1  0
  4  5  2  0
  5  6  1  0
  6  7  2  0
  7  8  1  0
  8  9  1  0
  9 10  1  0
 10 11  1  0
 11 12  1  0
 12 13  2  0
 12 14  1  0
 14 15  1  0
 15 16  2  0
 16 17  1  0
 17 18  2  0
 17 19  1  0
 19 20  1  0
 10 21  1  0
  7 22  1  0
 22 23  2  0
 23  4  1  0
 21  8  1  0
 20 14  2  0
  1 24  1  0
  1 25  1  0
  1 26  1  0
  2 27  1  0
  2 28  1  0
  5 29  1  0
  6 30  1  0
  9 31  1  0
  9 32  1  0
 10 33  1  0
 15 34  1  0
 16 35  1  0
 21 36  1  0
 21 37  1  0
 22 38  1  0
 23 39  1  0
M  CHG  2  11  -1  19  -1
M  END
>  <UniqueID>  (16) 
16

>  <SMILES>  (16) 
CCOc1ccc(N2CC([N-]C(=O)c3ccc(=O)[n-]n3)C2)cc1

>  <Energy>  (16) 
85.24408448616687

>  <Genealogy>  (16) 
CCOc1ccc(N2CC([N-]C(=O)c3ccc(=O)[n-]n3)C2)cc1 (protonated)
CCOc1ccc(N2CC([N-]C(=O)c3ccc(=O)[n-]n3)C2)cc1 (3D coordinates assigned)
CCOc1ccc(N2CC([N-]C(=O)c3ccc(=O)[n-]n3)C2)cc1 (nonaromatic ring conformer: 85.24408448616687 kcal/mol)

>  <smiles>  (16) 
CCOc1ccc(N2CC(NC(=O)c3ccc(=O)[nH]n3)C2)cc1

>  <score_type>  (16) 
oracle

>  <origin>  (16) 
adg

>  <m_score__min__energy>  (16) 
-10.859999999999999

>  <m_primary>  (16) 
energy

$$$$
16:0
     RDKit          3D

 35 37  0  0  0  0  0  0  0  0999 V2000
   55.9382   33.5557   45.5459 H   0  0  0  0  0  0  0  0  0  0  0  0
   57.0090   33.3040   45.5430 C   0  0  0  0  0  0  0  0  0  0  0  0
   57.8690   34.2440   45.9650 C   0  0  0  0  0  0  0  0  0  0  0  0
   57.6100   35.2950   45.7691 H   0  0  0  0  0  0  0  0  0  0  0  0
   59.1360   33.9740   46.6720 C   0  0  0  0  0  0  0  0  0  0  0  0
   59.1600   33.7600   48.0620 C   0  0  0  0  0  0  0  0  0  0  0  0
   58.2215   33.7760   48.6355 H   0  0  0  0  0  0  0  0  0  0  0  0
   60.3730   33.5270   48.7170 C   0  0  0  0  0  0  0  0  0  0  0  0
   60.3848   33.3387   49.8007 H   0  0  0  0  0  0  0  0  0  0  0  0
   61.5700   33.5330   47.9970 C   0  0  0  0  0  0  0  0  0  0  0  0
   62.5233   33.3451   48.5128 H   0  0  0  0  0  0  0  0  0  0  0  0
   61.5560   33.7780   46.6200 C   0  0  0  0  0  0  0  0  0  0  0  0
   62.4996   33.7905   46.0548 H   0  0  0  0  0  0  0  0  0  0  0  0
   60.3450   34.0070   45.9610 C   0  0  0  0  0  0  0  0  0  0  0  0
   60.3398   34.2139   44.8806 H   0  0  0  0  0  0  0  0  0  0  0  0
   57.3930   31.9570   45.0750 C   0  0  0  0  0  0  0  0  0  0  0  0
   57.8040   30.9780   45.8450 O   0  0  0  0  0  0  0  0  0  0  0  0
   58.0820   29.9360   45.0970 C   0  0  0  0  0  0  0  0  0  0  0  0
   58.5440   28.6310   45.6310 C   0  0  0  0  0  0  0  0  0  0  0  0
   59.9140   28.4680   45.9140 C   0  0  0  0  0  0  0  0  0  0  0  0
   60.5937   29.3283   45.8249 H   0  0  0  0  0  0  0  0  0  0  0  0
   60.4190   27.2280   46.3060 C   0  0  0  0  0  0  0  0  0  0  0  0
   61.4907   27.1172   46.5278 H   0  0  0  0  0  0  0  0  0  0  0  0
   59.5700   26.1310   46.4170 C   0  0  0  0  0  0  0  0  0  0  0  0
   59.9740   25.1515   46.7125 H   0  0  0  0  0  0  0  0  0  0  0  0
   58.2070   26.2720   46.1540 C   0  0  0  0  0  0  0  0  0  0  0  0
   57.5437   25.3987   46.2401 H   0  0  0  0  0  0  0  0  0  0  0  0
   57.6710   27.5180   45.7800 C   0  0  0  0  0  0  0  0  0  0  0  0
   56.2010   27.6150   45.6160 C   0  0  0  0  0  0  0  0  0  0  0  0
   55.6700   28.6590   45.1560 O   0  0  0  0  0  0  0  0  0  0  0  0
   55.3840   26.5720   46.0380 O   0  0  0  0  0  0  0  0  0  0  0  0
   57.8440   30.2440   43.7670 C   0  0  0  0  0  0  0  0  0  0  0  0
   57.9796   29.5825   42.8986 H   0  0  0  0  0  0  0  0  0  0  0  0
   57.4020   31.5510   43.7560 C   0  0  0  0  0  0  0  0  0  0  0  0
   57.1157   32.1468   42.8768 H   0  0  0  0  0  0  0  0  0  0  0  0
  1  2  1  0
  2  3  2  0
  3  4  1  0
  3  5  1  0
  5  6  2  0
  6  7  1  0
  6  8  1  0
  8  9  1  0
  8 10  2  0
 10 11  1  0
 10 12  1  0
 12 13  1  0
 12 14  2  0
 14 15  1  0
  2 16  1  0
 16 17  1  0
 17 18  1  0
 18 19  1  0
 19 20  2  0
 20 21  1  0
 20 22  1  0
 22 23  1  0
 22 24  2  0
 24 25  1  0
 24 26  1  0
 26 27  1  0
 26 28  2  0
 28 29  1  0
 29 30  2  0
 29 31  1  0
 18 32  2  0
 32 33  1  0
 32 34  1  0
 34 35  1  0
 14  5  1  0
 34 16  2  0
 28 19  1  0
M  CHG  1  31  -1
M  END
>  <UniqueID>  (17) 
17

>  <SMILES>  (17) 
O=C([O-])c1ccccc1-c1ccc(/C=C\c2ccccc2)o1

>  <Energy>  (17) 
76.83826393432749

>  <Genealogy>  (17) 
O=C([O-])c1ccccc1-c1ccc(C=Cc2ccccc2)o1 (protonated)
O=C([O-])c1ccccc1-c1ccc(/C=C\c2ccccc2)o1 (cis-trans isomerization)
O=C([O-])c1ccccc1-c1ccc(/C=C\c2ccccc2)o1 (3D coordinates assigned)
O=C([O-])c1ccccc1-c1ccc(/C=C\c2ccccc2)o1 (optimized conformer: 76.83826393432749 kcal/mol)

>  <smiles>  (17) 
O=C(O)c1ccccc1-c1ccc(C=Cc2ccccc2)o1

>  <score_type>  (17) 
oracle

>  <origin>  (17) 
adg

>  <m_score__min__energy>  (17) 
-11.210000000000001

>  <m_primary>  (17) 
energy

$$$$
17:0
     RDKit          3D

 35 39  0  0  0  0  0  0  0  0999 V2000
   57.5880   21.0930   44.2750 C   0  0  0  0  0  0  0  0  0  0  0  0
   56.7980   21.6420   43.2620 C   0  0  0  0  0  0  0  0  0  0  0  0
   56.7060   23.0290   43.1160 C   0  0  0  0  0  0  0  0  0  0  0  0
   57.4090   23.8790   43.9860 C   0  0  0  0  0  0  0  0  0  0  0  0
   57.3230   25.2720   43.8480 C   0  0  0  0  0  0  0  0  0  0  0  0
   58.0270   26.1280   44.7200 C   0  0  0  0  0  0  0  0  0  0  0  0
   57.9370   27.6100   44.5740 C   0  0  0  0  0  0  0  0  0  0  0  0
   58.3900   28.5620   45.5030 C   0  0  0  0  0  0  0  0  0  0  0  0
   58.1100   29.7600   44.9720 N   0  0  0  0  0  0  0  0  0  0  0  0
   57.5310   29.5500   43.8060 C   0  0  0  0  0  0  0  0  0  0  0  0
   57.3920   28.2530   43.4980 N   0  0  0  0  0  0  0  0  0  0  0  0
   57.1080   30.9690   42.9920 S   0  0  0  0  0  0  0  0  0  0  0  0
   57.7430   31.8980   44.2850 C   0  0  0  0  0  0  0  0  0  0  0  0
   57.7890   33.2840   44.4100 C   0  0  0  0  0  0  0  0  0  0  0  0
   58.3630   33.8280   45.5730 C   0  0  0  0  0  0  0  0  0  0  0  0
   58.8770   32.9850   46.5810 C   0  0  0  0  0  0  0  0  0  0  0  0
   58.8230   31.5880   46.4410 C   0  0  0  0  0  0  0  0  0  0  0  0
   58.2510   31.0640   45.2820 C   0  0  0  0  0  0  0  0  0  0  0  0
   58.8180   25.5540   45.7350 C   0  0  0  0  0  0  0  0  0  0  0  0
   58.9080   24.1680   45.8780 C   0  0  0  0  0  0  0  0  0  0  0  0
   58.2080   23.3210   45.0100 C   0  0  0  0  0  0  0  0  0  0  0  0
   58.2910   21.9260   45.1480 C   0  0  0  0  0  0  0  0  0  0  0  0
   57.6565   20.0007   44.3854 H   0  0  0  0  0  0  0  0  0  0  0  0
   56.2467   20.9807   42.5773 H   0  0  0  0  0  0  0  0  0  0  0  0
   56.0814   23.4562   42.3177 H   0  0  0  0  0  0  0  0  0  0  0  0
   56.6992   25.7018   43.0504 H   0  0  0  0  0  0  0  0  0  0  0  0
   58.8758   28.3640   46.4698 H   0  0  0  0  0  0  0  0  0  0  0  0
   56.9650   27.8610   42.6310 H   0  0  0  0  0  0  0  0  0  0  0  0
   57.3872   33.9359   43.6204 H   0  0  0  0  0  0  0  0  0  0  0  0
   58.4116   34.9198   45.6978 H   0  0  0  0  0  0  0  0  0  0  0  0
   59.3240   33.4254   47.4845 H   0  0  0  0  0  0  0  0  0  0  0  0
   59.2209   30.9258   47.2240 H   0  0  0  0  0  0  0  0  0  0  0  0
   59.3726   26.2072   46.4247 H   0  0  0  0  0  0  0  0  0  0  0  0
   59.5317   23.7394   46.6763 H   0  0  0  0  0  0  0  0  0  0  0  0
   58.9106   21.4888   45.9448 H   0  0  0  0  0  0  0  0  0  0  0  0
  1  2  2  0
  2  3  1  0
  3  4  2  0
  4  5  1  0
  5  6  2  0
  6  7  1  0
  7  8  2  0
  8  9  1  0
  9 10  1  0
 10 11  2  0
 10 12  1  0
 12 13  1  0
 13 14  2  0
 14 15  1  0
 15 16  2  0
 16 17  1  0
 17 18  2  0
  6 19  1  0
 19 20  2  0
 20 21  1  0
 21 22  2  0
 22  1  1  0
 21  4  1  0
 11  7  1  0
 18 13  1  0
 18  9  1  0
  1 23  1  0
  2 24  1  0
  3 25  1  0
  5 26  1  0
  8 27  1  0
 11 28  1  0
 14 29  1  0
 15 30  1  0
 16 31  1  0
 17 32  1  0
 19 33  1  0
 20 34  1  0
 22 35  1  0
M  CHG  1  11   1
M  END
>  <UniqueID>  (18) 
18

>  <SMILES>  (18) 
c1ccc2cc(-c3cn4c([nH+]3)sc3ccccc34)ccc2c1

>  <Energy>  (18) 
132.62149287829553

>  <Genealogy>  (18) 
c1ccc2cc(-c3cn4c([nH+]3)sc3ccccc34)ccc2c1 (protonated)
c1ccc2cc(-c3cn4c([nH+]3)sc3ccccc34)ccc2c1 (3D coordinates assigned)
c1ccc2cc(-c3cn4c([nH+]3)sc3ccccc34)ccc2c1 (optimized conformer: 132.62149287829553 kcal/mol)

>  <smiles>  (18) 
c1ccc2cc(-c3cn4c(n3)sc3ccccc34)ccc2c1

>  <score_type>  (18) 
oracle

>  <origin>  (18) 
adg

>  <m_score__min__energy>  (18) 
-6.8600000000000003

>  <m_primary>  (18) 
energy

$$$$
18:0
     RDKit          3D

 37 39  0  0  0  0  0  0  0  0999 V2000
   55.2712   25.6131   46.0477 H   0  0  0  0  0  0  0  0  0  0  0  0
   56.1160   26.3170   46.0770 C   0  0  0  0  0  0  0  0  0  0  0  0
   55.9600   27.5850   45.6180 N   0  0  0  0  0  0  0  0  0  0  0  0
   56.9640   28.5060   45.6190 C   0  0  0  0  0  0  0  0  0  0  0  0
   56.6540   29.7100   45.2180 N   0  0  0  0  0  0  0  0  0  0  0  0
   57.5300   30.8650   44.2570 S   0  0  0  0  0  0  0  0  0  0  0  0
   56.7300   31.2150   43.0340 O   0  0  0  0  0  0  0  0  0  0  0  0
   58.8150   30.2280   43.8100 O   0  0  0  0  0  0  0  0  0  0  0  0
   57.9370   32.3030   45.1870 C   0  0  0  0  0  0  0  0  0  0  0  0
   58.3870   33.4590   44.5320 C   0  0  0  0  0  0  0  0  0  0  0  0
   58.4716   33.4716   43.4353 H   0  0  0  0  0  0  0  0  0  0  0  0
   58.7280   34.5950   45.2720 C   0  0  0  0  0  0  0  0  0  0  0  0
   59.0822   35.4998   44.7563 H   0  0  0  0  0  0  0  0  0  0  0  0
   58.6200   34.5840   46.6650 C   0  0  0  0  0  0  0  0  0  0  0  0
   58.8927   35.4778   47.2452 H   0  0  0  0  0  0  0  0  0  0  0  0
   58.1650   33.4360   47.3210 C   0  0  0  0  0  0  0  0  0  0  0  0
   58.0775   33.4278   48.4175 H   0  0  0  0  0  0  0  0  0  0  0  0
   57.8210   32.2980   46.5840 C   0  0  0  0  0  0  0  0  0  0  0  0
   57.4588   31.3975   47.1016 H   0  0  0  0  0  0  0  0  0  0  0  0
   58.2470   28.1100   46.0970 C   0  0  0  0  0  0  0  0  0  0  0  0
   59.4180   28.9200   45.9510 N   0  0  0  0  0  0  0  0  0  0  0  0
   59.9520   28.8050   45.0620 H   0  0  0  0  0  0  0  0  0  0  0  0
   60.0540   29.5990   47.0490 C   0  0  0  0  0  0  0  0  0  0  0  0
   59.7300   29.2350   48.3660 C   0  0  0  0  0  0  0  0  0  0  0  0
   58.9808   28.4503   48.5477 H   0  0  0  0  0  0  0  0  0  0  0  0
   60.3540   29.8640   49.4480 C   0  0  0  0  0  0  0  0  0  0  0  0
   60.0907   29.5770   50.4767 H   0  0  0  0  0  0  0  0  0  0  0  0
   61.3110   30.8560   49.2240 C   0  0  0  0  0  0  0  0  0  0  0  0
   61.7989   31.3518   50.0762 H   0  0  0  0  0  0  0  0  0  0  0  0
   61.6490   31.2190   47.9180 C   0  0  0  0  0  0  0  0  0  0  0  0
   62.4046   31.9990   47.7428 H   0  0  0  0  0  0  0  0  0  0  0  0
   61.0280   30.5920   46.8330 C   0  0  0  0  0  0  0  0  0  0  0  0
   61.3019   30.8761   45.8062 H   0  0  0  0  0  0  0  0  0  0  0  0
   58.4090   26.8040   46.5850 C   0  0  0  0  0  0  0  0  0  0  0  0
   59.3879   26.4850   46.9721 H   0  0  0  0  0  0  0  0  0  0  0  0
   57.3440   25.9090   46.5840 C   0  0  0  0  0  0  0  0  0  0  0  0
   57.4723   24.8907   46.9797 H   0  0  0  0  0  0  0  0  0  0  0  0
  1  2  1  0
  2  3  1  0
  3  4  1  0
  4  5  2  0
  5  6  1  0
  6  7  2  0
  6  8  2  0
  6  9  1  0
  9 10  2  0
 10 11  1  0
 10 12  1  0
 12 13  1  0
 12 14  2  0
 14 15  1  0
 14 16  1  0
 16 17  1  0
 16 18  2  0
 18 19  1  0
  4 20  1  0
 20 21  1  0
 21 22  1  0
 21 23  1  0
 23 24  2  0
 24 25  1  0
 24 26  1  0
 26 27  1  0
 26 28  2  0
 28 29  1  0
 28 30  1  0
 30 31  1  0
 30 32  2  0
 32 33  1  0
 20 34  2  0
 34 35  1  0
 34 36  1  0
 36 37  1  0
 36  2  2  0
 18  9  1  0
 32 23  1  0
M  CHG  1   3  -1
M  END
>  <UniqueID>  (19) 
19

>  <SMILES>  (19) 
O=S(=O)(/N=c1/[n-]cccc1Nc1ccccc1)c1ccccc1

>  <Energy>  (19) 
59.010518813594494

>  <Genealogy>  (19) 
O=S(=O)(N=c1[n-]cccc1Nc1ccccc1)c1ccccc1 (protonated)
O=S(=O)(/N=c1/[n-]cccc1Nc1ccccc1)c1ccccc1 (cis-trans isomerization)
O=S(=O)(/N=c1/[n-]cccc1Nc1ccccc1)c1ccccc1 (3D coordinates assigned)
O=S(=O)(/N=c1/[n-]cccc1Nc1ccccc1)c1ccccc1 (optimized conformer: 59.010518813594494 kcal/mol)

>  <smiles>  (19) 
O=S(=O)(N=c1[nH]cccc1Nc1ccccc1)c1ccccc1

>  <score_type>  (19) 
oracle

>  <origin>  (19) 
adg

>  <m_score__min__energy>  (19) 
-10.029999999999999

>  <m_primary>  (19) 
energy

$$$$
19:0
     RDKit          3D

 39 40  0  0  0  0  0  0  0  0999 V2000
   63.0390   33.7860   46.7780 C   0  0  0  0  0  0  0  0  0  0  0  0
   61.7450   33.6060   47.4280 N   0  0  0  0  0  0  0  0  0  0  0  0
   60.6640   32.8370   46.8540 C   0  0  0  0  0  0  0  0  0  0  0  0
   60.7630   31.4250   46.7620 C   0  0  0  0  0  0  0  0  0  0  0  0
   59.7070   30.7160   46.2020 C   0  0  0  0  0  0  0  0  0  0  0  0
   58.5750   31.3450   45.7450 C   0  0  0  0  0  0  0  0  0  0  0  0
   58.4290   32.7240   45.8190 C   0  0  0  0  0  0  0  0  0  0  0  0
   59.4810   33.4880   46.3760 C   0  0  0  0  0  0  0  0  0  0  0  0
   59.3230   34.9830   46.4520 C   0  0  0  0  0  0  0  0  0  0  0  0
   57.6670   30.3190   45.2450 C   0  0  0  0  0  0  0  0  0  0  0  0
   56.5100   30.5200   44.7930 O   0  0  0  0  0  0  0  0  0  0  0  0
   58.2690   29.0280   45.3730 N   0  0  0  0  0  0  0  0  0  0  0  0
   57.5760   27.7440   45.3110 C   0  0  0  0  0  0  0  0  0  0  0  0
   57.4000   27.1680   46.7200 C   0  0  0  0  0  0  0  0  0  0  0  0
   57.4540   25.6360   46.7190 C   0  0  0  0  0  0  0  0  0  0  0  0
   56.1450   25.0720   46.7710 O   0  0  0  0  0  0  0  0  0  0  0  0
   55.2520   25.0970   45.6940 C   0  0  0  0  0  0  0  0  0  0  0  0
   55.3580   24.0600   44.6290 C   0  0  0  0  0  0  0  0  0  0  0  0
   54.3290   25.9560   45.6380 O   0  0  0  0  0  0  0  0  0  0  0  0
   59.5280   29.2820   45.9970 C   0  0  0  0  0  0  0  0  0  0  0  0
   60.3440   28.3850   46.3410 O   0  0  0  0  0  0  0  0  0  0  0  0
   63.8217   33.8949   47.5432 H   0  0  0  0  0  0  0  0  0  0  0  0
   63.2591   32.9098   46.1504 H   0  0  0  0  0  0  0  0  0  0  0  0
   63.0116   34.6890   46.1504 H   0  0  0  0  0  0  0  0  0  0  0  0
   61.6240   34.0710   48.3560 H   0  0  0  0  0  0  0  0  0  0  0  0
   61.6587   30.9011   47.1270 H   0  0  0  0  0  0  0  0  0  0  0  0
   57.5141   33.2121   45.4520 H   0  0  0  0  0  0  0  0  0  0  0  0
   59.2900   35.2951   47.5063 H   0  0  0  0  0  0  0  0  0  0  0  0
   60.1749   35.4676   45.9526 H   0  0  0  0  0  0  0  0  0  0  0  0
   58.3886   35.2788   45.9526 H   0  0  0  0  0  0  0  0  0  0  0  0
   56.5871   27.8869   44.8509 H   0  0  0  0  0  0  0  0  0  0  0  0
   58.1730   27.0431   44.7091 H   0  0  0  0  0  0  0  0  0  0  0  0
   58.2040   27.5523   47.3649 H   0  0  0  0  0  0  0  0  0  0  0  0
   56.4124   27.4753   47.0943 H   0  0  0  0  0  0  0  0  0  0  0  0
   57.9548   25.2956   45.8007 H   0  0  0  0  0  0  0  0  0  0  0  0
   58.0097   25.3073   47.6096 H   0  0  0  0  0  0  0  0  0  0  0  0
   55.4595   23.0675   45.0924 H   0  0  0  0  0  0  0  0  0  0  0  0
   54.4529   24.0822   44.0042 H   0  0  0  0  0  0  0  0  0  0  0  0
   56.2399   24.2648   44.0042 H   0  0  0  0  0  0  0  0  0  0  0  0
  1  2  1  0
  2  3  1  0
  3  4  2  0
  4  5  1  0
  5  6  2  0
  6  7  1  0
  7  8  2  0
  8  9  1  0
  6 10  1  0
 10 11  2  0
 10 12  1  0
 12 13  1  0
 13 14  1  0
 14 15  1  0
 15 16  1  0
 16 17  1  0
 17 18  1  0
 17 19  2  0
 12 20  1  0
 20 21  2  0
  8  3  1  0
 20  5  1  0
  1 22  1  0
  1 23  1  0
  1 24  1  0
  2 25  1  0
  4 26  1  0
  7 27  1  0
  9 28  1  0
  9 29  1  0
  9 30  1  0
 13 31  1  0
 13 32  1  0
 14 33  1  0
 14 34  1  0
 15 35  1  0
 15 36  1  0
 18 37  1  0
 18 38  1  0
 18 39  1  0
M  END
>  <UniqueID>  (20) 
20

>  <SMILES>  (20) 
CNc1cc2c(cc1C)C(=O)N(CCCOC(C)=O)C2=O

>  <Energy>  (20) 
62.06517719220909

>  <Genealogy>  (20) 
CNc1cc2c(cc1C)C(=O)N(CCCOC(C)=O)C2=O (3D coordinates assigned)
CNc1cc2c(cc1C)C(=O)N(CCCOC(C)=O)C2=O (nonaromatic ring conformer: 62.06517719220909 kcal/mol)

>  <smiles>  (20) 
CNc1cc2c(cc1C)C(=O)N(CCCOC(C)=O)C2=O

>  <score_type>  (20) 
oracle

>  <origin>  (20) 
adg

>  <m_score__min__energy>  (20) 
-7.1900000000000004

>  <m_primary>  (20) 
energy

$$$$
20:0
     RDKit          3D

 21 21  0  0  0  0  0  0  0  0999 V2000
   59.6150   35.1130   46.9220 C   0  0  0  0  0  0  0  0  0  0  0  0
   59.3000   34.6760   45.5660 N   0  0  0  0  0  0  0  0  0  0  0  0
   58.6880   33.4090   45.2610 C   0  0  0  0  0  0  0  0  0  0  0  0
   58.6460   32.3600   46.1990 C   0  0  0  0  0  0  0  0  0  0  0  0
   58.0450   31.1410   45.8720 C   0  0  0  0  0  0  0  0  0  0  0  0
   57.4720   30.9540   44.6080 C   0  0  0  0  0  0  0  0  0  0  0  0
   56.7280   29.4110   44.1940 S   0  0  0  0  0  0  0  0  0  0  0  0
   55.1350   29.3430   44.8590 N   0  0  0  0  0  0  0  0  0  0  0  0
   56.6560   29.2650   42.7000 O   0  0  0  0  0  0  0  0  0  0  0  0
   57.5500   28.2830   44.7510 O   0  0  0  0  0  0  0  0  0  0  0  0
   57.5180   31.9900   43.6680 C   0  0  0  0  0  0  0  0  0  0  0  0
   58.1180   33.2090   43.9940 C   0  0  0  0  0  0  0  0  0  0  0  0
   59.1306   34.4410   47.6457 H   0  0  0  0  0  0  0  0  0  0  0  0
   60.7045   35.0886   47.0713 H   0  0  0  0  0  0  0  0  0  0  0  0
   59.2474   36.1389   47.0713 H   0  0  0  0  0  0  0  0  0  0  0  0
   59.5340   35.3260   44.7820 H   0  0  0  0  0  0  0  0  0  0  0  0
   59.0891   32.5006   47.1959 H   0  0  0  0  0  0  0  0  0  0  0  0
   58.0221   30.3258   46.6102 H   0  0  0  0  0  0  0  0  0  0  0  0
   55.1560   28.6320   45.6250 H   0  0  0  0  0  0  0  0  0  0  0  0
   57.0804   31.8440   42.6694 H   0  0  0  0  0  0  0  0  0  0  0  0
   58.1439   34.0195   43.2508 H   0  0  0  0  0  0  0  0  0  0  0  0
  1  2  1  0
  2  3  1  0
  3  4  2  0
  4  5  1  0
  5  6  2  0
  6  7  1  0
  7  8  1  0
  7  9  2  0
  7 10  2  0
  6 11  1  0
 11 12  2  0
 12  3  1  0
  1 13  1  0
  1 14  1  0
  1 15  1  0
  2 16  1  0
  4 17  1  0
  5 18  1  0
  8 19  1  0
 11 20  1  0
 12 21  1  0
M  CHG  1   8  -1
M  END
>  <UniqueID>  (21) 
21

>  <SMILES>  (21) 
CNc1ccc(S([NH-])(=O)=O)cc1

>  <Energy>  (21) 
17.570386070740664

>  <Genealogy>  (21) 
CNc1ccc(S([NH-])(=O)=O)cc1 (protonated)
CNc1ccc(S([NH-])(=O)=O)cc1 (3D coordinates assigned)
CNc1ccc(S([NH-])(=O)=O)cc1 (optimized conformer: 17.570386070740664 kcal/mol)

>  <smiles>  (21) 
CNc1ccc(S(N)(=O)=O)cc1

>  <score_type>  (21) 
oracle

>  <origin>  (21) 
adg

>  <m_score__min__energy>  (21) 
-8.0800000000000001

>  <m_primary>  (21) 
energy

$$$$
21:0
     RDKit          3D

 32 32  0  0  0  0  0  0  0  0999 V2000
   58.0230   27.0860   42.5840 C   0  0  0  0  0  0  0  0  0  0  0  0
   57.7700   27.2490   44.0260 N   0  0  0  0  0  0  0  0  0  0  0  0
   57.5720   25.9220   44.6410 C   0  0  0  0  0  0  0  0  0  0  0  0
   58.8980   27.9810   44.6530 C   0  0  0  0  0  0  0  0  0  0  0  0
   58.4950   28.7960   45.8950 C   0  0  0  0  0  0  0  0  0  0  0  0
   57.0640   29.0870   45.8930 N   0  0  0  0  0  0  0  0  0  0  0  0
   56.3740   29.7390   44.8200 C   0  0  0  0  0  0  0  0  0  0  0  0
   55.2400   29.3270   44.4540 O   0  0  0  0  0  0  0  0  0  0  0  0
   57.0170   30.8700   44.1260 C   0  0  0  0  0  0  0  0  0  0  0  0
   57.0820   30.8460   42.8670 O   0  0  0  0  0  0  0  0  0  0  0  0
   57.5660   32.0420   44.8520 C   0  0  0  0  0  0  0  0  0  0  0  0
   57.9280   31.9570   46.2100 C   0  0  0  0  0  0  0  0  0  0  0  0
   58.4560   33.0700   46.8720 C   0  0  0  0  0  0  0  0  0  0  0  0
   58.6380   34.2720   46.1870 C   0  0  0  0  0  0  0  0  0  0  0  0
   58.2970   34.3640   44.8350 C   0  0  0  0  0  0  0  0  0  0  0  0
   57.7700   33.2540   44.1680 C   0  0  0  0  0  0  0  0  0  0  0  0
   58.9394   26.4956   42.4370 H   0  0  0  0  0  0  0  0  0  0  0  0
   57.1728   26.5653   42.1191 H   0  0  0  0  0  0  0  0  0  0  0  0
   58.1457   28.0754   42.1191 H   0  0  0  0  0  0  0  0  0  0  0  0
   56.8860   27.8010   44.1250 H   0  0  0  0  0  0  0  0  0  0  0  0
   57.5866   26.0197   45.7366 H   0  0  0  0  0  0  0  0  0  0  0  0
   56.6026   25.5112   44.3224 H   0  0  0  0  0  0  0  0  0  0  0  0
   58.3792   25.2461   44.3224 H   0  0  0  0  0  0  0  0  0  0  0  0
   59.6632   27.2493   44.9515 H   0  0  0  0  0  0  0  0  0  0  0  0
   59.2699   28.6977   43.9060 H   0  0  0  0  0  0  0  0  0  0  0  0
   58.7429   28.2196   46.7985 H   0  0  0  0  0  0  0  0  0  0  0  0
   59.0446   29.7487   45.8804 H   0  0  0  0  0  0  0  0  0  0  0  0
   57.7948   31.0099   46.7533 H   0  0  0  0  0  0  0  0  0  0  0  0
   58.7285   32.9977   47.9353 H   0  0  0  0  0  0  0  0  0  0  0  0
   59.0498   35.1470   46.7112 H   0  0  0  0  0  0  0  0  0  0  0  0
   58.4434   35.3110   44.2948 H   0  0  0  0  0  0  0  0  0  0  0  0
   57.5132   33.3290   43.1010 H   0  0  0  0  0  0  0  0  0  0  0  0
  1  2  1  0
  2  3  1  0
  2  4  1  0
  4  5  1  0
  5  6  1  0
  6  7  1  0
  7  8  2  0
  7  9  1  0
  9 10  2  0
  9 11  1  0
 11 12  2  0
 12 13  1  0
 13 14  2  0
 14 15  1  0
 15 16  2  0
 16 11  1  0
  1 17  1  0
  1 18  1  0
  1 19  1  0
  2 20  1  0
  3 21  1  0
  3 22  1  0
  3 23  1  0
  4 24  1  0
  4 25  1  0
  5 26  1  0
  5 27  1  0
 12 28  1  0
 13 29  1  0
 14 30  1  0
 15 31  1  0
 16 32  1  0
M  CHG  2   2   1   6  -1
M  END
>  <UniqueID>  (22) 
22

>  <SMILES>  (22) 
C[NH+](C)CC[N-]C(=O)C(=O)c1ccccc1

>  <Energy>  (22) 
32.70496442460965

>  <Genealogy>  (22) 
C[NH+](C)CC[N-]C(=O)C(=O)c1ccccc1 (protonated)
C[NH+](C)CC[N-]C(=O)C(=O)c1ccccc1 (3D coordinates assigned)
C[NH+](C)CC[N-]C(=O)C(=O)c1ccccc1 (optimized conformer: 32.70496442460965 kcal/mol)

>  <smiles>  (22) 
CN(C)CCNC(=O)C(=O)c1ccccc1

>  <score_type>  (22) 
oracle

>  <origin>  (22) 
adg

>  <m_score__min__energy>  (22) 
-5.7300000000000004

>  <m_primary>  (22) 
energy

$$$$
22:0
     RDKit          3D

 39 41  0  0  0  0  0  0  0  0999 V2000
   56.0090   24.4200   44.5200 C   0  0  0  0  0  0  0  0  0  0  0  0
   55.9320   25.3580   46.0280 S   0  0  0  0  0  0  0  0  0  0  0  0
   55.7360   24.4160   47.1830 O   0  0  0  0  0  0  0  0  0  0  0  0
   54.7830   26.3220   45.9500 O   0  0  0  0  0  0  0  0  0  0  0  0
   57.4180   26.2290   46.2240 N   0  0  0  0  0  0  0  0  0  0  0  0
   57.5740   27.6440   46.0550 C   0  0  0  0  0  0  0  0  0  0  0  0
   56.9780   28.3400   44.9900 C   0  0  0  0  0  0  0  0  0  0  0  0
   57.1540   29.7220   44.8630 C   0  0  0  0  0  0  0  0  0  0  0  0
   57.9280   30.4350   45.7980 C   0  0  0  0  0  0  0  0  0  0  0  0
   58.1220   31.8610   45.6830 N   0  0  0  0  0  0  0  0  0  0  0  0
   59.0140   32.6340   46.3340 C   0  0  0  0  0  0  0  0  0  0  0  0
   58.8060   33.9210   45.8900 C   0  0  0  0  0  0  0  0  0  0  0  0
   59.5790   35.1410   46.2820 C   0  0  0  0  0  0  0  0  0  0  0  0
   60.2210   34.9510   47.5430 O   0  0  0  0  0  0  0  0  0  0  0  0
   61.3940   34.2070   47.7510 C   0  0  0  0  0  0  0  0  0  0  0  0
   62.2470   33.8210   46.6970 C   0  0  0  0  0  0  0  0  0  0  0  0
   63.4050   33.0820   46.9640 C   0  0  0  0  0  0  0  0  0  0  0  0
   63.7210   32.7210   48.2760 C   0  0  0  0  0  0  0  0  0  0  0  0
   62.8780   33.0990   49.3250 C   0  0  0  0  0  0  0  0  0  0  0  0
   61.7210   33.8380   49.0630 C   0  0  0  0  0  0  0  0  0  0  0  0
   57.8160   33.9030   44.9780 N   0  0  0  0  0  0  0  0  0  0  0  0
   57.4180   32.6430   44.8770 N   0  0  0  0  0  0  0  0  0  0  0  0
   58.5240   29.7290   46.8590 C   0  0  0  0  0  0  0  0  0  0  0  0
   58.3470   28.3490   46.9840 C   0  0  0  0  0  0  0  0  0  0  0  0
   56.0969   23.3497   44.7580 H   0  0  0  0  0  0  0  0  0  0  0  0
   55.0938   24.5915   43.9344 H   0  0  0  0  0  0  0  0  0  0  0  0
   56.8840   24.7384   43.9344 H   0  0  0  0  0  0  0  0  0  0  0  0
   56.3700   27.7956   44.2524 H   0  0  0  0  0  0  0  0  0  0  0  0
   56.6832   30.2565   44.0247 H   0  0  0  0  0  0  0  0  0  0  0  0
   59.7592   32.3030   47.0724 H   0  0  0  0  0  0  0  0  0  0  0  0
   60.3417   35.3462   45.5163 H   0  0  0  0  0  0  0  0  0  0  0  0
   58.8823   35.9882   46.3652 H   0  0  0  0  0  0  0  0  0  0  0  0
   62.0017   34.1014   45.6620 H   0  0  0  0  0  0  0  0  0  0  0  0
   64.0683   32.7845   46.1384 H   0  0  0  0  0  0  0  0  0  0  0  0
   64.6318   32.1402   48.4833 H   0  0  0  0  0  0  0  0  0  0  0  0
   63.1256   32.8144   50.3583 H   0  0  0  0  0  0  0  0  0  0  0  0
   61.0619   34.1323   49.8930 H   0  0  0  0  0  0  0  0  0  0  0  0
   59.1352   30.2689   47.5972 H   0  0  0  0  0  0  0  0  0  0  0  0
   58.8193   27.8121   47.8198 H   0  0  0  0  0  0  0  0  0  0  0  0
  1  2  1  0
  2  3  2  0
  2  4  2  0
  2  5  1  0
  5  6  1  0
  6  7  2  0
  7  8  1  0
  8  9  2  0
  9 10  1  0
 10 11  1  0
 11 12  2  0
 12 13  1  0
 13 14  1  0
 14 15  1  0
 15 16  2  0
 16 17  1  0
 17 18  2  0
 18 19  1  0
 19 20  2  0
 12 21  1  0
 21 22  2  0
  9 23  1  0
 23 24  2  0
 24  6  1  0
 22 10  1  0
 20 15  1  0
  1 25  1  0
  1 26  1  0
  1 27  1  0
  7 28  1  0
  8 29  1  0
 11 30  1  0
 13 31  1  0
 13 32  1  0
 16 33  1  0
 17 34  1  0
 18 35  1  0
 19 36  1  0
 20 37  1  0
 23 38  1  0
 24 39  1  0
M  CHG  1   5  -1
M  END
>  <UniqueID>  (23) 
23

>  <SMILES>  (23) 
CS(=O)(=O)[N-]c1ccc(-n2cc(COc3ccccc3)nn2)cc1

>  <Energy>  (23) 
76.80934267318818

>  <Genealogy>  (23) 
CS(=O)(=O)[N-]c1ccc(-n2cc(COc3ccccc3)nn2)cc1 (protonated)
CS(=O)(=O)[N-]c1ccc(-n2cc(COc3ccccc3)nn2)cc1 (3D coordinates assigned)
CS(=O)(=O)[N-]c1ccc(-n2cc(COc3ccccc3)nn2)cc1 (optimized conformer: 76.80934267318818 kcal/mol)

>  <smiles>  (23) 
CS(=O)(=O)Nc1ccc(-n2cc(COc3ccccc3)nn2)cc1

>  <score_type>  (23) 
oracle

>  <origin>  (23) 
adg

>  <m_score__min__energy>  (23) 
-9.8499999999999996

>  <m_primary>  (23) 
energy

$$$$
23:0
     RDKit          3D

 39 41  0  0  0  0  0  0  0  0999 V2000
   64.6306   31.6718   47.6424 H   0  0  0  0  0  0  0  0  0  0  0  0
   63.7080   32.2510   47.7950 C   0  0  0  0  0  0  0  0  0  0  0  0
   63.7360   33.3830   48.5460 N   0  0  0  0  0  0  0  0  0  0  0  0
   62.6200   34.1290   48.7620 C   0  0  0  0  0  0  0  0  0  0  0  0
   62.6780   35.0403   49.3754 H   0  0  0  0  0  0  0  0  0  0  0  0
   61.3950   33.7370   48.2030 C   0  0  0  0  0  0  0  0  0  0  0  0
   60.2320   34.4930   48.4050 C   0  0  0  0  0  0  0  0  0  0  0  0
   60.2714   35.4097   49.0117 H   0  0  0  0  0  0  0  0  0  0  0  0
   59.0230   34.0840   47.8370 C   0  0  0  0  0  0  0  0  0  0  0  0
   58.1165   34.6887   47.9874 H   0  0  0  0  0  0  0  0  0  0  0  0
   58.9570   32.9040   47.0740 C   0  0  0  0  0  0  0  0  0  0  0  0
   57.7400   32.4650   46.4550 N   0  0  0  0  0  0  0  0  0  0  0  0
   57.4470   32.4530   45.0520 C   0  0  0  0  0  0  0  0  0  0  0  0
   57.7810   33.4280   44.3280 O   0  0  0  0  0  0  0  0  0  0  0  0
   56.6720   31.3970   44.4660 N   0  0  0  0  0  0  0  0  0  0  0  0
   56.6620   30.1350   44.7890 C   0  0  0  0  0  0  0  0  0  0  0  0
   55.5200   29.4470   44.9590 N   0  0  0  0  0  0  0  0  0  0  0  0
   55.8580   28.2240   45.2470 O   0  0  0  0  0  0  0  0  0  0  0  0
   57.1670   28.0800   45.2670 C   0  0  0  0  0  0  0  0  0  0  0  0
   57.8900   26.7810   45.5550 C   0  0  0  0  0  0  0  0  0  0  0  0
   59.3830   27.0540   45.8300 C   0  0  0  0  0  0  0  0  0  0  0  0
   59.5560   27.0856   46.9158 H   0  0  0  0  0  0  0  0  0  0  0  0
   59.9904   26.2520   45.3851 H   0  0  0  0  0  0  0  0  0  0  0  0
   59.6673   28.0190   45.3851 H   0  0  0  0  0  0  0  0  0  0  0  0
   57.2650   26.1090   46.7920 C   0  0  0  0  0  0  0  0  0  0  0  0
   57.6835   26.5589   47.7044 H   0  0  0  0  0  0  0  0  0  0  0  0
   56.1749   26.2557   46.7775 H   0  0  0  0  0  0  0  0  0  0  0  0
   57.4903   25.0324   46.7775 H   0  0  0  0  0  0  0  0  0  0  0  0
   57.7680   25.8430   44.3380 C   0  0  0  0  0  0  0  0  0  0  0  0
   57.6334   24.8079   44.6849 H   0  0  0  0  0  0  0  0  0  0  0  0
   56.9011   26.1417   43.7303 H   0  0  0  0  0  0  0  0  0  0  0  0
   58.6824   25.9100   43.7303 H   0  0  0  0  0  0  0  0  0  0  0  0
   57.7510   29.2990   44.9690 C   0  0  0  0  0  0  0  0  0  0  0  0
   58.8207   29.5441   44.8935 H   0  0  0  0  0  0  0  0  0  0  0  0
   60.1240   32.1610   46.8530 C   0  0  0  0  0  0  0  0  0  0  0  0
   60.0843   31.2547   46.2309 H   0  0  0  0  0  0  0  0  0  0  0  0
   61.3430   32.5640   47.4190 C   0  0  0  0  0  0  0  0  0  0  0  0
   62.5120   31.8200   47.2160 C   0  0  0  0  0  0  0  0  0  0  0  0
   62.4886   30.9047   46.6063 H   0  0  0  0  0  0  0  0  0  0  0  0
  1  2  1  0
  2  3  2  0
  3  4  1  0
  4  5  1  0
  4  6  2  0
  6  7  1  0
  7  8  1  0
  7  9  2  0
  9 10  1  0
  9 11  1  0
 11 12  1  0
 12 13  1  0
 13 14  2  0
 13 15  1  0
 15 16  2  0
 16 17  1  0
 17 18  1  0
 18 19  1  0
 19 20  1  0
 20 21  1  0
 21 22  1  0
 21 23  1  0
 21 24  1  0
 20 25  1  0
 25 26  1  0
 25 27  1  0
 25 28  1  0
 20 29  1  0
 29 30  1  0
 29 31  1  0
 29 32  1  0
 19 33  2  0
 33 34  1  0
 11 35  2  0
 35 36  1  0
 35 37  1  0
 37 38  2  0
 38 39  1  0
 38  2  1  0
 37  6  1  0
 33 16  1  0
M  CHG  2  12  -1  17  -1
M  END
>  <UniqueID>  (24) 
24

>  <SMILES>  (24) 
CC(C)(C)c1c/c(=N\C(=O)[N-]c2ccc3cnccc3c2)[n-]o1

>  <Energy>  (24) 
79.13926945773711

>  <Genealogy>  (24) 
CC(C)(C)c1cc(=NC(=O)[N-]c2ccc3cnccc3c2)[n-]o1 (protonated)
CC(C)(C)c1c/c(=N\C(=O)[N-]c2ccc3cnccc3c2)[n-]o1 (cis-trans isomerization)
CC(C)(C)c1c/c(=N\C(=O)[N-]c2ccc3cnccc3c2)[n-]o1 (3D coordinates assigned)
CC(C)(C)c1c/c(=N\C(=O)[N-]c2ccc3cnccc3c2)[n-]o1 (optimized conformer: 79.13926945773711 kcal/mol)

>  <smiles>  (24) 
CC(C)(C)c1cc(=NC(=O)Nc2ccc3cnccc3c2)[nH]o1

>  <score_type>  (24) 
oracle

>  <origin>  (24) 
adg

>  <m_score__min__energy>  (24) 
-11.529999999999999

>  <m_primary>  (24) 
energy

$$$$
24:0
     RDKit          3D

 21 21  0  0  0  0  0  0  0  0999 V2000
   57.3180   21.1510   42.9720 C   0  0  0  0  0  0  0  0  0  0  0  0
   55.9690   21.2320   43.3740 O   0  0  0  0  0  0  0  0  0  0  0  0
   55.8900   21.4070   44.7760 C   0  0  0  0  0  0  0  0  0  0  0  0
   55.6910   22.8280   45.1100 N   0  0  0  0  0  0  0  0  0  0  0  0
   56.7860   23.6420   45.1800 C   0  0  0  0  0  0  0  0  0  0  0  0
   56.6490   25.0030   45.4770 C   0  0  0  0  0  0  0  0  0  0  0  0
   57.8550   25.8940   45.5750 C   0  0  0  0  0  0  0  0  0  0  0  0
   55.3600   25.4980   45.7130 C   0  0  0  0  0  0  0  0  0  0  0  0
   55.1790   26.7110   46.0020 O   0  0  0  0  0  0  0  0  0  0  0  0
   54.2940   24.6640   45.6320 N   0  0  0  0  0  0  0  0  0  0  0  0
   54.4420   23.3480   45.3320 C   0  0  0  0  0  0  0  0  0  0  0  0
   53.4150   22.6200   45.2610 O   0  0  0  0  0  0  0  0  0  0  0  0
   57.9640   21.1122   43.8615 H   0  0  0  0  0  0  0  0  0  0  0  0
   57.4674   20.2423   42.3704 H   0  0  0  0  0  0  0  0  0  0  0  0
   57.5751   22.0353   42.3704 H   0  0  0  0  0  0  0  0  0  0  0  0
   55.0443   20.8219   45.1664 H   0  0  0  0  0  0  0  0  0  0  0  0
   56.8314   21.0641   45.2301 H   0  0  0  0  0  0  0  0  0  0  0  0
   57.7871   23.2229   45.0008 H   0  0  0  0  0  0  0  0  0  0  0  0
   58.0949   26.0712   46.6338 H   0  0  0  0  0  0  0  0  0  0  0  0
   58.7102   25.4091   45.0815 H   0  0  0  0  0  0  0  0  0  0  0  0
   57.6428   26.8539   45.0815 H   0  0  0  0  0  0  0  0  0  0  0  0
  1  2  1  0
  2  3  1  0
  3  4  1  0
  4  5  1  0
  5  6  2  0
  6  7  1  0
  6  8  1  0
  8  9  2  0
  8 10  1  0
 10 11  1  0
 11 12  2  0
 11  4  1  0
  1 13  1  0
  1 14  1  0
  1 15  1  0
  3 16  1  0
  3 17  1  0
  5 18  1  0
  7 19  1  0
  7 20  1  0
  7 21  1  0
M  CHG  1  10  -1
M  END
>  <UniqueID>  (25) 
25

>  <SMILES>  (25) 
COCn1cc(C)c(=O)[n-]c1=O

>  <Energy>  (25) 
23.57863146884321

>  <Genealogy>  (25) 
COCn1cc(C)c(=O)[n-]c1=O (protonated)
COCn1cc(C)c(=O)[n-]c1=O (3D coordinates assigned)
COCn1cc(C)c(=O)[n-]c1=O (optimized conformer: 23.57863146884321 kcal/mol)

>  <smiles>  (25) 
COCn1cc(C)c(=O)[nH]c1=O

>  <score_type>  (25) 
oracle

>  <origin>  (25) 
adg

>  <m_score__min__energy>  (25) 
-6.8799999999999999

>  <m_primary>  (25) 
energy

$$$$
25:0
     RDKit          3D

 45 45  0  0  0  0  0  0  0  0999 V2000
   55.5640   30.3480   52.0580 C   0  0  0  0  0  0  0  0  0  0  0  0
   56.9650   30.4910   51.6290 N   0  0  0  0  0  0  0  0  0  0  0  0
   57.7810   29.4660   52.3050 C   0  0  0  0  0  0  0  0  0  0  0  0
   57.4500   31.8560   51.9350 C   0  0  0  0  0  0  0  0  0  0  0  0
   58.8610   32.1320   51.3700 C   0  0  0  0  0  0  0  0  0  0  0  0
   59.1780   31.3580   50.1520 N   0  0  0  0  0  0  0  0  0  0  0  0
   59.1970   32.1780   48.9550 C   0  0  0  0  0  0  0  0  0  0  0  0
   59.3660   33.5710   49.0970 C   0  0  0  0  0  0  0  0  0  0  0  0
   59.3790   34.4120   47.9880 C   0  0  0  0  0  0  0  0  0  0  0  0
   59.2020   33.8850   46.7110 C   0  0  0  0  0  0  0  0  0  0  0  0
   59.2210   34.9470   45.3140 Cl  0  0  0  0  0  0  0  0  0  0  0  0
   58.9990   32.5150   46.5440 C   0  0  0  0  0  0  0  0  0  0  0  0
   58.9860   31.6410   47.6480 C   0  0  0  0  0  0  0  0  0  0  0  0
   58.7380   30.1960   47.3950 C   0  0  0  0  0  0  0  0  0  0  0  0
   58.5290   29.4120   48.3580 O   0  0  0  0  0  0  0  0  0  0  0  0
   58.7590   29.6290   46.0000 C   0  0  0  0  0  0  0  0  0  0  0  0
   57.3480   29.2670   45.5100 C   0  0  0  0  0  0  0  0  0  0  0  0
   56.6920   30.4260   44.8640 N   0  0  0  0  0  0  0  0  0  0  0  0
   55.5190   29.9880   44.0900 C   0  0  0  0  0  0  0  0  0  0  0  0
   57.6270   31.1400   43.9780 C   0  0  0  0  0  0  0  0  0  0  0  0
   55.5157   30.3431   53.1569 H   0  0  0  0  0  0  0  0  0  0  0  0
   54.9735   31.1905   51.6688 H   0  0  0  0  0  0  0  0  0  0  0  0
   55.1559   29.4035   51.6688 H   0  0  0  0  0  0  0  0  0  0  0  0
   57.6878   29.5831   53.3948 H   0  0  0  0  0  0  0  0  0  0  0  0
   57.4294   28.4657   52.0123 H   0  0  0  0  0  0  0  0  0  0  0  0
   58.8347   29.5844   52.0123 H   0  0  0  0  0  0  0  0  0  0  0  0
   56.7490   32.5836   51.5000 H   0  0  0  0  0  0  0  0  0  0  0  0
   57.5082   31.9486   53.0296 H   0  0  0  0  0  0  0  0  0  0  0  0
   58.9348   33.2028   51.1293 H   0  0  0  0  0  0  0  0  0  0  0  0
   59.5811   31.8232   52.1421 H   0  0  0  0  0  0  0  0  0  0  0  0
   58.4250   30.6410   50.0280 H   0  0  0  0  0  0  0  0  0  0  0  0
   60.0550   30.8140   50.2930 H   0  0  0  0  0  0  0  0  0  0  0  0
   59.4897   34.0005   50.1021 H   0  0  0  0  0  0  0  0  0  0  0  0
   59.5292   35.4936   48.1202 H   0  0  0  0  0  0  0  0  0  0  0  0
   58.8465   32.1105   45.5325 H   0  0  0  0  0  0  0  0  0  0  0  0
   59.1919   30.3761   45.3184 H   0  0  0  0  0  0  0  0  0  0  0  0
   59.3627   28.7096   46.0136 H   0  0  0  0  0  0  0  0  0  0  0  0
   57.4206   28.4447   44.7830 H   0  0  0  0  0  0  0  0  0  0  0  0
   56.7445   28.9647   46.3786 H   0  0  0  0  0  0  0  0  0  0  0  0
   54.7160   29.6881   44.7794 H   0  0  0  0  0  0  0  0  0  0  0  0
   55.1681   30.8157   43.4561 H   0  0  0  0  0  0  0  0  0  0  0  0
   55.7964   29.1329   43.4561 H   0  0  0  0  0  0  0  0  0  0  0  0
   58.3556   31.6964   44.5859 H   0  0  0  0  0  0  0  0  0  0  0  0
   58.1569   30.4146   43.3432 H   0  0  0  0  0  0  0  0  0  0  0  0
   57.0668   31.8423   43.3432 H   0  0  0  0  0  0  0  0  0  0  0  0
  1  2  1  0
  2  3  1  0
  2  4  1  0
  4  5  1  0
  5  6  1  0
  6  7  1  0
  7  8  2  0
  8  9  1  0
  9 10  2  0
 10 11  1  0
 10 12  1  0
 12 13  2  0
 13 14  1  0
 14 15  2  0
 14 16  1  0
 16 17  1  0
 17 18  1  0
 18 19  1  0
 18 20  1  0
 13  7  1  0
  1 21  1  0
  1 22  1  0
  1 23  1  0
  3 24  1  0
  3 25  1  0
  3 26  1  0
  4 27  1  0
  4 28  1  0
  5 29  1  0
  5 30  1  0
  6 31  1  0
  6 32  1  0
  8 33  1  0
  9 34  1  0
 12 35  1  0
 16 36  1  0
 16 37  1  0
 17 38  1  0
 17 39  1  0
 19 40  1  0
 19 41  1  0
 19 42  1  0
 20 43  1  0
 20 44  1  0
 20 45  1  0
M  CHG  1   6   1
M  END
>  <UniqueID>  (26) 
26

>  <SMILES>  (26) 
CN(C)CC[NH2+]c1ccc(Cl)cc1C(=O)CCN(C)C

>  <Energy>  (26) 
48.69641117701264

>  <Genealogy>  (26) 
CN(C)CC[NH2+]c1ccc(Cl)cc1C(=O)CCN(C)C (protonated)
CN(C)CC[NH2+]c1ccc(Cl)cc1C(=O)CCN(C)C (3D coordinates assigned)
CN(C)CC[NH2+]c1ccc(Cl)cc1C(=O)CCN(C)C (optimized conformer: 48.69641117701264 kcal/mol)

>  <smiles>  (26) 
CN(C)CCNc1ccc(Cl)cc1C(=O)CCN(C)C

>  <score_type>  (26) 
oracle

>  <origin>  (26) 
adg

>  <m_score__min__energy>  (26) 
-4.4100000000000001

>  <m_primary>  (26) 
energy

$$$$
26:0
     RDKit          3D

 44 47  0  0  0  0  0  0  0  0999 V2000
   58.0720   29.1570   44.1400 C   0  0  0  0  0  0  0  0  0  0  0  0
   56.9310   30.5170   44.0310 S   0  0  0  0  0  0  0  0  0  0  0  0
   56.6800   30.8440   42.5850 O   0  0  0  0  0  0  0  0  0  0  0  0
   55.6280   30.1350   44.6730 O   0  0  0  0  0  0  0  0  0  0  0  0
   57.6100   31.9170   44.8540 C   0  0  0  0  0  0  0  0  0  0  0  0
   57.6260   33.1680   44.2220 C   0  0  0  0  0  0  0  0  0  0  0  0
   58.1840   34.2730   44.8700 C   0  0  0  0  0  0  0  0  0  0  0  0
   58.7260   34.1360   46.1500 C   0  0  0  0  0  0  0  0  0  0  0  0
   58.7050   32.8890   46.8010 C   0  0  0  0  0  0  0  0  0  0  0  0
   59.2870   32.7150   48.1030 N   0  0  0  0  0  0  0  0  0  0  0  0
   60.6810   32.8990   48.3940 C   0  0  0  0  0  0  0  0  0  0  0  0
   61.4590   33.5110   47.5610 N   0  0  0  0  0  0  0  0  0  0  0  0
   62.8500   33.8380   47.8690 C   0  0  0  0  0  0  0  0  0  0  0  0
   63.4790   32.9260   48.9150 C   0  0  0  0  0  0  0  0  0  0  0  0
   64.8650   33.0240   49.0140 C   0  0  0  0  0  0  0  0  0  0  0  0
   65.6800   32.6840   50.0850 C   0  0  0  0  0  0  0  0  0  0  0  0
   66.8440   33.1750   50.0810 O   0  0  0  0  0  0  0  0  0  0  0  0
   65.3420   31.8750   51.1190 N   0  0  0  0  0  0  0  0  0  0  0  0
   64.3110   30.9890   51.2360 C   0  0  0  0  0  0  0  0  0  0  0  0
   64.5050   29.9280   52.1540 C   0  0  0  0  0  0  0  0  0  0  0  0
   63.5450   28.9450   52.3550 C   0  0  0  0  0  0  0  0  0  0  0  0
   62.3560   28.9920   51.6510 C   0  0  0  0  0  0  0  0  0  0  0  0
   62.1130   30.0410   50.7720 C   0  0  0  0  0  0  0  0  0  0  0  0
   63.0550   31.0860   50.5620 C   0  0  0  0  0  0  0  0  0  0  0  0
   62.6370   32.1700   49.7510 C   0  0  0  0  0  0  0  0  0  0  0  0
   61.2210   32.4140   49.6230 N   0  0  0  0  0  0  0  0  0  0  0  0
   58.1640   31.7790   46.1330 C   0  0  0  0  0  0  0  0  0  0  0  0
   58.2664   28.9253   45.1976 H   0  0  0  0  0  0  0  0  0  0  0  0
   57.6396   28.2750   43.6449 H   0  0  0  0  0  0  0  0  0  0  0  0
   59.0157   29.4295   43.6449 H   0  0  0  0  0  0  0  0  0  0  0  0
   57.1987   33.2800   43.2146 H   0  0  0  0  0  0  0  0  0  0  0  0
   58.1965   35.2532   44.3709 H   0  0  0  0  0  0  0  0  0  0  0  0
   59.1716   35.0077   46.6517 H   0  0  0  0  0  0  0  0  0  0  0  0
   58.6480   32.5050   48.9030 H   0  0  0  0  0  0  0  0  0  0  0  0
   63.4379   33.7602   46.9425 H   0  0  0  0  0  0  0  0  0  0  0  0
   62.8550   34.8556   48.2866 H   0  0  0  0  0  0  0  0  0  0  0  0
   65.3808   33.4228   48.1281 H   0  0  0  0  0  0  0  0  0  0  0  0
   66.1000   31.7920   51.8380 H   0  0  0  0  0  0  0  0  0  0  0  0
   65.4442   29.8813   52.7248 H   0  0  0  0  0  0  0  0  0  0  0  0
   63.7299   28.1316   53.0720 H   0  0  0  0  0  0  0  0  0  0  0  0
   61.6038   28.2008   51.7862 H   0  0  0  0  0  0  0  0  0  0  0  0
   61.1613   30.0638   50.2209 H   0  0  0  0  0  0  0  0  0  0  0  0
   60.5620   32.1620   50.3930 H   0  0  0  0  0  0  0  0  0  0  0  0
   58.1753   30.7920   46.6185 H   0  0  0  0  0  0  0  0  0  0  0  0
  1  2  1  0
  2  3  2  0
  2  4  2  0
  2  5  1  0
  5  6  2  0
  6  7  1  0
  7  8  2  0
  8  9  1  0
  9 10  1  0
 10 11  1  0
 11 12  2  0
 12 13  1  0
 13 14  1  0
 14 15  2  0
 15 16  1  0
 16 17  2  0
 16 18  1  0
 18 19  2  0
 19 20  1  0
 20 21  2  0
 21 22  1  0
 22 23  2  0
 23 24  1  0
 24 25  2  0
 25 26  1  0
  9 27  2  0
 27  5  1  0
 26 11  1  0
 25 14  1  0
 24 19  1  0
  1 28  1  0
  1 29  1  0
  1 30  1  0
  6 31  1  0
  7 32  1  0
  8 33  1  0
 10 34  1  0
 13 35  1  0
 13 36  1  0
 15 37  1  0
 18 38  1  0
 20 39  1  0
 21 40  1  0
 22 41  1  0
 23 42  1  0
 26 43  1  0
 27 44  1  0
M  CHG  1  18   1
M  END
>  <UniqueID>  (27) 
27

>  <SMILES>  (27) 
CS(=O)(=O)c1cccc(NC2=NCc3cc(=O)[nH+]c4ccccc4c3N2)c1

>  <Energy>  (27) 
94.41539866359926

>  <Genealogy>  (27) 
CS(=O)(=O)c1cccc(NC2=NCc3cc(=O)[nH+]c4ccccc4c3N2)c1 (protonated)
CS(=O)(=O)c1cccc(NC2=NCc3cc(=O)[nH+]c4ccccc4c3N2)c1 (3D coordinates assigned)
CS(=O)(=O)c1cccc(NC2=NCc3cc(=O)[nH+]c4ccccc4c3N2)c1 (nonaromatic ring conformer: 94.41539866359926 kcal/mol)

>  <smiles>  (27) 
CS(=O)(=O)c1cccc(NC2=NCc3cc(=O)nc4ccccc4c3N2)c1

>  <score_type>  (27) 
oracle

>  <origin>  (27) 
adg

>  <m_score__min__energy>  (27) 
-7.6200000000000001

>  <m_primary>  (27) 
energy

$$$$
27:0
     RDKit          3D

 71 75  0  0  0  0  0  0  0  0999 V2000
   64.1842   32.5472   46.5096 H   0  0  0  0  0  0  0  0  0  0  0  0
   63.3600   32.7290   47.2150 C   0  0  0  0  0  0  0  0  0  0  0  0
   62.0720   32.9630   46.7350 C   0  0  0  0  0  0  0  0  0  0  0  0
   61.8830   32.9709   45.6514 H   0  0  0  0  0  0  0  0  0  0  0  0
   61.0230   33.1870   47.6260 C   0  0  0  0  0  0  0  0  0  0  0  0
   60.0100   33.3725   47.2395 H   0  0  0  0  0  0  0  0  0  0  0  0
   61.2480   33.1780   49.0130 C   0  0  0  0  0  0  0  0  0  0  0  0
   62.5650   32.9700   49.5050 C   0  0  0  0  0  0  0  0  0  0  0  0
   63.6050   32.7250   48.5870 C   0  0  0  0  0  0  0  0  0  0  0  0
   64.6220   32.5283   48.9572 H   0  0  0  0  0  0  0  0  0  0  0  0
   62.8850   32.9630   50.9940 C   0  0  0  0  0  0  0  0  0  0  0  0
   62.8183   33.9988   51.3583 H   0  0  0  0  0  0  0  0  0  0  0  0
   63.8887   32.5215   51.0817 H   0  0  0  0  0  0  0  0  0  0  0  0
   61.9620   32.0880   51.8780 C   0  0  0  0  0  0  0  0  0  0  0  0
   61.5219   32.7213   52.6624 H   0  0  0  0  0  0  0  0  0  0  0  0
   62.5765   31.2815   52.3046 H   0  0  0  0  0  0  0  0  0  0  0  0
   60.8750   31.4620   51.1140 N   0  0  0  0  0  0  0  0  0  0  0  0
   60.8700   30.0370   50.9030 C   0  0  0  0  0  0  0  0  0  0  0  0
   60.9840   29.1900   51.9590 N   0  0  0  0  0  0  0  0  0  0  0  0
   60.9510   27.8450   51.7740 C   0  0  0  0  0  0  0  0  0  0  0  0
   60.9870   27.0270   52.7820 N   0  0  0  0  0  0  0  0  0  0  0  0
   62.0760   26.1590   53.1430 C   0  0  0  0  0  0  0  0  0  0  0  0
   61.9010   25.2300   53.9810 O   0  0  0  0  0  0  0  0  0  0  0  0
   63.4190   26.3770   52.5580 C   0  0  0  0  0  0  0  0  0  0  0  0
   64.1510   27.5370   52.8590 C   0  0  0  0  0  0  0  0  0  0  0  0
   63.7211   28.2947   53.5306 H   0  0  0  0  0  0  0  0  0  0  0  0
   65.4210   27.7360   52.3120 C   0  0  0  0  0  0  0  0  0  0  0  0
   65.9812   28.6530   52.5471 H   0  0  0  0  0  0  0  0  0  0  0  0
   65.9840   26.7720   51.4650 C   0  0  0  0  0  0  0  0  0  0  0  0
   67.6060   27.0030   50.8050 S   0  0  0  0  0  0  0  0  0  0  0  0
   67.5470   26.9060   49.3050 O   0  0  0  0  0  0  0  0  0  0  0  0
   68.5020   25.9040   51.3060 O   0  0  0  0  0  0  0  0  0  0  0  0
   68.2710   28.5560   51.2590 N   0  0  0  0  0  0  0  0  0  0  0  0
   68.5090   28.5880   52.7100 C   0  0  0  0  0  0  0  0  0  0  0  0
   67.5543   28.4596   53.2411 H   0  0  0  0  0  0  0  0  0  0  0  0
   69.1950   27.7740   52.9871 H   0  0  0  0  0  0  0  0  0  0  0  0
   68.9557   29.5543   52.9871 H   0  0  0  0  0  0  0  0  0  0  0  0
   67.3450   29.6300   50.8770 C   0  0  0  0  0  0  0  0  0  0  0  0
   66.9377   30.1024   51.7830 H   0  0  0  0  0  0  0  0  0  0  0  0
   67.8821   30.3825   50.2809 H   0  0  0  0  0  0  0  0  0  0  0  0
   66.5217   29.2095   50.2809 H   0  0  0  0  0  0  0  0  0  0  0  0
   65.2620   25.6150   51.1600 C   0  0  0  0  0  0  0  0  0  0  0  0
   65.6982   24.8562   50.4938 H   0  0  0  0  0  0  0  0  0  0  0  0
   63.9870   25.4190   51.6990 C   0  0  0  0  0  0  0  0  0  0  0  0
   63.4234   24.5080   51.4492 H   0  0  0  0  0  0  0  0  0  0  0  0
   60.8260   27.3470   50.5190 N   0  0  0  0  0  0  0  0  0  0  0  0
   60.7290   28.1830   49.4510 C   0  0  0  0  0  0  0  0  0  0  0  0
   60.6060   27.7240   48.2410 N   0  0  0  0  0  0  0  0  0  0  0  0
   59.7000   28.1980   47.2310 C   0  0  0  0  0  0  0  0  0  0  0  0
   58.5320   27.4690   46.9780 C   0  0  0  0  0  0  0  0  0  0  0  0
   58.3631   26.5132   47.4957 H   0  0  0  0  0  0  0  0  0  0  0  0
   57.5780   27.9450   46.0730 C   0  0  0  0  0  0  0  0  0  0  0  0
   56.6771   27.3499   45.8626 H   0  0  0  0  0  0  0  0  0  0  0  0
   57.7660   29.1780   45.4330 C   0  0  0  0  0  0  0  0  0  0  0  0
   56.5130   29.8330   44.3840 S   0  0  0  0  0  0  0  0  0  0  0  0
   56.5490   31.3340   44.4560 O   0  0  0  0  0  0  0  0  0  0  0  0
   55.1630   29.3430   44.8340 O   0  0  0  0  0  0  0  0  0  0  0  0
   56.7760   29.3260   42.7530 N   0  0  0  0  0  0  0  0  0  0  0  0
   57.8010   29.3850   42.5700 H   0  0  0  0  0  0  0  0  0  0  0  0
   56.5140   28.3160   42.6960 H   0  0  0  0  0  0  0  0  0  0  0  0
   58.9160   29.9320   45.7150 C   0  0  0  0  0  0  0  0  0  0  0  0
   59.0632   30.9079   45.2292 H   0  0  0  0  0  0  0  0  0  0  0  0
   59.8750   29.4490   46.6100 C   0  0  0  0  0  0  0  0  0  0  0  0
   60.7703   30.0491   46.8299 H   0  0  0  0  0  0  0  0  0  0  0  0
   60.7300   29.5260   49.6520 N   0  0  0  0  0  0  0  0  0  0  0  0
   59.6970   32.2750   50.7660 C   0  0  0  0  0  0  0  0  0  0  0  0
   59.1995   32.6033   51.6905 H   0  0  0  0  0  0  0  0  0  0  0  0
   59.0129   31.6631   50.1596 H   0  0  0  0  0  0  0  0  0  0  0  0
   60.1080   33.5090   49.9500 C   0  0  0  0  0  0  0  0  0  0  0  0
   60.4263   34.3064   50.6376 H   0  0  0  0  0  0  0  0  0  0  0  0
   59.2456   33.8400   49.3528 H   0  0  0  0  0  0  0  0  0  0  0  0
  1  2  1  0
  2  3  2  0
  3  4  1  0
  3  5  1  0
  5  6  1  0
  5  7  2  0
  7  8  1  0
  8  9  2  0
  9 10  1  0
  8 11  1  0
 11 12  1  0
 11 13  1  0
 11 14  1  0
 14 15  1  0
 14 16  1  0
 14 17  1  0
 17 18  1  0
 18 19  2  0
 19 20  1  0
 20 21  2  3
 21 22  1  0
 22 23  2  0
 22 24  1  0
 24 25  2  0
 25 26  1  0
 25 27  1  0
 27 28  1  0
 27 29  2  0
 29 30  1  0
 30 31  2  0
 30 32  2  0
 30 33  1  0
 33 34  1  0
 34 35  1  0
 34 36  1  0
 34 37  1  0
 33 38  1  0
 38 39  1  0
 38 40  1  0
 38 41  1  0
 29 42  1  0
 42 43  1  0
 42 44  2  0
 44 45  1  0
 20 46  1  0
 46 47  1  0
 47 48  2  0
 48 49  1  0
 49 50  2  0
 50 51  1  0
 50 52  1  0
 52 53  1  0
 52 54  2  0
 54 55  1  0
 55 56  2  0
 55 57  2  0
 55 58  1  0
 58 59  1  0
 58 60  1  0
 54 61  1  0
 61 62  1  0
 61 63  2  0
 63 64  1  0
 47 65  1  0
 17 66  1  0
 66 67  1  0
 66 68  1  0
 66 69  1  0
 69 70  1  0
 69 71  1  0
  9  2  1  0
 65 18  1  0
 69  7  1  0
 44 24  1  0
 63 49  1  0
M  CHG  2  46  -1  65  -1
M  END
>  <UniqueID>  (28) 
28

>  <SMILES>  (28) 
CN(C)S(=O)(=O)c1ccc(C(=O)N=c2nc(N3CCc4ccccc4CC3)[n-]/c(=N/c3ccc(S(N)(=O)=O)cc3)[n-]2)cc1

>  <Energy>  (28) 
91.73435962514148

>  <Genealogy>  (28) 
CN(C)S(=O)(=O)c1ccc(C(=O)N=c2nc(N3CCc4ccccc4CC3)[n-]c(=Nc3ccc(S(N)(=O)=O)cc3)[n-]2)cc1 (protonated)
CN(C)S(=O)(=O)c1ccc(C(=O)N=c2nc(N3CCc4ccccc4CC3)[n-]/c(=N/c3ccc(S(N)(=O)=O)cc3)[n-]2)cc1 (cis-trans isomerization)
CN(C)S(=O)(=O)c1ccc(C(=O)N=c2nc(N3CCc4ccccc4CC3)[n-]/c(=N/c3ccc(S(N)(=O)=O)cc3)[n-]2)cc1 (3D coordinates assigned)
CN(C)S(=O)(=O)c1ccc(C(=O)N=c2nc(N3CCc4ccccc4CC3)[n-]/c(=N/c3ccc(S(N)(=O)=O)cc3)[n-]2)cc1 (nonaromatic ring conformer: 91.73435962514148 kcal/mol)

>  <smiles>  (28) 
CN(C)S(=O)(=O)c1ccc(C(=O)N=c2nc(N3CCc4ccccc4CC3)[nH]c(=Nc3ccc(S(N)(=O)=O)cc3)[nH]2)cc1

>  <score_type>  (28) 
oracle

>  <origin>  (28) 
adg

>  <m_score__min__energy>  (28) 
-11.9

>  <m_primary>  (28) 
energy

$$$$
28:0
     RDKit          3D

 52 55  0  0  0  0  0  0  0  0999 V2000
   57.9543   24.5235   45.8839 H   0  0  0  0  0  0  0  0  0  0  0  0
   56.9450   24.9600   45.9130 C   0  0  0  0  0  0  0  0  0  0  0  0
   56.6000   26.3000   45.9750 C   0  0  0  0  0  0  0  0  0  0  0  0
   57.5250   27.4560   46.0230 C   0  0  0  0  0  0  0  0  0  0  0  0
   57.8090   28.1770   44.8520 C   0  0  0  0  0  0  0  0  0  0  0  0
   57.3618   27.8657   43.8964 H   0  0  0  0  0  0  0  0  0  0  0  0
   58.6550   29.2860   44.8930 C   0  0  0  0  0  0  0  0  0  0  0  0
   58.8661   29.8473   43.9709 H   0  0  0  0  0  0  0  0  0  0  0  0
   59.2350   29.6870   46.0980 C   0  0  0  0  0  0  0  0  0  0  0  0
   59.8934   30.5679   46.1218 H   0  0  0  0  0  0  0  0  0  0  0  0
   58.9820   28.9710   47.2810 C   0  0  0  0  0  0  0  0  0  0  0  0
   59.6150   29.3780   48.5580 C   0  0  0  0  0  0  0  0  0  0  0  0
   60.1560   28.5050   49.2910 O   0  0  0  0  0  0  0  0  0  0  0  0
   59.5950   30.7600   48.9610 N   0  0  0  0  0  0  0  0  0  0  0  0
   59.8540   31.7820   48.2010 C   0  0  0  0  0  0  0  0  0  0  0  0
   61.0950   32.1470   47.8100 N   0  0  0  0  0  0  0  0  0  0  0  0
   61.0730   33.2630   47.0290 C   0  0  0  0  0  0  0  0  0  0  0  0
   62.3390   33.8430   46.4860 C   0  0  0  0  0  0  0  0  0  0  0  0
   62.9921   34.1422   47.3190 H   0  0  0  0  0  0  0  0  0  0  0  0
   62.8524   33.0903   45.8697 H   0  0  0  0  0  0  0  0  0  0  0  0
   62.1042   34.7234   45.8697 H   0  0  0  0  0  0  0  0  0  0  0  0
   59.7920   33.7880   46.7980 C   0  0  0  0  0  0  0  0  0  0  0  0
   59.4330   34.9730   46.0000 C   0  0  0  0  0  0  0  0  0  0  0  0
   59.8970   36.1000   46.3240 O   0  0  0  0  0  0  0  0  0  0  0  0
   58.5670   34.8540   44.9060 O   0  0  0  0  0  0  0  0  0  0  0  0
   57.4330   33.9900   44.8900 C   0  0  0  0  0  0  0  0  0  0  0  0
   56.6090   34.4858   44.3560 H   0  0  0  0  0  0  0  0  0  0  0  0
   57.1398   33.7726   45.9277 H   0  0  0  0  0  0  0  0  0  0  0  0
   57.7650   32.6760   44.1890 C   0  0  0  0  0  0  0  0  0  0  0  0
   57.9615   31.8983   44.9417 H   0  0  0  0  0  0  0  0  0  0  0  0
   56.9156   32.3712   43.5600 H   0  0  0  0  0  0  0  0  0  0  0  0
   58.6572   32.8112   43.5600 H   0  0  0  0  0  0  0  0  0  0  0  0
   58.6760   32.8180   47.6080 S   0  0  0  0  0  0  0  0  0  0  0  0
   58.1230   27.8580   47.2320 C   0  0  0  0  0  0  0  0  0  0  0  0
   57.9155   27.2932   48.1528 H   0  0  0  0  0  0  0  0  0  0  0  0
   55.2570   26.4100   46.0060 N   0  0  0  0  0  0  0  0  0  0  0  0
   54.7310   25.1940   45.9590 N   0  0  0  0  0  0  0  0  0  0  0  0
   55.7350   24.2970   45.8960 C   0  0  0  0  0  0  0  0  0  0  0  0
   55.5500   22.8280   45.8430 C   0  0  0  0  0  0  0  0  0  0  0  0
   54.7820   22.2090   46.8470 C   0  0  0  0  0  0  0  0  0  0  0  0
   54.3359   22.8204   47.6452 H   0  0  0  0  0  0  0  0  0  0  0  0
   54.5800   20.8270   46.8410 C   0  0  0  0  0  0  0  0  0  0  0  0
   53.9849   20.3554   47.6369 H   0  0  0  0  0  0  0  0  0  0  0  0
   55.1320   20.0440   45.8270 C   0  0  0  0  0  0  0  0  0  0  0  0
   54.9600   18.9576   45.8160 H   0  0  0  0  0  0  0  0  0  0  0  0
   55.9020   20.6380   44.8270 C   0  0  0  0  0  0  0  0  0  0  0  0
   56.3320   20.0145   44.0293 H   0  0  0  0  0  0  0  0  0  0  0  0
   56.1350   22.0260   44.8270 C   0  0  0  0  0  0  0  0  0  0  0  0
   56.9990   22.6140   43.7420 C   0  0  0  0  0  0  0  0  0  0  0  0
   57.8268   23.1774   44.1974 H   0  0  0  0  0  0  0  0  0  0  0  0
   57.4059   21.8045   43.1182 H   0  0  0  0  0  0  0  0  0  0  0  0
   56.3952   23.2895   43.1182 H   0  0  0  0  0  0  0  0  0  0  0  0
  1  2  1  0
  2  3  1  0
  3  4  1  0
  4  5  2  0
  5  6  1  0
  5  7  1  0
  7  8  1  0
  7  9  2  0
  9 10  1  0
  9 11  1  0
 11 12  1  0
 12 13  2  0
 12 14  1  0
 14 15  2  0
 15 16  1  0
 16 17  1  0
 17 18  1  0
 18 19  1  0
 18 20  1  0
 18 21  1  0
 17 22  2  0
 22 23  1  0
 23 24  2  0
 23 25  1  0
 25 26  1  0
 26 27  1  0
 26 28  1  0
 26 29  1  0
 29 30  1  0
 29 31  1  0
 29 32  1  0
 22 33  1  0
 11 34  2  0
 34 35  1  0
  3 36  2  0
 36 37  1  0
 37 38  1  0
 38 39  1  0
 39 40  2  0
 40 41  1  0
 40 42  1  0
 42 43  1  0
 42 44  2  0
 44 45  1  0
 44 46  1  0
 46 47  1  0
 46 48  2  0
 48 49  1  0
 49 50  1  0
 49 51  1  0
 49 52  1  0
 38  2  2  0
 48 39  1  0
 34  4  1  0
 33 15  1  0
M  CHG  2  16  -1  37  -1
M  END
>  <UniqueID>  (29) 
29

>  <SMILES>  (29) 
CCOC(=O)c1s/c(=N/C(=O)c2cccc(-c3cc(-c4ccccc4C)[n-]n3)c2)[n-]c1C

>  <Energy>  (29) 
120.36386982582876

>  <Genealogy>  (29) 
CCOC(=O)c1sc(=NC(=O)c2cccc(-c3cc(-c4ccccc4C)[n-]n3)c2)[n-]c1C (protonated)
CCOC(=O)c1s/c(=N/C(=O)c2cccc(-c3cc(-c4ccccc4C)[n-]n3)c2)[n-]c1C (cis-trans isomerization)
CCOC(=O)c1s/c(=N/C(=O)c2cccc(-c3cc(-c4ccccc4C)[n-]n3)c2)[n-]c1C (3D coordinates assigned)
CCOC(=O)c1s/c(=N/C(=O)c2cccc(-c3cc(-c4ccccc4C)[n-]n3)c2)[n-]c1C (optimized conformer: 120.36386982582876 kcal/mol)

>  <smiles>  (29) 
CCOC(=O)c1sc(=NC(=O)c2cccc(-c3cc(-c4ccccc4C)[nH]n3)c2)[nH]c1C

>  <score_type>  (29) 
oracle

>  <origin>  (29) 
adg

>  <m_score__min__energy>  (29) 
-12.470000000000001

>  <m_primary>  (29) 
energy

$$$$
29:0
     RDKit          3D

 49 52  0  0  0  0  0  0  0  0999 V2000
   58.5100   34.9460   45.2120 O   0  0  0  0  0  0  0  0  0  0  0  0
   57.4380   34.3010   45.0610 C   0  0  0  0  0  0  0  0  0  0  0  0
   57.4660   32.9040   44.6200 C   0  0  0  0  0  0  0  0  0  0  0  0
   57.5150   32.4620   43.3100 C   0  0  0  0  0  0  0  0  0  0  0  0
   57.5190   31.0840   43.3810 C   0  0  0  0  0  0  0  0  0  0  0  0
   57.4640   30.7700   44.7330 C   0  0  0  0  0  0  0  0  0  0  0  0
   57.4480   29.4160   45.3410 C   0  0  0  0  0  0  0  0  0  0  0  0
   58.5840   28.9780   46.0490 C   0  0  0  0  0  0  0  0  0  0  0  0
   58.6130   27.7070   46.6380 C   0  0  0  0  0  0  0  0  0  0  0  0
   60.0490   27.1710   47.5100 S   0  0  0  0  0  0  0  0  0  0  0  0
   59.6710   26.1930   48.5920 O   0  0  0  0  0  0  0  0  0  0  0  0
   60.9650   26.4700   46.5440 O   0  0  0  0  0  0  0  0  0  0  0  0
   60.9000   28.5020   48.2270 N   0  0  0  0  0  0  0  0  0  0  0  0
   60.3480   29.8160   48.3630 C   0  0  0  0  0  0  0  0  0  0  0  0
   59.4210   30.1180   49.3710 C   0  0  0  0  0  0  0  0  0  0  0  0
   58.8780   31.4010   49.4620 C   0  0  0  0  0  0  0  0  0  0  0  0
   59.2610   32.3920   48.5530 C   0  0  0  0  0  0  0  0  0  0  0  0
   60.1890   32.1010   47.5340 C   0  0  0  0  0  0  0  0  0  0  0  0
   60.6210   33.0610   46.6010 O   0  0  0  0  0  0  0  0  0  0  0  0
   61.9420   33.5990   46.5210 C   0  0  0  0  0  0  0  0  0  0  0  0
   62.6650   33.4480   47.8370 C   0  0  0  0  0  0  0  0  0  0  0  0
   63.7300   32.5370   47.9690 C   0  0  0  0  0  0  0  0  0  0  0  0
   64.3960   32.3980   49.1930 C   0  0  0  0  0  0  0  0  0  0  0  0
   64.0010   33.1620   50.2970 C   0  0  0  0  0  0  0  0  0  0  0  0
   62.9330   34.0610   50.1780 C   0  0  0  0  0  0  0  0  0  0  0  0
   62.2630   34.2010   48.9550 C   0  0  0  0  0  0  0  0  0  0  0  0
   60.7100   30.8050   47.4380 C   0  0  0  0  0  0  0  0  0  0  0  0
   57.4960   26.8660   46.5330 C   0  0  0  0  0  0  0  0  0  0  0  0
   56.3560   27.2950   45.8510 C   0  0  0  0  0  0  0  0  0  0  0  0
   56.3210   28.5650   45.2610 C   0  0  0  0  0  0  0  0  0  0  0  0
   55.1490   28.9710   44.6280 O   0  0  0  0  0  0  0  0  0  0  0  0
   57.4430   31.8790   45.4440 O   0  0  0  0  0  0  0  0  0  0  0  0
   56.4737   34.7906   45.2618 H   0  0  0  0  0  0  0  0  0  0  0  0
   57.5446   33.0805   42.4008 H   0  0  0  0  0  0  0  0  0  0  0  0
   57.5578   30.3779   42.5385 H   0  0  0  0  0  0  0  0  0  0  0  0
   59.4574   29.6405   46.1405 H   0  0  0  0  0  0  0  0  0  0  0  0
   59.1211   29.3426   50.0913 H   0  0  0  0  0  0  0  0  0  0  0  0
   58.1471   31.6328   50.2507 H   0  0  0  0  0  0  0  0  0  0  0  0
   58.8358   33.4033   48.6340 H   0  0  0  0  0  0  0  0  0  0  0  0
   62.5018   33.0649   45.7391 H   0  0  0  0  0  0  0  0  0  0  0  0
   61.8716   34.6698   46.2793 H   0  0  0  0  0  0  0  0  0  0  0  0
   64.0409   31.9306   47.1055 H   0  0  0  0  0  0  0  0  0  0  0  0
   65.2305   31.6875   49.2868 H   0  0  0  0  0  0  0  0  0  0  0  0
   64.5282   33.0569   51.2567 H   0  0  0  0  0  0  0  0  0  0  0  0
   62.6195   34.6585   51.0467 H   0  0  0  0  0  0  0  0  0  0  0  0
   61.4198   34.9022   48.8691 H   0  0  0  0  0  0  0  0  0  0  0  0
   61.4117   30.5600   46.6271 H   0  0  0  0  0  0  0  0  0  0  0  0
   57.5180   25.8654   46.9893 H   0  0  0  0  0  0  0  0  0  0  0  0
   55.4810   26.6326   45.7766 H   0  0  0  0  0  0  0  0  0  0  0  0
  1  2  2  0
  2  3  1  0
  3  4  2  0
  4  5  1  0
  5  6  2  0
  6  7  1  0
  7  8  2  0
  8  9  1  0
  9 10  1  0
 10 11  2  0
 10 12  2  0
 10 13  1  0
 13 14  1  0
 14 15  2  0
 15 16  1  0
 16 17  2  0
 17 18  1  0
 18 19  1  0
 19 20  1  0
 20 21  1  0
 21 22  2  0
 22 23  1  0
 23 24  2  0
 24 25  1  0
 25 26  2  0
 18 27  2  0
  9 28  2  0
 28 29  1  0
 29 30  2  0
 30 31  1  0
  6 32  1  0
 32  3  1  0
 30  7  1  0
 27 14  1  0
 26 21  1  0
  2 33  1  0
  4 34  1  0
  5 35  1  0
  8 36  1  0
 15 37  1  0
 16 38  1  0
 17 39  1  0
 20 40  1  0
 20 41  1  0
 22 42  1  0
 23 43  1  0
 24 44  1  0
 25 45  1  0
 26 46  1  0
 27 47  1  0
 28 48  1  0
 29 49  1  0
M  CHG  2  13  -1  31  -1
M  END
>  <UniqueID>  (30) 
30

>  <SMILES>  (30) 
O=Cc1ccc(-c2cc(S(=O)(=O)[N-]c3cccc(OCc4ccccc4)c3)ccc2[O-])o1

>  <Energy>  (30) 
89.83558532830206

>  <Genealogy>  (30) 
O=Cc1ccc(-c2cc(S(=O)(=O)[N-]c3cccc(OCc4ccccc4)c3)ccc2[O-])o1 (protonated)
O=Cc1ccc(-c2cc(S(=O)(=O)[N-]c3cccc(OCc4ccccc4)c3)ccc2[O-])o1 (3D coordinates assigned)
O=Cc1ccc(-c2cc(S(=O)(=O)[N-]c3cccc(OCc4ccccc4)c3)ccc2[O-])o1 (optimized conformer: 89.83558532830206 kcal/mol)

>  <smiles>  (30) 
O=Cc1ccc(-c2cc(S(=O)(=O)Nc3cccc(OCc4ccccc4)c3)ccc2O)o1

>  <score_type>  (30) 
oracle

>  <origin>  (30) 
adg

>  <m_score__min__energy>  (30) 
-12.890000000000001

>  <m_primary>  (30) 
energy

$$$$
30:0
     RDKit          3D

 50 52  0  0  0  0  0  0  0  0999 V2000
   56.7090   24.1070   47.6470 C   0  0  0  0  0  0  0  0  0  0  0  0
   56.8800   25.4360   46.9870 C   0  0  0  0  0  0  0  0  0  0  0  0
   55.8990   25.9700   46.4020 O   0  0  0  0  0  0  0  0  0  0  0  0
   58.1450   26.1100   47.0570 N   0  0  0  0  0  0  0  0  0  0  0  0
   58.4670   27.2900   46.3010 C   0  0  0  0  0  0  0  0  0  0  0  0
   59.8090   27.6170   46.0710 C   0  0  0  0  0  0  0  0  0  0  0  0
   60.1450   28.7570   45.3350 C   0  0  0  0  0  0  0  0  0  0  0  0
   59.1380   29.5720   44.8080 C   0  0  0  0  0  0  0  0  0  0  0  0
   57.7900   29.2420   45.0050 C   0  0  0  0  0  0  0  0  0  0  0  0
   56.5070   30.2420   44.3280 S   0  0  0  0  0  0  0  0  0  0  0  0
   56.6070   30.2090   42.8290 O   0  0  0  0  0  0  0  0  0  0  0  0
   55.1540   29.7240   44.7240 O   0  0  0  0  0  0  0  0  0  0  0  0
   56.6860   31.8800   44.8690 N   0  0  0  0  0  0  0  0  0  0  0  0
   57.7980   32.3910   45.6170 C   0  0  0  0  0  0  0  0  0  0  0  0
   58.1160   31.7860   46.8390 C   0  0  0  0  0  0  0  0  0  0  0  0
   59.1880   32.2540   47.6050 C   0  0  0  0  0  0  0  0  0  0  0  0
   59.9590   33.3420   47.1620 C   0  0  0  0  0  0  0  0  0  0  0  0
   61.1180   33.8160   47.9570 C   0  0  0  0  0  0  0  0  0  0  0  0
   60.9370   34.6010   48.9290 O   0  0  0  0  0  0  0  0  0  0  0  0
   62.4510   33.3690   47.6600 N   0  0  0  0  0  0  0  0  0  0  0  0
   63.0590   33.8000   46.3990 C   0  0  0  0  0  0  0  0  0  0  0  0
   63.2250   32.6850   48.6740 C   0  0  0  0  0  0  0  0  0  0  0  0
   64.5510   33.0800   48.9430 C   0  0  0  0  0  0  0  0  0  0  0  0
   65.3020   32.4320   49.9280 C   0  0  0  0  0  0  0  0  0  0  0  0
   64.7390   31.3870   50.6630 C   0  0  0  0  0  0  0  0  0  0  0  0
   63.4260   30.9860   50.4100 C   0  0  0  0  0  0  0  0  0  0  0  0
   62.6720   31.6250   49.4230 C   0  0  0  0  0  0  0  0  0  0  0  0
   59.6350   33.9500   45.9370 C   0  0  0  0  0  0  0  0  0  0  0  0
   58.5630   33.4810   45.1740 C   0  0  0  0  0  0  0  0  0  0  0  0
   57.4590   28.0970   45.7420 C   0  0  0  0  0  0  0  0  0  0  0  0
   56.7255   24.2353   48.7394 H   0  0  0  0  0  0  0  0  0  0  0  0
   55.7470   23.6681   47.3438 H   0  0  0  0  0  0  0  0  0  0  0  0
   57.5286   23.4389   47.3438 H   0  0  0  0  0  0  0  0  0  0  0  0
   58.8400   25.7700   47.7590 H   0  0  0  0  0  0  0  0  0  0  0  0
   60.6046   26.9721   46.4724 H   0  0  0  0  0  0  0  0  0  0  0  0
   61.2020   29.0132   45.1703 H   0  0  0  0  0  0  0  0  0  0  0  0
   59.4044   30.4740   44.2376 H   0  0  0  0  0  0  0  0  0  0  0  0
   57.5179   30.9360   47.1992 H   0  0  0  0  0  0  0  0  0  0  0  0
   59.4295   31.7670   48.5613 H   0  0  0  0  0  0  0  0  0  0  0  0
   63.9396   34.4242   46.6110 H   0  0  0  0  0  0  0  0  0  0  0  0
   63.3664   32.9170   45.8195 H   0  0  0  0  0  0  0  0  0  0  0  0
   62.3276   34.3824   45.8195 H   0  0  0  0  0  0  0  0  0  0  0  0
   64.9994   33.9065   48.3721 H   0  0  0  0  0  0  0  0  0  0  0  0
   66.3379   32.7458   50.1242 H   0  0  0  0  0  0  0  0  0  0  0  0
   65.3294   30.8802   51.4406 H   0  0  0  0  0  0  0  0  0  0  0  0
   62.9832   30.1632   50.9905 H   0  0  0  0  0  0  0  0  0  0  0  0
   61.6395   31.2994   49.2283 H   0  0  0  0  0  0  0  0  0  0  0  0
   60.2302   34.8018   45.5763 H   0  0  0  0  0  0  0  0  0  0  0  0
   58.3168   33.9693   44.2196 H   0  0  0  0  0  0  0  0  0  0  0  0
   56.4023   27.8268   45.8847 H   0  0  0  0  0  0  0  0  0  0  0  0
  1  2  1  0
  2  3  2  0
  2  4  1  0
  4  5  1  0
  5  6  2  0
  6  7  1  0
  7  8  2  0
  8  9  1  0
  9 10  1  0
 10 11  2  0
 10 12  2  0
 10 13  1  0
 13 14  1  0
 14 15  2  0
 15 16  1  0
 16 17  2  0
 17 18  1  0
 18 19  2  0
 18 20  1  0
 20 21  1  0
 20 22  1  0
 22 23  2  0
 23 24  1  0
 24 25  2  0
 25 26  1  0
 26 27  2  0
 17 28  1  0
 28 29  2  0
  9 30  2  0
 30  5  1  0
 29 14  1  0
 27 22  1  0
  1 31  1  0
  1 32  1  0
  1 33  1  0
  4 34  1  0
  6 35  1  0
  7 36  1  0
  8 37  1  0
 15 38  1  0
 16 39  1  0
 21 40  1  0
 21 41  1  0
 21 42  1  0
 23 43  1  0
 24 44  1  0
 25 45  1  0
 26 46  1  0
 27 47  1  0
 28 48  1  0
 29 49  1  0
 30 50  1  0
M  CHG  1  13  -1
M  END
>  <UniqueID>  (31) 
31

>  <SMILES>  (31) 
CC(=O)Nc1cccc(S(=O)(=O)[N-]c2ccc(C(=O)N(C)c3ccccc3)cc2)c1

>  <Energy>  (31) 
67.01151171306276

>  <Genealogy>  (31) 
CC(=O)Nc1cccc(S(=O)(=O)[N-]c2ccc(C(=O)N(C)c3ccccc3)cc2)c1 (protonated)
CC(=O)Nc1cccc(S(=O)(=O)[N-]c2ccc(C(=O)N(C)c3ccccc3)cc2)c1 (3D coordinates assigned)
CC(=O)Nc1cccc(S(=O)(=O)[N-]c2ccc(C(=O)N(C)c3ccccc3)cc2)c1 (optimized conformer: 67.01151171306276 kcal/mol)

>  <smiles>  (31) 
CC(=O)Nc1cccc(S(=O)(=O)Nc2ccc(C(=O)N(C)c3ccccc3)cc2)c1

>  <score_type>  (31) 
oracle

>  <origin>  (31) 
adg

>  <m_score__min__energy>  (31) 
-11.35

>  <m_primary>  (31) 
energy

$$$$
31:0
     RDKit          3D

 43 46  0  0  0  0  0  0  0  0999 V2000
   54.4870   30.1080   44.5250 H   0  0  0  0  0  0  0  0  0  0  0  0
   55.2010   29.3460   44.5270 N   0  0  0  0  0  0  0  0  0  0  0  0
   56.3510   29.5050   45.1000 C   0  0  0  0  0  0  0  0  0  0  0  0
   56.9660   30.7010   45.1960 N   0  0  0  0  0  0  0  0  0  0  0  0
   58.1250   30.4190   45.8330 C   0  0  0  0  0  0  0  0  0  0  0  0
   59.1520   31.4390   46.1550 C   0  0  0  0  0  0  0  0  0  0  0  0
   58.9020   32.8090   45.8650 C   0  0  0  0  0  0  0  0  0  0  0  0
   57.9479   33.1012   45.4021 H   0  0  0  0  0  0  0  0  0  0  0  0
   59.8600   33.7940   46.1630 C   0  0  0  0  0  0  0  0  0  0  0  0
   59.6710   34.8548   45.9416 H   0  0  0  0  0  0  0  0  0  0  0  0
   61.0530   33.3850   46.7460 C   0  0  0  0  0  0  0  0  0  0  0  0
   61.3050   32.0820   47.0270 C   0  0  0  0  0  0  0  0  0  0  0  0
   60.3850   31.0750   46.7500 C   0  0  0  0  0  0  0  0  0  0  0  0
   60.6093   30.0245   46.9868 H   0  0  0  0  0  0  0  0  0  0  0  0
   62.5580   31.9680   47.5990 O   0  0  0  0  0  0  0  0  0  0  0  0
   63.1290   33.2830   47.6810 C   0  0  0  0  0  0  0  0  0  0  0  0
   63.3362   33.5498   48.7278 H   0  0  0  0  0  0  0  0  0  0  0  0
   64.0859   33.3520   47.1428 H   0  0  0  0  0  0  0  0  0  0  0  0
   62.1350   34.1550   47.1260 O   0  0  0  0  0  0  0  0  0  0  0  0
   58.1850   29.0600   46.1060 C   0  0  0  0  0  0  0  0  0  0  0  0
   59.0127   28.5370   46.6074 H   0  0  0  0  0  0  0  0  0  0  0  0
   57.0540   28.4950   45.6500 N   0  0  0  0  0  0  0  0  0  0  0  0
   56.7270   27.0700   45.6590 C   0  0  0  0  0  0  0  0  0  0  0  0
   56.6093   26.7307   46.6987 H   0  0  0  0  0  0  0  0  0  0  0  0
   55.7900   26.9130   45.1046 H   0  0  0  0  0  0  0  0  0  0  0  0
   57.8440   26.2680   44.9890 C   0  0  0  0  0  0  0  0  0  0  0  0
   58.1618   26.7869   44.0726 H   0  0  0  0  0  0  0  0  0  0  0  0
   58.6876   26.1816   45.6897 H   0  0  0  0  0  0  0  0  0  0  0  0
   57.3650   24.8860   44.6340 C   0  0  0  0  0  0  0  0  0  0  0  0
   57.0220   24.5760   43.3080 C   0  0  0  0  0  0  0  0  0  0  0  0
   57.1282   25.3385   42.5223 H   0  0  0  0  0  0  0  0  0  0  0  0
   56.5460   23.3020   42.9820 C   0  0  0  0  0  0  0  0  0  0  0  0
   56.2871   23.0639   41.9398 H   0  0  0  0  0  0  0  0  0  0  0  0
   56.3970   22.3230   43.9830 C   0  0  0  0  0  0  0  0  0  0  0  0
   55.9240   21.0310   43.7070 O   0  0  0  0  0  0  0  0  0  0  0  0
   56.1560   19.8960   44.5350 C   0  0  0  0  0  0  0  0  0  0  0  0
   56.0950   20.1946   45.5919 H   0  0  0  0  0  0  0  0  0  0  0  0
   55.3962   19.1285   44.3263 H   0  0  0  0  0  0  0  0  0  0  0  0
   57.1561   19.4882   44.3263 H   0  0  0  0  0  0  0  0  0  0  0  0
   56.7270   22.6420   45.3050 C   0  0  0  0  0  0  0  0  0  0  0  0
   56.6098   21.8845   46.0939 H   0  0  0  0  0  0  0  0  0  0  0  0
   57.2040   23.9140   45.6320 C   0  0  0  0  0  0  0  0  0  0  0  0
   57.4541   24.1538   46.6760 H   0  0  0  0  0  0  0  0  0  0  0  0
  1  2  1  0
  2  3  2  0
  3  4  1  0
  4  5  1  0
  5  6  1  0
  6  7  2  0
  7  8  1  0
  7  9  1  0
  9 10  1  0
  9 11  2  0
 11 12  1  0
 12 13  2  0
 13 14  1  0
 12 15  1  0
 15 16  1  0
 16 17  1  0
 16 18  1  0
 16 19  1  0
  5 20  2  0
 20 21  1  0
 20 22  1  0
 22 23  1  0
 23 24  1  0
 23 25  1  0
 23 26  1  0
 26 27  1  0
 26 28  1  0
 26 29  1  0
 29 30  2  0
 30 31  1  0
 30 32  1  0
 32 33  1  0
 32 34  2  0
 34 35  1  0
 35 36  1  0
 36 37  1  0
 36 38  1  0
 36 39  1  0
 34 40  1  0
 40 41  1  0
 40 42  2  0
 42 43  1  0
 22  3  1  0
 42 29  1  0
 13  6  1  0
 19 11  1  0
M  CHG  1   4  -1
M  END
>  <UniqueID>  (32) 
32

>  <SMILES>  (32) 
[H]/N=c1\[n-]c(-c2ccc3c(c2)OCO3)cn1CCc1ccc(OC)cc1

>  <Energy>  (32) 
102.00015786556878

>  <Genealogy>  (32) 
COc1ccc(CCn2cc(-c3ccc4c(c3)OCO4)[n-]c2=N)cc1 (protonated)
[H]/N=c1\[n-]c(-c2ccc3c(c2)OCO3)cn1CCc1ccc(OC)cc1 (cis-trans isomerization)
[H]/N=c1\[n-]c(-c2ccc3c(c2)OCO3)cn1CCc1ccc(OC)cc1 (3D coordinates assigned)
[H]/N=c1\[n-]c(-c2ccc3c(c2)OCO3)cn1CCc1ccc(OC)cc1 (nonaromatic ring conformer: 102.00015786556878 kcal/mol)

>  <smiles>  (32) 
COc1ccc(CCn2cc(-c3ccc4c(c3)OCO4)[nH]c2=N)cc1

>  <score_type>  (32) 
oracle

>  <origin>  (32) 
adg

>  <m_score__min__energy>  (32) 
-9.4600000000000009

>  <m_primary>  (32) 
energy

$$$$
32:0
     RDKit          3D

 56 60  0  0  0  0  0  0  0  0999 V2000
   61.0620   29.8440   47.8700 O   0  0  0  0  0  0  0  0  0  0  0  0
   59.8940   30.2130   48.1620 C   0  0  0  0  0  0  0  0  0  0  0  0
   58.7720   29.5880   47.5340 N   0  0  0  0  0  0  0  0  0  0  0  0
   58.8850   28.3110   46.8960 C   0  0  0  0  0  0  0  0  0  0  0  0
   59.5280   27.2600   47.5660 C   0  0  0  0  0  0  0  0  0  0  0  0
   59.6530   26.0090   46.9570 C   0  0  0  0  0  0  0  0  0  0  0  0
   59.1450   25.8020   45.6720 C   0  0  0  0  0  0  0  0  0  0  0  0
   58.5110   26.8460   44.9930 C   0  0  0  0  0  0  0  0  0  0  0  0
   58.3710   28.1030   45.6010 C   0  0  0  0  0  0  0  0  0  0  0  0
   57.7950   29.1800   44.8510 N   0  0  0  0  0  0  0  0  0  0  0  0
   58.6020   30.3810   44.6290 C   0  0  0  0  0  0  0  0  0  0  0  0
   58.0400   31.2320   43.4830 C   0  0  0  0  0  0  0  0  0  0  0  0
   56.6430   31.3700   43.5900 O   0  0  0  0  0  0  0  0  0  0  0  0
   56.0350   30.1130   43.3860 C   0  0  0  0  0  0  0  0  0  0  0  0
   56.3620   29.1560   44.5390 C   0  0  0  0  0  0  0  0  0  0  0  0
   59.6940   31.2810   49.1600 C   0  0  0  0  0  0  0  0  0  0  0  0
   58.9360   31.0030   50.3080 C   0  0  0  0  0  0  0  0  0  0  0  0
   58.7860   31.9640   51.3160 C   0  0  0  0  0  0  0  0  0  0  0  0
   58.0300   31.6870   52.4640 C   0  0  0  0  0  0  0  0  0  0  0  0
   57.8930   32.6530   53.4640 C   0  0  0  0  0  0  0  0  0  0  0  0
   58.5100   33.9000   53.3290 C   0  0  0  0  0  0  0  0  0  0  0  0
   59.2630   34.1890   52.1900 C   0  0  0  0  0  0  0  0  0  0  0  0
   59.4060   33.2270   51.1770 C   0  0  0  0  0  0  0  0  0  0  0  0
   60.1510   33.5110   50.0250 C   0  0  0  0  0  0  0  0  0  0  0  0
   60.2830   32.5560   49.0090 C   0  0  0  0  0  0  0  0  0  0  0  0
   61.1310   33.0230   47.4930 S   0  0  0  0  0  0  0  0  0  0  0  0
   59.6040   33.5010   46.6820 C   0  0  0  0  0  0  0  0  0  0  0  0
   58.3770   33.0850   47.2120 C   0  0  0  0  0  0  0  0  0  0  0  0
   57.1840   33.4300   46.5680 C   0  0  0  0  0  0  0  0  0  0  0  0
   57.2160   34.1840   45.3890 C   0  0  0  0  0  0  0  0  0  0  0  0
   58.4390   34.6020   44.8610 C   0  0  0  0  0  0  0  0  0  0  0  0
   59.6320   34.2650   45.5080 C   0  0  0  0  0  0  0  0  0  0  0  0
   57.8410   30.0530   47.5750 H   0  0  0  0  0  0  0  0  0  0  0  0
   59.9355   27.4214   48.5749 H   0  0  0  0  0  0  0  0  0  0  0  0
   60.1519   25.1860   47.4897 H   0  0  0  0  0  0  0  0  0  0  0  0
   59.2442   24.8161   45.1943 H   0  0  0  0  0  0  0  0  0  0  0  0
   58.1202   26.6818   43.9780 H   0  0  0  0  0  0  0  0  0  0  0  0
   58.6093   30.9821   45.5502 H   0  0  0  0  0  0  0  0  0  0  0  0
   59.6209   30.0670   44.3582 H   0  0  0  0  0  0  0  0  0  0  0  0
   58.5028   32.2294   43.5162 H   0  0  0  0  0  0  0  0  0  0  0  0
   58.2689   30.7301   42.5313 H   0  0  0  0  0  0  0  0  0  0  0  0
   54.9447   30.2454   43.3255 H   0  0  0  0  0  0  0  0  0  0  0  0
   56.4211   29.6824   42.4503 H   0  0  0  0  0  0  0  0  0  0  0  0
   55.7944   29.4600   45.4309 H   0  0  0  0  0  0  0  0  0  0  0  0
   56.0860   28.1351   44.2364 H   0  0  0  0  0  0  0  0  0  0  0  0
   58.4546   30.0200   50.4173 H   0  0  0  0  0  0  0  0  0  0  0  0
   57.5437   30.7069   52.5775 H   0  0  0  0  0  0  0  0  0  0  0  0
   57.2970   32.4313   54.3615 H   0  0  0  0  0  0  0  0  0  0  0  0
   58.4019   34.6548   54.1218 H   0  0  0  0  0  0  0  0  0  0  0  0
   59.7453   35.1721   52.0856 H   0  0  0  0  0  0  0  0  0  0  0  0
   60.6364   34.4923   49.9175 H   0  0  0  0  0  0  0  0  0  0  0  0
   58.3509   32.4869   48.1348 H   0  0  0  0  0  0  0  0  0  0  0  0
   56.2198   33.1084   46.9885 H   0  0  0  0  0  0  0  0  0  0  0  0
   56.2778   34.4471   44.8786 H   0  0  0  0  0  0  0  0  0  0  0  0
   58.4641   35.1966   43.9359 H   0  0  0  0  0  0  0  0  0  0  0  0
   60.5945   34.6005   45.0943 H   0  0  0  0  0  0  0  0  0  0  0  0
  1  2  2  0
  2  3  1  0
  3  4  1  0
  4  5  2  0
  5  6  1  0
  6  7  2  0
  7  8  1  0
  8  9  2  0
  9 10  1  0
 10 11  1  0
 11 12  1  0
 12 13  1  0
 13 14  1  0
 14 15  1  0
  2 16  1  0
 16 17  2  0
 17 18  1  0
 18 19  2  0
 19 20  1  0
 20 21  2  0
 21 22  1  0
 22 23  2  0
 23 24  1  0
 24 25  2  0
 25 26  1  0
 26 27  1  0
 27 28  2  0
 28 29  1  0
 29 30  2  0
 30 31  1  0
 31 32  2  0
  9  4  1  0
 15 10  1  0
 25 16  1  0
 32 27  1  0
 23 18  1  0
  3 33  1  0
  5 34  1  0
  6 35  1  0
  7 36  1  0
  8 37  1  0
 11 38  1  0
 11 39  1  0
 12 40  1  0
 12 41  1  0
 14 42  1  0
 14 43  1  0
 15 44  1  0
 15 45  1  0
 17 46  1  0
 19 47  1  0
 20 48  1  0
 21 49  1  0
 22 50  1  0
 24 51  1  0
 28 52  1  0
 29 53  1  0
 30 54  1  0
 31 55  1  0
 32 56  1  0
M  END
>  <UniqueID>  (33) 
33

>  <SMILES>  (33) 
O=C(Nc1ccccc1N1CCOCC1)c1cc2ccccc2cc1Sc1ccccc1

>  <Energy>  (33) 
76.83530957618544

>  <Genealogy>  (33) 
O=C(Nc1ccccc1N1CCOCC1)c1cc2ccccc2cc1Sc1ccccc1 (3D coordinates assigned)
O=C(Nc1ccccc1N1CCOCC1)c1cc2ccccc2cc1Sc1ccccc1 (nonaromatic ring conformer: 76.83530957618544 kcal/mol)

>  <smiles>  (33) 
O=C(Nc1ccccc1N1CCOCC1)c1cc2ccccc2cc1Sc1ccccc1

>  <score_type>  (33) 
oracle

>  <origin>  (33) 
adg

>  <m_score__min__energy>  (33) 
-9.4100000000000001

>  <m_primary>  (33) 
energy

$$$$
33:0
     RDKit          3D

 53 55  0  0  0  0  0  0  0  0999 V2000
   64.8810   32.3990   47.1730 H   0  0  0  0  0  0  0  0  0  0  0  0
   64.1880   32.8770   47.7360 O   0  0  0  0  0  0  0  0  0  0  0  0
   62.8230   32.7270   47.4970 C   0  0  0  0  0  0  0  0  0  0  0  0
   62.2670   31.4460   47.4780 C   0  0  0  0  0  0  0  0  0  0  0  0
   62.9115   30.5704   47.6450 H   0  0  0  0  0  0  0  0  0  0  0  0
   60.9000   31.2650   47.2490 C   0  0  0  0  0  0  0  0  0  0  0  0
   60.4060   29.9500   47.2490 O   0  0  0  0  0  0  0  0  0  0  0  0
   59.2490   29.4750   46.5530 C   0  0  2  0  0  0  0  0  0  0  0  0
   58.6107   30.3180   46.2496 H   0  0  0  0  0  0  0  0  0  0  0  0
   58.4770   28.6600   47.4320 O   0  0  0  0  0  0  0  0  0  0  0  0
   58.8980   27.3030   47.4870 C   0  0  2  0  0  0  0  0  0  0  0  0
   58.2256   26.7493   48.1588 H   0  0  0  0  0  0  0  0  0  0  0  0
   60.2840   27.1550   48.1550 C   0  0  0  0  0  0  0  0  0  0  0  0
   60.3627   26.1577   48.6123 H   0  0  0  0  0  0  0  0  0  0  0  0
   61.0663   27.2800   47.3919 H   0  0  0  0  0  0  0  0  0  0  0  0
   60.4490   28.1330   49.1450 O   0  0  0  0  0  0  0  0  0  0  0  0
   60.1670   28.9910   48.7350 H   0  0  0  0  0  0  0  0  0  0  0  0
   58.7270   26.5940   46.1070 C   0  0  2  0  0  0  0  0  0  0  0  0
   57.7412   26.1065   46.1321 H   0  0  0  0  0  0  0  0  0  0  0  0
   59.6820   25.5780   45.9050 O   0  0  0  0  0  0  0  0  0  0  0  0
   59.3810   25.0170   45.1440 H   0  0  0  0  0  0  0  0  0  0  0  0
   58.7050   27.5980   44.9310 C   0  0  1  0  0  0  0  0  0  0  0  0
   59.0427   27.0944   44.0132 H   0  0  0  0  0  0  0  0  0  0  0  0
   57.3930   28.0710   44.7480 O   0  0  0  0  0  0  0  0  0  0  0  0
   57.4620   28.9660   44.3230 H   0  0  0  0  0  0  0  0  0  0  0  0
   59.6500   28.7700   45.2250 C   0  0  1  0  0  0  0  0  0  0  0  0
   60.6759   28.3898   45.3390 H   0  0  0  0  0  0  0  0  0  0  0  0
   59.6060   29.6790   44.1530 O   0  0  0  0  0  0  0  0  0  0  0  0
   58.7810   29.4870   43.6350 H   0  0  0  0  0  0  0  0  0  0  0  0
   60.0820   32.3940   47.0470 C   0  0  0  0  0  0  0  0  0  0  0  0
   59.0012   32.2612   46.8913 H   0  0  0  0  0  0  0  0  0  0  0  0
   60.6300   33.6870   47.0420 C   0  0  0  0  0  0  0  0  0  0  0  0
   59.7230   34.8410   46.8260 C   0  0  0  0  0  0  0  0  0  0  0  0
   59.7435   35.6623   47.5575 H   0  0  0  0  0  0  0  0  0  0  0  0
   58.8780   34.9380   45.7860 C   0  0  0  0  0  0  0  0  0  0  0  0
   58.5639   35.9418   45.4639 H   0  0  0  0  0  0  0  0  0  0  0  0
   58.3450   33.7670   45.0480 C   0  0  0  0  0  0  0  0  0  0  0  0
   57.3800   32.8990   45.5970 C   0  0  0  0  0  0  0  0  0  0  0  0
   56.9874   33.0871   46.6072 H   0  0  0  0  0  0  0  0  0  0  0  0
   56.9180   31.7990   44.8650 C   0  0  0  0  0  0  0  0  0  0  0  0
   56.1599   31.1314   45.3004 H   0  0  0  0  0  0  0  0  0  0  0  0
   57.4180   31.5430   43.5760 C   0  0  0  0  0  0  0  0  0  0  0  0
   56.9840   30.4540   42.8030 O   0  0  0  0  0  0  0  0  0  0  0  0
   55.7930   29.7170   43.0520 C   0  0  0  0  0  0  0  0  0  0  0  0
   55.6404   29.6226   44.1373 H   0  0  0  0  0  0  0  0  0  0  0  0
   54.9362   30.2430   42.6056 H   0  0  0  0  0  0  0  0  0  0  0  0
   55.8814   28.7155   42.6056 H   0  0  0  0  0  0  0  0  0  0  0  0
   58.3870   32.3960   43.0390 C   0  0  0  0  0  0  0  0  0  0  0  0
   58.7869   32.2013   42.0329 H   0  0  0  0  0  0  0  0  0  0  0  0
   58.8520   33.4930   43.7680 C   0  0  0  0  0  0  0  0  0  0  0  0
   59.6224   34.1481   43.3352 H   0  0  0  0  0  0  0  0  0  0  0  0
   62.0090   33.8460   47.2810 C   0  0  0  0  0  0  0  0  0  0  0  0
   62.4488   34.8541   47.2981 H   0  0  0  0  0  0  0  0  0  0  0  0
  1  2  1  0
  2  3  1  0
  3  4  2  0
  4  5  1  0
  4  6  1  0
  6  7  1  0
  7  8  1  0
  8  9  1  6
  8 10  1  0
 10 11  1  0
 11 12  1  1
 11 13  1  0
 13 14  1  0
 13 15  1  0
 13 16  1  0
 16 17  1  0
 11 18  1  0
 18 19  1  1
 18 20  1  0
 20 21  1  0
 18 22  1  0
 22 23  1  6
 22 24  1  0
 24 25  1  0
 22 26  1  0
 26 27  1  1
 26 28  1  0
 28 29  1  0
  6 30  2  0
 30 31  1  0
 30 32  1  0
 32 33  1  0
 33 34  1  0
 33 35  2  0
 35 36  1  0
 35 37  1  0
 37 38  2  0
 38 39  1  0
 38 40  1  0
 40 41  1  0
 40 42  2  0
 42 43  1  0
 43 44  1  0
 44 45  1  0
 44 46  1  0
 44 47  1  0
 42 48  1  0
 48 49  1  0
 48 50  2  0
 50 51  1  0
 32 52  2  0
 52 53  1  0
 52  3  1  0
 26  8  1  0
 50 37  1  0
M  END
>  <UniqueID>  (34) 
34

>  <SMILES>  (34) 
COc1ccc(/C=C/c2cc(O)cc(O[C@@H]3O[C@H](CO)C(O)C(O)C3O)c2)cc1

>  <Energy>  (34) 
75.56117278114947

>  <Genealogy>  (34) 
COc1ccc(C=Cc2cc(O)cc(O[C@@H]3O[C@H](CO)C(O)C(O)C3O)c2)cc1 (chirality)
COc1ccc(/C=C/c2cc(O)cc(O[C@@H]3O[C@H](CO)C(O)C(O)C3O)c2)cc1 (cis-trans isomerization)
COc1ccc(/C=C/c2cc(O)cc(O[C@@H]3O[C@H](CO)C(O)C(O)C3O)c2)cc1 (3D coordinates assigned)
COc1ccc(/C=C/c2cc(O)cc(O[C@@H]3O[C@H](CO)C(O)C(O)C3O)c2)cc1 (nonaromatic ring conformer: 75.56117278114947 kcal/mol)

>  <smiles>  (34) 
COc1ccc(C=Cc2cc(O)cc(OC3OC(CO)C(O)C(O)C3O)c2)cc1

>  <score_type>  (34) 
oracle

>  <origin>  (34) 
adg

>  <m_score__min__energy>  (34) 
-7.0899999999999999

>  <m_primary>  (34) 
energy

$$$$
34:0
     RDKit          3D

 49 53  0  0  0  0  0  0  0  0999 V2000
   59.3000   35.1110   45.1980 C   0  0  0  0  0  0  0  0  0  0  0  0
   59.9310   33.8570   45.0470 O   0  0  0  0  0  0  0  0  0  0  0  0
   59.1690   32.7680   45.5740 C   0  0  2  0  0  0  0  0  0  0  0  0
   58.8310   31.8060   44.5780 O   0  0  0  0  0  0  0  0  0  0  0  0
   58.3650   30.5830   45.1290 C   0  0  2  0  0  0  0  0  0  0  0  0
   58.6850   29.4140   44.1720 C   0  0  0  0  0  0  0  0  0  0  0  0
   57.3750   28.6420   43.9700 C   0  0  0  0  0  0  0  0  0  0  0  0
   56.3820   29.5300   44.6020 C   0  0  0  0  0  0  0  0  0  0  0  0
   55.1410   29.3250   44.5840 O   0  0  0  0  0  0  0  0  0  0  0  0
   56.9520   30.6160   45.2240 O   0  0  0  0  0  0  0  0  0  0  0  0
   57.9090   33.2450   46.2630 C   0  0  0  0  0  0  0  0  0  0  0  0
   56.6480   33.6750   45.5630 C   0  0  0  0  0  0  0  0  0  0  0  0
   57.9680   33.1620   47.5870 C   0  0  0  0  0  0  0  0  0  0  0  0
   59.2290   32.5200   48.0680 C   0  0  1  0  0  0  0  0  0  0  0  0
   58.9430   31.3710   48.8290 O   0  0  0  0  0  0  0  0  0  0  0  0
   59.9580   32.1130   46.7500 C   0  0  2  0  0  0  0  0  0  0  0  0
   61.3140   32.5520   46.7910 O   0  0  0  0  0  0  0  0  0  0  0  0
   61.4780   32.8950   48.1320 C   0  0  1  0  0  0  0  0  0  0  0  0
   61.9620   31.7040   48.7610 O   0  0  0  0  0  0  0  0  0  0  0  0
   62.6050   32.8950   49.0730 C   0  0  1  0  0  0  0  0  0  0  0  0
   64.0160   33.0600   48.5290 C   0  0  0  0  0  0  0  0  0  0  0  0
   62.0870   33.4650   50.3900 C   0  0  0  0  0  0  0  0  0  0  0  0
   60.5420   33.3600   50.2850 C   0  0  0  0  0  0  0  0  0  0  0  0
   60.2460   33.4490   48.7640 C   0  0  2  0  0  0  0  0  0  0  0  0
   60.0970   34.9410   48.3640 C   0  0  0  0  0  0  0  0  0  0  0  0
   59.1860   35.3376   46.2684 H   0  0  0  0  0  0  0  0  0  0  0  0
   59.9135   35.8899   44.7216 H   0  0  0  0  0  0  0  0  0  0  0  0
   58.3089   35.0825   44.7216 H   0  0  0  0  0  0  0  0  0  0  0  0
   58.8465   30.4501   46.1091 H   0  0  0  0  0  0  0  0  0  0  0  0
   59.0500   29.8008   43.2091 H   0  0  0  0  0  0  0  0  0  0  0  0
   59.4686   28.7637   44.5881 H   0  0  0  0  0  0  0  0  0  0  0  0
   57.1580   28.4997   42.9011 H   0  0  0  0  0  0  0  0  0  0  0  0
   57.3924   27.6285   44.3972 H   0  0  0  0  0  0  0  0  0  0  0  0
   55.8842   33.9354   46.3105 H   0  0  0  0  0  0  0  0  0  0  0  0
   56.8589   34.5520   44.9334 H   0  0  0  0  0  0  0  0  0  0  0  0
   56.2792   32.8518   44.9334 H   0  0  0  0  0  0  0  0  0  0  0  0
   57.1751   33.5261   48.2568 H   0  0  0  0  0  0  0  0  0  0  0  0
   59.8090   30.9810   49.1170 H   0  0  0  0  0  0  0  0  0  0  0  0
   59.9822   31.0213   46.6177 H   0  0  0  0  0  0  0  0  0  0  0  0
   64.7245   33.1428   49.3664 H   0  0  0  0  0  0  0  0  0  0  0  0
   64.2762   32.1862   47.9136 H   0  0  0  0  0  0  0  0  0  0  0  0
   64.0676   33.9703   47.9136 H   0  0  0  0  0  0  0  0  0  0  0  0
   62.4589   32.8752   51.2408 H   0  0  0  0  0  0  0  0  0  0  0  0
   62.4232   34.4990   50.5565 H   0  0  0  0  0  0  0  0  0  0  0  0
   60.1892   32.4017   50.6938 H   0  0  0  0  0  0  0  0  0  0  0  0
   60.0305   34.1486   50.8564 H   0  0  0  0  0  0  0  0  0  0  0  0
   60.0352   35.5595   49.2715 H   0  0  0  0  0  0  0  0  0  0  0  0
   60.9688   35.2498   47.7685 H   0  0  0  0  0  0  0  0  0  0  0  0
   59.1814   35.0713   47.7685 H   0  0  0  0  0  0  0  0  0  0  0  0
  1  2  1  0
  3  2  1  6
  3  4  1  0
  4  5  1  0
  5  6  1  0
  6  7  1  0
  7  8  1  0
  8  9  2  0
  8 10  1  0
  3 11  1  0
 11 12  1  0
 11 13  2  0
 13 14  1  0
 14 15  1  1
 14 16  1  0
 16 17  1  0
 18 17  1  6
 18 19  1  0
 19 20  1  0
 20 21  1  6
 20 22  1  0
 22 23  1  0
 23 24  1  0
 24 25  1  6
 16  3  1  0
 20 18  1  0
 10  5  1  0
 24 14  1  0
 24 18  1  0
  1 26  1  0
  1 27  1  0
  1 28  1  0
  5 29  1  1
  6 30  1  0
  6 31  1  0
  7 32  1  0
  7 33  1  0
 12 34  1  0
 12 35  1  0
 12 36  1  0
 13 37  1  0
 15 38  1  0
 16 39  1  6
 21 40  1  0
 21 41  1  0
 21 42  1  0
 22 43  1  0
 22 44  1  0
 23 45  1  0
 23 46  1  0
 25 47  1  0
 25 48  1  0
 25 49  1  0
M  END
>  <UniqueID>  (35) 
35

>  <SMILES>  (35) 
CO[C@]1(O[C@@H]2CCC(=O)O2)C(C)=CC2(O)C1OC13OC1(C)CCC23C

>  <Energy>  (35) 
448.47823436025703

>  <Genealogy>  (35) 
CO[C@]1(O[C@@H]2CCC(=O)O2)C(C)=CC2(O)C1OC13OC1(C)CCC23C (chirality)
CO[C@]1(O[C@@H]2CCC(=O)O2)C(C)=CC2(O)C1OC13OC1(C)CCC23C (3D coordinates assigned)
CO[C@]1(O[C@@H]2CCC(=O)O2)C(C)=CC2(O)C1OC13OC1(C)CCC23C (nonaromatic ring conformer: 448.47823436025703 kcal/mol)

>  <smiles>  (35) 
COC1(OC2CCC(=O)O2)C(C)=CC2(O)C1OC13OC1(C)CCC23C

>  <score_type>  (35) 
oracle

>  <origin>  (35) 
adg

>  <m_score__min__energy>  (35) 
-7.8399999999999999

>  <m_primary>  (35) 
energy

$$$$
35:0
     RDKit          3D

 43 46  0  0  0  0  0  0  0  0999 V2000
   54.7720   26.3540   45.9920 N   0  0  0  0  0  0  0  0  0  0  0  0
   55.0330   25.0130   45.5850 C   0  0  0  0  0  0  0  0  0  0  0  0
   54.0700   24.2430   45.3270 O   0  0  0  0  0  0  0  0  0  0  0  0
   56.4260   24.5500   45.4060 C   0  0  0  0  0  0  0  0  0  0  0  0
   56.6320   23.4720   44.5300 C   0  0  0  0  0  0  0  0  0  0  0  0
   57.8580   22.8130   44.4910 C   0  0  0  0  0  0  0  0  0  0  0  0
   58.8790   23.2270   45.3400 C   0  0  0  0  0  0  0  0  0  0  0  0
   58.6930   24.3000   46.1510 N   0  0  0  0  0  0  0  0  0  0  0  0
   57.5300   25.0060   46.1910 C   0  0  0  0  0  0  0  0  0  0  0  0
   57.5170   26.0830   46.9310 N   0  0  0  0  0  0  0  0  0  0  0  0
   58.0300   27.3920   46.6470 C   0  0  0  0  0  0  0  0  0  0  0  0
   57.5530   28.1300   45.5520 C   0  0  0  0  0  0  0  0  0  0  0  0
   58.1000   29.3820   45.2570 C   0  0  0  0  0  0  0  0  0  0  0  0
   57.4800   30.3120   43.9050 Cl  0  0  0  0  0  0  0  0  0  0  0  0
   59.1490   29.8870   46.0310 C   0  0  0  0  0  0  0  0  0  0  0  0
   59.6680   29.1360   47.0970 C   0  0  0  0  0  0  0  0  0  0  0  0
   60.8560   29.6520   47.8920 C   0  0  0  0  0  0  0  0  0  0  0  0
   60.6970   31.0450   48.3650 N   0  0  0  0  0  0  0  0  0  0  0  0
   61.1970   32.0110   47.4140 C   0  0  0  0  0  0  0  0  0  0  0  0
   62.4110   32.0990   47.0890 O   0  0  0  0  0  0  0  0  0  0  0  0
   60.1460   32.8830   46.9120 C   0  0  0  0  0  0  0  0  0  0  0  0
   60.1800   33.9020   45.9610 C   0  0  0  0  0  0  0  0  0  0  0  0
   58.9780   34.5730   45.6720 C   0  0  0  0  0  0  0  0  0  0  0  0
   57.7820   34.2120   46.3320 C   0  0  0  0  0  0  0  0  0  0  0  0
   57.7820   33.1790   47.2870 C   0  0  0  0  0  0  0  0  0  0  0  0
   58.9900   32.5340   47.5510 C   0  0  0  0  0  0  0  0  0  0  0  0
   59.3110   31.4420   48.4580 C   0  0  0  0  0  0  0  0  0  0  0  0
   58.4920   30.9160   49.2580 O   0  0  0  0  0  0  0  0  0  0  0  0
   59.1060   27.8840   47.3940 C   0  0  0  0  0  0  0  0  0  0  0  0
   55.4160   26.8500   46.6470 H   0  0  0  0  0  0  0  0  0  0  0  0
   55.8167   23.1449   43.8680 H   0  0  0  0  0  0  0  0  0  0  0  0
   58.0172   21.9747   43.7968 H   0  0  0  0  0  0  0  0  0  0  0  0
   59.8364   22.6856   45.3544 H   0  0  0  0  0  0  0  0  0  0  0  0
   56.7468   27.7219   44.9247 H   0  0  0  0  0  0  0  0  0  0  0  0
   59.5696   30.8776   45.8034 H   0  0  0  0  0  0  0  0  0  0  0  0
   60.9960   29.0018   48.7682 H   0  0  0  0  0  0  0  0  0  0  0  0
   61.7240   29.6397   47.2164 H   0  0  0  0  0  0  0  0  0  0  0  0
   61.1670   31.1830   49.2900 H   0  0  0  0  0  0  0  0  0  0  0  0
   61.1172   34.1727   45.4527 H   0  0  0  0  0  0  0  0  0  0  0  0
   58.9691   35.3832   44.9281 H   0  0  0  0  0  0  0  0  0  0  0  0
   56.8465   34.7412   46.0980 H   0  0  0  0  0  0  0  0  0  0  0  0
   56.8582   32.8891   47.8091 H   0  0  0  0  0  0  0  0  0  0  0  0
   59.5151   27.2849   48.2209 H   0  0  0  0  0  0  0  0  0  0  0  0
  1  2  1  0
  2  3  2  0
  2  4  1  0
  4  5  2  0
  5  6  1  0
  6  7  2  0
  7  8  1  0
  8  9  1  0
  9 10  2  3
 10 11  1  0
 11 12  2  0
 12 13  1  0
 13 14  1  0
 13 15  2  0
 15 16  1  0
 16 17  1  0
 17 18  1  0
 18 19  1  0
 19 20  2  0
 19 21  1  0
 21 22  2  0
 22 23  1  0
 23 24  2  0
 24 25  1  0
 25 26  2  0
 26 27  1  0
 27 28  2  0
 16 29  2  0
  9  4  1  0
 29 11  1  0
 27 18  1  0
 26 21  1  0
  1 30  1  0
  5 31  1  0
  6 32  1  0
  7 33  1  0
 12 34  1  0
 15 35  1  0
 17 36  1  0
 17 37  1  0
 18 38  1  0
 22 39  1  0
 23 40  1  0
 24 41  1  0
 25 42  1  0
 29 43  1  0
M  CHG  3   1  -1   8  -1  18   1
M  END
>  <UniqueID>  (36) 
36

>  <SMILES>  (36) 
[NH-]C(=O)c1ccc[n-]c1=Nc1cc(Cl)cc(C[NH+]2C(=O)c3ccccc3C2=O)c1

>  <Energy>  (36) 
94.57412313637445

>  <Genealogy>  (36) 
[NH-]C(=O)c1ccc[n-]c1=Nc1cc(Cl)cc(C[NH+]2C(=O)c3ccccc3C2=O)c1 (protonated)
[NH-]C(=O)c1ccc[n-]c1=Nc1cc(Cl)cc(C[NH+]2C(=O)c3ccccc3C2=O)c1 (3D coordinates assigned)
[NH-]C(=O)c1ccc[n-]c1=Nc1cc(Cl)cc(C[NH+]2C(=O)c3ccccc3C2=O)c1 (nonaromatic ring conformer: 94.57412313637445 kcal/mol)

>  <smiles>  (36) 
NC(=O)c1ccc[nH]c1=Nc1cc(Cl)cc(CN2C(=O)c3ccccc3C2=O)c1

>  <score_type>  (36) 
oracle

>  <origin>  (36) 
adg

>  <m_score__min__energy>  (36) 
-12.52

>  <m_primary>  (36) 
energy

$$$$
36:0
     RDKit          3D

 35 36  0  0  0  0  0  0  0  0999 V2000
   53.4940   26.3310   46.3080 H   0  0  0  0  0  0  0  0  0  0  0  0
   54.3090   25.9340   45.7880 N   0  0  0  0  0  0  0  0  0  0  0  0
   55.5180   26.3360   46.0150 C   0  0  0  0  0  0  0  0  0  0  0  0
   55.9030   27.5720   45.6190 N   0  0  0  0  0  0  0  0  0  0  0  0
   57.1620   28.0350   45.8410 C   0  0  0  0  0  0  0  0  0  0  0  0
   57.4720   29.4080   45.3960 C   0  0  0  0  0  0  0  0  0  0  0  0
   58.0800   30.3240   46.2690 C   0  0  0  0  0  0  0  0  0  0  0  0
   58.3563   30.0098   47.2863 H   0  0  0  0  0  0  0  0  0  0  0  0
   58.3360   31.6330   45.8520 C   0  0  0  0  0  0  0  0  0  0  0  0
   58.8233   32.3411   46.5384 H   0  0  0  0  0  0  0  0  0  0  0  0
   57.9740   32.0480   44.5610 C   0  0  0  0  0  0  0  0  0  0  0  0
   58.2200   33.4680   44.1230 C   0  0  0  0  0  0  0  0  0  0  0  0
   59.2910   33.6961   44.2278 H   0  0  0  0  0  0  0  0  0  0  0  0
   57.9044   33.5704   43.0742 H   0  0  0  0  0  0  0  0  0  0  0  0
   57.4500   34.4080   44.9340 N   0  0  0  0  0  0  0  0  0  0  0  0
   56.4380   34.1470   44.8820 H   0  0  0  0  0  0  0  0  0  0  0  0
   57.7500   34.3180   45.9320 H   0  0  0  0  0  0  0  0  0  0  0  0
   57.3240   31.1460   43.7050 C   0  0  0  0  0  0  0  0  0  0  0  0
   57.0145   31.4705   42.7005 H   0  0  0  0  0  0  0  0  0  0  0  0
   57.0680   29.8370   44.1230 C   0  0  0  0  0  0  0  0  0  0  0  0
   56.5471   29.1397   43.4503 H   0  0  0  0  0  0  0  0  0  0  0  0
   58.1090   27.1990   46.4870 C   0  0  0  0  0  0  0  0  0  0  0  0
   59.5630   27.5900   46.6600 C   0  0  0  0  0  0  0  0  0  0  0  0
   60.1902   26.6916   46.5620 H   0  0  0  0  0  0  0  0  0  0  0  0
   59.8194   28.3285   45.8861 H   0  0  0  0  0  0  0  0  0  0  0  0
   59.8480   28.3280   48.2630 S   0  0  0  0  0  0  0  0  0  0  0  0
   58.5230   28.6750   48.8810 O   0  0  0  0  0  0  0  0  0  0  0  0
   60.5640   27.3550   49.1570 O   0  0  0  0  0  0  0  0  0  0  0  0
   60.8200   29.8100   48.1130 C   0  0  0  0  0  0  0  0  0  0  0  0
   61.0683   30.1886   49.1155 H   0  0  0  0  0  0  0  0  0  0  0  0
   61.7474   29.5864   47.5654 H   0  0  0  0  0  0  0  0  0  0  0  0
   60.2454   30.5715   47.5654 H   0  0  0  0  0  0  0  0  0  0  0  0
   57.6730   25.9220   46.8950 C   0  0  0  0  0  0  0  0  0  0  0  0
   58.4580   25.1330   47.4850 O   0  0  0  0  0  0  0  0  0  0  0  0
   56.3980   25.5250   46.6540 N   0  0  0  0  0  0  0  0  0  0  0  0
  1  2  1  0
  2  3  2  0
  3  4  1  0
  4  5  1  0
  5  6  1  0
  6  7  2  0
  7  8  1  0
  7  9  1  0
  9 10  1  0
  9 11  2  0
 11 12  1  0
 12 13  1  0
 12 14  1  0
 12 15  1  0
 15 16  1  0
 15 17  1  0
 11 18  1  0
 18 19  1  0
 18 20  2  0
 20 21  1  0
  5 22  2  0
 22 23  1  0
 23 24  1  0
 23 25  1  0
 23 26  1  0
 26 27  2  0
 26 28  2  0
 26 29  1  0
 29 30  1  0
 29 31  1  0
 29 32  1  0
 22 33  1  0
 33 34  2  0
 33 35  1  0
 35  3  1  0
 20  6  1  0
M  CHG  2   4  -1  35  -1
M  END
>  <UniqueID>  (37) 
37

>  <SMILES>  (37) 
[H]/N=c1/[n-]c(-c2ccc(CN)cc2)c(CS(C)(=O)=O)c(=O)[n-]1

>  <Energy>  (37) 
35.032931517193674

>  <Genealogy>  (37) 
CS(=O)(=O)Cc1c(-c2ccc(CN)cc2)[n-]c(=N)[n-]c1=O (protonated)
[H]/N=c1/[n-]c(-c2ccc(CN)cc2)c(CS(C)(=O)=O)c(=O)[n-]1 (cis-trans isomerization)
[H]/N=c1/[n-]c(-c2ccc(CN)cc2)c(CS(C)(=O)=O)c(=O)[n-]1 (3D coordinates assigned)
[H]/N=c1/[n-]c(-c2ccc(CN)cc2)c(CS(C)(=O)=O)c(=O)[n-]1 (optimized conformer: 35.032931517193674 kcal/mol)

>  <smiles>  (37) 
CS(=O)(=O)Cc1c(-c2ccc(CN)cc2)[nH]c(=N)[nH]c1=O

>  <score_type>  (37) 
oracle

>  <origin>  (37) 
adg

>  <m_score__min__energy>  (37) 
-11.199999999999999

>  <m_primary>  (37) 
energy

$$$$
37:0
     RDKit          3D

 38 40  0  0  0  0  0  0  0  0999 V2000
   55.7050   30.1290   44.8550 O   0  0  0  0  0  0  0  0  0  0  0  0
   56.7830   30.5520   44.3550 C   0  0  0  0  0  0  0  0  0  0  0  0
   57.0010   31.9560   44.1770 N   0  0  0  0  0  0  0  0  0  0  0  0
   57.7720   32.8170   45.0280 C   0  0  0  0  0  0  0  0  0  0  0  0
   57.7300   32.6060   46.4130 C   0  0  0  0  0  0  0  0  0  0  0  0
   58.4800   33.4110   47.2770 C   0  0  0  0  0  0  0  0  0  0  0  0
   59.2910   34.4250   46.7600 C   0  0  0  0  0  0  0  0  0  0  0  0
   60.0200   35.2040   47.5970 F   0  0  0  0  0  0  0  0  0  0  0  0
   59.3590   34.6280   45.3790 C   0  0  0  0  0  0  0  0  0  0  0  0
   58.6090   33.8240   44.5130 C   0  0  0  0  0  0  0  0  0  0  0  0
   57.8130   29.6310   43.9730 N   0  0  0  0  0  0  0  0  0  0  0  0
   57.7550   28.2240   44.2500 C   0  0  0  0  0  0  0  0  0  0  0  0
   57.8210   27.3160   43.1840 C   0  0  0  0  0  0  0  0  0  0  0  0
   57.7690   25.9390   43.4210 C   0  0  0  0  0  0  0  0  0  0  0  0
   57.6710   25.4590   44.7280 C   0  0  0  0  0  0  0  0  0  0  0  0
   57.6340   26.3520   45.8010 C   0  0  0  0  0  0  0  0  0  0  0  0
   57.6750   27.7400   45.5730 C   0  0  0  0  0  0  0  0  0  0  0  0
   57.7120   28.6470   46.6440 O   0  0  0  0  0  0  0  0  0  0  0  0
   58.8470   29.3510   47.0740 C   0  0  0  0  0  0  0  0  0  0  0  0
   58.9240   29.9330   48.3530 C   0  0  0  0  0  0  0  0  0  0  0  0
   60.0660   30.6440   48.7350 C   0  0  0  0  0  0  0  0  0  0  0  0
   61.1310   30.7900   47.8420 C   0  0  0  0  0  0  0  0  0  0  0  0
   61.0520   30.2320   46.5620 C   0  0  0  0  0  0  0  0  0  0  0  0
   59.9110   29.5200   46.1790 C   0  0  0  0  0  0  0  0  0  0  0  0
   57.1025   31.8013   46.8237 H   0  0  0  0  0  0  0  0  0  0  0  0
   58.4314   33.2459   48.3634 H   0  0  0  0  0  0  0  0  0  0  0  0
   60.0032   35.4212   44.9718 H   0  0  0  0  0  0  0  0  0  0  0  0
   58.6741   33.9799   43.4260 H   0  0  0  0  0  0  0  0  0  0  0  0
   58.5640   29.9800   43.3360 H   0  0  0  0  0  0  0  0  0  0  0  0
   57.9144   27.6895   42.1536 H   0  0  0  0  0  0  0  0  0  0  0  0
   57.8053   25.2340   42.5774 H   0  0  0  0  0  0  0  0  0  0  0  0
   57.6228   24.3758   44.9131 H   0  0  0  0  0  0  0  0  0  0  0  0
   57.5725   25.9683   46.8301 H   0  0  0  0  0  0  0  0  0  0  0  0
   58.0832   29.8283   49.0545 H   0  0  0  0  0  0  0  0  0  0  0  0
   60.1261   31.0887   49.7393 H   0  0  0  0  0  0  0  0  0  0  0  0
   62.0315   31.3439   48.1459 H   0  0  0  0  0  0  0  0  0  0  0  0
   61.8873   30.3532   45.8566 H   0  0  0  0  0  0  0  0  0  0  0  0
   59.8487   29.0900   45.1685 H   0  0  0  0  0  0  0  0  0  0  0  0
  1  2  2  0
  2  3  1  0
  3  4  1  0
  4  5  2  0
  5  6  1  0
  6  7  2  0
  7  8  1  0
  7  9  1  0
  9 10  2  0
  2 11  1  0
 11 12  1  0
 12 13  2  0
 13 14  1  0
 14 15  2  0
 15 16  1  0
 16 17  2  0
 17 18  1  0
 18 19  1  0
 19 20  2  0
 20 21  1  0
 21 22  2  0
 22 23  1  0
 23 24  2  0
 10  4  1  0
 17 12  1  0
 24 19  1  0
  5 25  1  0
  6 26  1  0
  9 27  1  0
 10 28  1  0
 11 29  1  0
 13 30  1  0
 14 31  1  0
 15 32  1  0
 16 33  1  0
 20 34  1  0
 21 35  1  0
 22 36  1  0
 23 37  1  0
 24 38  1  0
M  CHG  1   3  -1
M  END
>  <UniqueID>  (38) 
38

>  <SMILES>  (38) 
O=C([N-]c1ccc(F)cc1)Nc1ccccc1Oc1ccccc1

>  <Energy>  (38) 
55.02267201043335

>  <Genealogy>  (38) 
O=C([N-]c1ccc(F)cc1)Nc1ccccc1Oc1ccccc1 (protonated)
O=C([N-]c1ccc(F)cc1)Nc1ccccc1Oc1ccccc1 (3D coordinates assigned)
O=C([N-]c1ccc(F)cc1)Nc1ccccc1Oc1ccccc1 (optimized conformer: 55.02267201043335 kcal/mol)

>  <smiles>  (38) 
O=C(Nc1ccc(F)cc1)Nc1ccccc1Oc1ccccc1

>  <score_type>  (38) 
oracle

>  <origin>  (38) 
adg

>  <m_score__min__energy>  (38) 
-9.2200000000000006

>  <m_primary>  (38) 
energy

$$$$
38:0
     RDKit          3D

 48 51  0  0  0  0  0  0  0  0999 V2000
   59.1490   25.8220   45.8310 O   0  0  0  0  0  0  0  0  0  0  0  0
   58.1860   25.6690   45.0320 C   0  0  0  0  0  0  0  0  0  0  0  0
   57.5990   24.3010   44.8420 C   0  0  0  0  0  0  0  0  0  0  0  0
   56.1270   24.3580   44.9300 N   0  0  0  0  0  0  0  0  0  0  0  0
   55.3620   23.6360   44.0470 C   0  0  0  0  0  0  0  0  0  0  0  0
   55.9020   22.9350   43.1480 O   0  0  0  0  0  0  0  0  0  0  0  0
   53.9690   23.6650   44.1330 C   0  0  0  0  0  0  0  0  0  0  0  0
   53.3770   24.4300   45.1290 C   0  0  0  0  0  0  0  0  0  0  0  0
   54.1520   25.1270   45.9940 N   0  0  0  0  0  0  0  0  0  0  0  0
   55.5080   25.0980   45.9100 C   0  0  0  0  0  0  0  0  0  0  0  0
   56.1820   25.7610   46.7440 O   0  0  0  0  0  0  0  0  0  0  0  0
   57.6820   26.7790   44.2740 N   0  0  0  0  0  0  0  0  0  0  0  0
   57.9560   28.1570   44.5790 C   0  0  0  0  0  0  0  0  0  0  0  0
   56.9050   29.0870   44.5590 C   0  0  0  0  0  0  0  0  0  0  0  0
   57.1380   30.4270   44.8780 C   0  0  0  0  0  0  0  0  0  0  0  0
   58.4240   30.8540   45.2410 C   0  0  0  0  0  0  0  0  0  0  0  0
   58.6740   32.2700   45.5790 C   0  0  0  0  0  0  0  0  0  0  0  0
   58.4780   33.2370   44.5790 C   0  0  0  0  0  0  0  0  0  0  0  0
   58.6660   34.5920   44.8560 C   0  0  0  0  0  0  0  0  0  0  0  0
   59.0520   34.9950   46.1350 C   0  0  0  0  0  0  0  0  0  0  0  0
   59.2620   34.0460   47.1360 C   0  0  0  0  0  0  0  0  0  0  0  0
   59.0910   32.6760   46.8710 C   0  0  0  0  0  0  0  0  0  0  0  0
   59.4420   31.5180   48.1660 S   0  0  0  0  0  0  0  0  0  0  0  0
   58.6230   30.2660   48.0110 O   0  0  0  0  0  0  0  0  0  0  0  0
   59.1250   32.1520   49.4900 O   0  0  0  0  0  0  0  0  0  0  0  0
   61.1220   31.0810   48.1400 N   0  0  0  0  0  0  0  0  0  0  0  0
   62.0890   31.9180   47.9180 C   0  0  0  0  0  0  0  0  0  0  0  0
   62.1290   32.6950   46.8160 N   0  0  0  0  0  0  0  0  0  0  0  0
   63.2350   33.4870   46.8020 C   0  0  0  0  0  0  0  0  0  0  0  0
   64.0820   33.3410   47.8960 C   0  0  0  0  0  0  0  0  0  0  0  0
   63.4220   32.1800   48.9180 S   0  0  0  0  0  0  0  0  0  0  0  0
   59.4760   29.9280   45.2720 C   0  0  0  0  0  0  0  0  0  0  0  0
   59.2420   28.5860   44.9550 C   0  0  0  0  0  0  0  0  0  0  0  0
   57.8887   23.9161   43.8531 H   0  0  0  0  0  0  0  0  0  0  0  0
   57.9789   23.6360   45.6316 H   0  0  0  0  0  0  0  0  0  0  0  0
   53.3519   23.0925   43.4249 H   0  0  0  0  0  0  0  0  0  0  0  0
   52.2811   24.4700   45.2154 H   0  0  0  0  0  0  0  0  0  0  0  0
   57.1340   26.5680   43.4090 H   0  0  0  0  0  0  0  0  0  0  0  0
   55.8903   28.7583   44.2901 H   0  0  0  0  0  0  0  0  0  0  0  0
   56.3098   31.1501   44.8444 H   0  0  0  0  0  0  0  0  0  0  0  0
   58.1739   32.9237   43.5694 H   0  0  0  0  0  0  0  0  0  0  0  0
   58.5100   35.3419   44.0665 H   0  0  0  0  0  0  0  0  0  0  0  0
   59.1911   36.0638   46.3546 H   0  0  0  0  0  0  0  0  0  0  0  0
   59.5642   34.3728   48.1419 H   0  0  0  0  0  0  0  0  0  0  0  0
   63.4446   34.1923   45.9843 H   0  0  0  0  0  0  0  0  0  0  0  0
   65.0205   33.8898   48.0634 H   0  0  0  0  0  0  0  0  0  0  0  0
   60.4888   30.2579   45.5465 H   0  0  0  0  0  0  0  0  0  0  0  0
   60.0685   27.8616   45.0000 H   0  0  0  0  0  0  0  0  0  0  0  0
  1  2  2  0
  2  3  1  0
  3  4  1  0
  4  5  1  0
  5  6  2  0
  5  7  1  0
  7  8  2  0
  8  9  1  0
  9 10  1  0
 10 11  2  0
  2 12  1  0
 12 13  1  0
 13 14  2  0
 14 15  1  0
 15 16  2  0
 16 17  1  0
 17 18  2  0
 18 19  1  0
 19 20  2  0
 20 21  1  0
 21 22  2  0
 22 23  1  0
 23 24  2  0
 23 25  2  0
 23 26  1  0
 26 27  2  3
 27 28  1  0
 28 29  1  0
 29 30  2  0
 30 31  1  0
 16 32  1  0
 32 33  2  0
 10  4  1  0
 33 13  1  0
 22 17  1  0
 31 27  1  0
  3 34  1  0
  3 35  1  0
  7 36  1  0
  8 37  1  0
 12 38  1  0
 14 39  1  0
 15 40  1  0
 18 41  1  0
 19 42  1  0
 20 43  1  0
 21 44  1  0
 29 45  1  0
 30 46  1  0
 32 47  1  0
 33 48  1  0
M  CHG  2   9  -1  28  -1
M  END
>  <UniqueID>  (39) 
39

>  <SMILES>  (39) 
O=C(Cn1c(=O)cc[n-]c1=O)Nc1ccc(-c2ccccc2S(=O)(=O)N=c2[n-]ccs2)cc1

>  <Energy>  (39) 
101.05021708433777

>  <Genealogy>  (39) 
O=C(Cn1c(=O)cc[n-]c1=O)Nc1ccc(-c2ccccc2S(=O)(=O)N=c2[n-]ccs2)cc1 (protonated)
O=C(Cn1c(=O)cc[n-]c1=O)Nc1ccc(-c2ccccc2S(=O)(=O)N=c2[n-]ccs2)cc1 (3D coordinates assigned)
O=C(Cn1c(=O)cc[n-]c1=O)Nc1ccc(-c2ccccc2S(=O)(=O)N=c2[n-]ccs2)cc1 (optimized conformer: 101.05021708433777 kcal/mol)

>  <smiles>  (39) 
O=C(Cn1c(=O)cc[nH]c1=O)Nc1ccc(-c2ccccc2S(=O)(=O)N=c2[nH]ccs2)cc1

>  <score_type>  (39) 
oracle

>  <origin>  (39) 
adg

>  <m_score__min__energy>  (39) 
-12.970000000000001

>  <m_primary>  (39) 
energy

$$$$
39:0
     RDKit          3D

 45 48  0  0  0  0  0  0  0  0999 V2000
   56.7480   34.5860   45.5760 O   0  0  0  0  0  0  0  0  0  0  0  0
   58.0440   33.9500   45.1520 S   0  0  0  0  0  0  0  0  0  0  0  0
   58.9020   34.9990   44.5000 O   0  0  0  0  0  0  0  0  0  0  0  0
   57.7140   32.6880   44.0050 N   0  0  0  0  0  0  0  0  0  0  0  0
   57.6700   31.2880   44.3350 C   0  0  0  0  0  0  0  0  0  0  0  0
   56.4930   30.5260   44.2270 C   0  0  0  0  0  0  0  0  0  0  0  0
   56.5000   29.2070   44.5520 N   0  0  0  0  0  0  0  0  0  0  0  0
   57.6200   28.5720   44.9900 C   0  0  0  0  0  0  0  0  0  0  0  0
   57.5610   27.1720   45.2910 N   0  0  0  0  0  0  0  0  0  0  0  0
   57.1050   26.7650   46.6330 C   0  0  0  0  0  0  0  0  0  0  0  0
   57.2670   25.2560   46.8830 C   0  0  0  0  0  0  0  0  0  0  0  0
   56.8730   24.4670   45.6640 C   0  0  0  0  0  0  0  0  0  0  0  0
   56.1560   23.2650   45.7720 C   0  0  0  0  0  0  0  0  0  0  0  0
   55.8400   22.5310   44.6230 C   0  0  0  0  0  0  0  0  0  0  0  0
   56.2580   22.9810   43.3670 C   0  0  0  0  0  0  0  0  0  0  0  0
   56.9890   24.1680   43.2540 C   0  0  0  0  0  0  0  0  0  0  0  0
   57.2870   24.9210   44.4000 C   0  0  0  0  0  0  0  0  0  0  0  0
   58.0770   26.1970   44.3170 C   0  0  0  0  0  0  0  0  0  0  0  0
   58.8260   29.2880   45.0960 C   0  0  0  0  0  0  0  0  0  0  0  0
   60.3300   28.5010   45.5580 Cl  0  0  0  0  0  0  0  0  0  0  0  0
   58.8390   30.6480   44.7740 C   0  0  0  0  0  0  0  0  0  0  0  0
   58.9110   33.2890   46.5370 C   0  0  0  0  0  0  0  0  0  0  0  0
   60.3160   33.2930   46.5720 C   0  0  0  0  0  0  0  0  0  0  0  0
   60.9900   32.7750   47.6830 C   0  0  0  0  0  0  0  0  0  0  0  0
   60.2680   32.2490   48.7590 C   0  0  0  0  0  0  0  0  0  0  0  0
   58.8700   32.2380   48.7250 C   0  0  0  0  0  0  0  0  0  0  0  0
   58.1720   31.7170   49.7640 F   0  0  0  0  0  0  0  0  0  0  0  0
   58.1920   32.7600   47.6190 C   0  0  0  0  0  0  0  0  0  0  0  0
   57.5220   32.9830   43.0210 H   0  0  0  0  0  0  0  0  0  0  0  0
   55.5635   30.9996   43.8782 H   0  0  0  0  0  0  0  0  0  0  0  0
   57.6930   27.3114   47.3851 H   0  0  0  0  0  0  0  0  0  0  0  0
   56.0329   27.0004   46.7050 H   0  0  0  0  0  0  0  0  0  0  0  0
   58.3179   25.0417   47.1271 H   0  0  0  0  0  0  0  0  0  0  0  0
   56.6128   24.9648   47.7180 H   0  0  0  0  0  0  0  0  0  0  0  0
   55.8421   22.8995   46.7609 H   0  0  0  0  0  0  0  0  0  0  0  0
   55.2621   21.5989   44.7082 H   0  0  0  0  0  0  0  0  0  0  0  0
   56.0114   22.4003   42.4659 H   0  0  0  0  0  0  0  0  0  0  0  0
   57.3305   24.5115   42.2664 H   0  0  0  0  0  0  0  0  0  0  0  0
   59.1339   25.9862   44.5374 H   0  0  0  0  0  0  0  0  0  0  0  0
   57.9836   26.6145   43.3036 H   0  0  0  0  0  0  0  0  0  0  0  0
   59.7733   31.2213   44.8655 H   0  0  0  0  0  0  0  0  0  0  0  0
   60.8859   33.7036   45.7255 H   0  0  0  0  0  0  0  0  0  0  0  0
   62.0896   32.7814   47.7103 H   0  0  0  0  0  0  0  0  0  0  0  0
   60.7999   31.8438   49.6324 H   0  0  0  0  0  0  0  0  0  0  0  0
   57.0922   32.7558   47.5974 H   0  0  0  0  0  0  0  0  0  0  0  0
  1  2  2  0
  2  3  2  0
  2  4  1  0
  4  5  1  0
  5  6  2  0
  6  7  1  0
  7  8  2  0
  8  9  1  0
  9 10  1  0
 10 11  1  0
 11 12  1  0
 12 13  2  0
 13 14  1  0
 14 15  2  0
 15 16  1  0
 16 17  2  0
 17 18  1  0
  8 19  1  0
 19 20  1  0
 19 21  2  0
  2 22  1  0
 22 23  2  0
 23 24  1  0
 24 25  2  0
 25 26  1  0
 26 27  1  0
 26 28  2  0
 21  5  1  0
 28 22  1  0
 18  9  1  0
 17 12  1  0
  4 29  1  0
  6 30  1  0
 10 31  1  0
 10 32  1  0
 11 33  1  0
 11 34  1  0
 13 35  1  0
 14 36  1  0
 15 37  1  0
 16 38  1  0
 18 39  1  0
 18 40  1  0
 21 41  1  0
 23 42  1  0
 24 43  1  0
 25 44  1  0
 28 45  1  0
M  END
>  <UniqueID>  (40) 
40

>  <SMILES>  (40) 
O=S(=O)(Nc1cnc(N2CCc3ccccc3C2)c(Cl)c1)c1cccc(F)c1

>  <Energy>  (40) 
60.881947315429876

>  <Genealogy>  (40) 
O=S(=O)(Nc1cnc(N2CCc3ccccc3C2)c(Cl)c1)c1cccc(F)c1 (3D coordinates assigned)
O=S(=O)(Nc1cnc(N2CCc3ccccc3C2)c(Cl)c1)c1cccc(F)c1 (nonaromatic ring conformer: 60.881947315429876 kcal/mol)

>  <smiles>  (40) 
O=S(=O)(Nc1cnc(N2CCc3ccccc3C2)c(Cl)c1)c1cccc(F)c1

>  <score_type>  (40) 
oracle

>  <origin>  (40) 
adg

>  <m_score__min__energy>  (40) 
-9.5199999999999996

>  <m_primary>  (40) 
energy

$$$$
40:0
     RDKit          3D

 48 50  0  0  0  0  0  0  0  0999 V2000
   55.9370   30.3780   43.6840 C   0  0  0  0  0  0  0  0  0  0  0  0
   56.3250   29.6970   44.8710 O   0  0  0  0  0  0  0  0  0  0  0  0
   57.5400   29.0130   44.9870 C   0  0  0  0  0  0  0  0  0  0  0  0
   57.8110   28.0720   44.1910 O   0  0  0  0  0  0  0  0  0  0  0  0
   58.5010   29.3910   46.0460 C   0  0  0  0  0  0  0  0  0  0  0  0
   58.4050   30.6420   46.6790 C   0  0  0  0  0  0  0  0  0  0  0  0
   59.2930   30.9900   47.7010 C   0  0  0  0  0  0  0  0  0  0  0  0
   60.2800   30.0870   48.1250 C   0  0  0  0  0  0  0  0  0  0  0  0
   61.2070   30.4320   49.2770 C   0  0  0  0  0  0  0  0  0  0  0  0
   62.3140   31.3660   48.9320 N   0  0  1  0  0  0  0  0  0  0  0  0
   62.5220   31.5320   47.4840 C   0  0  0  0  0  0  0  0  0  0  0  0
   61.9490   32.8850   47.0750 C   0  0  2  0  0  0  0  0  0  0  0  0
   62.8590   33.5830   46.2970 F   0  0  0  0  0  0  0  0  0  0  0  0
   61.6660   33.6430   48.3720 C   0  0  1  0  0  0  0  0  0  0  0  0
   60.2740   33.8610   48.5250 O   0  0  0  0  0  0  0  0  0  0  0  0
   59.8210   34.9300   47.7190 C   0  0  0  0  0  0  0  0  0  0  0  0
   59.0370   34.3840   46.5600 C   0  0  0  0  0  0  0  0  0  0  0  0
   57.7540   33.8480   46.7540 C   0  0  0  0  0  0  0  0  0  0  0  0
   57.0470   33.3090   45.6730 C   0  0  0  0  0  0  0  0  0  0  0  0
   57.6200   33.2940   44.3990 C   0  0  0  0  0  0  0  0  0  0  0  0
   58.9020   33.8150   44.2020 C   0  0  0  0  0  0  0  0  0  0  0  0
   59.6120   34.3540   45.2790 C   0  0  0  0  0  0  0  0  0  0  0  0
   62.1600   32.7220   49.4870 C   0  0  0  0  0  0  0  0  0  0  0  0
   60.4060   28.8550   47.4600 C   0  0  0  0  0  0  0  0  0  0  0  0
   59.5200   28.5060   46.4380 C   0  0  0  0  0  0  0  0  0  0  0  0
   55.4086   31.3055   43.9495 H   0  0  0  0  0  0  0  0  0  0  0  0
   56.8316   30.6222   43.0923 H   0  0  0  0  0  0  0  0  0  0  0  0
   55.2708   29.7329   43.0923 H   0  0  0  0  0  0  0  0  0  0  0  0
   57.6252   31.3527   46.3679 H   0  0  0  0  0  0  0  0  0  0  0  0
   59.2175   31.9791   48.1764 H   0  0  0  0  0  0  0  0  0  0  0  0
   60.6052   30.8945   50.0733 H   0  0  0  0  0  0  0  0  0  0  0  0
   61.6830   29.4888   49.5834 H   0  0  0  0  0  0  0  0  0  0  0  0
   63.1870   30.9470   49.3360 H   0  0  0  0  0  0  0  0  0  0  0  0
   62.0058   30.7282   46.9386 H   0  0  0  0  0  0  0  0  0  0  0  0
   63.5947   31.4845   47.2452 H   0  0  0  0  0  0  0  0  0  0  0  0
   61.0346   32.7637   46.4757 H   0  0  0  0  0  0  0  0  0  0  0  0
   62.1591   34.6262   48.3833 H   0  0  0  0  0  0  0  0  0  0  0  0
   59.1785   35.5934   48.3166 H   0  0  0  0  0  0  0  0  0  0  0  0
   60.6847   35.4981   47.3431 H   0  0  0  0  0  0  0  0  0  0  0  0
   57.3035   33.8517   47.7575 H   0  0  0  0  0  0  0  0  0  0  0  0
   56.0389   32.8967   45.8268 H   0  0  0  0  0  0  0  0  0  0  0  0
   57.0619   32.8719   43.5503 H   0  0  0  0  0  0  0  0  0  0  0  0
   59.3527   33.8009   43.1987 H   0  0  0  0  0  0  0  0  0  0  0  0
   60.6240   34.7558   45.1226 H   0  0  0  0  0  0  0  0  0  0  0  0
   61.4286   32.7069   50.3085 H   0  0  0  0  0  0  0  0  0  0  0  0
   63.1225   33.0830   49.8786 H   0  0  0  0  0  0  0  0  0  0  0  0
   61.2089   28.1600   47.7468 H   0  0  0  0  0  0  0  0  0  0  0  0
   59.6205   27.5320   45.9367 H   0  0  0  0  0  0  0  0  0  0  0  0
  1  2  1  0
  2  3  1  0
  3  4  2  0
  3  5  1  0
  5  6  2  0
  6  7  1  0
  7  8  2  0
  8  9  1  0
  9 10  1  0
 10 11  1  0
 11 12  1  0
 12 13  1  0
 12 14  1  0
 14 15  1  0
 15 16  1  0
 16 17  1  0
 17 18  2  0
 18 19  1  0
 19 20  2  0
 20 21  1  0
 21 22  2  0
 14 23  1  0
  8 24  1  0
 24 25  2  0
 25  5  1  0
 23 10  1  0
 22 17  1  0
  1 26  1  0
  1 27  1  0
  1 28  1  0
  6 29  1  0
  7 30  1  0
  9 31  1  0
  9 32  1  0
 10 33  1  1
 11 34  1  0
 11 35  1  0
 12 36  1  6
 14 37  1  6
 16 38  1  0
 16 39  1  0
 18 40  1  0
 19 41  1  0
 20 42  1  0
 21 43  1  0
 22 44  1  0
 23 45  1  0
 23 46  1  0
 24 47  1  0
 25 48  1  0
M  CHG  1  10   1
M  END
>  <UniqueID>  (41) 
41

>  <SMILES>  (41) 
COC(=O)c1ccc(C[N@@H+]2CC(OCc3ccccc3)[C@@H](F)C2)cc1

>  <Energy>  (41) 
55.9940813180734

>  <Genealogy>  (41) 
COC(=O)c1ccc(C[NH+]2CC(F)C(OCc3ccccc3)C2)cc1 (protonated)
COC(=O)c1ccc(C[N@@H+]2CC(OCc3ccccc3)[C@@H](F)C2)cc1 (chirality)
COC(=O)c1ccc(C[N@@H+]2CC(OCc3ccccc3)[C@@H](F)C2)cc1 (3D coordinates assigned)
COC(=O)c1ccc(C[N@@H+]2CC(OCc3ccccc3)[C@@H](F)C2)cc1 (nonaromatic ring conformer: 55.9940813180734 kcal/mol)

>  <smiles>  (41) 
COC(=O)c1ccc(CN2CC(F)C(OCc3ccccc3)C2)cc1

>  <score_type>  (41) 
oracle

>  <origin>  (41) 
adg

>  <m_score__min__energy>  (41) 
-5.9699999999999998

>  <m_primary>  (41) 
energy

$$$$
41:0
     RDKit          3D

 43 45  0  0  0  0  0  0  0  0999 V2000
   61.3210   27.3630   45.9920 H   0  0  0  0  0  0  0  0  0  0  0  0
   60.6020   27.9920   45.6650 O   0  0  0  0  0  0  0  0  0  0  0  0
   59.2270   27.7350   45.7080 C   0  0  0  0  0  0  0  0  0  0  0  0
   58.8240   26.5220   46.2810 C   0  0  0  0  0  0  0  0  0  0  0  0
   59.7900   25.6650   46.8020 O   0  0  0  0  0  0  0  0  0  0  0  0
   57.4660   26.1770   46.3590 C   0  0  0  0  0  0  0  0  0  0  0  0
   57.0610   24.9330   46.9500 N   0  0  0  0  0  0  0  0  0  0  0  0
   56.1470   24.8970   47.4540 H   0  0  0  0  0  0  0  0  0  0  0  0
   57.6120   23.6550   46.5080 C   0  0  0  0  0  0  0  0  0  0  0  0
   57.8746   23.0458   47.3855 H   0  0  0  0  0  0  0  0  0  0  0  0
   56.8635   23.1226   45.9028 H   0  0  0  0  0  0  0  0  0  0  0  0
   58.5130   23.8338   45.9028 H   0  0  0  0  0  0  0  0  0  0  0  0
   56.4940   27.0750   45.8970 C   0  0  0  0  0  0  0  0  0  0  0  0
   55.1470   26.7330   46.0020 O   0  0  0  0  0  0  0  0  0  0  0  0
   56.8750   28.3010   45.3210 C   0  0  0  0  0  0  0  0  0  0  0  0
   55.8970   29.1930   44.8470 C   0  0  0  0  0  0  0  0  0  0  0  0
   54.8323   28.9309   44.9352 H   0  0  0  0  0  0  0  0  0  0  0  0
   56.2630   30.4050   44.2670 C   0  0  0  0  0  0  0  0  0  0  0  0
   55.4854   31.0924   43.9027 H   0  0  0  0  0  0  0  0  0  0  0  0
   57.6110   30.7550   44.1440 C   0  0  0  0  0  0  0  0  0  0  0  0
   57.9630   32.0500   43.5240 C   0  0  0  0  0  0  0  0  0  0  0  0
   57.6120   32.2765   42.5064 H   0  0  0  0  0  0  0  0  0  0  0  0
   58.6800   32.9240   44.1620 N   0  0  0  0  0  0  0  0  0  0  0  0
   58.1110   34.0890   44.8410 C   0  0  0  0  0  0  0  0  0  0  0  0
   57.4718   34.6430   44.1378 H   0  0  0  0  0  0  0  0  0  0  0  0
   57.2320   33.6460   46.0260 C   0  0  0  0  0  0  0  0  0  0  0  0
   56.7920   34.5389   46.4941 H   0  0  0  0  0  0  0  0  0  0  0  0
   56.4534   32.9737   45.6364 H   0  0  0  0  0  0  0  0  0  0  0  0
   58.0370   32.8720   47.0910 C   0  0  0  0  0  0  0  0  0  0  0  0
   57.5645   33.0349   48.0709 H   0  0  0  0  0  0  0  0  0  0  0  0
   58.0298   31.8126   46.7950 H   0  0  0  0  0  0  0  0  0  0  0  0
   59.5140   33.3070   47.1830 C   0  0  0  0  0  0  0  0  0  0  0  0
   59.8582   33.1826   48.2203 H   0  0  0  0  0  0  0  0  0  0  0  0
   60.0996   32.6794   46.4951 H   0  0  0  0  0  0  0  0  0  0  0  0
   59.7010   34.7710   46.7700 C   0  0  0  0  0  0  0  0  0  0  0  0
   59.1050   35.4082   47.4399 H   0  0  0  0  0  0  0  0  0  0  0  0
   60.7720   35.0111   46.8425 H   0  0  0  0  0  0  0  0  0  0  0  0
   59.2530   35.0210   45.3150 C   0  0  0  0  0  0  0  0  0  0  0  0
   58.9070   36.0619   45.2332 H   0  0  0  0  0  0  0  0  0  0  0  0
   60.1219   34.8130   44.6733 H   0  0  0  0  0  0  0  0  0  0  0  0
   58.5990   29.8740   44.6160 C   0  0  0  0  0  0  0  0  0  0  0  0
   59.6598   30.1489   44.5206 H   0  0  0  0  0  0  0  0  0  0  0  0
   58.2510   28.6410   45.2110 C   0  0  0  0  0  0  0  0  0  0  0  0
  1  2  1  0
  2  3  1  0
  3  4  2  0
  4  5  1  0
  4  6  1  0
  6  7  1  0
  7  8  1  0
  7  9  1  0
  9 10  1  0
  9 11  1  0
  9 12  1  0
  6 13  2  0
 13 14  1  0
 13 15  1  0
 15 16  2  0
 16 17  1  0
 16 18  1  0
 18 19  1  0
 18 20  2  0
 20 21  1  0
 21 22  1  0
 21 23  2  0
 23 24  1  0
 24 25  1  0
 24 26  1  0
 26 27  1  0
 26 28  1  0
 26 29  1  0
 29 30  1  0
 29 31  1  0
 29 32  1  0
 32 33  1  0
 32 34  1  0
 32 35  1  0
 35 36  1  0
 35 37  1  0
 35 38  1  0
 38 39  1  0
 38 40  1  0
 20 41  1  0
 41 42  1  0
 41 43  2  0
 43  3  1  0
 43 15  1  0
 38 24  1  0
M  CHG  2   5  -1  14  -1
M  END
>  <UniqueID>  (42) 
42

>  <SMILES>  (42) 
CNc1c([O-])c(O)c2cc(/C=N/C3CCCCC3)ccc2c1[O-]

>  <Energy>  (42) 
56.56370621618347

>  <Genealogy>  (42) 
CNc1c([O-])c(O)c2cc(C=NC3CCCCC3)ccc2c1[O-] (protonated)
CNc1c([O-])c(O)c2cc(/C=N/C3CCCCC3)ccc2c1[O-] (cis-trans isomerization)
CNc1c([O-])c(O)c2cc(/C=N/C3CCCCC3)ccc2c1[O-] (3D coordinates assigned)
CNc1c([O-])c(O)c2cc(/C=N/C3CCCCC3)ccc2c1[O-] (nonaromatic ring conformer: 56.56370621618347 kcal/mol)

>  <smiles>  (42) 
CNc1c(O)c(O)c2cc(C=NC3CCCCC3)ccc2c1O

>  <score_type>  (42) 
oracle

>  <origin>  (42) 
adg

>  <m_score__min__energy>  (42) 
-12.98

>  <m_primary>  (42) 
energy

$$$$
42:0
     RDKit          3D

 35 36  0  0  0  0  0  0  0  0999 V2000
   56.9310   34.1820   45.2470 C   0  0  0  0  0  0  0  0  0  0  0  0
   58.2590   33.7110   45.7800 C   0  0  0  0  0  0  0  0  0  0  0  0
   59.2240   34.6600   46.1520 C   0  0  0  0  0  0  0  0  0  0  0  0
   60.4740   34.2540   46.6160 C   0  0  0  0  0  0  0  0  0  0  0  0
   60.7750   32.8960   46.7190 C   0  0  0  0  0  0  0  0  0  0  0  0
   59.8230   31.9350   46.3670 C   0  0  0  0  0  0  0  0  0  0  0  0
   60.2310   30.2340   46.5280 Cl  0  0  0  0  0  0  0  0  0  0  0  0
   58.5500   32.3320   45.9190 C   0  0  0  0  0  0  0  0  0  0  0  0
   57.5840   31.3350   45.5590 N   0  0  0  0  0  0  0  0  0  0  0  0
   57.2480   31.0480   44.1960 C   0  0  0  0  0  0  0  0  0  0  0  0
   57.6370   31.8100   43.2690 O   0  0  0  0  0  0  0  0  0  0  0  0
   56.4550   29.8230   43.8650 C   0  0  0  0  0  0  0  0  0  0  0  0
   56.1000   29.1220   45.0920 N   0  0  0  0  0  0  0  0  0  0  0  0
   57.0180   28.3120   45.8310 C   0  0  0  0  0  0  0  0  0  0  0  0
   57.7710   28.8510   46.6870 O   0  0  0  0  0  0  0  0  0  0  0  0
   57.0520   26.8380   45.6510 C   0  0  0  0  0  0  0  0  0  0  0  0
   56.6090   26.0220   46.7090 C   0  0  0  0  0  0  0  0  0  0  0  0
   56.5900   24.6330   46.5810 C   0  0  0  0  0  0  0  0  0  0  0  0
   57.0150   24.0360   45.3960 C   0  0  0  0  0  0  0  0  0  0  0  0
   57.4680   24.8240   44.3400 C   0  0  0  0  0  0  0  0  0  0  0  0
   57.4980   26.2200   44.4560 C   0  0  0  0  0  0  0  0  0  0  0  0
   58.1670   27.1210   43.0990 Cl  0  0  0  0  0  0  0  0  0  0  0  0
   56.2620   34.4193   46.0873 H   0  0  0  0  0  0  0  0  0  0  0  0
   57.0809   35.0818   44.6323 H   0  0  0  0  0  0  0  0  0  0  0  0
   56.4805   33.3888   44.6323 H   0  0  0  0  0  0  0  0  0  0  0  0
   58.9919   35.7326   46.0767 H   0  0  0  0  0  0  0  0  0  0  0  0
   61.2244   35.0059   46.9015 H   0  0  0  0  0  0  0  0  0  0  0  0
   61.7654   32.5801   47.0786 H   0  0  0  0  0  0  0  0  0  0  0  0
   57.0460   30.8620   46.3210 H   0  0  0  0  0  0  0  0  0  0  0  0
   55.5380   30.1140   43.3316 H   0  0  0  0  0  0  0  0  0  0  0  0
   57.0581   29.1596   43.2276 H   0  0  0  0  0  0  0  0  0  0  0  0
   56.2736   26.4854   47.6485 H   0  0  0  0  0  0  0  0  0  0  0  0
   56.2393   24.0087   47.4161 H   0  0  0  0  0  0  0  0  0  0  0  0
   56.9929   22.9410   45.2940 H   0  0  0  0  0  0  0  0  0  0  0  0
   57.8047   24.3465   43.4080 H   0  0  0  0  0  0  0  0  0  0  0  0
  1  2  1  0
  2  3  2  0
  3  4  1  0
  4  5  2  0
  5  6  1  0
  6  7  1  0
  6  8  2  0
  8  9  1  0
  9 10  1  0
 10 11  2  0
 10 12  1  0
 12 13  1  0
 13 14  1  0
 14 15  2  0
 14 16  1  0
 16 17  2  0
 17 18  1  0
 18 19  2  0
 19 20  1  0
 20 21  2  0
 21 22  1  0
  8  2  1  0
 21 16  1  0
  1 23  1  0
  1 24  1  0
  1 25  1  0
  3 26  1  0
  4 27  1  0
  5 28  1  0
  9 29  1  0
 12 30  1  0
 12 31  1  0
 17 32  1  0
 18 33  1  0
 19 34  1  0
 20 35  1  0
M  CHG  1  13  -1
M  END
>  <UniqueID>  (43) 
43

>  <SMILES>  (43) 
Cc1cccc(Cl)c1NC(=O)C[N-]C(=O)c1ccccc1Cl

>  <Energy>  (43) 
42.50698546246234

>  <Genealogy>  (43) 
Cc1cccc(Cl)c1NC(=O)C[N-]C(=O)c1ccccc1Cl (protonated)
Cc1cccc(Cl)c1NC(=O)C[N-]C(=O)c1ccccc1Cl (3D coordinates assigned)
Cc1cccc(Cl)c1NC(=O)C[N-]C(=O)c1ccccc1Cl (optimized conformer: 42.50698546246234 kcal/mol)

>  <smiles>  (43) 
Cc1cccc(Cl)c1NC(=O)CNC(=O)c1ccccc1Cl

>  <score_type>  (43) 
oracle

>  <origin>  (43) 
adg

>  <m_score__min__energy>  (43) 
-9.4399999999999995

>  <m_primary>  (43) 
energy

$$$$
43:0
     RDKit          3D

 36 37  0  0  0  0  0  0  0  0999 V2000
   59.1780   30.1120   47.9900 C   0  0  0  0  0  0  0  0  0  0  0  0
   59.4440   31.4490   47.6280 O   0  0  0  0  0  0  0  0  0  0  0  0
   60.7350   31.9450   47.4580 C   0  0  0  0  0  0  0  0  0  0  0  0
   61.8330   31.1080   47.4950 C   0  0  0  0  0  0  0  0  0  0  0  0
   63.0800   31.6340   47.3230 C   0  0  0  0  0  0  0  0  0  0  0  0
   63.2730   33.0020   47.1110 C   0  0  0  0  0  0  0  0  0  0  0  0
   62.1730   33.8550   47.0720 C   0  0  0  0  0  0  0  0  0  0  0  0
   60.9020   33.3150   47.2470 C   0  0  0  0  0  0  0  0  0  0  0  0
   59.6790   34.1650   47.2220 C   0  0  0  0  0  0  0  0  0  0  0  0
   58.9980   34.1220   45.9020 C   0  0  0  0  0  0  0  0  0  0  0  0
   59.1320   35.0730   45.0690 O   0  0  0  0  0  0  0  0  0  0  0  0
   58.1980   32.9740   45.6230 N   0  0  0  0  0  0  0  0  0  0  0  0
   57.4910   32.8050   44.3750 C   0  0  0  0  0  0  0  0  0  0  0  0
   57.2040   31.3600   44.2410 C   0  0  0  0  0  0  0  0  0  0  0  0
   56.7420   30.6300   43.1730 C   0  0  0  0  0  0  0  0  0  0  0  0
   56.6340   29.3250   43.5220 N   0  0  0  0  0  0  0  0  0  0  0  0
   57.0320   29.2280   44.8190 C   0  0  0  0  0  0  0  0  0  0  0  0
   57.0800   27.9700   45.6290 C   0  0  0  0  0  0  0  0  0  0  0  0
   57.3770   30.4790   45.2450 N   0  0  0  0  0  0  0  0  0  0  0  0
   59.1608   30.0255   49.0865 H   0  0  0  0  0  0  0  0  0  0  0  0
   58.2020   29.8091   47.5829 H   0  0  0  0  0  0  0  0  0  0  0  0
   59.9638   29.4586   47.5829 H   0  0  0  0  0  0  0  0  0  0  0  0
   61.7034   30.0284   47.6614 H   0  0  0  0  0  0  0  0  0  0  0  0
   63.9536   30.9662   47.3518 H   0  0  0  0  0  0  0  0  0  0  0  0
   64.2884   33.4027   46.9757 H   0  0  0  0  0  0  0  0  0  0  0  0
   62.3058   34.9343   46.9062 H   0  0  0  0  0  0  0  0  0  0  0  0
   58.9815   33.8064   47.9933 H   0  0  0  0  0  0  0  0  0  0  0  0
   59.9838   35.2045   47.4133 H   0  0  0  0  0  0  0  0  0  0  0  0
   58.1130   32.2120   46.3580 H   0  0  0  0  0  0  0  0  0  0  0  0
   56.5522   33.3781   44.3906 H   0  0  0  0  0  0  0  0  0  0  0  0
   58.0909   33.1693   43.5280 H   0  0  0  0  0  0  0  0  0  0  0  0
   56.4966   31.0427   42.1833 H   0  0  0  0  0  0  0  0  0  0  0  0
   56.3160   28.5380   42.9310 H   0  0  0  0  0  0  0  0  0  0  0  0
   57.0704   28.2226   46.6996 H   0  0  0  0  0  0  0  0  0  0  0  0
   56.2050   27.3472   45.3913 H   0  0  0  0  0  0  0  0  0  0  0  0
   57.9999   27.4157   45.3913 H   0  0  0  0  0  0  0  0  0  0  0  0
  1  2  1  0
  2  3  1  0
  3  4  2  0
  4  5  1  0
  5  6  2  0
  6  7  1  0
  7  8  2  0
  8  9  1  0
  9 10  1  0
 10 11  2  0
 10 12  1  0
 12 13  1  0
 13 14  1  0
 14 15  2  0
 15 16  1  0
 16 17  1  0
 17 18  1  0
 17 19  2  0
  8  3  1  0
 19 14  1  0
  1 20  1  0
  1 21  1  0
  1 22  1  0
  4 23  1  0
  5 24  1  0
  6 25  1  0
  7 26  1  0
  9 27  1  0
  9 28  1  0
 12 29  1  0
 13 30  1  0
 13 31  1  0
 15 32  1  0
 16 33  1  0
 18 34  1  0
 18 35  1  0
 18 36  1  0
M  END
>  <smiles>  (44) 
COc1ccccc1CC(=O)NCc1c[nH]c(C)n1

>  <score_type>  (44) 
oracle

>  <origin>  (44) 
adg

>  <m_score__min__energy>  (44) 
-5.96

>  <m_primary>  (44) 
energy

$$$$
44:0
     RDKit          3D

 57 60  0  0  0  0  0  0  0  0999 V2000
   63.9780   32.4890   49.7680 C   0  0  0  0  0  0  0  0  0  0  0  0
   62.8800   31.6820   49.0680 C   0  0  0  0  0  0  0  0  0  0  0  0
   62.8560   31.7930   47.5210 C   0  0  1  0  0  0  0  0  0  0  0  0
   61.8010   30.8880   46.8530 C   0  0  0  0  0  0  0  0  0  0  0  0
   60.4200   31.2850   47.1830 N   0  0  0  0  0  0  0  0  0  0  0  0
   59.6750   30.5350   48.1590 C   0  0  0  0  0  0  0  0  0  0  0  0
   59.3350   31.0950   49.2360 O   0  0  0  0  0  0  0  0  0  0  0  0
   59.2930   29.1260   47.9250 C   0  0  0  0  0  0  0  0  0  0  0  0
   60.0110   28.0800   48.5260 C   0  0  0  0  0  0  0  0  0  0  0  0
   59.6560   26.7500   48.2880 C   0  0  0  0  0  0  0  0  0  0  0  0
   58.5700   26.4450   47.4600 C   0  0  0  0  0  0  0  0  0  0  0  0
   58.2120   25.0750   47.2600 N   0  0  0  0  0  0  0  0  0  0  0  0
   56.6380   24.5560   46.7460 S   0  0  0  0  0  0  0  0  0  0  0  0
   55.9150   23.8330   47.8490 O   0  0  0  0  0  0  0  0  0  0  0  0
   55.8320   25.7690   46.3760 O   0  0  0  0  0  0  0  0  0  0  0  0
   56.8160   23.4970   45.3420 C   0  0  0  0  0  0  0  0  0  0  0  0
   57.9880   22.7410   45.1840 C   0  0  0  0  0  0  0  0  0  0  0  0
   58.1220   21.8600   44.1090 C   0  0  0  0  0  0  0  0  0  0  0  0
   57.0840   21.7190   43.1870 C   0  0  0  0  0  0  0  0  0  0  0  0
   55.9120   22.4640   43.3330 C   0  0  0  0  0  0  0  0  0  0  0  0
   55.7670   23.3630   44.4110 C   0  0  0  0  0  0  0  0  0  0  0  0
   54.6030   24.1290   44.5810 O   0  0  0  0  0  0  0  0  0  0  0  0
   53.4830   23.7360   45.3670 C   0  0  0  0  0  0  0  0  0  0  0  0
   57.8730   27.4860   46.8260 C   0  0  0  0  0  0  0  0  0  0  0  0
   58.2340   28.8160   47.0550 C   0  0  0  0  0  0  0  0  0  0  0  0
   59.7670   32.3950   46.5390 C   0  0  0  0  0  0  0  0  0  0  0  0
   58.5240   32.1940   45.9170 C   0  0  0  0  0  0  0  0  0  0  0  0
   57.8110   33.2770   45.3960 C   0  0  0  0  0  0  0  0  0  0  0  0
   58.3230   34.5710   45.5090 C   0  0  0  0  0  0  0  0  0  0  0  0
   59.5540   34.7830   46.1360 C   0  0  0  0  0  0  0  0  0  0  0  0
   60.2920   33.7040   46.6360 C   0  0  0  0  0  0  0  0  0  0  0  0
   61.5530   33.9650   47.2670 N   0  0  0  0  0  0  0  0  0  0  0  0
   62.7440   33.2140   47.0150 C   0  0  0  0  0  0  0  0  0  0  0  0
   63.6780   33.7490   46.3640 O   0  0  0  0  0  0  0  0  0  0  0  0
   63.8590   32.4015   50.8580 H   0  0  0  0  0  0  0  0  0  0  0  0
   64.9636   32.0988   49.4743 H   0  0  0  0  0  0  0  0  0  0  0  0
   63.8998   33.5462   49.4743 H   0  0  0  0  0  0  0  0  0  0  0  0
   63.0181   30.6226   49.3301 H   0  0  0  0  0  0  0  0  0  0  0  0
   61.9255   32.1030   49.4168 H   0  0  0  0  0  0  0  0  0  0  0  0
   63.8443   31.4190   47.2154 H   0  0  0  0  0  0  0  0  0  0  0  0
   61.9314   30.9415   45.7621 H   0  0  0  0  0  0  0  0  0  0  0  0
   61.9524   29.8662   47.2311 H   0  0  0  0  0  0  0  0  0  0  0  0
   60.8586   28.3091   49.1886 H   0  0  0  0  0  0  0  0  0  0  0  0
   60.2334   25.9380   48.7541 H   0  0  0  0  0  0  0  0  0  0  0  0
   58.8064   22.8432   45.9119 H   0  0  0  0  0  0  0  0  0  0  0  0
   59.0467   21.2765   43.9888 H   0  0  0  0  0  0  0  0  0  0  0  0
   57.1892   21.0201   42.3441 H   0  0  0  0  0  0  0  0  0  0  0  0
   55.0969   22.3494   42.6033 H   0  0  0  0  0  0  0  0  0  0  0  0
   53.7348   23.8244   46.4341 H   0  0  0  0  0  0  0  0  0  0  0  0
   52.6270   24.3875   45.1371 H   0  0  0  0  0  0  0  0  0  0  0  0
   53.2218   22.6925   45.1371 H   0  0  0  0  0  0  0  0  0  0  0  0
   57.0397   27.2535   46.1466 H   0  0  0  0  0  0  0  0  0  0  0  0
   57.6858   29.6256   46.5511 H   0  0  0  0  0  0  0  0  0  0  0  0
   58.1093   31.1781   45.8395 H   0  0  0  0  0  0  0  0  0  0  0  0
   56.8454   33.1099   44.8963 H   0  0  0  0  0  0  0  0  0  0  0  0
   57.7576   35.4235   45.1046 H   0  0  0  0  0  0  0  0  0  0  0  0
   59.9459   35.8058   46.2373 H   0  0  0  0  0  0  0  0  0  0  0  0
  1  2  1  0
  2  3  1  0
  3  4  1  0
  4  5  1  0
  5  6  1  0
  6  7  2  0
  6  8  1  0
  8  9  2  0
  9 10  1  0
 10 11  2  0
 11 12  1  0
 12 13  1  0
 13 14  2  0
 13 15  2  0
 13 16  1  0
 16 17  2  0
 17 18  1  0
 18 19  2  0
 19 20  1  0
 20 21  2  0
 21 22  1  0
 22 23  1  0
 11 24  1  0
 24 25  2  0
  5 26  1  0
 26 27  2  0
 27 28  1  0
 28 29  2  0
 29 30  1  0
 30 31  2  0
 31 32  1  0
 32 33  1  0
 33 34  2  0
 33  3  1  0
 25  8  1  0
 31 26  1  0
 21 16  1  0
  1 35  1  0
  1 36  1  0
  1 37  1  0
  2 38  1  0
  2 39  1  0
  3 40  1  6
  4 41  1  0
  4 42  1  0
  9 43  1  0
 10 44  1  0
 17 45  1  0
 18 46  1  0
 19 47  1  0
 20 48  1  0
 23 49  1  0
 23 50  1  0
 23 51  1  0
 24 52  1  0
 25 53  1  0
 27 54  1  0
 28 55  1  0
 29 56  1  0
 30 57  1  0
M  CHG  2  12  -1  32  -1
M  END
>  <UniqueID>  (45) 
44

>  <SMILES>  (45) 
CC[C@H]1CN(C(=O)c2ccc([N-]S(=O)(=O)c3ccccc3OC)cc2)c2ccccc2[N-]C1=O

>  <Energy>  (45) 
85.00186901513548

>  <Genealogy>  (45) 
CCC1CN(C(=O)c2ccc([N-]S(=O)(=O)c3ccccc3OC)cc2)c2ccccc2[N-]C1=O (protonated)
CC[C@H]1CN(C(=O)c2ccc([N-]S(=O)(=O)c3ccccc3OC)cc2)c2ccccc2[N-]C1=O (chirality)
CC[C@H]1CN(C(=O)c2ccc([N-]S(=O)(=O)c3ccccc3OC)cc2)c2ccccc2[N-]C1=O (3D coordinates assigned)
CC[C@H]1CN(C(=O)c2ccc([N-]S(=O)(=O)c3ccccc3OC)cc2)c2ccccc2[N-]C1=O (nonaromatic ring conformer: 85.00186901513548 kcal/mol)

>  <smiles>  (45) 
CCC1CN(C(=O)c2ccc(NS(=O)(=O)c3ccccc3OC)cc2)c2ccccc2NC1=O

>  <score_type>  (45) 
oracle

>  <origin>  (45) 
adg

>  <m_score__min__energy>  (45) 
-10.33

>  <m_primary>  (45) 
energy

$$$$
45:0
     RDKit          3D

 26 27  0  0  0  0  0  0  0  0999 V2000
   59.9813   32.5913   47.0915 H   0  0  0  0  0  0  0  0  0  0  0  0
   59.1320   32.6870   46.3990 C   0  0  0  0  0  0  0  0  0  0  0  0
   58.4210   31.6130   45.9650 N   0  0  0  0  0  0  0  0  0  0  0  0
   57.4300   31.9850   45.1240 C   0  0  0  0  0  0  0  0  0  0  0  0
   56.5960   31.1610   44.5610 N   0  0  0  0  0  0  0  0  0  0  0  0
   56.4770   29.7560   44.8360 C   0  0  0  0  0  0  0  0  0  0  0  0
   55.3470   29.1930   44.8480 O   0  0  0  0  0  0  0  0  0  0  0  0
   57.6580   29.0010   45.1250 N   0  0  0  0  0  0  0  0  0  0  0  0
   58.5330   29.5260   45.3530 H   0  0  0  0  0  0  0  0  0  0  0  0
   57.6340   27.5860   45.3620 C   0  0  0  0  0  0  0  0  0  0  0  0
   57.4380   27.1250   46.6720 C   0  0  0  0  0  0  0  0  0  0  0  0
   57.3205   27.8473   47.4933 H   0  0  0  0  0  0  0  0  0  0  0  0
   57.3910   25.7560   46.9410 C   0  0  0  0  0  0  0  0  0  0  0  0
   57.2285   25.4035   47.9702 H   0  0  0  0  0  0  0  0  0  0  0  0
   57.5500   24.8340   45.9050 C   0  0  0  0  0  0  0  0  0  0  0  0
   57.4995   23.7558   46.1170 H   0  0  0  0  0  0  0  0  0  0  0  0
   57.7730   25.2780   44.6000 C   0  0  0  0  0  0  0  0  0  0  0  0
   57.8948   24.5461   43.7879 H   0  0  0  0  0  0  0  0  0  0  0  0
   57.8430   26.6530   44.3160 C   0  0  0  0  0  0  0  0  0  0  0  0
   58.1290   27.0910   42.9050 C   0  0  0  0  0  0  0  0  0  0  0  0
   58.7303   28.0119   42.9217 H   0  0  0  0  0  0  0  0  0  0  0  0
   58.6849   26.2996   42.3809 H   0  0  0  0  0  0  0  0  0  0  0  0
   57.1808   27.2817   42.3809 H   0  0  0  0  0  0  0  0  0  0  0  0
   57.3940   33.6450   44.8860 S   0  0  0  0  0  0  0  0  0  0  0  0
   58.7080   33.9160   45.9040 C   0  0  0  0  0  0  0  0  0  0  0  0
   59.1534   34.8944   46.1369 H   0  0  0  0  0  0  0  0  0  0  0  0
  1  2  1  0
  2  3  1  0
  3  4  1  0
  4  5  2  0
  5  6  1  0
  6  7  2  0
  6  8  1  0
  8  9  1  0
  8 10  1  0
 10 11  2  0
 11 12  1  0
 11 13  1  0
 13 14  1  0
 13 15  2  0
 15 16  1  0
 15 17  1  0
 17 18  1  0
 17 19  2  0
 19 20  1  0
 20 21  1  0
 20 22  1  0
 20 23  1  0
  4 24  1  0
 24 25  1  0
 25 26  1  0
 25  2  2  0
 19 10  1  0
M  CHG  1   3  -1
M  END
>  <UniqueID>  (46) 
45

>  <SMILES>  (46) 
Cc1ccccc1NC(=O)/N=c1\[n-]ccs1

>  <Energy>  (46) 
63.835783437555996

>  <Genealogy>  (46) 
Cc1ccccc1NC(=O)N=c1[n-]ccs1 (protonated)
Cc1ccccc1NC(=O)/N=c1\[n-]ccs1 (cis-trans isomerization)
Cc1ccccc1NC(=O)/N=c1\[n-]ccs1 (3D coordinates assigned)
Cc1ccccc1NC(=O)/N=c1\[n-]ccs1 (optimized conformer: 63.835783437555996 kcal/mol)

>  <smiles>  (46) 
Cc1ccccc1NC(=O)N=c1[nH]ccs1

>  <score_type>  (46) 
oracle

>  <origin>  (46) 
adg

>  <m_score__min__energy>  (46) 
-8.4000000000000004

>  <m_primary>  (46) 
energy

$$$$
46:0
     RDKit          3D

 31 33  0  0  0  0  0  0  0  0999 V2000
   62.0980   28.9770   44.5130 O   0  0  0  0  0  0  0  0  0  0  0  0
   61.1560   28.2280   44.8820 C   0  0  0  0  0  0  0  0  0  0  0  0
   59.7670   28.7060   44.8420 C   0  0  0  0  0  0  0  0  0  0  0  0
   59.3340   29.9760   44.4760 C   0  0  0  0  0  0  0  0  0  0  0  0
   57.9850   30.0540   44.5670 N   0  0  0  0  0  0  0  0  0  0  0  0
   57.1820   31.2550   44.3320 C   0  0  0  0  0  0  0  0  0  0  0  0
   57.8080   32.4400   45.0170 C   0  0  0  0  0  0  0  0  0  0  0  0
   57.8210   32.5340   46.4190 C   0  0  0  0  0  0  0  0  0  0  0  0
   58.4310   33.6260   47.0470 C   0  0  0  0  0  0  0  0  0  0  0  0
   59.0320   34.6280   46.2810 C   0  0  0  0  0  0  0  0  0  0  0  0
   59.0260   34.5400   44.8850 C   0  0  0  0  0  0  0  0  0  0  0  0
   58.4180   33.4510   44.2540 C   0  0  0  0  0  0  0  0  0  0  0  0
   57.5630   28.8470   45.0010 C   0  0  0  0  0  0  0  0  0  0  0  0
   56.2540   28.4350   45.2670 C   0  0  0  0  0  0  0  0  0  0  0  0
   56.0540   27.1170   45.7220 C   0  0  0  0  0  0  0  0  0  0  0  0
   54.7690   26.6700   45.9970 O   0  0  0  0  0  0  0  0  0  0  0  0
   57.1530   26.2490   45.8990 C   0  0  0  0  0  0  0  0  0  0  0  0
   58.4610   26.6870   45.6250 C   0  0  0  0  0  0  0  0  0  0  0  0
   58.6290   27.9980   45.1740 C   0  0  0  0  0  0  0  0  0  0  0  0
   61.3738   27.2097   45.2365 H   0  0  0  0  0  0  0  0  0  0  0  0
   59.9921   30.7983   44.1585 H   0  0  0  0  0  0  0  0  0  0  0  0
   57.1251   31.4484   43.2506 H   0  0  0  0  0  0  0  0  0  0  0  0
   56.1721   31.0972   44.7385 H   0  0  0  0  0  0  0  0  0  0  0  0
   57.3499   31.7463   47.0253 H   0  0  0  0  0  0  0  0  0  0  0  0
   58.4372   33.6954   48.1448 H   0  0  0  0  0  0  0  0  0  0  0  0
   59.5100   35.4863   46.7758 H   0  0  0  0  0  0  0  0  0  0  0  0
   59.5004   35.3289   44.2829 H   0  0  0  0  0  0  0  0  0  0  0  0
   58.4168   33.3848   43.1560 H   0  0  0  0  0  0  0  0  0  0  0  0
   55.4050   29.1199   45.1252 H   0  0  0  0  0  0  0  0  0  0  0  0
   56.9850   25.2216   46.2542 H   0  0  0  0  0  0  0  0  0  0  0  0
   59.3239   26.0186   45.7615 H   0  0  0  0  0  0  0  0  0  0  0  0
  1  2  2  0
  2  3  1  0
  3  4  2  0
  4  5  1  0
  5  6  1  0
  6  7  1  0
  7  8  2  0
  8  9  1  0
  9 10  2  0
 10 11  1  0
 11 12  2  0
  5 13  1  0
 13 14  2  0
 14 15  1  0
 15 16  1  0
 15 17  2  0
 17 18  1  0
 18 19  2  0
 19  3  1  0
 12  7  1  0
 19 13  1  0
  2 20  1  0
  4 21  1  0
  6 22  1  0
  6 23  1  0
  8 24  1  0
  9 25  1  0
 10 26  1  0
 11 27  1  0
 12 28  1  0
 14 29  1  0
 17 30  1  0
 18 31  1  0
M  CHG  1  16  -1
M  END
>  <UniqueID>  (47) 
46

>  <SMILES>  (47) 
O=Cc1cn(Cc2ccccc2)c2cc([O-])ccc12

>  <Energy>  (47) 
65.44313085289158

>  <Genealogy>  (47) 
O=Cc1cn(Cc2ccccc2)c2cc([O-])ccc12 (protonated)
O=Cc1cn(Cc2ccccc2)c2cc([O-])ccc12 (3D coordinates assigned)
O=Cc1cn(Cc2ccccc2)c2cc([O-])ccc12 (optimized conformer: 65.44313085289158 kcal/mol)

>  <smiles>  (47) 
O=Cc1cn(Cc2ccccc2)c2cc(O)ccc12

>  <score_type>  (47) 
oracle

>  <origin>  (47) 
adg

>  <m_score__min__energy>  (47) 
-9.9499999999999993

>  <m_primary>  (47) 
energy

$$$$
47:0
     RDKit          3D

 49 51  0  0  0  0  0  0  0  0999 V2000
   53.0580   22.5310   46.0980 C   0  0  0  0  0  0  0  0  0  0  0  0
   53.3160   22.9670   44.7320 N   0  0  0  0  0  0  0  0  0  0  0  0
   54.5600   23.4840   44.2450 C   0  0  0  0  0  0  0  0  0  0  0  0
   55.0560   22.9710   43.2070 O   0  0  0  0  0  0  0  0  0  0  0  0
   55.2950   24.5690   44.9300 C   0  0  0  0  0  0  0  0  0  0  0  0
   54.8560   25.0460   46.0090 O   0  0  0  0  0  0  0  0  0  0  0  0
   56.4830   25.1160   44.3440 N   0  0  0  0  0  0  0  0  0  0  0  0
   57.4030   25.9190   45.0930 C   0  0  0  0  0  0  0  0  0  0  0  0
   57.7630   27.1770   44.5930 C   0  0  0  0  0  0  0  0  0  0  0  0
   58.6130   28.0150   45.3200 C   0  0  0  0  0  0  0  0  0  0  0  0
   58.8960   29.3240   44.8260 N   0  0  0  0  0  0  0  0  0  0  0  0
   57.6600   30.5070   44.5330 S   0  0  0  0  0  0  0  0  0  0  0  0
   56.3690   30.0340   45.1480 O   0  0  0  0  0  0  0  0  0  0  0  0
   57.4610   30.6560   43.0470 O   0  0  0  0  0  0  0  0  0  0  0  0
   58.0870   32.0700   45.2310 C   0  0  0  0  0  0  0  0  0  0  0  0
   58.2410   32.2150   46.6190 C   0  0  0  0  0  0  0  0  0  0  0  0
   58.5190   33.4710   47.1660 C   0  0  0  0  0  0  0  0  0  0  0  0
   58.6430   34.5880   46.3330 C   0  0  0  0  0  0  0  0  0  0  0  0
   58.4920   34.4490   44.9510 C   0  0  0  0  0  0  0  0  0  0  0  0
   58.2170   33.1940   44.3990 C   0  0  0  0  0  0  0  0  0  0  0  0
   59.1750   27.5590   46.5180 C   0  0  0  0  0  0  0  0  0  0  0  0
   58.8430   26.2990   47.0160 C   0  0  0  0  0  0  0  0  0  0  0  0
   57.9520   25.4690   46.3190 C   0  0  0  0  0  0  0  0  0  0  0  0
   57.6690   24.1530   46.8330 N   0  0  0  0  0  0  0  0  0  0  0  0
   57.0610   24.0300   48.1680 C   0  0  0  0  0  0  0  0  0  0  0  0
   56.4980   22.6300   48.4180 C   0  0  0  0  0  0  0  0  0  0  0  0
   57.3830   21.6420   47.9350 O   0  0  0  0  0  0  0  0  0  0  0  0
   57.3860   21.6860   46.5250 C   0  0  0  0  0  0  0  0  0  0  0  0
   58.0200   22.9840   46.0070 C   0  0  0  0  0  0  0  0  0  0  0  0
   53.4883   23.2581   46.8024 H   0  0  0  0  0  0  0  0  0  0  0  0
   51.9725   22.4603   46.2615 H   0  0  0  0  0  0  0  0  0  0  0  0
   53.5184   21.5455   46.2615 H   0  0  0  0  0  0  0  0  0  0  0  0
   56.6580   24.9930   43.3220 H   0  0  0  0  0  0  0  0  0  0  0  0
   57.3731   27.5084   43.6192 H   0  0  0  0  0  0  0  0  0  0  0  0
   58.1427   31.3390   47.2770 H   0  0  0  0  0  0  0  0  0  0  0  0
   58.6405   33.5813   48.2537 H   0  0  0  0  0  0  0  0  0  0  0  0
   58.8594   35.5757   46.7661 H   0  0  0  0  0  0  0  0  0  0  0  0
   58.5895   35.3277   44.2965 H   0  0  0  0  0  0  0  0  0  0  0  0
   58.1022   33.0868   43.3103 H   0  0  0  0  0  0  0  0  0  0  0  0
   59.8815   28.1970   47.0692 H   0  0  0  0  0  0  0  0  0  0  0  0
   59.2833   25.9533   47.9629 H   0  0  0  0  0  0  0  0  0  0  0  0
   57.8270   24.2449   48.9276 H   0  0  0  0  0  0  0  0  0  0  0  0
   56.2276   24.7454   48.2274 H   0  0  0  0  0  0  0  0  0  0  0  0
   56.3527   22.4871   49.4990 H   0  0  0  0  0  0  0  0  0  0  0  0
   55.5389   22.5350   47.8878 H   0  0  0  0  0  0  0  0  0  0  0  0
   57.9597   20.8295   46.1414 H   0  0  0  0  0  0  0  0  0  0  0  0
   56.3439   21.6458   46.1750 H   0  0  0  0  0  0  0  0  0  0  0  0
   59.1138   22.8671   46.0080 H   0  0  0  0  0  0  0  0  0  0  0  0
   57.6330   23.1632   44.9930 H   0  0  0  0  0  0  0  0  0  0  0  0
  1  2  1  0
  2  3  1  0
  3  4  2  0
  3  5  1  0
  5  6  2  0
  5  7  1  0
  7  8  1  0
  8  9  2  0
  9 10  1  0
 10 11  1  0
 11 12  1  0
 12 13  2  0
 12 14  2  0
 12 15  1  0
 15 16  2  0
 16 17  1  0
 17 18  2  0
 18 19  1  0
 19 20  2  0
 10 21  2  0
 21 22  1  0
 22 23  2  0
 23 24  1  0
 24 25  1  0
 25 26  1  0
 26 27  1  0
 27 28  1  0
 28 29  1  0
 23  8  1  0
 29 24  1  0
 20 15  1  0
  1 30  1  0
  1 31  1  0
  1 32  1  0
  7 33  1  0
  9 34  1  0
 16 35  1  0
 17 36  1  0
 18 37  1  0
 19 38  1  0
 20 39  1  0
 21 40  1  0
 22 41  1  0
 25 42  1  0
 25 43  1  0
 26 44  1  0
 26 45  1  0
 28 46  1  0
 28 47  1  0
 29 48  1  0
 29 49  1  0
M  CHG  2   2  -1  11  -1
M  END
>  <UniqueID>  (48) 
47

>  <SMILES>  (48) 
C[N-]C(=O)C(=O)Nc1cc([N-]S(=O)(=O)c2ccccc2)ccc1N1CCOCC1

>  <Energy>  (48) 
70.80940188382974

>  <Genealogy>  (48) 
C[N-]C(=O)C(=O)Nc1cc([N-]S(=O)(=O)c2ccccc2)ccc1N1CCOCC1 (protonated)
C[N-]C(=O)C(=O)Nc1cc([N-]S(=O)(=O)c2ccccc2)ccc1N1CCOCC1 (3D coordinates assigned)
C[N-]C(=O)C(=O)Nc1cc([N-]S(=O)(=O)c2ccccc2)ccc1N1CCOCC1 (nonaromatic ring conformer: 70.80940188382974 kcal/mol)

>  <smiles>  (48) 
CNC(=O)C(=O)Nc1cc(NS(=O)(=O)c2ccccc2)ccc1N1CCOCC1

>  <score_type>  (48) 
oracle

>  <origin>  (48) 
adg

>  <m_score__min__energy>  (48) 
-11.41

>  <m_primary>  (48) 
energy

$$$$
48:0
     RDKit          3D

 51 54  0  0  0  0  0  0  0  0999 V2000
   54.3230   19.8070   48.5740 C   0  0  0  0  0  0  0  0  0  0  0  0
   55.6050   19.8390   47.9570 O   0  0  0  0  0  0  0  0  0  0  0  0
   56.0320   20.8300   47.0590 C   0  0  0  0  0  0  0  0  0  0  0  0
   55.7440   20.7630   45.6820 C   0  0  0  0  0  0  0  0  0  0  0  0
   56.1850   21.7690   44.8170 C   0  0  0  0  0  0  0  0  0  0  0  0
   55.8960   21.6920   43.4910 N   0  0  0  0  0  0  0  0  0  0  0  0
   56.2970   22.6480   42.6140 C   0  0  0  0  0  0  0  0  0  0  0  0
   57.0310   23.7470   43.0620 C   0  0  0  0  0  0  0  0  0  0  0  0
   57.3660   23.8560   44.4230 C   0  0  0  0  0  0  0  0  0  0  0  0
   58.0860   24.9610   44.9070 O   0  0  0  0  0  0  0  0  0  0  0  0
   57.7280   26.3060   44.7320 C   0  0  0  0  0  0  0  0  0  0  0  0
   57.0130   26.9480   45.7480 C   0  0  0  0  0  0  0  0  0  0  0  0
   56.6490   28.2910   45.6180 C   0  0  0  0  0  0  0  0  0  0  0  0
   56.9920   29.0090   44.4600 C   0  0  0  0  0  0  0  0  0  0  0  0
   56.6610   30.3960   44.3100 N   0  0  0  0  0  0  0  0  0  0  0  0
   57.3700   31.4950   44.8930 C   0  0  0  0  0  0  0  0  0  0  0  0
   57.0890   32.6630   44.5160 O   0  0  0  0  0  0  0  0  0  0  0  0
   58.3610   31.2750   45.9140 N   0  0  0  0  0  0  0  0  0  0  0  0
   59.1260   32.3240   46.5320 C   0  0  0  0  0  0  0  0  0  0  0  0
   58.4790   33.5050   46.9230 C   0  0  0  0  0  0  0  0  0  0  0  0
   59.2040   34.5500   47.5050 C   0  0  0  0  0  0  0  0  0  0  0  0
   60.5840   34.4290   47.6860 C   0  0  0  0  0  0  0  0  0  0  0  0
   61.2440   33.2660   47.2760 C   0  0  0  0  0  0  0  0  0  0  0  0
   63.1350   33.1140   47.4960 Br  0  0  0  0  0  0  0  0  0  0  0  0
   60.5200   32.2180   46.6940 C   0  0  0  0  0  0  0  0  0  0  0  0
   57.7470   28.3800   43.4630 C   0  0  0  0  0  0  0  0  0  0  0  0
   58.1120   27.0370   43.5930 C   0  0  0  0  0  0  0  0  0  0  0  0
   56.9250   22.8620   45.3180 C   0  0  0  0  0  0  0  0  0  0  0  0
   57.2130   22.9260   46.6910 C   0  0  0  0  0  0  0  0  0  0  0  0
   56.7670   21.9140   47.5640 C   0  0  0  0  0  0  0  0  0  0  0  0
   57.0370   21.9480   48.9420 O   0  0  0  0  0  0  0  0  0  0  0  0
   57.4610   20.8260   49.7110 C   0  0  0  0  0  0  0  0  0  0  0  0
   54.4422   19.8100   49.6675 H   0  0  0  0  0  0  0  0  0  0  0  0
   53.7455   20.6910   48.2657 H   0  0  0  0  0  0  0  0  0  0  0  0
   53.7904   18.8953   48.2657 H   0  0  0  0  0  0  0  0  0  0  0  0
   55.1685   19.9139   45.2846 H   0  0  0  0  0  0  0  0  0  0  0  0
   56.0426   22.5559   41.5478 H   0  0  0  0  0  0  0  0  0  0  0  0
   57.3466   24.5259   42.3522 H   0  0  0  0  0  0  0  0  0  0  0  0
   56.7352   26.3921   46.6557 H   0  0  0  0  0  0  0  0  0  0  0  0
   56.0916   28.7880   46.4256 H   0  0  0  0  0  0  0  0  0  0  0  0
   58.5920   30.2940   46.1830 H   0  0  0  0  0  0  0  0  0  0  0  0
   57.3946   33.6103   46.7711 H   0  0  0  0  0  0  0  0  0  0  0  0
   58.6870   35.4682   47.8206 H   0  0  0  0  0  0  0  0  0  0  0  0
   61.1516   35.2485   48.1510 H   0  0  0  0  0  0  0  0  0  0  0  0
   61.0427   31.3087   46.3623 H   0  0  0  0  0  0  0  0  0  0  0  0
   58.0550   28.9462   42.5716 H   0  0  0  0  0  0  0  0  0  0  0  0
   58.7014   26.5501   42.8021 H   0  0  0  0  0  0  0  0  0  0  0  0
   57.7915   23.7731   47.0881 H   0  0  0  0  0  0  0  0  0  0  0  0
   57.3722   21.0609   50.7820 H   0  0  0  0  0  0  0  0  0  0  0  0
   56.8289   19.9580   49.4724 H   0  0  0  0  0  0  0  0  0  0  0  0
   58.5092   20.5929   49.4724 H   0  0  0  0  0  0  0  0  0  0  0  0
  1  2  1  0
  2  3  1  0
  3  4  2  0
  4  5  1  0
  5  6  2  0
  6  7  1  0
  7  8  2  0
  8  9  1  0
  9 10  1  0
 10 11  1  0
 11 12  2  0
 12 13  1  0
 13 14  2  0
 14 15  1  0
 15 16  1  0
 16 17  2  0
 16 18  1  0
 18 19  1  0
 19 20  2  0
 20 21  1  0
 21 22  2  0
 22 23  1  0
 23 24  1  0
 23 25  2  0
 14 26  1  0
 26 27  2  0
  9 28  2  0
 28 29  1  0
 29 30  2  0
 30 31  1  0
 31 32  1  0
 30  3  1  0
 28  5  1  0
 27 11  1  0
 25 19  1  0
  1 33  1  0
  1 34  1  0
  1 35  1  0
  4 36  1  0
  7 37  1  0
  8 38  1  0
 12 39  1  0
 13 40  1  0
 18 41  1  0
 20 42  1  0
 21 43  1  0
 22 44  1  0
 25 45  1  0
 26 46  1  0
 27 47  1  0
 29 48  1  0
 32 49  1  0
 32 50  1  0
 32 51  1  0
M  CHG  1  15  -1
M  END
>  <UniqueID>  (49) 
48

>  <SMILES>  (49) 
COc1cc2nccc(Oc3ccc([N-]C(=O)Nc4cccc(Br)c4)cc3)c2cc1OC

>  <Energy>  (49) 
73.27000145126539

>  <Genealogy>  (49) 
COc1cc2nccc(Oc3ccc([N-]C(=O)Nc4cccc(Br)c4)cc3)c2cc1OC (protonated)
COc1cc2nccc(Oc3ccc([N-]C(=O)Nc4cccc(Br)c4)cc3)c2cc1OC (3D coordinates assigned)
COc1cc2nccc(Oc3ccc([N-]C(=O)Nc4cccc(Br)c4)cc3)c2cc1OC (optimized conformer: 73.27000145126539 kcal/mol)

>  <smiles>  (49) 
COc1cc2nccc(Oc3ccc(NC(=O)Nc4cccc(Br)c4)cc3)c2cc1OC

>  <score_type>  (49) 
oracle

>  <origin>  (49) 
adg

>  <m_score__min__energy>  (49) 
-10.26

>  <m_primary>  (49) 
energy

$$$$
49:0
     RDKit          3D

 34 34  0  0  0  0  0  0  0  0999 V2000
   54.6850   26.3350   45.9890 N   0  0  0  0  0  0  0  0  0  0  0  0
   55.5390   24.8310   46.0430 S   0  0  0  0  0  0  0  0  0  0  0  0
   54.7910   23.8790   46.9330 O   0  0  0  0  0  0  0  0  0  0  0  0
   55.6200   24.2430   44.6610 O   0  0  0  0  0  0  0  0  0  0  0  0
   57.0940   25.0590   46.6750 O   0  0  0  0  0  0  0  0  0  0  0  0
   57.5740   26.3090   46.2410 C   0  0  0  0  0  0  0  0  0  0  0  0
   58.2140   26.1420   44.8610 C   0  0  0  0  0  0  0  0  0  0  0  0
   58.7870   27.4550   44.3040 C   0  0  0  0  0  0  0  0  0  0  0  0
   57.7880   28.2030   43.4100 C   0  0  0  0  0  0  0  0  0  0  0  0
   57.7350   29.6160   43.7780 N   0  0  0  0  0  0  0  0  0  0  0  0
   56.6880   30.1600   44.5970 C   0  0  0  0  0  0  0  0  0  0  0  0
   55.8370   29.3970   45.1280 O   0  0  0  0  0  0  0  0  0  0  0  0
   56.6220   31.5650   44.8710 N   0  0  0  0  0  0  0  0  0  0  0  0
   57.6810   32.3610   45.4200 C   0  0  0  0  0  0  0  0  0  0  0  0
   58.7460   31.7150   46.0630 C   0  0  0  0  0  0  0  0  0  0  0  0
   59.7860   32.4590   46.6280 C   0  0  0  0  0  0  0  0  0  0  0  0
   59.7570   33.8550   46.5720 C   0  0  0  0  0  0  0  0  0  0  0  0
   58.6840   34.5080   45.9610 C   0  0  0  0  0  0  0  0  0  0  0  0
   57.6410   33.7690   45.3930 C   0  0  0  0  0  0  0  0  0  0  0  0
   56.5790   34.4270   44.8640 F   0  0  0  0  0  0  0  0  0  0  0  0
   55.2370   26.9770   45.3770 H   0  0  0  0  0  0  0  0  0  0  0  0
   56.7397   27.0231   46.1772 H   0  0  0  0  0  0  0  0  0  0  0  0
   58.3198   26.6900   46.9542 H   0  0  0  0  0  0  0  0  0  0  0  0
   59.0298   25.4083   44.9390 H   0  0  0  0  0  0  0  0  0  0  0  0
   57.4262   25.8067   44.1704 H   0  0  0  0  0  0  0  0  0  0  0  0
   59.0607   28.1058   45.1475 H   0  0  0  0  0  0  0  0  0  0  0  0
   59.6614   27.2014   43.6867 H   0  0  0  0  0  0  0  0  0  0  0  0
   58.1034   28.1134   42.3600 H   0  0  0  0  0  0  0  0  0  0  0  0
   56.7893   27.7615   43.5434 H   0  0  0  0  0  0  0  0  0  0  0  0
   58.4860   30.2460   43.4190 H   0  0  0  0  0  0  0  0  0  0  0  0
   58.7635   30.6168   46.1233 H   0  0  0  0  0  0  0  0  0  0  0  0
   60.6272   31.9455   47.1167 H   0  0  0  0  0  0  0  0  0  0  0  0
   60.5796   34.4399   47.0093 H   0  0  0  0  0  0  0  0  0  0  0  0
   58.6591   35.6072   45.9264 H   0  0  0  0  0  0  0  0  0  0  0  0
  1  2  1  0
  2  3  2  0
  2  4  2  0
  2  5  1  0
  5  6  1  0
  6  7  1  0
  7  8  1  0
  8  9  1  0
  9 10  1  0
 10 11  1  0
 11 12  2  0
 11 13  1  0
 13 14  1  0
 14 15  2  0
 15 16  1  0
 16 17  2  0
 17 18  1  0
 18 19  2  0
 19 20  1  0
 19 14  1  0
  1 21  1  0
  6 22  1  0
  6 23  1  0
  7 24  1  0
  7 25  1  0
  8 26  1  0
  8 27  1  0
  9 28  1  0
  9 29  1  0
 10 30  1  0
 15 31  1  0
 16 32  1  0
 17 33  1  0
 18 34  1  0
M  CHG  2   1  -1  13  -1
M  END
>  <UniqueID>  (50) 
49

>  <SMILES>  (50) 
[NH-]S(=O)(=O)OCCCCNC(=O)[N-]c1ccccc1F

>  <Energy>  (50) 
29.202797610479887

>  <Genealogy>  (50) 
[NH-]S(=O)(=O)OCCCCNC(=O)[N-]c1ccccc1F (protonated)
[NH-]S(=O)(=O)OCCCCNC(=O)[N-]c1ccccc1F (3D coordinates assigned)
[NH-]S(=O)(=O)OCCCCNC(=O)[N-]c1ccccc1F (optimized conformer: 29.202797610479887 kcal/mol)

>  <smiles>  (50) 
NS(=O)(=O)OCCCCNC(=O)Nc1ccccc1F

>  <score_type>  (50) 
oracle

>  <origin>  (50) 
adg

>  <m_score__min__energy>  (50) 
-11.73

>  <m_primary>  (50) 
energy

$$$$
50:0
     RDKit          3D

 38 39  0  0  0  0  0  0  0  0999 V2000
   64.0800   32.8080   48.8620 C   0  0  0  0  0  0  0  0  0  0  0  0
   63.8740   32.2380   47.5290 N   0  0  0  0  0  0  0  0  0  0  0  0
   62.5010   32.4010   47.1250 C   0  0  0  0  0  0  0  0  0  0  0  0
   61.6150   31.3100   47.1540 C   0  0  0  0  0  0  0  0  0  0  0  0
   60.2770   31.4750   46.7880 C   0  0  0  0  0  0  0  0  0  0  0  0
   59.8020   32.7340   46.3980 C   0  0  0  0  0  0  0  0  0  0  0  0
   58.1150   32.9190   45.9250 S   0  0  0  0  0  0  0  0  0  0  0  0
   57.3650   33.5810   47.0470 O   0  0  0  0  0  0  0  0  0  0  0  0
   58.0060   33.7860   44.7010 O   0  0  0  0  0  0  0  0  0  0  0  0
   57.4120   31.3590   45.6150 N   0  0  0  0  0  0  0  0  0  0  0  0
   56.9890   31.2330   44.2170 C   0  0  0  0  0  0  0  0  0  0  0  0
   57.0180   29.7690   43.7610 C   0  0  0  0  0  0  0  0  0  0  0  0
   57.9100   28.9330   44.6420 C   0  0  0  0  0  0  0  0  0  0  0  0
   57.3510   28.0300   45.5610 C   0  0  0  0  0  0  0  0  0  0  0  0
   58.1800   27.2330   46.3580 C   0  0  0  0  0  0  0  0  0  0  0  0
   59.5690   27.3270   46.2360 C   0  0  0  0  0  0  0  0  0  0  0  0
   60.1320   28.2150   45.3150 C   0  0  0  0  0  0  0  0  0  0  0  0
   59.3070   29.0140   44.5180 C   0  0  0  0  0  0  0  0  0  0  0  0
   60.6770   33.8280   46.3750 C   0  0  0  0  0  0  0  0  0  0  0  0
   62.0160   33.6650   46.7410 C   0  0  0  0  0  0  0  0  0  0  0  0
   63.8107   32.0628   49.6250 H   0  0  0  0  0  0  0  0  0  0  0  0
   65.1367   33.0894   48.9812 H   0  0  0  0  0  0  0  0  0  0  0  0
   63.4474   33.6999   48.9812 H   0  0  0  0  0  0  0  0  0  0  0  0
   64.5100   32.7170   46.8480 H   0  0  0  0  0  0  0  0  0  0  0  0
   64.1260   31.2220   47.5460 H   0  0  0  0  0  0  0  0  0  0  0  0
   61.9777   30.3198   47.4670 H   0  0  0  0  0  0  0  0  0  0  0  0
   59.5937   30.6131   46.8061 H   0  0  0  0  0  0  0  0  0  0  0  0
   55.9646   31.6207   44.1153 H   0  0  0  0  0  0  0  0  0  0  0  0
   57.6845   31.8085   43.5884 H   0  0  0  0  0  0  0  0  0  0  0  0
   55.9965   29.3627   43.7986 H   0  0  0  0  0  0  0  0  0  0  0  0
   57.4159   29.7349   42.7360 H   0  0  0  0  0  0  0  0  0  0  0  0
   56.2580   27.9491   45.6545 H   0  0  0  0  0  0  0  0  0  0  0  0
   57.7381   26.5318   47.0812 H   0  0  0  0  0  0  0  0  0  0  0  0
   60.2196   26.7018   46.8651 H   0  0  0  0  0  0  0  0  0  0  0  0
   61.2254   28.2852   45.2172 H   0  0  0  0  0  0  0  0  0  0  0  0
   59.7533   29.7086   43.7912 H   0  0  0  0  0  0  0  0  0  0  0  0
   60.3091   34.8181   46.0680 H   0  0  0  0  0  0  0  0  0  0  0  0
   62.6951   34.5303   46.7288 H   0  0  0  0  0  0  0  0  0  0  0  0
  1  2  1  0
  2  3  1  0
  3  4  2  0
  4  5  1  0
  5  6  2  0
  6  7  1  0
  7  8  2  0
  7  9  2  0
  7 10  1  0
 10 11  1  0
 11 12  1  0
 12 13  1  0
 13 14  2  0
 14 15  1  0
 15 16  2  0
 16 17  1  0
 17 18  2  0
  6 19  1  0
 19 20  2  0
 20  3  1  0
 18 13  1  0
  1 21  1  0
  1 22  1  0
  1 23  1  0
  2 24  1  0
  2 25  1  0
  4 26  1  0
  5 27  1  0
 11 28  1  0
 11 29  1  0
 12 30  1  0
 12 31  1  0
 14 32  1  0
 15 33  1  0
 16 34  1  0
 17 35  1  0
 18 36  1  0
 19 37  1  0
 20 38  1  0
M  CHG  2   2   1  10  -1
M  END
>  <UniqueID>  (51) 
50

>  <SMILES>  (51) 
C[NH2+]c1ccc(S(=O)(=O)[N-]CCc2ccccc2)cc1

>  <Energy>  (51) 
35.30764789630509

>  <Genealogy>  (51) 
C[NH2+]c1ccc(S(=O)(=O)[N-]CCc2ccccc2)cc1 (protonated)
C[NH2+]c1ccc(S(=O)(=O)[N-]CCc2ccccc2)cc1 (3D coordinates assigned)
C[NH2+]c1ccc(S(=O)(=O)[N-]CCc2ccccc2)cc1 (optimized conformer: 35.30764789630509 kcal/mol)

>  <smiles>  (51) 
CNc1ccc(S(=O)(=O)NCCc2ccccc2)cc1

>  <score_type>  (51) 
oracle

>  <origin>  (51) 
adg

>  <m_score__min__energy>  (51) 
-7.5800000000000001

>  <m_primary>  (51) 
energy

$$$$
51:0
     RDKit          3D

 50 52  0  0  0  0  0  0  0  0999 V2000
   58.5020   32.1040   50.0500 C   0  0  0  0  0  0  0  0  0  0  0  0
   58.7330   33.1040   49.0620 O   0  0  0  0  0  0  0  0  0  0  0  0
   59.9200   33.2340   48.3220 C   0  0  0  0  0  0  0  0  0  0  0  0
   61.1520   32.7570   48.8090 C   0  0  0  0  0  0  0  0  0  0  0  0
   62.3130   32.8830   48.0410 C   0  0  0  0  0  0  0  0  0  0  0  0
   62.2600   33.4830   46.7840 C   0  0  0  0  0  0  0  0  0  0  0  0
   61.0470   33.9600   46.2890 C   0  0  0  0  0  0  0  0  0  0  0  0
   59.8710   33.8480   47.0530 C   0  0  0  0  0  0  0  0  0  0  0  0
   58.5600   34.3140   46.4670 C   0  0  0  0  0  0  0  0  0  0  0  0
   57.5160   33.1920   46.4470 C   0  0  0  0  0  0  0  0  0  0  0  0
   58.1580   31.8800   46.5450 N   0  0  0  0  0  0  0  0  0  0  0  0
   57.7750   30.7710   45.7090 C   0  0  0  0  0  0  0  0  0  0  0  0
   56.8270   30.9120   44.8870 O   0  0  0  0  0  0  0  0  0  0  0  0
   58.4620   29.4590   45.8020 C   0  0  0  0  0  0  0  0  0  0  0  0
   59.8440   29.3730   45.5400 C   0  0  0  0  0  0  0  0  0  0  0  0
   60.5130   28.1520   45.6410 C   0  0  0  0  0  0  0  0  0  0  0  0
   59.8160   26.9990   46.0070 C   0  0  0  0  0  0  0  0  0  0  0  0
   58.4440   27.0640   46.2730 C   0  0  0  0  0  0  0  0  0  0  0  0
   57.5500   25.6140   46.7190 S   0  0  0  0  0  0  0  0  0  0  0  0
   56.1340   25.7480   46.2330 O   0  0  0  0  0  0  0  0  0  0  0  0
   57.5370   25.4280   48.2110 O   0  0  0  0  0  0  0  0  0  0  0  0
   58.2790   24.2230   45.9780 N   0  0  0  0  0  0  0  0  0  0  0  0
   57.7100   23.4660   44.9000 C   0  0  0  0  0  0  0  0  0  0  0  0
   56.7570   24.0150   44.0230 C   0  0  0  0  0  0  0  0  0  0  0  0
   56.2140   23.2370   42.9970 C   0  0  0  0  0  0  0  0  0  0  0  0
   56.6200   21.9100   42.8320 C   0  0  0  0  0  0  0  0  0  0  0  0
   57.5720   21.3610   43.6930 C   0  0  0  0  0  0  0  0  0  0  0  0
   58.1160   22.1340   44.7230 C   0  0  0  0  0  0  0  0  0  0  0  0
   59.0300   21.5830   45.5590 F   0  0  0  0  0  0  0  0  0  0  0  0
   57.7720   28.2900   46.1790 C   0  0  0  0  0  0  0  0  0  0  0  0
   58.6044   32.5474   51.0514 H   0  0  0  0  0  0  0  0  0  0  0  0
   57.4865   31.6984   49.9307 H   0  0  0  0  0  0  0  0  0  0  0  0
   59.2367   31.2941   49.9307 H   0  0  0  0  0  0  0  0  0  0  0  0
   61.2011   32.2822   49.8000 H   0  0  0  0  0  0  0  0  0  0  0  0
   63.2712   32.5076   48.4296 H   0  0  0  0  0  0  0  0  0  0  0  0
   63.1757   33.5802   46.1822 H   0  0  0  0  0  0  0  0  0  0  0  0
   61.0092   34.4273   45.2939 H   0  0  0  0  0  0  0  0  0  0  0  0
   58.1754   35.1478   47.0727 H   0  0  0  0  0  0  0  0  0  0  0  0
   58.7421   34.6308   45.4295 H   0  0  0  0  0  0  0  0  0  0  0  0
   56.8308   33.3222   47.2976 H   0  0  0  0  0  0  0  0  0  0  0  0
   56.9631   33.2429   45.4974 H   0  0  0  0  0  0  0  0  0  0  0  0
   58.7870   31.7230   47.3630 H   0  0  0  0  0  0  0  0  0  0  0  0
   60.4011   30.2770   45.2530 H   0  0  0  0  0  0  0  0  0  0  0  0
   61.5916   28.0982   45.4318 H   0  0  0  0  0  0  0  0  0  0  0  0
   60.3461   26.0384   46.0863 H   0  0  0  0  0  0  0  0  0  0  0  0
   56.4380   25.0606   44.1453 H   0  0  0  0  0  0  0  0  0  0  0  0
   55.4652   23.6702   42.3176 H   0  0  0  0  0  0  0  0  0  0  0  0
   56.1900   21.2989   42.0248 H   0  0  0  0  0  0  0  0  0  0  0  0
   57.8948   20.3178   43.5606 H   0  0  0  0  0  0  0  0  0  0  0  0
   56.6959   28.3401   46.4016 H   0  0  0  0  0  0  0  0  0  0  0  0
  1  2  1  0
  2  3  1  0
  3  4  2  0
  4  5  1  0
  5  6  2  0
  6  7  1  0
  7  8  2  0
  8  9  1  0
  9 10  1  0
 10 11  1  0
 11 12  1  0
 12 13  2  0
 12 14  1  0
 14 15  2  0
 15 16  1  0
 16 17  2  0
 17 18  1  0
 18 19  1  0
 19 20  2  0
 19 21  2  0
 19 22  1  0
 22 23  1  0
 23 24  2  0
 24 25  1  0
 25 26  2  0
 26 27  1  0
 27 28  2  0
 28 29  1  0
 18 30  2  0
  8  3  1  0
 30 14  1  0
 28 23  1  0
  1 31  1  0
  1 32  1  0
  1 33  1  0
  4 34  1  0
  5 35  1  0
  6 36  1  0
  7 37  1  0
  9 38  1  0
  9 39  1  0
 10 40  1  0
 10 41  1  0
 11 42  1  0
 15 43  1  0
 16 44  1  0
 17 45  1  0
 24 46  1  0
 25 47  1  0
 26 48  1  0
 27 49  1  0
 30 50  1  0
M  CHG  1  22  -1
M  END
>  <UniqueID>  (52) 
51

>  <SMILES>  (52) 
COc1ccccc1CCNC(=O)c1cccc(S(=O)(=O)[N-]c2ccccc2F)c1

>  <Energy>  (52) 
52.72559186312703

>  <Genealogy>  (52) 
COc1ccccc1CCNC(=O)c1cccc(S(=O)(=O)[N-]c2ccccc2F)c1 (protonated)
COc1ccccc1CCNC(=O)c1cccc(S(=O)(=O)[N-]c2ccccc2F)c1 (3D coordinates assigned)
COc1ccccc1CCNC(=O)c1cccc(S(=O)(=O)[N-]c2ccccc2F)c1 (optimized conformer: 52.72559186312703 kcal/mol)

>  <smiles>  (52) 
COc1ccccc1CCNC(=O)c1cccc(S(=O)(=O)Nc2ccccc2F)c1

>  <score_type>  (52) 
oracle

>  <origin>  (52) 
adg

>  <m_score__min__energy>  (52) 
-10.380000000000001

>  <m_primary>  (52) 
energy

$$$$
52:0
     RDKit          3D

 36 38  0  0  0  0  0  0  0  0999 V2000
   55.6370   29.9350   44.8580 O   0  0  0  0  0  0  0  0  0  0  0  0
   56.3210   29.7520   43.8630 C   0  0  0  0  0  0  0  0  0  0  0  0
   57.1720   30.8560   43.3130 C   0  0  0  0  0  0  0  0  0  0  0  0
   57.7300   31.6920   44.4300 C   0  0  0  0  0  0  0  0  0  0  0  0
   57.4040   33.0140   44.6660 C   0  0  0  0  0  0  0  0  0  0  0  0
   58.0680   33.3800   45.8210 C   0  0  0  0  0  0  0  0  0  0  0  0
   58.7640   32.2680   46.2490 C   0  0  0  0  0  0  0  0  0  0  0  0
   58.5480   31.2390   45.4060 N   0  0  0  0  0  0  0  0  0  0  0  0
   59.1160   29.9270   45.5180 C   0  0  0  0  0  0  0  0  0  0  0  0
   59.8210   29.4700   44.5800 O   0  0  0  0  0  0  0  0  0  0  0  0
   58.8750   29.1090   46.6680 N   0  0  0  0  0  0  0  0  0  0  0  0
   59.4480   27.7830   46.8570 C   0  0  0  0  0  0  0  0  0  0  0  0
   58.4300   26.7460   46.4880 C   0  0  0  0  0  0  0  0  0  0  0  0
   58.8240   25.4010   46.2940 C   0  0  0  0  0  0  0  0  0  0  0  0
   57.8690   24.4180   45.9830 C   0  0  0  0  0  0  0  0  0  0  0  0
   56.5320   24.8010   45.8800 C   0  0  0  0  0  0  0  0  0  0  0  0
   56.1470   26.0940   46.0810 C   0  0  0  0  0  0  0  0  0  0  0  0
   57.0660   27.0950   46.3910 C   0  0  0  0  0  0  0  0  0  0  0  0
   54.7860   26.2420   45.9390 O   0  0  0  0  0  0  0  0  0  0  0  0
   54.1840   24.9860   45.6220 C   0  0  0  0  0  0  0  0  0  0  0  0
   55.3450   23.9610   45.5720 C   0  0  0  0  0  0  0  0  0  0  0  0
   56.3124   28.7701   43.3671 H   0  0  0  0  0  0  0  0  0  0  0  0
   58.0016   30.4213   42.7361 H   0  0  0  0  0  0  0  0  0  0  0  0
   56.5541   31.4937   42.6638 H   0  0  0  0  0  0  0  0  0  0  0  0
   56.7459   33.6493   44.0550 H   0  0  0  0  0  0  0  0  0  0  0  0
   58.0461   34.3672   46.3058 H   0  0  0  0  0  0  0  0  0  0  0  0
   59.4006   32.2275   47.1452 H   0  0  0  0  0  0  0  0  0  0  0  0
   60.3351   27.6713   46.2163 H   0  0  0  0  0  0  0  0  0  0  0  0
   59.7400   27.6544   47.9097 H   0  0  0  0  0  0  0  0  0  0  0  0
   59.8842   25.1231   46.3872 H   0  0  0  0  0  0  0  0  0  0  0  0
   58.1689   23.3716   45.8246 H   0  0  0  0  0  0  0  0  0  0  0  0
   56.7363   28.1314   46.5560 H   0  0  0  0  0  0  0  0  0  0  0  0
   53.4568   24.7034   46.3975 H   0  0  0  0  0  0  0  0  0  0  0  0
   53.6399   25.0278   44.6669 H   0  0  0  0  0  0  0  0  0  0  0  0
   55.2106   23.1716   46.3262 H   0  0  0  0  0  0  0  0  0  0  0  0
   55.4207   23.4320   44.6105 H   0  0  0  0  0  0  0  0  0  0  0  0
  1  2  2  0
  2  3  1  0
  3  4  1  0
  4  5  2  0
  5  6  1  0
  6  7  2  0
  7  8  1  0
  8  9  1  0
  9 10  2  0
  9 11  1  0
 11 12  1  0
 12 13  1  0
 13 14  2  0
 14 15  1  0
 15 16  2  0
 16 17  1  0
 17 18  2  0
 17 19  1  0
 19 20  1  0
 20 21  1  0
  8  4  1  0
 18 13  1  0
 21 16  1  0
  2 22  1  0
  3 23  1  0
  3 24  1  0
  5 25  1  0
  6 26  1  0
  7 27  1  0
 12 28  1  0
 12 29  1  0
 14 30  1  0
 15 31  1  0
 18 32  1  0
 20 33  1  0
 20 34  1  0
 21 35  1  0
 21 36  1  0
M  CHG  1  11  -1
M  END
>  <UniqueID>  (53) 
52

>  <SMILES>  (53) 
O=CCc1cccn1C(=O)[N-]Cc1ccc2c(c1)OCC2

>  <Energy>  (53) 
79.18032006393017

>  <Genealogy>  (53) 
O=CCc1cccn1C(=O)[N-]Cc1ccc2c(c1)OCC2 (protonated)
O=CCc1cccn1C(=O)[N-]Cc1ccc2c(c1)OCC2 (3D coordinates assigned)
O=CCc1cccn1C(=O)[N-]Cc1ccc2c(c1)OCC2 (nonaromatic ring conformer: 79.18032006393017 kcal/mol)

>  <smiles>  (53) 
O=CCc1cccn1C(=O)NCc1ccc2c(c1)OCC2

>  <score_type>  (53) 
oracle

>  <origin>  (53) 
adg

>  <m_score__min__energy>  (53) 
-8.8800000000000008

>  <m_primary>  (53) 
energy

$$$$
53:0
     RDKit          3D

 60 63  0  0  1  0  0  0  0  0999 V2000
   59.1580   30.1090   44.8120 C   0  0  0  0  0  0  0  0  0  0  0  0
   58.8360   29.1630   45.9100 C   0  0  0  0  0  0  0  0  0  0  0  0
   57.6750   28.3940   45.6630 C   0  0  0  0  0  0  0  0  0  0  0  0
   57.2710   27.4250   46.5510 C   0  0  0  0  0  0  0  0  0  0  0  0
   56.2250   26.7150   46.3490 N   0  0  0  0  0  0  0  0  0  0  0  0
   56.3120   25.5100   45.5990 C   0  0  0  0  0  0  0  0  0  0  0  0
   57.3850   25.1930   44.7920 C   0  0  0  0  0  0  0  0  0  0  0  0
   57.3700   23.9800   44.0990 C   0  0  0  0  0  0  0  0  0  0  0  0
   56.3170   23.0940   44.1960 C   0  0  0  0  0  0  0  0  0  0  0  0
   56.3140   21.8310   43.4660 C   0  0  0  0  0  0  0  0  0  0  0  0
   56.2840   21.8100   42.2100 O   0  0  0  0  0  0  0  0  0  0  0  0
   56.3450   20.6340   44.1650 O   0  0  0  0  0  0  0  0  0  0  0  0
   55.2500   23.4240   45.0060 C   0  0  0  0  0  0  0  0  0  0  0  0
   55.2450   24.6160   45.7000 C   0  0  0  0  0  0  0  0  0  0  0  0
   58.0470   27.2730   47.6380 N   0  0  0  0  0  0  0  0  0  0  0  0
   59.1540   28.0150   47.8640 C   0  0  0  0  0  0  0  0  0  0  0  0
   59.7620   27.7370   48.9300 O   0  0  0  0  0  0  0  0  0  0  0  0
   59.5810   28.9870   47.0030 N   0  0  0  0  0  0  0  0  0  0  0  0
   60.7960   29.6980   47.3290 C   0  0  0  0  0  0  0  0  0  0  0  0
   60.6090   30.7780   48.3090 C   0  0  0  0  0  0  0  0  0  0  0  0
   60.4120   30.3990   49.6520 C   0  0  0  0  0  0  0  0  0  0  0  0
   60.1430   31.2910   50.6510 C   0  0  0  0  0  0  0  0  0  0  0  0
   59.9500   30.8520   51.9980 N   0  0  0  0  0  0  0  0  0  0  0  0
   59.0140   29.4730   52.4080 S   0  0  0  0  0  0  0  0  0  0  0  0
   59.8940   28.0200   52.1020 N   0  0  0  0  0  0  0  0  0  0  0  0
   58.7250   29.5380   53.8840 O   0  0  0  0  0  0  0  0  0  0  0  0
   57.7280   29.4360   51.6310 O   0  0  0  0  0  0  0  0  0  0  0  0
   60.0480   32.6370   50.3960 C   0  0  0  0  0  0  0  0  0  0  0  0
   60.2380   33.0380   49.0970 C   0  0  0  0  0  0  0  0  0  0  0  0
   60.5190   32.1170   48.0670 C   0  0  0  0  0  0  0  0  0  0  0  0
   60.6880   32.7150   46.8300 O   0  0  0  0  0  0  0  0  0  0  0  0
   59.5930   33.2850   46.2110 C   0  0  0  0  0  0  0  0  0  0  0  0
   58.3410   32.6930   46.3550 C   0  0  0  0  0  0  0  0  0  0  0  0
   57.2040   33.2040   45.7730 C   0  0  0  0  0  0  0  0  0  0  0  0
   57.2640   34.3590   45.0000 C   0  0  0  0  0  0  0  0  0  0  0  0
   58.5030   34.9400   44.8630 C   0  0  0  0  0  0  0  0  0  0  0  0
   59.6350   34.4280   45.4450 C   0  0  0  0  0  0  0  0  0  0  0  0
   59.4847   31.0687   45.2389 H   0  0  0  0  0  0  0  0  0  0  0  0
   59.9642   29.6902   44.1918 H   0  0  0  0  0  0  0  0  0  0  0  0
   58.2637   30.2690   44.1918 H   0  0  0  0  0  0  0  0  0  0  0  0
   57.0884   28.5732   44.7499 H   0  0  0  0  0  0  0  0  0  0  0  0
   58.2366   25.8825   44.6959 H   0  0  0  0  0  0  0  0  0  0  0  0
   58.2246   23.7233   43.4558 H   0  0  0  0  0  0  0  0  0  0  0  0
   57.0320   19.9060   43.9890 H   0  0  0  0  0  0  0  0  0  0  0  0
   54.3991   22.7331   45.0988 H   0  0  0  0  0  0  0  0  0  0  0  0
   54.3876   24.8656   46.3424 H   0  0  0  0  0  0  0  0  0  0  0  0
   57.7360   26.5270   48.3170 H   0  0  0  0  0  0  0  0  0  0  0  0
   61.5189   28.9782   47.7405 H   0  0  0  0  0  0  0  0  0  0  0  0
   61.1505   30.1677   46.3996 H   0  0  0  0  0  0  0  0  0  0  0  0
   60.4782   29.3314   49.9087 H   0  0  0  0  0  0  0  0  0  0  0  0
   60.4320   31.4500   52.7280 H   0  0  0  0  0  0  0  0  0  0  0  0
   59.3540   27.2340   52.5140 H   0  0  0  0  0  0  0  0  0  0  0  0
   59.9330   27.9090   51.0620 H   0  0  0  0  0  0  0  0  0  0  0  0
   59.8298   33.3603   51.1955 H   0  0  0  0  0  0  0  0  0  0  0  0
   60.1691   34.1083   48.8527 H   0  0  0  0  0  0  0  0  0  0  0  0
   58.2575   31.7780   46.9597 H   0  0  0  0  0  0  0  0  0  0  0  0
   56.2399   32.6953   45.9200 H   0  0  0  0  0  0  0  0  0  0  0  0
   56.3685   34.7848   44.5239 H   0  0  0  0  0  0  0  0  0  0  0  0
   58.5903   35.8559   44.2600 H   0  0  0  0  0  0  0  0  0  0  0  0
   60.5963   34.9416   45.2964 H   0  0  0  0  0  0  0  0  0  0  0  0
  1  2  1  0
  2  3  2  0
  3  4  1  0
  4  5  2  0
  5  6  1  0
  6  7  2  0
  7  8  1  0
  8  9  2  0
  9 10  1  0
 10 11  2  0
 10 12  1  0
  9 13  1  0
 13 14  2  0
  4 15  1  0
 15 16  1  0
 16 17  2  0
 16 18  1  0
 18 19  1  0
 19 20  1  0
 20 21  2  0
 21 22  1  0
 22 23  1  0
 23 24  1  0
 24 25  1  0
 24 26  2  0
 24 27  2  0
 22 28  2  0
 28 29  1  0
 29 30  2  0
 30 31  1  0
 31 32  1  0
 32 33  2  0
 33 34  1  0
 34 35  2  0
 35 36  1  0
 36 37  2  0
 18  2  1  0
 30 20  1  0
 37 32  1  0
 14  6  1  0
  1 38  1  0
  1 39  1  0
  1 40  1  0
  3 41  1  0
  7 42  1  0
  8 43  1  0
 12 44  1  0
 13 45  1  0
 14 46  1  0
 15 47  1  0
 19 48  1  0
 19 49  1  0
 21 50  1  0
 23 51  1  0
 25 52  1  0
 25 53  1  0
 28 54  1  0
 29 55  1  0
 33 56  1  0
 34 57  1  0
 35 58  1  0
 36 59  1  0
 37 60  1  0
M  END
>  <smiles>  (54) 
Cc1cc(=Nc2ccc(C(=O)O)cc2)[nH]c(=O)n1Cc1cc(NS(N)(=O)=O)ccc1Oc1ccccc1

>  <score_type>  (54) 
oracle

>  <origin>  (54) 
adg

>  <m_score__min__energy>  (54) 
-11.09

>  <m_primary>  (54) 
energy

$$$$
54:0
     RDKit          3D

 28 29  0  0  0  0  0  0  0  0999 V2000
   58.1410   27.1170   42.9860 C   0  0  0  0  0  0  0  0  0  0  0  0
   58.0430   27.1590   44.4770 C   0  0  0  0  0  0  0  0  0  0  0  0
   58.9140   26.1720   45.5210 S   0  0  0  0  0  0  0  0  0  0  0  0
   58.3630   26.8700   46.9480 C   0  0  0  0  0  0  0  0  0  0  0  0
   57.4950   27.9030   46.6220 C   0  0  0  0  0  0  0  0  0  0  0  0
   57.3150   28.0750   45.2390 C   0  0  0  0  0  0  0  0  0  0  0  0
   56.4570   29.1640   44.6580 C   0  0  0  0  0  0  0  0  0  0  0  0
   56.8110   30.4530   45.2400 N   0  0  0  0  0  0  0  0  0  0  0  0
   57.8910   31.2650   44.7660 C   0  0  0  0  0  0  0  0  0  0  0  0
   58.1370   31.3330   43.5310 O   0  0  0  0  0  0  0  0  0  0  0  0
   58.7060   32.0420   45.7230 C   0  0  0  0  0  0  0  0  0  0  0  0
   59.7960   31.4410   46.3950 C   0  0  0  0  0  0  0  0  0  0  0  0
   60.2850   29.7770   46.0850 Cl  0  0  0  0  0  0  0  0  0  0  0  0
   60.5560   32.1870   47.3040 C   0  0  0  0  0  0  0  0  0  0  0  0
   60.2460   33.5220   47.5550 C   0  0  0  0  0  0  0  0  0  0  0  0
   59.1720   34.1260   46.8990 C   0  0  0  0  0  0  0  0  0  0  0  0
   58.4000   33.3980   45.9870 C   0  0  0  0  0  0  0  0  0  0  0  0
   57.0220   34.2060   45.2430 Cl  0  0  0  0  0  0  0  0  0  0  0  0
   59.1158   26.6992   42.6942 H   0  0  0  0  0  0  0  0  0  0  0  0
   57.3358   26.4849   42.5833 H   0  0  0  0  0  0  0  0  0  0  0  0
   58.0434   28.1360   42.5833 H   0  0  0  0  0  0  0  0  0  0  0  0
   58.6426   26.5609   47.9660 H   0  0  0  0  0  0  0  0  0  0  0  0
   56.9947   28.5286   47.3759 H   0  0  0  0  0  0  0  0  0  0  0  0
   56.6090   29.2036   43.5693 H   0  0  0  0  0  0  0  0  0  0  0  0
   55.4025   28.9472   44.8841 H   0  0  0  0  0  0  0  0  0  0  0  0
   61.4035   31.7160   47.8235 H   0  0  0  0  0  0  0  0  0  0  0  0
   60.8482   34.1006   48.2709 H   0  0  0  0  0  0  0  0  0  0  0  0
   58.9312   35.1803   47.1002 H   0  0  0  0  0  0  0  0  0  0  0  0
  1  2  1  0
  2  3  1  0
  3  4  1  0
  4  5  2  0
  5  6  1  0
  6  7  1  0
  7  8  1  0
  8  9  1  0
  9 10  2  0
  9 11  1  0
 11 12  2  0
 12 13  1  0
 12 14  1  0
 14 15  2  0
 15 16  1  0
 16 17  2  0
 17 18  1  0
  6  2  2  0
 17 11  1  0
  1 19  1  0
  1 20  1  0
  1 21  1  0
  4 22  1  0
  5 23  1  0
  7 24  1  0
  7 25  1  0
 14 26  1  0
 15 27  1  0
 16 28  1  0
M  CHG  1   8  -1
M  END
>  <UniqueID>  (55) 
53

>  <SMILES>  (55) 
Cc1sccc1C[N-]C(=O)c1c(Cl)cccc1Cl

>  <Energy>  (55) 
57.282592281846696

>  <Genealogy>  (55) 
Cc1sccc1C[N-]C(=O)c1c(Cl)cccc1Cl (protonated)
Cc1sccc1C[N-]C(=O)c1c(Cl)cccc1Cl (3D coordinates assigned)
Cc1sccc1C[N-]C(=O)c1c(Cl)cccc1Cl (optimized conformer: 57.282592281846696 kcal/mol)

>  <smiles>  (55) 
Cc1sccc1CNC(=O)c1c(Cl)cccc1Cl

>  <score_type>  (55) 
oracle

>  <origin>  (55) 
adg

>  <m_score__min__energy>  (55) 
-8.0399999999999991

>  <m_primary>  (55) 
energy

$$$$
55:0
     RDKit          3D

 40 42  0  0  0  0  0  0  0  0999 V2000
   55.1430   29.3560   44.7780 N   0  0  0  0  0  0  0  0  0  0  0  0
   56.2120   30.2030   44.3590 C   0  0  0  0  0  0  0  0  0  0  0  0
   56.1450   30.7670   43.2340 O   0  0  0  0  0  0  0  0  0  0  0  0
   57.3850   30.4210   45.2340 C   0  0  0  0  0  0  0  0  0  0  0  0
   58.0840   29.3870   45.8770 C   0  0  0  0  0  0  0  0  0  0  0  0
   57.7050   27.9970   45.8720 N   0  0  0  0  0  0  0  0  0  0  0  0
   58.5730   26.9110   45.4910 C   0  0  0  0  0  0  0  0  0  0  0  0
   59.8140   27.1010   45.3760 O   0  0  0  0  0  0  0  0  0  0  0  0
   58.0270   25.5530   45.2510 C   0  0  0  0  0  0  0  0  0  0  0  0
   58.1960   24.5450   46.2180 C   0  0  0  0  0  0  0  0  0  0  0  0
   57.6920   23.2600   45.9990 C   0  0  0  0  0  0  0  0  0  0  0  0
   57.0140   22.9590   44.8120 C   0  0  0  0  0  0  0  0  0  0  0  0
   56.3880   21.3380   44.5340 S   0  0  0  0  0  0  0  0  0  0  0  0
   54.8290   21.1910   45.2640 N   0  0  0  0  0  0  0  0  0  0  0  0
   57.3220   20.3220   45.1330 O   0  0  0  0  0  0  0  0  0  0  0  0
   56.2800   21.0810   43.0550 O   0  0  0  0  0  0  0  0  0  0  0  0
   56.8580   23.9520   43.8370 C   0  0  0  0  0  0  0  0  0  0  0  0
   57.3610   25.2380   44.0520 C   0  0  0  0  0  0  0  0  0  0  0  0
   59.3590   30.0520   46.7600 S   0  0  0  0  0  0  0  0  0  0  0  0
   59.0410   31.6460   46.3530 C   0  0  0  0  0  0  0  0  0  0  0  0
   57.9500   31.6920   45.4890 C   0  0  0  0  0  0  0  0  0  0  0  0
   57.4340   33.0040   44.9480 C   0  0  0  0  0  0  0  0  0  0  0  0
   58.4810   34.1280   45.0700 C   0  0  0  0  0  0  0  0  0  0  0  0
   59.1300   34.1390   46.4630 C   0  0  0  0  0  0  0  0  0  0  0  0
   59.8810   32.8270   46.7330 C   0  0  0  0  0  0  0  0  0  0  0  0
   55.2280   28.7700   45.6390 H   0  0  0  0  0  0  0  0  0  0  0  0
   56.7510   27.7540   46.2160 H   0  0  0  0  0  0  0  0  0  0  0  0
   58.7289   24.7701   47.1536 H   0  0  0  0  0  0  0  0  0  0  0  0
   57.8289   22.4810   46.7635 H   0  0  0  0  0  0  0  0  0  0  0  0
   54.2300   21.9450   44.8580 H   0  0  0  0  0  0  0  0  0  0  0  0
   56.3368   23.7185   42.8969 H   0  0  0  0  0  0  0  0  0  0  0  0
   57.2354   26.0097   43.2783 H   0  0  0  0  0  0  0  0  0  0  0  0
   57.1743   32.8736   43.8871 H   0  0  0  0  0  0  0  0  0  0  0  0
   56.5529   33.2935   45.5395 H   0  0  0  0  0  0  0  0  0  0  0  0
   59.2628   33.9731   44.3119 H   0  0  0  0  0  0  0  0  0  0  0  0
   57.9744   35.0921   44.9158 H   0  0  0  0  0  0  0  0  0  0  0  0
   59.8392   34.9777   46.5224 H   0  0  0  0  0  0  0  0  0  0  0  0
   58.3369   34.2494   47.2172 H   0  0  0  0  0  0  0  0  0  0  0  0
   60.8091   32.8145   46.1427 H   0  0  0  0  0  0  0  0  0  0  0  0
   60.1100   32.7661   47.8072 H   0  0  0  0  0  0  0  0  0  0  0  0
  1  2  1  0
  2  3  2  0
  2  4  1  0
  4  5  2  0
  5  6  1  0
  6  7  1  0
  7  8  2  0
  7  9  1  0
  9 10  2  0
 10 11  1  0
 11 12  2  0
 12 13  1  0
 13 14  1  0
 13 15  2  0
 13 16  2  0
 12 17  1  0
 17 18  2  0
  5 19  1  0
 19 20  1  0
 20 21  2  0
 21 22  1  0
 22 23  1  0
 23 24  1  0
 24 25  1  0
 21  4  1  0
 18  9  1  0
 25 20  1  0
  1 26  1  0
  6 27  1  0
 10 28  1  0
 11 29  1  0
 14 30  1  0
 17 31  1  0
 18 32  1  0
 22 33  1  0
 22 34  1  0
 23 35  1  0
 23 36  1  0
 24 37  1  0
 24 38  1  0
 25 39  1  0
 25 40  1  0
M  CHG  2   1  -1  14  -1
M  END
>  <UniqueID>  (56) 
54

>  <SMILES>  (56) 
[NH-]C(=O)c1c(NC(=O)c2ccc(S([NH-])(=O)=O)cc2)sc2c1CCCC2

>  <Energy>  (56) 
74.84290497733105

>  <Genealogy>  (56) 
[NH-]C(=O)c1c(NC(=O)c2ccc(S([NH-])(=O)=O)cc2)sc2c1CCCC2 (protonated)
[NH-]C(=O)c1c(NC(=O)c2ccc(S([NH-])(=O)=O)cc2)sc2c1CCCC2 (3D coordinates assigned)
[NH-]C(=O)c1c(NC(=O)c2ccc(S([NH-])(=O)=O)cc2)sc2c1CCCC2 (nonaromatic ring conformer: 74.84290497733105 kcal/mol)

>  <smiles>  (56) 
NC(=O)c1c(NC(=O)c2ccc(S(N)(=O)=O)cc2)sc2c1CCCC2

>  <score_type>  (56) 
oracle

>  <origin>  (56) 
adg

>  <m_score__min__energy>  (56) 
-12.91

>  <m_primary>  (56) 
energy

$$$$
56:0
     RDKit          3D

 40 42  0  0  0  0  0  0  0  0999 V2000
   60.8200   28.6430   45.1690 C   0  0  0  0  0  0  0  0  0  0  0  0
   59.4010   28.1780   45.3020 C   0  0  0  0  0  0  0  0  0  0  0  0
   58.3460   28.9550   44.7600 C   0  0  0  0  0  0  0  0  0  0  0  0
   57.0000   28.5520   44.9100 C   0  0  0  0  0  0  0  0  0  0  0  0
   55.8800   29.3390   44.2950 C   0  0  0  0  0  0  0  0  0  0  0  0
   55.8630   30.6790   44.8630 N   0  0  0  0  0  0  0  0  0  0  0  0
   56.8780   31.6470   44.5910 C   0  0  0  0  0  0  0  0  0  0  0  0
   57.3870   31.6930   43.4400 O   0  0  0  0  0  0  0  0  0  0  0  0
   57.3430   32.5160   45.6330 N   0  0  0  0  0  0  0  0  0  0  0  0
   58.7080   32.7270   46.0230 C   0  0  0  0  0  0  0  0  0  0  0  0
   59.3160   33.9940   45.9590 C   0  0  0  0  0  0  0  0  0  0  0  0
   60.6410   34.1610   46.3730 C   0  0  0  0  0  0  0  0  0  0  0  0
   61.3710   33.0700   46.8620 C   0  0  0  0  0  0  0  0  0  0  0  0
   63.0330   33.2950   47.3970 S   0  0  0  0  0  0  0  0  0  0  0  0
   63.0360   33.9640   49.0460 C   0  0  0  0  0  0  0  0  0  0  0  0
   63.7380   34.2410   46.4660 O   0  0  0  0  0  0  0  0  0  0  0  0
   63.7600   31.9790   47.3910 O   0  0  0  0  0  0  0  0  0  0  0  0
   60.7570   31.8140   46.9570 C   0  0  0  0  0  0  0  0  0  0  0  0
   59.4310   31.6470   46.5450 C   0  0  0  0  0  0  0  0  0  0  0  0
   56.7620   27.3620   45.6040 C   0  0  0  0  0  0  0  0  0  0  0  0
   55.5820   26.7740   45.8570 N   0  0  0  0  0  0  0  0  0  0  0  0
   55.9410   25.6670   46.5550 C   0  0  0  0  0  0  0  0  0  0  0  0
   57.2800   25.5350   46.7470 N   0  0  0  0  0  0  0  0  0  0  0  0
   57.7720   26.6210   46.1340 C   0  0  0  0  0  0  0  0  0  0  0  0
   59.1070   26.9950   46.0140 C   0  0  0  0  0  0  0  0  0  0  0  0
   61.2545   28.7854   46.1695 H   0  0  0  0  0  0  0  0  0  0  0  0
   61.4030   27.8889   44.6200 H   0  0  0  0  0  0  0  0  0  0  0  0
   60.8437   29.5959   44.6200 H   0  0  0  0  0  0  0  0  0  0  0  0
   58.5782   29.8826   44.2163 H   0  0  0  0  0  0  0  0  0  0  0  0
   56.0305   29.4032   43.2072 H   0  0  0  0  0  0  0  0  0  0  0  0
   54.9222   28.8394   44.5025 H   0  0  0  0  0  0  0  0  0  0  0  0
   58.7469   34.8565   45.5819 H   0  0  0  0  0  0  0  0  0  0  0  0
   61.1122   35.1533   46.3145 H   0  0  0  0  0  0  0  0  0  0  0  0
   63.0323   33.1408   49.7757 H   0  0  0  0  0  0  0  0  0  0  0  0
   63.9369   34.5783   49.1908 H   0  0  0  0  0  0  0  0  0  0  0  0
   62.1406   34.5864   49.1908 H   0  0  0  0  0  0  0  0  0  0  0  0
   61.3194   30.9572   47.3566 H   0  0  0  0  0  0  0  0  0  0  0  0
   58.9525   30.6603   46.6315 H   0  0  0  0  0  0  0  0  0  0  0  0
   55.2097   24.9377   46.9336 H   0  0  0  0  0  0  0  0  0  0  0  0
   59.9083   26.3877   46.4601 H   0  0  0  0  0  0  0  0  0  0  0  0
  1  2  1  0
  2  3  2  0
  3  4  1  0
  4  5  1  0
  5  6  1  0
  6  7  1  0
  7  8  2  0
  7  9  1  0
  9 10  1  0
 10 11  2  0
 11 12  1  0
 12 13  2  0
 13 14  1  0
 14 15  1  0
 14 16  2  0
 14 17  2  0
 13 18  1  0
 18 19  2  0
  4 20  2  0
 20 21  1  0
 21 22  2  0
 22 23  1  0
 23 24  1  0
 24 25  2  0
 25  2  1  0
 19 10  1  0
 24 20  1  0
  1 26  1  0
  1 27  1  0
  1 28  1  0
  3 29  1  0
  5 30  1  0
  5 31  1  0
 11 32  1  0
 12 33  1  0
 15 34  1  0
 15 35  1  0
 15 36  1  0
 18 37  1  0
 19 38  1  0
 22 39  1  0
 25 40  1  0
M  CHG  3   6  -1   9  -1  23  -1
M  END
>  <UniqueID>  (57) 
55

>  <SMILES>  (57) 
Cc1cc(C[N-]C(=O)[N-]c2ccc(S(C)(=O)=O)cc2)c2nc[n-]c2c1

>  <Energy>  (57) 
73.73246412150806

>  <Genealogy>  (57) 
Cc1cc(C[N-]C(=O)[N-]c2ccc(S(C)(=O)=O)cc2)c2nc[n-]c2c1 (protonated)
Cc1cc(C[N-]C(=O)[N-]c2ccc(S(C)(=O)=O)cc2)c2nc[n-]c2c1 (3D coordinates assigned)
Cc1cc(C[N-]C(=O)[N-]c2ccc(S(C)(=O)=O)cc2)c2nc[n-]c2c1 (optimized conformer: 73.73246412150806 kcal/mol)

>  <smiles>  (57) 
Cc1cc(CNC(=O)Nc2ccc(S(C)(=O)=O)cc2)c2nc[nH]c2c1

>  <score_type>  (57) 
oracle

>  <origin>  (57) 
adg

>  <m_score__min__energy>  (57) 
-13.59

>  <m_primary>  (57) 
energy

$$$$
57:0
     RDKit          3D

 32 34  0  0  0  0  0  0  0  0999 V2000
   58.3825   32.7047   42.8829 H   0  0  0  0  0  0  0  0  0  0  0  0
   57.9870   32.5740   43.9010 C   0  0  0  0  0  0  0  0  0  0  0  0
   57.0250   31.7300   44.1190 N   0  0  0  0  0  0  0  0  0  0  0  0
   57.1730   30.3070   44.2020 C   0  0  0  0  0  0  0  0  0  0  0  0
   57.0990   29.4520   45.6490 S   0  0  0  0  0  0  0  0  0  0  0  0
   57.3560   27.9950   44.8330 C   0  0  0  0  0  0  0  0  0  0  0  0
   57.4300   26.6950   45.4390 N   0  0  0  0  0  0  0  0  0  0  0  0
   56.3550   25.9500   45.9850 C   0  0  0  0  0  0  0  0  0  0  0  0
   55.1630   26.3570   46.0050 O   0  0  0  0  0  0  0  0  0  0  0  0
   56.7760   24.6460   46.5320 C   0  0  0  0  0  0  0  0  0  0  0  0
   56.2738   23.8195   46.0079 H   0  0  0  0  0  0  0  0  0  0  0  0
   56.5205   24.5256   47.5951 H   0  0  0  0  0  0  0  0  0  0  0  0
   58.2900   24.6190   46.2750 C   0  0  0  0  0  0  0  0  0  0  0  0
   58.5462   23.7674   45.6276 H   0  0  0  0  0  0  0  0  0  0  0  0
   58.8421   24.5091   47.2200 H   0  0  0  0  0  0  0  0  0  0  0  0
   58.6640   25.9430   45.5770 C   0  0  0  0  0  0  0  0  0  0  0  0
   59.0998   25.7417   44.5873 H   0  0  0  0  0  0  0  0  0  0  0  0
   59.4105   26.5039   46.1585 H   0  0  0  0  0  0  0  0  0  0  0  0
   57.4890   28.1950   43.5020 N   0  0  0  0  0  0  0  0  0  0  0  0
   57.3870   29.4750   43.1530 N   0  0  0  0  0  0  0  0  0  0  0  0
   57.4700   29.7750   42.1590 H   0  0  0  0  0  0  0  0  0  0  0  0
   58.5470   33.3530   45.0090 C   0  0  0  0  0  0  0  0  0  0  0  0
   58.5050   32.9230   46.6380 S   0  0  0  0  0  0  0  0  0  0  0  0
   59.3160   34.2890   47.1910 C   0  0  0  0  0  0  0  0  0  0  0  0
   59.7120   34.5380   48.6070 C   0  0  0  0  0  0  0  0  0  0  0  0
   58.9757   34.0750   49.2805 H   0  0  0  0  0  0  0  0  0  0  0  0
   60.7043   34.1010   48.7925 H   0  0  0  0  0  0  0  0  0  0  0  0
   59.7481   35.6216   48.7925 H   0  0  0  0  0  0  0  0  0  0  0  0
   59.6530   35.0860   46.1040 C   0  0  0  0  0  0  0  0  0  0  0  0
   60.2091   36.0307   46.1951 H   0  0  0  0  0  0  0  0  0  0  0  0
   59.2130   34.5650   44.8800 C   0  0  0  0  0  0  0  0  0  0  0  0
   59.3783   35.0653   43.9144 H   0  0  0  0  0  0  0  0  0  0  0  0
  1  2  1  0
  2  3  2  0
  3  4  1  0
  4  5  1  0
  5  6  1  0
  6  7  1  0
  7  8  1  0
  8  9  2  0
  8 10  1  0
 10 11  1  0
 10 12  1  0
 10 13  1  0
 13 14  1  0
 13 15  1  0
 13 16  1  0
 16 17  1  0
 16 18  1  0
  6 19  2  0
 19 20  1  0
 20 21  1  0
  2 22  1  0
 22 23  1  0
 23 24  1  0
 24 25  1  0
 25 26  1  0
 25 27  1  0
 25 28  1  0
 24 29  2  0
 29 30  1  0
 29 31  1  0
 31 32  1  0
 20  4  2  0
 31 22  2  0
 16  7  1  0
M  CHG  1  20   1
M  END
>  <UniqueID>  (58) 
56

>  <SMILES>  (58) 
Cc1ccc(/C=N/c2[nH+]nc(N3CCCC3=O)s2)s1

>  <Energy>  (58) 
98.41592170878211

>  <Genealogy>  (58) 
Cc1ccc(C=Nc2[nH+]nc(N3CCCC3=O)s2)s1 (protonated)
Cc1ccc(/C=N/c2[nH+]nc(N3CCCC3=O)s2)s1 (cis-trans isomerization)
Cc1ccc(/C=N/c2[nH+]nc(N3CCCC3=O)s2)s1 (3D coordinates assigned)
Cc1ccc(/C=N/c2[nH+]nc(N3CCCC3=O)s2)s1 (nonaromatic ring conformer: 98.41592170878211 kcal/mol)

>  <smiles>  (58) 
Cc1ccc(C=Nc2nnc(N3CCCC3=O)s2)s1

>  <score_type>  (58) 
oracle

>  <origin>  (58) 
adg

>  <m_score__min__energy>  (58) 
-6.4699999999999998

>  <m_primary>  (58) 
energy

$$$$
58:0
     RDKit          3D

 41 43  0  0  0  0  0  0  0  0999 V2000
   57.4190   26.0820   45.4820 C   0  0  0  0  0  0  0  0  0  0  0  0
   56.3860   27.1030   45.6180 N   0  0  0  0  0  0  0  0  0  0  0  0
   55.1370   26.7250   45.9830 O   0  0  0  0  0  0  0  0  0  0  0  0
   56.7080   28.4970   45.4750 C   0  0  0  0  0  0  0  0  0  0  0  0
   55.9470   29.2470   44.8050 O   0  0  0  0  0  0  0  0  0  0  0  0
   57.9280   29.0750   46.0860 C   0  0  0  0  0  0  0  0  0  0  0  0
   58.6480   30.0730   45.4080 C   0  0  0  0  0  0  0  0  0  0  0  0
   59.7980   30.6280   45.9780 C   0  0  0  0  0  0  0  0  0  0  0  0
   60.2520   30.1890   47.2300 C   0  0  0  0  0  0  0  0  0  0  0  0
   61.4700   30.7810   47.8180 C   0  0  0  0  0  0  0  0  0  0  0  0
   62.4940   30.9100   47.0960 O   0  0  0  0  0  0  0  0  0  0  0  0
   61.5360   31.2110   49.1860 N   0  0  0  0  0  0  0  0  0  0  0  0
   61.6230   32.5920   49.6580 C   0  0  0  0  0  0  0  0  0  0  0  0
   60.9150   33.5510   48.6920 C   0  0  1  0  0  0  0  0  0  0  0  0
   61.7850   33.8240   47.4490 C   0  0  0  0  0  0  0  0  0  0  0  0
   61.0390   34.5620   46.4770 O   0  0  0  0  0  0  0  0  0  0  0  0
   59.6910   34.2800   46.2390 C   0  0  0  0  0  0  0  0  0  0  0  0
   59.0390   34.7940   45.1140 C   0  0  0  0  0  0  0  0  0  0  0  0
   57.6980   34.4710   44.8790 C   0  0  0  0  0  0  0  0  0  0  0  0
   57.0090   33.6410   45.7720 C   0  0  0  0  0  0  0  0  0  0  0  0
   57.6560   33.1410   46.9080 C   0  0  0  0  0  0  0  0  0  0  0  0
   58.9930   33.4720   47.1480 C   0  0  0  0  0  0  0  0  0  0  0  0
   59.6530   33.0090   48.2910 O   0  0  0  0  0  0  0  0  0  0  0  0
   59.5050   29.2310   47.9320 C   0  0  0  0  0  0  0  0  0  0  0  0
   58.3560   28.6750   47.3630 C   0  0  0  0  0  0  0  0  0  0  0  0
   57.7474   25.7574   46.4804 H   0  0  0  0  0  0  0  0  0  0  0  0
   57.0129   25.2206   44.9315 H   0  0  0  0  0  0  0  0  0  0  0  0
   58.2756   26.4981   44.9315 H   0  0  0  0  0  0  0  0  0  0  0  0
   58.3048   30.4201   44.4222 H   0  0  0  0  0  0  0  0  0  0  0  0
   60.3498   31.4136   45.4411 H   0  0  0  0  0  0  0  0  0  0  0  0
   61.1487   32.6640   50.6479 H   0  0  0  0  0  0  0  0  0  0  0  0
   62.6843   32.8752   49.7166 H   0  0  0  0  0  0  0  0  0  0  0  0
   60.7495   34.5028   49.2181 H   0  0  0  0  0  0  0  0  0  0  0  0
   62.6705   34.4053   47.7457 H   0  0  0  0  0  0  0  0  0  0  0  0
   62.0958   32.8643   47.0103 H   0  0  0  0  0  0  0  0  0  0  0  0
   59.5788   35.4505   44.4156 H   0  0  0  0  0  0  0  0  0  0  0  0
   57.1843   34.8695   43.9917 H   0  0  0  0  0  0  0  0  0  0  0  0
   55.9574   33.3815   45.5803 H   0  0  0  0  0  0  0  0  0  0  0  0
   57.1143   32.4897   47.6097 H   0  0  0  0  0  0  0  0  0  0  0  0
   59.8256   28.9158   48.9359 H   0  0  0  0  0  0  0  0  0  0  0  0
   57.7825   27.9187   47.9190 H   0  0  0  0  0  0  0  0  0  0  0  0
  1  2  1  0
  2  3  1  0
  2  4  1  0
  4  5  2  0
  4  6  1  0
  6  7  2  0
  7  8  1  0
  8  9  2  0
  9 10  1  0
 10 11  2  0
 10 12  1  0
 12 13  1  0
 13 14  1  0
 14 15  1  0
 15 16  1  0
 16 17  1  0
 17 18  2  0
 18 19  1  0
 19 20  2  0
 20 21  1  0
 21 22  2  0
 22 23  1  0
  9 24  1  0
 24 25  2  0
 25  6  1  0
 23 14  1  0
 22 17  1  0
  1 26  1  0
  1 27  1  0
  1 28  1  0
  7 29  1  0
  8 30  1  0
 13 31  1  0
 13 32  1  0
 14 33  1  1
 15 34  1  0
 15 35  1  0
 18 36  1  0
 19 37  1  0
 20 38  1  0
 21 39  1  0
 24 40  1  0
 25 41  1  0
M  CHG  2   3  -1  12  -1
M  END
>  <UniqueID>  (59) 
57

>  <SMILES>  (59) 
CN([O-])C(=O)c1ccc(C(=O)[N-]C[C@H]2COc3ccccc3O2)cc1

>  <Energy>  (59) 
47.15905563334128

>  <Genealogy>  (59) 
CN([O-])C(=O)c1ccc(C(=O)[N-]CC2COc3ccccc3O2)cc1 (protonated)
CN([O-])C(=O)c1ccc(C(=O)[N-]C[C@H]2COc3ccccc3O2)cc1 (chirality)
CN([O-])C(=O)c1ccc(C(=O)[N-]C[C@H]2COc3ccccc3O2)cc1 (3D coordinates assigned)
CN([O-])C(=O)c1ccc(C(=O)[N-]C[C@H]2COc3ccccc3O2)cc1 (nonaromatic ring conformer: 47.15905563334128 kcal/mol)

>  <smiles>  (59) 
CN(O)C(=O)c1ccc(C(=O)NCC2COc3ccccc3O2)cc1

>  <score_type>  (59) 
oracle

>  <origin>  (59) 
adg

>  <m_score__min__energy>  (59) 
-12.27

>  <m_primary>  (59) 
energy

$$$$
59:0
     RDKit          3D

 70 75  0  0  0  0  0  0  0  0999 V2000
   58.7900   34.3800   44.6540 C   0  0  0  0  0  0  0  0  0  0  0  0
   57.5010   33.5850   44.4670 C   0  0  0  0  0  0  0  0  0  0  0  0
   57.0730   32.9160   45.7760 C   0  0  0  0  0  0  0  0  0  0  0  0
   58.1090   31.9280   46.2360 C   0  0  0  0  0  0  0  0  0  0  0  0
   58.3980   30.6780   45.6710 C   0  0  0  0  0  0  0  0  0  0  0  0
   57.7510   30.0240   44.4820 C   0  0  0  0  0  0  0  0  0  0  0  0
   57.7320   28.5260   44.6400 C   0  0  0  0  0  0  0  0  0  0  0  0
   57.2930   27.9470   45.8420 C   0  0  0  0  0  0  0  0  0  0  0  0
   57.2920   26.5590   45.9980 C   0  0  0  0  0  0  0  0  0  0  0  0
   57.7040   25.7250   44.9450 C   0  0  0  0  0  0  0  0  0  0  0  0
   57.7130   24.2530   45.1140 C   0  0  0  0  0  0  0  0  0  0  0  0
   58.9470   23.5810   45.0440 C   0  0  0  0  0  0  0  0  0  0  0  0
   59.0270   22.2110   45.2900 C   0  0  0  0  0  0  0  0  0  0  0  0
   57.8790   21.4910   45.6160 C   0  0  0  0  0  0  0  0  0  0  0  0
   56.6420   22.1370   45.6780 C   0  0  0  0  0  0  0  0  0  0  0  0
   56.5340   23.5130   45.4110 C   0  0  0  0  0  0  0  0  0  0  0  0
   55.1840   24.1260   45.4060 C   0  0  0  0  0  0  0  0  0  0  0  0
   54.0940   23.5230   44.8810 N   0  0  0  0  0  0  0  0  0  0  0  0
   53.1580   24.4650   45.0880 C   0  0  0  0  0  0  0  0  0  0  0  0
   51.9520   24.3320   44.7590 O   0  0  0  0  0  0  0  0  0  0  0  0
   53.6420   25.5300   45.6690 O   0  0  0  0  0  0  0  0  0  0  0  0
   54.9100   25.3610   45.8820 N   0  0  0  0  0  0  0  0  0  0  0  0
   58.1510   26.3040   43.7460 C   0  0  0  0  0  0  0  0  0  0  0  0
   58.1630   27.6940   43.5940 C   0  0  0  0  0  0  0  0  0  0  0  0
   59.3000   30.0970   46.5570 C   0  0  0  0  0  0  0  0  0  0  0  0
   59.7540   28.9240   46.5050 O   0  0  0  0  0  0  0  0  0  0  0  0
   59.5570   30.9690   47.5420 N   0  0  0  0  0  0  0  0  0  0  0  0
   58.8660   32.0550   47.3490 N   0  0  0  0  0  0  0  0  0  0  0  0
   58.8510   32.9440   48.4920 C   0  0  2  0  0  0  0  0  0  0  0  0
   59.3670   34.3620   48.1460 C   0  0  0  0  0  0  0  0  0  0  0  0
   60.5860   34.4300   47.1990 C   0  0  0  0  0  0  0  0  0  0  0  0
   61.8390   33.8480   47.7950 C   0  0  0  0  0  0  0  0  0  0  0  0
   62.2810   34.2640   49.0620 C   0  0  0  0  0  0  0  0  0  0  0  0
   63.4480   33.7260   49.6140 C   0  0  0  0  0  0  0  0  0  0  0  0
   64.1820   32.7730   48.9050 C   0  0  0  0  0  0  0  0  0  0  0  0
   63.7570   32.3610   47.6400 C   0  0  0  0  0  0  0  0  0  0  0  0
   62.5910   32.8980   47.0830 C   0  0  0  0  0  0  0  0  0  0  0  0
   59.7250   32.1840   49.5370 C   0  0  0  0  0  0  0  0  0  0  0  0
   60.1210   30.8450   48.8640 C   0  0  0  0  0  0  0  0  0  0  0  0
   58.9916   34.5043   45.7282 H   0  0  0  0  0  0  0  0  0  0  0  0
   59.6253   33.8399   44.1843 H   0  0  0  0  0  0  0  0  0  0  0  0
   58.6823   35.3688   44.1843 H   0  0  0  0  0  0  0  0  0  0  0  0
   56.7038   34.2658   44.1337 H   0  0  0  0  0  0  0  0  0  0  0  0
   57.6787   32.8017   43.7154 H   0  0  0  0  0  0  0  0  0  0  0  0
   56.9424   33.6875   46.5491 H   0  0  0  0  0  0  0  0  0  0  0  0
   56.1275   32.3805   45.6049 H   0  0  0  0  0  0  0  0  0  0  0  0
   56.7179   30.3898   44.3870 H   0  0  0  0  0  0  0  0  0  0  0  0
   58.3308   30.2763   43.5819 H   0  0  0  0  0  0  0  0  0  0  0  0
   56.9481   28.5902   46.6650 H   0  0  0  0  0  0  0  0  0  0  0  0
   56.9667   26.1162   46.9509 H   0  0  0  0  0  0  0  0  0  0  0  0
   59.8587   24.1426   44.7924 H   0  0  0  0  0  0  0  0  0  0  0  0
   59.9977   21.6975   45.2267 H   0  0  0  0  0  0  0  0  0  0  0  0
   57.9471   20.4131   45.8246 H   0  0  0  0  0  0  0  0  0  0  0  0
   55.7413   21.5619   45.9390 H   0  0  0  0  0  0  0  0  0  0  0  0
   58.4935   25.6606   42.9221 H   0  0  0  0  0  0  0  0  0  0  0  0
   58.5119   28.1381   42.6501 H   0  0  0  0  0  0  0  0  0  0  0  0
   57.8409   33.1509   48.8752 H   0  0  0  0  0  0  0  0  0  0  0  0
   58.5418   34.9133   47.6716 H   0  0  0  0  0  0  0  0  0  0  0  0
   59.7090   34.7924   49.0988 H   0  0  0  0  0  0  0  0  0  0  0  0
   60.3457   33.8739   46.2809 H   0  0  0  0  0  0  0  0  0  0  0  0
   60.7844   35.4937   47.0010 H   0  0  0  0  0  0  0  0  0  0  0  0
   61.7066   35.0163   49.6224 H   0  0  0  0  0  0  0  0  0  0  0  0
   63.7879   34.0539   50.6075 H   0  0  0  0  0  0  0  0  0  0  0  0
   65.0962   32.3462   49.3433 H   0  0  0  0  0  0  0  0  0  0  0  0
   64.3394   31.6137   47.0810 H   0  0  0  0  0  0  0  0  0  0  0  0
   62.2619   32.5754   46.0842 H   0  0  0  0  0  0  0  0  0  0  0  0
   60.6233   32.7693   49.7829 H   0  0  0  0  0  0  0  0  0  0  0  0
   59.1785   32.0180   50.4771 H   0  0  0  0  0  0  0  0  0  0  0  0
   61.2144   30.7330   48.8188 H   0  0  0  0  0  0  0  0  0  0  0  0
   59.7588   29.9611   49.4094 H   0  0  0  0  0  0  0  0  0  0  0  0
  1  2  1  0
  2  3  1  0
  3  4  1  0
  4  5  2  0
  5  6  1  0
  6  7  1  0
  7  8  2  0
  8  9  1  0
  9 10  2  0
 10 11  1  0
 11 12  2  0
 12 13  1  0
 13 14  2  0
 14 15  1  0
 15 16  2  0
 16 17  1  0
 17 18  2  0
 18 19  1  0
 19 20  2  0
 19 21  1  0
 21 22  1  0
 10 23  1  0
 23 24  2  0
  5 25  1  0
 25 26  2  0
 25 27  1  0
 27 28  1  0
 28 29  1  0
 29 30  1  0
 30 31  1  0
 31 32  1  0
 32 33  2  0
 33 34  1  0
 34 35  2  0
 35 36  1  0
 36 37  2  0
 29 38  1  0
 38 39  1  0
 28  4  1  0
 37 32  1  0
 24  7  1  0
 39 27  1  0
 16 11  1  0
 22 17  1  0
  1 40  1  0
  1 41  1  0
  1 42  1  0
  2 43  1  0
  2 44  1  0
  3 45  1  0
  3 46  1  0
  6 47  1  0
  6 48  1  0
  8 49  1  0
  9 50  1  0
 12 51  1  0
 13 52  1  0
 14 53  1  0
 15 54  1  0
 23 55  1  0
 24 56  1  0
 29 57  1  1
 30 58  1  0
 30 59  1  0
 31 60  1  0
 31 61  1  0
 33 62  1  0
 34 63  1  0
 35 64  1  0
 36 65  1  0
 37 66  1  0
 38 67  1  0
 38 68  1  0
 39 69  1  0
 39 70  1  0
M  CHG  1  22  -1
M  END
>  <UniqueID>  (60) 
58

>  <SMILES>  (60) 
CCCc1c(Cc2ccc(-c3ccccc3-c3nc(=O)o[n-]3)cc2)c(=O)n2n1[C@H](CCc1ccccc1)CC2

>  <Energy>  (60) 
164.51769154812217

>  <Genealogy>  (60) 
CCCc1c(Cc2ccc(-c3ccccc3-c3nc(=O)o[n-]3)cc2)c(=O)n2n1C(CCc1ccccc1)CC2 (protonated)
CCCc1c(Cc2ccc(-c3ccccc3-c3nc(=O)o[n-]3)cc2)c(=O)n2n1[C@H](CCc1ccccc1)CC2 (chirality)
CCCc1c(Cc2ccc(-c3ccccc3-c3nc(=O)o[n-]3)cc2)c(=O)n2n1[C@H](CCc1ccccc1)CC2 (3D coordinates assigned)
CCCc1c(Cc2ccc(-c3ccccc3-c3nc(=O)o[n-]3)cc2)c(=O)n2n1[C@H](CCc1ccccc1)CC2 (nonaromatic ring conformer: 164.51769154812217 kcal/mol)

>  <smiles>  (60) 
CCCc1c(Cc2ccc(-c3ccccc3-c3nc(=O)o[nH]3)cc2)c(=O)n2n1C(CCc1ccccc1)CC2

>  <score_type>  (60) 
oracle

>  <origin>  (60) 
adg

>  <m_score__min__energy>  (60) 
-12.85

>  <m_primary>  (60) 
energy

$$$$
60:0
     RDKit          3D

 29 31  0  0  0  0  0  0  0  0999 V2000
   54.9300   26.3260   46.0090 O   0  0  0  0  0  0  0  0  0  0  0  0
   56.3130   26.4950   45.9740 C   0  0  0  0  0  0  0  0  0  0  0  0
   57.1380   25.3790   45.8080 C   0  0  0  0  0  0  0  0  0  0  0  0
   58.5260   25.5340   45.7690 C   0  0  0  0  0  0  0  0  0  0  0  0
   59.0950   26.8040   45.8930 C   0  0  0  0  0  0  0  0  0  0  0  0
   58.2780   27.9380   46.0620 C   0  0  0  0  0  0  0  0  0  0  0  0
   58.8810   29.2890   46.1950 C   0  0  0  0  0  0  0  0  0  0  0  0
   60.1960   29.4390   46.6630 C   0  0  0  0  0  0  0  0  0  0  0  0
   60.7690   30.7060   46.7900 C   0  0  0  0  0  0  0  0  0  0  0  0
   60.0390   31.8590   46.4520 C   0  0  0  0  0  0  0  0  0  0  0  0
   60.5930   33.1540   46.5710 C   0  0  0  0  0  0  0  0  0  0  0  0
   62.3830   33.4660   47.1980 Br  0  0  0  0  0  0  0  0  0  0  0  0
   59.8270   34.2730   46.2250 C   0  0  0  0  0  0  0  0  0  0  0  0
   58.5190   34.1230   45.7630 C   0  0  0  0  0  0  0  0  0  0  0  0
   57.9600   32.8500   45.6400 C   0  0  0  0  0  0  0  0  0  0  0  0
   58.7090   31.7140   45.9800 C   0  0  0  0  0  0  0  0  0  0  0  0
   58.1430   30.4360   45.8560 C   0  0  0  0  0  0  0  0  0  0  0  0
   56.8810   27.7710   46.1010 C   0  0  0  0  0  0  0  0  0  0  0  0
   54.3680   26.7170   46.7560 H   0  0  0  0  0  0  0  0  0  0  0  0
   56.6940   24.3776   45.7079 H   0  0  0  0  0  0  0  0  0  0  0  0
   59.1727   24.6535   45.6403 H   0  0  0  0  0  0  0  0  0  0  0  0
   60.1885   26.9186   45.8584 H   0  0  0  0  0  0  0  0  0  0  0  0
   60.7819   28.5480   46.9328 H   0  0  0  0  0  0  0  0  0  0  0  0
   61.8011   30.8029   47.1579 H   0  0  0  0  0  0  0  0  0  0  0  0
   60.2600   35.2799   46.3181 H   0  0  0  0  0  0  0  0  0  0  0  0
   57.9268   35.0104   45.4950 H   0  0  0  0  0  0  0  0  0  0  0  0
   56.9284   32.7373   45.2751 H   0  0  0  0  0  0  0  0  0  0  0  0
   57.1111   30.3308   45.4897 H   0  0  0  0  0  0  0  0  0  0  0  0
   56.2298   28.6478   46.2321 H   0  0  0  0  0  0  0  0  0  0  0  0
  1  2  1  0
  2  3  2  0
  3  4  1  0
  4  5  2  0
  5  6  1  0
  6  7  1  0
  7  8  2  0
  8  9  1  0
  9 10  2  0
 10 11  1  0
 11 12  1  0
 11 13  2  0
 13 14  1  0
 14 15  2  0
 15 16  1  0
 16 17  2  0
  6 18  2  0
 18  2  1  0
 17  7  1  0
 16 10  1  0
  1 19  1  0
  3 20  1  0
  4 21  1  0
  5 22  1  0
  8 23  1  0
  9 24  1  0
 13 25  1  0
 14 26  1  0
 15 27  1  0
 17 28  1  0
 18 29  1  0
M  END
>  <UniqueID>  (61) 
59

>  <SMILES>  (61) 
Oc1cccc(-c2ccc3c(Br)cccc3c2)c1

>  <Energy>  (61) 
41.78366086807614

>  <Genealogy>  (61) 
Oc1cccc(-c2ccc3c(Br)cccc3c2)c1 (3D coordinates assigned)
Oc1cccc(-c2ccc3c(Br)cccc3c2)c1 (optimized conformer: 41.78366086807614 kcal/mol)

>  <smiles>  (61) 
Oc1cccc(-c2ccc3c(Br)cccc3c2)c1

>  <score_type>  (61) 
oracle

>  <origin>  (61) 
adg

>  <m_score__min__energy>  (61) 
-8.6300000000000008

>  <m_primary>  (61) 
energy

$$$$
61:0
     RDKit          3D

 38 40  0  0  0  0  0  0  0  0999 V2000
   59.2410   30.1270   49.7410 O   0  0  0  0  0  0  0  0  0  0  0  0
   59.7020   30.6500   48.6920 C   0  0  0  0  0  0  0  0  0  0  0  0
   59.8780   29.8560   47.5090 N   0  0  0  0  0  0  0  0  0  0  0  0
   59.0370   29.8420   46.3460 C   0  0  0  0  0  0  0  0  0  0  0  0
   58.9260   30.9610   45.5010 C   0  0  0  0  0  0  0  0  0  0  0  0
   58.0800   30.9240   44.3880 C   0  0  0  0  0  0  0  0  0  0  0  0
   57.3280   29.7770   44.1170 C   0  0  0  0  0  0  0  0  0  0  0  0
   56.2670   29.7350   42.7210 Cl  0  0  0  0  0  0  0  0  0  0  0  0
   57.4140   28.6700   44.9650 C   0  0  0  0  0  0  0  0  0  0  0  0
   58.2580   28.7020   46.0810 C   0  0  0  0  0  0  0  0  0  0  0  0
   58.3400   27.2930   47.1310 Cl  0  0  0  0  0  0  0  0  0  0  0  0
   60.0200   32.0570   48.6640 N   0  0  0  0  0  0  0  0  0  0  0  0
   58.9560   33.0640   48.7730 C   0  0  0  0  0  0  0  0  0  0  0  0
   58.6250   33.6130   47.4130 C   0  0  0  0  0  0  0  0  0  0  0  0
   59.5830   34.3340   46.6860 C   0  0  0  0  0  0  0  0  0  0  0  0
   59.2790   34.8080   45.4080 C   0  0  0  0  0  0  0  0  0  0  0  0
   58.0180   34.5530   44.8660 C   0  0  0  0  0  0  0  0  0  0  0  0
   57.1010   33.8460   45.5780 N   0  0  0  0  0  0  0  0  0  0  0  0
   57.3730   33.3730   46.8250 C   0  0  0  0  0  0  0  0  0  0  0  0
   61.3640   32.4840   48.3810 C   0  0  0  0  0  0  0  0  0  0  0  0
   62.1150   31.8620   47.3740 C   0  0  0  0  0  0  0  0  0  0  0  0
   63.4240   32.2790   47.1200 C   0  0  0  0  0  0  0  0  0  0  0  0
   63.9710   33.3140   47.8810 C   0  0  0  0  0  0  0  0  0  0  0  0
   63.2350   33.9050   48.8580 N   0  0  0  0  0  0  0  0  0  0  0  0
   61.9580   33.5180   49.1240 C   0  0  0  0  0  0  0  0  0  0  0  0
   59.5074   31.8696   45.7166 H   0  0  0  0  0  0  0  0  0  0  0  0
   58.0062   31.7986   43.7249 H   0  0  0  0  0  0  0  0  0  0  0  0
   56.8166   27.7706   44.7549 H   0  0  0  0  0  0  0  0  0  0  0  0
   58.0581   32.5995   49.2065 H   0  0  0  0  0  0  0  0  0  0  0  0
   59.3010   33.8847   49.4191 H   0  0  0  0  0  0  0  0  0  0  0  0
   60.5742   34.5263   47.1224 H   0  0  0  0  0  0  0  0  0  0  0  0
   60.0257   35.3766   44.8342 H   0  0  0  0  0  0  0  0  0  0  0  0
   57.7662   34.9246   43.8617 H   0  0  0  0  0  0  0  0  0  0  0  0
   56.6099   32.8013   47.3734 H   0  0  0  0  0  0  0  0  0  0  0  0
   61.6736   31.0455   46.7837 H   0  0  0  0  0  0  0  0  0  0  0  0
   64.0173   31.7971   46.3290 H   0  0  0  0  0  0  0  0  0  0  0  0
   65.0002   33.6516   47.6890 H   0  0  0  0  0  0  0  0  0  0  0  0
   61.3891   34.0160   49.9229 H   0  0  0  0  0  0  0  0  0  0  0  0
  1  2  2  0
  2  3  1  0
  3  4  1  0
  4  5  2  0
  5  6  1  0
  6  7  2  0
  7  8  1  0
  7  9  1  0
  9 10  2  0
 10 11  1  0
  2 12  1  0
 12 13  1  0
 13 14  1  0
 14 15  2  0
 15 16  1  0
 16 17  2  0
 17 18  1  0
 18 19  2  0
 12 20  1  0
 20 21  2  0
 21 22  1  0
 22 23  2  0
 23 24  1  0
 24 25  2  0
 10  4  1  0
 19 14  1  0
 25 20  1  0
  5 26  1  0
  6 27  1  0
  9 28  1  0
 13 29  1  0
 13 30  1  0
 15 31  1  0
 16 32  1  0
 17 33  1  0
 19 34  1  0
 21 35  1  0
 22 36  1  0
 23 37  1  0
 25 38  1  0
M  CHG  1   3  -1
M  END
>  <UniqueID>  (62) 
60

>  <SMILES>  (62) 
O=C([N-]c1ccc(Cl)cc1Cl)N(Cc1cccnc1)c1cccnc1

>  <Energy>  (62) 
50.34138015599761

>  <Genealogy>  (62) 
O=C([N-]c1ccc(Cl)cc1Cl)N(Cc1cccnc1)c1cccnc1 (protonated)
O=C([N-]c1ccc(Cl)cc1Cl)N(Cc1cccnc1)c1cccnc1 (3D coordinates assigned)
O=C([N-]c1ccc(Cl)cc1Cl)N(Cc1cccnc1)c1cccnc1 (optimized conformer: 50.34138015599761 kcal/mol)

>  <smiles>  (62) 
O=C(Nc1ccc(Cl)cc1Cl)N(Cc1cccnc1)c1cccnc1

>  <score_type>  (62) 
oracle

>  <origin>  (62) 
adg

>  <m_score__min__energy>  (62) 
-9.8499999999999996

>  <m_primary>  (62) 
energy

$$$$
62:0
     RDKit          3D

 31 32  0  0  1  0  0  0  0  0999 V2000
   56.9180   30.5720   43.3930 C   0  0  0  0  0  0  0  0  0  0  0  0
   56.5980   31.1770   44.6300 O   0  0  0  0  0  0  0  0  0  0  0  0
   57.4300   32.1120   45.2320 C   0  0  0  0  0  0  0  0  0  0  0  0
   57.5560   33.4100   44.7710 C   0  0  0  0  0  0  0  0  0  0  0  0
   58.4090   34.3060   45.4200 C   0  0  0  0  0  0  0  0  0  0  0  0
   59.1250   33.8770   46.5240 C   0  0  0  0  0  0  0  0  0  0  0  0
   60.0150   34.7210   47.2430 N   0  0  0  0  0  0  0  0  0  0  0  0
   60.8930   34.2290   48.0760 C   0  0  0  0  0  0  0  0  0  0  0  0
   60.6220   34.1740   49.3930 N   0  0  0  0  0  0  0  0  0  0  0  0
   61.5060   33.6710   50.2900 C   0  0  0  0  0  0  0  0  0  0  0  0
   61.2410   33.6230   51.5380 N   0  0  0  0  0  0  0  0  0  0  0  0
   62.6970   33.2080   49.8730 N   0  0  0  0  0  0  0  0  0  0  0  0
   62.9840   33.2570   48.5510 C   0  0  0  0  0  0  0  0  0  0  0  0
   64.2780   32.7430   48.1740 N   0  0  0  0  0  0  0  0  0  0  0  0
   62.1120   33.7610   47.6120 C   0  0  0  0  0  0  0  0  0  0  0  0
   62.4520   33.7930   46.2380 N   0  0  0  0  0  0  0  0  0  0  0  0
   63.5910   34.1580   45.8610 O   0  0  0  0  0  0  0  0  0  0  0  0
   58.9890   32.5680   46.9770 C   0  0  0  0  0  0  0  0  0  0  0  0
   58.1450   31.6760   46.3400 C   0  0  0  0  0  0  0  0  0  0  0  0
   57.4253   29.6129   43.5743 H   0  0  0  0  0  0  0  0  0  0  0  0
   55.9949   30.3962   42.8211 H   0  0  0  0  0  0  0  0  0  0  0  0
   57.5828   31.2361   42.8211 H   0  0  0  0  0  0  0  0  0  0  0  0
   56.9830   33.7376   43.8910 H   0  0  0  0  0  0  0  0  0  0  0  0
   58.5103   35.3398   45.0580 H   0  0  0  0  0  0  0  0  0  0  0  0
   59.7230   34.5160   49.7700 H   0  0  0  0  0  0  0  0  0  0  0  0
   61.9400   33.5560   52.3000 H   0  0  0  0  0  0  0  0  0  0  0  0
   63.3630   32.8250   50.5800 H   0  0  0  0  0  0  0  0  0  0  0  0
   64.9500   32.4030   48.9240 H   0  0  0  0  0  0  0  0  0  0  0  0
   64.5220   32.7190   47.1580 H   0  0  0  0  0  0  0  0  0  0  0  0
   59.5620   32.2373   47.8559 H   0  0  0  0  0  0  0  0  0  0  0  0
   58.0423   30.6429   46.7035 H   0  0  0  0  0  0  0  0  0  0  0  0
  1  2  1  0
  2  3  1  0
  3  4  2  0
  4  5  1  0
  5  6  2  0
  6  7  1  0
  7  8  2  0
  8  9  1  0
  9 10  1  0
 10 11  2  3
 10 12  1  0
 12 13  1  0
 13 14  1  0
 13 15  2  0
 15 16  1  0
 16 17  2  0
  6 18  1  0
 18 19  2  0
 19  3  1  0
 15  8  1  0
  1 20  1  0
  1 21  1  0
  1 22  1  0
  4 23  1  0
  5 24  1  0
  9 25  1  0
 11 26  1  0
 12 27  1  0
 14 28  1  0
 14 29  1  0
 18 30  1  0
 19 31  1  0
M  END
>  <smiles>  (63) 
COc1ccc(N=c2[nH]c(=N)[nH]c(N)c2N=O)cc1

>  <score_type>  (63) 
oracle

>  <origin>  (63) 
adg

>  <m_score__min__energy>  (63) 
-5.6299999999999999

>  <m_primary>  (63) 
energy

$$$$
63:0
     RDKit          3D

 25 26  0  0  0  0  0  0  0  0999 V2000
   56.1190   29.3910   42.8230 O   0  0  0  0  0  0  0  0  0  0  0  0
   56.2730   29.4310   44.0620 N   0  0  0  0  0  0  0  0  0  0  0  0
   55.1640   29.3420   44.8710 O   0  0  0  0  0  0  0  0  0  0  0  0
   57.5890   29.3290   44.6260 C   0  0  0  0  0  0  0  0  0  0  0  0
   58.1520   28.0550   44.8220 C   0  0  0  0  0  0  0  0  0  0  0  0
   59.4140   27.9160   45.4010 C   0  0  0  0  0  0  0  0  0  0  0  0
   60.1330   29.0450   45.7880 C   0  0  0  0  0  0  0  0  0  0  0  0
   59.5990   30.3180   45.5850 C   0  0  0  0  0  0  0  0  0  0  0  0
   58.3330   30.4780   44.9950 C   0  0  0  0  0  0  0  0  0  0  0  0
   57.7550   32.1180   44.6640 S   0  0  0  0  0  0  0  0  0  0  0  0
   58.0470   32.4650   43.2310 O   0  0  0  0  0  0  0  0  0  0  0  0
   56.2720   32.2070   44.8930 O   0  0  0  0  0  0  0  0  0  0  0  0
   58.5370   33.2470   45.7200 N   0  0  0  0  0  0  0  0  0  0  0  0
   59.2720   34.3090   45.3470 C   0  0  0  0  0  0  0  0  0  0  0  0
   59.7250   34.9720   46.4700 C   0  0  0  0  0  0  0  0  0  0  0  0
   59.2360   34.2780   47.5630 C   0  0  0  0  0  0  0  0  0  0  0  0
   58.5050   33.2200   47.0630 C   0  0  0  0  0  0  0  0  0  0  0  0
   57.5918   27.1592   44.5158 H   0  0  0  0  0  0  0  0  0  0  0  0
   59.8417   26.9139   45.5521 H   0  0  0  0  0  0  0  0  0  0  0  0
   61.1230   28.9326   46.2542 H   0  0  0  0  0  0  0  0  0  0  0  0
   60.1741   31.2049   45.8895 H   0  0  0  0  0  0  0  0  0  0  0  0
   59.4802   34.6040   44.3080 H   0  0  0  0  0  0  0  0  0  0  0  0
   60.3521   35.8754   46.4918 H   0  0  0  0  0  0  0  0  0  0  0  0
   59.3984   34.5222   48.6232 H   0  0  0  0  0  0  0  0  0  0  0  0
   57.9773   32.4699   47.6703 H   0  0  0  0  0  0  0  0  0  0  0  0
  1  2  2  0
  2  3  1  0
  2  4  1  0
  4  5  2  0
  5  6  1  0
  6  7  2  0
  7  8  1  0
  8  9  2  0
  9 10  1  0
 10 11  2  0
 10 12  2  0
 10 13  1  0
 13 14  1  0
 14 15  2  0
 15 16  1  0
 16 17  2  0
  9  4  1  0
 17 13  1  0
  5 18  1  0
  6 19  1  0
  7 20  1  0
  8 21  1  0
 14 22  1  0
 15 23  1  0
 16 24  1  0
 17 25  1  0
M  CHG  2   2   1   3  -1
M  END
>  <UniqueID>  (64) 
61

>  <SMILES>  (64) 
O=[N+]([O-])c1ccccc1S(=O)(=O)n1cccc1

>  <Energy>  (64) 
58.93665406425108

>  <Genealogy>  (64) 
O=[N+]([O-])c1ccccc1S(=O)(=O)n1cccc1 (3D coordinates assigned)
O=[N+]([O-])c1ccccc1S(=O)(=O)n1cccc1 (optimized conformer: 58.93665406425108 kcal/mol)

>  <smiles>  (64) 
O=[N+]([O-])c1ccccc1S(=O)(=O)n1cccc1

>  <score_type>  (64) 
oracle

>  <origin>  (64) 
adg

>  <m_score__min__energy>  (64) 
-7.1600000000000001

>  <m_primary>  (64) 
energy

$$$$
64:0
     RDKit          3D

 58 61  0  0  1  0  0  0  0  0999 V2000
   61.3620   26.1670   52.1630 C   0  0  0  0  0  0  0  0  0  0  0  0
   61.3150   26.1480   50.7480 O   0  0  0  0  0  0  0  0  0  0  0  0
   60.7730   27.1830   50.0040 C   0  0  0  0  0  0  0  0  0  0  0  0
   60.5100   28.4270   50.5140 C   0  0  0  0  0  0  0  0  0  0  0  0
   59.9620   29.4220   49.7040 C   0  0  0  0  0  0  0  0  0  0  0  0
   59.6590   29.2270   48.3840 C   0  0  0  0  0  0  0  0  0  0  0  0
   59.1120   30.1530   47.4980 N   0  0  0  0  0  0  0  0  0  0  0  0
   59.7060   31.3400   46.9990 C   0  0  0  0  0  0  0  0  0  0  0  0
   60.8610   31.6000   47.3830 O   0  0  0  0  0  0  0  0  0  0  0  0
   58.9190   32.1490   46.0820 C   0  0  0  0  0  0  0  0  0  0  0  0
   59.1690   33.4920   45.8320 C   0  0  0  0  0  0  0  0  0  0  0  0
   60.2480   34.3660   46.3480 C   0  0  0  0  0  0  0  0  0  0  0  0
   58.2380   33.9710   44.9550 N   0  0  0  0  0  0  0  0  0  0  0  0
   57.4250   32.9840   44.6550 N   0  0  0  0  0  0  0  0  0  0  0  0
   57.8130   31.8490   45.3300 C   0  0  0  0  0  0  0  0  0  0  0  0
   57.1280   30.7870   45.2410 N   0  0  0  0  0  0  0  0  0  0  0  0
   57.6810   29.5230   45.0380 C   0  0  0  0  0  0  0  0  0  0  0  0
   58.9540   29.4390   44.4550 C   0  0  0  0  0  0  0  0  0  0  0  0
   59.5100   28.1890   44.3140 C   0  0  0  0  0  0  0  0  0  0  0  0
   58.8740   27.0260   44.7160 C   0  0  0  0  0  0  0  0  0  0  0  0
   57.6110   27.1180   45.2930 C   0  0  0  0  0  0  0  0  0  0  0  0
   56.8010   25.6460   45.8050 S   0  0  0  0  0  0  0  0  0  0  0  0
   57.2560   25.1650   47.1400 O   0  0  0  0  0  0  0  0  0  0  0  0
   55.3380   26.0280   45.9810 O   0  0  0  0  0  0  0  0  0  0  0  0
   56.8410   24.4160   44.6160 N   0  0  0  0  0  0  0  0  0  0  0  0
   55.5330   24.0830   44.1190 C   0  0  0  0  0  0  0  0  0  0  0  0
   55.6660   23.0620   43.0160 C   0  0  0  0  0  0  0  0  0  0  0  0
   56.2680   21.9220   43.5450 O   0  0  0  0  0  0  0  0  0  0  0  0
   57.5880   22.2740   43.8720 C   0  0  0  0  0  0  0  0  0  0  0  0
   57.6190   23.2800   45.0000 C   0  0  0  0  0  0  0  0  0  0  0  0
   57.0140   28.3610   45.4550 C   0  0  0  0  0  0  0  0  0  0  0  0
   59.9410   27.9390   47.8960 C   0  0  0  0  0  0  0  0  0  0  0  0
   60.4800   26.9570   48.6870 C   0  0  0  0  0  0  0  0  0  0  0  0
   60.4133   25.7835   52.5666 H   0  0  0  0  0  0  0  0  0  0  0  0
   62.1912   25.5334   52.5109 H   0  0  0  0  0  0  0  0  0  0  0  0
   61.5180   27.1988   52.5109 H   0  0  0  0  0  0  0  0  0  0  0  0
   60.7324   28.6428   51.5694 H   0  0  0  0  0  0  0  0  0  0  0  0
   59.7643   30.4092   50.1471 H   0  0  0  0  0  0  0  0  0  0  0  0
   58.1360   29.9510   47.1310 H   0  0  0  0  0  0  0  0  0  0  0  0
   60.2344   34.3550   47.4479 H   0  0  0  0  0  0  0  0  0  0  0  0
   61.2208   33.9981   45.9897 H   0  0  0  0  0  0  0  0  0  0  0  0
   60.0901   35.3939   45.9897 H   0  0  0  0  0  0  0  0  0  0  0  0
   58.1650   34.9500   44.5750 H   0  0  0  0  0  0  0  0  0  0  0  0
   56.6200   33.0840   43.9990 H   0  0  0  0  0  0  0  0  0  0  0  0
   59.4887   30.3409   44.1224 H   0  0  0  0  0  0  0  0  0  0  0  0
   60.5086   28.1089   43.8598 H   0  0  0  0  0  0  0  0  0  0  0  0
   59.3584   26.0476   44.5816 H   0  0  0  0  0  0  0  0  0  0  0  0
   54.9247   23.6658   44.9350 H   0  0  0  0  0  0  0  0  0  0  0  0
   55.0451   24.9879   43.7278 H   0  0  0  0  0  0  0  0  0  0  0  0
   54.6708   22.8083   42.6221 H   0  0  0  0  0  0  0  0  0  0  0  0
   56.2771   23.4674   42.1961 H   0  0  0  0  0  0  0  0  0  0  0  0
   58.1347   21.3708   44.1809 H   0  0  0  0  0  0  0  0  0  0  0  0
   58.0586   22.7267   42.9868 H   0  0  0  0  0  0  0  0  0  0  0  0
   57.1950   22.8303   45.9100 H   0  0  0  0  0  0  0  0  0  0  0  0
   58.6559   23.5850   45.2046 H   0  0  0  0  0  0  0  0  0  0  0  0
   56.0158   28.4351   45.9113 H   0  0  0  0  0  0  0  0  0  0  0  0
   59.7215   27.7109   46.8425 H   0  0  0  0  0  0  0  0  0  0  0  0
   60.6811   25.9663   48.2532 H   0  0  0  0  0  0  0  0  0  0  0  0
  1  2  1  0
  2  3  1  0
  3  4  2  0
  4  5  1  0
  5  6  2  0
  6  7  1  0
  7  8  1  0
  8  9  2  0
  8 10  1  0
 10 11  2  0
 11 12  1  0
 11 13  1  0
 13 14  1  0
 14 15  1  0
 15 16  2  0
 16 17  1  0
 17 18  2  0
 18 19  1  0
 19 20  2  0
 20 21  1  0
 21 22  1  0
 22 23  2  0
 22 24  2  0
 22 25  1  0
 25 26  1  0
 26 27  1  0
 27 28  1  0
 28 29  1  0
 29 30  1  0
 21 31  2  0
  6 32  1  0
 32 33  2  0
 33  3  1  0
 15 10  1  0
 31 17  1  0
 30 25  1  0
  1 34  1  0
  1 35  1  0
  1 36  1  0
  4 37  1  0
  5 38  1  0
  7 39  1  0
 12 40  1  0
 12 41  1  0
 12 42  1  0
 13 43  1  0
 14 44  1  0
 18 45  1  0
 19 46  1  0
 20 47  1  0
 26 48  1  0
 26 49  1  0
 27 50  1  0
 27 51  1  0
 29 52  1  0
 29 53  1  0
 30 54  1  0
 30 55  1  0
 31 56  1  0
 32 57  1  0
 33 58  1  0
M  END
>  <smiles>  (65) 
COc1ccc(NC(=O)c2c(C)[nH][nH]c2=Nc2cccc(S(=O)(=O)N3CCOCC3)c2)cc1

>  <score_type>  (65) 
oracle

>  <origin>  (65) 
adg

>  <m_score__min__energy>  (65) 
-10.880000000000001

>  <m_primary>  (65) 
energy

$$$$
65:0
     RDKit          3D

 31 33  0  0  0  0  0  0  0  0999 V2000
   56.7970   30.0820   43.0160 O   0  0  0  0  0  0  0  0  0  0  0  0
   56.7390   29.9240   44.5100 S   0  0  0  0  0  0  0  0  0  0  0  0
   55.5070   29.1450   44.8730 O   0  0  0  0  0  0  0  0  0  0  0  0
   56.6540   31.4940   45.2420 N   0  0  0  0  0  0  0  0  0  0  0  0
   57.7480   32.4190   45.3680 C   0  0  0  0  0  0  0  0  0  0  0  0
   57.9280   33.4640   44.4410 C   0  0  0  0  0  0  0  0  0  0  0  0
   58.9950   34.3530   44.5700 C   0  0  0  0  0  0  0  0  0  0  0  0
   59.8980   34.2230   45.6250 C   0  0  0  0  0  0  0  0  0  0  0  0
   59.7430   33.1930   46.5610 C   0  0  0  0  0  0  0  0  0  0  0  0
   60.6570   33.0570   47.6190 C   0  0  0  0  0  0  0  0  0  0  0  0
   60.5050   32.0290   48.5510 C   0  0  0  0  0  0  0  0  0  0  0  0
   59.4460   31.1280   48.4370 C   0  0  0  0  0  0  0  0  0  0  0  0
   58.5270   31.2510   47.3910 C   0  0  0  0  0  0  0  0  0  0  0  0
   58.6610   32.2810   46.4390 C   0  0  0  0  0  0  0  0  0  0  0  0
   58.1550   29.0590   45.1020 C   0  0  0  0  0  0  0  0  0  0  0  0
   59.4270   29.3350   44.5840 C   0  0  0  0  0  0  0  0  0  0  0  0
   60.5390   28.6450   45.0710 C   0  0  0  0  0  0  0  0  0  0  0  0
   60.3640   27.6850   46.0720 C   0  0  0  0  0  0  0  0  0  0  0  0
   59.1220   27.4280   46.5620 N   0  0  0  0  0  0  0  0  0  0  0  0
   58.0240   28.0880   46.1020 C   0  0  0  0  0  0  0  0  0  0  0  0
   57.2201   33.5802   43.6071 H   0  0  0  0  0  0  0  0  0  0  0  0
   59.1251   35.1614   43.8354 H   0  0  0  0  0  0  0  0  0  0  0  0
   60.7340   34.9313   45.7221 H   0  0  0  0  0  0  0  0  0  0  0  0
   61.4953   33.7629   47.7134 H   0  0  0  0  0  0  0  0  0  0  0  0
   61.2229   31.9290   49.3784 H   0  0  0  0  0  0  0  0  0  0  0  0
   59.3338   30.3180   49.1728 H   0  0  0  0  0  0  0  0  0  0  0  0
   57.6930   30.5383   47.3105 H   0  0  0  0  0  0  0  0  0  0  0  0
   59.5494   30.0928   43.7962 H   0  0  0  0  0  0  0  0  0  0  0  0
   61.5421   28.8546   44.6712 H   0  0  0  0  0  0  0  0  0  0  0  0
   61.2330   27.1363   46.4641 H   0  0  0  0  0  0  0  0  0  0  0  0
   57.0316   27.8579   46.5169 H   0  0  0  0  0  0  0  0  0  0  0  0
  1  2  2  0
  2  3  2  0
  2  4  1  0
  4  5  1  0
  5  6  2  0
  6  7  1  0
  7  8  2  0
  8  9  1  0
  9 10  2  0
 10 11  1  0
 11 12  2  0
 12 13  1  0
 13 14  2  0
  2 15  1  0
 15 16  2  0
 16 17  1  0
 17 18  2  0
 18 19  1  0
 19 20  2  0
 14  5  1  0
 20 15  1  0
 14  9  1  0
  6 21  1  0
  7 22  1  0
  8 23  1  0
 10 24  1  0
 11 25  1  0
 12 26  1  0
 13 27  1  0
 16 28  1  0
 17 29  1  0
 18 30  1  0
 20 31  1  0
M  CHG  1   4  -1
M  END
>  <UniqueID>  (66) 
62

>  <SMILES>  (66) 
O=S(=O)([N-]c1cccc2ccccc12)c1cccnc1

>  <Energy>  (66) 
42.23222341106506

>  <Genealogy>  (66) 
O=S(=O)([N-]c1cccc2ccccc12)c1cccnc1 (protonated)
O=S(=O)([N-]c1cccc2ccccc12)c1cccnc1 (3D coordinates assigned)
O=S(=O)([N-]c1cccc2ccccc12)c1cccnc1 (optimized conformer: 42.23222341106506 kcal/mol)

>  <smiles>  (66) 
O=S(=O)(Nc1cccc2ccccc12)c1cccnc1

>  <score_type>  (66) 
oracle

>  <origin>  (66) 
adg

>  <m_score__min__energy>  (66) 
-9.3499999999999996

>  <m_primary>  (66) 
energy

$$$$
66:0
     RDKit          3D

 61 65  0  0  0  0  0  0  0  0999 V2000
   57.0160   33.4620   44.5190 O   0  0  0  0  0  0  0  0  0  0  0  0
   57.6740   32.6640   45.2400 C   0  0  0  0  0  0  0  0  0  0  0  0
   58.6290   33.2070   46.2320 C   0  0  0  0  0  0  0  0  0  0  0  0
   59.7980   33.8680   45.8150 C   0  0  0  0  0  0  0  0  0  0  0  0
   60.6920   34.3540   46.7710 C   0  0  0  0  0  0  0  0  0  0  0  0
   60.4230   34.1750   48.1270 C   0  0  0  0  0  0  0  0  0  0  0  0
   59.2620   33.5010   48.5100 C   0  0  0  0  0  0  0  0  0  0  0  0
   58.4040   33.0330   47.5650 N   0  0  0  0  0  0  0  0  0  0  0  0
   57.4730   31.2120   45.0430 C   0  0  0  0  0  0  0  0  0  0  0  0
   56.7330   30.6200   44.0220 C   0  0  0  0  0  0  0  0  0  0  0  0
   56.7260   29.2730   44.1500 N   0  0  0  0  0  0  0  0  0  0  0  0
   57.4380   29.0000   45.2600 C   0  0  0  0  0  0  0  0  0  0  0  0
   57.7260   27.7530   45.8320 C   0  0  0  0  0  0  0  0  0  0  0  0
   57.2290   26.4830   45.2600 C   0  0  0  0  0  0  0  0  0  0  0  0
   56.2120   25.7590   45.9010 C   0  0  0  0  0  0  0  0  0  0  0  0
   55.7650   24.5470   45.3670 C   0  0  0  0  0  0  0  0  0  0  0  0
   56.3250   24.0380   44.1890 C   0  0  0  0  0  0  0  0  0  0  0  0
   55.8430   22.7820   43.6910 N   0  0  0  0  0  0  0  0  0  0  0  0
   56.6960   21.2720   43.7570 S   0  0  0  0  0  0  0  0  0  0  0  0
   55.9340   20.2210   42.9990 O   0  0  0  0  0  0  0  0  0  0  0  0
   58.0380   21.4480   43.1050 O   0  0  0  0  0  0  0  0  0  0  0  0
   56.9260   20.7610   45.4580 C   0  0  0  0  0  0  0  0  0  0  0  0
   57.5310   21.8860   46.3110 C   0  0  0  0  0  0  0  0  0  0  0  0
   57.1230   21.7890   47.7310 N   0  0  0  0  0  0  0  0  0  0  0  0
   56.2880   20.5830   47.9790 C   0  0  0  0  0  0  0  0  0  0  0  0
   55.4490   20.7160   49.2560 C   0  0  0  0  0  0  0  0  0  0  0  0
   54.4660   21.8930   49.1530 C   0  0  0  0  0  0  0  0  0  0  0  0
   54.9780   23.0100   48.2270 C   0  0  0  0  0  0  0  0  0  0  0  0
   56.5120   23.0570   48.2150 C   0  0  0  0  0  0  0  0  0  0  0  0
   57.3450   24.7610   43.5460 C   0  0  0  0  0  0  0  0  0  0  0  0
   57.7970   25.9710   44.0830 C   0  0  0  0  0  0  0  0  0  0  0  0
   58.5180   27.7550   47.0020 C   0  0  0  0  0  0  0  0  0  0  0  0
   58.9570   28.9760   47.5570 C   0  0  0  0  0  0  0  0  0  0  0  0
   58.6400   30.1620   46.9620 N   0  0  0  0  0  0  0  0  0  0  0  0
   57.9060   30.1550   45.8210 C   0  0  0  0  0  0  0  0  0  0  0  0
   60.0066   34.0012   44.7432 H   0  0  0  0  0  0  0  0  0  0  0  0
   61.6066   34.8770   46.4548 H   0  0  0  0  0  0  0  0  0  0  0  0
   61.1182   34.5607   48.8872 H   0  0  0  0  0  0  0  0  0  0  0  0
   59.0413   33.3485   49.5768 H   0  0  0  0  0  0  0  0  0  0  0  0
   56.2229   31.1732   43.2196 H   0  0  0  0  0  0  0  0  0  0  0  0
   56.2650   28.5950   43.5050 H   0  0  0  0  0  0  0  0  0  0  0  0
   55.7645   26.1470   46.8279 H   0  0  0  0  0  0  0  0  0  0  0  0
   54.9663   23.9882   45.8767 H   0  0  0  0  0  0  0  0  0  0  0  0
   55.9505   20.4782   45.8805 H   0  0  0  0  0  0  0  0  0  0  0  0
   57.6218   19.9091   45.4696 H   0  0  0  0  0  0  0  0  0  0  0  0
   58.6277   21.8252   46.2521 H   0  0  0  0  0  0  0  0  0  0  0  0
   57.1628   22.8449   45.9175 H   0  0  0  0  0  0  0  0  0  0  0  0
   55.6118   20.4375   47.1237 H   0  0  0  0  0  0  0  0  0  0  0  0
   56.9627   19.7233   48.1045 H   0  0  0  0  0  0  0  0  0  0  0  0
   54.8814   19.7866   49.4112 H   0  0  0  0  0  0  0  0  0  0  0  0
   56.1276   20.9009   50.1018 H   0  0  0  0  0  0  0  0  0  0  0  0
   53.5090   21.5198   48.7595 H   0  0  0  0  0  0  0  0  0  0  0  0
   54.3505   22.3207   50.1599 H   0  0  0  0  0  0  0  0  0  0  0  0
   54.6161   22.8237   47.2051 H   0  0  0  0  0  0  0  0  0  0  0  0
   54.6015   23.9738   48.6004 H   0  0  0  0  0  0  0  0  0  0  0  0
   56.8336   23.8765   47.5555 H   0  0  0  0  0  0  0  0  0  0  0  0
   56.8472   23.2124   49.2511 H   0  0  0  0  0  0  0  0  0  0  0  0
   57.7893   24.3738   42.6172 H   0  0  0  0  0  0  0  0  0  0  0  0
   58.6030   26.5250   43.5795 H   0  0  0  0  0  0  0  0  0  0  0  0
   58.7928   26.8036   47.4809 H   0  0  0  0  0  0  0  0  0  0  0  0
   59.5598   28.9714   48.4771 H   0  0  0  0  0  0  0  0  0  0  0  0
  1  2  2  0
  2  3  1  0
  3  4  2  0
  4  5  1  0
  5  6  2  0
  6  7  1  0
  7  8  2  0
  2  9  1  0
  9 10  2  0
 10 11  1  0
 11 12  1  0
 12 13  2  0
 13 14  1  0
 14 15  2  0
 15 16  1  0
 16 17  2  0
 17 18  1  0
 18 19  1  0
 19 20  2  0
 19 21  2  0
 19 22  1  0
 22 23  1  0
 23 24  1  0
 24 25  1  0
 25 26  1  0
 26 27  1  0
 27 28  1  0
 28 29  1  0
 17 30  1  0
 30 31  2  0
 13 32  1  0
 32 33  2  0
 33 34  1  0
 34 35  2  0
  8  3  1  0
 35  9  1  0
 35 12  1  0
 31 14  1  0
 29 24  1  0
  4 36  1  0
  5 37  1  0
  6 38  1  0
  7 39  1  0
 10 40  1  0
 11 41  1  0
 15 42  1  0
 16 43  1  0
 22 44  1  0
 22 45  1  0
 23 46  1  0
 23 47  1  0
 25 48  1  0
 25 49  1  0
 26 50  1  0
 26 51  1  0
 27 52  1  0
 27 53  1  0
 28 54  1  0
 28 55  1  0
 29 56  1  0
 29 57  1  0
 30 58  1  0
 31 59  1  0
 32 60  1  0
 33 61  1  0
M  CHG  1  18  -1
M  END
>  <UniqueID>  (67) 
63

>  <SMILES>  (67) 
O=C(c1ccccn1)c1c[nH]c2c(-c3ccc([N-]S(=O)(=O)CCN4CCCCC4)cc3)ccnc12

>  <Energy>  (67) 
117.48974367277054

>  <Genealogy>  (67) 
O=C(c1ccccn1)c1c[nH]c2c(-c3ccc([N-]S(=O)(=O)CCN4CCCCC4)cc3)ccnc12 (protonated)
O=C(c1ccccn1)c1c[nH]c2c(-c3ccc([N-]S(=O)(=O)CCN4CCCCC4)cc3)ccnc12 (3D coordinates assigned)
O=C(c1ccccn1)c1c[nH]c2c(-c3ccc([N-]S(=O)(=O)CCN4CCCCC4)cc3)ccnc12 (nonaromatic ring conformer: 117.48974367277054 kcal/mol)

>  <smiles>  (67) 
O=C(c1ccccn1)c1c[nH]c2c(-c3ccc(NS(=O)(=O)CCN4CCCCC4)cc3)ccnc12

>  <score_type>  (67) 
oracle

>  <origin>  (67) 
adg

>  <m_score__min__energy>  (67) 
-10.789999999999999

>  <m_primary>  (67) 
energy

$$$$
67:0
     RDKit          3D

 57 60  0  0  0  0  0  0  0  0999 V2000
   57.8140   26.6590   43.6220 C   0  0  0  0  0  0  0  0  0  0  0  0
   58.2270   27.9890   44.1860 C   0  0  0  0  0  0  0  0  0  0  0  0
   59.5400   28.1750   44.6600 C   0  0  0  0  0  0  0  0  0  0  0  0
   59.9420   29.4160   45.1700 C   0  0  0  0  0  0  0  0  0  0  0  0
   59.0310   30.4860   45.2010 C   0  0  0  0  0  0  0  0  0  0  0  0
   59.3910   31.7360   45.7140 C   0  0  0  0  0  0  0  0  0  0  0  0
   58.4420   32.7670   45.7630 C   0  0  0  0  0  0  0  0  0  0  0  0
   58.8300   34.1190   46.3160 C   0  0  0  0  0  0  0  0  0  0  0  0
   59.9900   33.9970   47.2710 C   0  0  0  0  0  0  0  0  0  0  0  0
   61.2980   33.8700   46.7800 C   0  0  0  0  0  0  0  0  0  0  0  0
   62.3780   33.7820   47.6640 C   0  0  0  0  0  0  0  0  0  0  0  0
   62.1740   33.8530   49.0540 C   0  0  0  0  0  0  0  0  0  0  0  0
   63.3590   33.7320   50.0030 C   0  0  0  0  0  0  0  0  0  0  0  0
   64.0240   32.3960   50.0070 N   0  0  2  0  0  0  0  0  0  0  0  0
   65.3920   32.5540   50.5630 C   0  0  0  0  0  0  0  0  0  0  0  0
   64.1540   31.9960   48.7040 O   0  0  0  0  0  0  0  0  0  0  0  0
   63.2430   31.3490   50.7400 C   0  0  0  0  0  0  0  0  0  0  0  0
   61.9640   30.8960   50.0550 C   0  0  0  0  0  0  0  0  0  0  0  0
   61.9220   30.6940   48.6610 C   0  0  0  0  0  0  0  0  0  0  0  0
   60.7440   30.2670   48.0430 C   0  0  0  0  0  0  0  0  0  0  0  0
   59.5800   30.0840   48.7980 C   0  0  0  0  0  0  0  0  0  0  0  0
   59.5890   30.3570   50.1700 C   0  0  0  0  0  0  0  0  0  0  0  0
   58.3800   30.2270   50.9430 C   0  0  0  0  0  0  0  0  0  0  0  0
   57.4130   30.1240   51.5690 N   0  0  0  0  0  0  0  0  0  0  0  0
   60.7730   30.7740   50.7910 C   0  0  0  0  0  0  0  0  0  0  0  0
   60.8550   33.9270   49.5420 C   0  0  0  0  0  0  0  0  0  0  0  0
   59.7750   34.0170   48.6590 C   0  0  0  0  0  0  0  0  0  0  0  0
   57.1500   32.5100   45.2540 C   0  0  0  0  0  0  0  0  0  0  0  0
   56.2680   33.4110   45.2460 O   0  0  0  0  0  0  0  0  0  0  0  0
   56.8450   31.3100   44.7640 O   0  0  0  0  0  0  0  0  0  0  0  0
   57.7180   30.3060   44.7220 C   0  0  0  0  0  0  0  0  0  0  0  0
   57.3230   29.0640   44.2080 C   0  0  0  0  0  0  0  0  0  0  0  0
   57.5978   25.9627   44.4456 H   0  0  0  0  0  0  0  0  0  0  0  0
   56.9132   26.7867   43.0037 H   0  0  0  0  0  0  0  0  0  0  0  0
   58.6287   26.2540   43.0037 H   0  0  0  0  0  0  0  0  0  0  0  0
   60.2550   27.3396   44.6295 H   0  0  0  0  0  0  0  0  0  0  0  0
   60.9670   29.5528   45.5450 H   0  0  0  0  0  0  0  0  0  0  0  0
   60.4145   31.9098   46.0776 H   0  0  0  0  0  0  0  0  0  0  0  0
   59.1162   34.7796   45.4843 H   0  0  0  0  0  0  0  0  0  0  0  0
   57.9696   34.5363   46.8597 H   0  0  0  0  0  0  0  0  0  0  0  0
   61.4749   33.8395   45.6947 H   0  0  0  0  0  0  0  0  0  0  0  0
   63.3967   33.6561   47.2686 H   0  0  0  0  0  0  0  0  0  0  0  0
   64.1067   34.4855   49.7145 H   0  0  0  0  0  0  0  0  0  0  0  0
   62.9601   33.8822   51.0170 H   0  0  0  0  0  0  0  0  0  0  0  0
   65.3440   32.5485   51.6619 H   0  0  0  0  0  0  0  0  0  0  0  0
   66.0257   31.7231   50.2194 H   0  0  0  0  0  0  0  0  0  0  0  0
   65.8196   33.5075   50.2194 H   0  0  0  0  0  0  0  0  0  0  0  0
   64.8800   32.5280   48.2750 H   0  0  0  0  0  0  0  0  0  0  0  0
   63.8904   30.4689   50.8677 H   0  0  0  0  0  0  0  0  0  0  0  0
   62.9334   31.8091   51.6900 H   0  0  0  0  0  0  0  0  0  0  0  0
   62.8226   30.8737   48.0555 H   0  0  0  0  0  0  0  0  0  0  0  0
   60.7314   30.0741   46.9601 H   0  0  0  0  0  0  0  0  0  0  0  0
   58.6596   29.7261   48.3135 H   0  0  0  0  0  0  0  0  0  0  0  0
   60.7707   31.0084   51.8657 H   0  0  0  0  0  0  0  0  0  0  0  0
   60.6731   33.9139   50.6268 H   0  0  0  0  0  0  0  0  0  0  0  0
   58.7517   34.1039   49.0531 H   0  0  0  0  0  0  0  0  0  0  0  0
   56.3022   28.9303   43.8206 H   0  0  0  0  0  0  0  0  0  0  0  0
  1  2  1  0
  2  3  2  0
  3  4  1  0
  4  5  2  0
  5  6  1  0
  6  7  2  0
  7  8  1  0
  8  9  1  0
  9 10  2  0
 10 11  1  0
 11 12  2  0
 12 13  1  0
 13 14  1  0
 14 15  1  0
 14 16  1  6
 14 17  1  0
 17 18  1  0
 18 19  2  0
 19 20  1  0
 20 21  2  0
 21 22  1  0
 22 23  1  0
 23 24  3  0
 22 25  2  0
 12 26  1  0
 26 27  2  0
  7 28  1  0
 28 29  2  0
 28 30  1  0
 30 31  1  0
 31 32  2  0
 32  2  1  0
 31  5  1  0
 27  9  1  0
 25 18  1  0
  1 33  1  0
  1 34  1  0
  1 35  1  0
  3 36  1  0
  4 37  1  0
  6 38  1  0
  8 39  1  0
  8 40  1  0
 10 41  1  0
 11 42  1  0
 13 43  1  0
 13 44  1  0
 15 45  1  0
 15 46  1  0
 15 47  1  0
 16 48  1  0
 17 49  1  0
 17 50  1  0
 19 51  1  0
 20 52  1  0
 21 53  1  0
 25 54  1  0
 26 55  1  0
 27 56  1  0
 32 57  1  0
M  CHG  1  14   1
M  END
>  <UniqueID>  (68) 
64

>  <SMILES>  (68) 
Cc1ccc2cc(Cc3ccc(C[N@+](C)(O)Cc4cccc(C#N)c4)cc3)c(=O)oc2c1

>  <Energy>  (68) 
75.70270599657461

>  <Genealogy>  (68) 
Cc1ccc2cc(Cc3ccc(C[N+](C)(O)Cc4cccc(C#N)c4)cc3)c(=O)oc2c1 (protonated)
Cc1ccc2cc(Cc3ccc(C[N@+](C)(O)Cc4cccc(C#N)c4)cc3)c(=O)oc2c1 (chirality)
Cc1ccc2cc(Cc3ccc(C[N@+](C)(O)Cc4cccc(C#N)c4)cc3)c(=O)oc2c1 (3D coordinates assigned)
Cc1ccc2cc(Cc3ccc(C[N@+](C)(O)Cc4cccc(C#N)c4)cc3)c(=O)oc2c1 (optimized conformer: 75.70270599657461 kcal/mol)

>  <smiles>  (68) 
Cc1ccc2cc(Cc3ccc(C[N+](C)([O-])Cc4cccc(C#N)c4)cc3)c(=O)oc2c1

>  <score_type>  (68) 
oracle

>  <origin>  (68) 
adg

>  <m_score__min__energy>  (68) 
-8.9199999999999999

>  <m_primary>  (68) 
energy

$$$$
68:0
     RDKit          3D

 61 66  0  0  0  0  0  0  0  0999 V2000
   60.4670   33.9660   46.9400 C   0  0  0  0  0  0  0  0  0  0  0  0
   61.6710   33.0320   46.7540 C   0  0  1  0  0  0  0  0  0  0  0  0
   62.9550   33.8640   46.5940 C   0  0  0  0  0  0  0  0  0  0  0  0
   64.1000   33.0810   46.8450 O   0  0  0  0  0  0  0  0  0  0  0  0
   64.1390   32.7670   48.2180 C   0  0  0  0  0  0  0  0  0  0  0  0
   63.0240   31.7850   48.5810 C   0  0  0  0  0  0  0  0  0  0  0  0
   61.7710   32.0700   47.8720 N   0  0  0  0  0  0  0  0  0  0  0  0
   60.6490   31.2250   48.1670 C   0  0  0  0  0  0  0  0  0  0  0  0
   60.1800   30.3920   47.2010 N   0  0  0  0  0  0  0  0  0  0  0  0
   59.1140   29.5740   47.4120 C   0  0  0  0  0  0  0  0  0  0  0  0
   58.6570   28.6630   46.3380 C   0  0  0  0  0  0  0  0  0  0  0  0
   58.8480   27.2670   46.4610 C   0  0  0  0  0  0  0  0  0  0  0  0
   58.3960   26.3720   45.4570 C   0  0  0  0  0  0  0  0  0  0  0  0
   58.6040   24.9130   45.6120 C   0  0  0  0  0  0  0  0  0  0  0  0
   59.6000   24.4930   46.2640 O   0  0  0  0  0  0  0  0  0  0  0  0
   57.7030   23.9660   45.0140 N   0  0  0  0  0  0  0  0  0  0  0  0
   56.2760   24.0090   45.3440 C   0  0  0  0  0  0  0  0  0  0  0  0
   55.4660   23.3760   44.2090 C   0  0  0  0  0  0  0  0  0  0  0  0
   55.9590   22.0850   43.8960 O   0  0  0  0  0  0  0  0  0  0  0  0
   57.2800   22.1830   43.3960 C   0  0  0  0  0  0  0  0  0  0  0  0
   58.2310   22.7120   44.4730 C   0  0  0  0  0  0  0  0  0  0  0  0
   57.7750   26.8830   44.2970 C   0  0  0  0  0  0  0  0  0  0  0  0
   57.6030   28.2590   44.1920 C   0  0  0  0  0  0  0  0  0  0  0  0
   57.0600   28.9240   43.1600 N   0  0  0  0  0  0  0  0  0  0  0  0
   57.1400   30.2350   43.4790 C   0  0  0  0  0  0  0  0  0  0  0  0
   57.7360   30.4010   44.7230 C   0  0  0  0  0  0  0  0  0  0  0  0
   58.0220   29.1230   45.1730 C   0  0  0  0  0  0  0  0  0  0  0  0
   58.4960   29.5780   48.6230 N   0  0  0  0  0  0  0  0  0  0  0  0
   58.9160   30.3880   49.6280 C   0  0  0  0  0  0  0  0  0  0  0  0
   58.2540   30.3700   50.8610 C   0  0  0  0  0  0  0  0  0  0  0  0
   58.6840   31.2040   51.8980 C   0  0  0  0  0  0  0  0  0  0  0  0
   57.7770   31.1850   53.5760 Br  0  0  0  0  0  0  0  0  0  0  0  0
   59.7780   32.0540   51.7060 C   0  0  0  0  0  0  0  0  0  0  0  0
   60.4450   32.0790   50.4780 C   0  0  0  0  0  0  0  0  0  0  0  0
   60.0200   31.2440   49.4280 C   0  0  0  0  0  0  0  0  0  0  0  0
   60.2787   34.1121   48.0139 H   0  0  0  0  0  0  0  0  0  0  0  0
   60.6803   34.9373   46.4697 H   0  0  0  0  0  0  0  0  0  0  0  0
   59.5793   33.5179   46.4697 H   0  0  0  0  0  0  0  0  0  0  0  0
   61.5311   32.4409   45.8369 H   0  0  0  0  0  0  0  0  0  0  0  0
   63.0046   34.2546   45.5669 H   0  0  0  0  0  0  0  0  0  0  0  0
   62.9297   34.6899   47.3201 H   0  0  0  0  0  0  0  0  0  0  0  0
   65.1119   32.3127   48.4568 H   0  0  0  0  0  0  0  0  0  0  0  0
   63.9970   33.6920   48.7960 H   0  0  0  0  0  0  0  0  0  0  0  0
   63.3521   30.7674   48.3223 H   0  0  0  0  0  0  0  0  0  0  0  0
   62.8283   31.8852   49.6588 H   0  0  0  0  0  0  0  0  0  0  0  0
   59.3562   26.8679   47.3512 H   0  0  0  0  0  0  0  0  0  0  0  0
   56.0988   23.4511   46.2753 H   0  0  0  0  0  0  0  0  0  0  0  0
   55.9633   25.0553   45.4759 H   0  0  0  0  0  0  0  0  0  0  0  0
   54.4138   23.2944   44.5193 H   0  0  0  0  0  0  0  0  0  0  0  0
   55.5546   24.0124   43.3162 H   0  0  0  0  0  0  0  0  0  0  0  0
   57.6184   21.1872   43.0736 H   0  0  0  0  0  0  0  0  0  0  0  0
   57.2847   22.8824   42.5470 H   0  0  0  0  0  0  0  0  0  0  0  0
   58.3183   21.9713   45.2816 H   0  0  0  0  0  0  0  0  0  0  0  0
   59.2228   22.8905   44.0321 H   0  0  0  0  0  0  0  0  0  0  0  0
   57.4356   26.2097   43.4961 H   0  0  0  0  0  0  0  0  0  0  0  0
   56.6690   28.5180   42.2810 H   0  0  0  0  0  0  0  0  0  0  0  0
   56.7825   31.0571   42.8416 H   0  0  0  0  0  0  0  0  0  0  0  0
   57.9384   31.3495   45.2420 H   0  0  0  0  0  0  0  0  0  0  0  0
   57.3954   29.6998   51.0144 H   0  0  0  0  0  0  0  0  0  0  0  0
   60.1151   32.7059   52.5254 H   0  0  0  0  0  0  0  0  0  0  0  0
   61.3029   32.7519   50.3322 H   0  0  0  0  0  0  0  0  0  0  0  0
  1  2  1  0
  2  3  1  0
  3  4  1  0
  4  5  1  0
  5  6  1  0
  6  7  1  0
  7  8  1  0
  8  9  2  0
  9 10  1  0
 10 11  1  0
 11 12  2  0
 12 13  1  0
 13 14  1  0
 14 15  2  0
 14 16  1  0
 16 17  1  0
 17 18  1  0
 18 19  1  0
 19 20  1  0
 20 21  1  0
 13 22  2  0
 22 23  1  0
 23 24  1  0
 24 25  1  0
 25 26  2  0
 26 27  1  0
 10 28  2  0
 28 29  1  0
 29 30  2  0
 30 31  1  0
 31 32  1  0
 31 33  2  0
 33 34  1  0
 34 35  2  0
  7  2  1  0
 35  8  1  0
 27 11  1  0
 35 29  1  0
 21 16  1  0
 27 23  2  0
  1 36  1  0
  1 37  1  0
  1 38  1  0
  2 39  1  6
  3 40  1  0
  3 41  1  0
  5 42  1  0
  5 43  1  0
  6 44  1  0
  6 45  1  0
 12 46  1  0
 17 47  1  0
 17 48  1  0
 18 49  1  0
 18 50  1  0
 20 51  1  0
 20 52  1  0
 21 53  1  0
 21 54  1  0
 22 55  1  0
 24 56  1  0
 25 57  1  0
 26 58  1  0
 30 59  1  0
 33 60  1  0
 34 61  1  0
M  END
>  <UniqueID>  (69) 
65

>  <SMILES>  (69) 
C[C@H]1COCCN1c1nc(-c2cc(C(=O)N3CCOCC3)cc3[nH]ccc23)nc2cc(Br)ccc12

>  <Energy>  (69) 
119.33643445973459

>  <Genealogy>  (69) 
C[C@H]1COCCN1c1nc(-c2cc(C(=O)N3CCOCC3)cc3[nH]ccc23)nc2cc(Br)ccc12 (chirality)
C[C@H]1COCCN1c1nc(-c2cc(C(=O)N3CCOCC3)cc3[nH]ccc23)nc2cc(Br)ccc12 (3D coordinates assigned)
C[C@H]1COCCN1c1nc(-c2cc(C(=O)N3CCOCC3)cc3[nH]ccc23)nc2cc(Br)ccc12 (nonaromatic ring conformer: 119.33643445973459 kcal/mol)

>  <smiles>  (69) 
CC1COCCN1c1nc(-c2cc(C(=O)N3CCOCC3)cc3[nH]ccc23)nc2cc(Br)ccc12

>  <score_type>  (69) 
oracle

>  <origin>  (69) 
adg

>  <m_score__min__energy>  (69) 
-9.5199999999999996

>  <m_primary>  (69) 
energy

$$$$
69:0
     RDKit          3D

 26 26  0  0  0  0  0  0  0  0999 V2000
   57.9730   29.6690   52.3520 C   0  0  0  0  0  0  0  0  0  0  0  0
   56.9710   30.7920   52.4070 C   0  0  0  0  0  0  0  0  0  0  0  0
   57.2230   31.9940   51.6480 S   0  0  0  0  0  0  0  0  0  0  0  0
   55.8140   30.6960   53.2710 N   0  0  0  0  0  0  0  0  0  0  0  0
   55.3130   29.3140   53.2980 C   0  0  0  0  0  0  0  0  0  0  0  0
   54.3210   29.0720   52.1530 C   0  0  0  0  0  0  0  0  0  0  0  0
   53.2730   30.1540   52.1220 C   0  0  0  0  0  0  0  0  0  0  0  0
   52.4150   30.3400   53.2190 C   0  0  0  0  0  0  0  0  0  0  0  0
   51.4230   31.3240   53.1770 C   0  0  0  0  0  0  0  0  0  0  0  0
   51.2720   32.1200   52.0370 C   0  0  0  0  0  0  0  0  0  0  0  0
   50.2830   33.0960   51.9970 O   0  0  0  0  0  0  0  0  0  0  0  0
   52.1140   31.9310   50.9370 C   0  0  0  0  0  0  0  0  0  0  0  0
   53.1080   30.9480   50.9760 C   0  0  0  0  0  0  0  0  0  0  0  0
   58.2422   29.3673   53.3750 H   0  0  0  0  0  0  0  0  0  0  0  0
   57.5342   28.8118   51.8204 H   0  0  0  0  0  0  0  0  0  0  0  0
   58.8745   30.0077   51.8204 H   0  0  0  0  0  0  0  0  0  0  0  0
   55.0650   31.3310   52.9080 H   0  0  0  0  0  0  0  0  0  0  0  0
   56.0500   31.0090   54.2430 H   0  0  0  0  0  0  0  0  0  0  0  0
   56.1607   28.6209   53.1933 H   0  0  0  0  0  0  0  0  0  0  0  0
   54.7961   29.1448   54.2542 H   0  0  0  0  0  0  0  0  0  0  0  0
   54.8657   29.0688   51.1973 H   0  0  0  0  0  0  0  0  0  0  0  0
   53.8256   28.1028   52.3118 H   0  0  0  0  0  0  0  0  0  0  0  0
   52.5242   29.7094   54.1136 H   0  0  0  0  0  0  0  0  0  0  0  0
   50.7600   31.4725   54.0421 H   0  0  0  0  0  0  0  0  0  0  0  0
   51.9945   32.5562   50.0399 H   0  0  0  0  0  0  0  0  0  0  0  0
   53.7631   30.7964   50.1054 H   0  0  0  0  0  0  0  0  0  0  0  0
  1  2  1  0
  2  3  2  0
  2  4  1  0
  4  5  1  0
  5  6  1  0
  6  7  1  0
  7  8  2  0
  8  9  1  0
  9 10  2  0
 10 11  1  0
 10 12  1  0
 12 13  2  0
 13  7  1  0
  1 14  1  0
  1 15  1  0
  1 16  1  0
  4 17  1  0
  4 18  1  0
  5 19  1  0
  5 20  1  0
  6 21  1  0
  6 22  1  0
  8 23  1  0
  9 24  1  0
 12 25  1  0
 13 26  1  0
M  CHG  2   4   1  11  -1
M  END
>  <UniqueID>  (70) 
66

>  <SMILES>  (70) 
CC(=S)[NH2+]CCc1ccc([O-])cc1

>  <Energy>  (70) 
20.542892020765503

>  <Genealogy>  (70) 
CC(=S)[NH2+]CCc1ccc([O-])cc1 (protonated)
CC(=S)[NH2+]CCc1ccc([O-])cc1 (3D coordinates assigned)
CC(=S)[NH2+]CCc1ccc([O-])cc1 (optimized conformer: 20.542892020765503 kcal/mol)

>  <smiles>  (70) 
CC(=S)NCCc1ccc(O)cc1

>  <score_type>  (70) 
oracle

>  <origin>  (70) 
adg

>  <m_score__min__energy>  (70) 
-7.7699999999999996

>  <m_primary>  (70) 
energy

$$$$
70:0
     RDKit          3D

 53 56  0  0  0  0  0  0  0  0999 V2000
   62.2338   32.0867   53.3319 H   0  0  0  0  0  0  0  0  0  0  0  0
   61.9540   31.8670   52.2910 C   0  0  0  0  0  0  0  0  0  0  0  0
   62.9010   31.4670   51.4380 C   0  0  0  0  0  0  0  0  0  0  0  0
   63.9498   31.4333   51.7679 H   0  0  0  0  0  0  0  0  0  0  0  0
   62.5680   31.0810   50.0980 N   0  0  0  0  0  0  0  0  0  0  0  0
   62.1200   30.1520   49.9260 H   0  0  0  0  0  0  0  0  0  0  0  0
   62.5290   32.0620   49.0570 C   0  0  0  0  0  0  0  0  0  0  0  0
   63.6260   32.2120   48.1980 C   0  0  0  0  0  0  0  0  0  0  0  0
   64.5431   31.6298   48.3712 H   0  0  0  0  0  0  0  0  0  0  0  0
   63.5560   33.1010   47.1210 C   0  0  0  0  0  0  0  0  0  0  0  0
   64.4139   33.2077   46.4408 H   0  0  0  0  0  0  0  0  0  0  0  0
   62.3990   33.8540   46.9070 C   0  0  0  0  0  0  0  0  0  0  0  0
   62.3385   34.5341   46.0445 H   0  0  0  0  0  0  0  0  0  0  0  0
   61.3160   33.7450   47.7880 C   0  0  0  0  0  0  0  0  0  0  0  0
   59.8670   34.7760   47.5400 S   0  0  0  0  0  0  0  0  0  0  0  0
   59.0040   33.5450   46.5630 C   0  0  0  0  0  0  0  0  0  0  0  0
   57.6240   33.6700   46.3730 C   0  0  0  0  0  0  0  0  0  0  0  0
   57.0846   34.5191   46.8180 H   0  0  0  0  0  0  0  0  0  0  0  0
   56.9290   32.7230   45.6220 C   0  0  0  0  0  0  0  0  0  0  0  0
   55.8479   32.8412   45.4572 H   0  0  0  0  0  0  0  0  0  0  0  0
   57.6040   31.6170   45.0740 C   0  0  0  0  0  0  0  0  0  0  0  0
   56.9190   30.6170   44.3040 N   0  0  0  0  0  0  0  0  0  0  0  0
   56.3380   29.4130   44.8170 C   0  0  0  0  0  0  0  0  0  0  0  0
   55.0870   29.3390   44.9260 O   0  0  0  0  0  0  0  0  0  0  0  0
   57.1730   28.3140   45.2080 N   0  0  0  0  0  0  0  0  0  0  0  0
   58.0490   28.2280   46.3410 C   0  0  0  0  0  0  0  0  0  0  0  0
   58.2020   29.3640   47.1480 C   0  0  0  0  0  0  0  0  0  0  0  0
   57.6311   30.2762   46.9199 H   0  0  0  0  0  0  0  0  0  0  0  0
   59.0740   29.3470   48.2400 C   0  0  0  0  0  0  0  0  0  0  0  0
   59.1788   30.2404   48.8732 H   0  0  0  0  0  0  0  0  0  0  0  0
   59.8140   28.1950   48.5290 C   0  0  0  0  0  0  0  0  0  0  0  0
   60.7350   28.1910   49.6340 C   0  0  0  0  0  0  0  0  0  0  0  0
   61.4740   28.1910   50.5260 N   0  0  0  0  0  0  0  0  0  0  0  0
   59.6820   27.0610   47.7160 C   0  0  0  0  0  0  0  0  0  0  0  0
   60.2671   26.1562   47.9372 H   0  0  0  0  0  0  0  0  0  0  0  0
   58.8080   27.0770   46.6240 C   0  0  0  0  0  0  0  0  0  0  0  0
   58.7136   26.1871   45.9843 H   0  0  0  0  0  0  0  0  0  0  0  0
   58.9950   31.5170   45.2360 C   0  0  0  0  0  0  0  0  0  0  0  0
   59.5401   30.6796   44.7760 H   0  0  0  0  0  0  0  0  0  0  0  0
   59.6920   32.4760   45.9790 C   0  0  0  0  0  0  0  0  0  0  0  0
   60.7814   32.3894   46.1040 H   0  0  0  0  0  0  0  0  0  0  0  0
   61.3850   32.8520   48.8670 C   0  0  0  0  0  0  0  0  0  0  0  0
   60.5399   32.7706   49.5664 H   0  0  0  0  0  0  0  0  0  0  0  0
   60.5430   32.0240   51.8820 C   0  0  0  0  0  0  0  0  0  0  0  0
   59.9130   31.0380   51.1810 N   0  0  0  0  0  0  0  0  0  0  0  0
   58.5970   31.1190   50.8460 C   0  0  0  0  0  0  0  0  0  0  0  0
   58.1202   30.3008   50.2863 H   0  0  0  0  0  0  0  0  0  0  0  0
   57.8520   32.2410   51.2130 C   0  0  0  0  0  0  0  0  0  0  0  0
   56.7876   32.3132   50.9450 H   0  0  0  0  0  0  0  0  0  0  0  0
   58.4720   33.2710   51.9240 C   0  0  0  0  0  0  0  0  0  0  0  0
   57.8991   34.1648   52.2119 H   0  0  0  0  0  0  0  0  0  0  0  0
   59.8230   33.1630   52.2690 C   0  0  0  0  0  0  0  0  0  0  0  0
   60.3162   33.9644   52.8388 H   0  0  0  0  0  0  0  0  0  0  0  0
  1  2  1  0
  2  3  2  0
  3  4  1  0
  3  5  1  0
  5  6  1  0
  5  7  1  0
  7  8  2  0
  8  9  1  0
  8 10  1  0
 10 11  1  0
 10 12  2  0
 12 13  1  0
 12 14  1  0
 14 15  1  0
 15 16  1  0
 16 17  2  0
 17 18  1  0
 17 19  1  0
 19 20  1  0
 19 21  2  0
 21 22  1  0
 22 23  1  0
 23 24  2  0
 23 25  1  0
 25 26  1  0
 26 27  2  0
 27 28  1  0
 27 29  1  0
 29 30  1  0
 29 31  2  0
 31 32  1  0
 32 33  3  0
 31 34  1  0
 34 35  1  0
 34 36  2  0
 36 37  1  0
 21 38  1  0
 38 39  1  0
 38 40  2  0
 40 41  1  0
 14 42  2  0
 42 43  1  0
  2 44  1  0
 44 45  2  0
 45 46  1  0
 46 47  1  0
 46 48  2  0
 48 49  1  0
 48 50  1  0
 50 51  1  0
 50 52  2  0
 52 53  1  0
 42  7  1  0
 52 44  1  0
 40 16  1  0
 36 26  1  0
M  CHG  2  22  -1  25  -1
M  END
>  <UniqueID>  (71) 
67

>  <SMILES>  (71) 
N#Cc1ccc([N-]C(=O)[N-]c2ccc(Sc3cccc(N/C=C/c4ccccn4)c3)cc2)cc1

>  <Energy>  (71) 
60.650898082144096

>  <Genealogy>  (71) 
N#Cc1ccc([N-]C(=O)[N-]c2ccc(Sc3cccc(NC=Cc4ccccn4)c3)cc2)cc1 (protonated)
N#Cc1ccc([N-]C(=O)[N-]c2ccc(Sc3cccc(N/C=C/c4ccccn4)c3)cc2)cc1 (cis-trans isomerization)
N#Cc1ccc([N-]C(=O)[N-]c2ccc(Sc3cccc(N/C=C/c4ccccn4)c3)cc2)cc1 (3D coordinates assigned)
N#Cc1ccc([N-]C(=O)[N-]c2ccc(Sc3cccc(N/C=C/c4ccccn4)c3)cc2)cc1 (optimized conformer: 60.650898082144096 kcal/mol)

>  <smiles>  (71) 
N#Cc1ccc(NC(=O)Nc2ccc(Sc3cccc(NC=Cc4ccccn4)c3)cc2)cc1

>  <score_type>  (71) 
oracle

>  <origin>  (71) 
adg

>  <m_score__min__energy>  (71) 
-12.69

>  <m_primary>  (71) 
energy

$$$$
71:0
     RDKit          3D

 46 48  0  0  1  0  0  0  0  0999 V2000
   63.8970   32.7710   48.4670 C   0  0  0  0  0  0  0  0  0  0  0  0
   62.4750   33.2040   48.5120 C   0  0  0  0  0  0  0  0  0  0  0  0
   61.8500   33.7830   47.4230 C   0  0  0  0  0  0  0  0  0  0  0  0
   60.5320   34.1680   47.5120 C   0  0  0  0  0  0  0  0  0  0  0  0
   59.9220   34.7030   46.5330 N   0  0  0  0  0  0  0  0  0  0  0  0
   58.6300   33.9730   45.6460 S   0  0  0  0  0  0  0  0  0  0  0  0
   58.7230   34.2830   44.1770 O   0  0  0  0  0  0  0  0  0  0  0  0
   57.3180   34.4850   46.2220 O   0  0  0  0  0  0  0  0  0  0  0  0
   58.6340   32.2390   45.9030 C   0  0  0  0  0  0  0  0  0  0  0  0
   58.8420   31.6690   47.1440 C   0  0  0  0  0  0  0  0  0  0  0  0
   58.8240   30.2740   47.2290 C   0  0  0  0  0  0  0  0  0  0  0  0
   58.6050   29.4940   46.1110 C   0  0  0  0  0  0  0  0  0  0  0  0
   58.5780   28.0710   46.1480 N   0  0  0  0  0  0  0  0  0  0  0  0
   57.3470   27.4350   45.8720 C   0  0  0  0  0  0  0  0  0  0  0  0
   56.3740   28.2260   45.6130 O   0  0  0  0  0  0  0  0  0  0  0  0
   57.1100   26.0130   45.8580 C   0  0  0  0  0  0  0  0  0  0  0  0
   58.2310   25.1800   45.7840 C   0  0  0  0  0  0  0  0  0  0  0  0
   58.0980   23.8140   45.7660 C   0  0  0  0  0  0  0  0  0  0  0  0
   56.8800   23.2030   45.8170 C   0  0  0  0  0  0  0  0  0  0  0  0
   55.7620   23.9940   45.8900 C   0  0  0  0  0  0  0  0  0  0  0  0
   55.9040   25.3880   45.9090 C   0  0  0  0  0  0  0  0  0  0  0  0
   54.7340   26.1110   45.9830 O   0  0  0  0  0  0  0  0  0  0  0  0
   58.4020   30.0990   44.8980 C   0  0  0  0  0  0  0  0  0  0  0  0
   58.4130   31.4510   44.7760 C   0  0  0  0  0  0  0  0  0  0  0  0
   59.8310   33.9870   48.6630 N   0  0  0  0  0  0  0  0  0  0  0  0
   60.4560   33.4150   49.7310 C   0  0  0  0  0  0  0  0  0  0  0  0
   59.7170   33.1990   51.0150 C   0  0  0  0  0  0  0  0  0  0  0  0
   61.7630   33.0320   49.6440 N   0  0  0  0  0  0  0  0  0  0  0  0
   64.2776   32.6551   49.4925 H   0  0  0  0  0  0  0  0  0  0  0  0
   63.9710   31.8096   47.9376 H   0  0  0  0  0  0  0  0  0  0  0  0
   64.4942   33.5280   47.9376 H   0  0  0  0  0  0  0  0  0  0  0  0
   62.4060   33.9357   46.4862 H   0  0  0  0  0  0  0  0  0  0  0  0
   59.0157   32.2913   48.0343 H   0  0  0  0  0  0  0  0  0  0  0  0
   58.9871   29.7894   48.2030 H   0  0  0  0  0  0  0  0  0  0  0  0
   59.4280   27.5440   46.3690 H   0  0  0  0  0  0  0  0  0  0  0  0
   59.2352   25.6267   45.7395 H   0  0  0  0  0  0  0  0  0  0  0  0
   59.0034   23.1919   45.7086 H   0  0  0  0  0  0  0  0  0  0  0  0
   56.7965   22.1063   45.8001 H   0  0  0  0  0  0  0  0  0  0  0  0
   54.7620   23.5379   45.9333 H   0  0  0  0  0  0  0  0  0  0  0  0
   54.7620   27.1260   46.0090 H   0  0  0  0  0  0  0  0  0  0  0  0
   58.2270   29.4778   44.0072 H   0  0  0  0  0  0  0  0  0  0  0  0
   58.2487   31.9204   43.7949 H   0  0  0  0  0  0  0  0  0  0  0  0
   60.3897   33.3956   51.8628 H   0  0  0  0  0  0  0  0  0  0  0  0
   58.8572   33.8834   51.0628 H   0  0  0  0  0  0  0  0  0  0  0  0
   59.3611   32.1593   51.0628 H   0  0  0  0  0  0  0  0  0  0  0  0
   62.2100   32.5930   50.4970 H   0  0  0  0  0  0  0  0  0  0  0  0
  1  2  1  0
  2  3  2  0
  3  4  1  0
  4  5  2  0
  5  6  1  0
  6  7  2  0
  6  8  2  0
  6  9  1  0
  9 10  2  0
 10 11  1  0
 11 12  2  0
 12 13  1  0
 13 14  1  0
 14 15  2  0
 14 16  1  0
 16 17  2  0
 17 18  1  0
 18 19  2  0
 19 20  1  0
 20 21  2  0
 21 22  1  0
 12 23  1  0
 23 24  2  0
  4 25  1  0
 25 26  2  0
 26 27  1  0
 26 28  1  0
 28  2  1  0
 24  9  1  0
 21 16  1  0
  1 29  1  0
  1 30  1  0
  1 31  1  0
  3 32  1  0
 10 33  1  0
 11 34  1  0
 13 35  1  0
 17 36  1  0
 18 37  1  0
 19 38  1  0
 20 39  1  0
 22 40  1  0
 23 41  1  0
 24 42  1  0
 27 43  1  0
 27 44  1  0
 27 45  1  0
 28 46  1  0
M  END
>  <smiles>  (72) 
Cc1cc(=NS(=O)(=O)c2ccc(NC(=O)c3ccccc3O)cc2)nc(C)[nH]1

>  <score_type>  (72) 
oracle

>  <origin>  (72) 
adg

>  <m_score__min__energy>  (72) 
-10.630000000000001

>  <m_primary>  (72) 
energy

$$$$
72:0
     RDKit          3D

 50 53  0  0  0  0  0  0  0  0999 V2000
   62.2879   31.0534   47.5570 H   0  0  0  0  0  0  0  0  0  0  0  0
   61.3050   31.2430   47.1010 C   0  0  0  0  0  0  0  0  0  0  0  0
   60.5300   30.2030   46.7010 N   0  0  0  0  0  0  0  0  0  0  0  0
   59.3300   30.3990   46.1520 N   0  0  0  0  0  0  0  0  0  0  0  0
   58.8270   31.6460   45.9610 C   0  0  0  0  0  0  0  0  0  0  0  0
   57.5450   31.8100   45.4130 C   0  0  0  0  0  0  0  0  0  0  0  0
   56.8080   30.6660   45.0670 O   0  0  0  0  0  0  0  0  0  0  0  0
   56.8570   30.0310   43.7940 C   0  0  0  0  0  0  0  0  0  0  0  0
   56.9410   28.9427   43.9301 H   0  0  0  0  0  0  0  0  0  0  0  0
   55.9385   30.2607   43.2341 H   0  0  0  0  0  0  0  0  0  0  0  0
   57.7294   30.3989   43.2341 H   0  0  0  0  0  0  0  0  0  0  0  0
   57.0330   33.1100   45.2400 C   0  0  0  0  0  0  0  0  0  0  0  0
   56.0319   33.2502   44.8063 H   0  0  0  0  0  0  0  0  0  0  0  0
   57.7890   34.2230   45.6160 C   0  0  0  0  0  0  0  0  0  0  0  0
   57.3798   35.2345   45.4764 H   0  0  0  0  0  0  0  0  0  0  0  0
   59.0610   34.0590   46.1680 C   0  0  0  0  0  0  0  0  0  0  0  0
   59.6468   34.9405   46.4675 H   0  0  0  0  0  0  0  0  0  0  0  0
   59.5950   32.7700   46.3420 C   0  0  0  0  0  0  0  0  0  0  0  0
   60.8530   32.5560   46.9330 C   0  0  0  0  0  0  0  0  0  0  0  0
   61.6420   33.6500   47.4300 N   0  0  0  0  0  0  0  0  0  0  0  0
   61.6480   34.5430   46.8880 H   0  0  0  0  0  0  0  0  0  0  0  0
   62.5370   33.4990   48.5450 C   0  0  0  0  0  0  0  0  0  0  0  0
   63.8990   33.2690   48.3060 C   0  0  0  0  0  0  0  0  0  0  0  0
   64.2742   33.2323   47.2726 H   0  0  0  0  0  0  0  0  0  0  0  0
   64.7830   33.0860   49.3730 C   0  0  0  0  0  0  0  0  0  0  0  0
   65.8480   32.8929   49.1769 H   0  0  0  0  0  0  0  0  0  0  0  0
   64.3160   33.1480   50.6880 C   0  0  0  0  0  0  0  0  0  0  0  0
   65.0123   32.9950   51.5257 H   0  0  0  0  0  0  0  0  0  0  0  0
   62.9660   33.4040   50.9410 C   0  0  0  0  0  0  0  0  0  0  0  0
   62.6051   33.4686   51.9781 H   0  0  0  0  0  0  0  0  0  0  0  0
   62.0690   33.5790   49.8760 C   0  0  0  0  0  0  0  0  0  0  0  0
   60.7110   33.9630   50.1370 N   0  0  0  0  0  0  0  0  0  0  0  0
   59.7360   33.1830   50.5050 C   0  0  0  0  0  0  0  0  0  0  0  0
   59.5660   32.0070   49.8450 N   0  0  0  0  0  0  0  0  0  0  0  0
   58.6200   31.0950   50.2010 C   0  0  0  0  0  0  0  0  0  0  0  0
   58.4980   29.8890   49.5020 O   0  0  0  0  0  0  0  0  0  0  0  0
   59.5750   28.9720   49.3570 C   0  0  0  0  0  0  0  0  0  0  0  0
   59.9332   28.6670   50.3513 H   0  0  0  0  0  0  0  0  0  0  0  0
   59.2302   28.0860   48.8038 H   0  0  0  0  0  0  0  0  0  0  0  0
   60.3947   29.4537   48.8038 H   0  0  0  0  0  0  0  0  0  0  0  0
   57.7680   31.3560   51.2820 C   0  0  0  0  0  0  0  0  0  0  0  0
   56.8010   30.4000   51.6270 O   0  0  0  0  0  0  0  0  0  0  0  0
   55.4940   30.7140   52.0980 C   0  0  0  0  0  0  0  0  0  0  0  0
   55.4910   30.7147   53.1980 H   0  0  0  0  0  0  0  0  0  0  0  0
   55.2006   31.7082   51.7299 H   0  0  0  0  0  0  0  0  0  0  0  0
   54.7810   29.9616   51.7299 H   0  0  0  0  0  0  0  0  0  0  0  0
   57.9210   32.5640   51.9820 C   0  0  0  0  0  0  0  0  0  0  0  0
   57.2619   32.7911   52.8329 H   0  0  0  0  0  0  0  0  0  0  0  0
   58.9050   33.4770   51.6030 C   0  0  0  0  0  0  0  0  0  0  0  0
   59.0308   34.4188   52.1572 H   0  0  0  0  0  0  0  0  0  0  0  0
  1  2  1  0
  2  3  2  0
  3  4  1  0
  4  5  2  0
  5  6  1  0
  6  7  1  0
  7  8  1  0
  8  9  1  0
  8 10  1  0
  8 11  1  0
  6 12  2  0
 12 13  1  0
 12 14  1  0
 14 15  1  0
 14 16  2  0
 16 17  1  0
 16 18  1  0
 18 19  2  0
 19 20  1  0
 20 21  1  0
 20 22  1  0
 22 23  2  0
 23 24  1  0
 23 25  1  0
 25 26  1  0
 25 27  2  0
 27 28  1  0
 27 29  1  0
 29 30  1  0
 29 31  2  0
 31 32  1  0
 32 33  2  0
 33 34  1  0
 34 35  1  0
 35 36  1  0
 36 37  1  0
 37 38  1  0
 37 39  1  0
 37 40  1  0
 35 41  2  0
 41 42  1  0
 42 43  1  0
 43 44  1  0
 43 45  1  0
 43 46  1  0
 41 47  1  0
 47 48  1  0
 47 49  2  0
 49 50  1  0
 19  2  1  0
 31 22  1  0
 49 33  1  0
 18  5  1  0
M  CHG  1  34  -1
M  END
>  <UniqueID>  (73) 
68

>  <SMILES>  (73) 
COc1cc/c(=N\c2ccccc2Nc2cnnc3c(OC)cccc23)[n-]c1OC

>  <Energy>  (73) 
71.41018555827802

>  <Genealogy>  (73) 
COc1ccc(=Nc2ccccc2Nc2cnnc3c(OC)cccc23)[n-]c1OC (protonated)
COc1cc/c(=N\c2ccccc2Nc2cnnc3c(OC)cccc23)[n-]c1OC (cis-trans isomerization)
COc1cc/c(=N\c2ccccc2Nc2cnnc3c(OC)cccc23)[n-]c1OC (3D coordinates assigned)
COc1cc/c(=N\c2ccccc2Nc2cnnc3c(OC)cccc23)[n-]c1OC (optimized conformer: 71.41018555827802 kcal/mol)

>  <smiles>  (73) 
COc1ccc(=Nc2ccccc2Nc2cnnc3c(OC)cccc23)[nH]c1OC

>  <score_type>  (73) 
oracle

>  <origin>  (73) 
adg

>  <m_score__min__energy>  (73) 
-10.82

>  <m_primary>  (73) 
energy

$$$$
73:0
     RDKit          3D

 60 63  0  0  0  0  0  0  0  0999 V2000
   62.0788   34.8060   47.0210 H   0  0  0  0  0  0  0  0  0  0  0  0
   61.2110   34.2290   47.3730 C   0  0  0  0  0  0  0  0  0  0  0  0
   60.9550   34.1320   48.7020 N   0  0  0  0  0  0  0  0  0  0  0  0
   59.8850   33.4260   49.1610 C   0  0  0  0  0  0  0  0  0  0  0  0
   59.6370   33.3200   50.4340 N   0  0  0  0  0  0  0  0  0  0  0  0
   59.0940   32.1780   51.1240 C   0  0  0  0  0  0  0  0  0  0  0  0
   57.7120   31.9090   51.1090 C   0  0  0  0  0  0  0  0  0  0  0  0
   57.0230   32.6203   50.6300 H   0  0  0  0  0  0  0  0  0  0  0  0
   57.2080   30.7450   51.6980 C   0  0  0  0  0  0  0  0  0  0  0  0
   55.8060   30.4830   51.6370 N   0  0  0  0  0  0  0  0  0  0  0  0
   54.9340   29.8350   52.9860 S   0  0  0  0  0  0  0  0  0  0  0  0
   55.6820   30.1640   54.2470 O   0  0  0  0  0  0  0  0  0  0  0  0
   54.8130   28.3400   52.8720 O   0  0  0  0  0  0  0  0  0  0  0  0
   53.3290   30.5580   53.0120 C   0  0  0  0  0  0  0  0  0  0  0  0
   52.5750   30.5970   54.1950 C   0  0  0  0  0  0  0  0  0  0  0  0
   52.9779   30.1552   55.1183 H   0  0  0  0  0  0  0  0  0  0  0  0
   51.3120   31.1970   54.2010 C   0  0  0  0  0  0  0  0  0  0  0  0
   50.7201   31.2173   55.1280 H   0  0  0  0  0  0  0  0  0  0  0  0
   50.7980   31.7710   53.0350 C   0  0  0  0  0  0  0  0  0  0  0  0
   49.7992   32.2319   53.0436 H   0  0  0  0  0  0  0  0  0  0  0  0
   51.5580   31.7600   51.8480 C   0  0  0  0  0  0  0  0  0  0  0  0
   51.0700   32.3320   50.6250 N   0  0  0  0  0  0  0  0  0  0  0  0
   50.9570   31.6640   49.3610 C   0  0  0  0  0  0  0  0  0  0  0  0
   51.3710   30.4840   49.2110 O   0  0  0  0  0  0  0  0  0  0  0  0
   50.2960   32.3580   48.2190 C   0  0  0  0  0  0  0  0  0  0  0  0
   49.5856   33.1039   48.6048 H   0  0  0  0  0  0  0  0  0  0  0  0
   51.0577   32.8605   47.6048 H   0  0  0  0  0  0  0  0  0  0  0  0
   49.7570   31.6216   47.6048 H   0  0  0  0  0  0  0  0  0  0  0  0
   52.8100   31.1300   51.8400 C   0  0  0  0  0  0  0  0  0  0  0  0
   53.3909   31.0834   50.9071 H   0  0  0  0  0  0  0  0  0  0  0  0
   58.0790   29.8470   52.3220 C   0  0  0  0  0  0  0  0  0  0  0  0
   57.6818   28.9404   52.8019 H   0  0  0  0  0  0  0  0  0  0  0  0
   59.4520   30.0990   52.3370 C   0  0  0  0  0  0  0  0  0  0  0  0
   60.1316   29.3915   52.8346 H   0  0  0  0  0  0  0  0  0  0  0  0
   59.9720   31.2500   51.7210 C   0  0  0  0  0  0  0  0  0  0  0  0
   61.4550   31.4990   51.7300 C   0  0  0  0  0  0  0  0  0  0  0  0
   61.8105   31.5587   52.7693 H   0  0  0  0  0  0  0  0  0  0  0  0
   61.9684   30.6745   51.2137 H   0  0  0  0  0  0  0  0  0  0  0  0
   61.6709   32.4460   51.2137 H   0  0  0  0  0  0  0  0  0  0  0  0
   59.0710   32.7950   48.2760 N   0  0  0  0  0  0  0  0  0  0  0  0
   59.2800   32.8690   46.9340 C   0  0  0  0  0  0  0  0  0  0  0  0
   58.3460   32.1850   46.0160 C   0  0  0  0  0  0  0  0  0  0  0  0
   57.3440   32.7460   45.2310 C   0  0  0  0  0  0  0  0  0  0  0  0
   56.9890   34.1960   45.1130 C   0  0  0  0  0  0  0  0  0  0  0  0
   56.8826   34.6304   46.1180 H   0  0  0  0  0  0  0  0  0  0  0  0
   57.7842   34.7249   44.5672 H   0  0  0  0  0  0  0  0  0  0  0  0
   56.0394   34.2978   44.5672 H   0  0  0  0  0  0  0  0  0  0  0  0
   56.7050   31.7750   44.5500 N   0  0  0  0  0  0  0  0  0  0  0  0
   57.2560   30.6180   44.8840 N   0  0  0  0  0  0  0  0  0  0  0  0
   56.8130   29.3370   44.3430 C   0  0  0  0  0  0  0  0  0  0  0  0
   56.5761   28.6518   45.1703 H   0  0  0  0  0  0  0  0  0  0  0  0
   55.9157   29.4904   43.7255 H   0  0  0  0  0  0  0  0  0  0  0  0
   57.6133   28.9033   43.7255 H   0  0  0  0  0  0  0  0  0  0  0  0
   58.2430   30.8210   45.7840 C   0  0  0  0  0  0  0  0  0  0  0  0
   59.1710   29.7580   46.3090 C   0  0  0  0  0  0  0  0  0  0  0  0
   59.1592   29.7715   47.4089 H   0  0  0  0  0  0  0  0  0  0  0  0
   58.8393   28.7722   45.9509 H   0  0  0  0  0  0  0  0  0  0  0  0
   60.1925   29.9536   45.9509 H   0  0  0  0  0  0  0  0  0  0  0  0
   60.3750   33.5980   46.4540 C   0  0  0  0  0  0  0  0  0  0  0  0
   60.5711   33.6710   45.3741 H   0  0  0  0  0  0  0  0  0  0  0  0
  1  2  1  0
  2  3  1  0
  3  4  1  0
  4  5  2  0
  5  6  1  0
  6  7  2  0
  7  8  1  0
  7  9  1  0
  9 10  1  0
 10 11  1  0
 11 12  2  0
 11 13  2  0
 11 14  1  0
 14 15  2  0
 15 16  1  0
 15 17  1  0
 17 18  1  0
 17 19  2  0
 19 20  1  0
 19 21  1  0
 21 22  1  0
 22 23  1  0
 23 24  2  0
 23 25  1  0
 25 26  1  0
 25 27  1  0
 25 28  1  0
 21 29  2  0
 29 30  1  0
  9 31  2  0
 31 32  1  0
 31 33  1  0
 33 34  1  0
 33 35  2  0
 35 36  1  0
 36 37  1  0
 36 38  1  0
 36 39  1  0
  4 40  1  0
 40 41  2  0
 41 42  1  0
 42 43  1  0
 43 44  1  0
 44 45  1  0
 44 46  1  0
 44 47  1  0
 43 48  2  0
 48 49  1  0
 49 50  1  0
 50 51  1  0
 50 52  1  0
 50 53  1  0
 49 54  1  0
 54 55  1  0
 55 56  1  0
 55 57  1  0
 55 58  1  0
 41 59  1  0
 59 60  1  0
 59  2  2  0
 35  6  1  0
 54 42  2  0
 29 14  1  0
M  CHG  3   3  -1  10  -1  22  -1
M  END
>  <UniqueID>  (74) 
69

>  <SMILES>  (74) 
CC(=O)[N-]c1cccc(S(=O)(=O)[N-]c2ccc(C)c(/N=c3/nc(-c4c(C)nn(C)c4C)cc[n-]3)c2)c1

>  <Energy>  (74) 
113.88051973128731

>  <Genealogy>  (74) 
CC(=O)[N-]c1cccc(S(=O)(=O)[N-]c2ccc(C)c(N=c3nc(-c4c(C)nn(C)c4C)cc[n-]3)c2)c1 (protonated)
CC(=O)[N-]c1cccc(S(=O)(=O)[N-]c2ccc(C)c(/N=c3/nc(-c4c(C)nn(C)c4C)cc[n-]3)c2)c1 (cis-trans isomerization)
CC(=O)[N-]c1cccc(S(=O)(=O)[N-]c2ccc(C)c(/N=c3/nc(-c4c(C)nn(C)c4C)cc[n-]3)c2)c1 (3D coordinates assigned)
CC(=O)[N-]c1cccc(S(=O)(=O)[N-]c2ccc(C)c(/N=c3/nc(-c4c(C)nn(C)c4C)cc[n-]3)c2)c1 (optimized conformer: 113.88051973128731 kcal/mol)

>  <smiles>  (74) 
CC(=O)Nc1cccc(S(=O)(=O)Nc2ccc(C)c(N=c3nc(-c4c(C)nn(C)c4C)cc[nH]3)c2)c1

>  <score_type>  (74) 
oracle

>  <origin>  (74) 
adg

>  <m_score__min__energy>  (74) 
-14.94

>  <m_primary>  (74) 
energy

$$$$
74:0
     RDKit          3D

 63 66  0  0  0  0  0  0  0  0999 V2000
   57.0420   33.7540   45.6390 C   0  0  0  0  0  0  0  0  0  0  0  0
   58.5640   33.8440   45.6140 C   0  0  0  0  0  0  0  0  0  0  0  0
   59.1290   33.0980   46.7680 N   0  0  0  0  0  0  0  0  0  0  0  0
   59.5330   34.0180   47.8550 C   0  0  0  0  0  0  0  0  0  0  0  0
   59.2750   33.4050   49.2090 C   0  0  0  0  0  0  0  0  0  0  0  0
   58.3130   32.3910   49.3500 C   0  0  0  0  0  0  0  0  0  0  0  0
   58.0990   31.7910   50.5940 C   0  0  0  0  0  0  0  0  0  0  0  0
   58.8440   32.1970   51.7050 C   0  0  0  0  0  0  0  0  0  0  0  0
   59.8020   33.2070   51.5730 C   0  0  0  0  0  0  0  0  0  0  0  0
   60.0200   33.8100   50.3310 C   0  0  0  0  0  0  0  0  0  0  0  0
   60.2650   32.2420   46.3560 C   0  0  0  0  0  0  0  0  0  0  0  0
   60.9750   31.6700   47.5540 C   0  0  0  0  0  0  0  0  0  0  0  0
   60.7060   30.4610   48.1850 C   0  0  0  0  0  0  0  0  0  0  0  0
   59.6590   29.5010   47.8060 C   0  0  0  0  0  0  0  0  0  0  0  0
   58.5280   29.6020   48.3530 O   0  0  0  0  0  0  0  0  0  0  0  0
   59.8880   28.4930   46.7950 N   0  0  0  0  0  0  0  0  0  0  0  0
   60.0680   27.0990   47.2220 C   0  0  0  0  0  0  0  0  0  0  0  0
   59.9050   28.8310   45.3610 C   0  0  0  0  0  0  0  0  0  0  0  0
   58.5720   29.3750   44.9090 C   0  0  0  0  0  0  0  0  0  0  0  0
   57.3810   28.7120   45.2500 C   0  0  0  0  0  0  0  0  0  0  0  0
   56.1500   29.2040   44.8110 C   0  0  0  0  0  0  0  0  0  0  0  0
   56.0940   30.3720   44.0470 C   0  0  0  0  0  0  0  0  0  0  0  0
   57.2710   31.0490   43.7180 C   0  0  0  0  0  0  0  0  0  0  0  0
   58.5070   30.5570   44.1520 C   0  0  0  0  0  0  0  0  0  0  0  0
   61.6610   30.2140   49.1100 N   0  0  0  0  0  0  0  0  0  0  0  0
   62.4980   31.2650   49.0200 C   0  0  0  0  0  0  0  0  0  0  0  0
   63.6850   31.4330   49.7290 C   0  0  0  0  0  0  0  0  0  0  0  0
   64.4650   32.5710   49.4480 C   0  0  0  0  0  0  0  0  0  0  0  0
   65.7740   32.7750   50.1480 C   0  0  0  0  0  0  0  0  0  0  0  0
   64.0500   33.4750   48.4430 C   0  0  0  0  0  0  0  0  0  0  0  0
   62.8500   33.2480   47.7560 C   0  0  0  0  0  0  0  0  0  0  0  0
   62.1160   32.1530   48.0850 N   0  0  0  0  0  0  0  0  0  0  0  0
   56.6930   33.7334   46.6820 H   0  0  0  0  0  0  0  0  0  0  0  0
   56.6145   34.6284   45.1265 H   0  0  0  0  0  0  0  0  0  0  0  0
   56.7205   32.8353   45.1265 H   0  0  0  0  0  0  0  0  0  0  0  0
   58.9407   33.4080   44.6770 H   0  0  0  0  0  0  0  0  0  0  0  0
   58.8675   34.8993   45.6787 H   0  0  0  0  0  0  0  0  0  0  0  0
   60.6064   34.2382   47.7589 H   0  0  0  0  0  0  0  0  0  0  0  0
   58.9401   34.9406   47.7704 H   0  0  0  0  0  0  0  0  0  0  0  0
   57.7258   32.0679   48.4778 H   0  0  0  0  0  0  0  0  0  0  0  0
   57.3435   30.9984   50.6990 H   0  0  0  0  0  0  0  0  0  0  0  0
   58.6766   31.7220   52.6829 H   0  0  0  0  0  0  0  0  0  0  0  0
   60.3854   33.5277   52.4486 H   0  0  0  0  0  0  0  0  0  0  0  0
   60.7758   34.6029   50.2309 H   0  0  0  0  0  0  0  0  0  0  0  0
   59.8863   31.4168   45.7350 H   0  0  0  0  0  0  0  0  0  0  0  0
   60.9782   32.8575   45.7881 H   0  0  0  0  0  0  0  0  0  0  0  0
   60.0743   27.0500   48.3209 H   0  0  0  0  0  0  0  0  0  0  0  0
   59.2415   26.4865   46.8324 H   0  0  0  0  0  0  0  0  0  0  0  0
   61.0230   26.7166   46.8324 H   0  0  0  0  0  0  0  0  0  0  0  0
   60.6810   29.5896   45.1810 H   0  0  0  0  0  0  0  0  0  0  0  0
   60.1166   27.9142   44.7912 H   0  0  0  0  0  0  0  0  0  0  0  0
   57.4184   27.8012   45.8656 H   0  0  0  0  0  0  0  0  0  0  0  0
   55.2227   28.6707   45.0673 H   0  0  0  0  0  0  0  0  0  0  0  0
   55.1230   30.7589   43.7043 H   0  0  0  0  0  0  0  0  0  0  0  0
   57.2261   31.9694   43.1174 H   0  0  0  0  0  0  0  0  0  0  0  0
   59.4312   31.0976   43.8996 H   0  0  0  0  0  0  0  0  0  0  0  0
   61.7580   29.3720   49.7200 H   0  0  0  0  0  0  0  0  0  0  0  0
   64.0031   30.6997   50.4847 H   0  0  0  0  0  0  0  0  0  0  0  0
   65.6156   32.7503   51.2363 H   0  0  0  0  0  0  0  0  0  0  0  0
   66.4720   31.9748   49.8608 H   0  0  0  0  0  0  0  0  0  0  0  0
   66.1954   33.7497   49.8608 H   0  0  0  0  0  0  0  0  0  0  0  0
   64.6669   34.3531   48.2014 H   0  0  0  0  0  0  0  0  0  0  0  0
   62.5108   33.9389   46.9701 H   0  0  0  0  0  0  0  0  0  0  0  0
  1  2  1  0
  2  3  1  0
  3  4  1  0
  4  5  1  0
  5  6  2  0
  6  7  1  0
  7  8  2  0
  8  9  1  0
  9 10  2  0
  3 11  1  0
 11 12  1  0
 12 13  2  0
 13 14  1  0
 14 15  2  0
 14 16  1  0
 16 17  1  0
 16 18  1  0
 18 19  1  0
 19 20  2  0
 20 21  1  0
 21 22  2  0
 22 23  1  0
 23 24  2  0
 13 25  1  0
 25 26  2  0
 26 27  1  0
 27 28  2  0
 28 29  1  0
 28 30  1  0
 30 31  2  0
 31 32  1  0
 10  5  1  0
 32 12  1  0
 24 19  1  0
 32 26  1  0
  1 33  1  0
  1 34  1  0
  1 35  1  0
  2 36  1  0
  2 37  1  0
  4 38  1  0
  4 39  1  0
  6 40  1  0
  7 41  1  0
  8 42  1  0
  9 43  1  0
 10 44  1  0
 11 45  1  0
 11 46  1  0
 17 47  1  0
 17 48  1  0
 17 49  1  0
 18 50  1  0
 18 51  1  0
 20 52  1  0
 21 53  1  0
 22 54  1  0
 23 55  1  0
 24 56  1  0
 25 57  1  0
 27 58  1  0
 29 59  1  0
 29 60  1  0
 29 61  1  0
 30 62  1  0
 31 63  1  0
M  CHG  1  25   1
M  END
>  <UniqueID>  (75) 
70

>  <SMILES>  (75) 
CCN(Cc1ccccc1)Cc1c(C(=O)N(C)Cc2ccccc2)[nH+]c2cc(C)ccn12

>  <Energy>  (75) 
99.51686058655368

>  <Genealogy>  (75) 
CCN(Cc1ccccc1)Cc1c(C(=O)N(C)Cc2ccccc2)[nH+]c2cc(C)ccn12 (protonated)
CCN(Cc1ccccc1)Cc1c(C(=O)N(C)Cc2ccccc2)[nH+]c2cc(C)ccn12 (3D coordinates assigned)
CCN(Cc1ccccc1)Cc1c(C(=O)N(C)Cc2ccccc2)[nH+]c2cc(C)ccn12 (optimized conformer: 99.51686058655368 kcal/mol)

>  <smiles>  (75) 
CCN(Cc1ccccc1)Cc1c(C(=O)N(C)Cc2ccccc2)nc2cc(C)ccn12

>  <score_type>  (75) 
oracle

>  <origin>  (75) 
adg

>  <m_score__min__energy>  (75) 
-7.7400000000000002

>  <m_primary>  (75) 
energy

$$$$
75:0
     RDKit          3D

 64 67  0  0  0  0  0  0  0  0999 V2000
   56.0145   31.9143   44.0281 H   0  0  0  0  0  0  0  0  0  0  0  0
   56.8040   31.8180   44.7880 C   0  0  0  0  0  0  0  0  0  0  0  0
   57.2140   30.5920   45.1840 N   0  0  0  0  0  0  0  0  0  0  0  0
   58.1640   30.4230   46.1380 C   0  0  0  0  0  0  0  0  0  0  0  0
   58.5050   29.1200   46.5160 C   0  0  0  0  0  0  0  0  0  0  0  0
   58.0422   28.2621   46.0064 H   0  0  0  0  0  0  0  0  0  0  0  0
   59.4300   28.9060   47.5370 C   0  0  0  0  0  0  0  0  0  0  0  0
   59.7091   27.8803   47.8199 H   0  0  0  0  0  0  0  0  0  0  0  0
   60.0000   29.9890   48.1980 C   0  0  0  0  0  0  0  0  0  0  0  0
   60.7114   29.8158   49.0189 H   0  0  0  0  0  0  0  0  0  0  0  0
   59.6740   31.2970   47.8250 C   0  0  0  0  0  0  0  0  0  0  0  0
   60.1209   32.1413   48.3704 H   0  0  0  0  0  0  0  0  0  0  0  0
   58.7800   31.5540   46.7590 C   0  0  0  0  0  0  0  0  0  0  0  0
   58.4040   32.8630   46.2940 C   0  0  0  0  0  0  0  0  0  0  0  0
   58.9670   34.0020   46.6140 N   0  0  0  0  0  0  0  0  0  0  0  0
   60.2810   34.5980   46.3720 C   0  0  0  0  0  0  0  0  0  0  0  0
   60.2134   35.6836   46.5361 H   0  0  0  0  0  0  0  0  0  0  0  0
   60.5711   34.3673   45.3363 H   0  0  0  0  0  0  0  0  0  0  0  0
   61.3400   34.0330   47.2870 C   0  0  0  0  0  0  0  0  0  0  0  0
   62.4920   33.4410   46.7470 C   0  0  0  0  0  0  0  0  0  0  0  0
   62.5886   33.3342   45.6565 H   0  0  0  0  0  0  0  0  0  0  0  0
   63.5170   32.9860   47.5790 C   0  0  0  0  0  0  0  0  0  0  0  0
   64.3947   32.4855   47.1441 H   0  0  0  0  0  0  0  0  0  0  0  0
   63.4310   33.1650   48.9670 C   0  0  0  0  0  0  0  0  0  0  0  0
   64.5520   32.7530   49.8360 C   0  0  0  0  0  0  0  0  0  0  0  0
   65.6420   33.3920   49.7540 O   0  0  0  0  0  0  0  0  0  0  0  0
   64.4240   31.6450   50.7580 N   0  0  0  0  0  0  0  0  0  0  0  0
   63.1280   31.2110   51.2150 C   0  0  0  0  0  0  0  0  0  0  0  0
   62.6330   29.9500   50.8410 C   0  0  0  0  0  0  0  0  0  0  0  0
   63.2293   29.3000   50.1838 H   0  0  0  0  0  0  0  0  0  0  0  0
   61.3890   29.5200   51.3000 C   0  0  0  0  0  0  0  0  0  0  0  0
   61.0071   28.5311   51.0065 H   0  0  0  0  0  0  0  0  0  0  0  0
   60.6260   30.3440   52.1330 C   0  0  0  0  0  0  0  0  0  0  0  0
   59.6489   29.9946   52.4981 H   0  0  0  0  0  0  0  0  0  0  0  0
   61.0940   31.6100   52.5070 C   0  0  0  0  0  0  0  0  0  0  0  0
   60.2820   32.3960   53.3380 O   0  0  0  0  0  0  0  0  0  0  0  0
   59.7970   33.7050   53.0260 C   0  0  0  0  0  0  0  0  0  0  0  0
   59.6750   34.2730   53.9601 H   0  0  0  0  0  0  0  0  0  0  0  0
   60.5256   34.1939   52.3626 H   0  0  0  0  0  0  0  0  0  0  0  0
   58.4430   33.6460   52.2960 C   0  0  0  0  0  0  0  0  0  0  0  0
   57.6730   34.0788   52.9516 H   0  0  0  0  0  0  0  0  0  0  0  0
   58.5519   34.2109   51.3584 H   0  0  0  0  0  0  0  0  0  0  0  0
   58.0340   32.2660   51.9350 N   0  0  0  0  0  0  0  0  0  0  0  0
   58.6410   31.5830   52.4470 H   0  0  0  0  0  0  0  0  0  0  0  0
   56.6420   32.0310   52.3590 C   0  0  0  0  0  0  0  0  0  0  0  0
   56.5899   32.0222   53.4577 H   0  0  0  0  0  0  0  0  0  0  0  0
   55.9991   32.8333   51.9678 H   0  0  0  0  0  0  0  0  0  0  0  0
   56.2982   31.0621   51.9678 H   0  0  0  0  0  0  0  0  0  0  0  0
   58.1580   32.0170   50.4860 C   0  0  0  0  0  0  0  0  0  0  0  0
   58.6428   31.0434   50.3214 H   0  0  0  0  0  0  0  0  0  0  0  0
   57.1578   32.0106   50.0281 H   0  0  0  0  0  0  0  0  0  0  0  0
   58.7658   32.8113   50.0281 H   0  0  0  0  0  0  0  0  0  0  0  0
   62.3510   32.0410   52.0410 C   0  0  0  0  0  0  0  0  0  0  0  0
   62.7275   33.0346   52.3256 H   0  0  0  0  0  0  0  0  0  0  0  0
   65.6140   30.9240   51.2290 C   0  0  0  0  0  0  0  0  0  0  0  0
   65.6266   30.9163   52.3289 H   0  0  0  0  0  0  0  0  0  0  0  0
   65.5878   29.8897   50.8554 H   0  0  0  0  0  0  0  0  0  0  0  0
   66.5187   31.4260   50.8554 H   0  0  0  0  0  0  0  0  0  0  0  0
   62.2880   33.7670   49.5140 C   0  0  0  0  0  0  0  0  0  0  0  0
   62.2065   33.8981   50.6031 H   0  0  0  0  0  0  0  0  0  0  0  0
   61.2500   34.2020   48.6800 C   0  0  0  0  0  0  0  0  0  0  0  0
   60.3600   34.6782   49.1171 H   0  0  0  0  0  0  0  0  0  0  0  0
   57.3790   32.9570   45.3400 C   0  0  0  0  0  0  0  0  0  0  0  0
   57.0245   33.9491   45.0236 H   0  0  0  0  0  0  0  0  0  0  0  0
  1  2  1  0
  2  3  1  0
  3  4  1  0
  4  5  2  0
  5  6  1  0
  5  7  1  0
  7  8  1  0
  7  9  2  0
  9 10  1  0
  9 11  1  0
 11 12  1  0
 11 13  2  0
 13 14  1  0
 14 15  2  0
 15 16  1  0
 16 17  1  0
 16 18  1  0
 16 19  1  0
 19 20  2  0
 20 21  1  0
 20 22  1  0
 22 23  1  0
 22 24  2  0
 24 25  1  0
 25 26  2  0
 25 27  1  0
 27 28  1  0
 28 29  2  0
 29 30  1  0
 29 31  1  0
 31 32  1  0
 31 33  2  0
 33 34  1  0
 33 35  1  0
 35 36  1  0
 36 37  1  0
 37 38  1  0
 37 39  1  0
 37 40  1  0
 40 41  1  0
 40 42  1  0
 40 43  1  0
 43 44  1  0
 43 45  1  0
 45 46  1  0
 45 47  1  0
 45 48  1  0
 43 49  1  0
 49 50  1  0
 49 51  1  0
 49 52  1  0
 35 53  2  0
 53 54  1  0
 27 55  1  0
 55 56  1  0
 55 57  1  0
 55 58  1  0
 24 59  1  0
 59 60  1  0
 59 61  2  0
 61 62  1  0
 14 63  1  0
 63 64  1  0
 63  2  2  0
 13  4  1  0
 61 19  1  0
 53 28  1  0
M  CHG  2   3  -1  43   1
M  END
>  <UniqueID>  (76) 
71

>  <SMILES>  (76) 
CN(C(=O)c1ccc(C/N=c2/cc[n-]c3ccccc23)cc1)c1cccc(OCC[NH+](C)C)c1

>  <Energy>  (76) 
99.12364622931523

>  <Genealogy>  (76) 
CN(C(=O)c1ccc(CN=c2cc[n-]c3ccccc23)cc1)c1cccc(OCC[NH+](C)C)c1 (protonated)
CN(C(=O)c1ccc(C/N=c2/cc[n-]c3ccccc23)cc1)c1cccc(OCC[NH+](C)C)c1 (cis-trans isomerization)
CN(C(=O)c1ccc(C/N=c2/cc[n-]c3ccccc23)cc1)c1cccc(OCC[NH+](C)C)c1 (3D coordinates assigned)
CN(C(=O)c1ccc(C/N=c2/cc[n-]c3ccccc23)cc1)c1cccc(OCC[NH+](C)C)c1 (optimized conformer: 99.12364622931523 kcal/mol)

>  <smiles>  (76) 
CN(C)CCOc1cccc(N(C)C(=O)c2ccc(CN=c3cc[nH]c4ccccc34)cc2)c1

>  <score_type>  (76) 
oracle

>  <origin>  (76) 
adg

>  <m_score__min__energy>  (76) 
-9.1999999999999993

>  <m_primary>  (76) 
energy

$$$$
76:0
     RDKit          3D

 36 38  0  0  0  0  0  0  0  0999 V2000
   58.3110   26.2990   46.2220 C   0  0  0  0  0  0  0  0  0  0  0  0
   58.8840   26.7920   45.0470 C   0  0  0  0  0  0  0  0  0  0  0  0
   59.4480   28.0710   45.0250 C   0  0  0  0  0  0  0  0  0  0  0  0
   59.4450   28.8670   46.1820 C   0  0  0  0  0  0  0  0  0  0  0  0
   60.0300   30.2550   46.1480 C   0  0  0  0  0  0  0  0  0  0  0  0
   59.0140   31.2400   45.7340 N   0  0  0  0  0  0  0  0  0  0  0  0
   59.1300   32.6210   46.1420 C   0  0  0  0  0  0  0  0  0  0  0  0
   59.1680   33.6380   45.1720 C   0  0  0  0  0  0  0  0  0  0  0  0
   59.2640   34.9790   45.5550 C   0  0  0  0  0  0  0  0  0  0  0  0
   59.3240   35.3190   46.9080 C   0  0  0  0  0  0  0  0  0  0  0  0
   59.2910   34.3170   47.8810 C   0  0  0  0  0  0  0  0  0  0  0  0
   59.1950   32.9740   47.5030 C   0  0  0  0  0  0  0  0  0  0  0  0
   57.9710   30.8740   44.8080 C   0  0  0  0  0  0  0  0  0  0  0  0
   58.0310   31.2440   43.4520 C   0  0  0  0  0  0  0  0  0  0  0  0
   57.0080   30.8530   42.5850 C   0  0  0  0  0  0  0  0  0  0  0  0
   55.9410   30.0950   43.0670 C   0  0  0  0  0  0  0  0  0  0  0  0
   55.9140   29.7340   44.4140 C   0  0  0  0  0  0  0  0  0  0  0  0
   56.9180   30.1230   45.2430 N   0  0  0  0  0  0  0  0  0  0  0  0
   58.8650   28.3650   47.3600 C   0  0  0  0  0  0  0  0  0  0  0  0
   58.3010   27.0860   47.3780 C   0  0  0  0  0  0  0  0  0  0  0  0
   57.8679   25.2923   46.2378 H   0  0  0  0  0  0  0  0  0  0  0  0
   58.8914   26.1728   44.1378 H   0  0  0  0  0  0  0  0  0  0  0  0
   59.8963   28.4557   44.0971 H   0  0  0  0  0  0  0  0  0  0  0  0
   60.3981   30.5161   47.1511 H   0  0  0  0  0  0  0  0  0  0  0  0
   60.8556   30.2726   45.4213 H   0  0  0  0  0  0  0  0  0  0  0  0
   59.1219   33.3767   44.1045 H   0  0  0  0  0  0  0  0  0  0  0  0
   59.2923   35.7679   44.7890 H   0  0  0  0  0  0  0  0  0  0  0  0
   59.3972   36.3749   47.2075 H   0  0  0  0  0  0  0  0  0  0  0  0
   59.3406   34.5850   48.9467 H   0  0  0  0  0  0  0  0  0  0  0  0
   59.1702   32.1893   48.2735 H   0  0  0  0  0  0  0  0  0  0  0  0
   58.8780   31.8373   43.0770 H   0  0  0  0  0  0  0  0  0  0  0  0
   57.0438   31.1423   41.5243 H   0  0  0  0  0  0  0  0  0  0  0  0
   55.1295   29.7852   42.3921 H   0  0  0  0  0  0  0  0  0  0  0  0
   55.0794   29.1340   44.8055 H   0  0  0  0  0  0  0  0  0  0  0  0
   58.8549   28.9810   48.2713 H   0  0  0  0  0  0  0  0  0  0  0  0
   57.8487   26.6981   48.3027 H   0  0  0  0  0  0  0  0  0  0  0  0
  1  2  2  0
  2  3  1  0
  3  4  2  0
  4  5  1  0
  5  6  1  0
  6  7  1  0
  7  8  2  0
  8  9  1  0
  9 10  2  0
 10 11  1  0
 11 12  2  0
  6 13  1  0
 13 14  2  0
 14 15  1  0
 15 16  2  0
 16 17  1  0
 17 18  2  0
  4 19  1  0
 19 20  2  0
 20  1  1  0
 12  7  1  0
 18 13  1  0
  1 21  1  0
  2 22  1  0
  3 23  1  0
  5 24  1  0
  5 25  1  0
  8 26  1  0
  9 27  1  0
 10 28  1  0
 11 29  1  0
 12 30  1  0
 14 31  1  0
 15 32  1  0
 16 33  1  0
 17 34  1  0
 19 35  1  0
 20 36  1  0
M  END
>  <UniqueID>  (77) 
72

>  <SMILES>  (77) 
c1ccc(CN(c2ccccc2)c2ccccn2)cc1

>  <Energy>  (77) 
47.04742461281257

>  <Genealogy>  (77) 
c1ccc(CN(c2ccccc2)c2ccccn2)cc1 (3D coordinates assigned)
c1ccc(CN(c2ccccc2)c2ccccn2)cc1 (optimized conformer: 47.04742461281257 kcal/mol)

>  <smiles>  (77) 
c1ccc(CN(c2ccccc2)c2ccccn2)cc1

>  <score_type>  (77) 
oracle

>  <origin>  (77) 
adg

>  <m_score__min__energy>  (77) 
-7.0199999999999996

>  <m_primary>  (77) 
energy

$$$$
77:0
     RDKit          3D

 57 60  0  0  1  0  0  0  0  0999 V2000
   55.6170   29.3580   44.5220 C   0  0  0  0  0  0  0  0  0  0  0  0
   56.4060   30.5080   44.0080 C   0  0  0  0  0  0  0  0  0  0  0  0
   56.6980   30.6230   42.6660 C   0  0  0  0  0  0  0  0  0  0  0  0
   57.4340   31.7030   42.2070 C   0  0  0  0  0  0  0  0  0  0  0  0
   57.8730   32.6580   43.0810 C   0  0  0  0  0  0  0  0  0  0  0  0
   57.5390   32.4750   44.4260 C   0  0  0  0  0  0  0  0  0  0  0  0
   57.9680   33.4400   45.4100 N   0  0  0  0  0  0  0  0  0  0  0  0
   58.7910   33.1110   46.3440 C   0  0  0  0  0  0  0  0  0  0  0  0
   59.2110   31.8580   46.5700 N   0  0  0  0  0  0  0  0  0  0  0  0
   60.0800   31.5560   47.5660 C   0  0  0  0  0  0  0  0  0  0  0  0
   60.6580   29.9190   47.8970 S   0  0  0  0  0  0  0  0  0  0  0  0
   59.6790   28.6550   47.1080 C   0  0  0  0  0  0  0  0  0  0  0  0
   59.2230   28.7250   45.8260 C   0  0  0  0  0  0  0  0  0  0  0  0
   58.4580   27.7290   45.2220 C   0  0  0  0  0  0  0  0  0  0  0  0
   58.1740   26.6310   46.0090 C   0  0  0  0  0  0  0  0  0  0  0  0
   57.3940   25.5220   45.5210 N   0  0  0  0  0  0  0  0  0  0  0  0
   55.9970   25.4520   45.7200 C   0  0  0  0  0  0  0  0  0  0  0  0
   55.4430   26.4070   46.3420 O   0  0  0  0  0  0  0  0  0  0  0  0
   55.1210   24.3580   45.2610 C   0  0  0  0  0  0  0  0  0  0  0  0
   55.7770   23.2700   44.6180 N   0  0  0  0  0  0  0  0  0  0  0  0
   56.2740   23.5160   43.3030 C   0  0  0  0  0  0  0  0  0  0  0  0
   56.3260   22.1470   42.6100 C   0  0  0  0  0  0  0  0  0  0  0  0
   57.4200   21.3540   43.2950 C   0  0  0  0  0  0  0  0  0  0  0  0
   57.7600   21.8320   44.6650 C   0  0  0  0  0  0  0  0  0  0  0  0
   56.6350   22.4690   45.4220 C   0  0  0  0  0  0  0  0  0  0  0  0
   58.6150   26.5120   47.3180 C   0  0  0  0  0  0  0  0  0  0  0  0
   59.3670   27.5370   47.8490 C   0  0  0  0  0  0  0  0  0  0  0  0
   60.5380   32.5570   48.3570 N   0  0  0  0  0  0  0  0  0  0  0  0
   60.1630   33.8400   48.1950 C   0  0  0  0  0  0  0  0  0  0  0  0
   59.2670   34.1060   47.1580 C   0  0  0  0  0  0  0  0  0  0  0  0
   58.9110   35.4150   47.0240 F   0  0  0  0  0  0  0  0  0  0  0  0
   56.8340   31.4430   44.8720 N   0  0  0  0  0  0  0  0  0  0  0  0
   55.6253   29.3700   45.6219 H   0  0  0  0  0  0  0  0  0  0  0  0
   54.5803   29.4346   44.1622 H   0  0  0  0  0  0  0  0  0  0  0  0
   56.0615   28.4183   44.1622 H   0  0  0  0  0  0  0  0  0  0  0  0
   56.3465   29.8569   41.9592 H   0  0  0  0  0  0  0  0  0  0  0  0
   57.6660   31.7925   41.1355 H   0  0  0  0  0  0  0  0  0  0  0  0
   58.4588   33.5257   42.7434 H   0  0  0  0  0  0  0  0  0  0  0  0
   59.4728   29.6181   45.2344 H   0  0  0  0  0  0  0  0  0  0  0  0
   58.1031   27.8124   44.1842 H   0  0  0  0  0  0  0  0  0  0  0  0
   57.9050   24.7800   45.0030 H   0  0  0  0  0  0  0  0  0  0  0  0
   54.5885   23.9610   46.1378 H   0  0  0  0  0  0  0  0  0  0  0  0
   54.4608   24.8014   44.5011 H   0  0  0  0  0  0  0  0  0  0  0  0
   55.5997   24.1945   42.7598 H   0  0  0  0  0  0  0  0  0  0  0  0
   57.2645   23.9937   43.3284 H   0  0  0  0  0  0  0  0  0  0  0  0
   55.3603   21.6312   42.7166 H   0  0  0  0  0  0  0  0  0  0  0  0
   56.5298   22.2553   41.5345 H   0  0  0  0  0  0  0  0  0  0  0  0
   57.0920   20.3065   43.3674 H   0  0  0  0  0  0  0  0  0  0  0  0
   58.3269   21.4777   42.6849 H   0  0  0  0  0  0  0  0  0  0  0  0
   58.1146   20.9687   45.2472 H   0  0  0  0  0  0  0  0  0  0  0  0
   58.5183   22.6176   44.5319 H   0  0  0  0  0  0  0  0  0  0  0  0
   56.0329   21.6719   45.8825 H   0  0  0  0  0  0  0  0  0  0  0  0
   57.0910   23.1388   46.1659 H   0  0  0  0  0  0  0  0  0  0  0  0
   58.3708   25.6223   47.9170 H   0  0  0  0  0  0  0  0  0  0  0  0
   59.7255   27.4608   48.8861 H   0  0  0  0  0  0  0  0  0  0  0  0
   61.2050   32.3450   49.1250 H   0  0  0  0  0  0  0  0  0  0  0  0
   60.5439   34.6393   48.8477 H   0  0  0  0  0  0  0  0  0  0  0  0
  1  2  1  0
  2  3  2  0
  3  4  1  0
  4  5  2  0
  5  6  1  0
  6  7  1  0
  7  8  2  0
  8  9  1  0
  9 10  2  0
 10 11  1  0
 11 12  1  0
 12 13  2  0
 13 14  1  0
 14 15  2  0
 15 16  1  0
 16 17  1  0
 17 18  2  0
 17 19  1  0
 19 20  1  0
 20 21  1  0
 21 22  1  0
 22 23  1  0
 23 24  1  0
 24 25  1  0
 15 26  1  0
 26 27  2  0
 10 28  1  0
 28 29  1  0
 29 30  2  0
 30 31  1  0
  6 32  2  0
 32  2  1  0
 30  8  1  0
 27 12  1  0
 25 20  1  0
  1 33  1  0
  1 34  1  0
  1 35  1  0
  3 36  1  0
  4 37  1  0
  5 38  1  0
 13 39  1  0
 14 40  1  0
 16 41  1  0
 19 42  1  0
 19 43  1  0
 21 44  1  0
 21 45  1  0
 22 46  1  0
 22 47  1  0
 23 48  1  0
 23 49  1  0
 24 50  1  0
 24 51  1  0
 25 52  1  0
 25 53  1  0
 26 54  1  0
 27 55  1  0
 28 56  1  0
 29 57  1  0
M  END
>  <smiles>  (78) 
Cc1cccc(N=c2nc(Sc3ccc(NC(=O)CN4CCCCC4)cc3)[nH]cc2F)n1

>  <score_type>  (78) 
oracle

>  <origin>  (78) 
adg

>  <m_score__min__energy>  (78) 
-9.7400000000000002

>  <m_primary>  (78) 
energy

$$$$
78:0
     RDKit          3D

 55 58  0  0  0  0  0  0  0  0999 V2000
   59.4420   29.3250   44.6570 C   0  0  0  0  0  0  0  0  0  0  0  0
   59.7160   28.6750   45.9810 C   0  0  0  0  0  0  0  0  0  0  0  0
   59.5610   27.2920   46.1330 C   0  0  0  0  0  0  0  0  0  0  0  0
   59.8590   26.6810   47.3510 C   0  0  0  0  0  0  0  0  0  0  0  0
   60.3240   27.4440   48.4260 C   0  0  0  0  0  0  0  0  0  0  0  0
   60.5190   28.8340   48.2890 C   0  0  0  0  0  0  0  0  0  0  0  0
   60.2060   29.4390   47.0510 C   0  0  0  0  0  0  0  0  0  0  0  0
   61.0860   29.5790   49.3980 N   0  0  0  0  0  0  0  0  0  0  0  0
   61.4780   30.9940   49.2740 C   0  0  0  0  0  0  0  0  0  0  0  0
   62.9900   31.1490   49.5330 C   0  0  0  0  0  0  0  0  0  0  0  0
   63.7080   31.8660   48.4450 N   0  0  0  0  0  0  0  0  0  0  0  0
   64.2460   33.1800   48.8700 C   0  0  0  0  0  0  0  0  0  0  0  0
   63.1300   34.2170   49.1030 C   0  0  0  0  0  0  0  0  0  0  0  0
   62.1180   34.2550   48.0180 N   0  0  0  0  0  0  0  0  0  0  0  0
   60.7450   33.9870   48.5000 C   0  0  0  0  0  0  0  0  0  0  0  0
   59.7690   33.9660   47.3470 C   0  0  0  0  0  0  0  0  0  0  0  0
   59.8860   34.9210   46.3210 C   0  0  0  0  0  0  0  0  0  0  0  0
   58.9830   34.9290   45.2550 C   0  0  0  0  0  0  0  0  0  0  0  0
   57.9550   33.9860   45.2020 C   0  0  0  0  0  0  0  0  0  0  0  0
   57.8270   33.0330   46.2140 C   0  0  0  0  0  0  0  0  0  0  0  0
   58.7250   33.0170   47.2890 C   0  0  0  0  0  0  0  0  0  0  0  0
   58.5150   31.7950   48.5390 Cl  0  0  0  0  0  0  0  0  0  0  0  0
   62.4870   33.4350   46.8430 C   0  0  0  0  0  0  0  0  0  0  0  0
   62.8510   31.9840   47.2250 C   0  0  0  0  0  0  0  0  0  0  0  0
   61.3820   28.8670   50.6180 C   0  0  0  0  0  0  0  0  0  0  0  0
   62.1070   29.3860   51.5100 O   0  0  0  0  0  0  0  0  0  0  0  0
   60.7750   27.5200   50.8600 C   0  0  0  0  0  0  0  0  0  0  0  0
   60.6200   26.8070   49.6350 O   0  0  0  0  0  0  0  0  0  0  0  0
   59.0195   30.3273   44.8210 H   0  0  0  0  0  0  0  0  0  0  0  0
   60.3804   29.4110   44.0896 H   0  0  0  0  0  0  0  0  0  0  0  0
   58.7252   28.7133   44.0896 H   0  0  0  0  0  0  0  0  0  0  0  0
   59.2028   26.6848   45.2886 H   0  0  0  0  0  0  0  0  0  0  0  0
   59.7276   25.5949   47.4660 H   0  0  0  0  0  0  0  0  0  0  0  0
   60.3483   30.5224   46.9245 H   0  0  0  0  0  0  0  0  0  0  0  0
   61.2443   31.3488   48.2593 H   0  0  0  0  0  0  0  0  0  0  0  0
   60.9228   31.5879   50.0150 H   0  0  0  0  0  0  0  0  0  0  0  0
   63.1272   31.7099   50.4693 H   0  0  0  0  0  0  0  0  0  0  0  0
   63.4144   30.1357   49.5877 H   0  0  0  0  0  0  0  0  0  0  0  0
   64.5330   31.2750   48.1820 H   0  0  0  0  0  0  0  0  0  0  0  0
   64.8074   33.0470   49.8065 H   0  0  0  0  0  0  0  0  0  0  0  0
   64.8945   33.5562   48.0651 H   0  0  0  0  0  0  0  0  0  0  0  0
   62.6195   33.9725   50.0462 H   0  0  0  0  0  0  0  0  0  0  0  0
   63.6099   35.2064   49.1312 H   0  0  0  0  0  0  0  0  0  0  0  0
   60.7246   33.0116   49.0082 H   0  0  0  0  0  0  0  0  0  0  0  0
   60.4523   34.7864   49.1966 H   0  0  0  0  0  0  0  0  0  0  0  0
   60.6939   35.6666   46.3582 H   0  0  0  0  0  0  0  0  0  0  0  0
   59.0821   35.6791   44.4566 H   0  0  0  0  0  0  0  0  0  0  0  0
   57.2450   33.9939   44.3618 H   0  0  0  0  0  0  0  0  0  0  0  0
   57.0166   32.2906   46.1670 H   0  0  0  0  0  0  0  0  0  0  0  0
   61.6358   33.4134   46.1466 H   0  0  0  0  0  0  0  0  0  0  0  0
   63.3752   33.8920   46.3823 H   0  0  0  0  0  0  0  0  0  0  0  0
   61.9176   31.4304   47.4047 H   0  0  0  0  0  0  0  0  0  0  0  0
   63.4359   31.5749   46.3880 H   0  0  0  0  0  0  0  0  0  0  0  0
   61.4294   26.9450   51.5317 H   0  0  0  0  0  0  0  0  0  0  0  0
   59.7835   27.6569   51.3162 H   0  0  0  0  0  0  0  0  0  0  0  0
  1  2  1  0
  2  3  2  0
  3  4  1  0
  4  5  2  0
  5  6  1  0
  6  7  2  0
  6  8  1  0
  8  9  1  0
  9 10  1  0
 10 11  1  0
 11 12  1  0
 12 13  1  0
 13 14  1  0
 14 15  1  0
 15 16  1  0
 16 17  2  0
 17 18  1  0
 18 19  2  0
 19 20  1  0
 20 21  2  0
 21 22  1  0
 14 23  1  0
 23 24  1  0
  8 25  1  0
 25 26  2  0
 25 27  1  0
 27 28  1  0
  7  2  1  0
 24 11  1  0
 28  5  1  0
 21 16  1  0
  1 29  1  0
  1 30  1  0
  1 31  1  0
  3 32  1  0
  4 33  1  0
  7 34  1  0
  9 35  1  0
  9 36  1  0
 10 37  1  0
 10 38  1  0
 11 39  1  0
 12 40  1  0
 12 41  1  0
 13 42  1  0
 13 43  1  0
 15 44  1  0
 15 45  1  0
 17 46  1  0
 18 47  1  0
 19 48  1  0
 20 49  1  0
 23 50  1  0
 23 51  1  0
 24 52  1  0
 24 53  1  0
 27 54  1  0
 27 55  1  0
M  CHG  1  11   1
M  END
>  <UniqueID>  (79) 
73

>  <SMILES>  (79) 
Cc1ccc2c(c1)N(CC[NH+]1CCN(Cc3ccccc3Cl)CC1)C(=O)CO2

>  <Energy>  (79) 
78.46954185124117

>  <Genealogy>  (79) 
Cc1ccc2c(c1)N(CC[NH+]1CCN(Cc3ccccc3Cl)CC1)C(=O)CO2 (protonated)
Cc1ccc2c(c1)N(CC[NH+]1CCN(Cc3ccccc3Cl)CC1)C(=O)CO2 (3D coordinates assigned)
Cc1ccc2c(c1)N(CC[NH+]1CCN(Cc3ccccc3Cl)CC1)C(=O)CO2 (nonaromatic ring conformer: 78.46954185124117 kcal/mol)

>  <smiles>  (79) 
Cc1ccc2c(c1)N(CCN1CCN(Cc3ccccc3Cl)CC1)C(=O)CO2

>  <score_type>  (79) 
oracle

>  <origin>  (79) 
adg

>  <m_score__min__energy>  (79) 
-6.5

>  <m_primary>  (79) 
energy

$$$$
79:0
     RDKit          3D

 46 48  0  0  0  0  0  0  0  0999 V2000
   63.6740   31.5130   49.1280 O   0  0  0  0  0  0  0  0  0  0  0  0
   62.2070   31.2170   48.9900 S   0  0  0  0  0  0  0  0  0  0  0  0
   61.8900   29.9850   49.7910 O   0  0  0  0  0  0  0  0  0  0  0  0
   61.2720   32.6110   49.5990 C   0  0  0  0  0  0  0  0  0  0  0  0
   60.6530   33.3660   48.4550 C   0  0  0  0  0  0  0  0  0  0  0  0
   59.2910   33.7100   48.4860 C   0  0  0  0  0  0  0  0  0  0  0  0
   58.7230   34.4320   47.4320 C   0  0  0  0  0  0  0  0  0  0  0  0
   59.5110   34.8230   46.3450 C   0  0  0  0  0  0  0  0  0  0  0  0
   60.8690   34.4970   46.3140 C   0  0  0  0  0  0  0  0  0  0  0  0
   61.4400   33.7770   47.3670 C   0  0  0  0  0  0  0  0  0  0  0  0
   61.8430   30.9430   47.3140 N   0  0  0  0  0  0  0  0  0  0  0  0
   60.6730   30.2480   46.8490 C   0  0  0  0  0  0  0  0  0  0  0  0
   59.4000   30.4780   47.4020 C   0  0  0  0  0  0  0  0  0  0  0  0
   58.2890   29.7680   46.9430 C   0  0  0  0  0  0  0  0  0  0  0  0
   58.4280   28.8240   45.9160 C   0  0  0  0  0  0  0  0  0  0  0  0
   57.0390   27.9130   45.3310 S   0  0  0  0  0  0  0  0  0  0  0  0
   56.6880   26.8150   46.2980 O   0  0  0  0  0  0  0  0  0  0  0  0
   57.3970   27.2870   44.0130 O   0  0  0  0  0  0  0  0  0  0  0  0
   55.6840   28.9830   45.0990 N   0  0  0  0  0  0  0  0  0  0  0  0
   55.7140   29.6110   43.7780 C   0  0  0  0  0  0  0  0  0  0  0  0
   56.6040   30.8200   43.7730 C   0  0  0  0  0  0  0  0  0  0  0  0
   57.2960   31.2010   42.6130 C   0  0  0  0  0  0  0  0  0  0  0  0
   58.1190   32.3280   42.6470 C   0  0  0  0  0  0  0  0  0  0  0  0
   58.2560   33.0540   43.8300 C   0  0  0  0  0  0  0  0  0  0  0  0
   57.5540   32.6460   44.9660 C   0  0  0  0  0  0  0  0  0  0  0  0
   56.7520   31.5490   44.9150 N   0  0  0  0  0  0  0  0  0  0  0  0
   59.6900   28.5990   45.3550 C   0  0  0  0  0  0  0  0  0  0  0  0
   60.8040   29.3000   45.8220 C   0  0  0  0  0  0  0  0  0  0  0  0
   60.4767   32.2499   50.2677 H   0  0  0  0  0  0  0  0  0  0  0  0
   61.9490   33.2836   50.1462 H   0  0  0  0  0  0  0  0  0  0  0  0
   58.6694   33.4102   49.3426 H   0  0  0  0  0  0  0  0  0  0  0  0
   57.6547   34.6928   47.4579 H   0  0  0  0  0  0  0  0  0  0  0  0
   59.0616   35.3872   45.5145 H   0  0  0  0  0  0  0  0  0  0  0  0
   61.4894   34.8072   45.4602 H   0  0  0  0  0  0  0  0  0  0  0  0
   62.5119   33.5309   47.3434 H   0  0  0  0  0  0  0  0  0  0  0  0
   62.4470   31.4370   46.6180 H   0  0  0  0  0  0  0  0  0  0  0  0
   59.2791   31.2230   48.2022 H   0  0  0  0  0  0  0  0  0  0  0  0
   57.3002   29.9501   47.3892 H   0  0  0  0  0  0  0  0  0  0  0  0
   56.0914   28.8843   43.0435 H   0  0  0  0  0  0  0  0  0  0  0  0
   54.6930   29.9284   43.5194 H   0  0  0  0  0  0  0  0  0  0  0  0
   57.1909   30.6175   41.6865 H   0  0  0  0  0  0  0  0  0  0  0  0
   58.6588   32.6431   41.7419 H   0  0  0  0  0  0  0  0  0  0  0  0
   58.9096   33.9379   43.8677 H   0  0  0  0  0  0  0  0  0  0  0  0
   57.6499   33.2129   45.9038 H   0  0  0  0  0  0  0  0  0  0  0  0
   59.8052   27.8666   44.5424 H   0  0  0  0  0  0  0  0  0  0  0  0
   61.7932   29.1075   45.3810 H   0  0  0  0  0  0  0  0  0  0  0  0
  1  2  2  0
  2  3  2  0
  2  4  1  0
  4  5  1  0
  5  6  2  0
  6  7  1  0
  7  8  2  0
  8  9  1  0
  9 10  2  0
  2 11  1  0
 11 12  1  0
 12 13  2  0
 13 14  1  0
 14 15  2  0
 15 16  1  0
 16 17  2  0
 16 18  2  0
 16 19  1  0
 19 20  1  0
 20 21  1  0
 21 22  2  0
 22 23  1  0
 23 24  2  0
 24 25  1  0
 25 26  2  0
 15 27  1  0
 27 28  2  0
 10  5  1  0
 28 12  1  0
 26 21  1  0
  4 29  1  0
  4 30  1  0
  6 31  1  0
  7 32  1  0
  8 33  1  0
  9 34  1  0
 10 35  1  0
 11 36  1  0
 13 37  1  0
 14 38  1  0
 20 39  1  0
 20 40  1  0
 22 41  1  0
 23 42  1  0
 24 43  1  0
 25 44  1  0
 27 45  1  0
 28 46  1  0
M  CHG  1  19  -1
M  END
>  <UniqueID>  (80) 
74

>  <SMILES>  (80) 
O=S(=O)(Cc1ccccc1)Nc1ccc(S(=O)(=O)[N-]Cc2ccccn2)cc1

>  <Energy>  (80) 
40.828271560833926

>  <Genealogy>  (80) 
O=S(=O)(Cc1ccccc1)Nc1ccc(S(=O)(=O)[N-]Cc2ccccn2)cc1 (protonated)
O=S(=O)(Cc1ccccc1)Nc1ccc(S(=O)(=O)[N-]Cc2ccccn2)cc1 (3D coordinates assigned)
O=S(=O)(Cc1ccccc1)Nc1ccc(S(=O)(=O)[N-]Cc2ccccn2)cc1 (optimized conformer: 40.828271560833926 kcal/mol)

>  <smiles>  (80) 
O=S(=O)(Cc1ccccc1)Nc1ccc(S(=O)(=O)NCc2ccccn2)cc1

>  <score_type>  (80) 
oracle

>  <origin>  (80) 
adg

>  <m_score__min__energy>  (80) 
-10.82

>  <m_primary>  (80) 
energy

$$$$
80:0
     RDKit          3D

 36 37  0  0  0  0  0  0  0  0999 V2000
   55.1650   28.6100   45.6390 H   0  0  0  0  0  0  0  0  0  0  0  0
   55.1610   29.2610   44.8220 N   0  0  0  0  0  0  0  0  0  0  0  0
   56.8000   29.7360   44.5460 S   0  0  0  0  0  0  0  0  0  0  0  0
   56.9370   30.2790   43.1530 O   0  0  0  0  0  0  0  0  0  0  0  0
   57.1590   30.8100   45.5350 O   0  0  0  0  0  0  0  0  0  0  0  0
   57.8630   28.3410   44.7380 C   0  0  0  0  0  0  0  0  0  0  0  0
   57.4030   27.1200   44.4110 C   0  0  0  0  0  0  0  0  0  0  0  0
   56.9975   26.9774   43.3985 H   0  0  0  0  0  0  0  0  0  0  0  0
   57.4070   25.9610   45.3210 C   0  0  0  0  0  0  0  0  0  0  0  0
   57.7640   24.6970   44.8300 C   0  0  0  0  0  0  0  0  0  0  0  0
   58.0576   24.5810   43.7763 H   0  0  0  0  0  0  0  0  0  0  0  0
   57.7480   23.5830   45.6760 C   0  0  0  0  0  0  0  0  0  0  0  0
   58.0078   22.5896   45.2814 H   0  0  0  0  0  0  0  0  0  0  0  0
   57.4020   23.7310   47.0230 C   0  0  0  0  0  0  0  0  0  0  0  0
   57.3810   22.6230   47.8600 O   0  0  0  0  0  0  0  0  0  0  0  0
   57.0810   24.9960   47.5260 C   0  0  0  0  0  0  0  0  0  0  0  0
   56.8210   25.1147   48.5882 H   0  0  0  0  0  0  0  0  0  0  0  0
   57.0900   26.1100   46.6810 C   0  0  0  0  0  0  0  0  0  0  0  0
   56.8483   27.1052   47.0823 H   0  0  0  0  0  0  0  0  0  0  0  0
   59.4640   28.6100   45.4530 S   0  0  0  0  0  0  0  0  0  0  0  0
   60.1070   27.2800   45.7290 O   0  0  0  0  0  0  0  0  0  0  0  0
   60.3310   29.3730   44.4920 O   0  0  0  0  0  0  0  0  0  0  0  0
   59.3400   29.5610   46.9320 C   0  0  0  0  0  0  0  0  0  0  0  0
   59.6330   30.9300   46.9020 C   0  0  0  0  0  0  0  0  0  0  0  0
   59.9938   31.3926   45.9715 H   0  0  0  0  0  0  0  0  0  0  0  0
   59.4690   31.7110   48.0490 C   0  0  0  0  0  0  0  0  0  0  0  0
   59.6894   32.7881   48.0147 H   0  0  0  0  0  0  0  0  0  0  0  0
   59.0240   31.1260   49.2450 C   0  0  0  0  0  0  0  0  0  0  0  0
   58.7870   31.9750   50.4590 C   0  0  0  0  0  0  0  0  0  0  0  0
   58.9547   31.3742   51.3650 H   0  0  0  0  0  0  0  0  0  0  0  0
   59.4813   32.8281   50.4510 H   0  0  0  0  0  0  0  0  0  0  0  0
   57.7512   32.3452   50.4510 H   0  0  0  0  0  0  0  0  0  0  0  0
   58.7290   29.7550   49.2730 C   0  0  0  0  0  0  0  0  0  0  0  0
   58.3648   29.2918   50.2019 H   0  0  0  0  0  0  0  0  0  0  0  0
   58.8960   28.9750   48.1250 C   0  0  0  0  0  0  0  0  0  0  0  0
   58.6781   27.8973   48.1582 H   0  0  0  0  0  0  0  0  0  0  0  0
  1  2  1  0
  2  3  1  0
  3  4  2  0
  3  5  2  0
  3  6  1  0
  6  7  2  0
  7  8  1  0
  7  9  1  0
  9 10  2  0
 10 11  1  0
 10 12  1  0
 12 13  1  0
 12 14  2  0
 14 15  1  0
 14 16  1  0
 16 17  1  0
 16 18  2  0
 18 19  1  0
  6 20  1  0
 20 21  2  0
 20 22  2  0
 20 23  1  0
 23 24  2  0
 24 25  1  0
 24 26  1  0
 26 27  1  0
 26 28  2  0
 28 29  1  0
 29 30  1  0
 29 31  1  0
 29 32  1  0
 28 33  1  0
 33 34  1  0
 33 35  2  0
 35 36  1  0
 18  9  1  0
 35 23  1  0
M  CHG  2   2  -1  15  -1
M  END
>  <UniqueID>  (81) 
75

>  <SMILES>  (81) 
Cc1ccc(S(=O)(=O)/C(=C\c2ccc([O-])cc2)S([NH-])(=O)=O)cc1

>  <Energy>  (81) 
41.264932436962155

>  <Genealogy>  (81) 
Cc1ccc(S(=O)(=O)C(=Cc2ccc([O-])cc2)S([NH-])(=O)=O)cc1 (protonated)
Cc1ccc(S(=O)(=O)/C(=C\c2ccc([O-])cc2)S([NH-])(=O)=O)cc1 (cis-trans isomerization)
Cc1ccc(S(=O)(=O)/C(=C\c2ccc([O-])cc2)S([NH-])(=O)=O)cc1 (3D coordinates assigned)
Cc1ccc(S(=O)(=O)/C(=C\c2ccc([O-])cc2)S([NH-])(=O)=O)cc1 (optimized conformer: 41.264932436962155 kcal/mol)

>  <smiles>  (81) 
Cc1ccc(S(=O)(=O)C(=Cc2ccc(O)cc2)S(N)(=O)=O)cc1

>  <score_type>  (81) 
oracle

>  <origin>  (81) 
adg

>  <m_score__min__energy>  (81) 
-11.789999999999999

>  <m_primary>  (81) 
energy

$$$$
81:0
     RDKit          3D

 37 39  0  0  0  0  0  0  0  0999 V2000
   50.6340   32.7170   51.6250 O   0  0  0  0  0  0  0  0  0  0  0  0
   51.5640   31.7200   51.3650 C   0  0  0  0  0  0  0  0  0  0  0  0
   51.4180   30.9050   50.2380 C   0  0  0  0  0  0  0  0  0  0  0  0
   52.3560   29.9030   49.9720 C   0  0  0  0  0  0  0  0  0  0  0  0
   53.4400   29.7110   50.8350 C   0  0  0  0  0  0  0  0  0  0  0  0
   53.5880   30.5160   51.9760 C   0  0  0  0  0  0  0  0  0  0  0  0
   54.7570   30.3070   52.9030 C   0  0  0  0  0  0  0  0  0  0  0  0
   55.8010   31.3030   52.6560 N   0  0  0  0  0  0  0  0  0  0  0  0
   56.9730   31.0760   51.8470 C   0  0  0  0  0  0  0  0  0  0  0  0
   57.7530   29.9340   52.0830 C   0  0  0  0  0  0  0  0  0  0  0  0
   58.9000   29.6920   51.3270 C   0  0  0  0  0  0  0  0  0  0  0  0
   59.2850   30.5850   50.3270 C   0  0  0  0  0  0  0  0  0  0  0  0
   58.5170   31.7330   50.0650 C   0  0  0  0  0  0  0  0  0  0  0  0
   58.9240   32.6860   49.0000 C   0  0  0  0  0  0  0  0  0  0  0  0
   58.2170   32.7480   47.7850 C   0  0  0  0  0  0  0  0  0  0  0  0
   58.6000   33.6500   46.7880 C   0  0  0  0  0  0  0  0  0  0  0  0
   59.6910   34.4980   46.9910 C   0  0  0  0  0  0  0  0  0  0  0  0
   60.4010   34.4470   48.1920 C   0  0  0  0  0  0  0  0  0  0  0  0
   60.0220   33.5460   49.1930 C   0  0  0  0  0  0  0  0  0  0  0  0
   57.3590   31.9690   50.8280 C   0  0  0  0  0  0  0  0  0  0  0  0
   52.6480   31.5310   52.2290 C   0  0  0  0  0  0  0  0  0  0  0  0
   50.5643   31.0525   49.5601 H   0  0  0  0  0  0  0  0  0  0  0  0
   52.2415   29.2650   49.0833 H   0  0  0  0  0  0  0  0  0  0  0  0
   54.1797   28.9260   50.6189 H   0  0  0  0  0  0  0  0  0  0  0  0
   54.4124   30.3963   53.9438 H   0  0  0  0  0  0  0  0  0  0  0  0
   55.1753   29.3057   52.7227 H   0  0  0  0  0  0  0  0  0  0  0  0
   55.6560   32.2540   53.0680 H   0  0  0  0  0  0  0  0  0  0  0  0
   57.4579   29.2243   52.8699 H   0  0  0  0  0  0  0  0  0  0  0  0
   59.5036   28.7929   51.5203 H   0  0  0  0  0  0  0  0  0  0  0  0
   60.1947   30.3899   49.7401 H   0  0  0  0  0  0  0  0  0  0  0  0
   57.3572   32.0823   47.6186 H   0  0  0  0  0  0  0  0  0  0  0  0
   58.0409   33.6919   45.8416 H   0  0  0  0  0  0  0  0  0  0  0  0
   59.9909   35.2062   46.2045 H   0  0  0  0  0  0  0  0  0  0  0  0
   61.2595   35.1160   48.3515 H   0  0  0  0  0  0  0  0  0  0  0  0
   60.5855   33.5092   50.1370 H   0  0  0  0  0  0  0  0  0  0  0  0
   56.7478   32.8611   50.6267 H   0  0  0  0  0  0  0  0  0  0  0  0
   52.7656   32.1791   53.1100 H   0  0  0  0  0  0  0  0  0  0  0  0
  1  2  1  0
  2  3  2  0
  3  4  1  0
  4  5  2  0
  5  6  1  0
  6  7  1  0
  7  8  1  0
  8  9  1  0
  9 10  2  0
 10 11  1  0
 11 12  2  0
 12 13  1  0
 13 14  1  0
 14 15  2  0
 15 16  1  0
 16 17  2  0
 17 18  1  0
 18 19  2  0
 13 20  2  0
  6 21  2  0
 21  2  1  0
 20  9  1  0
 19 14  1  0
  3 22  1  0
  4 23  1  0
  5 24  1  0
  7 25  1  0
  7 26  1  0
  8 27  1  0
 10 28  1  0
 11 29  1  0
 12 30  1  0
 15 31  1  0
 16 32  1  0
 17 33  1  0
 18 34  1  0
 19 35  1  0
 20 36  1  0
 21 37  1  0
M  CHG  1   1  -1
M  END
>  <UniqueID>  (82) 
76

>  <SMILES>  (82) 
[O-]c1cccc(CNc2cccc(-c3ccccc3)c2)c1

>  <Energy>  (82) 
43.96862876815857

>  <Genealogy>  (82) 
[O-]c1cccc(CNc2cccc(-c3ccccc3)c2)c1 (protonated)
[O-]c1cccc(CNc2cccc(-c3ccccc3)c2)c1 (3D coordinates assigned)
[O-]c1cccc(CNc2cccc(-c3ccccc3)c2)c1 (optimized conformer: 43.96862876815857 kcal/mol)

>  <smiles>  (82) 
Oc1cccc(CNc2cccc(-c3ccccc3)c2)c1

>  <score_type>  (82) 
oracle

>  <origin>  (82) 
adg

>  <m_score__min__energy>  (82) 
-11.81

>  <m_primary>  (82) 
energy

$$$$
82:0
     RDKit          3D

 46 50  0  0  0  0  0  0  0  0999 V2000
   56.0219   22.7494   41.6060 H   0  0  0  0  0  0  0  0  0  0  0  0
   56.0300   22.9420   42.6890 C   0  0  0  0  0  0  0  0  0  0  0  0
   54.8570   23.3400   43.3350 C   0  0  0  0  0  0  0  0  0  0  0  0
   53.9260   23.4576   42.7611 H   0  0  0  0  0  0  0  0  0  0  0  0
   54.8660   23.5890   44.7110 C   0  0  0  0  0  0  0  0  0  0  0  0
   53.3940   24.0950   45.5210 Cl  0  0  0  0  0  0  0  0  0  0  0  0
   56.0500   23.4360   45.4420 C   0  0  0  0  0  0  0  0  0  0  0  0
   56.0567   23.6401   46.5229 H   0  0  0  0  0  0  0  0  0  0  0  0
   57.2290   23.0230   44.8010 C   0  0  0  0  0  0  0  0  0  0  0  0
   58.5030   22.8690   45.5900 C   0  0  0  0  0  0  0  0  0  0  0  0
   58.2886   22.3166   46.5168 H   0  0  0  0  0  0  0  0  0  0  0  0
   59.2329   22.3201   44.9769 H   0  0  0  0  0  0  0  0  0  0  0  0
   59.0520   24.1450   45.9220 O   0  0  0  0  0  0  0  0  0  0  0  0
   58.3830   25.3730   45.7960 C   0  0  0  0  0  0  0  0  0  0  0  0
   58.4200   26.0220   44.5550 C   0  0  0  0  0  0  0  0  0  0  0  0
   58.9640   25.5633   43.7161 H   0  0  0  0  0  0  0  0  0  0  0  0
   57.7720   27.2470   44.3730 C   0  0  0  0  0  0  0  0  0  0  0  0
   57.7897   27.7363   43.3880 H   0  0  0  0  0  0  0  0  0  0  0  0
   57.1010   27.8520   45.4410 C   0  0  0  0  0  0  0  0  0  0  0  0
   56.3980   29.0810   45.2300 N   0  0  0  0  0  0  0  0  0  0  0  0
   56.7870   30.0880   44.5020 C   0  0  0  0  0  0  0  0  0  0  0  0
   56.6590   30.0920   43.1550 N   0  0  0  0  0  0  0  0  0  0  0  0
   57.1270   31.2470   42.7010 N   0  0  0  0  0  0  0  0  0  0  0  0
   57.1540   31.5180   41.6930 H   0  0  0  0  0  0  0  0  0  0  0  0
   57.5640   31.9750   43.7420 C   0  0  0  0  0  0  0  0  0  0  0  0
   58.1680   33.2290   43.7040 C   0  0  0  0  0  0  0  0  0  0  0  0
   58.2936   33.7703   42.7547 H   0  0  0  0  0  0  0  0  0  0  0  0
   58.6130   33.7820   44.9210 C   0  0  0  0  0  0  0  0  0  0  0  0
   59.2240   35.0450   44.9450 C   0  0  0  0  0  0  0  0  0  0  0  0
   59.3454   35.6139   44.0114 H   0  0  0  0  0  0  0  0  0  0  0  0
   59.6790   35.5820   46.1540 C   0  0  0  0  0  0  0  0  0  0  0  0
   60.1549   36.5736   46.1675 H   0  0  0  0  0  0  0  0  0  0  0  0
   59.5320   34.8650   47.3450 C   0  0  0  0  0  0  0  0  0  0  0  0
   59.8947   35.2946   48.2905 H   0  0  0  0  0  0  0  0  0  0  0  0
   58.9270   33.6060   47.3410 C   0  0  0  0  0  0  0  0  0  0  0  0
   58.8170   33.0477   48.2824 H   0  0  0  0  0  0  0  0  0  0  0  0
   58.4590   33.0510   46.1400 C   0  0  0  0  0  0  0  0  0  0  0  0
   57.8490   31.7770   46.1310 C   0  0  0  0  0  0  0  0  0  0  0  0
   57.7430   31.1933   47.0573 H   0  0  0  0  0  0  0  0  0  0  0  0
   57.3840   31.2800   44.9100 C   0  0  0  0  0  0  0  0  0  0  0  0
   57.0320   27.1940   46.6780 C   0  0  0  0  0  0  0  0  0  0  0  0
   56.4651   27.6431   47.5068 H   0  0  0  0  0  0  0  0  0  0  0  0
   57.6810   25.9700   46.8610 C   0  0  0  0  0  0  0  0  0  0  0  0
   57.6434   25.4709   47.8406 H   0  0  0  0  0  0  0  0  0  0  0  0
   57.2140   22.7880   43.4160 C   0  0  0  0  0  0  0  0  0  0  0  0
   58.1370   22.4818   42.9019 H   0  0  0  0  0  0  0  0  0  0  0  0
  1  2  1  0
  2  3  2  0
  3  4  1  0
  3  5  1  0
  5  6  1  0
  5  7  2  0
  7  8  1  0
  7  9  1  0
  9 10  1  0
 10 11  1  0
 10 12  1  0
 10 13  1  0
 13 14  1  0
 14 15  2  0
 15 16  1  0
 15 17  1  0
 17 18  1  0
 17 19  2  0
 19 20  1  0
 20 21  2  0
 21 22  1  0
 22 23  1  0
 23 24  1  0
 23 25  1  0
 25 26  2  0
 26 27  1  0
 26 28  1  0
 28 29  2  0
 29 30  1  0
 29 31  1  0
 31 32  1  0
 31 33  2  0
 33 34  1  0
 33 35  1  0
 35 36  1  0
 35 37  2  0
 37 38  1  0
 38 39  1  0
 38 40  2  0
 19 41  1  0
 41 42  1  0
 41 43  2  0
 43 44  1  0
  9 45  2  0
 45 46  1  0
 45  2  1  0
 43 14  1  0
 40 21  1  0
 40 25  1  0
 37 28  1  0
M  CHG  1  22  -1
M  END
>  <UniqueID>  (83) 
77

>  <SMILES>  (83) 
Clc1cccc(COc2ccc(/N=c3/[n-][nH]c4cc5ccccc5cc34)cc2)c1

>  <Energy>  (83) 
105.53799103044051

>  <Genealogy>  (83) 
Clc1cccc(COc2ccc(N=c3[n-][nH]c4cc5ccccc5cc34)cc2)c1 (protonated)
Clc1cccc(COc2ccc(/N=c3/[n-][nH]c4cc5ccccc5cc34)cc2)c1 (cis-trans isomerization)
Clc1cccc(COc2ccc(/N=c3/[n-][nH]c4cc5ccccc5cc34)cc2)c1 (3D coordinates assigned)
Clc1cccc(COc2ccc(/N=c3/[n-][nH]c4cc5ccccc5cc34)cc2)c1 (optimized conformer: 105.53799103044051 kcal/mol)

>  <smiles>  (83) 
Clc1cccc(COc2ccc(N=c3[nH][nH]c4cc5ccccc5cc34)cc2)c1

>  <score_type>  (83) 
oracle

>  <origin>  (83) 
adg

>  <m_score__min__energy>  (83) 
-11.34

>  <m_primary>  (83) 
energy

$$$$
83:0
     RDKit          3D

 38 41  0  0  0  0  0  0  0  0999 V2000
   59.4390   23.2870   45.5560 C   0  0  0  0  0  0  0  0  0  0  0  0
   59.3830   24.5090   46.2830 O   0  0  0  0  0  0  0  0  0  0  0  0
   58.4970   25.5600   45.9990 C   0  0  0  0  0  0  0  0  0  0  0  0
   57.1970   25.4890   46.5130 C   0  0  0  0  0  0  0  0  0  0  0  0
   56.2740   26.5060   46.2540 C   0  0  0  0  0  0  0  0  0  0  0  0
   56.6410   27.6080   45.4770 C   0  0  0  0  0  0  0  0  0  0  0  0
   57.9520   27.7030   44.9700 C   0  0  0  0  0  0  0  0  0  0  0  0
   58.8700   26.6730   45.2200 C   0  0  0  0  0  0  0  0  0  0  0  0
   58.3420   28.8800   44.1090 C   0  0  0  0  0  0  0  0  0  0  0  0
   57.4470   30.1110   44.3820 C   0  0  1  0  0  0  0  0  0  0  0  0
   55.9660   29.6850   44.3130 C   0  0  0  0  0  0  0  0  0  0  0  0
   55.7100   28.6230   45.2320 O   0  0  0  0  0  0  0  0  0  0  0  0
   57.7890   30.7870   45.7530 C   0  0  0  0  0  0  0  0  0  0  0  0
   58.2370   32.1410   45.4410 N   0  0  0  0  0  0  0  0  0  0  0  0
   58.6520   33.0850   46.4930 C   0  0  0  0  0  0  0  0  0  0  0  0
   58.5370   34.5590   46.1450 C   0  0  0  0  0  0  0  0  0  0  0  0
   59.9080   33.8900   46.2060 C   0  0  0  0  0  0  0  0  0  0  0  0
   58.1670   32.2970   44.0290 C   0  0  0  0  0  0  0  0  0  0  0  0
   58.4770   33.3470   43.4080 O   0  0  0  0  0  0  0  0  0  0  0  0
   57.7080   31.1360   43.3770 N   0  0  0  0  0  0  0  0  0  0  0  0
   59.4777   22.4428   46.2602 H   0  0  0  0  0  0  0  0  0  0  0  0
   58.5441   23.1957   44.9229 H   0  0  0  0  0  0  0  0  0  0  0  0
   60.3385   23.2779   44.9229 H   0  0  0  0  0  0  0  0  0  0  0  0
   56.8993   24.6255   47.1260 H   0  0  0  0  0  0  0  0  0  0  0  0
   55.2552   26.4388   46.6632 H   0  0  0  0  0  0  0  0  0  0  0  0
   59.8871   26.7344   44.8056 H   0  0  0  0  0  0  0  0  0  0  0  0
   59.3880   29.1458   44.3215 H   0  0  0  0  0  0  0  0  0  0  0  0
   58.2145   28.5908   43.0554 H   0  0  0  0  0  0  0  0  0  0  0  0
   55.3293   30.5453   44.5669 H   0  0  0  0  0  0  0  0  0  0  0  0
   55.7422   29.3366   43.2939 H   0  0  0  0  0  0  0  0  0  0  0  0
   56.8963   30.8195   46.3950 H   0  0  0  0  0  0  0  0  0  0  0  0
   58.5636   30.2241   46.2944 H   0  0  0  0  0  0  0  0  0  0  0  0
   58.3071   32.4534   47.3249 H   0  0  0  0  0  0  0  0  0  0  0  0
   58.1162   34.8645   45.1757 H   0  0  0  0  0  0  0  0  0  0  0  0
   58.0775   35.4379   46.6208 H   0  0  0  0  0  0  0  0  0  0  0  0
   60.4758   33.7130   45.2807 H   0  0  0  0  0  0  0  0  0  0  0  0
   60.8472   34.0863   46.7440 H   0  0  0  0  0  0  0  0  0  0  0  0
   57.5830   31.0320   42.3450 H   0  0  0  0  0  0  0  0  0  0  0  0
  1  2  1  0
  2  3  1  0
  3  4  2  0
  4  5  1  0
  5  6  2  0
  6  7  1  0
  7  8  2  0
  7  9  1  0
  9 10  1  0
 10 11  1  0
 11 12  1  0
 10 13  1  0
 13 14  1  0
 14 15  1  0
 15 16  1  0
 16 17  1  0
 14 18  1  0
 18 19  2  0
 18 20  1  0
  8  3  1  0
 10 20  1  6
 12  6  1  0
 17 15  1  0
  1 21  1  0
  1 22  1  0
  1 23  1  0
  4 24  1  0
  5 25  1  0
  8 26  1  0
  9 27  1  0
  9 28  1  0
 11 29  1  0
 11 30  1  0
 13 31  1  0
 13 32  1  0
 15 33  1  0
 16 34  1  0
 16 35  1  0
 17 36  1  0
 17 37  1  0
 20 38  1  0
M  END
>  <UniqueID>  (84) 
78

>  <SMILES>  (84) 
COc1ccc2c(c1)C[C@@]1(CO2)CN(C2CC2)C(=O)N1

>  <Energy>  (84) 
322.26500211318444

>  <Genealogy>  (84) 
COc1ccc2c(c1)C[C@@]1(CO2)CN(C2CC2)C(=O)N1 (chirality)
COc1ccc2c(c1)C[C@@]1(CO2)CN(C2CC2)C(=O)N1 (3D coordinates assigned)
COc1ccc2c(c1)C[C@@]1(CO2)CN(C2CC2)C(=O)N1 (nonaromatic ring conformer: 322.26500211318444 kcal/mol)

>  <smiles>  (84) 
COc1ccc2c(c1)CC1(CO2)CN(C2CC2)C(=O)N1

>  <score_type>  (84) 
oracle

>  <origin>  (84) 
adg

>  <m_score__min__energy>  (84) 
-6.6600000000000001

>  <m_primary>  (84) 
energy

$$$$
84:0
     RDKit          3D

 45 46  0  0  0  0  0  0  0  0999 V2000
   57.7440   32.3430   41.6000 C   0  0  0  0  0  0  0  0  0  0  0  0
   58.3390   31.9940   42.9720 C   0  0  1  0  0  0  0  0  0  0  0  0
   58.2440   33.1630   43.9070 C   0  0  0  0  0  0  0  0  0  0  0  0
   59.2380   33.9210   44.0650 O   0  0  0  0  0  0  0  0  0  0  0  0
   57.0420   33.3810   44.6580 N   0  0  0  0  0  0  0  0  0  0  0  0
   57.0010   33.4040   46.1140 C   0  0  0  0  0  0  0  0  0  0  0  0
   58.3980   33.3800   46.6770 C   0  0  0  0  0  0  0  0  0  0  0  0
   59.0620   34.5760   46.9840 C   0  0  0  0  0  0  0  0  0  0  0  0
   60.3600   34.5490   47.4980 C   0  0  0  0  0  0  0  0  0  0  0  0
   61.0180   33.3320   47.7150 C   0  0  0  0  0  0  0  0  0  0  0  0
   62.3230   33.3700   48.2310 O   0  0  0  0  0  0  0  0  0  0  0  0
   63.5110   33.0900   47.4950 C   0  0  0  0  0  0  0  0  0  0  0  0
   64.6080   33.3780   48.2870 F   0  0  0  0  0  0  0  0  0  0  0  0
   63.5640   33.8790   46.3600 F   0  0  0  0  0  0  0  0  0  0  0  0
   63.5510   31.7520   47.1440 F   0  0  0  0  0  0  0  0  0  0  0  0
   60.3500   32.1300   47.4100 C   0  0  0  0  0  0  0  0  0  0  0  0
   59.0490   32.1560   46.9000 C   0  0  0  0  0  0  0  0  0  0  0  0
   57.6980   30.7770   43.6150 C   0  0  0  0  0  0  0  0  0  0  0  0
   58.4460   30.0050   44.5200 C   0  0  0  0  0  0  0  0  0  0  0  0
   57.8600   28.9270   45.1920 C   0  0  0  0  0  0  0  0  0  0  0  0
   56.5110   28.6030   44.9710 C   0  0  0  0  0  0  0  0  0  0  0  0
   55.8720   27.4960   45.6230 N   0  0  0  0  0  0  0  0  0  0  0  0
   56.6000   25.9590   45.9680 S   0  0  0  0  0  0  0  0  0  0  0  0
   57.4950   25.3800   44.5420 C   0  0  0  0  0  0  0  0  0  0  0  0
   55.5460   24.9620   46.3640 O   0  0  0  0  0  0  0  0  0  0  0  0
   57.5600   26.1300   47.1110 O   0  0  0  0  0  0  0  0  0  0  0  0
   55.7580   29.3800   44.0830 C   0  0  0  0  0  0  0  0  0  0  0  0
   54.4490   29.0970   43.8760 F   0  0  0  0  0  0  0  0  0  0  0  0
   56.3390   30.4640   43.4210 C   0  0  0  0  0  0  0  0  0  0  0  0
   56.8027   32.8951   41.7383 H   0  0  0  0  0  0  0  0  0  0  0  0
   58.4560   32.9666   41.0395 H   0  0  0  0  0  0  0  0  0  0  0  0
   57.5471   31.4172   41.0395 H   0  0  0  0  0  0  0  0  0  0  0  0
   59.3945   31.7460   42.7865 H   0  0  0  0  0  0  0  0  0  0  0  0
   56.4908   34.3194   46.4482 H   0  0  0  0  0  0  0  0  0  0  0  0
   56.4563   32.5173   46.4706 H   0  0  0  0  0  0  0  0  0  0  0  0
   58.5582   35.5399   46.8192 H   0  0  0  0  0  0  0  0  0  0  0  0
   60.8711   35.4938   47.7350 H   0  0  0  0  0  0  0  0  0  0  0  0
   60.8546   31.1664   47.5740 H   0  0  0  0  0  0  0  0  0  0  0  0
   58.5321   31.2122   46.6720 H   0  0  0  0  0  0  0  0  0  0  0  0
   59.5027   30.2507   44.7018 H   0  0  0  0  0  0  0  0  0  0  0  0
   58.4581   28.3304   45.8965 H   0  0  0  0  0  0  0  0  0  0  0  0
   58.3768   24.8096   44.8693 H   0  0  0  0  0  0  0  0  0  0  0  0
   56.8428   24.7322   43.9378 H   0  0  0  0  0  0  0  0  0  0  0  0
   57.8185   26.2405   43.9378 H   0  0  0  0  0  0  0  0  0  0  0  0
   55.7295   31.0786   42.7421 H   0  0  0  0  0  0  0  0  0  0  0  0
  1  2  1  0
  2  3  1  0
  3  4  2  0
  3  5  1  0
  5  6  1  0
  6  7  1  0
  7  8  2  0
  8  9  1  0
  9 10  2  0
 10 11  1  0
 11 12  1  0
 12 13  1  0
 12 14  1  0
 12 15  1  0
 10 16  1  0
 16 17  2  0
  2 18  1  0
 18 19  2  0
 19 20  1  0
 20 21  2  0
 21 22  1  0
 22 23  1  0
 23 24  1  0
 23 25  2  0
 23 26  2  0
 21 27  1  0
 27 28  1  0
 27 29  2  0
 17  7  1  0
 29 18  1  0
  1 30  1  0
  1 31  1  0
  1 32  1  0
  2 33  1  6
  6 34  1  0
  6 35  1  0
  8 36  1  0
  9 37  1  0
 16 38  1  0
 17 39  1  0
 19 40  1  0
 20 41  1  0
 24 42  1  0
 24 43  1  0
 24 44  1  0
 29 45  1  0
M  CHG  2   5  -1  22  -1
M  END
>  <UniqueID>  (85) 
79

>  <SMILES>  (85) 
C[C@@H](C(=O)[N-]Cc1ccc(OC(F)(F)F)cc1)c1ccc([N-]S(C)(=O)=O)c(F)c1

>  <Energy>  (85) 
39.024928958843105

>  <Genealogy>  (85) 
CC(C(=O)[N-]Cc1ccc(OC(F)(F)F)cc1)c1ccc([N-]S(C)(=O)=O)c(F)c1 (protonated)
C[C@@H](C(=O)[N-]Cc1ccc(OC(F)(F)F)cc1)c1ccc([N-]S(C)(=O)=O)c(F)c1 (chirality)
C[C@@H](C(=O)[N-]Cc1ccc(OC(F)(F)F)cc1)c1ccc([N-]S(C)(=O)=O)c(F)c1 (3D coordinates assigned)
C[C@@H](C(=O)[N-]Cc1ccc(OC(F)(F)F)cc1)c1ccc([N-]S(C)(=O)=O)c(F)c1 (optimized conformer: 39.024928958843105 kcal/mol)

>  <smiles>  (85) 
CC(C(=O)NCc1ccc(OC(F)(F)F)cc1)c1ccc(NS(C)(=O)=O)c(F)c1

>  <score_type>  (85) 
oracle

>  <origin>  (85) 
adg

>  <m_score__min__energy>  (85) 
-11.15

>  <m_primary>  (85) 
energy

$$$$
85:0
     RDKit          3D

 38 41  0  0  0  0  0  0  0  0999 V2000
   55.5060   26.5050   46.2190 N   0  0  0  0  0  0  0  0  0  0  0  0
   57.2200   26.5480   45.9970 S   0  0  0  0  0  0  0  0  0  0  0  0
   57.8840   25.8010   47.1180 O   0  0  0  0  0  0  0  0  0  0  0  0
   57.5520   25.8880   44.6880 O   0  0  0  0  0  0  0  0  0  0  0  0
   57.7910   28.2140   45.9840 C   0  0  0  0  0  0  0  0  0  0  0  0
   59.0600   28.5570   46.5000 C   0  0  0  0  0  0  0  0  0  0  0  0
   59.5110   29.9030   46.4750 C   0  0  0  0  0  0  0  0  0  0  0  0
   60.7690   30.2470   46.9910 C   0  0  0  0  0  0  0  0  0  0  0  0
   61.2130   31.5790   46.9710 C   0  0  0  0  0  0  0  0  0  0  0  0
   62.5060   31.8920   47.5210 N   0  0  0  0  0  0  0  0  0  0  0  0
   62.7480   32.5800   49.0960 S   0  0  0  0  0  0  0  0  0  0  0  0
   63.7740   31.7710   49.8380 O   0  0  0  0  0  0  0  0  0  0  0  0
   63.2520   33.9890   48.9450 O   0  0  0  0  0  0  0  0  0  0  0  0
   61.2410   32.5510   50.0050 C   0  0  0  0  0  0  0  0  0  0  0  0
   60.5440   33.7400   50.2650 C   0  0  0  0  0  0  0  0  0  0  0  0
   59.3400   33.7070   50.9760 C   0  0  0  0  0  0  0  0  0  0  0  0
   58.8270   32.4870   51.4330 C   0  0  0  0  0  0  0  0  0  0  0  0
   57.3170   32.4470   52.3220 Cl  0  0  0  0  0  0  0  0  0  0  0  0
   59.5230   31.3000   51.1780 C   0  0  0  0  0  0  0  0  0  0  0  0
   60.7270   31.3310   50.4680 C   0  0  0  0  0  0  0  0  0  0  0  0
   60.3860   32.5730   46.4090 C   0  0  0  0  0  0  0  0  0  0  0  0
   59.1310   32.2460   45.8890 C   0  0  0  0  0  0  0  0  0  0  0  0
   58.6870   30.9190   45.9200 C   0  0  0  0  0  0  0  0  0  0  0  0
   57.4450   30.5330   45.4150 C   0  0  0  0  0  0  0  0  0  0  0  0
   56.4930   31.2820   44.8370 N   0  0  0  0  0  0  0  0  0  0  0  0
   55.5130   30.4350   44.5280 N   0  0  0  0  0  0  0  0  0  0  0  0
   55.8030   29.1850   44.8840 N   0  0  0  0  0  0  0  0  0  0  0  0
   57.0200   29.2440   45.4450 C   0  0  0  0  0  0  0  0  0  0  0  0
   55.1480   27.4670   46.0270 H   0  0  0  0  0  0  0  0  0  0  0  0
   59.7051   27.7740   46.9253 H   0  0  0  0  0  0  0  0  0  0  0  0
   61.4150   29.4647   47.4161 H   0  0  0  0  0  0  0  0  0  0  0  0
   63.3630   31.6170   46.9910 H   0  0  0  0  0  0  0  0  0  0  0  0
   60.9451   34.7004   49.9090 H   0  0  0  0  0  0  0  0  0  0  0  0
   58.7951   34.6413   51.1765 H   0  0  0  0  0  0  0  0  0  0  0  0
   59.1220   30.3406   51.5369 H   0  0  0  0  0  0  0  0  0  0  0  0
   61.2725   30.3961   50.2720 H   0  0  0  0  0  0  0  0  0  0  0  0
   60.7323   33.6166   46.3796 H   0  0  0  0  0  0  0  0  0  0  0  0
   58.4929   33.0303   45.4559 H   0  0  0  0  0  0  0  0  0  0  0  0
  1  2  1  0
  2  3  2  0
  2  4  2  0
  2  5  1  0
  5  6  2  0
  6  7  1  0
  7  8  2  0
  8  9  1  0
  9 10  1  0
 10 11  1  0
 11 12  2  0
 11 13  2  0
 11 14  1  0
 14 15  2  0
 15 16  1  0
 16 17  2  0
 17 18  1  0
 17 19  1  0
 19 20  2  0
  9 21  2  0
 21 22  1  0
 22 23  2  0
 23 24  1  0
 24 25  1  0
 25 26  2  0
 26 27  1  0
 27 28  1  0
 28  5  1  0
 23  7  1  0
 28 24  2  0
 20 14  1  0
  1 29  1  0
  6 30  1  0
  8 31  1  0
 10 32  1  0
 15 33  1  0
 16 34  1  0
 19 35  1  0
 20 36  1  0
 21 37  1  0
 22 38  1  0
M  CHG  2   1  -1  27  -1
M  END
>  <UniqueID>  (86) 
80

>  <SMILES>  (86) 
[NH-]S(=O)(=O)c1cc2cc(NS(=O)(=O)c3ccc(Cl)cc3)ccc2c2nn[n-]c12

>  <Energy>  (86) 
90.95589022513182

>  <Genealogy>  (86) 
[NH-]S(=O)(=O)c1cc2cc(NS(=O)(=O)c3ccc(Cl)cc3)ccc2c2nn[n-]c12 (protonated)
[NH-]S(=O)(=O)c1cc2cc(NS(=O)(=O)c3ccc(Cl)cc3)ccc2c2nn[n-]c12 (3D coordinates assigned)
[NH-]S(=O)(=O)c1cc2cc(NS(=O)(=O)c3ccc(Cl)cc3)ccc2c2nn[n-]c12 (optimized conformer: 90.95589022513182 kcal/mol)

>  <smiles>  (86) 
NS(=O)(=O)c1cc2cc(NS(=O)(=O)c3ccc(Cl)cc3)ccc2c2nn[nH]c12

>  <score_type>  (86) 
oracle

>  <origin>  (86) 
adg

>  <m_score__min__energy>  (86) 
-14.4

>  <m_primary>  (86) 
energy

$$$$
86:0
     RDKit          3D

 56 57  0  0  0  0  0  0  0  0999 V2000
   67.5130   32.3900   50.8270 C   0  0  0  0  0  0  0  0  0  0  0  0
   66.0160   32.3450   50.7050 C   0  0  0  0  0  0  0  0  0  0  0  0
   65.2520   31.7230   51.6970 C   0  0  0  0  0  0  0  0  0  0  0  0
   63.8620   31.7060   51.6030 C   0  0  0  0  0  0  0  0  0  0  0  0
   63.2010   32.3400   50.5360 C   0  0  0  0  0  0  0  0  0  0  0  0
   61.6920   32.2320   50.4680 C   0  0  0  0  0  0  0  0  0  0  0  0
   61.2790   30.8800   50.0620 N   0  0  0  0  0  0  0  0  0  0  0  0
   61.0130   29.9840   51.2060 C   0  0  0  0  0  0  0  0  0  0  0  0
   59.9030   28.9750   50.8590 C   0  0  1  0  0  0  0  0  0  0  0  0
   58.5940   29.6270   50.9240 N   0  0  0  0  0  0  0  0  0  0  0  0
   58.4060   31.0020   51.2800 C   0  0  0  0  0  0  0  0  0  0  0  0
   58.3610   31.3470   52.4960 O   0  0  0  0  0  0  0  0  0  0  0  0
   58.3070   32.0480   50.2100 C   0  0  0  0  0  0  0  0  0  0  0  0
   58.5110   31.4520   48.8870 N   0  0  0  0  0  0  0  0  0  0  0  0
   59.2760   32.6030   47.8280 S   0  0  0  0  0  0  0  0  0  0  0  0
   60.7630   32.3810   47.8770 O   0  0  0  0  0  0  0  0  0  0  0  0
   59.0090   34.0080   48.2940 O   0  0  0  0  0  0  0  0  0  0  0  0
   58.7180   32.3570   46.1600 C   0  0  0  0  0  0  0  0  0  0  0  0
   58.0940   31.1420   45.8470 C   0  0  0  0  0  0  0  0  0  0  0  0
   57.6000   30.8950   44.5610 C   0  0  0  0  0  0  0  0  0  0  0  0
   56.8080   29.3490   44.2170 S   0  0  0  0  0  0  0  0  0  0  0  0
   55.1870   29.3450   44.8190 N   0  0  0  0  0  0  0  0  0  0  0  0
   57.5650   28.2280   44.8760 O   0  0  0  0  0  0  0  0  0  0  0  0
   56.7730   29.1300   42.7300 O   0  0  0  0  0  0  0  0  0  0  0  0
   57.7200   31.8920   43.5720 C   0  0  0  0  0  0  0  0  0  0  0  0
   57.0830   31.6750   41.9460 Cl  0  0  0  0  0  0  0  0  0  0  0  0
   58.3370   33.1090   43.8800 C   0  0  0  0  0  0  0  0  0  0  0  0
   58.8360   33.3540   45.1640 C   0  0  0  0  0  0  0  0  0  0  0  0
   59.5690   34.9250   45.4600 Cl  0  0  0  0  0  0  0  0  0  0  0  0
   60.1270   28.4280   49.4730 C   0  0  0  0  0  0  0  0  0  0  0  0
   60.5520   27.2520   49.3110 O   0  0  0  0  0  0  0  0  0  0  0  0
   59.8680   29.2230   48.3640 O   0  0  0  0  0  0  0  0  0  0  0  0
   63.9700   32.9960   49.5400 C   0  0  0  0  0  0  0  0  0  0  0  0
   63.3260   33.6990   48.3740 C   0  0  0  0  0  0  0  0  0  0  0  0
   65.3720   32.9880   49.6390 C   0  0  0  0  0  0  0  0  0  0  0  0
   67.7941   32.3984   51.8904 H   0  0  0  0  0  0  0  0  0  0  0  0
   67.9474   31.5045   50.3399 H   0  0  0  0  0  0  0  0  0  0  0  0
   67.8934   33.3000   50.3399 H   0  0  0  0  0  0  0  0  0  0  0  0
   65.7497   31.2457   52.5541 H   0  0  0  0  0  0  0  0  0  0  0  0
   63.2730   31.1890   52.3748 H   0  0  0  0  0  0  0  0  0  0  0  0
   61.2702   32.4547   51.4592 H   0  0  0  0  0  0  0  0  0  0  0  0
   61.3221   32.9507   49.7220 H   0  0  0  0  0  0  0  0  0  0  0  0
   60.3880   30.9780   49.5140 H   0  0  0  0  0  0  0  0  0  0  0  0
   61.9332   29.4364   51.4576 H   0  0  0  0  0  0  0  0  0  0  0  0
   60.6845   30.5912   52.0624 H   0  0  0  0  0  0  0  0  0  0  0  0
   59.9305   28.1500   51.5860 H   0  0  0  0  0  0  0  0  0  0  0  0
   57.3100   32.5112   50.2482 H   0  0  0  0  0  0  0  0  0  0  0  0
   59.0852   32.8063   50.3816 H   0  0  0  0  0  0  0  0  0  0  0  0
   59.1830   30.6540   48.9820 H   0  0  0  0  0  0  0  0  0  0  0  0
   57.9908   30.3703   46.6241 H   0  0  0  0  0  0  0  0  0  0  0  0
   55.1590   28.6950   45.6330 H   0  0  0  0  0  0  0  0  0  0  0  0
   58.4310   33.8825   43.1036 H   0  0  0  0  0  0  0  0  0  0  0  0
   62.6269   34.4622   48.7466 H   0  0  0  0  0  0  0  0  0  0  0  0
   64.1027   34.1808   47.7619 H   0  0  0  0  0  0  0  0  0  0  0  0
   62.7781   32.9675   47.7619 H   0  0  0  0  0  0  0  0  0  0  0  0
   65.9726   33.4938   48.8686 H   0  0  0  0  0  0  0  0  0  0  0  0
  1  2  1  0
  2  3  2  0
  3  4  1  0
  4  5  2  0
  5  6  1  0
  6  7  1  0
  7  8  1  0
  8  9  1  0
  9 10  1  0
 10 11  1  0
 11 12  2  0
 11 13  1  0
 13 14  1  0
 14 15  1  0
 15 16  2  0
 15 17  2  0
 15 18  1  0
 18 19  2  0
 19 20  1  0
 20 21  1  0
 21 22  1  0
 21 23  2  0
 21 24  2  0
 20 25  2  0
 25 26  1  0
 25 27  1  0
 27 28  2  0
 28 29  1  0
  9 30  1  0
 30 31  2  0
 30 32  1  0
  5 33  1  0
 33 34  1  0
 33 35  2  0
 35  2  1  0
 28 18  1  0
  1 36  1  0
  1 37  1  0
  1 38  1  0
  3 39  1  0
  4 40  1  0
  6 41  1  0
  6 42  1  0
  7 43  1  0
  8 44  1  0
  8 45  1  0
  9 46  1  1
 13 47  1  0
 13 48  1  0
 14 49  1  0
 19 50  1  0
 22 51  1  0
 27 52  1  0
 34 53  1  0
 34 54  1  0
 34 55  1  0
 35 56  1  0
M  CHG  3  10  -1  22  -1  32  -1
M  END
>  <UniqueID>  (87) 
81

>  <SMILES>  (87) 
Cc1ccc(CNC[C@@H]([N-]C(=O)CNS(=O)(=O)c2cc(S([NH-])(=O)=O)c(Cl)cc2Cl)C(=O)[O-])c(C)c1

>  <Energy>  (87) 
51.493209731586745

>  <Genealogy>  (87) 
Cc1ccc(CNCC([N-]C(=O)CNS(=O)(=O)c2cc(S([NH-])(=O)=O)c(Cl)cc2Cl)C(=O)[O-])c(C)c1 (protonated)
Cc1ccc(CNC[C@@H]([N-]C(=O)CNS(=O)(=O)c2cc(S([NH-])(=O)=O)c(Cl)cc2Cl)C(=O)[O-])c(C)c1 (chirality)
Cc1ccc(CNC[C@@H]([N-]C(=O)CNS(=O)(=O)c2cc(S([NH-])(=O)=O)c(Cl)cc2Cl)C(=O)[O-])c(C)c1 (3D coordinates assigned)
Cc1ccc(CNC[C@@H]([N-]C(=O)CNS(=O)(=O)c2cc(S([NH-])(=O)=O)c(Cl)cc2Cl)C(=O)[O-])c(C)c1 (optimized conformer: 51.493209731586745 kcal/mol)

>  <smiles>  (87) 
Cc1ccc(CNCC(NC(=O)CNS(=O)(=O)c2cc(S(N)(=O)=O)c(Cl)cc2Cl)C(=O)O)c(C)c1

>  <score_type>  (87) 
oracle

>  <origin>  (87) 
adg

>  <m_score__min__energy>  (87) 
-15.24

>  <m_primary>  (87) 
energy

$$$$
87:0
     RDKit          3D

 46 49  0  0  0  0  0  0  0  0999 V2000
   55.1470   28.5970   45.6600 H   0  0  0  0  0  0  0  0  0  0  0  0
   55.5630   29.1570   44.8830 N   0  0  0  0  0  0  0  0  0  0  0  0
   57.2660   29.2290   45.1700 S   0  0  0  0  0  0  0  0  0  0  0  0
   57.5060   30.1050   46.3670 O   0  0  0  0  0  0  0  0  0  0  0  0
   57.9540   29.8350   43.9780 O   0  0  0  0  0  0  0  0  0  0  0  0
   57.9120   27.6060   45.4700 C   0  0  0  0  0  0  0  0  0  0  0  0
   57.4470   26.5390   44.6850 C   0  0  0  0  0  0  0  0  0  0  0  0
   56.6678   26.7178   43.9294 H   0  0  0  0  0  0  0  0  0  0  0  0
   57.9640   25.2530   44.8540 C   0  0  0  0  0  0  0  0  0  0  0  0
   57.5897   24.4248   44.2343 H   0  0  0  0  0  0  0  0  0  0  0  0
   58.9540   25.0170   45.8070 C   0  0  0  0  0  0  0  0  0  0  0  0
   59.3664   24.0049   45.9322 H   0  0  0  0  0  0  0  0  0  0  0  0
   59.4220   26.0640   46.6020 C   0  0  0  0  0  0  0  0  0  0  0  0
   60.2051   25.8724   47.3504 H   0  0  0  0  0  0  0  0  0  0  0  0
   58.9020   27.3600   46.4550 C   0  0  0  0  0  0  0  0  0  0  0  0
   59.4120   28.4240   47.3430 C   0  0  0  0  0  0  0  0  0  0  0  0
   58.8430   28.6380   48.6050 C   0  0  0  0  0  0  0  0  0  0  0  0
   58.0001   28.0155   48.9396 H   0  0  0  0  0  0  0  0  0  0  0  0
   59.3300   29.6130   49.4170 N   0  0  0  0  0  0  0  0  0  0  0  0
   60.3780   30.4040   49.0480 C   0  0  0  0  0  0  0  0  0  0  0  0
   60.8280   31.3310   49.8410 N   0  0  0  0  0  0  0  0  0  0  0  0
   60.2710   32.6790   49.9530 C   0  0  0  0  0  0  0  0  0  0  0  0
   59.3580   32.6437   50.5656 H   0  0  0  0  0  0  0  0  0  0  0  0
   61.0184   33.3347   50.4236 H   0  0  0  0  0  0  0  0  0  0  0  0
   59.9330   33.2250   48.5910 C   0  0  0  0  0  0  0  0  0  0  0  0
   60.9090   33.8990   47.8240 C   0  0  0  0  0  0  0  0  0  0  0  0
   61.9205   34.0442   48.2311 H   0  0  0  0  0  0  0  0  0  0  0  0
   60.5950   34.3840   46.5460 C   0  0  0  0  0  0  0  0  0  0  0  0
   61.3514   34.9111   45.9460 H   0  0  0  0  0  0  0  0  0  0  0  0
   59.3060   34.1860   46.0490 C   0  0  0  0  0  0  0  0  0  0  0  0
   58.3540   33.5310   46.7860 C   0  0  0  0  0  0  0  0  0  0  0  0
   58.6400   33.0390   48.0610 C   0  0  0  0  0  0  0  0  0  0  0  0
   57.8681   32.5142   48.6431 H   0  0  0  0  0  0  0  0  0  0  0  0
   57.0640   33.4290   46.0670 C   0  0  0  0  0  0  0  0  0  0  0  0
   56.7878   32.3763   45.9072 H   0  0  0  0  0  0  0  0  0  0  0  0
   56.2313   33.8807   46.6261 H   0  0  0  0  0  0  0  0  0  0  0  0
   57.3280   34.1360   44.7230 C   0  0  0  0  0  0  0  0  0  0  0  0
   57.1681   33.4333   43.8919 H   0  0  0  0  0  0  0  0  0  0  0  0
   56.6420   34.9860   44.5927 H   0  0  0  0  0  0  0  0  0  0  0  0
   58.7910   34.6180   44.7290 C   0  0  0  0  0  0  0  0  0  0  0  0
   59.3608   34.1476   43.9141 H   0  0  0  0  0  0  0  0  0  0  0  0
   58.8794   35.7036   44.5750 H   0  0  0  0  0  0  0  0  0  0  0  0
   60.9810   30.2110   47.8000 C   0  0  0  0  0  0  0  0  0  0  0  0
   61.8284   30.8406   47.4910 H   0  0  0  0  0  0  0  0  0  0  0  0
   60.5000   29.2150   46.9510 C   0  0  0  0  0  0  0  0  0  0  0  0
   60.9751   29.0501   45.9727 H   0  0  0  0  0  0  0  0  0  0  0  0
  1  2  1  0
  2  3  1  0
  3  4  2  0
  3  5  2  0
  3  6  1  0
  6  7  2  0
  7  8  1  0
  7  9  1  0
  9 10  1  0
  9 11  2  0
 11 12  1  0
 11 13  1  0
 13 14  1  0
 13 15  2  0
 15 16  1  0
 16 17  2  0
 17 18  1  0
 17 19  1  0
 19 20  1  0
 20 21  2  0
 21 22  1  0
 22 23  1  0
 22 24  1  0
 22 25  1  0
 25 26  2  0
 26 27  1  0
 26 28  1  0
 28 29  1  0
 28 30  2  0
 30 31  1  0
 31 32  2  0
 32 33  1  0
 31 34  1  0
 34 35  1  0
 34 36  1  0
 34 37  1  0
 37 38  1  0
 37 39  1  0
 37 40  1  0
 40 41  1  0
 40 42  1  0
 20 43  1  0
 43 44  1  0
 43 45  2  0
 45 46  1  0
 15  6  1  0
 45 16  1  0
 32 25  1  0
 40 30  1  0
M  CHG  2   2  -1  19  -1
M  END
>  <UniqueID>  (88) 
82

>  <SMILES>  (88) 
[NH-]S(=O)(=O)c1ccccc1-c1cc/c(=N/Cc2ccc3c(c2)CCC3)[n-]c1

>  <Energy>  (88) 
64.80260040819611

>  <Genealogy>  (88) 
[NH-]S(=O)(=O)c1ccccc1-c1ccc(=NCc2ccc3c(c2)CCC3)[n-]c1 (protonated)
[NH-]S(=O)(=O)c1ccccc1-c1cc/c(=N/Cc2ccc3c(c2)CCC3)[n-]c1 (cis-trans isomerization)
[NH-]S(=O)(=O)c1ccccc1-c1cc/c(=N/Cc2ccc3c(c2)CCC3)[n-]c1 (3D coordinates assigned)
[NH-]S(=O)(=O)c1ccccc1-c1cc/c(=N/Cc2ccc3c(c2)CCC3)[n-]c1 (nonaromatic ring conformer: 64.80260040819611 kcal/mol)

>  <smiles>  (88) 
NS(=O)(=O)c1ccccc1-c1ccc(=NCc2ccc3c(c2)CCC3)[nH]c1

>  <score_type>  (88) 
oracle

>  <origin>  (88) 
adg

>  <m_score__min__energy>  (88) 
-12.68

>  <m_primary>  (88) 
energy

$$$$
88:0
     RDKit          3D

 45 47  0  0  0  0  0  0  0  0999 V2000
   50.7930   32.0430   48.8250 C   0  0  0  0  0  0  0  0  0  0  0  0
   51.3090   32.6830   49.9880 O   0  0  0  0  0  0  0  0  0  0  0  0
   51.7850   32.0070   51.1230 C   0  0  0  0  0  0  0  0  0  0  0  0
   52.9530   31.2230   51.0930 C   0  0  0  0  0  0  0  0  0  0  0  0
   53.3920   30.5510   52.2440 C   0  0  0  0  0  0  0  0  0  0  0  0
   54.6230   29.7310   52.2120 C   0  0  0  0  0  0  0  0  0  0  0  0
   54.5330   28.4960   51.9720 O   0  0  0  0  0  0  0  0  0  0  0  0
   55.9190   30.3180   52.4350 N   0  0  0  0  0  0  0  0  0  0  0  0
   56.9520   29.5640   53.1580 C   0  0  0  0  0  0  0  0  0  0  0  0
   58.1810   29.3750   52.2620 C   0  0  0  0  0  0  0  0  0  0  0  0
   58.5220   30.6140   51.5480 N   0  0  0  0  0  0  0  0  0  0  0  0
   59.6820   30.6310   50.7020 C   0  0  0  0  0  0  0  0  0  0  0  0
   60.7610   30.1290   51.1190 O   0  0  0  0  0  0  0  0  0  0  0  0
   59.6260   31.1870   49.3380 C   0  0  0  0  0  0  0  0  0  0  0  0
   58.5400   31.1030   48.4720 C   0  0  0  0  0  0  0  0  0  0  0  0
   58.7450   31.7730   47.2590 C   0  0  0  0  0  0  0  0  0  0  0  0
   59.9830   32.3950   47.1670 C   0  0  0  0  0  0  0  0  0  0  0  0
   60.8210   32.1140   48.5970 S   0  0  0  0  0  0  0  0  0  0  0  0
   57.7790   31.8500   51.8260 C   0  0  0  0  0  0  0  0  0  0  0  0
   56.2720   31.5780   51.7590 C   0  0  0  0  0  0  0  0  0  0  0  0
   52.6720   30.6930   53.4400 C   0  0  0  0  0  0  0  0  0  0  0  0
   51.5020   31.4750   53.4840 C   0  0  0  0  0  0  0  0  0  0  0  0
   50.7490   31.6320   54.6580 O   0  0  0  0  0  0  0  0  0  0  0  0
   50.0120   30.5890   55.2880 C   0  0  0  0  0  0  0  0  0  0  0  0
   51.0670   32.1240   52.3200 C   0  0  0  0  0  0  0  0  0  0  0  0
   49.9100   32.8950   52.3550 O   0  0  0  0  0  0  0  0  0  0  0  0
   50.1286   31.2190   49.1242 H   0  0  0  0  0  0  0  0  0  0  0  0
   50.2267   32.7716   48.2263 H   0  0  0  0  0  0  0  0  0  0  0  0
   51.6251   31.6441   48.2263 H   0  0  0  0  0  0  0  0  0  0  0  0
   53.5272   31.1361   50.1588 H   0  0  0  0  0  0  0  0  0  0  0  0
   57.2419   30.1179   54.0631 H   0  0  0  0  0  0  0  0  0  0  0  0
   56.5523   28.5782   53.4382 H   0  0  0  0  0  0  0  0  0  0  0  0
   59.0358   29.0751   52.8861 H   0  0  0  0  0  0  0  0  0  0  0  0
   57.9494   28.5995   51.5170 H   0  0  0  0  0  0  0  0  0  0  0  0
   57.6126   30.5640   48.7158 H   0  0  0  0  0  0  0  0  0  0  0  0
   57.9953   31.8035   46.4546 H   0  0  0  0  0  0  0  0  0  0  0  0
   60.3520   32.9723   46.3064 H   0  0  0  0  0  0  0  0  0  0  0  0
   58.0397   32.2144   52.8306 H   0  0  0  0  0  0  0  0  0  0  0  0
   58.0441   32.6090   51.0753 H   0  0  0  0  0  0  0  0  0  0  0  0
   55.7375   32.4067   52.2463 H   0  0  0  0  0  0  0  0  0  0  0  0
   55.9838   31.4937   50.7008 H   0  0  0  0  0  0  0  0  0  0  0  0
   53.0249   30.1887   54.3516 H   0  0  0  0  0  0  0  0  0  0  0  0
   50.0870   30.6952   56.3803 H   0  0  0  0  0  0  0  0  0  0  0  0
   48.9563   30.6514   54.9852 H   0  0  0  0  0  0  0  0  0  0  0  0
   50.4234   29.6148   54.9852 H   0  0  0  0  0  0  0  0  0  0  0  0
  1  2  1  0
  2  3  1  0
  3  4  2  0
  4  5  1  0
  5  6  1  0
  6  7  2  0
  6  8  1  0
  8  9  1  0
  9 10  1  0
 10 11  1  0
 11 12  1  0
 12 13  2  0
 12 14  1  0
 14 15  2  0
 15 16  1  0
 16 17  2  0
 17 18  1  0
 11 19  1  0
 19 20  1  0
  5 21  2  0
 21 22  1  0
 22 23  1  0
 23 24  1  0
 22 25  2  0
 25 26  1  0
 25  3  1  0
 20  8  1  0
 18 14  1  0
  1 27  1  0
  1 28  1  0
  1 29  1  0
  4 30  1  0
  9 31  1  0
  9 32  1  0
 10 33  1  0
 10 34  1  0
 15 35  1  0
 16 36  1  0
 17 37  1  0
 19 38  1  0
 19 39  1  0
 20 40  1  0
 20 41  1  0
 21 42  1  0
 24 43  1  0
 24 44  1  0
 24 45  1  0
M  CHG  1  26  -1
M  END
>  <UniqueID>  (89) 
83

>  <SMILES>  (89) 
COc1cc(C(=O)N2CCN(C(=O)c3cccs3)CC2)cc(OC)c1[O-]

>  <Energy>  (89) 
80.3923598488184

>  <Genealogy>  (89) 
COc1cc(C(=O)N2CCN(C(=O)c3cccs3)CC2)cc(OC)c1[O-] (protonated)
COc1cc(C(=O)N2CCN(C(=O)c3cccs3)CC2)cc(OC)c1[O-] (3D coordinates assigned)
COc1cc(C(=O)N2CCN(C(=O)c3cccs3)CC2)cc(OC)c1[O-] (nonaromatic ring conformer: 80.3923598488184 kcal/mol)

>  <smiles>  (89) 
COc1cc(C(=O)N2CCN(C(=O)c3cccs3)CC2)cc(OC)c1O

>  <score_type>  (89) 
oracle

>  <origin>  (89) 
adg

>  <m_score__min__energy>  (89) 
-11.460000000000001

>  <m_primary>  (89) 
energy

$$$$
89:0
     RDKit          3D

 42 44  0  0  0  0  0  0  0  0999 V2000
   56.0410   29.3530   43.0860 N   0  0  0  0  0  0  0  0  0  0  0  0
   56.8460   30.4510   43.5190 C   0  0  0  0  0  0  0  0  0  0  0  0
   57.3170   31.3900   42.5910 C   0  0  0  0  0  0  0  0  0  0  0  0
   58.1090   32.4620   43.0180 C   0  0  0  0  0  0  0  0  0  0  0  0
   58.4470   32.5940   44.3690 C   0  0  0  0  0  0  0  0  0  0  0  0
   57.9920   31.6540   45.3110 C   0  0  0  0  0  0  0  0  0  0  0  0
   58.3590   31.8040   46.7420 C   0  0  0  0  0  0  0  0  0  0  0  0
   57.7500   32.6500   47.4500 O   0  0  0  0  0  0  0  0  0  0  0  0
   59.3660   30.9940   47.3630 N   0  0  0  0  0  0  0  0  0  0  0  0
   59.3280   29.5670   47.4920 C   0  0  0  0  0  0  0  0  0  0  0  0
   60.2930   28.8700   48.2400 C   0  0  0  0  0  0  0  0  0  0  0  0
   60.2400   27.4780   48.3320 C   0  0  0  0  0  0  0  0  0  0  0  0
   59.2230   26.7720   47.6840 C   0  0  0  0  0  0  0  0  0  0  0  0
   58.2420   27.4590   46.9570 C   0  0  0  0  0  0  0  0  0  0  0  0
   56.9800   26.5530   46.1270 S   0  0  0  0  0  0  0  0  0  0  0  0
   55.9140   27.4730   45.6010 O   0  0  0  0  0  0  0  0  0  0  0  0
   56.3590   25.5890   47.0950 O   0  0  0  0  0  0  0  0  0  0  0  0
   57.6730   25.6680   44.8060 N   0  0  0  0  0  0  0  0  0  0  0  0
   57.3390   24.3140   44.4600 C   0  0  0  0  0  0  0  0  0  0  0  0
   57.9140   23.2090   45.1130 C   0  0  0  0  0  0  0  0  0  0  0  0
   57.5700   21.9070   44.7330 C   0  0  0  0  0  0  0  0  0  0  0  0
   56.6400   21.6920   43.7060 C   0  0  0  0  0  0  0  0  0  0  0  0
   56.2830   20.4000   43.3290 O   0  0  0  0  0  0  0  0  0  0  0  0
   56.0660   22.7880   43.0540 C   0  0  0  0  0  0  0  0  0  0  0  0
   56.4190   24.0910   43.4250 C   0  0  0  0  0  0  0  0  0  0  0  0
   58.2890   28.8570   46.8760 C   0  0  0  0  0  0  0  0  0  0  0  0
   57.1700   30.5950   44.8770 C   0  0  0  0  0  0  0  0  0  0  0  0
   55.5030   29.4000   42.1920 H   0  0  0  0  0  0  0  0  0  0  0  0
   55.9710   28.4800   43.6580 H   0  0  0  0  0  0  0  0  0  0  0  0
   57.0638   31.2842   41.5258 H   0  0  0  0  0  0  0  0  0  0  0  0
   58.4670   33.2035   42.2886 H   0  0  0  0  0  0  0  0  0  0  0  0
   59.0722   33.4378   44.6964 H   0  0  0  0  0  0  0  0  0  0  0  0
   61.0925   29.4233   48.7545 H   0  0  0  0  0  0  0  0  0  0  0  0
   60.9995   26.9365   48.9151 H   0  0  0  0  0  0  0  0  0  0  0  0
   59.1926   25.6741   47.7448 H   0  0  0  0  0  0  0  0  0  0  0  0
   58.6374   23.3690   45.9261 H   0  0  0  0  0  0  0  0  0  0  0  0
   58.0314   21.0481   45.2424 H   0  0  0  0  0  0  0  0  0  0  0  0
   56.9080   19.6140   43.4760 H   0  0  0  0  0  0  0  0  0  0  0  0
   55.3354   22.6259   42.2478 H   0  0  0  0  0  0  0  0  0  0  0  0
   55.9708   24.9475   42.9001 H   0  0  0  0  0  0  0  0  0  0  0  0
   57.5062   29.3999   46.3260 H   0  0  0  0  0  0  0  0  0  0  0  0
   56.7784   29.8741   45.6097 H   0  0  0  0  0  0  0  0  0  0  0  0
  1  2  1  0
  2  3  2  0
  3  4  1  0
  4  5  2  0
  5  6  1  0
  6  7  1  0
  7  8  2  0
  7  9  1  0
  9 10  1  0
 10 11  2  0
 11 12  1  0
 12 13  2  0
 13 14  1  0
 14 15  1  0
 15 16  2  0
 15 17  2  0
 15 18  1  0
 18 19  1  0
 19 20  2  0
 20 21  1  0
 21 22  2  0
 22 23  1  0
 22 24  1  0
 24 25  2  0
 14 26  2  0
  6 27  2  0
 27  2  1  0
 26 10  1  0
 25 19  1  0
  1 28  1  0
  1 29  1  0
  3 30  1  0
  4 31  1  0
  5 32  1  0
 11 33  1  0
 12 34  1  0
 13 35  1  0
 20 36  1  0
 21 37  1  0
 23 38  1  0
 24 39  1  0
 25 40  1  0
 26 41  1  0
 27 42  1  0
M  CHG  2   9  -1  18  -1
M  END
>  <UniqueID>  (90) 
84

>  <SMILES>  (90) 
Nc1cccc(C(=O)[N-]c2cccc(S(=O)(=O)[N-]c3ccc(O)cc3)c2)c1

>  <Energy>  (90) 
52.517345017894016

>  <Genealogy>  (90) 
Nc1cccc(C(=O)[N-]c2cccc(S(=O)(=O)[N-]c3ccc(O)cc3)c2)c1 (protonated)
Nc1cccc(C(=O)[N-]c2cccc(S(=O)(=O)[N-]c3ccc(O)cc3)c2)c1 (3D coordinates assigned)
Nc1cccc(C(=O)[N-]c2cccc(S(=O)(=O)[N-]c3ccc(O)cc3)c2)c1 (optimized conformer: 52.517345017894016 kcal/mol)

>  <smiles>  (90) 
Nc1cccc(C(=O)Nc2cccc(S(=O)(=O)Nc3ccc(O)cc3)c2)c1

>  <score_type>  (90) 
oracle

>  <origin>  (90) 
adg

>  <m_score__min__energy>  (90) 
-12.44

>  <m_primary>  (90) 
energy

$$$$
90:0
     RDKit          3D

 33 35  0  0  0  0  0  0  0  0999 V2000
   57.0970   33.4700   47.2290 C   0  0  0  0  0  0  0  0  0  0  0  0
   58.1750   32.9470   46.3920 N   0  0  0  0  0  0  0  0  0  0  0  0
   59.5490   33.0130   46.8180 C   0  0  0  0  0  0  0  0  0  0  0  0
   60.7460   33.9040   46.0160 S   0  0  0  0  0  0  0  0  0  0  0  0
   61.9840   33.4640   47.0560 C   0  0  0  0  0  0  0  0  0  0  0  0
   63.3210   33.8490   47.0060 C   0  0  0  0  0  0  0  0  0  0  0  0
   64.1880   33.3640   47.9960 C   0  0  0  0  0  0  0  0  0  0  0  0
   63.7050   32.5140   49.0090 C   0  0  0  0  0  0  0  0  0  0  0  0
   62.3510   32.1400   49.0400 C   0  0  0  0  0  0  0  0  0  0  0  0
   61.4900   32.6240   48.0470 C   0  0  0  0  0  0  0  0  0  0  0  0
   60.1150   32.3610   47.9260 C   0  0  0  0  0  0  0  0  0  0  0  0
   59.1380   31.3140   49.2030 Br  0  0  0  0  0  0  0  0  0  0  0  0
   57.7630   32.0920   44.9350 S   0  0  0  0  0  0  0  0  0  0  0  0
   58.2940   32.8580   43.7550 O   0  0  0  0  0  0  0  0  0  0  0  0
   56.2660   32.0060   44.8240 O   0  0  0  0  0  0  0  0  0  0  0  0
   58.4450   30.4600   44.9420 C   0  0  0  0  0  0  0  0  0  0  0  0
   59.5430   30.1710   45.7710 C   0  0  0  0  0  0  0  0  0  0  0  0
   60.0980   28.8900   45.7890 C   0  0  0  0  0  0  0  0  0  0  0  0
   59.5620   27.8830   44.9870 C   0  0  0  0  0  0  0  0  0  0  0  0
   58.4680   28.1540   44.1630 C   0  0  0  0  0  0  0  0  0  0  0  0
   57.9020   29.4360   44.1360 C   0  0  0  0  0  0  0  0  0  0  0  0
   56.3920   29.7220   42.9870 Br  0  0  0  0  0  0  0  0  0  0  0  0
   57.3609   33.3420   48.2892 H   0  0  0  0  0  0  0  0  0  0  0  0
   56.9514   34.5389   47.0139 H   0  0  0  0  0  0  0  0  0  0  0  0
   56.1673   32.9228   47.0139 H   0  0  0  0  0  0  0  0  0  0  0  0
   63.6875   34.5156   46.2114 H   0  0  0  0  0  0  0  0  0  0  0  0
   65.2503   33.6491   47.9809 H   0  0  0  0  0  0  0  0  0  0  0  0
   64.3926   32.1399   49.7818 H   0  0  0  0  0  0  0  0  0  0  0  0
   61.9729   31.4771   49.8322 H   0  0  0  0  0  0  0  0  0  0  0  0
   59.9677   30.9594   46.4098 H   0  0  0  0  0  0  0  0  0  0  0  0
   60.9601   28.6746   46.4374 H   0  0  0  0  0  0  0  0  0  0  0  0
   60.0013   26.8747   45.0036 H   0  0  0  0  0  0  0  0  0  0  0  0
   58.0480   27.3572   43.5316 H   0  0  0  0  0  0  0  0  0  0  0  0
  1  2  1  0
  2  3  1  0
  3  4  1  0
  4  5  1  0
  5  6  2  0
  6  7  1  0
  7  8  2  0
  8  9  1  0
  9 10  2  0
 10 11  1  0
 11 12  1  0
  2 13  1  0
 13 14  2  0
 13 15  2  0
 13 16  1  0
 16 17  2  0
 17 18  1  0
 18 19  2  0
 19 20  1  0
 20 21  2  0
 21 22  1  0
 11  3  2  0
 21 16  1  0
 10  5  1  0
  1 23  1  0
  1 24  1  0
  1 25  1  0
  6 26  1  0
  7 27  1  0
  8 28  1  0
  9 29  1  0
 17 30  1  0
 18 31  1  0
 19 32  1  0
 20 33  1  0
M  END
>  <UniqueID>  (91) 
85

>  <SMILES>  (91) 
CN(c1sc2ccccc2c1Br)S(=O)(=O)c1ccccc1Br

>  <Energy>  (91) 
74.13766164451746

>  <Genealogy>  (91) 
CN(c1sc2ccccc2c1Br)S(=O)(=O)c1ccccc1Br (3D coordinates assigned)
CN(c1sc2ccccc2c1Br)S(=O)(=O)c1ccccc1Br (optimized conformer: 74.13766164451746 kcal/mol)

>  <smiles>  (91) 
CN(c1sc2ccccc2c1Br)S(=O)(=O)c1ccccc1Br

>  <score_type>  (91) 
oracle

>  <origin>  (91) 
adg

>  <m_score__min__energy>  (91) 
-8.3599999999999994

>  <m_primary>  (91) 
energy

$$$$
91:0
     RDKit          3D

 38 40  0  0  0  0  0  0  0  0999 V2000
   58.2866   32.9483   42.1862 H   0  0  0  0  0  0  0  0  0  0  0  0
   57.8110   32.1870   42.8220 C   0  0  0  0  0  0  0  0  0  0  0  0
   57.0210   31.1900   42.2460 C   0  0  0  0  0  0  0  0  0  0  0  0
   56.8824   31.1617   41.1551 H   0  0  0  0  0  0  0  0  0  0  0  0
   56.4060   30.2280   43.0520 C   0  0  0  0  0  0  0  0  0  0  0  0
   55.7978   29.4359   42.5909 H   0  0  0  0  0  0  0  0  0  0  0  0
   56.5600   30.2670   44.4450 C   0  0  0  0  0  0  0  0  0  0  0  0
   55.9340   29.2430   45.2370 N   0  0  0  0  0  0  0  0  0  0  0  0
   56.4020   28.0540   45.4860 C   0  0  0  0  0  0  0  0  0  0  0  0
   55.5200   27.0160   45.6690 N   0  0  0  0  0  0  0  0  0  0  0  0
   55.9540   25.7550   45.9640 C   0  0  0  0  0  0  0  0  0  0  0  0
   55.1320   24.8160   46.1330 O   0  0  0  0  0  0  0  0  0  0  0  0
   57.3210   25.5480   46.0760 C   0  0  0  0  0  0  0  0  0  0  0  0
   57.9970   24.4250   46.3860 N   0  0  0  0  0  0  0  0  0  0  0  0
   59.2930   24.8450   46.3770 C   0  0  0  0  0  0  0  0  0  0  0  0
   60.1446   24.1833   46.5936 H   0  0  0  0  0  0  0  0  0  0  0  0
   59.4290   26.1620   46.0740 N   0  0  0  0  0  0  0  0  0  0  0  0
   60.6570   26.9530   46.0440 C   0  0  0  0  0  0  0  0  0  0  0  0
   60.8091   27.3434   45.0269 H   0  0  0  0  0  0  0  0  0  0  0  0
   61.4978   26.3075   46.3378 H   0  0  0  0  0  0  0  0  0  0  0  0
   60.5760   28.1250   47.0230 C   0  0  0  0  0  0  0  0  0  0  0  0
   61.5689   28.3038   47.4614 H   0  0  0  0  0  0  0  0  0  0  0  0
   59.8569   27.8836   47.8196 H   0  0  0  0  0  0  0  0  0  0  0  0
   60.1260   29.3440   46.3110 N   0  0  0  0  0  0  0  0  0  0  0  0
   60.8220   30.5420   46.8030 C   0  0  0  0  0  0  0  0  0  0  0  0
   60.8212   30.5407   47.9030 H   0  0  0  0  0  0  0  0  0  0  0  0
   61.8593   30.5396   46.4371 H   0  0  0  0  0  0  0  0  0  0  0  0
   60.3061   31.4420   46.4371 H   0  0  0  0  0  0  0  0  0  0  0  0
   60.3130   29.2160   44.8570 C   0  0  0  0  0  0  0  0  0  0  0  0
   61.2052   28.6053   44.6544 H   0  0  0  0  0  0  0  0  0  0  0  0
   59.4295   28.7324   44.4149 H   0  0  0  0  0  0  0  0  0  0  0  0
   60.4441   30.2147   44.4149 H   0  0  0  0  0  0  0  0  0  0  0  0
   58.1710   26.5810   45.8950 C   0  0  0  0  0  0  0  0  0  0  0  0
   57.7490   27.8350   45.6130 N   0  0  0  0  0  0  0  0  0  0  0  0
   57.3840   31.2560   45.0180 C   0  0  0  0  0  0  0  0  0  0  0  0
   57.5457   31.2725   46.1059 H   0  0  0  0  0  0  0  0  0  0  0  0
   57.9970   32.2170   44.2070 C   0  0  0  0  0  0  0  0  0  0  0  0
   58.6263   32.9973   44.6599 H   0  0  0  0  0  0  0  0  0  0  0  0
  1  2  1  0
  2  3  2  0
  3  4  1  0
  3  5  1  0
  5  6  1  0
  5  7  2  0
  7  8  1  0
  8  9  2  0
  9 10  1  0
 10 11  1  0
 11 12  2  0
 11 13  1  0
 13 14  1  0
 14 15  2  0
 15 16  1  0
 15 17  1  0
 17 18  1  0
 18 19  1  0
 18 20  1  0
 18 21  1  0
 21 22  1  0
 21 23  1  0
 21 24  1  0
 24 25  1  0
 25 26  1  0
 25 27  1  0
 25 28  1  0
 24 29  1  0
 29 30  1  0
 29 31  1  0
 29 32  1  0
 17 33  1  0
 33 34  1  0
  7 35  1  0
 35 36  1  0
 35 37  2  0
 37 38  1  0
 37  2  1  0
 34  9  1  0
 33 13  2  0
M  CHG  2  10  -1  34  -1
M  END
>  <UniqueID>  (92) 
86

>  <SMILES>  (92) 
CN(C)CCn1cnc2c(=O)[n-]/c(=N/c3ccccc3)[n-]c21

>  <Energy>  (92) 
85.51883191741632

>  <Genealogy>  (92) 
CN(C)CCn1cnc2c(=O)[n-]c(=Nc3ccccc3)[n-]c21 (protonated)
CN(C)CCn1cnc2c(=O)[n-]/c(=N/c3ccccc3)[n-]c21 (cis-trans isomerization)
CN(C)CCn1cnc2c(=O)[n-]/c(=N/c3ccccc3)[n-]c21 (3D coordinates assigned)
CN(C)CCn1cnc2c(=O)[n-]/c(=N/c3ccccc3)[n-]c21 (optimized conformer: 85.51883191741632 kcal/mol)

>  <smiles>  (92) 
CN(C)CCn1cnc2c(=O)[nH]c(=Nc3ccccc3)[nH]c21

>  <score_type>  (92) 
oracle

>  <origin>  (92) 
adg

>  <m_score__min__energy>  (92) 
-10.119999999999999

>  <m_primary>  (92) 
energy

$$$$
92:0
     RDKit          3D

 32 33  0  0  0  0  0  0  0  0999 V2000
   59.8095   26.1234   45.0134 H   0  0  0  0  0  0  0  0  0  0  0  0
   59.1880   27.0270   44.9280 C   0  0  0  0  0  0  0  0  0  0  0  0
   58.5100   27.2930   43.7420 C   0  0  0  0  0  0  0  0  0  0  0  0
   58.5921   26.5972   42.8940 H   0  0  0  0  0  0  0  0  0  0  0  0
   57.7260   28.4420   43.6280 C   0  0  0  0  0  0  0  0  0  0  0  0
   57.1912   28.6436   42.6881 H   0  0  0  0  0  0  0  0  0  0  0  0
   57.6110   29.3470   44.7020 C   0  0  0  0  0  0  0  0  0  0  0  0
   56.7710   30.5640   44.5360 C   0  0  0  0  0  0  0  0  0  0  0  0
   55.5150   30.4650   44.5970 O   0  0  0  0  0  0  0  0  0  0  0  0
   57.3770   31.8220   44.1930 N   0  0  0  0  0  0  0  0  0  0  0  0
   57.9830   32.6720   44.9750 C   0  0  0  0  0  0  0  0  0  0  0  0
   58.5390   33.8210   44.3970 C   0  0  0  0  0  0  0  0  0  0  0  0
   58.4631   33.9842   43.3118 H   0  0  0  0  0  0  0  0  0  0  0  0
   59.1880   34.7560   45.2000 C   0  0  0  0  0  0  0  0  0  0  0  0
   59.6133   35.6665   44.7527 H   0  0  0  0  0  0  0  0  0  0  0  0
   59.2970   34.5350   46.5710 C   0  0  0  0  0  0  0  0  0  0  0  0
   59.7910   35.2779   47.2145 H   0  0  0  0  0  0  0  0  0  0  0  0
   58.7730   33.3600   47.1240 C   0  0  0  0  0  0  0  0  0  0  0  0
   58.8760   33.1170   48.6020 C   0  0  0  0  0  0  0  0  0  0  0  0
   58.5027   33.9976   49.1453 H   0  0  0  0  0  0  0  0  0  0  0  0
   58.2734   32.2372   48.8718 H   0  0  0  0  0  0  0  0  0  0  0  0
   59.9273   32.9382   48.8718 H   0  0  0  0  0  0  0  0  0  0  0  0
   58.1240   32.4610   46.3230 N   0  0  0  0  0  0  0  0  0  0  0  0
   57.7740   31.5870   46.7690 H   0  0  0  0  0  0  0  0  0  0  0  0
   58.2910   29.0660   45.9140 C   0  0  0  0  0  0  0  0  0  0  0  0
   58.1550   29.9420   47.0040 O   0  0  0  0  0  0  0  0  0  0  0  0
   58.8900   29.8490   48.2210 C   0  0  0  0  0  0  0  0  0  0  0  0
   58.2003   29.9363   49.0735 H   0  0  0  0  0  0  0  0  0  0  0  0
   59.4058   28.8784   48.2646 H   0  0  0  0  0  0  0  0  0  0  0  0
   59.6313   30.6605   48.2646 H   0  0  0  0  0  0  0  0  0  0  0  0
   59.0820   27.9020   46.0080 C   0  0  0  0  0  0  0  0  0  0  0  0
   59.6201   27.6827   46.9420 H   0  0  0  0  0  0  0  0  0  0  0  0
  1  2  1  0
  2  3  2  0
  3  4  1  0
  3  5  1  0
  5  6  1  0
  5  7  2  0
  7  8  1  0
  8  9  2  0
  8 10  1  0
 10 11  2  0
 11 12  1  0
 12 13  1  0
 12 14  2  0
 14 15  1  0
 14 16  1  0
 16 17  1  0
 16 18  2  0
 18 19  1  0
 19 20  1  0
 19 21  1  0
 19 22  1  0
 18 23  1  0
 23 24  1  0
  7 25  1  0
 25 26  1  0
 26 27  1  0
 27 28  1  0
 27 29  1  0
 27 30  1  0
 25 31  2  0
 31 32  1  0
 31  2  1  0
 23 11  1  0
M  END
>  <UniqueID>  (93) 
87

>  <SMILES>  (93) 
COc1ccccc1C(=O)/N=c1/cccc(C)[nH]1

>  <Energy>  (93) 
41.55000770800867

>  <Genealogy>  (93) 
COc1ccccc1C(=O)/N=c1/cccc(C)[nH]1 (cis-trans isomerization)
COc1ccccc1C(=O)/N=c1/cccc(C)[nH]1 (3D coordinates assigned)
COc1ccccc1C(=O)/N=c1/cccc(C)[nH]1 (optimized conformer: 41.55000770800867 kcal/mol)

>  <smiles>  (93) 
COc1ccccc1C(=O)N=c1cccc(C)[nH]1

>  <score_type>  (93) 
oracle

>  <origin>  (93) 
adg

>  <m_score__min__energy>  (93) 
-7.0300000000000002

>  <m_primary>  (93) 
energy

$$$$
93:0
     RDKit          3D

 57 60  0  0  0  0  0  0  0  0999 V2000
   64.2400   33.4700   51.2030 C   0  0  0  0  0  0  0  0  0  0  0  0
   63.5710   33.4750   49.8600 C   0  0  0  0  0  0  0  0  0  0  0  0
   64.2710   33.0530   48.7200 C   0  0  0  0  0  0  0  0  0  0  0  0
   63.6640   33.1040   47.4630 C   0  0  0  0  0  0  0  0  0  0  0  0
   62.3600   33.5860   47.3310 C   0  0  0  0  0  0  0  0  0  0  0  0
   61.6490   34.0190   48.4620 C   0  0  0  0  0  0  0  0  0  0  0  0
   60.2670   34.5950   48.3160 C   0  0  0  0  0  0  0  0  0  0  0  0
   59.6230   34.0760   47.0540 C   0  0  0  0  0  0  0  0  0  0  0  0
   59.0370   32.8430   47.0580 N   0  0  0  0  0  0  0  0  0  0  0  0
   58.3930   32.3620   45.9590 C   0  0  0  0  0  0  0  0  0  0  0  0
   57.7790   31.1010   45.9760 C   0  0  0  0  0  0  0  0  0  0  0  0
   57.0950   30.6320   44.8430 C   0  0  0  0  0  0  0  0  0  0  0  0
   56.4400   29.3100   44.8630 C   0  0  0  0  0  0  0  0  0  0  0  0
   55.1820   29.2480   44.8550 O   0  0  0  0  0  0  0  0  0  0  0  0
   57.1940   28.0920   44.8920 N   0  0  0  0  0  0  0  0  0  0  0  0
   58.5600   27.9570   44.3940 C   0  0  0  0  0  0  0  0  0  0  0  0
   59.5190   27.7200   45.5620 C   0  0  0  0  0  0  0  0  0  0  0  0
   59.5120   28.8750   46.4870 N   0  0  0  0  0  0  0  0  0  0  0  0
   60.7840   29.6310   46.3900 C   0  0  0  0  0  0  0  0  0  0  0  0
   60.9610   30.5840   47.5760 C   0  0  0  0  0  0  0  0  0  0  0  0
   61.0360   29.8100   48.9040 C   0  0  0  0  0  0  0  0  0  0  0  0
   60.3310   28.4460   48.8350 C   0  0  0  0  0  0  0  0  0  0  0  0
   59.1340   28.4880   47.8740 C   0  0  0  0  0  0  0  0  0  0  0  0
   57.0730   31.4110   43.6750 C   0  0  0  0  0  0  0  0  0  0  0  0
   57.6870   32.6680   43.6520 C   0  0  0  0  0  0  0  0  0  0  0  0
   58.3370   33.1490   44.7930 C   0  0  0  0  0  0  0  0  0  0  0  0
   58.9170   34.3770   44.7890 N   0  0  0  0  0  0  0  0  0  0  0  0
   59.5510   34.8620   45.8880 C   0  0  0  0  0  0  0  0  0  0  0  0
   60.0620   36.0130   45.8480 O   0  0  0  0  0  0  0  0  0  0  0  0
   62.2660   33.9720   49.7240 C   0  0  0  0  0  0  0  0  0  0  0  0
   63.4752   33.4757   51.9936 H   0  0  0  0  0  0  0  0  0  0  0  0
   64.8609   32.5672   51.3000 H   0  0  0  0  0  0  0  0  0  0  0  0
   64.8743   34.3634   51.3000 H   0  0  0  0  0  0  0  0  0  0  0  0
   65.3016   32.6806   48.8163 H   0  0  0  0  0  0  0  0  0  0  0  0
   64.2150   32.7633   46.5740 H   0  0  0  0  0  0  0  0  0  0  0  0
   61.8883   33.6266   46.3381 H   0  0  0  0  0  0  0  0  0  0  0  0
   59.6568   34.3026   49.1833 H   0  0  0  0  0  0  0  0  0  0  0  0
   60.3364   35.6915   48.2617 H   0  0  0  0  0  0  0  0  0  0  0  0
   59.0760   32.2610   47.9270 H   0  0  0  0  0  0  0  0  0  0  0  0
   57.8335   30.4772   46.8804 H   0  0  0  0  0  0  0  0  0  0  0  0
   58.6127   27.1051   43.7002 H   0  0  0  0  0  0  0  0  0  0  0  0
   58.8477   28.8809   43.8710 H   0  0  0  0  0  0  0  0  0  0  0  0
   59.2066   26.8179   46.1084 H   0  0  0  0  0  0  0  0  0  0  0  0
   60.5364   27.5918   45.1639 H   0  0  0  0  0  0  0  0  0  0  0  0
   61.6227   28.9194   46.3747 H   0  0  0  0  0  0  0  0  0  0  0  0
   60.7614   30.2286   45.4668 H   0  0  0  0  0  0  0  0  0  0  0  0
   61.8906   31.1563   47.4410 H   0  0  0  0  0  0  0  0  0  0  0  0
   60.0929   31.2586   47.6140 H   0  0  0  0  0  0  0  0  0  0  0  0
   62.0940   29.6471   49.1573 H   0  0  0  0  0  0  0  0  0  0  0  0
   60.5230   30.4113   49.6690 H   0  0  0  0  0  0  0  0  0  0  0  0
   61.0474   27.6891   48.4830 H   0  0  0  0  0  0  0  0  0  0  0  0
   59.9623   28.1930   49.8400 H   0  0  0  0  0  0  0  0  0  0  0  0
   58.6727   27.4898   47.8455 H   0  0  0  0  0  0  0  0  0  0  0  0
   58.4383   29.2527   48.2498 H   0  0  0  0  0  0  0  0  0  0  0  0
   56.5704   31.0310   42.7733 H   0  0  0  0  0  0  0  0  0  0  0  0
   57.6585   33.2776   42.7368 H   0  0  0  0  0  0  0  0  0  0  0  0
   61.7218   34.3274   50.6114 H   0  0  0  0  0  0  0  0  0  0  0  0
  1  2  1  0
  2  3  2  0
  3  4  1  0
  4  5  2  0
  5  6  1  0
  6  7  1  0
  7  8  1  0
  8  9  2  0
  9 10  1  0
 10 11  2  0
 11 12  1  0
 12 13  1  0
 13 14  2  0
 13 15  1  0
 15 16  1  0
 16 17  1  0
 17 18  1  0
 18 19  1  0
 19 20  1  0
 20 21  1  0
 21 22  1  0
 22 23  1  0
 12 24  2  0
 24 25  1  0
 25 26  2  0
 26 27  1  0
 27 28  1  0
 28 29  2  0
  6 30  2  0
 30  2  1  0
 28  8  1  0
 26 10  1  0
 23 18  1  0
  1 31  1  0
  1 32  1  0
  1 33  1  0
  3 34  1  0
  4 35  1  0
  5 36  1  0
  7 37  1  0
  7 38  1  0
  9 39  1  0
 11 40  1  0
 16 41  1  0
 16 42  1  0
 17 43  1  0
 17 44  1  0
 19 45  1  0
 19 46  1  0
 20 47  1  0
 20 48  1  0
 21 49  1  0
 21 50  1  0
 22 51  1  0
 22 52  1  0
 23 53  1  0
 23 54  1  0
 24 55  1  0
 25 56  1  0
 30 57  1  0
M  CHG  3   9   1  15  -1  27  -1
M  END
>  <UniqueID>  (94) 
88

>  <SMILES>  (94) 
Cc1cccc(Cc2[nH+]c3cc(C(=O)[N-]CCN4CCCCC4)ccc3[n-]c2=O)c1

>  <Energy>  (94) 
71.48699326444165

>  <Genealogy>  (94) 
Cc1cccc(Cc2[nH+]c3cc(C(=O)[N-]CCN4CCCCC4)ccc3[n-]c2=O)c1 (protonated)
Cc1cccc(Cc2[nH+]c3cc(C(=O)[N-]CCN4CCCCC4)ccc3[n-]c2=O)c1 (3D coordinates assigned)
Cc1cccc(Cc2[nH+]c3cc(C(=O)[N-]CCN4CCCCC4)ccc3[n-]c2=O)c1 (nonaromatic ring conformer: 71.48699326444165 kcal/mol)

>  <smiles>  (94) 
Cc1cccc(Cc2nc3cc(C(=O)NCCN4CCCCC4)ccc3[nH]c2=O)c1

>  <score_type>  (94) 
oracle

>  <origin>  (94) 
adg

>  <m_score__min__energy>  (94) 
-10.26

>  <m_primary>  (94) 
energy

$$$$
94:0
     RDKit          3D

 74 80  0  0  0  0  0  0  0  0999 V2000
   56.3180   21.5160   42.1820 O   0  0  0  0  0  0  0  0  0  0  0  0
   56.5710   21.6250   43.4100 C   0  0  0  0  0  0  0  0  0  0  0  0
   56.3330   20.5020   44.2670 N   0  0  0  0  0  0  0  0  0  0  0  0
   55.3400   20.4660   45.3350 C   0  0  0  0  0  0  0  0  0  0  0  0
   55.4750   21.6970   46.1810 C   0  0  0  0  0  0  0  0  0  0  0  0
   56.4400   21.7520   47.2000 C   0  0  0  0  0  0  0  0  0  0  0  0
   56.5900   22.9110   47.9670 C   0  0  0  0  0  0  0  0  0  0  0  0
   55.7850   24.0260   47.7170 C   0  0  0  0  0  0  0  0  0  0  0  0
   54.8320   23.9850   46.6950 C   0  0  0  0  0  0  0  0  0  0  0  0
   54.6800   22.8280   45.9240 C   0  0  0  0  0  0  0  0  0  0  0  0
   57.0650   22.9170   43.9280 C   0  0  0  0  0  0  0  0  0  0  0  0
   58.1320   22.9740   44.8300 C   0  0  0  0  0  0  0  0  0  0  0  0
   58.5880   24.2050   45.3030 C   0  0  0  0  0  0  0  0  0  0  0  0
   57.9780   25.3950   44.8620 C   0  0  0  0  0  0  0  0  0  0  0  0
   58.4050   26.7070   45.3260 N   0  0  0  0  0  0  0  0  0  0  0  0
   57.6730   27.5270   46.2960 C   0  0  1  0  0  0  0  0  0  0  0  0
   56.5020   28.2060   45.6050 C   0  0  0  0  0  0  0  0  0  0  0  0
   57.1000   29.2500   44.6160 C   0  0  0  0  0  0  0  0  0  0  0  0
   58.5320   29.5540   44.8920 N   0  0  0  0  0  0  0  0  0  0  0  0
   58.8020   30.8060   45.5360 C   0  0  0  0  0  0  0  0  0  0  0  0
   59.2730   30.8140   46.8070 N   0  0  0  0  0  0  0  0  0  0  0  0
   59.5420   31.9740   47.4530 C   0  0  0  0  0  0  0  0  0  0  0  0
   60.0100   31.9460   48.7700 C   0  0  0  0  0  0  0  0  0  0  0  0
   60.2760   33.1390   49.4440 C   0  0  0  0  0  0  0  0  0  0  0  0
   60.7200   33.1080   50.7240 F   0  0  0  0  0  0  0  0  0  0  0  0
   60.0810   34.3640   48.8040 C   0  0  0  0  0  0  0  0  0  0  0  0
   59.6310   34.4090   47.4750 C   0  0  0  0  0  0  0  0  0  0  0  0
   59.3430   33.2060   46.7890 C   0  0  0  0  0  0  0  0  0  0  0  0
   58.8930   33.2100   45.4870 N   0  0  0  0  0  0  0  0  0  0  0  0
   58.6050   32.0220   44.8620 C   0  0  0  0  0  0  0  0  0  0  0  0
   58.1670   32.0080   43.6790 O   0  0  0  0  0  0  0  0  0  0  0  0
   58.6300   34.4850   44.7840 C   0  0  0  0  0  0  0  0  0  0  0  0
   59.5320   35.6090   45.2970 C   0  0  0  0  0  0  0  0  0  0  0  0
   59.4020   35.7390   46.8120 C   0  0  0  0  0  0  0  0  0  0  0  0
   59.7310   28.7090   44.5710 C   0  0  0  0  0  0  0  0  0  0  0  0
   59.7400   27.2020   45.0430 C   0  0  1  0  0  0  0  0  0  0  0  0
   60.6220   26.9190   46.3050 C   0  0  0  0  0  0  0  0  0  0  0  0
   59.9490   26.1200   47.4810 C   0  0  0  0  0  0  0  0  0  0  0  0
   58.9890   26.8870   48.2210 O   0  0  0  0  0  0  0  0  0  0  0  0
   57.6730   26.8380   47.6590 C   0  0  0  0  0  0  0  0  0  0  0  0
   56.9560   25.3030   43.9620 N   0  0  0  0  0  0  0  0  0  0  0  0
   56.4970   24.1160   43.4870 C   0  0  0  0  0  0  0  0  0  0  0  0
   54.3314   20.4299   44.8975 H   0  0  0  0  0  0  0  0  0  0  0  0
   55.5007   19.5729   45.9567 H   0  0  0  0  0  0  0  0  0  0  0  0
   57.0805   20.8793   47.3954 H   0  0  0  0  0  0  0  0  0  0  0  0
   57.3426   22.9456   48.7685 H   0  0  0  0  0  0  0  0  0  0  0  0
   55.9013   24.9357   48.3244 H   0  0  0  0  0  0  0  0  0  0  0  0
   54.2008   24.8639   46.4970 H   0  0  0  0  0  0  0  0  0  0  0  0
   53.9362   22.8027   45.1140 H   0  0  0  0  0  0  0  0  0  0  0  0
   58.6138   22.0447   45.1680 H   0  0  0  0  0  0  0  0  0  0  0  0
   59.4222   24.2457   46.0188 H   0  0  0  0  0  0  0  0  0  0  0  0
   58.1220   28.4603   46.6667 H   0  0  0  0  0  0  0  0  0  0  0  0
   55.9055   27.4632   45.0551 H   0  0  0  0  0  0  0  0  0  0  0  0
   55.8422   28.6929   46.3382 H   0  0  0  0  0  0  0  0  0  0  0  0
   57.0159   28.8535   43.5934 H   0  0  0  0  0  0  0  0  0  0  0  0
   56.5337   30.1849   44.7396 H   0  0  0  0  0  0  0  0  0  0  0  0
   60.1689   30.9823   49.2759 H   0  0  0  0  0  0  0  0  0  0  0  0
   60.2813   35.3007   49.3448 H   0  0  0  0  0  0  0  0  0  0  0  0
   58.8128   34.3437   43.7085 H   0  0  0  0  0  0  0  0  0  0  0  0
   57.5845   34.7711   44.9712 H   0  0  0  0  0  0  0  0  0  0  0  0
   60.5772   35.3820   45.0401 H   0  0  0  0  0  0  0  0  0  0  0  0
   59.2273   36.5562   44.8280 H   0  0  0  0  0  0  0  0  0  0  0  0
   60.1475   36.4598   47.1790 H   0  0  0  0  0  0  0  0  0  0  0  0
   58.3872   36.0877   47.0539 H   0  0  0  0  0  0  0  0  0  0  0  0
   59.8431   28.7070   43.4767 H   0  0  0  0  0  0  0  0  0  0  0  0
   60.5484   29.1743   45.1414 H   0  0  0  0  0  0  0  0  0  0  0  0
   60.1820   26.6738   44.1853 H   0  0  0  0  0  0  0  0  0  0  0  0
   61.5006   26.3457   45.9742 H   0  0  0  0  0  0  0  0  0  0  0  0
   60.8470   27.9105   46.7249 H   0  0  0  0  0  0  0  0  0  0  0  0
   59.4403   25.2412   47.0579 H   0  0  0  0  0  0  0  0  0  0  0  0
   60.7498   25.8426   48.1822 H   0  0  0  0  0  0  0  0  0  0  0  0
   57.3648   25.7889   47.5391 H   0  0  0  0  0  0  0  0  0  0  0  0
   56.9696   27.3536   48.3294 H   0  0  0  0  0  0  0  0  0  0  0  0
   55.6769   24.0981   42.7541 H   0  0  0  0  0  0  0  0  0  0  0  0
  1  2  2  0
  2  3  1  0
  3  4  1  0
  4  5  1  0
  5  6  2  0
  6  7  1  0
  7  8  2  0
  8  9  1  0
  9 10  2  0
  2 11  1  0
 11 12  2  0
 12 13  1  0
 13 14  2  0
 14 15  1  0
 15 16  1  0
 16 17  1  0
 17 18  1  0
 18 19  1  0
 19 20  1  0
 20 21  2  0
 21 22  1  0
 22 23  2  0
 23 24  1  0
 24 25  1  0
 24 26  2  0
 26 27  1  0
 27 28  2  0
 28 29  1  0
 29 30  1  0
 30 31  2  0
 29 32  1  0
 32 33  1  0
 33 34  1  0
 19 35  1  0
 35 36  1  0
 36 37  1  0
 37 38  1  0
 38 39  1  0
 39 40  1  0
 14 41  1  0
 41 42  2  0
 10  5  1  0
 42 11  1  0
 36 15  1  0
 40 16  1  0
 30 20  1  0
 28 22  1  0
 34 27  1  0
  4 43  1  0
  4 44  1  0
  6 45  1  0
  7 46  1  0
  8 47  1  0
  9 48  1  0
 10 49  1  0
 12 50  1  0
 13 51  1  0
 16 52  1  1
 17 53  1  0
 17 54  1  0
 18 55  1  0
 18 56  1  0
 23 57  1  0
 26 58  1  0
 32 59  1  0
 32 60  1  0
 33 61  1  0
 33 62  1  0
 34 63  1  0
 34 64  1  0
 35 65  1  0
 35 66  1  0
 36 67  1  6
 37 68  1  0
 37 69  1  0
 38 70  1  0
 38 71  1  0
 40 72  1  0
 40 73  1  0
 42 74  1  0
M  CHG  1   3  -1
M  END
>  <UniqueID>  (95) 
89

>  <SMILES>  (95) 
O=C([N-]Cc1ccccc1)c1ccc(N2[C@@H]3CCOC[C@@H]2CCN(c2nc4cc(F)cc5c4n(c2=O)CCC5)C3)nc1

>  <Energy>  (95) 
149.12659755011416

>  <Genealogy>  (95) 
O=C([N-]Cc1ccccc1)c1ccc(N2C3CCN(c4nc5cc(F)cc6c5n(c4=O)CCC6)CC2CCOC3)nc1 (protonated)
O=C([N-]Cc1ccccc1)c1ccc(N2[C@@H]3CCOC[C@@H]2CCN(c2nc4cc(F)cc5c4n(c2=O)CCC5)C3)nc1 (chirality)
O=C([N-]Cc1ccccc1)c1ccc(N2[C@@H]3CCOC[C@@H]2CCN(c2nc4cc(F)cc5c4n(c2=O)CCC5)C3)nc1 (3D coordinates assigned)
O=C([N-]Cc1ccccc1)c1ccc(N2[C@@H]3CCOC[C@@H]2CCN(c2nc4cc(F)cc5c4n(c2=O)CCC5)C3)nc1 (nonaromatic ring conformer: 149.12659755011416 kcal/mol)

>  <smiles>  (95) 
O=C(NCc1ccccc1)c1ccc(N2C3CCN(c4nc5cc(F)cc6c5n(c4=O)CCC6)CC2CCOC3)nc1

>  <score_type>  (95) 
oracle

>  <origin>  (95) 
adg

>  <m_score__min__energy>  (95) 
-4.5199999999999996

>  <m_primary>  (95) 
energy

$$$$
