0:0
     RDKit          3D

 58 60  0  0  0  0  0  0  0  0999 V2000
   56.8390   30.1020   43.8030 C   0  0  0  0  0  0  0  0  0  0  0  0
   56.9660   30.7170   45.0810 O   0  0  0  0  0  0  0  0  0  0  0  0
   57.6830   31.9000   45.3300 C   0  0  0  0  0  0  0  0  0  0  0  0
   57.4540   33.0760   44.5860 C   0  0  0  0  0  0  0  0  0  0  0  0
   58.1430   34.2510   44.8910 C   0  0  0  0  0  0  0  0  0  0  0  0
   59.0540   34.2730   45.9460 C   0  0  0  0  0  0  0  0  0  0  0  0
   59.2980   33.1130   46.6850 C   0  0  0  0  0  0  0  0  0  0  0  0
   58.6400   31.9170   46.3650 C   0  0  0  0  0  0  0  0  0  0  0  0
   58.9260   30.7410   47.1370 N   0  0  0  0  0  0  0  0  0  0  0  0
   60.2430   30.4190   47.6160 C   0  0  0  0  0  0  0  0  0  0  0  0
   61.2390   31.1050   47.2590 O   0  0  0  0  0  0  0  0  0  0  0  0
   60.4450   29.2800   48.5290 C   0  0  0  0  0  0  0  0  0  0  0  0
   60.8820   29.5260   49.8390 C   0  0  0  0  0  0  0  0  0  0  0  0
   61.0850   28.4640   50.7210 C   0  0  0  0  0  0  0  0  0  0  0  0
   60.8360   27.1620   50.2910 C   0  0  0  0  0  0  0  0  0  0  0  0
   60.3910   26.9350   49.0270 N   0  0  0  0  0  0  0  0  0  0  0  0
   60.1860   27.9470   48.1410 C   0  0  0  0  0  0  0  0  0  0  0  0
   59.5190   27.5400   46.5180 S   0  0  0  0  0  0  0  0  0  0  0  0
   57.7740   27.5540   47.0530 C   0  0  0  0  0  0  0  0  0  0  0  0
   56.9050   26.9340   46.0080 C   0  0  0  0  0  0  0  0  0  0  0  0
   57.0290   27.2810   44.8020 O   0  0  0  0  0  0  0  0  0  0  0  0
   55.9000   25.9890   46.3940 N   0  0  0  0  0  0  0  0  0  0  0  0
   56.1760   24.7420   47.0980 C   0  0  0  0  0  0  0  0  0  0  0  0
   55.8470   23.5310   46.2130 C   0  0  0  0  0  0  0  0  0  0  0  0
   57.0580   22.6030   46.0530 C   0  0  0  0  0  0  0  0  0  0  0  0
   57.8560   23.0000   44.8680 N   0  0  0  0  0  0  0  0  0  0  0  0
   58.3590   21.8380   44.1120 C   0  0  0  0  0  0  0  0  0  0  0  0
   57.2250   21.1080   43.3550 C   0  0  0  0  0  0  0  0  0  0  0  0
   56.0190   21.8490   43.3170 O   0  0  0  0  0  0  0  0  0  0  0  0
   56.2800   23.1780   42.9160 C   0  0  0  0  0  0  0  0  0  0  0  0
   57.1180   23.9240   43.9760 C   0  0  0  0  0  0  0  0  0  0  0  0
   56.6181   29.0321   43.9313 H   0  0  0  0  0  0  0  0  0  0  0  0
   56.0208   30.5811   43.2452 H   0  0  0  0  0  0  0  0  0  0  0  0
   57.7800   30.2178   43.2452 H   0  0  0  0  0  0  0  0  0  0  0  0
   56.7277   33.0672   43.7599 H   0  0  0  0  0  0  0  0  0  0  0  0
   57.9669   35.1607   44.2982 H   0  0  0  0  0  0  0  0  0  0  0  0
   59.5814   35.2051   46.1969 H   0  0  0  0  0  0  0  0  0  0  0  0
   60.0104   33.1380   47.5228 H   0  0  0  0  0  0  0  0  0  0  0  0
   58.1170   30.1780   47.4800 H   0  0  0  0  0  0  0  0  0  0  0  0
   61.0651   30.5584   50.1717 H   0  0  0  0  0  0  0  0  0  0  0  0
   61.4381   28.6526   51.7456 H   0  0  0  0  0  0  0  0  0  0  0  0
   60.9999   26.3168   50.9756 H   0  0  0  0  0  0  0  0  0  0  0  0
   57.6772   26.9850   47.9894 H   0  0  0  0  0  0  0  0  0  0  0  0
   57.4567   28.5955   47.2096 H   0  0  0  0  0  0  0  0  0  0  0  0
   57.2411   24.7103   47.3710 H   0  0  0  0  0  0  0  0  0  0  0  0
   55.5478   24.7002   48.0000 H   0  0  0  0  0  0  0  0  0  0  0  0
   55.0227   22.9662   46.6729 H   0  0  0  0  0  0  0  0  0  0  0  0
   55.5623   23.9001   45.2167 H   0  0  0  0  0  0  0  0  0  0  0  0
   57.6871   22.6686   46.9530 H   0  0  0  0  0  0  0  0  0  0  0  0
   56.7030   21.5709   45.9165 H   0  0  0  0  0  0  0  0  0  0  0  0
   59.1072   22.1843   43.3838 H   0  0  0  0  0  0  0  0  0  0  0  0
   58.8012   21.1303   44.8287 H   0  0  0  0  0  0  0  0  0  0  0  0
   57.5554   20.9230   42.3222 H   0  0  0  0  0  0  0  0  0  0  0  0
   57.0190   20.1716   43.8942 H   0  0  0  0  0  0  0  0  0  0  0  0
   56.8331   23.1643   41.9653 H   0  0  0  0  0  0  0  0  0  0  0  0
   55.3201   23.7020   42.7974 H   0  0  0  0  0  0  0  0  0  0  0  0
   57.8429   24.5715   43.4610 H   0  0  0  0  0  0  0  0  0  0  0  0
   56.4253   24.5086   44.5992 H   0  0  0  0  0  0  0  0  0  0  0  0
  1  2  1  0
  2  3  1  0
  3  4  2  0
  4  5  1  0
  5  6  2  0
  6  7  1  0
  7  8  2  0
  8  9  1  0
  9 10  1  0
 10 11  2  0
 10 12  1  0
 12 13  2  0
 13 14  1  0
 14 15  2  0
 15 16  1  0
 16 17  2  0
 17 18  1  0
 18 19  1  0
 19 20  1  0
 20 21  2  0
 20 22  1  0
 22 23  1  0
 23 24  1  0
 24 25  1  0
 25 26  1  0
 26 27  1  0
 27 28  1  0
 28 29  1  0
 29 30  1  0
 30 31  1  0
  8  3  1  0
 17 12  1  0
 31 26  1  0
  1 32  1  0
  1 33  1  0
  1 34  1  0
  4 35  1  0
  5 36  1  0
  6 37  1  0
  7 38  1  0
  9 39  1  0
 13 40  1  0
 14 41  1  0
 15 42  1  0
 19 43  1  0
 19 44  1  0
 23 45  1  0
 23 46  1  0
 24 47  1  0
 24 48  1  0
 25 49  1  0
 25 50  1  0
 27 51  1  0
 27 52  1  0
 28 53  1  0
 28 54  1  0
 30 55  1  0
 30 56  1  0
 31 57  1  0
 31 58  1  0
M  CHG  1  22  -1
M  END
>  <UniqueID>  (1) 
1

>  <SMILES>  (1) 
COc1ccccc1NC(=O)c1cccnc1SCC(=O)[N-]CCCN1CCOCC1

>  <Energy>  (1) 
72.88112669742166

>  <Genealogy>  (1) 
COc1ccccc1NC(=O)c1cccnc1SCC(=O)[N-]CCCN1CCOCC1 (protonated)
COc1ccccc1NC(=O)c1cccnc1SCC(=O)[N-]CCCN1CCOCC1 (3D coordinates assigned)
COc1ccccc1NC(=O)c1cccnc1SCC(=O)[N-]CCCN1CCOCC1 (nonaromatic ring conformer: 72.88112669742166 kcal/mol)

>  <smiles>  (1) 
COc1ccccc1NC(=O)c1cccnc1SCC(=O)NCCCN1CCOCC1

>  <score_type>  (1) 
oracle

>  <origin>  (1) 
adg

>  <m_score__min__energy>  (1) 
-11.01

>  <m_primary>  (1) 
energy

$$$$
1:0
     RDKit          3D

 47 49  0  0  0  0  0  0  0  0999 V2000
   58.8230   24.4930   46.3500 O   0  0  0  0  0  0  0  0  0  0  0  0
   58.5970   25.6940   46.0490 C   0  0  0  0  0  0  0  0  0  0  0  0
   57.5270   25.9980   45.0310 C   0  0  0  0  0  0  0  0  0  0  0  0
   56.3940   25.0080   45.1360 C   0  0  0  0  0  0  0  0  0  0  0  0
   56.5850   23.6810   44.7130 C   0  0  0  0  0  0  0  0  0  0  0  0
   55.5350   22.7600   44.7760 C   0  0  0  0  0  0  0  0  0  0  0  0
   54.2840   23.1550   45.2520 C   0  0  0  0  0  0  0  0  0  0  0  0
   54.0790   24.4740   45.6650 C   0  0  0  0  0  0  0  0  0  0  0  0
   55.1240   25.4020   45.6060 C   0  0  0  0  0  0  0  0  0  0  0  0
   54.8910   26.7120   46.0120 O   0  0  0  0  0  0  0  0  0  0  0  0
   59.4110   26.7120   46.6490 N   0  0  0  0  0  0  0  0  0  0  0  0
   59.4270   28.1340   46.3090 C   0  0  0  0  0  0  0  0  0  0  0  0
   60.7500   28.7440   46.8000 C   0  0  0  0  0  0  0  0  0  0  0  0
   60.8060   30.2440   46.4740 C   0  0  0  0  0  0  0  0  0  0  0  0
   59.5360   30.9110   46.7940 N   0  0  0  0  0  0  0  0  0  0  0  0
   59.3380   32.2720   46.3690 C   0  0  0  0  0  0  0  0  0  0  0  0
   60.3100   33.0760   46.3890 O   0  0  0  0  0  0  0  0  0  0  0  0
   57.9970   32.7550   45.8870 C   0  0  0  0  0  0  0  0  0  0  0  0
   57.5370   31.9490   44.7080 C   0  0  0  0  0  0  0  0  0  0  0  0
   57.8640   32.3450   43.4010 C   0  0  0  0  0  0  0  0  0  0  0  0
   57.3990   31.5910   42.3210 C   0  0  0  0  0  0  0  0  0  0  0  0
   56.6120   30.4610   42.5500 C   0  0  0  0  0  0  0  0  0  0  0  0
   56.2980   30.1020   43.8630 C   0  0  0  0  0  0  0  0  0  0  0  0
   56.7580   30.8490   44.9030 N   0  0  0  0  0  0  0  0  0  0  0  0
   58.5240   30.1950   47.5800 C   0  0  0  0  0  0  0  0  0  0  0  0
   58.1890   28.8530   46.9130 C   0  0  0  0  0  0  0  0  0  0  0  0
   57.1382   27.0117   45.2077 H   0  0  0  0  0  0  0  0  0  0  0  0
   57.9660   25.9274   44.0249 H   0  0  0  0  0  0  0  0  0  0  0  0
   57.5667   23.3653   44.3301 H   0  0  0  0  0  0  0  0  0  0  0  0
   55.6953   21.7218   44.4497 H   0  0  0  0  0  0  0  0  0  0  0  0
   53.4597   22.4283   45.3020 H   0  0  0  0  0  0  0  0  0  0  0  0
   53.0917   24.7839   46.0381 H   0  0  0  0  0  0  0  0  0  0  0  0
   59.3657   28.2650   45.2186 H   0  0  0  0  0  0  0  0  0  0  0  0
   60.8295   28.6072   47.8886 H   0  0  0  0  0  0  0  0  0  0  0  0
   61.5844   28.2386   46.2917 H   0  0  0  0  0  0  0  0  0  0  0  0
   61.6118   30.7080   47.0618 H   0  0  0  0  0  0  0  0  0  0  0  0
   60.9938   30.3568   45.3960 H   0  0  0  0  0  0  0  0  0  0  0  0
   57.2635   32.6561   46.7007 H   0  0  0  0  0  0  0  0  0  0  0  0
   58.0883   33.8080   45.5824 H   0  0  0  0  0  0  0  0  0  0  0  0
   58.4801   33.2400   43.2294 H   0  0  0  0  0  0  0  0  0  0  0  0
   57.6524   31.8870   41.2923 H   0  0  0  0  0  0  0  0  0  0  0  0
   56.2432   29.8599   41.7058 H   0  0  0  0  0  0  0  0  0  0  0  0
   55.6780   29.2142   44.0564 H   0  0  0  0  0  0  0  0  0  0  0  0
   58.9130   30.0109   48.5923 H   0  0  0  0  0  0  0  0  0  0  0  0
   57.6117   30.8071   47.6348 H   0  0  0  0  0  0  0  0  0  0  0  0
   57.7368   28.1926   47.6676 H   0  0  0  0  0  0  0  0  0  0  0  0
   57.5024   29.0681   46.0810 H   0  0  0  0  0  0  0  0  0  0  0  0
  1  2  2  0
  2  3  1  0
  3  4  1  0
  4  5  2  0
  5  6  1  0
  6  7  2  0
  7  8  1  0
  8  9  2  0
  9 10  1  0
  2 11  1  0
 11 12  1  0
 12 13  1  0
 13 14  1  0
 14 15  1  0
 15 16  1  0
 16 17  2  0
 16 18  1  0
 18 19  1  0
 19 20  2  0
 20 21  1  0
 21 22  2  0
 22 23  1  0
 23 24  2  0
 15 25  1  0
 25 26  1  0
  9  4  1  0
 26 12  1  0
 24 19  1  0
  3 27  1  0
  3 28  1  0
  5 29  1  0
  6 30  1  0
  7 31  1  0
  8 32  1  0
 12 33  1  0
 13 34  1  0
 13 35  1  0
 14 36  1  0
 14 37  1  0
 18 38  1  0
 18 39  1  0
 20 40  1  0
 21 41  1  0
 22 42  1  0
 23 43  1  0
 25 44  1  0
 25 45  1  0
 26 46  1  0
 26 47  1  0
M  CHG  2  10  -1  11  -1
M  END
>  <UniqueID>  (2) 
2

>  <SMILES>  (2) 
O=C(Cc1ccccc1[O-])[N-]C1CCN(C(=O)Cc2ccccn2)CC1

>  <Energy>  (2) 
50.64748577828518

>  <Genealogy>  (2) 
O=C(Cc1ccccc1[O-])[N-]C1CCN(C(=O)Cc2ccccn2)CC1 (protonated)
O=C(Cc1ccccc1[O-])[N-]C1CCN(C(=O)Cc2ccccn2)CC1 (3D coordinates assigned)
O=C(Cc1ccccc1[O-])[N-]C1CCN(C(=O)Cc2ccccn2)CC1 (nonaromatic ring conformer: 50.64748577828518 kcal/mol)

>  <smiles>  (2) 
O=C(Cc1ccccc1O)NC1CCN(C(=O)Cc2ccccn2)CC1

>  <score_type>  (2) 
oracle

>  <origin>  (2) 
adg

>  <m_score__min__energy>  (2) 
-13.76

>  <m_primary>  (2) 
energy

$$$$
2:0
     RDKit          3D

 36 38  0  0  0  0  0  0  0  0999 V2000
   59.2420   35.3070   46.1510 O   0  0  0  0  0  0  0  0  0  0  0  0
   59.5760   34.1000   46.3040 C   0  0  0  0  0  0  0  0  0  0  0  0
   60.8210   33.7900   47.0490 C   0  0  0  0  0  0  0  0  0  0  0  0
   62.0700   33.7770   46.4010 C   0  0  0  0  0  0  0  0  0  0  0  0
   63.2340   33.4680   47.1110 C   0  0  0  0  0  0  0  0  0  0  0  0
   63.1640   33.1590   48.4730 C   0  0  0  0  0  0  0  0  0  0  0  0
   64.6240   32.7690   49.3620 Cl  0  0  0  0  0  0  0  0  0  0  0  0
   61.9260   33.1530   49.1230 C   0  0  0  0  0  0  0  0  0  0  0  0
   60.7600   33.4610   48.4160 C   0  0  0  0  0  0  0  0  0  0  0  0
   58.7170   33.0380   45.7220 C   0  0  0  0  0  0  0  0  0  0  0  0
   58.1630   32.0390   46.5370 C   0  0  0  0  0  0  0  0  0  0  0  0
   57.4050   31.0530   45.9910 N   0  0  0  0  0  0  0  0  0  0  0  0
   57.1720   31.0100   44.6560 C   0  0  0  0  0  0  0  0  0  0  0  0
   56.1900   29.6850   43.9600 S   0  0  0  0  0  0  0  0  0  0  0  0
   57.6160   28.5910   43.6250 C   0  0  0  0  0  0  0  0  0  0  0  0
   58.5380   28.5120   44.8180 C   0  0  0  0  0  0  0  0  0  0  0  0
   59.7180   29.2790   44.8260 C   0  0  0  0  0  0  0  0  0  0  0  0
   60.6070   29.1990   45.9010 C   0  0  0  0  0  0  0  0  0  0  0  0
   60.3290   28.3570   46.9780 C   0  0  0  0  0  0  0  0  0  0  0  0
   59.1610   27.5910   46.9830 C   0  0  0  0  0  0  0  0  0  0  0  0
   58.2630   27.6600   45.9110 C   0  0  0  0  0  0  0  0  0  0  0  0
   56.6830   26.5750   45.9900 Br  0  0  0  0  0  0  0  0  0  0  0  0
   57.6960   31.9630   43.8430 N   0  0  0  0  0  0  0  0  0  0  0  0
   58.4630   32.9670   44.3390 C   0  0  0  0  0  0  0  0  0  0  0  0
   58.9300   33.8320   43.5510 O   0  0  0  0  0  0  0  0  0  0  0  0
   62.1309   34.0117   45.3281 H   0  0  0  0  0  0  0  0  0  0  0  0
   64.2067   33.4679   46.5973 H   0  0  0  0  0  0  0  0  0  0  0  0
   61.8694   32.9053   50.1933 H   0  0  0  0  0  0  0  0  0  0  0  0
   59.7884   33.4461   48.9316 H   0  0  0  0  0  0  0  0  0  0  0  0
   58.3433   32.0545   47.6220 H   0  0  0  0  0  0  0  0  0  0  0  0
   57.2463   27.5819   43.3902 H   0  0  0  0  0  0  0  0  0  0  0  0
   58.1802   29.0055   42.7766 H   0  0  0  0  0  0  0  0  0  0  0  0
   59.9419   29.9459   43.9803 H   0  0  0  0  0  0  0  0  0  0  0  0
   61.5277   29.8010   45.8981 H   0  0  0  0  0  0  0  0  0  0  0  0
   61.0299   28.2963   47.8236 H   0  0  0  0  0  0  0  0  0  0  0  0
   58.9453   26.9292   47.8347 H   0  0  0  0  0  0  0  0  0  0  0  0
  1  2  2  0
  2  3  1  0
  3  4  2  0
  4  5  1  0
  5  6  2  0
  6  7  1  0
  6  8  1  0
  8  9  2  0
  2 10  1  0
 10 11  2  0
 11 12  1  0
 12 13  1  0
 13 14  1  0
 14 15  1  0
 15 16  1  0
 16 17  2  0
 17 18  1  0
 18 19  2  0
 19 20  1  0
 20 21  2  0
 21 22  1  0
 13 23  2  0
 23 24  1  0
 24 25  2  0
  9  3  1  0
 24 10  1  0
 21 16  1  0
  4 26  1  0
  5 27  1  0
  8 28  1  0
  9 29  1  0
 11 30  1  0
 15 31  1  0
 15 32  1  0
 17 33  1  0
 18 34  1  0
 19 35  1  0
 20 36  1  0
M  CHG  1  12  -1
M  END
>  <UniqueID>  (3) 
3

>  <SMILES>  (3) 
O=C(c1ccc(Cl)cc1)c1c[n-]c(SCc2ccccc2Br)nc1=O

>  <Energy>  (3) 
43.95947644582147

>  <Genealogy>  (3) 
O=C(c1ccc(Cl)cc1)c1c[n-]c(SCc2ccccc2Br)nc1=O (protonated)
O=C(c1ccc(Cl)cc1)c1c[n-]c(SCc2ccccc2Br)nc1=O (3D coordinates assigned)
O=C(c1ccc(Cl)cc1)c1c[n-]c(SCc2ccccc2Br)nc1=O (optimized conformer: 43.95947644582147 kcal/mol)

>  <smiles>  (3) 
O=C(c1ccc(Cl)cc1)c1c[nH]c(SCc2ccccc2Br)nc1=O

>  <score_type>  (3) 
oracle

>  <origin>  (3) 
adg

>  <m_score__min__energy>  (3) 
-10.07

>  <m_primary>  (3) 
energy

$$$$
3:0
     RDKit          3D

 39 41  0  0  0  0  0  0  0  0999 V2000
   58.2230   30.4840   47.4590 H   0  0  0  0  0  0  0  0  0  0  0  0
   58.5440   30.1480   48.3600 O   0  0  0  0  0  0  0  0  0  0  0  0
   58.9450   31.0240   49.3690 C   0  0  0  0  0  0  0  0  0  0  0  0
   59.2530   30.5200   50.6410 C   0  0  0  0  0  0  0  0  0  0  0  0
   59.1913   29.4380   50.8293 H   0  0  0  0  0  0  0  0  0  0  0  0
   59.6370   31.3810   51.6690 C   0  0  0  0  0  0  0  0  0  0  0  0
   59.8654   30.9762   52.6660 H   0  0  0  0  0  0  0  0  0  0  0  0
   59.7330   32.7590   51.4370 C   0  0  0  0  0  0  0  0  0  0  0  0
   60.1230   33.6890   52.5530 C   0  0  0  0  0  0  0  0  0  0  0  0
   60.7582   34.4925   52.1519 H   0  0  0  0  0  0  0  0  0  0  0  0
   60.6747   33.1225   53.3177 H   0  0  0  0  0  0  0  0  0  0  0  0
   58.9020   34.2870   53.1730 C   0  0  0  0  0  0  0  0  0  0  0  0
   58.9660   34.8180   54.3140 O   0  0  0  0  0  0  0  0  0  0  0  0
   57.6800   34.2150   52.5170 O   0  0  0  0  0  0  0  0  0  0  0  0
   59.4160   33.2690   50.1690 C   0  0  0  0  0  0  0  0  0  0  0  0
   59.4751   34.3526   49.9893 H   0  0  0  0  0  0  0  0  0  0  0  0
   59.0230   32.4110   49.1230 C   0  0  0  0  0  0  0  0  0  0  0  0
   58.7110   32.9660   47.7810 C   0  0  0  0  0  0  0  0  0  0  0  0
   57.9510   32.2430   46.9130 N   0  0  0  0  0  0  0  0  0  0  0  0
   57.6490   32.7070   45.6720 C   0  0  0  0  0  0  0  0  0  0  0  0
   56.9080   31.9800   44.8870 N   0  0  0  0  0  0  0  0  0  0  0  0
   57.3360   30.8330   44.1330 C   0  0  0  0  0  0  0  0  0  0  0  0
   57.6360   30.9890   42.9200 O   0  0  0  0  0  0  0  0  0  0  0  0
   57.3980   29.4730   44.7190 C   0  0  0  0  0  0  0  0  0  0  0  0
   58.6480   28.8530   44.8920 C   0  0  0  0  0  0  0  0  0  0  0  0
   59.5653   29.3790   44.5889 H   0  0  0  0  0  0  0  0  0  0  0  0
   58.7330   27.5740   45.4460 C   0  0  0  0  0  0  0  0  0  0  0  0
   59.7159   27.1002   45.5850 H   0  0  0  0  0  0  0  0  0  0  0  0
   57.5720   26.8950   45.8240 C   0  0  0  0  0  0  0  0  0  0  0  0
   57.6421   25.8911   46.2681 H   0  0  0  0  0  0  0  0  0  0  0  0
   56.3210   27.4910   45.6380 C   0  0  0  0  0  0  0  0  0  0  0  0
   55.1700   26.8040   46.0050 O   0  0  0  0  0  0  0  0  0  0  0  0
   56.2280   28.7720   45.0790 C   0  0  0  0  0  0  0  0  0  0  0  0
   54.9720   29.3330   44.8670 O   0  0  0  0  0  0  0  0  0  0  0  0
   58.1010   33.9320   45.2850 N   0  0  0  0  0  0  0  0  0  0  0  0
   58.8600   34.6920   46.1120 C   0  0  0  0  0  0  0  0  0  0  0  0
   59.2192   35.6770   45.7791 H   0  0  0  0  0  0  0  0  0  0  0  0
   59.1850   34.2250   47.3840 C   0  0  0  0  0  0  0  0  0  0  0  0
   59.8013   34.8319   48.0636 H   0  0  0  0  0  0  0  0  0  0  0  0
  1  2  1  0
  2  3  1  0
  3  4  2  0
  4  5  1  0
  4  6  1  0
  6  7  1  0
  6  8  2  0
  8  9  1  0
  9 10  1  0
  9 11  1  0
  9 12  1  0
 12 13  2  0
 12 14  1  0
  8 15  1  0
 15 16  1  0
 15 17  2  0
 17 18  1  0
 18 19  2  0
 19 20  1  0
 20 21  2  0
 21 22  1  0
 22 23  2  0
 22 24  1  0
 24 25  2  0
 25 26  1  0
 25 27  1  0
 27 28  1  0
 27 29  2  0
 29 30  1  0
 29 31  1  0
 31 32  1  0
 31 33  2  0
 33 34  1  0
 20 35  1  0
 35 36  1  0
 36 37  1  0
 36 38  2  0
 38 39  1  0
 17  3  1  0
 38 18  1  0
 33 24  1  0
M  CHG  4  14  -1  32  -1  34  -1  35  -1
M  END
>  <UniqueID>  (4) 
4

>  <SMILES>  (4) 
O=C([O-])Cc1ccc(O)c(-c2cc[n-]/c(=N\C(=O)c3cccc([O-])c3[O-])n2)c1

>  <Energy>  (4) 
55.7550364797618

>  <Genealogy>  (4) 
O=C([O-])Cc1ccc(O)c(-c2cc[n-]c(=NC(=O)c3cccc([O-])c3[O-])n2)c1 (protonated)
O=C([O-])Cc1ccc(O)c(-c2cc[n-]/c(=N\C(=O)c3cccc([O-])c3[O-])n2)c1 (cis-trans isomerization)
O=C([O-])Cc1ccc(O)c(-c2cc[n-]/c(=N\C(=O)c3cccc([O-])c3[O-])n2)c1 (3D coordinates assigned)
O=C([O-])Cc1ccc(O)c(-c2cc[n-]/c(=N\C(=O)c3cccc([O-])c3[O-])n2)c1 (optimized conformer: 55.7550364797618 kcal/mol)

>  <smiles>  (4) 
O=C(O)Cc1ccc(O)c(-c2cc[nH]c(=NC(=O)c3cccc(O)c3O)n2)c1

>  <score_type>  (4) 
oracle

>  <origin>  (4) 
adg

>  <m_score__min__energy>  (4) 
-17.699999999999999

>  <m_primary>  (4) 
energy

$$$$
4:0
     RDKit          3D

 35 37  0  0  0  0  0  0  0  0999 V2000
   58.1060   34.2590   47.1900 N   0  0  0  0  0  0  0  0  0  0  0  0
   58.9400   33.9990   45.6980 S   0  0  0  0  0  0  0  0  0  0  0  0
   60.4150   33.8690   45.9610 O   0  0  0  0  0  0  0  0  0  0  0  0
   58.7150   35.1730   44.7870 O   0  0  0  0  0  0  0  0  0  0  0  0
   58.3360   32.5310   44.9380 C   0  0  0  0  0  0  0  0  0  0  0  0
   57.7820   32.5810   43.6530 C   0  0  0  0  0  0  0  0  0  0  0  0
   57.3220   31.4130   43.0430 C   0  0  0  0  0  0  0  0  0  0  0  0
   57.4150   30.1890   43.7090 C   0  0  0  0  0  0  0  0  0  0  0  0
   57.9690   30.1160   45.0010 C   0  0  0  0  0  0  0  0  0  0  0  0
   58.0640   28.8020   45.6900 C   0  0  0  0  0  0  0  0  0  0  0  0
   59.2390   28.2890   46.2510 C   0  0  0  0  0  0  0  0  0  0  0  0
   58.8890   26.7950   46.9390 S   0  0  0  0  0  0  0  0  0  0  0  0
   57.2660   26.8550   46.4880 C   0  0  0  0  0  0  0  0  0  0  0  0
   56.3600   25.9620   46.7600 N   0  0  0  0  0  0  0  0  0  0  0  0
   55.4250   25.4100   45.8220 C   0  0  0  0  0  0  0  0  0  0  0  0
   54.3010   25.9650   45.6940 O   0  0  0  0  0  0  0  0  0  0  0  0
   55.7700   24.2580   44.9550 C   0  0  0  0  0  0  0  0  0  0  0  0
   57.0660   23.7190   44.9700 C   0  0  0  0  0  0  0  0  0  0  0  0
   57.3810   22.6280   44.1580 C   0  0  0  0  0  0  0  0  0  0  0  0
   56.3930   22.0740   43.3410 C   0  0  0  0  0  0  0  0  0  0  0  0
   56.6590   21.0910   42.6020 O   0  0  0  0  0  0  0  0  0  0  0  0
   55.1380   22.5960   43.3460 N   0  0  0  0  0  0  0  0  0  0  0  0
   54.8070   23.6590   44.1260 C   0  0  0  0  0  0  0  0  0  0  0  0
   56.9730   27.9980   45.8370 N   0  0  0  0  0  0  0  0  0  0  0  0
   58.4360   31.3010   45.6050 C   0  0  0  0  0  0  0  0  0  0  0  0
   58.3250   33.4480   47.8090 H   0  0  0  0  0  0  0  0  0  0  0  0
   57.0830   34.2120   46.9800 H   0  0  0  0  0  0  0  0  0  0  0  0
   57.7092   33.5424   43.1234 H   0  0  0  0  0  0  0  0  0  0  0  0
   56.8848   31.4567   42.0345 H   0  0  0  0  0  0  0  0  0  0  0  0
   57.0519   29.2733   43.2194 H   0  0  0  0  0  0  0  0  0  0  0  0
   60.2236   28.7794   46.2432 H   0  0  0  0  0  0  0  0  0  0  0  0
   57.8351   24.1572   45.6230 H   0  0  0  0  0  0  0  0  0  0  0  0
   58.3979   22.2086   44.1616 H   0  0  0  0  0  0  0  0  0  0  0  0
   53.7798   24.0521   44.1079 H   0  0  0  0  0  0  0  0  0  0  0  0
   58.8832   31.2608   46.6092 H   0  0  0  0  0  0  0  0  0  0  0  0
  1  2  1  0
  2  3  2  0
  2  4  2  0
  2  5  1  0
  5  6  2  0
  6  7  1  0
  7  8  2  0
  8  9  1  0
  9 10  1  0
 10 11  2  0
 11 12  1  0
 12 13  1  0
 13 14  2  3
 14 15  1  0
 15 16  2  0
 15 17  1  0
 17 18  1  0
 18 19  2  0
 19 20  1  0
 20 21  2  0
 20 22  1  0
 22 23  1  0
 13 24  1  0
  9 25  2  0
 25  5  1  0
 24 10  1  0
 23 17  2  0
  1 26  1  0
  1 27  1  0
  6 28  1  0
  7 29  1  0
  8 30  1  0
 11 31  1  0
 18 32  1  0
 19 33  1  0
 23 34  1  0
 25 35  1  0
M  CHG  2  22  -1  24  -1
M  END
>  <UniqueID>  (5) 
5

>  <SMILES>  (5) 
NS(=O)(=O)c1cccc(-c2csc(=NC(=O)c3ccc(=O)[n-]c3)[n-]2)c1

>  <Energy>  (5) 
78.56208470618063

>  <Genealogy>  (5) 
NS(=O)(=O)c1cccc(-c2csc(=NC(=O)c3ccc(=O)[n-]c3)[n-]2)c1 (protonated)
NS(=O)(=O)c1cccc(-c2csc(=NC(=O)c3ccc(=O)[n-]c3)[n-]2)c1 (3D coordinates assigned)
NS(=O)(=O)c1cccc(-c2csc(=NC(=O)c3ccc(=O)[n-]c3)[n-]2)c1 (optimized conformer: 78.56208470618063 kcal/mol)

>  <smiles>  (5) 
NS(=O)(=O)c1cccc(-c2csc(=NC(=O)c3ccc(=O)[nH]c3)[nH]2)c1

>  <score_type>  (5) 
oracle

>  <origin>  (5) 
adg

>  <m_score__min__energy>  (5) 
-11.880000000000001

>  <m_primary>  (5) 
energy

$$$$
5:0
     RDKit          3D

 55 58  0  0  0  0  0  0  0  0999 V2000
   60.7710   26.9270   46.1560 C   0  0  0  0  0  0  0  0  0  0  0  0
   59.2850   27.1000   45.9630 C   0  0  0  0  0  0  0  0  0  0  0  0
   58.4220   26.1580   46.5440 C   0  0  0  0  0  0  0  0  0  0  0  0
   57.0430   26.2820   46.4060 C   0  0  0  0  0  0  0  0  0  0  0  0
   56.5020   27.3500   45.6990 C   0  0  0  0  0  0  0  0  0  0  0  0
   57.3340   28.3120   45.1070 C   0  0  0  0  0  0  0  0  0  0  0  0
   56.5670   29.6760   44.2690 S   0  0  0  0  0  0  0  0  0  0  0  0
   57.2450   29.9480   42.9550 O   0  0  0  0  0  0  0  0  0  0  0  0
   55.1230   29.3450   44.0190 O   0  0  0  0  0  0  0  0  0  0  0  0
   56.6450   31.1150   45.2340 N   0  0  0  0  0  0  0  0  0  0  0  0
   57.8090   31.5790   45.9310 C   0  0  0  0  0  0  0  0  0  0  0  0
   58.4250   30.7140   46.8650 C   0  0  0  0  0  0  0  0  0  0  0  0
   59.5810   31.1090   47.5620 C   0  0  0  0  0  0  0  0  0  0  0  0
   60.0950   32.3830   47.3100 C   0  0  0  0  0  0  0  0  0  0  0  0
   59.5030   33.2240   46.4060 C   0  0  0  0  0  0  0  0  0  0  0  0
   60.2440   34.3850   46.3670 C   0  0  0  0  0  0  0  0  0  0  0  0
   61.2770   34.1910   47.2770 C   0  0  0  0  0  0  0  0  0  0  0  0
   61.1850   32.9670   47.8480 N   0  0  0  0  0  0  0  0  0  0  0  0
   62.0940   32.4150   48.8550 C   0  0  0  0  0  0  0  0  0  0  0  0
   61.3560   32.1380   50.1370 C   0  0  0  0  0  0  0  0  0  0  0  0
   61.8100   31.1460   51.0200 C   0  0  0  0  0  0  0  0  0  0  0  0
   61.1140   30.8870   52.2030 C   0  0  0  0  0  0  0  0  0  0  0  0
   59.9660   31.6160   52.5180 C   0  0  0  0  0  0  0  0  0  0  0  0
   59.4990   32.6180   51.6500 C   0  0  0  0  0  0  0  0  0  0  0  0
   58.2700   33.3820   51.9860 C   0  0  0  0  0  0  0  0  0  0  0  0
   58.3470   34.7970   52.2050 N   0  0  0  0  0  0  0  0  0  0  0  0
   57.1210   32.7810   52.0860 N   0  0  0  0  0  0  0  0  0  0  0  0
   60.2020   32.8720   50.4580 C   0  0  0  0  0  0  0  0  0  0  0  0
   58.3620   32.8600   45.6940 C   0  0  0  0  0  0  0  0  0  0  0  0
   58.7450   28.1650   45.1900 C   0  0  0  0  0  0  0  0  0  0  0  0
   59.6620   29.1600   44.5100 C   0  0  0  0  0  0  0  0  0  0  0  0
   61.0004   26.9003   47.2315 H   0  0  0  0  0  0  0  0  0  0  0  0
   61.0943   25.9852   45.6886 H   0  0  0  0  0  0  0  0  0  0  0  0
   61.3020   27.7694   45.6886 H   0  0  0  0  0  0  0  0  0  0  0  0
   58.8394   25.3144   47.1134 H   0  0  0  0  0  0  0  0  0  0  0  0
   56.3778   25.5317   46.8583 H   0  0  0  0  0  0  0  0  0  0  0  0
   55.4100   27.4416   45.6028 H   0  0  0  0  0  0  0  0  0  0  0  0
   57.9942   29.7187   47.0489 H   0  0  0  0  0  0  0  0  0  0  0  0
   60.0656   30.4350   48.2837 H   0  0  0  0  0  0  0  0  0  0  0  0
   60.0580   35.2751   45.7481 H   0  0  0  0  0  0  0  0  0  0  0  0
   62.0605   34.9297   47.5019 H   0  0  0  0  0  0  0  0  0  0  0  0
   62.5267   31.4771   48.4766 H   0  0  0  0  0  0  0  0  0  0  0  0
   62.8904   33.1471   49.0544 H   0  0  0  0  0  0  0  0  0  0  0  0
   62.7164   30.5709   50.7797 H   0  0  0  0  0  0  0  0  0  0  0  0
   61.4720   30.1054   52.8892 H   0  0  0  0  0  0  0  0  0  0  0  0
   59.4235   31.4050   53.4513 H   0  0  0  0  0  0  0  0  0  0  0  0
   59.2680   35.2890   52.2290 H   0  0  0  0  0  0  0  0  0  0  0  0
   57.4880   35.3520   52.4140 H   0  0  0  0  0  0  0  0  0  0  0  0
   56.7100   32.5680   53.0230 H   0  0  0  0  0  0  0  0  0  0  0  0
   56.5630   32.5140   51.2450 H   0  0  0  0  0  0  0  0  0  0  0  0
   59.8445   33.6529   49.7707 H   0  0  0  0  0  0  0  0  0  0  0  0
   57.9042   33.5485   44.9685 H   0  0  0  0  0  0  0  0  0  0  0  0
   60.1996   29.7434   45.2720 H   0  0  0  0  0  0  0  0  0  0  0  0
   60.3867   28.6210   43.8820 H   0  0  0  0  0  0  0  0  0  0  0  0
   59.0658   29.8384   43.8820 H   0  0  0  0  0  0  0  0  0  0  0  0
  1  2  1  0
  2  3  2  0
  3  4  1  0
  4  5  2  0
  5  6  1  0
  6  7  1  0
  7  8  2  0
  7  9  2  0
  7 10  1  0
 10 11  1  0
 11 12  2  0
 12 13  1  0
 13 14  2  0
 14 15  1  0
 15 16  1  0
 16 17  2  0
 17 18  1  0
 18 19  1  0
 19 20  1  0
 20 21  2  0
 21 22  1  0
 22 23  2  0
 23 24  1  0
 24 25  1  0
 25 26  1  0
 25 27  2  0
 24 28  2  0
 15 29  2  0
  6 30  2  0
 30 31  1  0
 30  2  1  0
 29 11  1  0
 18 14  1  0
 28 20  1  0
  1 32  1  0
  1 33  1  0
  1 34  1  0
  3 35  1  0
  4 36  1  0
  5 37  1  0
 12 38  1  0
 13 39  1  0
 16 40  1  0
 17 41  1  0
 19 42  1  0
 19 43  1  0
 21 44  1  0
 22 45  1  0
 23 46  1  0
 26 47  1  0
 26 48  1  0
 27 49  1  0
 27 50  1  0
 28 51  1  0
 29 52  1  0
 31 53  1  0
 31 54  1  0
 31 55  1  0
M  CHG  2  10  -1  27   1
M  END
>  <UniqueID>  (6) 
6

>  <SMILES>  (6) 
Cc1cccc(S(=O)(=O)[N-]c2ccc3c(ccn3Cc3cccc(C(N)=[NH2+])c3)c2)c1C

>  <Energy>  (6) 
99.7897507757347

>  <Genealogy>  (6) 
Cc1cccc(S(=O)(=O)[N-]c2ccc3c(ccn3Cc3cccc(C(N)=[NH2+])c3)c2)c1C (protonated)
Cc1cccc(S(=O)(=O)[N-]c2ccc3c(ccn3Cc3cccc(C(N)=[NH2+])c3)c2)c1C (3D coordinates assigned)
Cc1cccc(S(=O)(=O)[N-]c2ccc3c(ccn3Cc3cccc(C(N)=[NH2+])c3)c2)c1C (optimized conformer: 99.7897507757347 kcal/mol)

>  <smiles>  (6) 
Cc1cccc(S(=O)(=O)Nc2ccc3c(ccn3Cc3cccc(C(=N)N)c3)c2)c1C

>  <score_type>  (6) 
oracle

>  <origin>  (6) 
adg

>  <m_score__min__energy>  (6) 
-10.06

>  <m_primary>  (6) 
energy

$$$$
6:0
     RDKit          3D

 50 53  0  0  1  0  0  0  0  0999 V2000
   56.4900   24.7710   45.0760 C   0  0  0  0  0  0  0  0  0  0  0  0
   56.0580   26.0030   45.7840 C   0  0  0  0  0  0  0  0  0  0  0  0
   54.8190   26.2170   45.9690 O   0  0  0  0  0  0  0  0  0  0  0  0
   56.9570   26.9820   46.2800 N   0  0  0  0  0  0  0  0  0  0  0  0
   57.0510   28.1480   45.7000 C   0  0  0  0  0  0  0  0  0  0  0  0
   58.2420   28.8590   45.8310 C   0  0  0  0  0  0  0  0  0  0  0  0
   58.3020   30.0860   45.2070 C   0  0  0  0  0  0  0  0  0  0  0  0
   57.2600   30.6220   44.4770 C   0  0  0  0  0  0  0  0  0  0  0  0
   57.4510   31.9360   43.8610 C   0  0  0  0  0  0  0  0  0  0  0  0
   58.2320   32.8620   44.6570 N   0  0  0  0  0  0  0  0  0  0  0  0
   57.6780   33.6830   45.6770 C   0  0  0  0  0  0  0  0  0  0  0  0
   56.4550   33.6820   45.9800 O   0  0  0  0  0  0  0  0  0  0  0  0
   58.5750   34.5540   46.3880 N   0  0  0  0  0  0  0  0  0  0  0  0
   59.6770   34.1230   46.8510 C   0  0  0  0  0  0  0  0  0  0  0  0
   60.8070   34.2730   46.0370 C   0  0  0  0  0  0  0  0  0  0  0  0
   61.9900   33.7990   46.5630 C   0  0  0  0  0  0  0  0  0  0  0  0
   63.2330   33.7650   46.0820 N   0  0  0  0  0  0  0  0  0  0  0  0
   64.0470   33.2120   46.9290 N   0  0  0  0  0  0  0  0  0  0  0  0
   63.3710   32.8330   48.0610 C   0  0  0  0  0  0  0  0  0  0  0  0
   64.0400   32.2190   49.1890 C   0  0  1  0  0  0  0  0  0  0  0  0
   64.3360   33.3510   50.2110 C   0  0  0  0  0  0  0  0  0  0  0  0
   64.6050   32.5050   51.4310 C   0  0  0  0  0  0  0  0  0  0  0  0
   64.1130   31.2300   51.2190 O   0  0  0  0  0  0  0  0  0  0  0  0
   63.2270   31.3570   50.0970 C   0  0  0  0  0  0  0  0  0  0  0  0
   62.0730   33.2100   47.8160 C   0  0  0  0  0  0  0  0  0  0  0  0
   60.9380   33.1000   48.5420 C   0  0  0  0  0  0  0  0  0  0  0  0
   59.7770   33.5480   48.0640 N   0  0  0  0  0  0  0  0  0  0  0  0
   56.1120   29.8640   44.3900 C   0  0  0  0  0  0  0  0  0  0  0  0
   56.0250   28.6570   44.9930 N   0  0  0  0  0  0  0  0  0  0  0  0
   56.7603   24.0003   45.8129 H   0  0  0  0  0  0  0  0  0  0  0  0
   55.6673   24.4029   44.4454 H   0  0  0  0  0  0  0  0  0  0  0  0
   57.3624   24.9973   44.4454 H   0  0  0  0  0  0  0  0  0  0  0  0
   59.0922   28.4606   46.4041 H   0  0  0  0  0  0  0  0  0  0  0  0
   59.2301   30.6699   45.2952 H   0  0  0  0  0  0  0  0  0  0  0  0
   57.9629   31.7934   42.8979 H   0  0  0  0  0  0  0  0  0  0  0  0
   56.4507   32.3807   43.7529 H   0  0  0  0  0  0  0  0  0  0  0  0
   59.2720   32.9360   44.4760 H   0  0  0  0  0  0  0  0  0  0  0  0
   60.7540   34.7390   45.0420 H   0  0  0  0  0  0  0  0  0  0  0  0
   63.5220   34.1320   45.1490 H   0  0  0  0  0  0  0  0  0  0  0  0
   64.8480   31.6494   48.7067 H   0  0  0  0  0  0  0  0  0  0  0  0
   65.2133   33.9483   49.9219 H   0  0  0  0  0  0  0  0  0  0  0  0
   63.5429   34.1048   50.3241 H   0  0  0  0  0  0  0  0  0  0  0  0
   65.6888   32.4555   51.6124 H   0  0  0  0  0  0  0  0  0  0  0  0
   64.1096   32.9510   52.3060 H   0  0  0  0  0  0  0  0  0  0  0  0
   63.0108   30.3800   49.6402 H   0  0  0  0  0  0  0  0  0  0  0  0
   62.2367   31.7666   50.3450 H   0  0  0  0  0  0  0  0  0  0  0  0
   60.9728   32.6355   49.5385 H   0  0  0  0  0  0  0  0  0  0  0  0
   58.9230   33.4450   48.6550 H   0  0  0  0  0  0  0  0  0  0  0  0
   55.2525   30.2474   43.8206 H   0  0  0  0  0  0  0  0  0  0  0  0
   55.1490   28.0860   44.9220 H   0  0  0  0  0  0  0  0  0  0  0  0
  1  2  1  0
  2  3  2  0
  2  4  1  0
  4  5  2  0
  5  6  1  0
  6  7  2  0
  7  8  1  0
  8  9  1  0
  9 10  1  0
 10 11  1  0
 11 12  2  0
 11 13  1  0
 13 14  2  0
 14 15  1  0
 15 16  2  0
 16 17  1  0
 17 18  1  0
 18 19  2  0
 19 20  1  0
 20 21  1  0
 21 22  1  0
 22 23  1  0
 23 24  1  0
 19 25  1  0
 25 26  2  0
 26 27  1  0
  8 28  2  0
 28 29  1  0
 29  5  1  0
 27 14  1  0
 25 16  1  0
 24 20  1  0
  1 30  1  0
  1 31  1  0
  1 32  1  0
  6 33  1  0
  7 34  1  0
  9 35  1  0
  9 36  1  0
 10 37  1  0
 15 38  1  0
 17 39  1  0
 20 40  1  6
 21 41  1  0
 21 42  1  0
 22 43  1  0
 22 44  1  0
 24 45  1  0
 24 46  1  0
 26 47  1  0
 27 48  1  0
 28 49  1  0
 29 50  1  0
M  END
>  <smiles>  (7) 
CC(=O)N=c1ccc(CNC(=O)N=c2cc3[nH]nc(C4CCOC4)c3c[nH]2)c[nH]1

>  <score_type>  (7) 
oracle

>  <origin>  (7) 
adg

>  <m_score__min__energy>  (7) 
-9.6799999999999997

>  <m_primary>  (7) 
energy

$$$$
7:0
     RDKit          3D

 47 49  0  0  0  0  0  0  0  0999 V2000
   54.8150   28.1300   53.5320 O   0  0  0  0  0  0  0  0  0  0  0  0
   54.5520   29.3270   53.2470 C   0  0  0  0  0  0  0  0  0  0  0  0
   53.1420   29.6810   52.8420 C   0  0  0  0  0  0  0  0  0  0  0  0
   53.0410   31.1320   52.3620 C   0  0  0  0  0  0  0  0  0  0  0  0
   52.1590   31.2170   51.1540 C   0  0  0  0  0  0  0  0  0  0  0  0
   52.1650   30.3270   50.1450 N   0  0  0  0  0  0  0  0  0  0  0  0
   51.2750   30.8480   49.2690 C   0  0  0  0  0  0  0  0  0  0  0  0
   51.0020   30.2940   48.1710 O   0  0  0  0  0  0  0  0  0  0  0  0
   50.7130   32.0150   49.6550 N   0  0  0  0  0  0  0  0  0  0  0  0
   51.2890   32.2380   50.8480 C   0  0  0  0  0  0  0  0  0  0  0  0
   51.0380   33.3560   51.6330 O   0  0  0  0  0  0  0  0  0  0  0  0
   55.5880   30.3100   53.3990 N   0  0  0  0  0  0  0  0  0  0  0  0
   56.7680   30.4500   52.5960 C   0  0  0  0  0  0  0  0  0  0  0  0
   56.7330   31.2970   51.4820 C   0  0  0  0  0  0  0  0  0  0  0  0
   57.8590   31.4370   50.6680 C   0  0  0  0  0  0  0  0  0  0  0  0
   59.0390   30.7300   50.9580 C   0  0  0  0  0  0  0  0  0  0  0  0
   60.2340   30.8410   50.0460 C   0  0  0  0  0  0  0  0  0  0  0  0
   60.0000   31.8920   49.0020 C   0  0  0  0  0  0  0  0  0  0  0  0
   60.1190   31.5940   47.7830 O   0  0  0  0  0  0  0  0  0  0  0  0
   59.6730   33.2340   49.3910 N   0  0  0  0  0  0  0  0  0  0  0  0
   59.9620   34.3810   48.5340 C   0  0  0  0  0  0  0  0  0  0  0  0
   59.1650   34.2770   47.2610 C   0  0  0  0  0  0  0  0  0  0  0  0
   59.6580   34.8220   46.0620 C   0  0  0  0  0  0  0  0  0  0  0  0
   58.9320   34.6850   44.8740 C   0  0  0  0  0  0  0  0  0  0  0  0
   57.7210   33.9840   44.8700 C   0  0  0  0  0  0  0  0  0  0  0  0
   57.2240   33.4360   46.0580 C   0  0  0  0  0  0  0  0  0  0  0  0
   57.9410   33.5820   47.2510 C   0  0  0  0  0  0  0  0  0  0  0  0
   59.0870   29.9210   52.1040 C   0  0  0  0  0  0  0  0  0  0  0  0
   57.9650   29.7960   52.9270 C   0  0  0  0  0  0  0  0  0  0  0  0
   52.8261   29.0127   52.0274 H   0  0  0  0  0  0  0  0  0  0  0  0
   52.4915   29.5633   53.7212 H   0  0  0  0  0  0  0  0  0  0  0  0
   52.6171   31.7520   53.1657 H   0  0  0  0  0  0  0  0  0  0  0  0
   54.0459   31.4939   52.0989 H   0  0  0  0  0  0  0  0  0  0  0  0
   55.8145   31.8547   51.2468 H   0  0  0  0  0  0  0  0  0  0  0  0
   57.8224   32.1046   49.7945 H   0  0  0  0  0  0  0  0  0  0  0  0
   61.1194   31.1113   50.6402 H   0  0  0  0  0  0  0  0  0  0  0  0
   60.3936   29.8732   49.5481 H   0  0  0  0  0  0  0  0  0  0  0  0
   59.4490   33.4200   50.3930 H   0  0  0  0  0  0  0  0  0  0  0  0
   59.6910   35.3081   49.0603 H   0  0  0  0  0  0  0  0  0  0  0  0
   61.0350   34.3937   48.2920 H   0  0  0  0  0  0  0  0  0  0  0  0
   60.6184   35.3582   46.0582 H   0  0  0  0  0  0  0  0  0  0  0  0
   59.3134   35.1286   43.9425 H   0  0  0  0  0  0  0  0  0  0  0  0
   57.1590   33.8635   43.9321 H   0  0  0  0  0  0  0  0  0  0  0  0
   56.2690   32.8901   46.0541 H   0  0  0  0  0  0  0  0  0  0  0  0
   57.5468   33.1523   48.1837 H   0  0  0  0  0  0  0  0  0  0  0  0
   60.0127   29.3827   52.3554 H   0  0  0  0  0  0  0  0  0  0  0  0
   58.0199   29.1824   53.8383 H   0  0  0  0  0  0  0  0  0  0  0  0
  1  2  2  0
  2  3  1  0
  3  4  1  0
  4  5  1  0
  5  6  1  0
  6  7  1  0
  7  8  2  0
  7  9  1  0
  9 10  1  0
 10 11  1  0
  2 12  1  0
 12 13  1  0
 13 14  2  0
 14 15  1  0
 15 16  2  0
 16 17  1  0
 17 18  1  0
 18 19  2  0
 18 20  1  0
 20 21  1  0
 21 22  1  0
 22 23  2  0
 23 24  1  0
 24 25  2  0
 25 26  1  0
 26 27  2  0
 16 28  1  0
 28 29  2  0
 10  5  2  0
 29 13  1  0
 27 22  1  0
  3 30  1  0
  3 31  1  0
  4 32  1  0
  4 33  1  0
 14 34  1  0
 15 35  1  0
 17 36  1  0
 17 37  1  0
 20 38  1  0
 21 39  1  0
 21 40  1  0
 23 41  1  0
 24 42  1  0
 25 43  1  0
 26 44  1  0
 27 45  1  0
 28 46  1  0
 29 47  1  0
M  CHG  4   6  -1   9  -1  11  -1  12  -1
M  END
>  <UniqueID>  (8) 
7

>  <SMILES>  (8) 
O=C(CCc1[n-]c(=O)[n-]c1[O-])[N-]c1ccc(CC(=O)NCc2ccccc2)cc1

>  <Energy>  (8) 
70.93521106095639

>  <Genealogy>  (8) 
O=C(CCc1[n-]c(=O)[n-]c1[O-])[N-]c1ccc(CC(=O)NCc2ccccc2)cc1 (protonated)
O=C(CCc1[n-]c(=O)[n-]c1[O-])[N-]c1ccc(CC(=O)NCc2ccccc2)cc1 (3D coordinates assigned)
O=C(CCc1[n-]c(=O)[n-]c1[O-])[N-]c1ccc(CC(=O)NCc2ccccc2)cc1 (optimized conformer: 70.93521106095639 kcal/mol)

>  <smiles>  (8) 
O=C(Cc1ccc(NC(=O)CCc2[nH]c(=O)[nH]c2O)cc1)NCc1ccccc1

>  <score_type>  (8) 
oracle

>  <origin>  (8) 
adg

>  <m_score__min__energy>  (8) 
-18.039999999999999

>  <m_primary>  (8) 
energy

$$$$
8:0
     RDKit          3D

 51 53  0  0  0  0  0  0  0  0999 V2000
   65.4020   33.0420   49.7240 C   0  0  0  0  0  0  0  0  0  0  0  0
   63.8820   32.9950   49.9110 C   0  0  0  0  0  0  0  0  0  0  0  0
   63.3640   31.5800   49.6540 C   0  0  0  0  0  0  0  0  0  0  0  0
   63.2470   33.8890   48.9940 O   0  0  0  0  0  0  0  0  0  0  0  0
   61.9240   33.7910   48.5300 C   0  0  0  0  0  0  0  0  0  0  0  0
   60.8140   33.7030   49.3940 C   0  0  0  0  0  0  0  0  0  0  0  0
   59.5210   33.6040   48.8730 C   0  0  0  0  0  0  0  0  0  0  0  0
   59.3120   33.6060   47.4820 C   0  0  0  0  0  0  0  0  0  0  0  0
   58.0050   33.4760   46.9040 N   0  0  0  0  0  0  0  0  0  0  0  0
   57.6240   32.6140   45.8210 C   0  0  0  0  0  0  0  0  0  0  0  0
   56.8050   33.0200   44.9520 O   0  0  0  0  0  0  0  0  0  0  0  0
   58.2080   31.3010   45.6950 N   0  0  0  0  0  0  0  0  0  0  0  0
   57.9160   30.5040   44.4930 C   0  0  0  0  0  0  0  0  0  0  0  0
   58.6810   29.1740   44.4810 C   0  0  0  0  0  0  0  0  0  0  0  0
   58.6330   28.5440   45.8030 N   0  0  0  0  0  0  0  0  0  0  0  0
   58.6700   27.1140   45.8910 C   0  0  0  0  0  0  0  0  0  0  0  0
   59.8820   26.4990   45.9940 N   0  0  0  0  0  0  0  0  0  0  0  0
   60.0090   25.1460   46.0220 C   0  0  0  0  0  0  0  0  0  0  0  0
   58.8780   24.3380   45.9290 C   0  0  0  0  0  0  0  0  0  0  0  0
   57.6200   24.9310   45.8240 C   0  0  0  0  0  0  0  0  0  0  0  0
   57.4900   26.3330   45.8160 C   0  0  0  0  0  0  0  0  0  0  0  0
   56.1330   26.9320   45.7560 C   0  0  0  0  0  0  0  0  0  0  0  0
   55.9310   28.2480   45.2450 N   0  0  0  0  0  0  0  0  0  0  0  0
   55.1410   26.2920   46.1980 O   0  0  0  0  0  0  0  0  0  0  0  0
   58.8760   29.3300   47.0190 C   0  0  0  0  0  0  0  0  0  0  0  0
   59.1630   30.8000   46.6950 C   0  0  0  0  0  0  0  0  0  0  0  0
   60.4190   33.6660   46.6280 C   0  0  0  0  0  0  0  0  0  0  0  0
   61.7120   33.7640   47.1470 C   0  0  0  0  0  0  0  0  0  0  0  0
   65.8923   33.0572   50.7086 H   0  0  0  0  0  0  0  0  0  0  0  0
   65.7303   32.1536   49.1646 H   0  0  0  0  0  0  0  0  0  0  0  0
   65.6747   33.9490   49.1646 H   0  0  0  0  0  0  0  0  0  0  0  0
   63.6503   33.2939   50.9440 H   0  0  0  0  0  0  0  0  0  0  0  0
   63.1798   31.0768   50.6147 H   0  0  0  0  0  0  0  0  0  0  0  0
   62.4263   31.6312   49.0812 H   0  0  0  0  0  0  0  0  0  0  0  0
   64.1131   31.0137   49.0812 H   0  0  0  0  0  0  0  0  0  0  0  0
   60.9661   33.7123   50.4834 H   0  0  0  0  0  0  0  0  0  0  0  0
   58.6615   33.5240   49.5548 H   0  0  0  0  0  0  0  0  0  0  0  0
   56.8370   30.2926   44.4614 H   0  0  0  0  0  0  0  0  0  0  0  0
   58.2352   31.0857   43.6157 H   0  0  0  0  0  0  0  0  0  0  0  0
   58.2239   28.4999   43.7417 H   0  0  0  0  0  0  0  0  0  0  0  0
   59.7309   29.3692   44.2172 H   0  0  0  0  0  0  0  0  0  0  0  0
   61.0049   24.6890   46.1181 H   0  0  0  0  0  0  0  0  0  0  0  0
   58.9762   23.2424   45.9383 H   0  0  0  0  0  0  0  0  0  0  0  0
   56.7230   24.2989   45.7469 H   0  0  0  0  0  0  0  0  0  0  0  0
   55.1500   28.8480   45.5940 H   0  0  0  0  0  0  0  0  0  0  0  0
   57.9864   29.2740   47.6635 H   0  0  0  0  0  0  0  0  0  0  0  0
   59.7575   28.9122   47.5273 H   0  0  0  0  0  0  0  0  0  0  0  0
   59.0725   31.3979   47.6139 H   0  0  0  0  0  0  0  0  0  0  0  0
   60.1817   30.8832   46.2883 H   0  0  0  0  0  0  0  0  0  0  0  0
   60.2695   33.6357   45.5386 H   0  0  0  0  0  0  0  0  0  0  0  0
   62.5713   33.8205   46.4626 H   0  0  0  0  0  0  0  0  0  0  0  0
  1  2  1  0
  2  3  1  0
  2  4  1  0
  4  5  1  0
  5  6  2  0
  6  7  1  0
  7  8  2  0
  8  9  1  0
  9 10  1  0
 10 11  2  0
 10 12  1  0
 12 13  1  0
 13 14  1  0
 14 15  1  0
 15 16  1  0
 16 17  2  0
 17 18  1  0
 18 19  2  0
 19 20  1  0
 20 21  2  0
 21 22  1  0
 22 23  1  0
 22 24  2  0
 15 25  1  0
 25 26  1  0
  8 27  1  0
 27 28  2  0
 28  5  1  0
 26 12  1  0
 21 16  1  0
  1 29  1  0
  1 30  1  0
  1 31  1  0
  2 32  1  0
  3 33  1  0
  3 34  1  0
  3 35  1  0
  6 36  1  0
  7 37  1  0
 13 38  1  0
 13 39  1  0
 14 40  1  0
 14 41  1  0
 18 42  1  0
 19 43  1  0
 20 44  1  0
 23 45  1  0
 25 46  1  0
 25 47  1  0
 26 48  1  0
 26 49  1  0
 27 50  1  0
 28 51  1  0
M  CHG  2   9  -1  23  -1
M  END
>  <UniqueID>  (9) 
8

>  <SMILES>  (9) 
CC(C)Oc1ccc([N-]C(=O)N2CCN(c3ncccc3C([NH-])=O)CC2)cc1

>  <Energy>  (9) 
60.335395910028254

>  <Genealogy>  (9) 
CC(C)Oc1ccc([N-]C(=O)N2CCN(c3ncccc3C([NH-])=O)CC2)cc1 (protonated)
CC(C)Oc1ccc([N-]C(=O)N2CCN(c3ncccc3C([NH-])=O)CC2)cc1 (3D coordinates assigned)
CC(C)Oc1ccc([N-]C(=O)N2CCN(c3ncccc3C([NH-])=O)CC2)cc1 (nonaromatic ring conformer: 60.335395910028254 kcal/mol)

>  <smiles>  (9) 
CC(C)Oc1ccc(NC(=O)N2CCN(c3ncccc3C(N)=O)CC2)cc1

>  <score_type>  (9) 
oracle

>  <origin>  (9) 
adg

>  <m_score__min__energy>  (9) 
-12.68

>  <m_primary>  (9) 
energy

$$$$
9:0
     RDKit          3D

 44 46  0  0  0  0  0  0  0  0999 V2000
   57.2080   33.5280   46.1540 O   0  0  0  0  0  0  0  0  0  0  0  0
   57.7600   32.5720   46.7590 C   0  0  0  0  0  0  0  0  0  0  0  0
   58.0940   32.6940   48.1430 N   0  0  0  0  0  0  0  0  0  0  0  0
   59.6420   32.2630   48.7930 S   0  0  0  0  0  0  0  0  0  0  0  0
   60.5540   33.4570   48.8150 O   0  0  0  0  0  0  0  0  0  0  0  0
   60.2590   31.2110   47.9180 O   0  0  0  0  0  0  0  0  0  0  0  0
   59.4520   31.6220   50.3910 N   0  0  0  0  0  0  0  0  0  0  0  0
   58.8980   30.3300   50.6600 C   0  0  0  0  0  0  0  0  0  0  0  0
   57.7570   30.2370   51.1900 O   0  0  0  0  0  0  0  0  0  0  0  0
   59.6590   29.1060   50.3190 C   0  0  0  0  0  0  0  0  0  0  0  0
   59.6610   28.6090   49.0010 C   0  0  0  0  0  0  0  0  0  0  0  0
   60.3820   27.4540   48.6810 C   0  0  0  0  0  0  0  0  0  0  0  0
   61.1080   26.7850   49.6670 C   0  0  0  0  0  0  0  0  0  0  0  0
   61.1160   27.2680   50.9770 C   0  0  0  0  0  0  0  0  0  0  0  0
   60.3960   28.4220   51.3040 C   0  0  0  0  0  0  0  0  0  0  0  0
   58.0980   31.3660   46.0610 N   0  0  0  0  0  0  0  0  0  0  0  0
   57.6270   31.0450   44.7400 C   0  0  0  0  0  0  0  0  0  0  0  0
   57.8770   31.9070   43.6570 C   0  0  0  0  0  0  0  0  0  0  0  0
   57.3960   31.6020   42.3810 C   0  0  0  0  0  0  0  0  0  0  0  0
   57.7170   32.6850   41.0380 Cl  0  0  0  0  0  0  0  0  0  0  0  0
   56.6550   30.4360   42.1750 C   0  0  0  0  0  0  0  0  0  0  0  0
   56.3830   29.5820   43.2450 C   0  0  0  0  0  0  0  0  0  0  0  0
   56.8500   29.8880   44.5380 C   0  0  0  0  0  0  0  0  0  0  0  0
   56.6010   29.0340   45.6240 O   0  0  0  0  0  0  0  0  0  0  0  0
   57.1610   27.7600   45.7950 C   0  0  0  0  0  0  0  0  0  0  0  0
   58.5550   27.6390   45.8240 C   0  0  0  0  0  0  0  0  0  0  0  0
   59.1530   26.3860   45.9920 C   0  0  0  0  0  0  0  0  0  0  0  0
   58.3590   25.2470   46.1470 C   0  0  0  0  0  0  0  0  0  0  0  0
   56.9660   25.3610   46.1460 C   0  0  0  0  0  0  0  0  0  0  0  0
   56.3620   26.6130   45.9830 C   0  0  0  0  0  0  0  0  0  0  0  0
   54.9760   26.7120   46.0360 O   0  0  0  0  0  0  0  0  0  0  0  0
   59.0920   29.1325   48.2186 H   0  0  0  0  0  0  0  0  0  0  0  0
   60.3767   27.0721   47.6494 H   0  0  0  0  0  0  0  0  0  0  0  0
   61.6741   25.8769   49.4122 H   0  0  0  0  0  0  0  0  0  0  0  0
   61.6894   26.7402   51.7533 H   0  0  0  0  0  0  0  0  0  0  0  0
   60.4059   28.7974   52.3379 H   0  0  0  0  0  0  0  0  0  0  0  0
   58.7740   30.7170   46.5220 H   0  0  0  0  0  0  0  0  0  0  0  0
   58.4559   32.8288   43.8158 H   0  0  0  0  0  0  0  0  0  0  0  0
   56.2854   30.1905   41.1684 H   0  0  0  0  0  0  0  0  0  0  0  0
   55.8003   28.6642   43.0773 H   0  0  0  0  0  0  0  0  0  0  0  0
   59.1840   28.5347   45.7140 H   0  0  0  0  0  0  0  0  0  0  0  0
   60.2494   26.2972   46.0021 H   0  0  0  0  0  0  0  0  0  0  0  0
   58.8301   24.2606   46.2698 H   0  0  0  0  0  0  0  0  0  0  0  0
   56.3424   24.4639   46.2737 H   0  0  0  0  0  0  0  0  0  0  0  0
  1  2  2  0
  2  3  1  0
  3  4  1  0
  4  5  2  0
  4  6  2  0
  4  7  1  0
  7  8  1  0
  8  9  2  0
  8 10  1  0
 10 11  2  0
 11 12  1  0
 12 13  2  0
 13 14  1  0
 14 15  2  0
  2 16  1  0
 16 17  1  0
 17 18  2  0
 18 19  1  0
 19 20  1  0
 19 21  2  0
 21 22  1  0
 22 23  2  0
 23 24  1  0
 24 25  1  0
 25 26  2  0
 26 27  1  0
 27 28  2  0
 28 29  1  0
 29 30  2  0
 30 31  1  0
 15 10  1  0
 23 17  1  0
 30 25  1  0
 11 32  1  0
 12 33  1  0
 13 34  1  0
 14 35  1  0
 15 36  1  0
 16 37  1  0
 18 38  1  0
 21 39  1  0
 22 40  1  0
 26 41  1  0
 27 42  1  0
 28 43  1  0
 29 44  1  0
M  CHG  3   3  -1   7  -1  31  -1
M  END
>  <UniqueID>  (10) 
9

>  <SMILES>  (10) 
O=C([N-]S(=O)(=O)[N-]C(=O)c1ccccc1)Nc1cc(Cl)ccc1Oc1ccccc1[O-]

>  <Energy>  (10) 
61.6344141041377

>  <Genealogy>  (10) 
O=C([N-]S(=O)(=O)[N-]C(=O)c1ccccc1)Nc1cc(Cl)ccc1Oc1ccccc1[O-] (protonated)
O=C([N-]S(=O)(=O)[N-]C(=O)c1ccccc1)Nc1cc(Cl)ccc1Oc1ccccc1[O-] (3D coordinates assigned)
O=C([N-]S(=O)(=O)[N-]C(=O)c1ccccc1)Nc1cc(Cl)ccc1Oc1ccccc1[O-] (optimized conformer: 61.6344141041377 kcal/mol)

>  <smiles>  (10) 
O=C(Nc1cc(Cl)ccc1Oc1ccccc1O)NS(=O)(=O)NC(=O)c1ccccc1

>  <score_type>  (10) 
oracle

>  <origin>  (10) 
adg

>  <m_score__min__energy>  (10) 
-15.23

>  <m_primary>  (10) 
energy

$$$$
10:0
     RDKit          3D

 37 40  0  0  0  0  0  0  0  0999 V2000
   59.0850   28.0940   46.9230 O   0  0  0  0  0  0  0  0  0  0  0  0
   57.9320   28.1630   46.4210 C   0  0  0  0  0  0  0  0  0  0  0  0
   56.9720   27.1540   46.7660 N   0  0  0  0  0  0  0  0  0  0  0  0
   56.7890   25.8950   46.1000 C   0  0  0  0  0  0  0  0  0  0  0  0
   57.8810   25.0640   45.7850 C   0  0  0  0  0  0  0  0  0  0  0  0
   57.6730   23.8510   45.1220 C   0  0  0  0  0  0  0  0  0  0  0  0
   56.3830   23.4660   44.7540 C   0  0  0  0  0  0  0  0  0  0  0  0
   55.2970   24.2980   45.0390 C   0  0  0  0  0  0  0  0  0  0  0  0
   55.4980   25.5120   45.7060 C   0  0  0  0  0  0  0  0  0  0  0  0
   54.4100   26.3330   45.9790 O   0  0  0  0  0  0  0  0  0  0  0  0
   57.6240   29.2330   45.4390 C   0  0  0  0  0  0  0  0  0  0  0  0
   56.9270   28.9100   44.2630 C   0  0  0  0  0  0  0  0  0  0  0  0
   56.6270   29.8960   43.3230 C   0  0  0  0  0  0  0  0  0  0  0  0
   57.0220   31.2160   43.5370 C   0  0  0  0  0  0  0  0  0  0  0  0
   57.7320   31.5670   44.7000 C   0  0  0  0  0  0  0  0  0  0  0  0
   58.1360   32.8990   44.9420 C   0  0  0  0  0  0  0  0  0  0  0  0
   57.8010   33.7960   44.1230 O   0  0  0  0  0  0  0  0  0  0  0  0
   58.8710   33.2180   46.1130 C   0  0  0  0  0  0  0  0  0  0  0  0
   59.3690   34.5220   46.4180 C   0  0  0  0  0  0  0  0  0  0  0  0
   59.3320   35.5980   45.5280 O   0  0  0  0  0  0  0  0  0  0  0  0
   59.9620   34.7620   47.6640 C   0  0  0  0  0  0  0  0  0  0  0  0
   60.1430   33.7320   48.5840 C   0  0  0  0  0  0  0  0  0  0  0  0
   60.7510   33.9900   49.8060 O   0  0  0  0  0  0  0  0  0  0  0  0
   59.7230   32.4410   48.2750 C   0  0  0  0  0  0  0  0  0  0  0  0
   59.0910   32.1780   47.0570 C   0  0  0  0  0  0  0  0  0  0  0  0
   58.6790   30.9120   46.7970 N   0  0  0  0  0  0  0  0  0  0  0  0
   58.0320   30.5690   45.6530 C   0  0  0  0  0  0  0  0  0  0  0  0
   58.9008   25.3701   46.0614 H   0  0  0  0  0  0  0  0  0  0  0  0
   58.5278   23.1987   44.8899 H   0  0  0  0  0  0  0  0  0  0  0  0
   56.2210   22.5073   44.2395 H   0  0  0  0  0  0  0  0  0  0  0  0
   54.2822   23.9982   44.7385 H   0  0  0  0  0  0  0  0  0  0  0  0
   56.6151   27.8708   44.0818 H   0  0  0  0  0  0  0  0  0  0  0  0
   56.0762   29.6309   42.4085 H   0  0  0  0  0  0  0  0  0  0  0  0
   56.7771   31.9875   42.7922 H   0  0  0  0  0  0  0  0  0  0  0  0
   58.8790   35.5810   44.6270 H   0  0  0  0  0  0  0  0  0  0  0  0
   60.2900   35.7802   47.9201 H   0  0  0  0  0  0  0  0  0  0  0  0
   59.8895   31.6245   48.9930 H   0  0  0  0  0  0  0  0  0  0  0  0
  1  2  2  0
  2  3  1  0
  3  4  1  0
  4  5  2  0
  5  6  1  0
  6  7  2  0
  7  8  1  0
  8  9  2  0
  9 10  1  0
  2 11  1  0
 11 12  2  0
 12 13  1  0
 13 14  2  0
 14 15  1  0
 15 16  1  0
 16 17  2  0
 16 18  1  0
 18 19  2  0
 19 20  1  0
 19 21  1  0
 21 22  2  0
 22 23  1  0
 22 24  1  0
 24 25  2  0
 25 26  1  0
 26 27  1  0
  9  4  1  0
 27 11  1  0
 27 15  2  0
 25 18  1  0
  5 28  1  0
  6 29  1  0
  7 30  1  0
  8 31  1  0
 12 32  1  0
 13 33  1  0
 14 34  1  0
 20 35  1  0
 21 36  1  0
 24 37  1  0
M  CHG  4   3  -1  10  -1  23  -1  26  -1
M  END
>  <UniqueID>  (11) 
10

>  <SMILES>  (11) 
O=C([N-]c1ccccc1[O-])c1cccc2c(=O)c3c(O)cc([O-])cc3[n-]c12

>  <Energy>  (11) 
66.10097603237269

>  <Genealogy>  (11) 
O=C([N-]c1ccccc1[O-])c1cccc2c(=O)c3c(O)cc([O-])cc3[n-]c12 (protonated)
O=C([N-]c1ccccc1[O-])c1cccc2c(=O)c3c(O)cc([O-])cc3[n-]c12 (3D coordinates assigned)
O=C([N-]c1ccccc1[O-])c1cccc2c(=O)c3c(O)cc([O-])cc3[n-]c12 (optimized conformer: 66.10097603237269 kcal/mol)

>  <smiles>  (11) 
O=C(Nc1ccccc1O)c1cccc2c(=O)c3c(O)cc(O)cc3[nH]c12

>  <score_type>  (11) 
oracle

>  <origin>  (11) 
adg

>  <m_score__min__energy>  (11) 
-16.02

>  <m_primary>  (11) 
energy

$$$$
11:0
     RDKit          3D

 21 21  0  0  0  0  0  0  0  0999 V2000
   56.2680   29.7240   42.8190 C   0  0  0  0  0  0  0  0  0  0  0  0
   56.7020   29.6880   44.2800 C   0  0  0  0  0  0  0  0  0  0  0  0
   56.6520   30.9930   44.8530 O   0  0  0  0  0  0  0  0  0  0  0  0
   57.4640   32.0540   44.4310 C   0  0  0  0  0  0  0  0  0  0  0  0
   57.6660   32.2460   43.1990 O   0  0  0  0  0  0  0  0  0  0  0  0
   58.0950   32.9500   45.4250 C   0  0  0  0  0  0  0  0  0  0  0  0
   58.0370   32.6550   46.7370 C   0  0  0  0  0  0  0  0  0  0  0  0
   58.6370   33.5010   47.7300 N   0  0  0  0  0  0  0  0  0  0  0  0
   59.2670   34.5940   47.4370 C   0  0  0  0  0  0  0  0  0  0  0  0
   59.3970   35.0240   46.0410 C   0  0  0  0  0  0  0  0  0  0  0  0
   60.0120   36.0890   45.7690 O   0  0  0  0  0  0  0  0  0  0  0  0
   58.7990   34.2020   44.9360 C   0  0  0  0  0  0  0  0  0  0  0  0
   55.1731   29.8148   42.7639 H   0  0  0  0  0  0  0  0  0  0  0  0
   56.7331   30.5866   42.3195 H   0  0  0  0  0  0  0  0  0  0  0  0
   56.5846   28.7965   42.3195 H   0  0  0  0  0  0  0  0  0  0  0  0
   56.0295   29.0217   44.8401 H   0  0  0  0  0  0  0  0  0  0  0  0
   57.7366   29.3181   44.3326 H   0  0  0  0  0  0  0  0  0  0  0  0
   57.5157   31.7408   47.0572 H   0  0  0  0  0  0  0  0  0  0  0  0
   59.7072   35.2034   48.2400 H   0  0  0  0  0  0  0  0  0  0  0  0
   58.0693   34.8232   44.3959 H   0  0  0  0  0  0  0  0  0  0  0  0
   59.6281   33.8756   44.2909 H   0  0  0  0  0  0  0  0  0  0  0  0
  1  2  1  0
  2  3  1  0
  3  4  1  0
  4  5  2  0
  4  6  1  0
  6  7  2  0
  7  8  1  0
  8  9  2  0
  9 10  1  0
 10 11  2  0
 10 12  1  0
 12  6  1  0
  1 13  1  0
  1 14  1  0
  1 15  1  0
  2 16  1  0
  2 17  1  0
  7 18  1  0
  9 19  1  0
 12 20  1  0
 12 21  1  0
M  END
>  <UniqueID>  (12) 
11

>  <SMILES>  (12) 
CCOC(=O)C1=CN=CC(=O)C1

>  <Energy>  (12) 
15.347845868654776

>  <Genealogy>  (12) 
CCOC(=O)C1=CN=CC(=O)C1 (3D coordinates assigned)
CCOC(=O)C1=CN=CC(=O)C1 (nonaromatic ring conformer: 15.347845868654776 kcal/mol)

>  <smiles>  (12) 
CCOC(=O)C1=CN=CC(=O)C1

>  <score_type>  (12) 
oracle

>  <origin>  (12) 
adg

>  <m_score__min__energy>  (12) 
-4.9299999999999997

>  <m_primary>  (12) 
energy

$$$$
12:0
     RDKit          3D

 55 57  0  0  0  0  0  0  0  0999 V2000
   60.2740   29.2630   44.5690 O   0  0  0  0  0  0  0  0  0  0  0  0
   59.4650   28.9130   45.4730 C   0  0  0  0  0  0  0  0  0  0  0  0
   58.2290   28.1410   45.0840 C   0  0  0  0  0  0  0  0  0  0  0  0
   57.7520   28.5480   43.7600 N   0  0  0  0  0  0  0  0  0  0  0  0
   56.6030   29.8420   43.9220 S   0  0  0  0  0  0  0  0  0  0  0  0
   55.8360   30.0090   42.6380 O   0  0  0  0  0  0  0  0  0  0  0  0
   55.6300   29.5060   45.0180 O   0  0  0  0  0  0  0  0  0  0  0  0
   57.4330   31.3400   44.3330 C   0  0  0  0  0  0  0  0  0  0  0  0
   57.7480   32.2760   43.3400 C   0  0  0  0  0  0  0  0  0  0  0  0
   58.4320   33.4470   43.6720 C   0  0  0  0  0  0  0  0  0  0  0  0
   58.8020   33.6960   44.9980 C   0  0  0  0  0  0  0  0  0  0  0  0
   59.4710   34.8780   45.3040 O   0  0  0  0  0  0  0  0  0  0  0  0
   58.4870   32.7640   46.0060 C   0  0  0  0  0  0  0  0  0  0  0  0
   58.8860   33.0000   47.4120 C   0  0  0  0  0  0  0  0  0  0  0  0
   58.0830   32.6930   48.3360 O   0  0  0  0  0  0  0  0  0  0  0  0
   60.1700   33.5690   47.7440 N   0  0  0  0  0  0  0  0  0  0  0  0
   61.3480   33.2190   46.9230 C   0  0  0  0  0  0  0  0  0  0  0  0
   62.6620   33.8480   47.4230 C   0  0  0  0  0  0  0  0  0  0  0  0
   63.2300   33.1890   48.6990 C   0  0  0  0  0  0  0  0  0  0  0  0
   62.6070   33.6630   50.0250 C   0  0  0  0  0  0  0  0  0  0  0  0
   61.0750   33.5330   50.0840 C   0  0  0  0  0  0  0  0  0  0  0  0
   60.3120   34.3250   49.0000 C   0  0  0  0  0  0  0  0  0  0  0  0
   57.8130   31.5820   45.6590 C   0  0  0  0  0  0  0  0  0  0  0  0
   59.7650   29.2140   46.8550 N   0  0  0  0  0  0  0  0  0  0  0  0
   60.7080   30.2970   47.1630 C   0  0  0  0  0  0  0  0  0  0  0  0
   61.3320   30.0900   48.5460 C   0  0  0  0  0  0  0  0  0  0  0  0
   60.3320   29.8720   49.5200 O   0  0  0  0  0  0  0  0  0  0  0  0
   59.6780   28.6490   49.2560 C   0  0  0  0  0  0  0  0  0  0  0  0
   58.9020   28.7180   47.9380 C   0  0  0  0  0  0  0  0  0  0  0  0
   58.4661   27.0670   45.0667 H   0  0  0  0  0  0  0  0  0  0  0  0
   57.4391   28.3489   45.8207 H   0  0  0  0  0  0  0  0  0  0  0  0
   58.5640   28.9350   43.2260 H   0  0  0  0  0  0  0  0  0  0  0  0
   57.4559   32.0882   42.2963 H   0  0  0  0  0  0  0  0  0  0  0  0
   58.6810   34.1769   42.8876 H   0  0  0  0  0  0  0  0  0  0  0  0
   61.4626   32.1250   46.9292 H   0  0  0  0  0  0  0  0  0  0  0  0
   61.1654   33.6170   45.9139 H   0  0  0  0  0  0  0  0  0  0  0  0
   63.4134   33.7594   46.6245 H   0  0  0  0  0  0  0  0  0  0  0  0
   62.4362   34.8937   47.6792 H   0  0  0  0  0  0  0  0  0  0  0  0
   63.0710   32.1035   48.6191 H   0  0  0  0  0  0  0  0  0  0  0  0
   64.2898   33.4806   48.7427 H   0  0  0  0  0  0  0  0  0  0  0  0
   63.0358   33.0634   50.8414 H   0  0  0  0  0  0  0  0  0  0  0  0
   62.8371   34.7347   50.1171 H   0  0  0  0  0  0  0  0  0  0  0  0
   60.8181   32.4691   49.9740 H   0  0  0  0  0  0  0  0  0  0  0  0
   60.7668   33.9583   51.0505 H   0  0  0  0  0  0  0  0  0  0  0  0
   59.3090   34.5678   49.3809 H   0  0  0  0  0  0  0  0  0  0  0  0
   60.8918   35.2334   48.7795 H   0  0  0  0  0  0  0  0  0  0  0  0
   57.5812   30.8389   46.4363 H   0  0  0  0  0  0  0  0  0  0  0  0
   61.5049   30.3092   46.4048 H   0  0  0  0  0  0  0  0  0  0  0  0
   60.1643   31.2532   47.1584 H   0  0  0  0  0  0  0  0  0  0  0  0
   62.0000   29.2167   48.5132 H   0  0  0  0  0  0  0  0  0  0  0  0
   61.8969   30.9942   48.8169 H   0  0  0  0  0  0  0  0  0  0  0  0
   60.4275   27.8465   49.1911 H   0  0  0  0  0  0  0  0  0  0  0  0
   58.9682   28.4467   50.0716 H   0  0  0  0  0  0  0  0  0  0  0  0
   58.5388   27.7125   47.6792 H   0  0  0  0  0  0  0  0  0  0  0  0
   58.0546   29.4085   48.0609 H   0  0  0  0  0  0  0  0  0  0  0  0
  1  2  2  0
  2  3  1  0
  3  4  1  0
  4  5  1  0
  5  6  2  0
  5  7  2  0
  5  8  1  0
  8  9  2  0
  9 10  1  0
 10 11  2  0
 11 12  1  0
 11 13  1  0
 13 14  1  0
 14 15  2  0
 14 16  1  0
 16 17  1  0
 17 18  1  0
 18 19  1  0
 19 20  1  0
 20 21  1  0
 21 22  1  0
 13 23  2  0
  2 24  1  0
 24 25  1  0
 25 26  1  0
 26 27  1  0
 27 28  1  0
 28 29  1  0
 23  8  1  0
 29 24  1  0
 22 16  1  0
  3 30  1  0
  3 31  1  0
  4 32  1  0
  9 33  1  0
 10 34  1  0
 17 35  1  0
 17 36  1  0
 18 37  1  0
 18 38  1  0
 19 39  1  0
 19 40  1  0
 20 41  1  0
 20 42  1  0
 21 43  1  0
 21 44  1  0
 22 45  1  0
 22 46  1  0
 23 47  1  0
 25 48  1  0
 25 49  1  0
 26 50  1  0
 26 51  1  0
 28 52  1  0
 28 53  1  0
 29 54  1  0
 29 55  1  0
M  CHG  1  12  -1
M  END
>  <UniqueID>  (13) 
12

>  <SMILES>  (13) 
O=C(CNS(=O)(=O)c1ccc([O-])c(C(=O)N2CCCCCC2)c1)N1CCOCC1

>  <Energy>  (13) 
64.77959936582786

>  <Genealogy>  (13) 
O=C(CNS(=O)(=O)c1ccc([O-])c(C(=O)N2CCCCCC2)c1)N1CCOCC1 (protonated)
O=C(CNS(=O)(=O)c1ccc([O-])c(C(=O)N2CCCCCC2)c1)N1CCOCC1 (3D coordinates assigned)
O=C(CNS(=O)(=O)c1ccc([O-])c(C(=O)N2CCCCCC2)c1)N1CCOCC1 (nonaromatic ring conformer: 64.77959936582786 kcal/mol)

>  <smiles>  (13) 
O=C(CNS(=O)(=O)c1ccc(O)c(C(=O)N2CCCCCC2)c1)N1CCOCC1

>  <score_type>  (13) 
oracle

>  <origin>  (13) 
adg

>  <m_score__min__energy>  (13) 
-9.1400000000000006

>  <m_primary>  (13) 
energy

$$$$
13:0
     RDKit          3D

 43 45  0  0  0  0  0  0  0  0999 V2000
   60.6624   27.7401   46.8818 H   0  0  0  0  0  0  0  0  0  0  0  0
   59.5980   27.6420   46.6220 C   0  0  0  0  0  0  0  0  0  0  0  0
   59.0590   28.4310   45.6560 N   0  0  0  0  0  0  0  0  0  0  0  0
   57.7450   28.3430   45.2960 C   0  0  0  0  0  0  0  0  0  0  0  0
   57.2500   29.1100   44.3670 N   0  0  0  0  0  0  0  0  0  0  0  0
   56.6650   30.4080   44.5660 C   0  0  0  0  0  0  0  0  0  0  0  0
   55.4290   30.5490   44.3710 O   0  0  0  0  0  0  0  0  0  0  0  0
   57.4830   31.5910   44.9310 C   0  0  0  0  0  0  0  0  0  0  0  0
   57.7710   32.5760   43.9720 C   0  0  0  0  0  0  0  0  0  0  0  0
   57.4068   32.4590   42.9406 H   0  0  0  0  0  0  0  0  0  0  0  0
   58.5180   33.7040   44.3220 C   0  0  0  0  0  0  0  0  0  0  0  0
   58.7365   34.4721   43.5655 H   0  0  0  0  0  0  0  0  0  0  0  0
   58.9890   33.8610   45.6290 C   0  0  0  0  0  0  0  0  0  0  0  0
   59.6890   34.9790   45.9430 F   0  0  0  0  0  0  0  0  0  0  0  0
   58.7280   32.8720   46.5930 C   0  0  0  0  0  0  0  0  0  0  0  0
   59.2600   33.0360   48.2690 S   0  0  0  0  0  0  0  0  0  0  0  0
   59.3490   34.5010   48.5970 O   0  0  0  0  0  0  0  0  0  0  0  0
   58.2760   32.3940   49.2090 O   0  0  0  0  0  0  0  0  0  0  0  0
   60.8310   32.2900   48.4560 N   0  0  0  0  0  0  0  0  0  0  0  0
   60.7270   31.5640   49.2030 H   0  0  0  0  0  0  0  0  0  0  0  0
   61.2030   31.5940   47.2010 C   0  0  0  0  0  0  0  0  0  0  0  0
   60.6768   30.6290   47.1585 H   0  0  0  0  0  0  0  0  0  0  0  0
   60.9168   32.2351   46.3542 H   0  0  0  0  0  0  0  0  0  0  0  0
   62.7140   31.3410   47.1220 C   0  0  0  0  0  0  0  0  0  0  0  0
   63.0252   30.7455   47.9929 H   0  0  0  0  0  0  0  0  0  0  0  0
   62.9309   30.8006   46.1888 H   0  0  0  0  0  0  0  0  0  0  0  0
   63.4950   32.6680   47.1140 C   0  0  0  0  0  0  0  0  0  0  0  0
   64.4480   32.5185   47.6426 H   0  0  0  0  0  0  0  0  0  0  0  0
   63.6526   32.9541   46.0636 H   0  0  0  0  0  0  0  0  0  0  0  0
   62.7280   33.8130   47.7970 C   0  0  0  0  0  0  0  0  0  0  0  0
   63.4500   34.5300   48.2149 H   0  0  0  0  0  0  0  0  0  0  0  0
   62.0883   34.3012   47.0471 H   0  0  0  0  0  0  0  0  0  0  0  0
   61.8360   33.2830   48.9280 C   0  0  0  0  0  0  0  0  0  0  0  0
   62.4753   32.8034   49.6839 H   0  0  0  0  0  0  0  0  0  0  0  0
   61.2844   34.1396   49.3427 H   0  0  0  0  0  0  0  0  0  0  0  0
   57.9910   31.7360   46.2330 C   0  0  0  0  0  0  0  0  0  0  0  0
   57.8079   30.9482   46.9786 H   0  0  0  0  0  0  0  0  0  0  0  0
   56.9130   27.4250   45.9550 C   0  0  0  0  0  0  0  0  0  0  0  0
   55.5660   27.3210   45.6240 O   0  0  0  0  0  0  0  0  0  0  0  0
   57.4500   26.6020   46.9500 C   0  0  0  0  0  0  0  0  0  0  0  0
   56.8094   25.8732   47.4681 H   0  0  0  0  0  0  0  0  0  0  0  0
   58.8020   26.7080   47.2840 C   0  0  0  0  0  0  0  0  0  0  0  0
   59.2345   26.0611   48.0615 H   0  0  0  0  0  0  0  0  0  0  0  0
  1  2  1  0
  2  3  1  0
  3  4  1  0
  4  5  2  0
  5  6  1  0
  6  7  2  0
  6  8  1  0
  8  9  2  0
  9 10  1  0
  9 11  1  0
 11 12  1  0
 11 13  2  0
 13 14  1  0
 13 15  1  0
 15 16  1  0
 16 17  2  0
 16 18  2  0
 16 19  1  0
 19 20  1  0
 19 21  1  0
 21 22  1  0
 21 23  1  0
 21 24  1  0
 24 25  1  0
 24 26  1  0
 24 27  1  0
 27 28  1  0
 27 29  1  0
 27 30  1  0
 30 31  1  0
 30 32  1  0
 30 33  1  0
 33 34  1  0
 33 35  1  0
 15 36  2  0
 36 37  1  0
  4 38  1  0
 38 39  1  0
 38 40  2  0
 40 41  1  0
 40 42  1  0
 42 43  1  0
 42  2  2  0
 36  8  1  0
 33 19  1  0
M  CHG  3   3  -1  19   1  39  -1
M  END
>  <UniqueID>  (14) 
13

>  <SMILES>  (14) 
O=C(/N=c1\[n-]cccc1[O-])c1ccc(F)c(S(=O)(=O)[NH+]2CCCCC2)c1

>  <Energy>  (14) 
57.67619184324797

>  <Genealogy>  (14) 
O=C(N=c1[n-]cccc1[O-])c1ccc(F)c(S(=O)(=O)[NH+]2CCCCC2)c1 (protonated)
O=C(/N=c1\[n-]cccc1[O-])c1ccc(F)c(S(=O)(=O)[NH+]2CCCCC2)c1 (cis-trans isomerization)
O=C(/N=c1\[n-]cccc1[O-])c1ccc(F)c(S(=O)(=O)[NH+]2CCCCC2)c1 (3D coordinates assigned)
O=C(/N=c1\[n-]cccc1[O-])c1ccc(F)c(S(=O)(=O)[NH+]2CCCCC2)c1 (nonaromatic ring conformer: 57.67619184324797 kcal/mol)

>  <smiles>  (14) 
O=C(N=c1[nH]cccc1O)c1ccc(F)c(S(=O)(=O)N2CCCCC2)c1

>  <score_type>  (14) 
oracle

>  <origin>  (14) 
adg

>  <m_score__min__energy>  (14) 
-13.119999999999999

>  <m_primary>  (14) 
energy

$$$$
14:0
     RDKit          3D

 77 81  0  0  0  0  0  0  0  0999 V2000
   65.9950   32.7850   49.8550 C   0  0  0  0  0  0  0  0  0  0  0  0
   64.5220   33.0400   49.7410 C   0  0  0  0  0  0  0  0  0  0  0  0
   63.8190   33.5870   50.8280 C   0  0  0  0  0  0  0  0  0  0  0  0
   62.4380   33.7840   50.7460 C   0  0  0  0  0  0  0  0  0  0  0  0
   61.7430   33.4260   49.5830 C   0  0  0  0  0  0  0  0  0  0  0  0
   59.9920   33.6350   49.5030 S   0  0  0  0  0  0  0  0  0  0  0  0
   59.4650   33.7890   50.9020 O   0  0  0  0  0  0  0  0  0  0  0  0
   59.6470   34.8720   48.7220 O   0  0  0  0  0  0  0  0  0  0  0  0
   59.2430   32.2570   48.7650 N   0  0  0  0  0  0  0  0  0  0  0  0
   59.4700   31.8550   47.4080 C   0  0  0  0  0  0  0  0  0  0  0  0
   60.2980   30.9330   47.1640 O   0  0  0  0  0  0  0  0  0  0  0  0
   58.7140   32.4810   46.2820 C   0  0  0  0  0  0  0  0  0  0  0  0
   58.7190   33.8910   46.1740 C   0  0  0  0  0  0  0  0  0  0  0  0
   58.0800   34.5370   45.1120 C   0  0  0  0  0  0  0  0  0  0  0  0
   57.4380   33.7940   44.1270 C   0  0  0  0  0  0  0  0  0  0  0  0
   57.4290   32.4030   44.1990 C   0  0  0  0  0  0  0  0  0  0  0  0
   58.0290   31.7350   45.2810 C   0  0  0  0  0  0  0  0  0  0  0  0
   57.8840   30.2700   45.3270 C   0  0  0  0  0  0  0  0  0  0  0  0
   56.7510   29.7730   45.5550 O   0  0  0  0  0  0  0  0  0  0  0  0
   59.0090   29.3900   45.1950 N   0  0  0  0  0  0  0  0  0  0  0  0
   59.1310   28.2730   44.2560 C   0  0  0  0  0  0  0  0  0  0  0  0
   58.3100   27.0400   44.6720 C   0  0  0  0  0  0  0  0  0  0  0  0
   58.4320   26.6460   46.4150 S   0  0  0  0  0  0  0  0  0  0  0  0
   58.6300   25.1680   46.5950 O   0  0  0  0  0  0  0  0  0  0  0  0
   57.1820   27.0840   47.1270 O   0  0  0  0  0  0  0  0  0  0  0  0
   59.7860   27.5090   47.0630 N   0  0  0  0  0  0  0  0  0  0  0  0
   60.0400   27.7150   48.4590 C   0  0  0  0  0  0  0  0  0  0  0  0
   60.7250   26.7260   49.1710 C   0  0  0  0  0  0  0  0  0  0  0  0
   61.0770   26.9330   50.5060 C   0  0  0  0  0  0  0  0  0  0  0  0
   60.7310   28.1250   51.1570 C   0  0  0  0  0  0  0  0  0  0  0  0
   61.3200   28.3830   52.8430 S   0  0  0  0  0  0  0  0  0  0  0  0
   63.0250   28.7170   52.3770 C   0  0  0  0  0  0  0  0  0  0  0  0
   63.4200   30.0360   52.1150 C   0  0  0  0  0  0  0  0  0  0  0  0
   64.7500   30.3270   51.7980 C   0  0  0  0  0  0  0  0  0  0  0  0
   65.6930   29.2980   51.7330 C   0  0  0  0  0  0  0  0  0  0  0  0
   65.3160   27.9860   52.0230 C   0  0  0  0  0  0  0  0  0  0  0  0
   63.9860   27.6910   52.3570 C   0  0  0  0  0  0  0  0  0  0  0  0
   63.5950   26.0480   52.8550 Cl  0  0  0  0  0  0  0  0  0  0  0  0
   60.0160   29.1160   50.4550 C   0  0  0  0  0  0  0  0  0  0  0  0
   59.7130   30.4190   51.0510 C   0  0  0  0  0  0  0  0  0  0  0  0
   60.6510   31.1220   51.5120 O   0  0  0  0  0  0  0  0  0  0  0  0
   58.3410   30.8030   51.2170 N   0  0  0  0  0  0  0  0  0  0  0  0
   57.4390   30.1910   51.9290 C   0  0  0  0  0  0  0  0  0  0  0  0
   57.8490   29.3410   52.9630 C   0  0  0  0  0  0  0  0  0  0  0  0
   56.8900   28.6890   53.7420 C   0  0  0  0  0  0  0  0  0  0  0  0
   55.5330   28.8680   53.4620 C   0  0  0  0  0  0  0  0  0  0  0  0
   54.5920   28.2340   54.2010 F   0  0  0  0  0  0  0  0  0  0  0  0
   55.1570   29.7200   52.4230 C   0  0  0  0  0  0  0  0  0  0  0  0
   56.1070   30.3560   51.6860 N   0  0  0  0  0  0  0  0  0  0  0  0
   59.6610   28.8990   49.1160 C   0  0  0  0  0  0  0  0  0  0  0  0
   62.4410   32.8600   48.5040 C   0  0  0  0  0  0  0  0  0  0  0  0
   63.8220   32.6660   48.5830 C   0  0  0  0  0  0  0  0  0  0  0  0
   66.2775   32.7361   50.9170 H   0  0  0  0  0  0  0  0  0  0  0  0
   66.2409   31.8309   49.3658 H   0  0  0  0  0  0  0  0  0  0  0  0
   66.5473   33.6009   49.3658 H   0  0  0  0  0  0  0  0  0  0  0  0
   64.3579   33.8611   51.7469 H   0  0  0  0  0  0  0  0  0  0  0  0
   61.8949   34.2213   51.5968 H   0  0  0  0  0  0  0  0  0  0  0  0
   59.2348   34.4898   46.9391 H   0  0  0  0  0  0  0  0  0  0  0  0
   58.0849   35.6355   45.0551 H   0  0  0  0  0  0  0  0  0  0  0  0
   56.9374   34.3048   43.2912 H   0  0  0  0  0  0  0  0  0  0  0  0
   56.9469   31.8204   43.4002 H   0  0  0  0  0  0  0  0  0  0  0  0
   58.7832   28.6075   43.2675 H   0  0  0  0  0  0  0  0  0  0  0  0
   60.1889   27.9719   44.2413 H   0  0  0  0  0  0  0  0  0  0  0  0
   57.2533   27.2297   44.4323 H   0  0  0  0  0  0  0  0  0  0  0  0
   58.7189   26.1811   44.1196 H   0  0  0  0  0  0  0  0  0  0  0  0
   60.9881   25.7793   48.6765 H   0  0  0  0  0  0  0  0  0  0  0  0
   61.6304   26.1543   51.0514 H   0  0  0  0  0  0  0  0  0  0  0  0
   62.6786   30.8474   52.1591 H   0  0  0  0  0  0  0  0  0  0  0  0
   65.0540   31.3654   51.5998 H   0  0  0  0  0  0  0  0  0  0  0  0
   66.7329   29.5221   51.4531 H   0  0  0  0  0  0  0  0  0  0  0  0
   66.0644   27.1805   51.9895 H   0  0  0  0  0  0  0  0  0  0  0  0
   58.9201   29.1874   53.1610 H   0  0  0  0  0  0  0  0  0  0  0  0
   57.2018   28.0378   54.5719 H   0  0  0  0  0  0  0  0  0  0  0  0
   54.0915   29.8775   52.1997 H   0  0  0  0  0  0  0  0  0  0  0  0
   59.0812   29.6613   48.5750 H   0  0  0  0  0  0  0  0  0  0  0  0
   61.8981   32.5682   47.5929 H   0  0  0  0  0  0  0  0  0  0  0  0
   64.3625   32.2190   47.7356 H   0  0  0  0  0  0  0  0  0  0  0  0
  1  2  1  0
  2  3  2  0
  3  4  1  0
  4  5  2  0
  5  6  1  0
  6  7  2  0
  6  8  2  0
  6  9  1  0
  9 10  1  0
 10 11  2  0
 10 12  1  0
 12 13  2  0
 13 14  1  0
 14 15  2  0
 15 16  1  0
 16 17  2  0
 17 18  1  0
 18 19  2  0
 18 20  1  0
 20 21  1  0
 21 22  1  0
 22 23  1  0
 23 24  2  0
 23 25  2  0
 23 26  1  0
 26 27  1  0
 27 28  2  0
 28 29  1  0
 29 30  2  0
 30 31  1  0
 31 32  1  0
 32 33  2  0
 33 34  1  0
 34 35  2  0
 35 36  1  0
 36 37  2  0
 37 38  1  0
 30 39  1  0
 39 40  1  0
 40 41  2  0
 40 42  1  0
 42 43  2  3
 43 44  1  0
 44 45  2  0
 45 46  1  0
 46 47  1  0
 46 48  2  0
 48 49  1  0
 39 50  2  0
  5 51  1  0
 51 52  2  0
 52  2  1  0
 17 12  1  0
 50 27  1  0
 37 32  1  0
 49 43  1  0
  1 53  1  0
  1 54  1  0
  1 55  1  0
  3 56  1  0
  4 57  1  0
 13 58  1  0
 14 59  1  0
 15 60  1  0
 16 61  1  0
 21 62  1  0
 21 63  1  0
 22 64  1  0
 22 65  1  0
 28 66  1  0
 29 67  1  0
 33 68  1  0
 34 69  1  0
 35 70  1  0
 36 71  1  0
 44 72  1  0
 45 73  1  0
 48 74  1  0
 50 75  1  0
 51 76  1  0
 52 77  1  0
M  CHG  4   9  -1  20  -1  26  -1  49  -1
M  END
>  <UniqueID>  (15) 
14

>  <SMILES>  (15) 
Cc1ccc(S(=O)(=O)[N-]C(=O)c2ccccc2C(=O)[N-]CCS(=O)(=O)[N-]c2ccc(Sc3ccccc3Cl)c(C(=O)N=c3ccc(F)c[n-]3)c2)cc1

>  <Energy>  (15) 
104.6554862210092

>  <Genealogy>  (15) 
Cc1ccc(S(=O)(=O)[N-]C(=O)c2ccccc2C(=O)[N-]CCS(=O)(=O)[N-]c2ccc(Sc3ccccc3Cl)c(C(=O)N=c3ccc(F)c[n-]3)c2)cc1 (protonated)
Cc1ccc(S(=O)(=O)[N-]C(=O)c2ccccc2C(=O)[N-]CCS(=O)(=O)[N-]c2ccc(Sc3ccccc3Cl)c(C(=O)N=c3ccc(F)c[n-]3)c2)cc1 (3D coordinates assigned)
Cc1ccc(S(=O)(=O)[N-]C(=O)c2ccccc2C(=O)[N-]CCS(=O)(=O)[N-]c2ccc(Sc3ccccc3Cl)c(C(=O)N=c3ccc(F)c[n-]3)c2)cc1 (optimized conformer: 104.6554862210092 kcal/mol)

>  <smiles>  (15) 
Cc1ccc(S(=O)(=O)NC(=O)c2ccccc2C(=O)NCCS(=O)(=O)Nc2ccc(Sc3ccccc3Cl)c(C(=O)N=c3ccc(F)c[nH]3)c2)cc1

>  <score_type>  (15) 
oracle

>  <origin>  (15) 
adg

>  <m_score__min__energy>  (15) 
-14.93

>  <m_primary>  (15) 
energy

$$$$
15:0
     RDKit          3D

 45 48  0  0  0  0  0  0  0  0999 V2000
   55.7400   30.5350   44.2870 O   0  0  0  0  0  0  0  0  0  0  0  0
   56.4640   29.6360   44.7940 C   0  0  0  0  0  0  0  0  0  0  0  0
   55.8760   28.4980   45.2350 N   0  0  0  0  0  0  0  0  0  0  0  0
   56.5900   27.4930   45.7970 C   0  0  0  0  0  0  0  0  0  0  0  0
   55.9150   26.3330   46.1800 O   0  0  0  0  0  0  0  0  0  0  0  0
   57.9800   27.6390   45.9570 C   0  0  0  0  0  0  0  0  0  0  0  0
   58.8110   26.5920   46.5960 C   0  0  0  0  0  0  0  0  0  0  0  0
   59.2690   25.5010   45.9650 C   0  0  0  0  0  0  0  0  0  0  0  0
   58.4230   24.5430   45.2210 C   0  0  0  0  0  0  0  0  0  0  0  0
   57.6340   24.9580   44.1150 C   0  0  0  0  0  0  0  0  0  0  0  0
   56.8260   24.0360   43.4260 C   0  0  0  0  0  0  0  0  0  0  0  0
   56.8150   22.7200   43.8770 C   0  0  0  0  0  0  0  0  0  0  0  0
   57.5460   22.3210   44.9480 C   0  0  0  0  0  0  0  0  0  0  0  0
   58.3580   23.2010   45.6570 C   0  0  0  0  0  0  0  0  0  0  0  0
   57.3370   20.9740   45.1710 O   0  0  0  0  0  0  0  0  0  0  0  0
   56.4170   20.4980   44.1790 C   0  0  0  0  0  0  0  0  0  0  0  0
   56.1090   21.6450   43.3740 O   0  0  0  0  0  0  0  0  0  0  0  0
   58.5830   28.8120   45.4720 C   0  0  0  0  0  0  0  0  0  0  0  0
   59.8330   28.9570   45.5860 O   0  0  0  0  0  0  0  0  0  0  0  0
   57.8230   29.8010   44.8960 N   0  0  0  0  0  0  0  0  0  0  0  0
   58.4640   31.0480   44.4280 C   0  0  0  0  0  0  0  0  0  0  0  0
   57.6850   32.2870   44.8920 C   0  0  0  0  0  0  0  0  0  0  0  0
   58.4520   33.0760   45.9210 C   0  0  0  0  0  0  0  0  0  0  0  0
   58.5430   32.6170   47.2450 C   0  0  0  0  0  0  0  0  0  0  0  0
   59.2130   33.3740   48.2100 C   0  0  0  0  0  0  0  0  0  0  0  0
   59.7970   34.5950   47.8600 C   0  0  0  0  0  0  0  0  0  0  0  0
   59.7080   35.0610   46.5460 C   0  0  0  0  0  0  0  0  0  0  0  0
   59.0360   34.3070   45.5790 C   0  0  0  0  0  0  0  0  0  0  0  0
   55.1440   26.3330   46.8350 H   0  0  0  0  0  0  0  0  0  0  0  0
   59.0693   26.7179   47.6578 H   0  0  0  0  0  0  0  0  0  0  0  0
   60.3507   25.3047   46.0035 H   0  0  0  0  0  0  0  0  0  0  0  0
   57.6552   26.0101   43.7946 H   0  0  0  0  0  0  0  0  0  0  0  0
   56.2229   24.3450   42.5595 H   0  0  0  0  0  0  0  0  0  0  0  0
   58.9325   22.8615   46.5315 H   0  0  0  0  0  0  0  0  0  0  0  0
   56.8817   19.7105   43.5675 H   0  0  0  0  0  0  0  0  0  0  0  0
   55.5159   20.0572   44.6303 H   0  0  0  0  0  0  0  0  0  0  0  0
   59.4868   31.0972   44.8298 H   0  0  0  0  0  0  0  0  0  0  0  0
   58.4765   31.0390   43.3281 H   0  0  0  0  0  0  0  0  0  0  0  0
   57.4895   32.9313   44.0221 H   0  0  0  0  0  0  0  0  0  0  0  0
   56.7448   31.9480   45.3515 H   0  0  0  0  0  0  0  0  0  0  0  0
   58.0846   31.6568   47.5240 H   0  0  0  0  0  0  0  0  0  0  0  0
   59.2809   33.0089   49.2454 H   0  0  0  0  0  0  0  0  0  0  0  0
   60.3267   35.1889   48.6194 H   0  0  0  0  0  0  0  0  0  0  0  0
   60.1671   36.0222   46.2718 H   0  0  0  0  0  0  0  0  0  0  0  0
   58.9644   34.6792   44.5464 H   0  0  0  0  0  0  0  0  0  0  0  0
  1  2  2  0
  2  3  1  0
  3  4  1  0
  4  5  1  0
  4  6  2  0
  6  7  1  0
  7  8  2  3
  8  9  1  0
  9 10  2  0
 10 11  1  0
 11 12  2  0
 12 13  1  0
 13 14  2  0
 13 15  1  0
 15 16  1  0
 16 17  1  0
  6 18  1  0
 18 19  2  0
 18 20  1  0
 20 21  1  0
 21 22  1  0
 22 23  1  0
 23 24  2  0
 24 25  1  0
 25 26  2  0
 26 27  1  0
 27 28  2  0
 20  2  1  0
 28 23  1  0
 14  9  1  0
 17 12  1  0
  5 29  1  0
  7 30  1  0
  8 31  1  0
 10 32  1  0
 11 33  1  0
 14 34  1  0
 16 35  1  0
 16 36  1  0
 21 37  1  0
 21 38  1  0
 22 39  1  0
 22 40  1  0
 24 41  1  0
 25 42  1  0
 26 43  1  0
 27 44  1  0
 28 45  1  0
M  CHG  1   3  -1
M  END
>  <UniqueID>  (16) 
15

>  <SMILES>  (16) 
O=c1[n-]c(O)c(C=Cc2ccc3c(c2)OCO3)c(=O)n1CCc1ccccc1

>  <Energy>  (16) 
88.91844045081898

>  <Genealogy>  (16) 
O=c1[n-]c(O)c(C=Cc2ccc3c(c2)OCO3)c(=O)n1CCc1ccccc1 (protonated)
O=c1[n-]c(O)c(C=Cc2ccc3c(c2)OCO3)c(=O)n1CCc1ccccc1 (3D coordinates assigned)
O=c1[n-]c(O)c(C=Cc2ccc3c(c2)OCO3)c(=O)n1CCc1ccccc1 (nonaromatic ring conformer: 88.91844045081898 kcal/mol)

>  <smiles>  (16) 
O=c1[nH]c(O)c(C=Cc2ccc3c(c2)OCO3)c(=O)n1CCc1ccccc1

>  <score_type>  (16) 
oracle

>  <origin>  (16) 
adg

>  <m_score__min__energy>  (16) 
-11.07

>  <m_primary>  (16) 
energy

$$$$
16:0
     RDKit          3D

 49 51  0  0  0  0  0  0  0  0999 V2000
   59.0180   30.3010   44.8400 C   0  0  0  0  0  0  0  0  0  0  0  0
   57.9450   29.2730   45.1220 C   0  0  0  0  0  0  0  0  0  0  0  0
   58.2660   27.9930   45.6520 C   0  0  0  0  0  0  0  0  0  0  0  0
   59.7070   27.5900   45.9290 C   0  0  0  0  0  0  0  0  0  0  0  0
   59.9930   27.6340   47.4070 C   0  0  0  0  0  0  0  0  0  0  0  0
   61.0260   27.0700   47.8530 O   0  0  0  0  0  0  0  0  0  0  0  0
   59.0830   28.2390   48.3370 N   0  0  0  0  0  0  0  0  0  0  0  0
   59.2160   29.5370   48.9290 C   0  0  0  0  0  0  0  0  0  0  0  0
   58.6400   29.8380   50.1740 C   0  0  0  0  0  0  0  0  0  0  0  0
   58.7640   31.1200   50.7140 C   0  0  0  0  0  0  0  0  0  0  0  0
   59.4470   32.1170   50.0100 C   0  0  0  0  0  0  0  0  0  0  0  0
   59.5610   33.3870   50.5660 O   0  0  0  0  0  0  0  0  0  0  0  0
   60.0050   31.8340   48.7520 C   0  0  0  0  0  0  0  0  0  0  0  0
   60.8490   33.0940   47.8500 S   0  0  0  0  0  0  0  0  0  0  0  0
   61.7000   33.8810   48.8070 O   0  0  0  0  0  0  0  0  0  0  0  0
   61.7370   32.4790   46.8030 O   0  0  0  0  0  0  0  0  0  0  0  0
   59.6810   34.1440   47.0850 N   0  0  0  0  0  0  0  0  0  0  0  0
   58.2950   33.7560   47.4480 C   0  0  0  0  0  0  0  0  0  0  0  0
   57.5750   32.9830   46.3330 C   0  0  0  0  0  0  0  0  0  0  0  0
   57.5160   33.8060   45.0350 C   0  0  0  0  0  0  0  0  0  0  0  0
   58.7270   34.7390   44.8650 C   0  0  0  0  0  0  0  0  0  0  0  0
   59.9440   34.2080   45.6300 C   0  0  0  0  0  0  0  0  0  0  0  0
   59.8740   30.5440   48.2130 C   0  0  0  0  0  0  0  0  0  0  0  0
   57.2210   27.0650   45.8850 C   0  0  0  0  0  0  0  0  0  0  0  0
   57.4880   25.7350   46.3850 C   0  0  0  0  0  0  0  0  0  0  0  0
   57.7020   24.6710   46.7860 N   0  0  0  0  0  0  0  0  0  0  0  0
   55.8980   27.4390   45.6240 C   0  0  0  0  0  0  0  0  0  0  0  0
   54.8530   26.5480   45.8510 O   0  0  0  0  0  0  0  0  0  0  0  0
   55.6200   28.6760   45.1480 N   0  0  0  0  0  0  0  0  0  0  0  0
   56.5880   29.5910   44.8960 C   0  0  0  0  0  0  0  0  0  0  0  0
   56.2550   30.7240   44.4580 O   0  0  0  0  0  0  0  0  0  0  0  0
   59.4177   30.6840   45.7905 H   0  0  0  0  0  0  0  0  0  0  0  0
   59.8297   29.8348   44.2622 H   0  0  0  0  0  0  0  0  0  0  0  0
   58.5870   31.1319   44.2622 H   0  0  0  0  0  0  0  0  0  0  0  0
   59.8746   26.5680   45.5583 H   0  0  0  0  0  0  0  0  0  0  0  0
   60.3780   28.2947   45.4160 H   0  0  0  0  0  0  0  0  0  0  0  0
   58.0895   29.0616   50.7255 H   0  0  0  0  0  0  0  0  0  0  0  0
   58.3231   31.3463   51.6960 H   0  0  0  0  0  0  0  0  0  0  0  0
   58.3326   33.1217   48.3459 H   0  0  0  0  0  0  0  0  0  0  0  0
   57.7295   34.6832   47.6227 H   0  0  0  0  0  0  0  0  0  0  0  0
   58.1164   32.0453   46.1391 H   0  0  0  0  0  0  0  0  0  0  0  0
   56.5458   32.7756   46.6613 H   0  0  0  0  0  0  0  0  0  0  0  0
   57.4833   33.1135   44.1810 H   0  0  0  0  0  0  0  0  0  0  0  0
   56.6162   34.4369   45.0836 H   0  0  0  0  0  0  0  0  0  0  0  0
   58.9778   34.8111   43.7964 H   0  0  0  0  0  0  0  0  0  0  0  0
   58.4652   35.7284   45.2682 H   0  0  0  0  0  0  0  0  0  0  0  0
   60.1838   33.1985   45.2648 H   0  0  0  0  0  0  0  0  0  0  0  0
   60.7864   34.8946   45.4602 H   0  0  0  0  0  0  0  0  0  0  0  0
   60.2919   30.3229   47.2198 H   0  0  0  0  0  0  0  0  0  0  0  0
  1  2  1  0
  2  3  2  0
  3  4  1  0
  4  5  1  0
  5  6  2  0
  5  7  1  0
  7  8  1  0
  8  9  2  0
  9 10  1  0
 10 11  2  0
 11 12  1  0
 11 13  1  0
 13 14  1  0
 14 15  2  0
 14 16  2  0
 14 17  1  0
 17 18  1  0
 18 19  1  0
 19 20  1  0
 20 21  1  0
 21 22  1  0
 13 23  2  0
  3 24  1  0
 24 25  1  0
 25 26  3  0
 24 27  2  0
 27 28  1  0
 27 29  1  0
 29 30  1  0
 30 31  2  0
 30  2  1  0
 23  8  1  0
 22 17  1  0
  1 32  1  0
  1 33  1  0
  1 34  1  0
  4 35  1  0
  4 36  1  0
  9 37  1  0
 10 38  1  0
 18 39  1  0
 18 40  1  0
 19 41  1  0
 19 42  1  0
 20 43  1  0
 20 44  1  0
 21 45  1  0
 21 46  1  0
 22 47  1  0
 22 48  1  0
 23 49  1  0
M  CHG  4   7  -1  12  -1  28  -1  29  -1
M  END
>  <UniqueID>  (17) 
16

>  <SMILES>  (17) 
Cc1c(CC(=O)[N-]c2ccc([O-])c(S(=O)(=O)N3CCCCC3)c2)c(C#N)c([O-])[n-]c1=O

>  <Energy>  (17) 
64.82868509011547

>  <Genealogy>  (17) 
Cc1c(CC(=O)[N-]c2ccc([O-])c(S(=O)(=O)N3CCCCC3)c2)c(C#N)c([O-])[n-]c1=O (protonated)
Cc1c(CC(=O)[N-]c2ccc([O-])c(S(=O)(=O)N3CCCCC3)c2)c(C#N)c([O-])[n-]c1=O (3D coordinates assigned)
Cc1c(CC(=O)[N-]c2ccc([O-])c(S(=O)(=O)N3CCCCC3)c2)c(C#N)c([O-])[n-]c1=O (nonaromatic ring conformer: 64.82868509011547 kcal/mol)

>  <smiles>  (17) 
Cc1c(CC(=O)Nc2ccc(O)c(S(=O)(=O)N3CCCCC3)c2)c(C#N)c(O)[nH]c1=O

>  <score_type>  (17) 
oracle

>  <origin>  (17) 
adg

>  <m_score__min__energy>  (17) 
-16.829999999999998

>  <m_primary>  (17) 
energy

$$$$
17:0
     RDKit          3D

 42 43  0  0  0  0  0  0  0  0999 V2000
   58.9360   32.2130   48.7850 C   0  0  0  0  0  0  0  0  0  0  0  0
   59.2530   33.6980   48.5080 C   0  0  1  0  0  0  0  0  0  0  0  0
   60.5880   34.0980   49.1700 C   0  0  0  0  0  0  0  0  0  0  0  0
   61.8020   33.4190   48.5060 C   0  0  0  0  0  0  0  0  0  0  0  0
   61.6520   33.2360   46.9820 C   0  0  0  0  0  0  0  0  0  0  0  0
   60.6580   34.2300   46.3770 C   0  0  0  0  0  0  0  0  0  0  0  0
   59.2410   34.0900   46.9900 C   0  0  1  0  0  0  0  0  0  0  0  0
   58.4260   33.1640   46.1940 N   0  0  0  0  0  0  0  0  0  0  0  0
   58.3360   33.2520   44.7640 C   0  0  0  0  0  0  0  0  0  0  0  0
   59.0100   34.1100   44.1330 O   0  0  0  0  0  0  0  0  0  0  0  0
   57.4570   32.3050   44.0150 C   0  0  0  0  0  0  0  0  0  0  0  0
   56.6540   31.5430   44.9650 N   0  0  0  0  0  0  0  0  0  0  0  0
   56.4700   29.9100   44.4040 S   0  0  0  0  0  0  0  0  0  0  0  0
   56.4860   29.8980   42.9020 O   0  0  0  0  0  0  0  0  0  0  0  0
   55.1560   29.3490   44.8710 O   0  0  0  0  0  0  0  0  0  0  0  0
   57.8000   28.9200   45.0020 C   0  0  0  0  0  0  0  0  0  0  0  0
   57.5510   27.6720   45.5910 C   0  0  0  0  0  0  0  0  0  0  0  0
   58.6130   26.9040   46.0820 C   0  0  0  0  0  0  0  0  0  0  0  0
   59.9240   27.3810   45.9890 C   0  0  0  0  0  0  0  0  0  0  0  0
   60.9520   26.6350   46.4650 F   0  0  0  0  0  0  0  0  0  0  0  0
   60.1760   28.6270   45.4070 C   0  0  0  0  0  0  0  0  0  0  0  0
   59.1170   29.3970   44.9170 C   0  0  0  0  0  0  0  0  0  0  0  0
   58.8996   32.0423   49.8711 H   0  0  0  0  0  0  0  0  0  0  0  0
   57.9629   31.9567   48.3407 H   0  0  0  0  0  0  0  0  0  0  0  0
   59.7196   31.5817   48.3407 H   0  0  0  0  0  0  0  0  0  0  0  0
   58.4299   34.2694   48.9619 H   0  0  0  0  0  0  0  0  0  0  0  0
   60.7075   35.1887   49.0924 H   0  0  0  0  0  0  0  0  0  0  0  0
   60.5530   33.7690   50.2191 H   0  0  0  0  0  0  0  0  0  0  0  0
   62.6923   34.0365   48.6958 H   0  0  0  0  0  0  0  0  0  0  0  0
   61.8879   32.4136   48.9440 H   0  0  0  0  0  0  0  0  0  0  0  0
   62.6339   33.3841   46.5088 H   0  0  0  0  0  0  0  0  0  0  0  0
   61.2693   32.2211   46.7991 H   0  0  0  0  0  0  0  0  0  0  0  0
   61.0233   35.2514   46.5595 H   0  0  0  0  0  0  0  0  0  0  0  0
   60.5820   34.0176   45.3004 H   0  0  0  0  0  0  0  0  0  0  0  0
   58.7785   35.0873   46.9514 H   0  0  0  0  0  0  0  0  0  0  0  0
   57.8760   32.4200   46.6800 H   0  0  0  0  0  0  0  0  0  0  0  0
   56.7943   32.8708   43.3437 H   0  0  0  0  0  0  0  0  0  0  0  0
   58.0763   31.6179   43.4197 H   0  0  0  0  0  0  0  0  0  0  0  0
   56.5200   27.2963   45.6672 H   0  0  0  0  0  0  0  0  0  0  0  0
   58.4161   25.9242   46.5415 H   0  0  0  0  0  0  0  0  0  0  0  0
   61.2077   29.0015   45.3346 H   0  0  0  0  0  0  0  0  0  0  0  0
   59.3166   30.3792   44.4637 H   0  0  0  0  0  0  0  0  0  0  0  0
  1  2  1  0
  2  3  1  0
  3  4  1  0
  4  5  1  0
  5  6  1  0
  6  7  1  0
  7  8  1  0
  8  9  1  0
  9 10  2  0
  9 11  1  0
 11 12  1  0
 12 13  1  0
 13 14  2  0
 13 15  2  0
 13 16  1  0
 16 17  2  0
 17 18  1  0
 18 19  2  0
 19 20  1  0
 19 21  1  0
 21 22  2  0
  7  2  1  0
 22 16  1  0
  1 23  1  0
  1 24  1  0
  1 25  1  0
  2 26  1  1
  3 27  1  0
  3 28  1  0
  4 29  1  0
  4 30  1  0
  5 31  1  0
  5 32  1  0
  6 33  1  0
  6 34  1  0
  7 35  1  1
  8 36  1  0
 11 37  1  0
 11 38  1  0
 17 39  1  0
 18 40  1  0
 21 41  1  0
 22 42  1  0
M  CHG  1  12  -1
M  END
>  <UniqueID>  (18) 
17

>  <SMILES>  (18) 
C[C@H]1CCCC[C@H]1NC(=O)C[N-]S(=O)(=O)c1ccc(F)cc1

>  <Energy>  (18) 
39.99137433677134

>  <Genealogy>  (18) 
CC1CCCCC1NC(=O)C[N-]S(=O)(=O)c1ccc(F)cc1 (protonated)
C[C@H]1CCCC[C@H]1NC(=O)C[N-]S(=O)(=O)c1ccc(F)cc1 (chirality)
C[C@H]1CCCC[C@H]1NC(=O)C[N-]S(=O)(=O)c1ccc(F)cc1 (3D coordinates assigned)
C[C@H]1CCCC[C@H]1NC(=O)C[N-]S(=O)(=O)c1ccc(F)cc1 (nonaromatic ring conformer: 39.99137433677134 kcal/mol)

>  <smiles>  (18) 
CC1CCCCC1NC(=O)CNS(=O)(=O)c1ccc(F)cc1

>  <score_type>  (18) 
oracle

>  <origin>  (18) 
adg

>  <m_score__min__energy>  (18) 
-9.5

>  <m_primary>  (18) 
energy

$$$$
18:0
     RDKit          3D

 39 42  0  0  0  0  0  0  0  0999 V2000
   57.5450   29.4500   51.2700 O   0  0  0  0  0  0  0  0  0  0  0  0
   57.4820   30.1140   52.3390 C   0  0  0  0  0  0  0  0  0  0  0  0
   58.6820   30.8970   52.7790 C   0  0  0  0  0  0  0  0  0  0  0  0
   58.3110   32.6810   52.7530 S   0  0  0  0  0  0  0  0  0  0  0  0
   59.0870   32.9300   51.1580 C   0  0  0  0  0  0  0  0  0  0  0  0
   58.3710   32.7420   50.0120 N   0  0  0  0  0  0  0  0  0  0  0  0
   58.9210   32.9520   48.7770 C   0  0  0  0  0  0  0  0  0  0  0  0
   58.1600   32.7620   47.6190 C   0  0  0  0  0  0  0  0  0  0  0  0
   58.7350   32.9880   46.3640 C   0  0  0  0  0  0  0  0  0  0  0  0
   60.0690   33.4020   46.2600 C   0  0  0  0  0  0  0  0  0  0  0  0
   60.8400   33.5960   47.4110 C   0  0  0  0  0  0  0  0  0  0  0  0
   60.2710   33.3730   48.6740 C   0  0  0  0  0  0  0  0  0  0  0  0
   60.9580   33.5460   49.8360 N   0  0  0  0  0  0  0  0  0  0  0  0
   62.2170   33.9320   50.1110 C   0  0  0  0  0  0  0  0  0  0  0  0
   62.4180   33.9590   51.4480 N   0  0  0  0  0  0  0  0  0  0  0  0
   61.2850   33.5860   52.0360 N   0  0  0  0  0  0  0  0  0  0  0  0
   60.4140   33.3400   51.0410 C   0  0  0  0  0  0  0  0  0  0  0  0
   56.2530   30.1110   53.0800 N   0  0  0  0  0  0  0  0  0  0  0  0
   55.0570   29.3350   52.7610 C   0  0  0  0  0  0  0  0  0  0  0  0
   53.8800   30.2290   52.4670 C   0  0  0  0  0  0  0  0  0  0  0  0
   52.8960   30.4610   53.4440 C   0  0  0  0  0  0  0  0  0  0  0  0
   51.8050   31.2880   53.1630 C   0  0  0  0  0  0  0  0  0  0  0  0
   51.6790   31.8790   51.9010 C   0  0  0  0  0  0  0  0  0  0  0  0
   50.5950   32.7040   51.6260 O   0  0  0  0  0  0  0  0  0  0  0  0
   52.6420   31.6380   50.9170 C   0  0  0  0  0  0  0  0  0  0  0  0
   53.7330   30.8080   51.1940 C   0  0  0  0  0  0  0  0  0  0  0  0
   58.9568   30.5976   53.8012 H   0  0  0  0  0  0  0  0  0  0  0  0
   59.5163   30.6931   52.0917 H   0  0  0  0  0  0  0  0  0  0  0  0
   57.1122   32.4358   47.6949 H   0  0  0  0  0  0  0  0  0  0  0  0
   58.1360   32.8397   45.4534 H   0  0  0  0  0  0  0  0  0  0  0  0
   60.5125   33.5754   45.2684 H   0  0  0  0  0  0  0  0  0  0  0  0
   61.8872   33.9218   47.3263 H   0  0  0  0  0  0  0  0  0  0  0  0
   62.9747   34.1890   49.3561 H   0  0  0  0  0  0  0  0  0  0  0  0
   55.2609   28.7109   51.8785 H   0  0  0  0  0  0  0  0  0  0  0  0
   54.8076   28.7119   53.6325 H   0  0  0  0  0  0  0  0  0  0  0  0
   52.9852   29.9896   54.4338 H   0  0  0  0  0  0  0  0  0  0  0  0
   51.0441   31.4746   53.9352 H   0  0  0  0  0  0  0  0  0  0  0  0
   52.5417   32.1013   49.9244 H   0  0  0  0  0  0  0  0  0  0  0  0
   54.4800   30.6071   50.4120 H   0  0  0  0  0  0  0  0  0  0  0  0
  1  2  2  0
  2  3  1  0
  3  4  1  0
  4  5  1  0
  5  6  2  0
  6  7  1  0
  7  8  2  0
  8  9  1  0
  9 10  2  0
 10 11  1  0
 11 12  2  0
 12 13  1  0
 13 14  1  0
 14 15  2  0
 15 16  1  0
 16 17  2  0
  2 18  1  0
 18 19  1  0
 19 20  1  0
 20 21  2  0
 21 22  1  0
 22 23  2  0
 23 24  1  0
 23 25  1  0
 25 26  2  0
 17  5  1  0
 26 20  1  0
 12  7  1  0
 17 13  1  0
  3 27  1  0
  3 28  1  0
  8 29  1  0
  9 30  1  0
 10 31  1  0
 11 32  1  0
 14 33  1  0
 19 34  1  0
 19 35  1  0
 21 36  1  0
 22 37  1  0
 25 38  1  0
 26 39  1  0
M  CHG  2  18  -1  24  -1
M  END
>  <UniqueID>  (19) 
18

>  <SMILES>  (19) 
O=C(CSc1nc2ccccc2n2cnnc12)[N-]Cc1ccc([O-])cc1

>  <Energy>  (19) 
81.25177289899368

>  <Genealogy>  (19) 
O=C(CSc1nc2ccccc2n2cnnc12)[N-]Cc1ccc([O-])cc1 (protonated)
O=C(CSc1nc2ccccc2n2cnnc12)[N-]Cc1ccc([O-])cc1 (3D coordinates assigned)
O=C(CSc1nc2ccccc2n2cnnc12)[N-]Cc1ccc([O-])cc1 (optimized conformer: 81.25177289899368 kcal/mol)

>  <smiles>  (19) 
O=C(CSc1nc2ccccc2n2cnnc12)NCc1ccc(O)cc1

>  <score_type>  (19) 
oracle

>  <origin>  (19) 
adg

>  <m_score__min__energy>  (19) 
-13.369999999999999

>  <m_primary>  (19) 
energy

$$$$
19:0
     RDKit          3D

 52 56  0  0  0  0  0  0  0  0999 V2000
   54.8000   24.7710   45.6090 C   0  0  0  0  0  0  0  0  0  0  0  0
   55.1420   26.1010   45.9880 O   0  0  0  0  0  0  0  0  0  0  0  0
   56.4460   26.6210   45.9640 C   0  0  0  0  0  0  0  0  0  0  0  0
   57.5760   25.8410   46.2770 C   0  0  0  0  0  0  0  0  0  0  0  0
   58.8530   26.4050   46.2330 C   0  0  0  0  0  0  0  0  0  0  0  0
   59.0180   27.7450   45.8780 C   0  0  0  0  0  0  0  0  0  0  0  0
   57.9020   28.5410   45.5640 C   0  0  0  0  0  0  0  0  0  0  0  0
   58.0750   29.9680   45.1950 C   0  0  0  0  0  0  0  0  0  0  0  0
   57.8780   30.3880   43.8690 C   0  0  0  0  0  0  0  0  0  0  0  0
   58.0640   31.7230   43.5140 C   0  0  0  0  0  0  0  0  0  0  0  0
   58.4550   32.6620   44.4700 C   0  0  0  0  0  0  0  0  0  0  0  0
   58.6560   33.9290   44.0880 O   0  0  0  0  0  0  0  0  0  0  0  0
   59.0480   34.8850   44.9280 C   0  0  0  0  0  0  0  0  0  0  0  0
   59.2300   36.0600   44.5130 O   0  0  0  0  0  0  0  0  0  0  0  0
   59.2490   34.5550   46.2620 C   0  0  0  0  0  0  0  0  0  0  0  0
   59.6540   35.3110   47.3340 C   0  0  0  0  0  0  0  0  0  0  0  0
   59.6830   34.5100   48.4200 N   0  0  0  0  0  0  0  0  0  0  0  0
   59.3120   33.2850   48.0610 N   0  0  0  0  0  0  0  0  0  0  0  0
   59.2080   32.2090   49.0490 C   0  0  0  0  0  0  0  0  0  0  0  0
   60.2010   31.0830   48.8280 C   0  0  0  0  0  0  0  0  0  0  0  0
   59.7490   29.9650   48.6060 O   0  0  0  0  0  0  0  0  0  0  0  0
   61.6450   31.2750   48.8950 N   0  0  0  0  0  0  0  0  0  0  0  0
   62.2470   31.2620   47.5440 C   0  0  0  0  0  0  0  0  0  0  0  0
   62.9910   32.5770   47.3470 C   0  0  0  0  0  0  0  0  0  0  0  0
   62.4170   33.5050   48.3910 C   0  0  0  0  0  0  0  0  0  0  0  0
   61.9830   32.5760   49.5080 C   0  0  0  0  0  0  0  0  0  0  0  0
   59.0440   33.2850   46.7260 C   0  0  0  0  0  0  0  0  0  0  0  0
   58.6430   32.2640   45.8290 C   0  0  0  0  0  0  0  0  0  0  0  0
   58.4520   30.9110   46.1690 C   0  0  0  0  0  0  0  0  0  0  0  0
   56.6180   27.9660   45.6120 C   0  0  0  0  0  0  0  0  0  0  0  0
   54.6433   24.1615   46.5112 H   0  0  0  0  0  0  0  0  0  0  0  0
   53.8765   24.7860   45.0116 H   0  0  0  0  0  0  0  0  0  0  0  0
   55.6162   24.3386   45.0116 H   0  0  0  0  0  0  0  0  0  0  0  0
   57.4525   24.7844   46.5570 H   0  0  0  0  0  0  0  0  0  0  0  0
   59.7320   25.7911   46.4790 H   0  0  0  0  0  0  0  0  0  0  0  0
   60.0273   28.1810   45.8437 H   0  0  0  0  0  0  0  0  0  0  0  0
   57.5745   29.6574   43.1047 H   0  0  0  0  0  0  0  0  0  0  0  0
   57.9015   32.0389   42.4729 H   0  0  0  0  0  0  0  0  0  0  0  0
   59.9097   36.3806   47.3118 H   0  0  0  0  0  0  0  0  0  0  0  0
   59.3828   32.6358   50.0476 H   0  0  0  0  0  0  0  0  0  0  0  0
   58.2018   31.7758   48.9494 H   0  0  0  0  0  0  0  0  0  0  0  0
   62.0990   30.5230   49.4610 H   0  0  0  0  0  0  0  0  0  0  0  0
   62.9486   30.4194   47.4561 H   0  0  0  0  0  0  0  0  0  0  0  0
   61.4654   31.1470   46.7786 H   0  0  0  0  0  0  0  0  0  0  0  0
   64.0710   32.4384   47.5034 H   0  0  0  0  0  0  0  0  0  0  0  0
   62.8710   32.9734   46.3280 H   0  0  0  0  0  0  0  0  0  0  0  0
   63.1796   34.2138   48.7459 H   0  0  0  0  0  0  0  0  0  0  0  0
   61.5894   34.1177   48.0041 H   0  0  0  0  0  0  0  0  0  0  0  0
   62.8021   32.4493   50.2312 H   0  0  0  0  0  0  0  0  0  0  0  0
   61.1155   32.9904   50.0425 H   0  0  0  0  0  0  0  0  0  0  0  0
   58.5994   30.5869   47.2098 H   0  0  0  0  0  0  0  0  0  0  0  0
   55.7384   28.5807   45.3700 H   0  0  0  0  0  0  0  0  0  0  0  0
  1  2  1  0
  2  3  1  0
  3  4  2  0
  4  5  1  0
  5  6  2  0
  6  7  1  0
  7  8  1  0
  8  9  2  0
  9 10  1  0
 10 11  2  0
 11 12  1  0
 12 13  1  0
 13 14  2  0
 13 15  1  0
 15 16  1  0
 16 17  2  0
 17 18  1  0
 18 19  1  0
 19 20  1  0
 20 21  2  0
 20 22  1  0
 22 23  1  0
 23 24  1  0
 24 25  1  0
 25 26  1  0
 18 27  1  0
 27 28  1  0
 28 29  2  0
  7 30  2  0
 30  3  1  0
 29  8  1  0
 28 11  1  0
 27 15  2  0
 26 22  1  0
  1 31  1  0
  1 32  1  0
  1 33  1  0
  4 34  1  0
  5 35  1  0
  6 36  1  0
  9 37  1  0
 10 38  1  0
 16 39  1  0
 19 40  1  0
 19 41  1  0
 22 42  1  0
 23 43  1  0
 23 44  1  0
 24 45  1  0
 24 46  1  0
 25 47  1  0
 25 48  1  0
 26 49  1  0
 26 50  1  0
 29 51  1  0
 30 52  1  0
M  CHG  1  22   1
M  END
>  <UniqueID>  (20) 
19

>  <SMILES>  (20) 
COc1cccc(-c2ccc3oc(=O)c4cnn(CC(=O)[NH+]5CCCC5)c4c3c2)c1

>  <Energy>  (20) 
114.43428535802711

>  <Genealogy>  (20) 
COc1cccc(-c2ccc3oc(=O)c4cnn(CC(=O)[NH+]5CCCC5)c4c3c2)c1 (protonated)
COc1cccc(-c2ccc3oc(=O)c4cnn(CC(=O)[NH+]5CCCC5)c4c3c2)c1 (3D coordinates assigned)
COc1cccc(-c2ccc3oc(=O)c4cnn(CC(=O)[NH+]5CCCC5)c4c3c2)c1 (nonaromatic ring conformer: 114.43428535802711 kcal/mol)

>  <smiles>  (20) 
COc1cccc(-c2ccc3oc(=O)c4cnn(CC(=O)N5CCCC5)c4c3c2)c1

>  <score_type>  (20) 
oracle

>  <origin>  (20) 
adg

>  <m_score__min__energy>  (20) 
-7.7699999999999996

>  <m_primary>  (20) 
energy

$$$$
20:0
     RDKit          3D

 30 31  0  0  0  0  0  0  0  0999 V2000
   57.7458   33.9220   45.8460 H   0  0  0  0  0  0  0  0  0  0  0  0
   57.3990   33.1980   45.0940 C   0  0  0  0  0  0  0  0  0  0  0  0
   56.7494   33.5291   44.2704 H   0  0  0  0  0  0  0  0  0  0  0  0
   57.7670   31.9160   45.1810 C   0  0  0  0  0  0  0  0  0  0  0  0
   58.4169   31.5999   46.0102 H   0  0  0  0  0  0  0  0  0  0  0  0
   57.3150   30.8950   44.1740 C   0  0  0  0  0  0  0  0  0  0  0  0
   56.3222   31.1775   43.7938 H   0  0  0  0  0  0  0  0  0  0  0  0
   58.0437   30.8631   43.3506 H   0  0  0  0  0  0  0  0  0  0  0  0
   57.2340   29.5360   44.7990 C   0  0  0  0  0  0  0  0  0  0  0  0
   58.5500   28.5540   45.1680 S   0  0  0  0  0  0  0  0  0  0  0  0
   57.5700   27.2900   45.7170 C   0  0  0  0  0  0  0  0  0  0  0  0
   57.9810   26.1310   46.1400 N   0  0  0  0  0  0  0  0  0  0  0  0
   57.1720   24.9520   46.2960 C   0  0  0  0  0  0  0  0  0  0  0  0
   57.4820   23.7650   45.4600 C   0  0  0  0  0  0  0  0  0  0  0  0
   58.7560   23.1730   45.5380 C   0  0  0  0  0  0  0  0  0  0  0  0
   59.5107   23.5899   46.2211 H   0  0  0  0  0  0  0  0  0  0  0  0
   59.0700   22.0590   44.7540 C   0  0  0  0  0  0  0  0  0  0  0  0
   60.0668   21.5997   44.8273 H   0  0  0  0  0  0  0  0  0  0  0  0
   58.1210   21.5280   43.8780 C   0  0  0  0  0  0  0  0  0  0  0  0
   58.3691   20.6484   43.2658 H   0  0  0  0  0  0  0  0  0  0  0  0
   56.8560   22.1140   43.7790 C   0  0  0  0  0  0  0  0  0  0  0  0
   55.9170   21.5920   42.8990 O   0  0  0  0  0  0  0  0  0  0  0  0
   56.5360   23.2290   44.5630 C   0  0  0  0  0  0  0  0  0  0  0  0
   55.5406   23.6894   44.4785 H   0  0  0  0  0  0  0  0  0  0  0  0
   56.1520   24.9580   47.1040 N   0  0  0  0  0  0  0  0  0  0  0  0
   55.5240   25.7890   47.1730 H   0  0  0  0  0  0  0  0  0  0  0  0
   55.9220   24.1400   47.7110 H   0  0  0  0  0  0  0  0  0  0  0  0
   56.2570   27.5850   45.6010 N   0  0  0  0  0  0  0  0  0  0  0  0
   56.0700   28.8300   45.0930 C   0  0  0  0  0  0  0  0  0  0  0  0
   54.7990   29.3470   44.8780 O   0  0  0  0  0  0  0  0  0  0  0  0
  1  2  1  0
  2  3  1  0
  2  4  2  0
  4  5  1  0
  4  6  1  0
  6  7  1  0
  6  8  1  0
  6  9  1  0
  9 10  1  0
 10 11  1  0
 11 12  2  0
 12 13  1  0
 13 14  1  0
 14 15  2  0
 15 16  1  0
 15 17  1  0
 17 18  1  0
 17 19  2  0
 19 20  1  0
 19 21  1  0
 21 22  1  0
 21 23  2  0
 23 24  1  0
 13 25  2  0
 25 26  1  0
 25 27  1  0
 11 28  1  0
 28 29  1  0
 29 30  1  0
 29  9  2  0
 23 14  1  0
M  CHG  4  22  -1  25   1  28  -1  30  -1
M  END
>  <UniqueID>  (21) 
20

>  <SMILES>  (21) 
C=CCc1s/c(=N\C(=[NH2+])c2cccc([O-])c2)[n-]c1[O-]

>  <Energy>  (21) 
66.7562594486188

>  <Genealogy>  (21) 
C=CCc1sc(=NC(=[NH2+])c2cccc([O-])c2)[n-]c1[O-] (protonated)
C=CCc1s/c(=N\C(=[NH2+])c2cccc([O-])c2)[n-]c1[O-] (cis-trans isomerization)
C=CCc1s/c(=N\C(=[NH2+])c2cccc([O-])c2)[n-]c1[O-] (3D coordinates assigned)
C=CCc1s/c(=N\C(=[NH2+])c2cccc([O-])c2)[n-]c1[O-] (optimized conformer: 66.7562594486188 kcal/mol)

>  <smiles>  (21) 
C=CCc1sc(=NC(=N)c2cccc(O)c2)[nH]c1O

>  <score_type>  (21) 
oracle

>  <origin>  (21) 
adg

>  <m_score__min__energy>  (21) 
-12.23

>  <m_primary>  (21) 
energy

$$$$
21:0
     RDKit          3D

 35 37  0  0  0  0  0  0  0  0999 V2000
   55.0170   28.9170   42.8830 H   0  0  0  0  0  0  0  0  0  0  0  0
   55.5720   29.7620   42.9600 O   0  0  0  0  0  0  0  0  0  0  0  0
   56.5770   29.8890   43.9170 C   0  0  0  0  0  0  0  0  0  0  0  0
   57.6140   30.8130   43.7410 C   0  0  0  0  0  0  0  0  0  0  0  0
   57.6368   31.4462   42.8418 H   0  0  0  0  0  0  0  0  0  0  0  0
   58.6200   30.9340   44.7030 C   0  0  0  0  0  0  0  0  0  0  0  0
   59.4285   31.6653   44.5565 H   0  0  0  0  0  0  0  0  0  0  0  0
   58.6090   30.1290   45.8580 C   0  0  0  0  0  0  0  0  0  0  0  0
   59.6880   30.2750   46.8700 C   0  0  0  0  0  0  0  0  0  0  0  0
   60.6830   31.1950   46.7180 N   0  0  0  0  0  0  0  0  0  0  0  0
   61.5740   31.1610   47.7300 C   0  0  0  0  0  0  0  0  0  0  0  0
   62.5760   31.9860   47.7910 N   0  0  0  0  0  0  0  0  0  0  0  0
   62.5230   33.4200   47.7350 C   0  0  0  0  0  0  0  0  0  0  0  0
   63.5170   34.0430   47.2760 O   0  0  0  0  0  0  0  0  0  0  0  0
   61.3750   34.2100   48.3100 C   0  0  0  0  0  0  0  0  0  0  0  0
   61.1346   33.8175   49.3091 H   0  0  0  0  0  0  0  0  0  0  0  0
   61.6753   35.2665   48.3693 H   0  0  0  0  0  0  0  0  0  0  0  0
   60.1500   34.1110   47.4350 C   0  0  0  0  0  0  0  0  0  0  0  0
   58.9620   33.5450   47.9280 C   0  0  0  0  0  0  0  0  0  0  0  0
   58.9238   33.1613   48.9582 H   0  0  0  0  0  0  0  0  0  0  0  0
   57.8280   33.4680   47.1130 C   0  0  0  0  0  0  0  0  0  0  0  0
   56.8983   33.0304   47.5057 H   0  0  0  0  0  0  0  0  0  0  0  0
   57.8740   33.9460   45.8010 C   0  0  0  0  0  0  0  0  0  0  0  0
   56.9810   33.8845   45.1617 H   0  0  0  0  0  0  0  0  0  0  0  0
   59.0540   34.5020   45.3010 C   0  0  0  0  0  0  0  0  0  0  0  0
   59.0897   34.8766   44.2674 H   0  0  0  0  0  0  0  0  0  0  0  0
   60.1890   34.5830   46.1120 C   0  0  0  0  0  0  0  0  0  0  0  0
   61.1171   35.0182   45.7130 H   0  0  0  0  0  0  0  0  0  0  0  0
   61.1550   30.0030   48.8780 S   0  0  0  0  0  0  0  0  0  0  0  0
   59.7890   29.5050   48.0340 C   0  0  0  0  0  0  0  0  0  0  0  0
   59.0941   28.7105   48.3436 H   0  0  0  0  0  0  0  0  0  0  0  0
   57.5570   29.2060   46.0280 C   0  0  0  0  0  0  0  0  0  0  0  0
   57.5268   28.5736   46.9276 H   0  0  0  0  0  0  0  0  0  0  0  0
   56.5510   29.0870   45.0630 C   0  0  0  0  0  0  0  0  0  0  0  0
   55.5230   28.1710   45.2490 O   0  0  0  0  0  0  0  0  0  0  0  0
  1  2  1  0
  2  3  1  0
  3  4  2  0
  4  5  1  0
  4  6  1  0
  6  7  1  0
  6  8  2  0
  8  9  1  0
  9 10  1  0
 10 11  1  0
 11 12  2  0
 12 13  1  0
 13 14  2  0
 13 15  1  0
 15 16  1  0
 15 17  1  0
 15 18  1  0
 18 19  2  0
 19 20  1  0
 19 21  1  0
 21 22  1  0
 21 23  2  0
 23 24  1  0
 23 25  1  0
 25 26  1  0
 25 27  2  0
 27 28  1  0
 11 29  1  0
 29 30  1  0
 30 31  1  0
  8 32  1  0
 32 33  1  0
 32 34  2  0
 34 35  1  0
 34  3  1  0
 30  9  2  0
 27 18  1  0
M  CHG  2  10  -1  35  -1
M  END
>  <UniqueID>  (22) 
21

>  <SMILES>  (22) 
O=C(Cc1ccccc1)/N=c1/[n-]c(-c2ccc(O)c([O-])c2)cs1

>  <Energy>  (22) 
75.79918166568582

>  <Genealogy>  (22) 
O=C(Cc1ccccc1)N=c1[n-]c(-c2ccc(O)c([O-])c2)cs1 (protonated)
O=C(Cc1ccccc1)/N=c1/[n-]c(-c2ccc(O)c([O-])c2)cs1 (cis-trans isomerization)
O=C(Cc1ccccc1)/N=c1/[n-]c(-c2ccc(O)c([O-])c2)cs1 (3D coordinates assigned)
O=C(Cc1ccccc1)/N=c1/[n-]c(-c2ccc(O)c([O-])c2)cs1 (optimized conformer: 75.79918166568582 kcal/mol)

>  <smiles>  (22) 
O=C(Cc1ccccc1)N=c1[nH]c(-c2ccc(O)c(O)c2)cs1

>  <score_type>  (22) 
oracle

>  <origin>  (22) 
adg

>  <m_score__min__energy>  (22) 
-12.300000000000001

>  <m_primary>  (22) 
energy

$$$$
22:0
     RDKit          3D

 35 37  0  0  0  0  0  0  0  0999 V2000
   59.5325   34.4969   44.7232 H   0  0  0  0  0  0  0  0  0  0  0  0
   58.9500   33.6310   45.0710 C   0  0  0  0  0  0  0  0  0  0  0  0
   57.8950   33.1340   44.3730 N   0  0  0  0  0  0  0  0  0  0  0  0
   57.3380   32.0730   44.9970 C   0  0  0  0  0  0  0  0  0  0  0  0
   56.3150   31.4100   44.5470 N   0  0  0  0  0  0  0  0  0  0  0  0
   56.2230   29.9830   44.4120 C   0  0  0  0  0  0  0  0  0  0  0  0
   55.2360   29.3460   44.8720 O   0  0  0  0  0  0  0  0  0  0  0  0
   57.3440   29.2370   43.7620 C   0  0  0  0  0  0  0  0  0  0  0  0
   56.9725   28.2705   43.3908 H   0  0  0  0  0  0  0  0  0  0  0  0
   57.7366   29.8305   42.9232 H   0  0  0  0  0  0  0  0  0  0  0  0
   58.4120   29.0060   44.7300 N   0  0  0  0  0  0  0  0  0  0  0  0
   59.7260   29.2490   44.5580 C   0  0  0  0  0  0  0  0  0  0  0  0
   60.1868   29.7152   43.6747 H   0  0  0  0  0  0  0  0  0  0  0  0
   60.3920   28.8110   45.6830 C   0  0  0  0  0  0  0  0  0  0  0  0
   61.4769   28.8764   45.8522 H   0  0  0  0  0  0  0  0  0  0  0  0
   59.4940   28.2900   46.5400 N   0  0  0  0  0  0  0  0  0  0  0  0
   59.6860   27.8650   47.4730 H   0  0  0  0  0  0  0  0  0  0  0  0
   58.2980   28.4140   45.9340 C   0  0  0  0  0  0  0  0  0  0  0  0
   57.3463   28.0740   46.3684 H   0  0  0  0  0  0  0  0  0  0  0  0
   58.1250   31.7030   46.4290 S   0  0  0  0  0  0  0  0  0  0  0  0
   59.2410   32.9610   46.2640 C   0  0  0  0  0  0  0  0  0  0  0  0
   60.3300   33.2780   47.2250 C   0  0  0  0  0  0  0  0  0  0  0  0
   61.6770   33.1820   46.8290 C   0  0  0  0  0  0  0  0  0  0  0  0
   61.9218   32.8700   45.8030 H   0  0  0  0  0  0  0  0  0  0  0  0
   62.7070   33.4790   47.7260 C   0  0  0  0  0  0  0  0  0  0  0  0
   63.7546   33.4116   47.3974 H   0  0  0  0  0  0  0  0  0  0  0  0
   62.4130   33.8620   49.0410 C   0  0  0  0  0  0  0  0  0  0  0  0
   63.5190   34.2170   49.9910 C   0  0  0  0  0  0  0  0  0  0  0  0
   63.1641   34.1031   51.0259 H   0  0  0  0  0  0  0  0  0  0  0  0
   64.3763   33.5489   49.8217 H   0  0  0  0  0  0  0  0  0  0  0  0
   63.8273   35.2592   49.8217 H   0  0  0  0  0  0  0  0  0  0  0  0
   61.0740   33.9740   49.4400 C   0  0  0  0  0  0  0  0  0  0  0  0
   60.8337   34.2961   50.4640 H   0  0  0  0  0  0  0  0  0  0  0  0
   60.0430   33.6790   48.5450 C   0  0  0  0  0  0  0  0  0  0  0  0
   58.9965   33.7605   48.8739 H   0  0  0  0  0  0  0  0  0  0  0  0
  1  2  1  0
  2  3  1  0
  3  4  1  0
  4  5  2  0
  5  6  1  0
  6  7  2  0
  6  8  1  0
  8  9  1  0
  8 10  1  0
  8 11  1  0
 11 12  1  0
 12 13  1  0
 12 14  2  0
 14 15  1  0
 14 16  1  0
 16 17  1  0
 16 18  2  0
 18 19  1  0
  4 20  1  0
 20 21  1  0
 21 22  1  0
 22 23  2  0
 23 24  1  0
 23 25  1  0
 25 26  1  0
 25 27  2  0
 27 28  1  0
 28 29  1  0
 28 30  1  0
 28 31  1  0
 27 32  1  0
 32 33  1  0
 32 34  2  0
 34 35  1  0
 21  2  2  0
 34 22  1  0
 18 11  1  0
M  CHG  2   3  -1  16   1
M  END
>  <UniqueID>  (23) 
22

>  <SMILES>  (23) 
Cc1ccc(-c2c[n-]/c(=N\C(=O)Cn3cc[nH+]c3)s2)cc1

>  <Energy>  (23) 
98.8408234375051

>  <Genealogy>  (23) 
Cc1ccc(-c2c[n-]c(=NC(=O)Cn3cc[nH+]c3)s2)cc1 (protonated)
Cc1ccc(-c2c[n-]/c(=N\C(=O)Cn3cc[nH+]c3)s2)cc1 (cis-trans isomerization)
Cc1ccc(-c2c[n-]/c(=N\C(=O)Cn3cc[nH+]c3)s2)cc1 (3D coordinates assigned)
Cc1ccc(-c2c[n-]/c(=N\C(=O)Cn3cc[nH+]c3)s2)cc1 (optimized conformer: 98.8408234375051 kcal/mol)

>  <smiles>  (23) 
Cc1ccc(-c2c[nH]c(=NC(=O)Cn3ccnc3)s2)cc1

>  <score_type>  (23) 
oracle

>  <origin>  (23) 
adg

>  <m_score__min__energy>  (23) 
-7.75

>  <m_primary>  (23) 
energy

$$$$
23:0
     RDKit          3D

 62 65  0  0  0  0  0  0  0  0999 V2000
   56.2160   21.2120   44.8770 C   0  0  0  0  0  0  0  0  0  0  0  0
   55.9060   22.1190   43.8210 N   0  0  0  0  0  0  0  0  0  0  0  0
   56.6360   21.9690   42.6210 C   0  0  0  0  0  0  0  0  0  0  0  0
   55.4470   23.4030   44.1830 C   0  0  0  0  0  0  0  0  0  0  0  0
   55.2730   23.6610   45.6490 C   0  0  0  0  0  0  0  0  0  0  0  0
   56.2130   24.6430   46.1410 N   0  0  0  0  0  0  0  0  0  0  0  0
   56.1960   25.9020   45.6180 C   0  0  0  0  0  0  0  0  0  0  0  0
   57.0860   26.8380   46.0720 C   0  0  0  0  0  0  0  0  0  0  0  0
   57.0280   28.1680   45.4810 C   0  0  0  0  0  0  0  0  0  0  0  0
   55.8910   28.6210   45.1450 O   0  0  0  0  0  0  0  0  0  0  0  0
   58.1410   28.9930   45.2530 N   0  0  0  0  0  0  0  0  0  0  0  0
   57.9980   30.2880   44.6690 C   0  0  0  0  0  0  0  0  0  0  0  0
   57.5410   30.3980   43.3560 C   0  0  0  0  0  0  0  0  0  0  0  0
   57.3910   31.6400   42.7580 C   0  0  0  0  0  0  0  0  0  0  0  0
   57.7000   32.7770   43.4820 C   0  0  0  0  0  0  0  0  0  0  0  0
   58.1590   32.6740   44.7960 C   0  0  0  0  0  0  0  0  0  0  0  0
   58.4930   33.9030   45.5740 C   0  0  0  0  0  0  0  0  0  0  0  0
   58.7690   33.4530   46.9780 C   0  0  0  0  0  0  0  0  0  0  0  0
   57.7890   33.0860   47.8230 N   0  0  0  0  0  0  0  0  0  0  0  0
   58.0350   32.6890   49.0590 N   0  0  0  0  0  0  0  0  0  0  0  0
   59.2710   32.6220   49.5650 C   0  0  0  0  0  0  0  0  0  0  0  0
   59.4640   32.2400   50.7470 O   0  0  0  0  0  0  0  0  0  0  0  0
   60.3190   32.9850   48.7530 C   0  0  0  0  0  0  0  0  0  0  0  0
   60.0840   33.4020   47.4560 C   0  0  0  0  0  0  0  0  0  0  0  0
   61.1570   33.8070   46.5200 C   0  0  0  0  0  0  0  0  0  0  0  0
   62.5030   33.4180   47.1070 C   0  0  0  0  0  0  0  0  0  0  0  0
   62.5830   33.8270   48.5760 C   0  0  0  0  0  0  0  0  0  0  0  0
   61.6860   32.9030   49.3410 C   0  0  0  0  0  0  0  0  0  0  0  0
   58.3080   31.4340   45.3930 C   0  0  0  0  0  0  0  0  0  0  0  0
   58.0060   26.5310   47.0510 C   0  0  0  0  0  0  0  0  0  0  0  0
   58.0240   25.2600   47.5790 C   0  0  0  0  0  0  0  0  0  0  0  0
   57.1180   24.3450   47.1030 C   0  0  0  0  0  0  0  0  0  0  0  0
   57.1310   23.1790   47.5860 O   0  0  0  0  0  0  0  0  0  0  0  0
   56.0473   21.7055   45.8455 H   0  0  0  0  0  0  0  0  0  0  0  0
   55.5700   20.3250   44.8000 H   0  0  0  0  0  0  0  0  0  0  0  0
   57.2698   20.9060   44.8000 H   0  0  0  0  0  0  0  0  0  0  0  0
   57.6885   21.7527   42.8567 H   0  0  0  0  0  0  0  0  0  0  0  0
   56.2132   21.1390   42.0359 H   0  0  0  0  0  0  0  0  0  0  0  0
   56.5748   22.8985   42.0359 H   0  0  0  0  0  0  0  0  0  0  0  0
   56.1696   24.1374   43.7977 H   0  0  0  0  0  0  0  0  0  0  0  0
   54.4388   23.4849   43.7508 H   0  0  0  0  0  0  0  0  0  0  0  0
   54.2511   24.0274   45.8263 H   0  0  0  0  0  0  0  0  0  0  0  0
   55.4557   22.7175   46.1842 H   0  0  0  0  0  0  0  0  0  0  0  0
   55.4701   26.1647   44.8344 H   0  0  0  0  0  0  0  0  0  0  0  0
   59.0850   28.6540   45.5140 H   0  0  0  0  0  0  0  0  0  0  0  0
   57.2966   29.4884   42.7878 H   0  0  0  0  0  0  0  0  0  0  0  0
   57.0310   31.7198   41.7216 H   0  0  0  0  0  0  0  0  0  0  0  0
   57.5834   33.7683   43.0196 H   0  0  0  0  0  0  0  0  0  0  0  0
   59.3821   34.3922   45.1495 H   0  0  0  0  0  0  0  0  0  0  0  0
   57.6689   34.6309   45.5431 H   0  0  0  0  0  0  0  0  0  0  0  0
   57.1960   32.4190   49.6510 H   0  0  0  0  0  0  0  0  0  0  0  0
   61.0153   33.2982   45.5551 H   0  0  0  0  0  0  0  0  0  0  0  0
   61.1215   34.8954   46.3648 H   0  0  0  0  0  0  0  0  0  0  0  0
   62.6318   32.3285   47.0269 H   0  0  0  0  0  0  0  0  0  0  0  0
   63.2976   33.9354   46.5494 H   0  0  0  0  0  0  0  0  0  0  0  0
   63.6176   33.7335   48.9377 H   0  0  0  0  0  0  0  0  0  0  0  0
   62.2708   34.8735   48.7082 H   0  0  0  0  0  0  0  0  0  0  0  0
   62.0622   31.8721   49.2654 H   0  0  0  0  0  0  0  0  0  0  0  0
   61.6602   33.1920   50.4021 H   0  0  0  0  0  0  0  0  0  0  0  0
   58.6679   31.3560   46.4295 H   0  0  0  0  0  0  0  0  0  0  0  0
   58.7168   27.2918   47.4059 H   0  0  0  0  0  0  0  0  0  0  0  0
   58.7457   24.9845   48.3621 H   0  0  0  0  0  0  0  0  0  0  0  0
  1  2  1  0
  2  3  1  0
  2  4  1  0
  4  5  1  0
  5  6  1  0
  6  7  1  0
  7  8  2  0
  8  9  1  0
  9 10  2  0
  9 11  1  0
 11 12  1  0
 12 13  2  0
 13 14  1  0
 14 15  2  0
 15 16  1  0
 16 17  1  0
 17 18  1  0
 18 19  2  0
 19 20  1  0
 20 21  1  0
 21 22  2  0
 21 23  1  0
 23 24  2  0
 24 25  1  0
 25 26  1  0
 26 27  1  0
 27 28  1  0
 16 29  2  0
  8 30  1  0
 30 31  2  0
 31 32  1  0
 32 33  2  0
 32  6  1  0
 29 12  1  0
 24 18  1  0
 28 23  1  0
  1 34  1  0
  1 35  1  0
  1 36  1  0
  3 37  1  0
  3 38  1  0
  3 39  1  0
  4 40  1  0
  4 41  1  0
  5 42  1  0
  5 43  1  0
  7 44  1  0
 11 45  1  0
 13 46  1  0
 14 47  1  0
 15 48  1  0
 17 49  1  0
 17 50  1  0
 20 51  1  0
 25 52  1  0
 25 53  1  0
 26 54  1  0
 26 55  1  0
 27 56  1  0
 27 57  1  0
 28 58  1  0
 28 59  1  0
 29 60  1  0
 30 61  1  0
 31 62  1  0
M  END
>  <smiles>  (24) 
CN(C)CCn1cc(C(=O)Nc2cccc(Cc3n[nH]c(=O)c4c3CCCC4)c2)ccc1=O

>  <score_type>  (24) 
oracle

>  <origin>  (24) 
adg

>  <m_score__min__energy>  (24) 
-9.6899999999999995

>  <m_primary>  (24) 
energy

$$$$
24:0
     RDKit          3D

 58 61  0  0  0  0  0  0  0  0999 V2000
   56.8500   30.8740   44.2640 C   0  0  0  0  0  0  0  0  0  0  0  0
   57.9820   32.0040   43.3920 S   0  0  0  0  0  0  0  0  0  0  0  0
   57.6680   33.4660   44.4460 C   0  0  0  0  0  0  0  0  0  0  0  0
   58.9520   34.1840   44.9020 C   0  0  0  0  0  0  0  0  0  0  0  0
   59.6850   33.5690   46.1200 C   0  0  2  0  0  0  0  0  0  0  0  0
   59.3110   32.1630   46.3390 N   0  0  0  0  0  0  0  0  0  0  0  0
   60.2810   31.1640   46.7020 C   0  0  0  0  0  0  0  0  0  0  0  0
   61.4900   31.4960   46.8570 O   0  0  0  0  0  0  0  0  0  0  0  0
   59.8880   29.7520   46.9490 C   0  0  0  0  0  0  0  0  0  0  0  0
   59.3220   29.0070   45.8960 C   0  0  0  0  0  0  0  0  0  0  0  0
   58.9270   27.6740   46.0850 C   0  0  0  0  0  0  0  0  0  0  0  0
   58.3390   26.8910   44.9400 C   0  0  0  0  0  0  0  0  0  0  0  0
   56.9980   26.3440   45.3170 C   0  0  0  0  0  0  0  0  0  0  0  0
   55.9820   27.0930   45.8120 N   0  0  0  0  0  0  0  0  0  0  0  0
   54.9180   26.3150   45.9940 N   0  0  0  0  0  0  0  0  0  0  0  0
   55.2590   25.0720   45.6070 C   0  0  0  0  0  0  0  0  0  0  0  0
   54.4650   23.9300   45.6130 C   0  0  0  0  0  0  0  0  0  0  0  0
   55.0400   22.7320   45.1470 C   0  0  0  0  0  0  0  0  0  0  0  0
   56.3790   22.7090   44.6900 C   0  0  0  0  0  0  0  0  0  0  0  0
   57.1550   23.8840   44.6980 C   0  0  0  0  0  0  0  0  0  0  0  0
   56.5520   25.0490   45.1690 C   0  0  0  0  0  0  0  0  0  0  0  0
   59.1120   27.0720   47.3370 C   0  0  0  0  0  0  0  0  0  0  0  0
   59.6560   27.8040   48.3930 C   0  0  0  0  0  0  0  0  0  0  0  0
   60.0360   29.1370   48.2110 C   0  0  0  0  0  0  0  0  0  0  0  0
   60.5010   29.8250   49.2840 F   0  0  0  0  0  0  0  0  0  0  0  0
   59.4930   34.3930   47.3710 C   0  0  0  0  0  0  0  0  0  0  0  0
   58.9290   35.5210   47.3180 O   0  0  0  0  0  0  0  0  0  0  0  0
   59.9910   33.9180   48.6230 N   0  0  0  0  0  0  0  0  0  0  0  0
   59.2440   33.0210   49.4810 C   0  0  0  0  0  0  0  0  0  0  0  0
   60.2340   32.5740   50.5510 C   0  0  0  0  0  0  0  0  0  0  0  0
   61.4010   33.5610   50.4820 C   0  0  0  0  0  0  0  0  0  0  0  0
   61.3310   34.1970   49.0990 C   0  0  0  0  0  0  0  0  0  0  0  0
   56.9735   30.9973   45.3501 H   0  0  0  0  0  0  0  0  0  0  0  0
   55.8120   31.1068   43.9842 H   0  0  0  0  0  0  0  0  0  0  0  0
   57.0810   29.8356   43.9842 H   0  0  0  0  0  0  0  0  0  0  0  0
   57.0538   34.1795   43.8771 H   0  0  0  0  0  0  0  0  0  0  0  0
   57.1596   33.1069   45.3529 H   0  0  0  0  0  0  0  0  0  0  0  0
   59.6536   34.1869   44.0548 H   0  0  0  0  0  0  0  0  0  0  0  0
   58.6297   35.1841   45.2273 H   0  0  0  0  0  0  0  0  0  0  0  0
   60.7584   33.5853   45.8803 H   0  0  0  0  0  0  0  0  0  0  0  0
   58.2990   31.9130   46.3890 H   0  0  0  0  0  0  0  0  0  0  0  0
   59.1877   29.4773   44.9107 H   0  0  0  0  0  0  0  0  0  0  0  0
   58.2288   27.5519   44.0676 H   0  0  0  0  0  0  0  0  0  0  0  0
   59.0106   26.0543   44.6975 H   0  0  0  0  0  0  0  0  0  0  0  0
   53.4247   23.9615   45.9692 H   0  0  0  0  0  0  0  0  0  0  0  0
   54.4440   21.8075   45.1382 H   0  0  0  0  0  0  0  0  0  0  0  0
   56.8164   21.7675   44.3263 H   0  0  0  0  0  0  0  0  0  0  0  0
   58.1972   23.8825   44.3460 H   0  0  0  0  0  0  0  0  0  0  0  0
   58.8277   26.0201   47.4875 H   0  0  0  0  0  0  0  0  0  0  0  0
   59.7869   27.3286   49.3763 H   0  0  0  0  0  0  0  0  0  0  0  0
   58.3921   33.5452   49.9386 H   0  0  0  0  0  0  0  0  0  0  0  0
   58.8293   32.1686   48.9229 H   0  0  0  0  0  0  0  0  0  0  0  0
   59.7637   32.6066   51.5448 H   0  0  0  0  0  0  0  0  0  0  0  0
   60.5696   31.5399   50.3836 H   0  0  0  0  0  0  0  0  0  0  0  0
   61.2982   34.3298   51.2620 H   0  0  0  0  0  0  0  0  0  0  0  0
   62.3652   33.0575   50.6459 H   0  0  0  0  0  0  0  0  0  0  0  0
   61.4998   35.2820   49.1639 H   0  0  0  0  0  0  0  0  0  0  0  0
   62.1005   33.7975   48.4221 H   0  0  0  0  0  0  0  0  0  0  0  0
  1  2  1  0
  2  3  1  0
  3  4  1  0
  4  5  1  0
  5  6  1  0
  6  7  1  0
  7  8  2  0
  7  9  1  0
  9 10  2  0
 10 11  1  0
 11 12  1  0
 12 13  1  0
 13 14  1  0
 14 15  1  0
 15 16  2  0
 16 17  1  0
 17 18  2  0
 18 19  1  0
 19 20  2  0
 20 21  1  0
 11 22  2  0
 22 23  1  0
 23 24  2  0
 24 25  1  0
  5 26  1  0
 26 27  2  0
 26 28  1  0
 28 29  1  0
 29 30  1  0
 30 31  1  0
 31 32  1  0
 24  9  1  0
 32 28  1  0
 21 13  2  0
 21 16  1  0
  1 33  1  0
  1 34  1  0
  1 35  1  0
  3 36  1  0
  3 37  1  0
  4 38  1  0
  4 39  1  0
  5 40  1  6
  6 41  1  0
 10 42  1  0
 12 43  1  0
 12 44  1  0
 17 45  1  0
 18 46  1  0
 19 47  1  0
 20 48  1  0
 22 49  1  0
 23 50  1  0
 29 51  1  0
 29 52  1  0
 30 53  1  0
 30 54  1  0
 31 55  1  0
 31 56  1  0
 32 57  1  0
 32 58  1  0
M  CHG  1  14  -1
M  END
>  <UniqueID>  (25) 
23

>  <SMILES>  (25) 
CSCC[C@H](NC(=O)c1cc(Cc2[n-]nc3ccccc23)ccc1F)C(=O)N1CCCC1

>  <Energy>  (25) 
101.25662834476043

>  <Genealogy>  (25) 
CSCCC(NC(=O)c1cc(Cc2[n-]nc3ccccc23)ccc1F)C(=O)N1CCCC1 (protonated)
CSCC[C@H](NC(=O)c1cc(Cc2[n-]nc3ccccc23)ccc1F)C(=O)N1CCCC1 (chirality)
CSCC[C@H](NC(=O)c1cc(Cc2[n-]nc3ccccc23)ccc1F)C(=O)N1CCCC1 (3D coordinates assigned)
CSCC[C@H](NC(=O)c1cc(Cc2[n-]nc3ccccc23)ccc1F)C(=O)N1CCCC1 (nonaromatic ring conformer: 101.25662834476043 kcal/mol)

>  <smiles>  (25) 
CSCCC(NC(=O)c1cc(Cc2[nH]nc3ccccc23)ccc1F)C(=O)N1CCCC1

>  <score_type>  (25) 
oracle

>  <origin>  (25) 
adg

>  <m_score__min__energy>  (25) 
-11.84

>  <m_primary>  (25) 
energy

$$$$
25:0
     RDKit          3D

 63 66  0  0  0  0  0  0  0  0999 V2000
   56.0260   24.8420   47.4570 O   0  0  0  0  0  0  0  0  0  0  0  0
   55.8610   24.7300   46.2120 C   0  0  0  0  0  0  0  0  0  0  0  0
   56.6040   25.6330   45.2990 C   0  0  0  0  0  0  0  0  0  0  0  0
   57.1120   25.1430   44.0840 C   0  0  0  0  0  0  0  0  0  0  0  0
   57.8020   25.9900   43.2120 C   0  0  0  0  0  0  0  0  0  0  0  0
   58.0000   27.3310   43.5470 C   0  0  0  0  0  0  0  0  0  0  0  0
   57.5130   27.8330   44.7590 C   0  0  0  0  0  0  0  0  0  0  0  0
   57.7170   29.2180   45.0820 N   0  0  0  0  0  0  0  0  0  0  0  0
   58.2130   29.6920   46.3450 C   0  0  0  0  0  0  0  0  0  0  0  0
   58.6480   28.6450   47.5400 S   0  0  0  0  0  0  0  0  0  0  0  0
   58.3050   31.1090   46.5630 N   0  0  0  0  0  0  0  0  0  0  0  0
   59.3320   31.7440   47.3420 C   0  0  0  0  0  0  0  0  0  0  0  0
   60.6360   31.8950   46.8410 C   0  0  0  0  0  0  0  0  0  0  0  0
   61.6140   32.5310   47.6040 C   0  0  0  0  0  0  0  0  0  0  0  0
   61.2960   33.0500   48.8590 C   0  0  0  0  0  0  0  0  0  0  0  0
   59.9830   32.9660   49.3540 C   0  0  0  0  0  0  0  0  0  0  0  0
   59.6330   33.5540   50.7100 C   0  0  0  0  0  0  0  0  0  0  0  0
   58.3720   33.0390   51.2950 N   0  0  0  0  0  0  0  0  0  0  0  0
   57.8820   33.8590   52.4190 C   0  0  0  0  0  0  0  0  0  0  0  0
   58.9120   34.0420   53.5540 C   0  0  0  0  0  0  0  0  0  0  0  0
   59.7440   32.8440   53.7740 N   0  0  0  0  0  0  0  0  0  0  0  0
   58.9810   31.7390   54.3830 C   0  0  0  0  0  0  0  0  0  0  0  0
   57.9560   31.1640   53.4090 C   0  0  0  0  0  0  0  0  0  0  0  0
   58.4480   31.3390   51.7050 S   0  0  0  0  0  0  0  0  0  0  0  0
   57.4830   30.5370   50.8790 O   0  0  0  0  0  0  0  0  0  0  0  0
   59.8390   30.8000   51.5090 O   0  0  0  0  0  0  0  0  0  0  0  0
   59.0130   32.2840   48.5970 C   0  0  0  0  0  0  0  0  0  0  0  0
   56.7850   26.9920   45.6140 C   0  0  0  0  0  0  0  0  0  0  0  0
   54.9450   23.7360   45.7130 N   0  0  0  0  0  0  0  0  0  0  0  0
   53.9870   24.0390   44.6440 C   0  0  0  0  0  0  0  0  0  0  0  0
   52.5740   23.6670   45.1130 C   0  0  0  0  0  0  0  0  0  0  0  0
   52.5280   22.3310   45.5860 O   0  0  0  0  0  0  0  0  0  0  0  0
   53.3530   22.1930   46.7290 C   0  0  0  0  0  0  0  0  0  0  0  0
   54.8230   22.4310   46.3670 C   0  0  0  0  0  0  0  0  0  0  0  0
   56.9657   24.0859   43.8173 H   0  0  0  0  0  0  0  0  0  0  0  0
   58.1899   25.5992   42.2597 H   0  0  0  0  0  0  0  0  0  0  0  0
   58.5404   27.9948   42.8561 H   0  0  0  0  0  0  0  0  0  0  0  0
   57.6580   29.9100   44.3030 H   0  0  0  0  0  0  0  0  0  0  0  0
   57.6010   31.7190   46.0910 H   0  0  0  0  0  0  0  0  0  0  0  0
   60.8864   31.5094   45.8417 H   0  0  0  0  0  0  0  0  0  0  0  0
   62.6389   32.6238   47.2155 H   0  0  0  0  0  0  0  0  0  0  0  0
   62.0786   33.5287   49.4660 H   0  0  0  0  0  0  0  0  0  0  0  0
   60.4535   33.3253   51.4061 H   0  0  0  0  0  0  0  0  0  0  0  0
   59.4890   34.6336   50.5558 H   0  0  0  0  0  0  0  0  0  0  0  0
   57.6131   34.8528   52.0315 H   0  0  0  0  0  0  0  0  0  0  0  0
   57.0212   33.3276   52.8510 H   0  0  0  0  0  0  0  0  0  0  0  0
   59.5710   34.8845   53.2972 H   0  0  0  0  0  0  0  0  0  0  0  0
   58.3508   34.2285   54.4815 H   0  0  0  0  0  0  0  0  0  0  0  0
   60.0570   32.5090   52.8310 H   0  0  0  0  0  0  0  0  0  0  0  0
   59.6796   30.9423   54.6784 H   0  0  0  0  0  0  0  0  0  0  0  0
   58.4430   32.1321   55.2582 H   0  0  0  0  0  0  0  0  0  0  0  0
   57.8242   30.0942   53.6286 H   0  0  0  0  0  0  0  0  0  0  0  0
   57.0203   31.7266   53.5428 H   0  0  0  0  0  0  0  0  0  0  0  0
   57.9930   32.1729   48.9935 H   0  0  0  0  0  0  0  0  0  0  0  0
   56.3516   27.3991   46.5394 H   0  0  0  0  0  0  0  0  0  0  0  0
   54.0258   25.1128   44.4086 H   0  0  0  0  0  0  0  0  0  0  0  0
   54.2421   23.4604   43.7439 H   0  0  0  0  0  0  0  0  0  0  0  0
   52.2746   24.3460   45.9250 H   0  0  0  0  0  0  0  0  0  0  0  0
   51.8870   23.7589   44.2588 H   0  0  0  0  0  0  0  0  0  0  0  0
   53.0445   22.9270   47.4879 H   0  0  0  0  0  0  0  0  0  0  0  0
   53.2461   21.1710   47.1214 H   0  0  0  0  0  0  0  0  0  0  0  0
   55.4353   22.4172   47.2807 H   0  0  0  0  0  0  0  0  0  0  0  0
   55.1726   21.6395   45.6878 H   0  0  0  0  0  0  0  0  0  0  0  0
  1  2  2  0
  2  3  1  0
  3  4  2  0
  4  5  1  0
  5  6  2  0
  6  7  1  0
  7  8  1  0
  8  9  1  0
  9 10  2  0
  9 11  1  0
 11 12  1  0
 12 13  2  0
 13 14  1  0
 14 15  2  0
 15 16  1  0
 16 17  1  0
 17 18  1  0
 18 19  1  0
 19 20  1  0
 20 21  1  0
 21 22  1  0
 22 23  1  0
 23 24  1  0
 24 25  2  0
 24 26  2  0
 16 27  2  0
  7 28  2  0
  2 29  1  0
 29 30  1  0
 30 31  1  0
 31 32  1  0
 32 33  1  0
 33 34  1  0
 28  3  1  0
 34 29  1  0
 27 12  1  0
 24 18  1  0
  4 35  1  0
  5 36  1  0
  6 37  1  0
  8 38  1  0
 11 39  1  0
 13 40  1  0
 14 41  1  0
 15 42  1  0
 17 43  1  0
 17 44  1  0
 19 45  1  0
 19 46  1  0
 20 47  1  0
 20 48  1  0
 21 49  1  0
 22 50  1  0
 22 51  1  0
 23 52  1  0
 23 53  1  0
 27 54  1  0
 28 55  1  0
 30 56  1  0
 30 57  1  0
 31 58  1  0
 31 59  1  0
 33 60  1  0
 33 61  1  0
 34 62  1  0
 34 63  1  0
M  END
>  <UniqueID>  (26) 
24

>  <SMILES>  (26) 
O=C(c1cccc(NC(=S)Nc2cccc(CN3CCNCCS3(=O)=O)c2)c1)N1CCOCC1

>  <Energy>  (26) 
89.46246299893173

>  <Genealogy>  (26) 
O=C(c1cccc(NC(=S)Nc2cccc(CN3CCNCCS3(=O)=O)c2)c1)N1CCOCC1 (3D coordinates assigned)
O=C(c1cccc(NC(=S)Nc2cccc(CN3CCNCCS3(=O)=O)c2)c1)N1CCOCC1 (nonaromatic ring conformer: 89.46246299893173 kcal/mol)

>  <smiles>  (26) 
O=C(c1cccc(NC(=S)Nc2cccc(CN3CCNCCS3(=O)=O)c2)c1)N1CCOCC1

>  <score_type>  (26) 
oracle

>  <origin>  (26) 
adg

>  <m_score__min__energy>  (26) 
-8.4399999999999995

>  <m_primary>  (26) 
energy

$$$$
26:0
     RDKit          3D

 46 49  0  0  0  0  0  0  0  0999 V2000
   56.6360   31.4895   41.9094 H   0  0  0  0  0  0  0  0  0  0  0  0
   56.9300   30.9970   42.8480 C   0  0  0  0  0  0  0  0  0  0  0  0
   58.1640   31.2860   43.4310 C   0  0  0  0  0  0  0  0  0  0  0  0
   58.8411   32.0089   42.9525 H   0  0  0  0  0  0  0  0  0  0  0  0
   58.5420   30.6590   44.6220 C   0  0  0  0  0  0  0  0  0  0  0  0
   59.5173   30.8914   45.0746 H   0  0  0  0  0  0  0  0  0  0  0  0
   57.6850   29.7320   45.2480 C   0  0  0  0  0  0  0  0  0  0  0  0
   58.1020   29.0820   46.5220 C   0  0  0  0  0  0  0  0  0  0  0  0
   58.0420   27.8300   46.6500 O   0  0  0  0  0  0  0  0  0  0  0  0
   58.6810   29.8500   47.5790 N   0  0  0  0  0  0  0  0  0  0  0  0
   59.7120   30.6500   47.5450 C   0  0  0  0  0  0  0  0  0  0  0  0
   60.9460   30.1530   47.2790 N   0  0  0  0  0  0  0  0  0  0  0  0
   61.7360   31.2350   47.3340 C   0  0  0  0  0  0  0  0  0  0  0  0
   63.1180   31.2810   47.1630 C   0  0  0  0  0  0  0  0  0  0  0  0
   63.6909   30.3745   46.9181 H   0  0  0  0  0  0  0  0  0  0  0  0
   63.7560   32.5250   47.3140 C   0  0  0  0  0  0  0  0  0  0  0  0
   64.8451   32.6008   47.1796 H   0  0  0  0  0  0  0  0  0  0  0  0
   63.0070   33.6770   47.6370 C   0  0  0  0  0  0  0  0  0  0  0  0
   63.5164   34.6446   47.7565 H   0  0  0  0  0  0  0  0  0  0  0  0
   61.6130   33.5950   47.8070 C   0  0  0  0  0  0  0  0  0  0  0  0
   61.0197   34.4841   48.0668 H   0  0  0  0  0  0  0  0  0  0  0  0
   61.0050   32.3460   47.6350 C   0  0  0  0  0  0  0  0  0  0  0  0
   59.7050   32.0070   47.7740 N   0  0  0  0  0  0  0  0  0  0  0  0
   58.6580   32.9080   48.2810 C   0  0  0  0  0  0  0  0  0  0  0  0
   58.2602   32.4979   49.2210 H   0  0  0  0  0  0  0  0  0  0  0  0
   59.1082   33.8989   48.4405 H   0  0  0  0  0  0  0  0  0  0  0  0
   57.5060   33.0640   47.2810 C   0  0  0  0  0  0  0  0  0  0  0  0
   57.5581   32.2524   46.5403 H   0  0  0  0  0  0  0  0  0  0  0  0
   56.5531   33.0194   47.8287 H   0  0  0  0  0  0  0  0  0  0  0  0
   57.5940   34.3690   46.5810 N   0  0  0  0  0  0  0  0  0  0  0  0
   58.9250   34.9800   46.7340 C   0  0  0  0  0  0  0  0  0  0  0  0
   58.8307   36.0753   46.7716 H   0  0  0  0  0  0  0  0  0  0  0  0
   59.3973   34.6375   47.6665 H   0  0  0  0  0  0  0  0  0  0  0  0
   59.7710   34.5750   45.5330 C   0  0  0  0  0  0  0  0  0  0  0  0
   60.2778   35.4532   45.1064 H   0  0  0  0  0  0  0  0  0  0  0  0
   60.5550   33.8553   45.8111 H   0  0  0  0  0  0  0  0  0  0  0  0
   58.7980   33.9860   44.5300 C   0  0  0  0  0  0  0  0  0  0  0  0
   58.8923   34.4907   43.5572 H   0  0  0  0  0  0  0  0  0  0  0  0
   58.9862   32.9174   44.3492 H   0  0  0  0  0  0  0  0  0  0  0  0
   57.4230   34.2310   45.1280 C   0  0  0  0  0  0  0  0  0  0  0  0
   56.9904   35.1525   44.7111 H   0  0  0  0  0  0  0  0  0  0  0  0
   56.7437   33.3980   44.8942 H   0  0  0  0  0  0  0  0  0  0  0  0
   56.4350   29.4510   44.6490 C   0  0  0  0  0  0  0  0  0  0  0  0
   55.5410   28.5580   45.2340 O   0  0  0  0  0  0  0  0  0  0  0  0
   56.0690   30.0830   43.4560 C   0  0  0  0  0  0  0  0  0  0  0  0
   55.0963   29.8579   42.9943 H   0  0  0  0  0  0  0  0  0  0  0  0
  1  2  1  0
  2  3  2  0
  3  4  1  0
  3  5  1  0
  5  6  1  0
  5  7  2  0
  7  8  1  0
  8  9  2  0
  8 10  1  0
 10 11  2  0
 11 12  1  0
 12 13  1  0
 13 14  2  0
 14 15  1  0
 14 16  1  0
 16 17  1  0
 16 18  2  0
 18 19  1  0
 18 20  1  0
 20 21  1  0
 20 22  2  0
 22 23  1  0
 23 24  1  0
 24 25  1  0
 24 26  1  0
 24 27  1  0
 27 28  1  0
 27 29  1  0
 27 30  1  0
 30 31  1  0
 31 32  1  0
 31 33  1  0
 31 34  1  0
 34 35  1  0
 34 36  1  0
 34 37  1  0
 37 38  1  0
 37 39  1  0
 37 40  1  0
 40 41  1  0
 40 42  1  0
  7 43  1  0
 43 44  1  0
 43 45  2  0
 45 46  1  0
 45  2  1  0
 23 11  1  0
 40 30  1  0
 22 13  1  0
M  CHG  2  12  -1  44  -1
M  END
>  <UniqueID>  (27) 
25

>  <SMILES>  (27) 
O=C(/N=c1/[n-]c2ccccc2n1CCN1CCCC1)c1ccccc1[O-]

>  <Energy>  (27) 
106.18477669057657

>  <Genealogy>  (27) 
O=C(N=c1[n-]c2ccccc2n1CCN1CCCC1)c1ccccc1[O-] (protonated)
O=C(/N=c1/[n-]c2ccccc2n1CCN1CCCC1)c1ccccc1[O-] (cis-trans isomerization)
O=C(/N=c1/[n-]c2ccccc2n1CCN1CCCC1)c1ccccc1[O-] (3D coordinates assigned)
O=C(/N=c1/[n-]c2ccccc2n1CCN1CCCC1)c1ccccc1[O-] (nonaromatic ring conformer: 106.18477669057657 kcal/mol)

>  <smiles>  (27) 
O=C(N=c1[nH]c2ccccc2n1CCN1CCCC1)c1ccccc1O

>  <score_type>  (27) 
oracle

>  <origin>  (27) 
adg

>  <m_score__min__energy>  (27) 
-14.130000000000001

>  <m_primary>  (27) 
energy

$$$$
27:0
     RDKit          3D

 24 25  0  0  0  0  0  0  0  0999 V2000
   54.8700   29.3850   43.4030 O   0  0  0  0  0  0  0  0  0  0  0  0
   55.8520   29.7380   44.1090 C   0  0  0  0  0  0  0  0  0  0  0  0
   56.2680   31.0700   44.1080 C   0  0  0  0  0  0  0  0  0  0  0  0
   57.3590   31.4290   44.9010 C   0  0  0  0  0  0  0  0  0  0  0  0
   57.9150   33.0920   44.9460 S   0  0  0  0  0  0  0  0  0  0  0  0
   58.7280   33.3890   43.7180 O   0  0  0  0  0  0  0  0  0  0  0  0
   56.7310   34.0180   44.9680 O   0  0  0  0  0  0  0  0  0  0  0  0
   58.9090   33.3350   46.3790 C   0  0  0  0  0  0  0  0  0  0  0  0
   60.1400   33.9980   46.2820 C   0  0  0  0  0  0  0  0  0  0  0  0
   60.9170   34.2050   47.4280 C   0  0  0  0  0  0  0  0  0  0  0  0
   60.4650   33.7550   48.6710 C   0  0  0  0  0  0  0  0  0  0  0  0
   59.2350   33.0990   48.7720 C   0  0  0  0  0  0  0  0  0  0  0  0
   58.4560   32.8910   47.6300 C   0  0  0  0  0  0  0  0  0  0  0  0
   57.9840   30.4850   45.6530 N   0  0  0  0  0  0  0  0  0  0  0  0
   57.5690   29.1930   45.6450 C   0  0  0  0  0  0  0  0  0  0  0  0
   58.3510   28.0890   46.5640 S   0  0  0  0  0  0  0  0  0  0  0  0
   56.5070   28.8220   44.8750 N   0  0  0  0  0  0  0  0  0  0  0  0
   55.7473   31.8208   43.4955 H   0  0  0  0  0  0  0  0  0  0  0  0
   60.4959   34.3560   45.3047 H   0  0  0  0  0  0  0  0  0  0  0  0
   61.8845   34.7225   47.3497 H   0  0  0  0  0  0  0  0  0  0  0  0
   61.0773   33.9170   49.5704 H   0  0  0  0  0  0  0  0  0  0  0  0
   58.8795   32.7459   49.7513 H   0  0  0  0  0  0  0  0  0  0  0  0
   57.4863   32.3783   47.7126 H   0  0  0  0  0  0  0  0  0  0  0  0
   56.1870   27.8260   44.8690 H   0  0  0  0  0  0  0  0  0  0  0  0
  1  2  2  0
  2  3  1  0
  3  4  2  0
  4  5  1  0
  5  6  2  0
  5  7  2  0
  5  8  1  0
  8  9  2  0
  9 10  1  0
 10 11  2  0
 11 12  1  0
 12 13  2  0
  4 14  1  0
 14 15  1  0
 15 16  2  0
 15 17  1  0
 17  2  1  0
 13  8  1  0
  3 18  1  0
  9 19  1  0
 10 20  1  0
 11 21  1  0
 12 22  1  0
 13 23  1  0
 17 24  1  0
M  CHG  1  14  -1
M  END
>  <UniqueID>  (28) 
26

>  <SMILES>  (28) 
O=c1cc(S(=O)(=O)c2ccccc2)[n-]c(=S)[nH]1

>  <Energy>  (28) 
27.39481624062474

>  <Genealogy>  (28) 
O=c1cc(S(=O)(=O)c2ccccc2)[n-]c(=S)[nH]1 (protonated)
O=c1cc(S(=O)(=O)c2ccccc2)[n-]c(=S)[nH]1 (3D coordinates assigned)
O=c1cc(S(=O)(=O)c2ccccc2)[n-]c(=S)[nH]1 (optimized conformer: 27.39481624062474 kcal/mol)

>  <smiles>  (28) 
O=c1cc(S(=O)(=O)c2ccccc2)[nH]c(=S)[nH]1

>  <score_type>  (28) 
oracle

>  <origin>  (28) 
adg

>  <m_score__min__energy>  (28) 
-8.25

>  <m_primary>  (28) 
energy

$$$$
28:0
     RDKit          3D

 28 28  0  0  0  0  0  0  0  0999 V2000
   59.3908   29.7002   44.5070 H   0  0  0  0  0  0  0  0  0  0  0  0
   58.5390   30.0460   45.1110 C   0  0  0  0  0  0  0  0  0  0  0  0
   57.4640   29.2350   45.1970 C   0  0  0  0  0  0  0  0  0  0  0  0
   56.2520   29.4120   44.3530 C   0  0  0  0  0  0  0  0  0  0  0  0
   55.1070   29.3420   44.8720 O   0  0  0  0  0  0  0  0  0  0  0  0
   56.3520   29.6070   42.9810 O   0  0  0  0  0  0  0  0  0  0  0  0
   57.5430   28.0350   46.1180 C   0  0  0  0  0  0  0  0  0  0  0  0
   58.5885   27.8935   46.4292 H   0  0  0  0  0  0  0  0  0  0  0  0
   56.8943   28.2269   46.9854 H   0  0  0  0  0  0  0  0  0  0  0  0
   57.0520   26.7540   45.4300 C   0  0  0  0  0  0  0  0  0  0  0  0
   56.6610   27.0112   44.4345 H   0  0  0  0  0  0  0  0  0  0  0  0
   57.9012   26.0591   45.3520 H   0  0  0  0  0  0  0  0  0  0  0  0
   55.9700   26.0830   46.2180 C   0  0  0  0  0  0  0  0  0  0  0  0
   56.2630   25.2530   47.1190 O   0  0  0  0  0  0  0  0  0  0  0  0
   54.6370   26.3430   45.9290 O   0  0  0  0  0  0  0  0  0  0  0  0
   58.6570   31.3680   45.7700 C   0  0  0  0  0  0  0  0  0  0  0  0
   59.7440   31.6560   46.6170 C   0  0  0  0  0  0  0  0  0  0  0  0
   60.8450   30.6640   46.8500 C   0  0  0  0  0  0  0  0  0  0  0  0
   60.9944   30.5294   47.9315 H   0  0  0  0  0  0  0  0  0  0  0  0
   60.5727   29.7004   46.3947 H   0  0  0  0  0  0  0  0  0  0  0  0
   61.7751   31.0349   46.3947 H   0  0  0  0  0  0  0  0  0  0  0  0
   59.8090   32.8660   47.2340 N   0  0  0  0  0  0  0  0  0  0  0  0
   58.8440   33.8030   47.0590 C   0  0  0  0  0  0  0  0  0  0  0  0
   58.9390   34.9140   47.6450 O   0  0  0  0  0  0  0  0  0  0  0  0
   57.7770   33.5430   46.2580 N   0  0  0  0  0  0  0  0  0  0  0  0
   57.0330   34.2680   46.1370 H   0  0  0  0  0  0  0  0  0  0  0  0
   57.6570   32.3470   45.6200 C   0  0  0  0  0  0  0  0  0  0  0  0
   56.6440   32.1220   44.9050 O   0  0  0  0  0  0  0  0  0  0  0  0
  1  2  1  0
  2  3  2  0
  3  4  1  0
  4  5  2  0
  4  6  1  0
  3  7  1  0
  7  8  1  0
  7  9  1  0
  7 10  1  0
 10 11  1  0
 10 12  1  0
 10 13  1  0
 13 14  2  0
 13 15  1  0
  2 16  1  0
 16 17  2  0
 17 18  1  0
 18 19  1  0
 18 20  1  0
 18 21  1  0
 17 22  1  0
 22 23  1  0
 23 24  2  0
 23 25  1  0
 25 26  1  0
 25 27  1  0
 27 28  2  0
 27 16  1  0
M  CHG  3   6  -1  15  -1  22  -1
M  END
>  <UniqueID>  (29) 
27

>  <SMILES>  (29) 
Cc1[n-]c(=O)[nH]c(=O)c1/C=C(/CCC(=O)[O-])C(=O)[O-]

>  <Energy>  (29) 
33.750058844833646

>  <Genealogy>  (29) 
Cc1[n-]c(=O)[nH]c(=O)c1C=C(CCC(=O)[O-])C(=O)[O-] (protonated)
Cc1[n-]c(=O)[nH]c(=O)c1/C=C(/CCC(=O)[O-])C(=O)[O-] (cis-trans isomerization)
Cc1[n-]c(=O)[nH]c(=O)c1/C=C(/CCC(=O)[O-])C(=O)[O-] (3D coordinates assigned)
Cc1[n-]c(=O)[nH]c(=O)c1/C=C(/CCC(=O)[O-])C(=O)[O-] (optimized conformer: 33.750058844833646 kcal/mol)

>  <smiles>  (29) 
Cc1[nH]c(=O)[nH]c(=O)c1C=C(CCC(=O)O)C(=O)O

>  <score_type>  (29) 
oracle

>  <origin>  (29) 
adg

>  <m_score__min__energy>  (29) 
-13.06

>  <m_primary>  (29) 
energy

$$$$
29:0
     RDKit          3D

 63 67  0  0  1  0  0  0  0  0999 V2000
   56.2870   20.2650   44.4400 C   0  0  0  0  0  0  0  0  0  0  0  0
   56.0980   21.7050   44.2810 N   0  0  0  0  0  0  0  0  0  0  0  0
   56.0890   22.6230   45.2950 C   0  0  0  0  0  0  0  0  0  0  0  0
   55.8800   23.8760   44.7340 C   0  0  0  0  0  0  0  0  0  0  0  0
   55.7920   25.1980   45.4170 C   0  0  0  0  0  0  0  0  0  0  0  0
   56.9880   25.9220   45.1070 N   0  0  0  0  0  0  0  0  0  0  0  0
   57.1690   27.1810   45.1370 C   0  0  0  0  0  0  0  0  0  0  0  0
   56.1220   28.0580   45.2410 N   0  0  0  0  0  0  0  0  0  0  0  0
   56.3630   29.3820   45.2640 N   0  0  0  0  0  0  0  0  0  0  0  0
   57.6130   29.8660   45.1870 C   0  0  0  0  0  0  0  0  0  0  0  0
   57.9460   31.2820   45.1910 C   0  0  0  0  0  0  0  0  0  0  0  0
   57.6260   32.0850   44.1140 C   0  0  0  0  0  0  0  0  0  0  0  0
   57.9330   33.4350   44.1060 C   0  0  0  0  0  0  0  0  0  0  0  0
   58.5820   33.9780   45.2200 C   0  0  0  0  0  0  0  0  0  0  0  0
   58.8940   33.1550   46.2890 C   0  0  0  0  0  0  0  0  0  0  0  0
   58.5850   31.8020   46.2960 C   0  0  0  0  0  0  0  0  0  0  0  0
   58.9590   31.0260   47.4600 C   0  0  0  0  0  0  0  0  0  0  0  0
   58.1640   30.1720   47.9750 O   0  0  0  0  0  0  0  0  0  0  0  0
   60.2170   31.1610   48.0970 N   0  0  0  0  0  0  0  0  0  0  0  0
   60.3780   31.8090   49.3940 C   0  0  0  0  0  0  0  0  0  0  0  0
   61.0010   33.1590   49.0900 C   0  0  0  0  0  0  0  0  0  0  0  0
   62.2420   32.9240   48.3820 N   0  0  0  0  0  0  0  0  0  0  0  0
   63.2630   33.9720   48.5240 C   0  0  0  0  0  0  0  0  0  0  0  0
   64.1610   33.5400   49.6180 C   0  0  0  0  0  0  0  0  0  0  0  0
   65.2340   32.7020   49.4600 C   0  0  0  0  0  0  0  0  0  0  0  0
   66.0220   32.3510   50.5450 C   0  0  0  0  0  0  0  0  0  0  0  0
   65.7360   32.8420   51.8110 C   0  0  0  0  0  0  0  0  0  0  0  0
   66.4980   32.5110   52.8910 F   0  0  0  0  0  0  0  0  0  0  0  0
   64.6620   33.6860   51.9860 C   0  0  0  0  0  0  0  0  0  0  0  0
   63.8740   34.0350   50.8950 C   0  0  0  0  0  0  0  0  0  0  0  0
   62.4810   31.7590   47.5860 C   0  0  0  0  0  0  0  0  0  0  0  0
   63.5520   31.6290   46.9510 O   0  0  0  0  0  0  0  0  0  0  0  0
   61.4640   30.6730   47.4900 C   0  0  0  0  0  0  0  0  0  0  0  0
   58.6510   28.9620   45.0830 C   0  0  0  0  0  0  0  0  0  0  0  0
   59.8540   29.3710   45.0080 O   0  0  0  0  0  0  0  0  0  0  0  0
   58.4290   27.6370   45.0590 N   0  0  0  0  0  0  0  0  0  0  0  0
   55.7690   23.6750   43.3850 C   0  0  0  0  0  0  0  0  0  0  0  0
   55.9040   22.3760   43.1630 N   0  0  0  0  0  0  0  0  0  0  0  0
   56.3197   20.0155   45.5108 H   0  0  0  0  0  0  0  0  0  0  0  0
   55.4513   19.7308   43.9644 H   0  0  0  0  0  0  0  0  0  0  0  0
   57.2323   19.9645   43.9644 H   0  0  0  0  0  0  0  0  0  0  0  0
   56.2235   22.4070   46.3652 H   0  0  0  0  0  0  0  0  0  0  0  0
   54.9132   25.7509   45.0536 H   0  0  0  0  0  0  0  0  0  0  0  0
   55.6889   25.0667   46.5043 H   0  0  0  0  0  0  0  0  0  0  0  0
   55.1480   27.6890   45.3020 H   0  0  0  0  0  0  0  0  0  0  0  0
   57.1169   31.6430   43.2448 H   0  0  0  0  0  0  0  0  0  0  0  0
   57.6726   34.0661   43.2435 H   0  0  0  0  0  0  0  0  0  0  0  0
   58.8415   35.0466   45.2464 H   0  0  0  0  0  0  0  0  0  0  0  0
   59.4040   33.5882   47.1621 H   0  0  0  0  0  0  0  0  0  0  0  0
   59.4021   31.9364   49.8853 H   0  0  0  0  0  0  0  0  0  0  0  0
   61.0015   31.2130   50.0767 H   0  0  0  0  0  0  0  0  0  0  0  0
   60.3194   33.7532   48.4636 H   0  0  0  0  0  0  0  0  0  0  0  0
   61.1887   33.7141   50.0209 H   0  0  0  0  0  0  0  0  0  0  0  0
   63.8298   34.0794   47.5874 H   0  0  0  0  0  0  0  0  0  0  0  0
   62.8039   34.9462   48.7482 H   0  0  0  0  0  0  0  0  0  0  0  0
   65.4721   32.3041   48.4625 H   0  0  0  0  0  0  0  0  0  0  0  0
   66.8804   31.6783   50.4014 H   0  0  0  0  0  0  0  0  0  0  0  0
   64.4285   34.0825   52.9851 H   0  0  0  0  0  0  0  0  0  0  0  0
   63.0154   34.7077   51.0372 H   0  0  0  0  0  0  0  0  0  0  0  0
   61.2899   30.4173   46.4344 H   0  0  0  0  0  0  0  0  0  0  0  0
   61.8167   29.7728   48.0146 H   0  0  0  0  0  0  0  0  0  0  0  0
   59.2450   27.0060   44.9790 H   0  0  0  0  0  0  0  0  0  0  0  0
   55.5987   24.4506   42.6238 H   0  0  0  0  0  0  0  0  0  0  0  0
  1  2  1  0
  2  3  1  0
  3  4  2  0
  4  5  1  0
  5  6  1  0
  6  7  2  0
  7  8  1  0
  8  9  1  0
  9 10  2  0
 10 11  1  0
 11 12  2  0
 12 13  1  0
 13 14  2  0
 14 15  1  0
 15 16  2  0
 16 17  1  0
 17 18  2  0
 17 19  1  0
 19 20  1  0
 20 21  1  0
 21 22  1  0
 22 23  1  0
 23 24  1  0
 24 25  2  0
 25 26  1  0
 26 27  2  0
 27 28  1  0
 27 29  1  0
 29 30  2  0
 22 31  1  0
 31 32  2  0
 31 33  1  0
 10 34  1  0
 34 35  2  0
 34 36  1  0
  4 37  1  0
 37 38  2  0
 38  2  1  0
 36  7  1  0
 16 11  1  0
 33 19  1  0
 30 24  1  0
  1 39  1  0
  1 40  1  0
  1 41  1  0
  3 42  1  0
  5 43  1  0
  5 44  1  0
  8 45  1  0
 12 46  1  0
 13 47  1  0
 14 48  1  0
 15 49  1  0
 20 50  1  0
 20 51  1  0
 21 52  1  0
 21 53  1  0
 23 54  1  0
 23 55  1  0
 25 56  1  0
 26 57  1  0
 29 58  1  0
 30 59  1  0
 33 60  1  0
 33 61  1  0
 36 62  1  0
 37 63  1  0
M  END
>  <smiles>  (30) 
Cn1cc(CN=c2[nH]nc(-c3ccccc3C(=O)N3CCN(Cc4ccc(F)cc4)C(=O)C3)c(=O)[nH]2)cn1

>  <score_type>  (30) 
oracle

>  <origin>  (30) 
adg

>  <m_score__min__energy>  (30) 
-9.8699999999999992

>  <m_primary>  (30) 
energy

$$$$
30:0
     RDKit          3D

 49 51  0  0  0  0  0  0  0  0999 V2000
   57.4160   31.5680   42.9040 C   0  0  0  0  0  0  0  0  0  0  0  0
   56.5330   30.1190   43.4400 S   0  0  0  0  0  0  0  0  0  0  0  0
   55.2580   30.5280   44.1280 O   0  0  0  0  0  0  0  0  0  0  0  0
   56.1940   29.2810   42.2390 O   0  0  0  0  0  0  0  0  0  0  0  0
   57.5340   29.2000   44.5590 C   0  0  0  0  0  0  0  0  0  0  0  0
   56.9240   28.3390   45.4840 C   0  0  0  0  0  0  0  0  0  0  0  0
   57.7050   27.6110   46.3870 C   0  0  0  0  0  0  0  0  0  0  0  0
   59.1000   27.7460   46.3810 C   0  0  0  0  0  0  0  0  0  0  0  0
   60.0680   26.8570   47.5520 S   0  0  0  0  0  0  0  0  0  0  0  0
   61.1430   26.0620   46.8640 O   0  0  0  0  0  0  0  0  0  0  0  0
   59.1730   25.9190   48.3120 O   0  0  0  0  0  0  0  0  0  0  0  0
   60.8050   27.9680   48.6610 N   0  0  0  0  0  0  0  0  0  0  0  0
   60.5800   29.3840   48.6760 C   0  0  0  0  0  0  0  0  0  0  0  0
   59.6750   29.9900   49.5660 C   0  0  0  0  0  0  0  0  0  0  0  0
   59.4990   31.3760   49.5560 C   0  0  0  0  0  0  0  0  0  0  0  0
   60.2210   32.1740   48.6610 C   0  0  0  0  0  0  0  0  0  0  0  0
   60.0050   33.9240   48.6850 S   0  0  0  0  0  0  0  0  0  0  0  0
   59.2940   34.3360   49.9480 O   0  0  0  0  0  0  0  0  0  0  0  0
   61.3600   34.5740   48.6580 O   0  0  0  0  0  0  0  0  0  0  0  0
   59.0790   34.4320   47.2930 N   0  0  0  0  0  0  0  0  0  0  0  0
   58.0110   33.4570   47.0110 C   0  0  0  0  0  0  0  0  0  0  0  0
   57.2080   33.8710   45.7560 C   0  0  0  0  0  0  0  0  0  0  0  0
   57.7910   34.9720   45.0830 O   0  0  0  0  0  0  0  0  0  0  0  0
   59.1510   34.7040   44.8150 C   0  0  0  0  0  0  0  0  0  0  0  0
   59.9640   34.6020   46.1220 C   0  0  0  0  0  0  0  0  0  0  0  0
   61.1210   31.5740   47.7710 C   0  0  0  0  0  0  0  0  0  0  0  0
   61.2940   30.1860   47.7750 C   0  0  0  0  0  0  0  0  0  0  0  0
   59.7120   28.6000   45.4490 C   0  0  0  0  0  0  0  0  0  0  0  0
   58.9320   29.3230   44.5430 C   0  0  0  0  0  0  0  0  0  0  0  0
   57.7605   32.1333   43.7825 H   0  0  0  0  0  0  0  0  0  0  0  0
   58.2836   31.2658   42.2991 H   0  0  0  0  0  0  0  0  0  0  0  0
   56.7497   32.2006   42.2991 H   0  0  0  0  0  0  0  0  0  0  0  0
   55.8289   28.2365   45.4988 H   0  0  0  0  0  0  0  0  0  0  0  0
   57.2230   26.9303   47.1042 H   0  0  0  0  0  0  0  0  0  0  0  0
   59.1036   29.3703   50.2727 H   0  0  0  0  0  0  0  0  0  0  0  0
   58.7893   31.8425   50.2551 H   0  0  0  0  0  0  0  0  0  0  0  0
   58.6400   35.3530   47.5280 H   0  0  0  0  0  0  0  0  0  0  0  0
   58.4612   32.4678   46.8412 H   0  0  0  0  0  0  0  0  0  0  0  0
   57.3274   33.4234   47.8722 H   0  0  0  0  0  0  0  0  0  0  0  0
   57.1662   33.0161   45.0651 H   0  0  0  0  0  0  0  0  0  0  0  0
   56.2023   34.1721   46.0846 H   0  0  0  0  0  0  0  0  0  0  0  0
   59.2289   33.7528   44.2681 H   0  0  0  0  0  0  0  0  0  0  0  0
   59.5583   35.5299   44.2133 H   0  0  0  0  0  0  0  0  0  0  0  0
   60.6412   33.7377   46.0562 H   0  0  0  0  0  0  0  0  0  0  0  0
   60.5339   35.5341   46.2500 H   0  0  0  0  0  0  0  0  0  0  0  0
   61.6933   32.1961   47.0670 H   0  0  0  0  0  0  0  0  0  0  0  0
   61.9950   29.7207   47.0664 H   0  0  0  0  0  0  0  0  0  0  0  0
   60.8073   28.6998   45.4323 H   0  0  0  0  0  0  0  0  0  0  0  0
   59.4152   29.9909   43.8147 H   0  0  0  0  0  0  0  0  0  0  0  0
  1  2  1  0
  2  3  2  0
  2  4  2  0
  2  5  1  0
  5  6  2  0
  6  7  1  0
  7  8  2  0
  8  9  1  0
  9 10  2  0
  9 11  2  0
  9 12  1  0
 12 13  1  0
 13 14  2  0
 14 15  1  0
 15 16  2  0
 16 17  1  0
 17 18  2  0
 17 19  2  0
 17 20  1  0
 20 21  1  0
 21 22  1  0
 22 23  1  0
 23 24  1  0
 24 25  1  0
 16 26  1  0
 26 27  2  0
  8 28  1  0
 28 29  2  0
 29  5  1  0
 27 13  1  0
 25 20  1  0
  1 30  1  0
  1 31  1  0
  1 32  1  0
  6 33  1  0
  7 34  1  0
 14 35  1  0
 15 36  1  0
 20 37  1  0
 21 38  1  0
 21 39  1  0
 22 40  1  0
 22 41  1  0
 24 42  1  0
 24 43  1  0
 25 44  1  0
 25 45  1  0
 26 46  1  0
 27 47  1  0
 28 48  1  0
 29 49  1  0
M  CHG  2  12  -1  20   1
M  END
>  <UniqueID>  (31) 
28

>  <SMILES>  (31) 
CS(=O)(=O)c1ccc(S(=O)(=O)[N-]c2ccc(S(=O)(=O)[NH+]3CCOCC3)cc2)cc1

>  <Energy>  (31) 
57.4545056247007

>  <Genealogy>  (31) 
CS(=O)(=O)c1ccc(S(=O)(=O)[N-]c2ccc(S(=O)(=O)[NH+]3CCOCC3)cc2)cc1 (protonated)
CS(=O)(=O)c1ccc(S(=O)(=O)[N-]c2ccc(S(=O)(=O)[NH+]3CCOCC3)cc2)cc1 (3D coordinates assigned)
CS(=O)(=O)c1ccc(S(=O)(=O)[N-]c2ccc(S(=O)(=O)[NH+]3CCOCC3)cc2)cc1 (nonaromatic ring conformer: 57.4545056247007 kcal/mol)

>  <smiles>  (31) 
CS(=O)(=O)c1ccc(S(=O)(=O)Nc2ccc(S(=O)(=O)N3CCOCC3)cc2)cc1

>  <score_type>  (31) 
oracle

>  <origin>  (31) 
adg

>  <m_score__min__energy>  (31) 
-8.9499999999999993

>  <m_primary>  (31) 
energy

$$$$
31:0
     RDKit          3D

 32 33  0  0  0  0  0  0  0  0999 V2000
   59.6420   34.0760   49.3690 O   0  0  0  0  0  0  0  0  0  0  0  0
   60.2390   34.3320   48.2870 C   0  0  0  0  0  0  0  0  0  0  0  0
   59.4720   34.9750   47.1580 C   0  0  0  0  0  0  0  0  0  0  0  0
   58.8300   33.9430   46.2650 C   0  0  0  0  0  0  0  0  0  0  0  0
   58.4060   34.2870   44.9700 C   0  0  0  0  0  0  0  0  0  0  0  0
   57.8390   33.3190   44.1350 C   0  0  0  0  0  0  0  0  0  0  0  0
   57.6990   32.0020   44.5830 C   0  0  0  0  0  0  0  0  0  0  0  0
   58.1310   31.6500   45.8650 C   0  0  0  0  0  0  0  0  0  0  0  0
   58.6980   32.6150   46.7030 C   0  0  0  0  0  0  0  0  0  0  0  0
   61.6270   33.9630   48.1420 N   0  0  0  0  0  0  0  0  0  0  0  0
   62.4600   33.9020   49.3510 C   0  0  0  0  0  0  0  0  0  0  0  0
   63.9000   33.5130   49.0110 C   0  0  0  0  0  0  0  0  0  0  0  0
   63.8990   32.3810   48.0800 N   0  0  0  0  0  0  0  0  0  0  0  0
   63.3250   32.7320   46.7640 C   0  0  0  0  0  0  0  0  0  0  0  0
   62.2510   33.8440   46.8140 C   0  0  0  0  0  0  0  0  0  0  0  0
   58.6870   35.6191   47.5810 H   0  0  0  0  0  0  0  0  0  0  0  0
   60.1782   35.5624   46.5528 H   0  0  0  0  0  0  0  0  0  0  0  0
   58.5205   35.3208   44.6121 H   0  0  0  0  0  0  0  0  0  0  0  0
   57.5027   33.5941   43.1244 H   0  0  0  0  0  0  0  0  0  0  0  0
   57.2489   31.2427   43.9266 H   0  0  0  0  0  0  0  0  0  0  0  0
   58.0247   30.6126   46.2150 H   0  0  0  0  0  0  0  0  0  0  0  0
   59.0420   32.3331   47.7091 H   0  0  0  0  0  0  0  0  0  0  0  0
   62.4600   34.8888   49.8370 H   0  0  0  0  0  0  0  0  0  0  0  0
   62.0423   33.1386   50.0239 H   0  0  0  0  0  0  0  0  0  0  0  0
   64.4098   34.3692   48.5451 H   0  0  0  0  0  0  0  0  0  0  0  0
   64.4273   33.2262   49.9328 H   0  0  0  0  0  0  0  0  0  0  0  0
   64.8850   32.0560   47.9450 H   0  0  0  0  0  0  0  0  0  0  0  0
   63.3570   31.5880   48.4980 H   0  0  0  0  0  0  0  0  0  0  0  0
   64.1425   33.0718   46.1112 H   0  0  0  0  0  0  0  0  0  0  0  0
   62.8247   31.8277   46.3873 H   0  0  0  0  0  0  0  0  0  0  0  0
   62.7242   34.8037   46.5589 H   0  0  0  0  0  0  0  0  0  0  0  0
   61.4614   33.5799   46.0951 H   0  0  0  0  0  0  0  0  0  0  0  0
  1  2  2  0
  2  3  1  0
  3  4  1  0
  4  5  2  0
  5  6  1  0
  6  7  2  0
  7  8  1  0
  8  9  2  0
  2 10  1  0
 10 11  1  0
 11 12  1  0
 12 13  1  0
 13 14  1  0
 14 15  1  0
  9  4  1  0
 15 10  1  0
  3 16  1  0
  3 17  1  0
  5 18  1  0
  6 19  1  0
  7 20  1  0
  8 21  1  0
  9 22  1  0
 11 23  1  0
 11 24  1  0
 12 25  1  0
 12 26  1  0
 13 27  1  0
 13 28  1  0
 14 29  1  0
 14 30  1  0
 15 31  1  0
 15 32  1  0
M  CHG  1  13   1
M  END
>  <UniqueID>  (32) 
29

>  <SMILES>  (32) 
O=C(Cc1ccccc1)N1CC[NH2+]CC1

>  <Energy>  (32) 
35.83708705596815

>  <Genealogy>  (32) 
O=C(Cc1ccccc1)N1CC[NH2+]CC1 (protonated)
O=C(Cc1ccccc1)N1CC[NH2+]CC1 (3D coordinates assigned)
O=C(Cc1ccccc1)N1CC[NH2+]CC1 (nonaromatic ring conformer: 35.83708705596815 kcal/mol)

>  <smiles>  (32) 
O=C(Cc1ccccc1)N1CCNCC1

>  <score_type>  (32) 
oracle

>  <origin>  (32) 
adg

>  <m_score__min__energy>  (32) 
-4.6200000000000001

>  <m_primary>  (32) 
energy

$$$$
32:0
     RDKit          3D

 35 36  0  0  0  0  0  0  0  0999 V2000
   57.8871   24.0109   42.8505 H   0  0  0  0  0  0  0  0  0  0  0  0
   57.4310   24.4640   43.7430 C   0  0  0  0  0  0  0  0  0  0  0  0
   56.5560   23.7160   44.5350 C   0  0  0  0  0  0  0  0  0  0  0  0
   56.3226   22.6754   44.2652 H   0  0  0  0  0  0  0  0  0  0  0  0
   55.9770   24.2910   45.6710 C   0  0  0  0  0  0  0  0  0  0  0  0
   54.7860   23.2660   46.7570 Br  0  0  0  0  0  0  0  0  0  0  0  0
   56.2720   25.6150   46.0130 C   0  0  0  0  0  0  0  0  0  0  0  0
   55.8181   26.0647   46.9084 H   0  0  0  0  0  0  0  0  0  0  0  0
   57.1450   26.3700   45.2170 C   0  0  0  0  0  0  0  0  0  0  0  0
   57.5270   28.0300   45.6710 S   0  0  0  0  0  0  0  0  0  0  0  0
   58.7650   28.4650   44.9380 O   0  0  0  0  0  0  0  0  0  0  0  0
   57.7920   28.1170   47.1490 O   0  0  0  0  0  0  0  0  0  0  0  0
   56.2140   29.0840   45.2470 N   0  0  0  0  0  0  0  0  0  0  0  0
   56.2840   29.4140   43.8260 C   0  0  0  0  0  0  0  0  0  0  0  0
   55.2850   29.3152   43.3763 H   0  0  0  0  0  0  0  0  0  0  0  0
   56.9804   28.7274   43.3225 H   0  0  0  0  0  0  0  0  0  0  0  0
   56.7650   30.8180   43.6680 C   0  0  0  0  0  0  0  0  0  0  0  0
   57.0540   31.2510   42.5190 O   0  0  0  0  0  0  0  0  0  0  0  0
   56.7500   31.7060   44.7920 N   0  0  0  0  0  0  0  0  0  0  0  0
   57.7040   32.0340   45.6250 C   0  0  0  0  0  0  0  0  0  0  0  0
   58.2000   33.3640   45.8090 C   0  0  0  0  0  0  0  0  0  0  0  0
   57.8580   34.5370   44.9240 C   0  0  0  0  0  0  0  0  0  0  0  0
   57.6046   35.4061   45.5488 H   0  0  0  0  0  0  0  0  0  0  0  0
   58.7223   34.7815   44.2890 H   0  0  0  0  0  0  0  0  0  0  0  0
   56.9978   34.2787   44.2890 H   0  0  0  0  0  0  0  0  0  0  0  0
   59.1470   33.5860   46.8240 C   0  0  0  0  0  0  0  0  0  0  0  0
   59.4970   34.6089   47.0268 H   0  0  0  0  0  0  0  0  0  0  0  0
   59.6460   32.5280   47.5740 C   0  0  0  0  0  0  0  0  0  0  0  0
   60.3819   32.7103   48.3710 H   0  0  0  0  0  0  0  0  0  0  0  0
   59.2060   31.2380   47.3070 C   0  0  0  0  0  0  0  0  0  0  0  0
   59.6179   30.3898   47.8734 H   0  0  0  0  0  0  0  0  0  0  0  0
   58.2690   31.0210   46.3490 N   0  0  0  0  0  0  0  0  0  0  0  0
   57.9460   30.0370   46.1950 H   0  0  0  0  0  0  0  0  0  0  0  0
   57.7280   25.7880   44.0830 C   0  0  0  0  0  0  0  0  0  0  0  0
   58.4200   26.3732   43.4596 H   0  0  0  0  0  0  0  0  0  0  0  0
  1  2  1  0
  2  3  2  0
  3  4  1  0
  3  5  1  0
  5  6  1  0
  5  7  2  0
  7  8  1  0
  7  9  1  0
  9 10  1  0
 10 11  2  0
 10 12  2  0
 10 13  1  0
 13 14  1  0
 14 15  1  0
 14 16  1  0
 14 17  1  0
 17 18  2  0
 17 19  1  0
 19 20  2  0
 20 21  1  0
 21 22  1  0
 22 23  1  0
 22 24  1  0
 22 25  1  0
 21 26  2  0
 26 27  1  0
 26 28  1  0
 28 29  1  0
 28 30  2  0
 30 31  1  0
 30 32  1  0
 32 33  1  0
  9 34  2  0
 34 35  1  0
 34  2  1  0
 32 20  1  0
M  CHG  1  13  -1
M  END
>  <UniqueID>  (33) 
30

>  <SMILES>  (33) 
Cc1ccc[nH]/c1=N/C(=O)C[N-]S(=O)(=O)c1cccc(Br)c1

>  <Energy>  (33) 
49.1924001616493

>  <Genealogy>  (33) 
Cc1ccc[nH]c1=NC(=O)C[N-]S(=O)(=O)c1cccc(Br)c1 (protonated)
Cc1ccc[nH]/c1=N/C(=O)C[N-]S(=O)(=O)c1cccc(Br)c1 (cis-trans isomerization)
Cc1ccc[nH]/c1=N/C(=O)C[N-]S(=O)(=O)c1cccc(Br)c1 (3D coordinates assigned)
Cc1ccc[nH]/c1=N/C(=O)C[N-]S(=O)(=O)c1cccc(Br)c1 (optimized conformer: 49.1924001616493 kcal/mol)

>  <smiles>  (33) 
Cc1ccc[nH]c1=NC(=O)CNS(=O)(=O)c1cccc(Br)c1

>  <score_type>  (33) 
oracle

>  <origin>  (33) 
adg

>  <m_score__min__energy>  (33) 
-9.3900000000000006

>  <m_primary>  (33) 
energy

$$$$
33:0
     RDKit          3D

 42 44  0  0  0  0  0  0  0  0999 V2000
   57.7690   32.0910   42.7860 C   0  0  0  0  0  0  0  0  0  0  0  0
   57.6870   33.3410   43.4650 O   0  0  0  0  0  0  0  0  0  0  0  0
   58.2890   33.6100   44.7030 C   0  0  0  0  0  0  0  0  0  0  0  0
   58.8900   34.8590   44.8930 C   0  0  0  0  0  0  0  0  0  0  0  0
   59.5180   35.1660   46.1030 C   0  0  0  0  0  0  0  0  0  0  0  0
   59.5530   34.2250   47.1340 C   0  0  0  0  0  0  0  0  0  0  0  0
   58.9440   32.9720   46.9670 C   0  0  0  0  0  0  0  0  0  0  0  0
   59.0320   31.9390   48.0590 C   0  0  0  0  0  0  0  0  0  0  0  0
   59.9190   30.8390   47.6530 N   0  0  0  0  0  0  0  0  0  0  0  0
   61.0770   30.4750   48.4380 C   0  0  0  0  0  0  0  0  0  0  0  0
   61.1290   29.3390   48.9840 O   0  0  0  0  0  0  0  0  0  0  0  0
   62.2130   31.3940   48.6260 C   0  0  0  0  0  0  0  0  0  0  0  0
   63.0390   31.4310   49.7440 C   0  0  0  0  0  0  0  0  0  0  0  0
   64.0740   32.3670   49.6380 C   0  0  0  0  0  0  0  0  0  0  0  0
   64.0840   33.0560   48.4330 C   0  0  0  0  0  0  0  0  0  0  0  0
   62.8010   32.4980   47.5000 S   0  0  0  0  0  0  0  0  0  0  0  0
   59.4880   29.9770   46.5870 C   0  0  0  0  0  0  0  0  0  0  0  0
   60.4210   29.3970   45.7180 C   0  0  0  0  0  0  0  0  0  0  0  0
   59.9940   28.5420   44.7000 C   0  0  0  0  0  0  0  0  0  0  0  0
   58.6350   28.2560   44.5480 C   0  0  0  0  0  0  0  0  0  0  0  0
   57.6870   28.8210   45.4180 C   0  0  0  0  0  0  0  0  0  0  0  0
   56.2480   28.5100   45.2590 C   0  0  0  0  0  0  0  0  0  0  0  0
   55.4560   29.3680   44.7870 O   0  0  0  0  0  0  0  0  0  0  0  0
   55.7520   27.2650   45.6280 O   0  0  0  0  0  0  0  0  0  0  0  0
   58.1260   29.6810   46.4410 C   0  0  0  0  0  0  0  0  0  0  0  0
   58.3140   32.6670   45.7490 C   0  0  0  0  0  0  0  0  0  0  0  0
   57.8225   31.2762   43.5230 H   0  0  0  0  0  0  0  0  0  0  0  0
   56.8777   31.9571   42.1554 H   0  0  0  0  0  0  0  0  0  0  0  0
   58.6701   32.0747   42.1554 H   0  0  0  0  0  0  0  0  0  0  0  0
   58.8680   35.6044   44.0844 H   0  0  0  0  0  0  0  0  0  0  0  0
   59.9860   36.1515   46.2436 H   0  0  0  0  0  0  0  0  0  0  0  0
   60.0596   34.4667   48.0800 H   0  0  0  0  0  0  0  0  0  0  0  0
   59.4303   32.4082   48.9707 H   0  0  0  0  0  0  0  0  0  0  0  0
   58.0269   31.5351   48.2502 H   0  0  0  0  0  0  0  0  0  0  0  0
   62.8933   30.7881   50.6246 H   0  0  0  0  0  0  0  0  0  0  0  0
   64.8113   32.5406   50.4357 H   0  0  0  0  0  0  0  0  0  0  0  0
   64.8059   33.8323   48.1393 H   0  0  0  0  0  0  0  0  0  0  0  0
   61.4924   29.6156   45.8378 H   0  0  0  0  0  0  0  0  0  0  0  0
   60.7292   28.0927   44.0162 H   0  0  0  0  0  0  0  0  0  0  0  0
   58.3049   27.5841   43.7420 H   0  0  0  0  0  0  0  0  0  0  0  0
   57.3942   30.1248   47.1320 H   0  0  0  0  0  0  0  0  0  0  0  0
   57.8371   31.6854   45.6112 H   0  0  0  0  0  0  0  0  0  0  0  0
  1  2  1  0
  2  3  1  0
  3  4  2  0
  4  5  1  0
  5  6  2  0
  6  7  1  0
  7  8  1  0
  8  9  1  0
  9 10  1  0
 10 11  2  0
 10 12  1  0
 12 13  2  0
 13 14  1  0
 14 15  2  0
 15 16  1  0
  9 17  1  0
 17 18  2  0
 18 19  1  0
 19 20  2  0
 20 21  1  0
 21 22  1  0
 22 23  2  0
 22 24  1  0
 21 25  2  0
  7 26  2  0
 26  3  1  0
 16 12  1  0
 25 17  1  0
  1 27  1  0
  1 28  1  0
  1 29  1  0
  4 30  1  0
  5 31  1  0
  6 32  1  0
  8 33  1  0
  8 34  1  0
 13 35  1  0
 14 36  1  0
 15 37  1  0
 18 38  1  0
 19 39  1  0
 20 40  1  0
 25 41  1  0
 26 42  1  0
M  CHG  1  24  -1
M  END
>  <UniqueID>  (34) 
31

>  <SMILES>  (34) 
COc1cccc(CN(C(=O)c2cccs2)c2cccc(C(=O)[O-])c2)c1

>  <Energy>  (34) 
78.81906849447094

>  <Genealogy>  (34) 
COc1cccc(CN(C(=O)c2cccs2)c2cccc(C(=O)[O-])c2)c1 (protonated)
COc1cccc(CN(C(=O)c2cccs2)c2cccc(C(=O)[O-])c2)c1 (3D coordinates assigned)
COc1cccc(CN(C(=O)c2cccs2)c2cccc(C(=O)[O-])c2)c1 (optimized conformer: 78.81906849447094 kcal/mol)

>  <smiles>  (34) 
COc1cccc(CN(C(=O)c2cccs2)c2cccc(C(=O)O)c2)c1

>  <score_type>  (34) 
oracle

>  <origin>  (34) 
adg

>  <m_score__min__energy>  (34) 
-10.99

>  <m_primary>  (34) 
energy

$$$$
34:0
     RDKit          3D

 42 44  0  0  0  0  0  0  0  0999 V2000
   60.2060   24.2670   45.8650 O   0  0  0  0  0  0  0  0  0  0  0  0
   59.6930   25.4170   45.9480 C   0  0  0  0  0  0  0  0  0  0  0  0
   60.5070   26.5100   46.5880 C   0  0  0  0  0  0  0  0  0  0  0  0
   59.7300   27.3040   48.0450 S   0  0  0  0  0  0  0  0  0  0  0  0
   58.9990   28.6680   47.1470 C   0  0  0  0  0  0  0  0  0  0  0  0
   58.0640   28.4320   46.1930 N   0  0  0  0  0  0  0  0  0  0  0  0
   57.5050   29.4510   45.4890 C   0  0  0  0  0  0  0  0  0  0  0  0
   56.4770   29.1470   44.4780 C   0  0  0  0  0  0  0  0  0  0  0  0
   56.7870   29.0000   43.2670 O   0  0  0  0  0  0  0  0  0  0  0  0
   55.1470   29.0210   44.8610 O   0  0  0  0  0  0  0  0  0  0  0  0
   57.9140   30.7680   45.7410 C   0  0  0  0  0  0  0  0  0  0  0  0
   58.9070   30.9990   46.7100 C   0  0  0  0  0  0  0  0  0  0  0  0
   59.4020   32.3710   47.0100 C   0  0  0  0  0  0  0  0  0  0  0  0
   60.7250   32.5800   47.4510 C   0  0  0  0  0  0  0  0  0  0  0  0
   61.1860   33.8680   47.7340 C   0  0  0  0  0  0  0  0  0  0  0  0
   60.3370   34.9650   47.5880 C   0  0  0  0  0  0  0  0  0  0  0  0
   59.0200   34.7750   47.1660 C   0  0  0  0  0  0  0  0  0  0  0  0
   58.5480   33.4890   46.8840 C   0  0  0  0  0  0  0  0  0  0  0  0
   57.2630   33.3490   46.4730 F   0  0  0  0  0  0  0  0  0  0  0  0
   59.4150   29.9370   47.3930 N   0  0  0  0  0  0  0  0  0  0  0  0
   58.3340   25.6260   45.5280 N   0  0  0  0  0  0  0  0  0  0  0  0
   57.4770   24.5480   45.1150 C   0  0  0  0  0  0  0  0  0  0  0  0
   58.0800   23.4010   44.5750 C   0  0  0  0  0  0  0  0  0  0  0  0
   57.3050   22.3390   44.1110 C   0  0  0  0  0  0  0  0  0  0  0  0
   55.9160   22.4040   44.1850 C   0  0  0  0  0  0  0  0  0  0  0  0
   55.2970   23.5230   44.7420 C   0  0  0  0  0  0  0  0  0  0  0  0
   56.0580   24.6020   45.2320 C   0  0  0  0  0  0  0  0  0  0  0  0
   55.3420   25.7170   45.8970 C   0  0  0  0  0  0  0  0  0  0  0  0
   55.9200   26.4500   46.7410 O   0  0  0  0  0  0  0  0  0  0  0  0
   53.9980   25.9490   45.6230 O   0  0  0  0  0  0  0  0  0  0  0  0
   61.4672   26.0781   46.9066 H   0  0  0  0  0  0  0  0  0  0  0  0
   60.6127   27.2987   45.8286 H   0  0  0  0  0  0  0  0  0  0  0  0
   57.4654   31.6075   45.1896 H   0  0  0  0  0  0  0  0  0  0  0  0
   61.4006   31.7205   47.5734 H   0  0  0  0  0  0  0  0  0  0  0  0
   62.2217   34.0175   48.0730 H   0  0  0  0  0  0  0  0  0  0  0  0
   60.7048   35.9787   47.8051 H   0  0  0  0  0  0  0  0  0  0  0  0
   58.3504   35.6406   47.0548 H   0  0  0  0  0  0  0  0  0  0  0  0
   57.8670   26.5220   45.7920 H   0  0  0  0  0  0  0  0  0  0  0  0
   59.1768   23.3394   44.5173 H   0  0  0  0  0  0  0  0  0  0  0  0
   57.7914   21.4486   43.6859 H   0  0  0  0  0  0  0  0  0  0  0  0
   55.3061   21.5718   43.8037 H   0  0  0  0  0  0  0  0  0  0  0  0
   54.1992   23.5633   44.7993 H   0  0  0  0  0  0  0  0  0  0  0  0
  1  2  2  0
  2  3  1  0
  3  4  1  0
  4  5  1  0
  5  6  2  0
  6  7  1  0
  7  8  1  0
  8  9  2  0
  8 10  1  0
  7 11  2  0
 11 12  1  0
 12 13  1  0
 13 14  2  0
 14 15  1  0
 15 16  2  0
 16 17  1  0
 17 18  2  0
 18 19  1  0
 12 20  2  0
  2 21  1  0
 21 22  1  0
 22 23  2  0
 23 24  1  0
 24 25  2  0
 25 26  1  0
 26 27  2  0
 27 28  1  0
 28 29  2  0
 28 30  1  0
 20  5  1  0
 27 22  1  0
 18 13  1  0
  3 31  1  0
  3 32  1  0
 11 33  1  0
 14 34  1  0
 15 35  1  0
 16 36  1  0
 17 37  1  0
 21 38  1  0
 23 39  1  0
 24 40  1  0
 25 41  1  0
 26 42  1  0
M  CHG  2  10  -1  30  -1
M  END
>  <UniqueID>  (35) 
32

>  <SMILES>  (35) 
O=C(CSc1nc(C(=O)[O-])cc(-c2ccccc2F)n1)Nc1ccccc1C(=O)[O-]

>  <Energy>  (35) 
55.26027020190938

>  <Genealogy>  (35) 
O=C(CSc1nc(C(=O)[O-])cc(-c2ccccc2F)n1)Nc1ccccc1C(=O)[O-] (protonated)
O=C(CSc1nc(C(=O)[O-])cc(-c2ccccc2F)n1)Nc1ccccc1C(=O)[O-] (3D coordinates assigned)
O=C(CSc1nc(C(=O)[O-])cc(-c2ccccc2F)n1)Nc1ccccc1C(=O)[O-] (optimized conformer: 55.26027020190938 kcal/mol)

>  <smiles>  (35) 
O=C(CSc1nc(C(=O)O)cc(-c2ccccc2F)n1)Nc1ccccc1C(=O)O

>  <score_type>  (35) 
oracle

>  <origin>  (35) 
adg

>  <m_score__min__energy>  (35) 
-12.93

>  <m_primary>  (35) 
energy

$$$$
35:0
     RDKit          3D

 51 52  0  0  0  0  0  0  0  0999 V2000
   63.2310   33.8150   51.7500 C   0  0  0  0  0  0  0  0  0  0  0  0
   62.1080   34.0220   50.8920 O   0  0  0  0  0  0  0  0  0  0  0  0
   62.1170   33.8670   49.4990 C   0  0  0  0  0  0  0  0  0  0  0  0
   63.3260   33.8120   48.7770 C   0  0  0  0  0  0  0  0  0  0  0  0
   63.3210   33.6080   47.3990 C   0  0  0  0  0  0  0  0  0  0  0  0
   62.1190   33.4500   46.7190 C   0  0  0  0  0  0  0  0  0  0  0  0
   60.8970   33.5130   47.4110 C   0  0  0  0  0  0  0  0  0  0  0  0
   59.6640   33.3640   46.7560 O   0  0  0  0  0  0  0  0  0  0  0  0
   58.8510   34.4500   46.3210 C   0  0  0  0  0  0  0  0  0  0  0  0
   60.8910   33.7450   48.7980 C   0  0  0  0  0  0  0  0  0  0  0  0
   59.6310   33.8490   49.4200 O   0  0  0  0  0  0  0  0  0  0  0  0
   59.2940   33.4400   50.7490 C   0  0  0  0  0  0  0  0  0  0  0  0
   58.2300   32.3360   50.7350 C   0  0  0  0  0  0  0  0  0  0  0  0
   58.7900   31.0660   50.1690 C   0  0  0  0  0  0  0  0  0  0  0  0
   58.7430   30.0140   50.8620 O   0  0  0  0  0  0  0  0  0  0  0  0
   59.4160   31.0710   48.8770 N   0  0  0  0  0  0  0  0  0  0  0  0
   59.9900   29.9100   48.2600 C   0  0  0  0  0  0  0  0  0  0  0  0
   60.0360   28.8060   48.8650 O   0  0  0  0  0  0  0  0  0  0  0  0
   60.6740   30.0300   46.6070 S   0  0  0  0  0  0  0  0  0  0  0  0
   59.0960   29.6730   45.8330 C   0  0  0  0  0  0  0  0  0  0  0  0
   58.2610   30.7160   45.4170 C   0  0  0  0  0  0  0  0  0  0  0  0
   57.0420   30.4290   44.7960 C   0  0  0  0  0  0  0  0  0  0  0  0
   56.6550   29.1030   44.5900 C   0  0  0  0  0  0  0  0  0  0  0  0
   57.4740   28.0480   45.0190 C   0  0  0  0  0  0  0  0  0  0  0  0
   57.0590   26.6910   44.7740 N   0  0  0  0  0  0  0  0  0  0  0  0
   56.3890   25.8650   45.7360 C   0  0  0  0  0  0  0  0  0  0  0  0
   56.2610   24.3970   45.4920 C   0  0  0  0  0  0  0  0  0  0  0  0
   55.8290   26.3740   46.7440 O   0  0  0  0  0  0  0  0  0  0  0  0
   58.7100   28.3430   45.6210 C   0  0  0  0  0  0  0  0  0  0  0  0
   62.9066   33.8748   52.7994 H   0  0  0  0  0  0  0  0  0  0  0  0
   63.6628   32.8221   51.5557 H   0  0  0  0  0  0  0  0  0  0  0  0
   63.9884   34.5887   51.5557 H   0  0  0  0  0  0  0  0  0  0  0  0
   64.2827   33.9313   49.3066 H   0  0  0  0  0  0  0  0  0  0  0  0
   64.2718   33.5718   46.8470 H   0  0  0  0  0  0  0  0  0  0  0  0
   62.1240   33.2746   45.6331 H   0  0  0  0  0  0  0  0  0  0  0  0
   58.4520   34.9830   47.1966 H   0  0  0  0  0  0  0  0  0  0  0  0
   59.4556   35.1410   45.7153 H   0  0  0  0  0  0  0  0  0  0  0  0
   58.0176   34.0645   45.7153 H   0  0  0  0  0  0  0  0  0  0  0  0
   60.1980   33.0611   51.2482 H   0  0  0  0  0  0  0  0  0  0  0  0
   58.8886   34.3084   51.2890 H   0  0  0  0  0  0  0  0  0  0  0  0
   57.8871   32.1522   51.7639 H   0  0  0  0  0  0  0  0  0  0  0  0
   57.3899   32.6632   50.1048 H   0  0  0  0  0  0  0  0  0  0  0  0
   59.4390   31.9680   48.3410 H   0  0  0  0  0  0  0  0  0  0  0  0
   58.5637   31.7611   45.5786 H   0  0  0  0  0  0  0  0  0  0  0  0
   56.3862   31.2493   44.4689 H   0  0  0  0  0  0  0  0  0  0  0  0
   55.7011   28.8843   44.0877 H   0  0  0  0  0  0  0  0  0  0  0  0
   57.2040   26.2980   43.8160 H   0  0  0  0  0  0  0  0  0  0  0  0
   56.2149   23.8679   46.4553 H   0  0  0  0  0  0  0  0  0  0  0  0
   55.3422   24.1990   44.9205 H   0  0  0  0  0  0  0  0  0  0  0  0
   57.1317   24.0430   44.9205 H   0  0  0  0  0  0  0  0  0  0  0  0
   59.3780   27.5245   45.9274 H   0  0  0  0  0  0  0  0  0  0  0  0
  1  2  1  0
  2  3  1  0
  3  4  2  0
  4  5  1  0
  5  6  2  0
  6  7  1  0
  7  8  1  0
  8  9  1  0
  7 10  2  0
 10 11  1  0
 11 12  1  0
 12 13  1  0
 13 14  1  0
 14 15  2  0
 14 16  1  0
 16 17  1  0
 17 18  2  0
 17 19  1  0
 19 20  1  0
 20 21  2  0
 21 22  1  0
 22 23  2  0
 23 24  1  0
 24 25  1  0
 25 26  1  0
 26 27  1  0
 26 28  2  0
 24 29  2  0
 10  3  1  0
 29 20  1  0
  1 30  1  0
  1 31  1  0
  1 32  1  0
  4 33  1  0
  5 34  1  0
  6 35  1  0
  9 36  1  0
  9 37  1  0
  9 38  1  0
 12 39  1  0
 12 40  1  0
 13 41  1  0
 13 42  1  0
 16 43  1  0
 21 44  1  0
 22 45  1  0
 23 46  1  0
 25 47  1  0
 27 48  1  0
 27 49  1  0
 27 50  1  0
 29 51  1  0
M  END
>  <UniqueID>  (36) 
33

>  <SMILES>  (36) 
COc1cccc(OC)c1OCCC(=O)NC(=O)Sc1cccc(NC(C)=O)c1

>  <Energy>  (36) 
48.04290537685805

>  <Genealogy>  (36) 
COc1cccc(OC)c1OCCC(=O)NC(=O)Sc1cccc(NC(C)=O)c1 (3D coordinates assigned)
COc1cccc(OC)c1OCCC(=O)NC(=O)Sc1cccc(NC(C)=O)c1 (optimized conformer: 48.04290537685805 kcal/mol)

>  <smiles>  (36) 
COc1cccc(OC)c1OCCC(=O)NC(=O)Sc1cccc(NC(C)=O)c1

>  <score_type>  (36) 
oracle

>  <origin>  (36) 
adg

>  <m_score__min__energy>  (36) 
-7.8099999999999996

>  <m_primary>  (36) 
energy

$$$$
36:0
     RDKit          3D

 61 64  0  0  1  0  0  0  0  0999 V2000
   59.3980   34.9630   45.9090 C   0  0  0  0  0  0  0  0  0  0  0  0
   58.5100   34.6110   47.0920 C   0  0  0  0  0  0  0  0  0  0  0  0
   59.3170   34.3090   48.3360 C   0  0  0  0  0  0  0  0  0  0  0  0
   60.4820   33.5160   48.0700 N   0  0  0  0  0  0  0  0  0  0  0  0
   61.7350   33.8460   48.4100 C   0  0  0  0  0  0  0  0  0  0  0  0
   61.9370   34.9280   49.0140 O   0  0  0  0  0  0  0  0  0  0  0  0
   62.8110   33.0880   48.1450 N   0  0  0  0  0  0  0  0  0  0  0  0
   64.1410   33.5180   48.5460 C   0  0  0  0  0  0  0  0  0  0  0  0
   62.6730   31.9160   47.5010 C   0  0  0  0  0  0  0  0  0  0  0  0
   63.6670   31.1940   47.2430 O   0  0  0  0  0  0  0  0  0  0  0  0
   61.4090   31.5160   47.1220 C   0  0  0  0  0  0  0  0  0  0  0  0
   60.9060   30.4450   46.4840 N   0  0  0  0  0  0  0  0  0  0  0  0
   59.5650   30.5570   46.3700 C   0  0  0  0  0  0  0  0  0  0  0  0
   58.5920   29.6370   45.7520 C   0  0  1  0  0  0  0  0  0  0  0  0
   58.4180   29.8930   44.2730 C   0  0  0  0  0  0  0  0  0  0  0  0
   57.5480   28.7630   43.7580 C   0  0  0  0  0  0  0  0  0  0  0  0
   58.4090   27.5610   43.5900 C   0  0  2  0  0  0  0  0  0  0  0  0
   57.7250   26.3260   43.5060 N   0  0  0  0  0  0  0  0  0  0  0  0
   57.7400   25.4790   44.6460 C   0  0  0  0  0  0  0  0  0  0  0  0
   57.3130   24.1110   44.2260 C   0  0  0  0  0  0  0  0  0  0  0  0
   56.6370   23.8690   43.0500 C   0  0  0  0  0  0  0  0  0  0  0  0
   56.2900   22.5570   42.7610 C   0  0  0  0  0  0  0  0  0  0  0  0
   56.6230   21.5300   43.6470 C   0  0  0  0  0  0  0  0  0  0  0  0
   56.2800   20.2490   43.3580 F   0  0  0  0  0  0  0  0  0  0  0  0
   57.2990   21.7680   44.8250 C   0  0  0  0  0  0  0  0  0  0  0  0
   57.6630   20.6910   45.7810 C   0  0  0  0  0  0  0  0  0  0  0  0
   57.6390   23.0820   45.0980 C   0  0  0  0  0  0  0  0  0  0  0  0
   59.4000   27.5030   44.7200 C   0  0  0  0  0  0  0  0  0  0  0  0
   58.9440   28.2040   45.9730 C   0  0  0  0  0  0  0  0  0  0  0  0
   59.2350   31.7210   46.9490 N   0  0  0  0  0  0  0  0  0  0  0  0
   60.3340   32.3290   47.4170 C   0  0  0  0  0  0  0  0  0  0  0  0
   60.3622   35.3452   46.2753 H   0  0  0  0  0  0  0  0  0  0  0  0
   59.5681   34.0643   45.2980 H   0  0  0  0  0  0  0  0  0  0  0  0
   58.9061   35.7342   45.2980 H   0  0  0  0  0  0  0  0  0  0  0  0
   57.8417   35.4597   47.2995 H   0  0  0  0  0  0  0  0  0  0  0  0
   57.9376   33.7087   46.8308 H   0  0  0  0  0  0  0  0  0  0  0  0
   59.6361   35.2605   48.7863 H   0  0  0  0  0  0  0  0  0  0  0  0
   58.6725   33.7296   49.0134 H   0  0  0  0  0  0  0  0  0  0  0  0
   64.2042   33.5384   49.6440 H   0  0  0  0  0  0  0  0  0  0  0  0
   64.8887   32.8158   48.1487 H   0  0  0  0  0  0  0  0  0  0  0  0
   64.3361   34.5250   48.1487 H   0  0  0  0  0  0  0  0  0  0  0  0
   61.4820   29.6470   46.1330 H   0  0  0  0  0  0  0  0  0  0  0  0
   57.6360   29.8418   46.2562 H   0  0  0  0  0  0  0  0  0  0  0  0
   59.3940   29.8868   43.7657 H   0  0  0  0  0  0  0  0  0  0  0  0
   57.9605   30.8752   44.0831 H   0  0  0  0  0  0  0  0  0  0  0  0
   57.1053   29.0435   42.7908 H   0  0  0  0  0  0  0  0  0  0  0  0
   56.7332   28.5539   44.4668 H   0  0  0  0  0  0  0  0  0  0  0  0
   58.8986   27.6873   42.6131 H   0  0  0  0  0  0  0  0  0  0  0  0
   56.9080   26.2570   42.9010 H   0  0  0  0  0  0  0  0  0  0  0  0
   58.7565   25.4382   45.0645 H   0  0  0  0  0  0  0  0  0  0  0  0
   57.0551   25.8684   45.4137 H   0  0  0  0  0  0  0  0  0  0  0  0
   56.3809   24.6889   42.3629 H   0  0  0  0  0  0  0  0  0  0  0  0
   55.7507   22.3249   41.8308 H   0  0  0  0  0  0  0  0  0  0  0  0
   57.5391   21.0575   46.8107 H   0  0  0  0  0  0  0  0  0  0  0  0
   57.0088   19.8214   45.6201 H   0  0  0  0  0  0  0  0  0  0  0  0
   58.7106   20.3965   45.6201 H   0  0  0  0  0  0  0  0  0  0  0  0
   58.1797   23.3156   46.0270 H   0  0  0  0  0  0  0  0  0  0  0  0
   60.3364   27.9717   44.3830 H   0  0  0  0  0  0  0  0  0  0  0  0
   59.5260   26.4411   44.9779 H   0  0  0  0  0  0  0  0  0  0  0  0
   59.7539   28.1538   46.7157 H   0  0  0  0  0  0  0  0  0  0  0  0
   58.0328   27.6940   46.3188 H   0  0  0  0  0  0  0  0  0  0  0  0
  1  2  1  0
  2  3  1  0
  3  4  1  0
  4  5  1  0
  5  6  2  0
  5  7  1  0
  7  8  1  0
  7  9  1  0
  9 10  2  0
  9 11  1  0
 11 12  1  0
 12 13  1  0
 13 14  1  0
 14 15  1  0
 15 16  1  0
 16 17  1  0
 17 18  1  0
 18 19  1  0
 19 20  1  0
 20 21  2  0
 21 22  1  0
 22 23  2  0
 23 24  1  0
 23 25  1  0
 25 26  1  0
 25 27  2  0
 17 28  1  0
 28 29  1  0
 13 30  2  0
 30 31  1  0
 31  4  1  0
 31 11  2  0
 29 14  1  0
 27 20  1  0
  1 32  1  0
  1 33  1  0
  1 34  1  0
  2 35  1  0
  2 36  1  0
  3 37  1  0
  3 38  1  0
  8 39  1  0
  8 40  1  0
  8 41  1  0
 12 42  1  0
 14 43  1  1
 15 44  1  0
 15 45  1  0
 16 46  1  0
 16 47  1  0
 17 48  1  6
 18 49  1  0
 19 50  1  0
 19 51  1  0
 21 52  1  0
 22 53  1  0
 26 54  1  0
 26 55  1  0
 26 56  1  0
 27 57  1  0
 28 58  1  0
 28 59  1  0
 29 60  1  0
 29 61  1  0
M  END
>  <smiles>  (37) 
CCCn1c(=O)n(C)c(=O)c2[nH]c(C3CCC(NCc4ccc(F)c(C)c4)CC3)nc21

>  <score_type>  (37) 
oracle

>  <origin>  (37) 
adg

>  <m_score__min__energy>  (37) 
-9.5299999999999994

>  <m_primary>  (37) 
energy

$$$$
37:0
     RDKit          3D

 41 43  0  0  0  0  0  0  0  0999 V2000
   56.5020   20.0520   48.7760 H   0  0  0  0  0  0  0  0  0  0  0  0
   56.8460   20.3760   47.8430 N   0  0  0  0  0  0  0  0  0  0  0  0
   57.0060   21.6330   47.5810 C   0  0  0  0  0  0  0  0  0  0  0  0
   57.7340   22.0190   46.4980 N   0  0  0  0  0  0  0  0  0  0  0  0
   57.9210   23.3300   46.1870 C   0  0  0  0  0  0  0  0  0  0  0  0
   58.5166   23.6043   45.3038 H   0  0  0  0  0  0  0  0  0  0  0  0
   57.3560   24.3350   46.9900 C   0  0  0  0  0  0  0  0  0  0  0  0
   57.5610   25.7680   46.6720 C   0  0  0  0  0  0  0  0  0  0  0  0
   58.8240   26.3460   46.8800 C   0  0  0  0  0  0  0  0  0  0  0  0
   59.6418   25.7346   47.2891 H   0  0  0  0  0  0  0  0  0  0  0  0
   59.0520   27.6880   46.5730 C   0  0  0  0  0  0  0  0  0  0  0  0
   60.0449   28.1291   46.7450 H   0  0  0  0  0  0  0  0  0  0  0  0
   58.0210   28.4740   46.0470 C   0  0  0  0  0  0  0  0  0  0  0  0
   58.2620   29.8930   45.7160 C   0  0  0  0  0  0  0  0  0  0  0  0
   59.0340   30.6640   46.6010 C   0  0  0  0  0  0  0  0  0  0  0  0
   59.4257   30.2082   47.5223 H   0  0  0  0  0  0  0  0  0  0  0  0
   59.3080   32.0030   46.3210 C   0  0  0  0  0  0  0  0  0  0  0  0
   59.9144   32.5977   47.0201 H   0  0  0  0  0  0  0  0  0  0  0  0
   58.8140   32.5880   45.1560 C   0  0  0  0  0  0  0  0  0  0  0  0
   59.0389   33.6413   44.9326 H   0  0  0  0  0  0  0  0  0  0  0  0
   58.0340   31.8390   44.2720 C   0  0  0  0  0  0  0  0  0  0  0  0
   57.6464   32.3078   43.3555 H   0  0  0  0  0  0  0  0  0  0  0  0
   57.7400   30.4920   44.5430 C   0  0  0  0  0  0  0  0  0  0  0  0
   56.6970   29.6040   43.4190 S   0  0  0  0  0  0  0  0  0  0  0  0
   56.5090   30.4090   42.1640 O   0  0  0  0  0  0  0  0  0  0  0  0
   55.3530   29.3610   44.0490 O   0  0  0  0  0  0  0  0  0  0  0  0
   57.4030   28.0740   43.0290 N   0  0  0  0  0  0  0  0  0  0  0  0
   56.9820   27.7620   42.1260 H   0  0  0  0  0  0  0  0  0  0  0  0
   57.0880   27.3970   43.7600 H   0  0  0  0  0  0  0  0  0  0  0  0
   56.7490   27.9170   45.8610 C   0  0  0  0  0  0  0  0  0  0  0  0
   55.9326   28.5413   45.4689 H   0  0  0  0  0  0  0  0  0  0  0  0
   56.5060   26.5630   46.1720 C   0  0  0  0  0  0  0  0  0  0  0  0
   55.2340   25.9890   46.0120 O   0  0  0  0  0  0  0  0  0  0  0  0
   54.9670   24.8060   45.2660 C   0  0  0  0  0  0  0  0  0  0  0  0
   54.7786   23.9713   45.9572 H   0  0  0  0  0  0  0  0  0  0  0  0
   54.0819   24.9641   44.6322 H   0  0  0  0  0  0  0  0  0  0  0  0
   55.8342   24.5686   44.6322 H   0  0  0  0  0  0  0  0  0  0  0  0
   56.6110   23.9520   48.1170 C   0  0  0  0  0  0  0  0  0  0  0  0
   56.1682   24.7194   48.7689 H   0  0  0  0  0  0  0  0  0  0  0  0
   56.4310   22.5990   48.4120 C   0  0  0  0  0  0  0  0  0  0  0  0
   55.8421   22.2961   49.2903 H   0  0  0  0  0  0  0  0  0  0  0  0
  1  2  1  0
  2  3  2  0
  3  4  1  0
  4  5  1  0
  5  6  1  0
  5  7  2  0
  7  8  1  0
  8  9  2  0
  9 10  1  0
  9 11  1  0
 11 12  1  0
 11 13  2  0
 13 14  1  0
 14 15  2  0
 15 16  1  0
 15 17  1  0
 17 18  1  0
 17 19  2  0
 19 20  1  0
 19 21  1  0
 21 22  1  0
 21 23  2  0
 23 24  1  0
 24 25  2  0
 24 26  2  0
 24 27  1  0
 27 28  1  0
 27 29  1  0
 13 30  1  0
 30 31  1  0
 30 32  2  0
 32 33  1  0
 33 34  1  0
 34 35  1  0
 34 36  1  0
 34 37  1  0
  7 38  1  0
 38 39  1  0
 38 40  2  0
 40 41  1  0
 40  3  1  0
 32  8  1  0
 23 14  1  0
M  CHG  1   4  -1
M  END
>  <UniqueID>  (38) 
34

>  <SMILES>  (38) 
[H]/N=c1/ccc(-c2ccc(-c3ccccc3S(N)(=O)=O)cc2OC)c[n-]1

>  <Energy>  (38) 
56.82203029259101

>  <Genealogy>  (38) 
COc1cc(-c2ccccc2S(N)(=O)=O)ccc1-c1ccc(=N)[n-]c1 (protonated)
[H]/N=c1/ccc(-c2ccc(-c3ccccc3S(N)(=O)=O)cc2OC)c[n-]1 (cis-trans isomerization)
[H]/N=c1/ccc(-c2ccc(-c3ccccc3S(N)(=O)=O)cc2OC)c[n-]1 (3D coordinates assigned)
[H]/N=c1/ccc(-c2ccc(-c3ccccc3S(N)(=O)=O)cc2OC)c[n-]1 (optimized conformer: 56.82203029259101 kcal/mol)

>  <smiles>  (38) 
COc1cc(-c2ccccc2S(N)(=O)=O)ccc1-c1ccc(=N)[nH]c1

>  <score_type>  (38) 
oracle

>  <origin>  (38) 
adg

>  <m_score__min__energy>  (38) 
-10.460000000000001

>  <m_primary>  (38) 
energy

$$$$
38:0
     RDKit          3D

 53 56  0  0  0  0  0  0  0  0999 V2000
   55.1940   29.3530   44.9100 O   0  0  0  0  0  0  0  0  0  0  0  0
   56.4510   29.3970   44.8290 C   0  0  0  0  0  0  0  0  0  0  0  0
   57.2060   28.2170   45.1560 N   0  0  0  0  0  0  0  0  0  0  0  0
   57.0080   27.3750   46.3380 C   0  0  0  0  0  0  0  0  0  0  0  0
   56.1040   26.2330   46.0120 C   0  0  0  0  0  0  0  0  0  0  0  0
   56.5090   24.9390   45.7320 C   0  0  0  0  0  0  0  0  0  0  0  0
   55.3540   24.2320   45.4840 C   0  0  0  0  0  0  0  0  0  0  0  0
   54.3150   25.1370   45.6240 C   0  0  0  0  0  0  0  0  0  0  0  0
   54.7930   26.3210   45.9360 O   0  0  0  0  0  0  0  0  0  0  0  0
   57.0980   30.6710   44.4580 C   0  0  0  0  0  0  0  0  0  0  0  0
   57.1270   31.0680   43.1100 C   0  0  0  0  0  0  0  0  0  0  0  0
   57.7330   32.2750   42.7470 C   0  0  0  0  0  0  0  0  0  0  0  0
   58.3260   33.0850   43.7210 C   0  0  0  0  0  0  0  0  0  0  0  0
   58.3270   32.6840   45.0680 C   0  0  0  0  0  0  0  0  0  0  0  0
   59.1250   33.6740   46.2970 S   0  0  0  0  0  0  0  0  0  0  0  0
   58.2690   33.6650   47.5400 O   0  0  0  0  0  0  0  0  0  0  0  0
   59.2170   35.0980   45.8000 O   0  0  0  0  0  0  0  0  0  0  0  0
   60.7240   33.0580   46.6930 N   0  0  0  0  0  0  0  0  0  0  0  0
   60.6510   31.6760   47.2560 C   0  0  0  0  0  0  0  0  0  0  0  0
   60.8080   31.6200   48.7950 C   0  0  0  0  0  0  0  0  0  0  0  0
   60.2980   32.8500   49.4190 N   0  0  0  0  0  0  0  0  0  0  0  0
   59.3220   32.8170   50.4860 C   0  0  0  0  0  0  0  0  0  0  0  0
   59.2840   33.8550   51.4410 C   0  0  0  0  0  0  0  0  0  0  0  0
   58.3220   33.8530   52.4550 C   0  0  0  0  0  0  0  0  0  0  0  0
   57.3890   32.8140   52.5380 C   0  0  0  0  0  0  0  0  0  0  0  0
   57.4090   31.7810   51.5980 C   0  0  0  0  0  0  0  0  0  0  0  0
   58.3590   31.7850   50.5680 C   0  0  0  0  0  0  0  0  0  0  0  0
   58.2990   30.7990   49.6360 F   0  0  0  0  0  0  0  0  0  0  0  0
   60.8380   34.1380   48.9520 C   0  0  0  0  0  0  0  0  0  0  0  0
   61.4800   33.9930   47.5580 C   0  0  0  0  0  0  0  0  0  0  0  0
   57.7110   31.4780   45.4340 C   0  0  0  0  0  0  0  0  0  0  0  0
   57.9803   26.9846   46.6729 H   0  0  0  0  0  0  0  0  0  0  0  0
   56.5505   27.9784   47.1359 H   0  0  0  0  0  0  0  0  0  0  0  0
   57.5397   24.5554   45.7119 H   0  0  0  0  0  0  0  0  0  0  0  0
   55.2729   23.1655   45.2270 H   0  0  0  0  0  0  0  0  0  0  0  0
   53.2487   24.9002   45.4935 H   0  0  0  0  0  0  0  0  0  0  0  0
   56.6723   30.4283   42.3393 H   0  0  0  0  0  0  0  0  0  0  0  0
   57.7433   32.5882   41.6926 H   0  0  0  0  0  0  0  0  0  0  0  0
   58.7927   34.0382   43.4320 H   0  0  0  0  0  0  0  0  0  0  0  0
   61.2420   33.0020   45.7780 H   0  0  0  0  0  0  0  0  0  0  0  0
   59.6745   31.2445   46.9909 H   0  0  0  0  0  0  0  0  0  0  0  0
   61.4912   31.1102   46.8271 H   0  0  0  0  0  0  0  0  0  0  0  0
   60.2448   30.7587   49.1835 H   0  0  0  0  0  0  0  0  0  0  0  0
   61.8766   31.5203   49.0361 H   0  0  0  0  0  0  0  0  0  0  0  0
   60.0177   34.6728   51.3870 H   0  0  0  0  0  0  0  0  0  0  0  0
   58.2985   34.6710   53.1901 H   0  0  0  0  0  0  0  0  0  0  0  0
   56.6397   32.8105   53.3434 H   0  0  0  0  0  0  0  0  0  0  0  0
   56.6773   30.9625   51.6665 H   0  0  0  0  0  0  0  0  0  0  0  0
   60.0209   34.8724   48.8975 H   0  0  0  0  0  0  0  0  0  0  0  0
   61.6095   34.4731   49.6608 H   0  0  0  0  0  0  0  0  0  0  0  0
   61.5067   34.9809   47.0749 H   0  0  0  0  0  0  0  0  0  0  0  0
   62.4938   33.5877   47.6916 H   0  0  0  0  0  0  0  0  0  0  0  0
   57.7072   31.1622   46.4877 H   0  0  0  0  0  0  0  0  0  0  0  0
  1  2  2  0
  2  3  1  0
  3  4  1  0
  4  5  1  0
  5  6  2  0
  6  7  1  0
  7  8  2  0
  8  9  1  0
  2 10  1  0
 10 11  2  0
 11 12  1  0
 12 13  2  0
 13 14  1  0
 14 15  1  0
 15 16  2  0
 15 17  2  0
 15 18  1  0
 18 19  1  0
 19 20  1  0
 20 21  1  0
 21 22  1  0
 22 23  2  0
 23 24  1  0
 24 25  2  0
 25 26  1  0
 26 27  2  0
 27 28  1  0
 21 29  1  0
 29 30  1  0
 14 31  2  0
  9  5  1  0
 31 10  1  0
 30 18  1  0
 27 22  1  0
  4 32  1  0
  4 33  1  0
  6 34  1  0
  7 35  1  0
  8 36  1  0
 11 37  1  0
 12 38  1  0
 13 39  1  0
 18 40  1  0
 19 41  1  0
 19 42  1  0
 20 43  1  0
 20 44  1  0
 23 45  1  0
 24 46  1  0
 25 47  1  0
 26 48  1  0
 29 49  1  0
 29 50  1  0
 30 51  1  0
 30 52  1  0
 31 53  1  0
M  CHG  2   3  -1  18   1
M  END
>  <UniqueID>  (39) 
35

>  <SMILES>  (39) 
O=C([N-]Cc1ccco1)c1cccc(S(=O)(=O)[NH+]2CCN(c3ccccc3F)CC2)c1

>  <Energy>  (39) 
97.78124148848934

>  <Genealogy>  (39) 
O=C([N-]Cc1ccco1)c1cccc(S(=O)(=O)[NH+]2CCN(c3ccccc3F)CC2)c1 (protonated)
O=C([N-]Cc1ccco1)c1cccc(S(=O)(=O)[NH+]2CCN(c3ccccc3F)CC2)c1 (3D coordinates assigned)
O=C([N-]Cc1ccco1)c1cccc(S(=O)(=O)[NH+]2CCN(c3ccccc3F)CC2)c1 (nonaromatic ring conformer: 97.78124148848934 kcal/mol)

>  <smiles>  (39) 
O=C(NCc1ccco1)c1cccc(S(=O)(=O)N2CCN(c3ccccc3F)CC2)c1

>  <score_type>  (39) 
oracle

>  <origin>  (39) 
adg

>  <m_score__min__energy>  (39) 
-10.59

>  <m_primary>  (39) 
energy

$$$$
39:0
     RDKit          3D

 52 55  0  0  0  0  0  0  0  0999 V2000
   58.0820   33.0900   44.0370 C   0  0  0  0  0  0  0  0  0  0  0  0
   57.9900   34.1320   45.0380 N   0  0  0  0  0  0  0  0  0  0  0  0
   59.2890   34.7140   45.1780 C   0  0  0  0  0  0  0  0  0  0  0  0
   59.6270   35.0990   46.5970 C   0  0  0  0  0  0  0  0  0  0  0  0
   59.4540   33.9790   47.4990 N   0  0  0  0  0  0  0  0  0  0  0  0
   60.2180   33.9680   48.6960 C   0  0  0  0  0  0  0  0  0  0  0  0
   60.9970   34.9650   48.8620 O   0  0  0  0  0  0  0  0  0  0  0  0
   60.1730   32.9410   49.7000 C   0  0  0  0  0  0  0  0  0  0  0  0
   60.0250   33.1570   51.0510 C   0  0  0  0  0  0  0  0  0  0  0  0
   59.9870   32.1260   51.9800 C   0  0  0  0  0  0  0  0  0  0  0  0
   60.1020   30.8190   51.5380 C   0  0  0  0  0  0  0  0  0  0  0  0
   60.2540   30.5620   50.1800 C   0  0  0  0  0  0  0  0  0  0  0  0
   60.3740   29.1480   49.7430 C   0  0  0  0  0  0  0  0  0  0  0  0
   59.6030   28.9300   48.4960 C   0  0  0  0  0  0  0  0  0  0  0  0
   58.4520   28.4380   48.4910 O   0  0  0  0  0  0  0  0  0  0  0  0
   60.1580   29.2800   47.2440 N   0  0  0  0  0  0  0  0  0  0  0  0
   59.3510   29.0380   46.0890 C   0  0  0  0  0  0  0  0  0  0  0  0
   59.7020   27.9570   45.2980 C   0  0  0  0  0  0  0  0  0  0  0  0
   58.9670   27.6570   44.1610 C   0  0  0  0  0  0  0  0  0  0  0  0
   57.8880   28.4550   43.8380 C   0  0  0  0  0  0  0  0  0  0  0  0
   57.0270   28.3960   42.8260 N   0  0  0  0  0  0  0  0  0  0  0  0
   56.1580   29.3950   42.9520 N   0  0  0  0  0  0  0  0  0  0  0  0
   56.4470   30.1170   44.0570 C   0  0  0  0  0  0  0  0  0  0  0  0
   55.8560   31.1290   44.5050 O   0  0  0  0  0  0  0  0  0  0  0  0
   57.5510   29.5390   44.6470 C   0  0  0  0  0  0  0  0  0  0  0  0
   58.2690   29.8570   45.7840 C   0  0  0  0  0  0  0  0  0  0  0  0
   60.2860   31.6260   49.2900 C   0  0  0  0  0  0  0  0  0  0  0  0
   58.5180   32.9460   47.1260 C   0  0  0  0  0  0  0  0  0  0  0  0
   57.4330   33.6140   46.2770 C   0  0  0  0  0  0  0  0  0  0  0  0
   58.1684   32.1119   44.5328 H   0  0  0  0  0  0  0  0  0  0  0  0
   57.1791   33.1042   43.4088 H   0  0  0  0  0  0  0  0  0  0  0  0
   58.9684   33.2622   43.4088 H   0  0  0  0  0  0  0  0  0  0  0  0
   60.0359   33.9865   44.8274 H   0  0  0  0  0  0  0  0  0  0  0  0
   59.2949   35.6386   44.5821 H   0  0  0  0  0  0  0  0  0  0  0  0
   60.6738   35.4344   46.6381 H   0  0  0  0  0  0  0  0  0  0  0  0
   58.9485   35.9063   46.9099 H   0  0  0  0  0  0  0  0  0  0  0  0
   59.9327   34.1924   51.4108 H   0  0  0  0  0  0  0  0  0  0  0  0
   59.8673   32.3443   53.0514 H   0  0  0  0  0  0  0  0  0  0  0  0
   60.0733   29.9877   52.2578 H   0  0  0  0  0  0  0  0  0  0  0  0
   61.4330   28.9126   49.5612 H   0  0  0  0  0  0  0  0  0  0  0  0
   59.9736   28.4937   50.5314 H   0  0  0  0  0  0  0  0  0  0  0  0
   61.1090   29.6980   47.1320 H   0  0  0  0  0  0  0  0  0  0  0  0
   60.5664   27.3344   45.5724 H   0  0  0  0  0  0  0  0  0  0  0  0
   59.2387   26.7992   43.5283 H   0  0  0  0  0  0  0  0  0  0  0  0
   57.0120   27.6930   42.0440 H   0  0  0  0  0  0  0  0  0  0  0  0
   55.3760   29.5730   42.2820 H   0  0  0  0  0  0  0  0  0  0  0  0
   57.9983   30.7153   46.4165 H   0  0  0  0  0  0  0  0  0  0  0  0
   60.4059   31.4148   48.2171 H   0  0  0  0  0  0  0  0  0  0  0  0
   59.0285   32.1660   46.5420 H   0  0  0  0  0  0  0  0  0  0  0  0
   58.0829   32.4689   48.0165 H   0  0  0  0  0  0  0  0  0  0  0  0
   56.6543   32.8740   46.0403 H   0  0  0  0  0  0  0  0  0  0  0  0
   57.0058   34.4517   46.8478 H   0  0  0  0  0  0  0  0  0  0  0  0
  1  2  1  0
  2  3  1  0
  3  4  1  0
  4  5  1  0
  5  6  1  0
  6  7  2  0
  6  8  1  0
  8  9  2  0
  9 10  1  0
 10 11  2  0
 11 12  1  0
 12 13  1  0
 13 14  1  0
 14 15  2  0
 14 16  1  0
 16 17  1  0
 17 18  2  0
 18 19  1  0
 19 20  2  0
 20 21  1  0
 21 22  1  0
 22 23  1  0
 23 24  2  0
 23 25  1  0
 25 26  2  0
 12 27  2  0
  5 28  1  0
 28 29  1  0
 29  2  1  0
 27  8  1  0
 26 17  1  0
 25 20  1  0
  1 30  1  0
  1 31  1  0
  1 32  1  0
  3 33  1  0
  3 34  1  0
  4 35  1  0
  4 36  1  0
  9 37  1  0
 10 38  1  0
 11 39  1  0
 13 40  1  0
 13 41  1  0
 16 42  1  0
 18 43  1  0
 19 44  1  0
 21 45  1  0
 22 46  1  0
 26 47  1  0
 27 48  1  0
 28 49  1  0
 28 50  1  0
 29 51  1  0
 29 52  1  0
M  END
>  <smiles>  (40) 
CN1CCN(C(=O)c2cccc(CC(=O)Nc3ccc4[nH][nH]c(=O)c4c3)c2)CC1

>  <score_type>  (40) 
oracle

>  <origin>  (40) 
adg

>  <m_score__min__energy>  (40) 
-9.4399999999999995

>  <m_primary>  (40) 
energy

$$$$
40:0
     RDKit          3D

 30 31  0  0  0  0  0  0  0  0999 V2000
   59.7708   25.1280   46.5725 H   0  0  0  0  0  0  0  0  0  0  0  0
   58.7260   25.4390   46.4250 C   0  0  0  0  0  0  0  0  0  0  0  0
   58.4420   26.5190   45.6520 N   0  0  0  0  0  0  0  0  0  0  0  0
   57.1690   26.9520   45.4300 C   0  0  0  0  0  0  0  0  0  0  0  0
   57.0130   27.9940   44.6600 N   0  0  0  0  0  0  0  0  0  0  0  0
   57.0520   29.3870   44.9990 C   0  0  0  0  0  0  0  0  0  0  0  0
   56.0180   30.1010   44.8950 O   0  0  0  0  0  0  0  0  0  0  0  0
   58.3660   30.0360   45.3060 C   0  0  0  0  0  0  0  0  0  0  0  0
   59.0583   29.8671   44.4680 H   0  0  0  0  0  0  0  0  0  0  0  0
   58.7745   29.5965   46.2280 H   0  0  0  0  0  0  0  0  0  0  0  0
   58.1840   31.5230   45.5100 C   0  0  0  0  0  0  0  0  0  0  0  0
   57.7830   32.3030   44.4090 C   0  0  0  0  0  0  0  0  0  0  0  0
   57.5946   31.8194   43.4391 H   0  0  0  0  0  0  0  0  0  0  0  0
   57.6220   33.6830   44.5350 C   0  0  0  0  0  0  0  0  0  0  0  0
   57.3065   34.2804   43.6669 H   0  0  0  0  0  0  0  0  0  0  0  0
   57.8600   34.3060   45.7580 C   0  0  0  0  0  0  0  0  0  0  0  0
   57.7276   35.3937   45.8550 H   0  0  0  0  0  0  0  0  0  0  0  0
   58.2660   33.5530   46.8600 C   0  0  0  0  0  0  0  0  0  0  0  0
   58.4503   34.0522   47.8227 H   0  0  0  0  0  0  0  0  0  0  0  0
   58.4420   32.1610   46.7520 C   0  0  0  0  0  0  0  0  0  0  0  0
   58.8670   31.3840   47.9710 C   0  0  0  0  0  0  0  0  0  0  0  0
   58.5678   31.9310   48.8772 H   0  0  0  0  0  0  0  0  0  0  0  0
   58.3838   30.3959   47.9629 H   0  0  0  0  0  0  0  0  0  0  0  0
   59.9597   31.2579   47.9629 H   0  0  0  0  0  0  0  0  0  0  0  0
   56.1000   26.2740   46.0720 C   0  0  0  0  0  0  0  0  0  0  0  0
   54.7840   26.7140   46.0000 O   0  0  0  0  0  0  0  0  0  0  0  0
   56.3790   25.1490   46.8550 C   0  0  0  0  0  0  0  0  0  0  0  0
   55.5568   24.5969   47.3336 H   0  0  0  0  0  0  0  0  0  0  0  0
   57.6950   24.7250   47.0310 C   0  0  0  0  0  0  0  0  0  0  0  0
   57.9167   23.8371   47.6412 H   0  0  0  0  0  0  0  0  0  0  0  0
  1  2  1  0
  2  3  1  0
  3  4  1  0
  4  5  2  0
  5  6  1  0
  6  7  2  0
  6  8  1  0
  8  9  1  0
  8 10  1  0
  8 11  1  0
 11 12  2  0
 12 13  1  0
 12 14  1  0
 14 15  1  0
 14 16  2  0
 16 17  1  0
 16 18  1  0
 18 19  1  0
 18 20  2  0
 20 21  1  0
 21 22  1  0
 21 23  1  0
 21 24  1  0
  4 25  1  0
 25 26  1  0
 25 27  2  0
 27 28  1  0
 27 29  1  0
 29 30  1  0
 29  2  2  0
 20 11  1  0
M  CHG  2   3  -1  26  -1
M  END
>  <UniqueID>  (41) 
36

>  <SMILES>  (41) 
Cc1ccccc1CC(=O)/N=c1/[n-]cccc1[O-]

>  <Energy>  (41) 
42.51621179058412

>  <Genealogy>  (41) 
Cc1ccccc1CC(=O)N=c1[n-]cccc1[O-] (protonated)
Cc1ccccc1CC(=O)/N=c1/[n-]cccc1[O-] (cis-trans isomerization)
Cc1ccccc1CC(=O)/N=c1/[n-]cccc1[O-] (3D coordinates assigned)
Cc1ccccc1CC(=O)/N=c1/[n-]cccc1[O-] (optimized conformer: 42.51621179058412 kcal/mol)

>  <smiles>  (41) 
Cc1ccccc1CC(=O)N=c1[nH]cccc1O

>  <score_type>  (41) 
oracle

>  <origin>  (41) 
adg

>  <m_score__min__energy>  (41) 
-12.859999999999999

>  <m_primary>  (41) 
energy

$$$$
41:0
     RDKit          3D

 42 44  0  0  0  0  0  0  0  0999 V2000
   57.2430   25.1640   46.2580 O   0  0  0  0  0  0  0  0  0  0  0  0
   57.9620   26.1980   46.2490 C   0  0  0  0  0  0  0  0  0  0  0  0
   59.2810   26.1320   46.8010 N   0  0  0  0  0  0  0  0  0  0  0  0
   59.6550   26.6870   48.0970 C   0  0  0  0  0  0  0  0  0  0  0  0
   59.7080   28.1840   47.9990 C   0  0  0  0  0  0  0  0  0  0  0  0
   58.8510   28.9760   48.7790 C   0  0  0  0  0  0  0  0  0  0  0  0
   58.9230   30.3690   48.7120 C   0  0  0  0  0  0  0  0  0  0  0  0
   59.8650   30.9910   47.8770 C   0  0  0  0  0  0  0  0  0  0  0  0
   59.9240   32.4920   47.7760 C   0  0  0  0  0  0  0  0  0  0  0  0
   59.5440   32.9300   46.4190 N   0  0  0  0  0  0  0  0  0  0  0  0
   58.0990   32.8460   46.1830 C   0  0  0  0  0  0  0  0  0  0  0  0
   57.7660   33.8850   45.1240 C   0  0  0  0  0  0  0  0  0  0  0  0
   58.9430   34.8460   45.1150 C   0  0  0  0  0  0  0  0  0  0  0  0
   59.8890   34.3350   46.1910 C   0  0  0  0  0  0  0  0  0  0  0  0
   60.7260   30.2000   47.1020 C   0  0  0  0  0  0  0  0  0  0  0  0
   60.6550   28.8060   47.1690 C   0  0  0  0  0  0  0  0  0  0  0  0
   57.4120   27.4510   45.7000 C   0  0  0  0  0  0  0  0  0  0  0  0
   58.2800   28.4660   45.2790 C   0  0  0  0  0  0  0  0  0  0  0  0
   57.7640   29.6540   44.7580 C   0  0  0  0  0  0  0  0  0  0  0  0
   56.3780   29.8200   44.6750 C   0  0  0  0  0  0  0  0  0  0  0  0
   55.8960   30.8830   44.2040 O   0  0  0  0  0  0  0  0  0  0  0  0
   55.5490   28.8350   45.1090 N   0  0  0  0  0  0  0  0  0  0  0  0
   56.0250   27.6680   45.6210 C   0  0  0  0  0  0  0  0  0  0  0  0
   55.1290   26.7100   46.0820 O   0  0  0  0  0  0  0  0  0  0  0  0
   58.9095   26.3943   48.8510 H   0  0  0  0  0  0  0  0  0  0  0  0
   60.6423   26.3018   48.3917 H   0  0  0  0  0  0  0  0  0  0  0  0
   58.1192   28.4972   49.4462 H   0  0  0  0  0  0  0  0  0  0  0  0
   58.2383   30.9821   49.3164 H   0  0  0  0  0  0  0  0  0  0  0  0
   59.2299   32.9323   48.5070 H   0  0  0  0  0  0  0  0  0  0  0  0
   60.9518   32.8242   47.9842 H   0  0  0  0  0  0  0  0  0  0  0  0
   57.8315   31.8409   45.8248 H   0  0  0  0  0  0  0  0  0  0  0  0
   57.5361   33.0322   47.1096 H   0  0  0  0  0  0  0  0  0  0  0  0
   57.6517   33.4077   44.1395 H   0  0  0  0  0  0  0  0  0  0  0  0
   56.8192   34.4009   45.3415 H   0  0  0  0  0  0  0  0  0  0  0  0
   59.4378   34.8395   44.1326 H   0  0  0  0  0  0  0  0  0  0  0  0
   58.6270   35.8821   45.3062 H   0  0  0  0  0  0  0  0  0  0  0  0
   60.9317   34.4194   45.8508 H   0  0  0  0  0  0  0  0  0  0  0  0
   59.7919   34.9224   47.1160 H   0  0  0  0  0  0  0  0  0  0  0  0
   61.4607   30.6793   46.4383 H   0  0  0  0  0  0  0  0  0  0  0  0
   61.3438   28.1932   46.5690 H   0  0  0  0  0  0  0  0  0  0  0  0
   59.3683   28.3273   45.3588 H   0  0  0  0  0  0  0  0  0  0  0  0
   58.4406   30.4511   44.4164 H   0  0  0  0  0  0  0  0  0  0  0  0
  1  2  2  0
  2  3  1  0
  3  4  1  0
  4  5  1  0
  5  6  2  0
  6  7  1  0
  7  8  2  0
  8  9  1  0
  9 10  1  0
 10 11  1  0
 11 12  1  0
 12 13  1  0
 13 14  1  0
  8 15  1  0
 15 16  2  0
  2 17  1  0
 17 18  1  0
 18 19  2  0
 19 20  1  0
 20 21  2  0
 20 22  1  0
 22 23  1  0
 23 24  1  0
 16  5  1  0
 23 17  2  0
 14 10  1  0
  4 25  1  0
  4 26  1  0
  6 27  1  0
  7 28  1  0
  9 29  1  0
  9 30  1  0
 11 31  1  0
 11 32  1  0
 12 33  1  0
 12 34  1  0
 13 35  1  0
 13 36  1  0
 14 37  1  0
 14 38  1  0
 15 39  1  0
 16 40  1  0
 18 41  1  0
 19 42  1  0
M  CHG  3   3  -1  22  -1  24  -1
M  END
>  <UniqueID>  (42) 
37

>  <SMILES>  (42) 
O=C([N-]Cc1ccc(CN2CCCC2)cc1)c1ccc(=O)[n-]c1[O-]

>  <Energy>  (42) 
50.331797784880585

>  <Genealogy>  (42) 
O=C([N-]Cc1ccc(CN2CCCC2)cc1)c1ccc(=O)[n-]c1[O-] (protonated)
O=C([N-]Cc1ccc(CN2CCCC2)cc1)c1ccc(=O)[n-]c1[O-] (3D coordinates assigned)
O=C([N-]Cc1ccc(CN2CCCC2)cc1)c1ccc(=O)[n-]c1[O-] (nonaromatic ring conformer: 50.331797784880585 kcal/mol)

>  <smiles>  (42) 
O=C(NCc1ccc(CN2CCCC2)cc1)c1ccc(=O)[nH]c1O

>  <score_type>  (42) 
oracle

>  <origin>  (42) 
adg

>  <m_score__min__energy>  (42) 
-14.800000000000001

>  <m_primary>  (42) 
energy

$$$$
42:0
     RDKit          3D

 49 51  0  0  0  0  0  0  0  0999 V2000
   57.1890   31.4030   42.8970 O   0  0  0  0  0  0  0  0  0  0  0  0
   56.9320   30.7870   43.9640 C   0  0  0  0  0  0  0  0  0  0  0  0
   56.5250   29.3410   43.8990 C   0  0  0  0  0  0  0  0  0  0  0  0
   55.9270   28.9310   45.1720 N   0  0  0  0  0  0  0  0  0  0  0  0
   56.6380   27.4410   45.7140 S   0  0  0  0  0  0  0  0  0  0  0  0
   55.5580   26.4370   46.0110 O   0  0  0  0  0  0  0  0  0  0  0  0
   57.4140   27.7070   46.9730 O   0  0  0  0  0  0  0  0  0  0  0  0
   57.7440   26.7830   44.4730 C   0  0  0  0  0  0  0  0  0  0  0  0
   57.7740   25.2820   44.5420 C   0  0  0  0  0  0  0  0  0  0  0  0
   58.5170   24.6320   45.5420 C   0  0  0  0  0  0  0  0  0  0  0  0
   58.5190   23.2350   45.6220 C   0  0  0  0  0  0  0  0  0  0  0  0
   57.7740   22.4810   44.7120 C   0  0  0  0  0  0  0  0  0  0  0  0
   57.0240   23.1210   43.7200 C   0  0  0  0  0  0  0  0  0  0  0  0
   57.0190   24.5160   43.6370 C   0  0  0  0  0  0  0  0  0  0  0  0
   57.0110   31.4960   45.2070 N   0  0  0  0  0  0  0  0  0  0  0  0
   58.0490   32.4040   45.6040 C   0  0  0  0  0  0  0  0  0  0  0  0
   57.8740   33.7940   45.4820 C   0  0  0  0  0  0  0  0  0  0  0  0
   58.8650   34.6730   45.9240 C   0  0  0  0  0  0  0  0  0  0  0  0
   60.0310   34.1770   46.5080 C   0  0  0  0  0  0  0  0  0  0  0  0
   60.2050   32.8000   46.6590 C   0  0  0  0  0  0  0  0  0  0  0  0
   59.2190   31.9050   46.2150 C   0  0  0  0  0  0  0  0  0  0  0  0
   59.4330   30.4900   46.3740 N   0  0  0  0  0  0  0  0  0  0  0  0
   59.2330   29.8580   47.6800 C   0  0  0  0  0  0  0  0  0  0  0  0
   60.2530   28.7280   47.8590 C   0  0  0  0  0  0  0  0  0  0  0  0
   60.2200   27.8400   46.7560 O   0  0  0  0  0  0  0  0  0  0  0  0
   60.6330   28.5150   45.5810 C   0  0  0  0  0  0  0  0  0  0  0  0
   59.6420   29.6220   45.2140 C   0  0  0  0  0  0  0  0  0  0  0  0
   55.7908   29.2052   43.0912 H   0  0  0  0  0  0  0  0  0  0  0  0
   57.4143   28.7241   43.7026 H   0  0  0  0  0  0  0  0  0  0  0  0
   56.1600   29.6570   45.8880 H   0  0  0  0  0  0  0  0  0  0  0  0
   57.3966   27.0933   43.4765 H   0  0  0  0  0  0  0  0  0  0  0  0
   58.7574   27.1693   44.6568 H   0  0  0  0  0  0  0  0  0  0  0  0
   59.0990   25.2233   46.2643 H   0  0  0  0  0  0  0  0  0  0  0  0
   59.1077   22.7301   46.4021 H   0  0  0  0  0  0  0  0  0  0  0  0
   57.7773   21.3829   44.7757 H   0  0  0  0  0  0  0  0  0  0  0  0
   56.4376   22.5258   43.0046 H   0  0  0  0  0  0  0  0  0  0  0  0
   56.4219   25.0165   42.8605 H   0  0  0  0  0  0  0  0  0  0  0  0
   56.9506   34.1914   45.0355 H   0  0  0  0  0  0  0  0  0  0  0  0
   58.7261   35.7584   45.8115 H   0  0  0  0  0  0  0  0  0  0  0  0
   60.8132   34.8709   46.8495 H   0  0  0  0  0  0  0  0  0  0  0  0
   61.1213   32.4137   47.1293 H   0  0  0  0  0  0  0  0  0  0  0  0
   59.3704   30.6060   48.4748 H   0  0  0  0  0  0  0  0  0  0  0  0
   58.2144   29.4467   47.7376 H   0  0  0  0  0  0  0  0  0  0  0  0
   61.2604   29.1617   47.9426 H   0  0  0  0  0  0  0  0  0  0  0  0
   60.0004   28.1667   48.7707 H   0  0  0  0  0  0  0  0  0  0  0  0
   61.6246   28.9601   45.7503 H   0  0  0  0  0  0  0  0  0  0  0  0
   60.6748   27.7906   44.7542 H   0  0  0  0  0  0  0  0  0  0  0  0
   60.0458   30.2146   44.3799 H   0  0  0  0  0  0  0  0  0  0  0  0
   58.6839   29.1732   44.9129 H   0  0  0  0  0  0  0  0  0  0  0  0
  1  2  2  0
  2  3  1  0
  3  4  1  0
  4  5  1  0
  5  6  2  0
  5  7  2  0
  5  8  1  0
  8  9  1  0
  9 10  2  0
 10 11  1  0
 11 12  2  0
 12 13  1  0
 13 14  2  0
  2 15  1  0
 15 16  1  0
 16 17  2  0
 17 18  1  0
 18 19  2  0
 19 20  1  0
 20 21  2  0
 21 22  1  0
 22 23  1  0
 23 24  1  0
 24 25  1  0
 25 26  1  0
 26 27  1  0
 14  9  1  0
 21 16  1  0
 27 22  1  0
  3 28  1  0
  3 29  1  0
  4 30  1  0
  8 31  1  0
  8 32  1  0
 10 33  1  0
 11 34  1  0
 12 35  1  0
 13 36  1  0
 14 37  1  0
 17 38  1  0
 18 39  1  0
 19 40  1  0
 20 41  1  0
 23 42  1  0
 23 43  1  0
 24 44  1  0
 24 45  1  0
 26 46  1  0
 26 47  1  0
 27 48  1  0
 27 49  1  0
M  CHG  1  15  -1
M  END
>  <UniqueID>  (43) 
38

>  <SMILES>  (43) 
O=C(CNS(=O)(=O)Cc1ccccc1)[N-]c1ccccc1N1CCOCC1

>  <Energy>  (43) 
52.97818197852048

>  <Genealogy>  (43) 
O=C(CNS(=O)(=O)Cc1ccccc1)[N-]c1ccccc1N1CCOCC1 (protonated)
O=C(CNS(=O)(=O)Cc1ccccc1)[N-]c1ccccc1N1CCOCC1 (3D coordinates assigned)
O=C(CNS(=O)(=O)Cc1ccccc1)[N-]c1ccccc1N1CCOCC1 (nonaromatic ring conformer: 52.97818197852048 kcal/mol)

>  <smiles>  (43) 
O=C(CNS(=O)(=O)Cc1ccccc1)Nc1ccccc1N1CCOCC1

>  <score_type>  (43) 
oracle

>  <origin>  (43) 
adg

>  <m_score__min__energy>  (43) 
-10.08

>  <m_primary>  (43) 
energy

$$$$
43:0
     RDKit          3D

 53 56  0  0  0  0  0  0  0  0999 V2000
   60.1530   27.0690   46.3870 C   0  0  0  0  0  0  0  0  0  0  0  0
   58.7440   27.6440   46.2780 C   0  0  0  0  0  0  0  0  0  0  0  0
   58.5030   28.7280   47.3390 C   0  0  0  0  0  0  0  0  0  0  0  0
   59.6440   29.7240   47.3820 C   0  0  0  0  0  0  0  0  0  0  0  0
   60.5740   29.7320   48.4460 C   0  0  0  0  0  0  0  0  0  0  0  0
   60.4870   28.8230   49.5060 O   0  0  0  0  0  0  0  0  0  0  0  0
   60.1770   29.2190   50.8410 C   0  0  1  0  0  0  0  0  0  0  0  0
   61.4230   29.7570   51.5720 C   0  0  0  0  0  0  0  0  0  0  0  0
   61.2870   31.2890   51.6250 C   0  0  0  0  0  0  0  0  0  0  0  0
   59.9060   31.5770   51.2770 N   0  0  0  0  0  0  0  0  0  0  0  0
   59.3770   32.9250   51.0920 C   0  0  0  0  0  0  0  0  0  0  0  0
   59.2240   33.2190   49.6320 C   0  0  0  0  0  0  0  0  0  0  0  0
   60.0070   34.1170   48.9100 C   0  0  0  0  0  0  0  0  0  0  0  0
   59.4480   34.1370   47.6500 C   0  0  0  0  0  0  0  0  0  0  0  0
   59.8030   34.8600   46.5120 C   0  0  0  0  0  0  0  0  0  0  0  0
   59.0230   34.6850   45.3550 C   0  0  0  0  0  0  0  0  0  0  0  0
   57.9170   33.8040   45.3630 C   0  0  0  0  0  0  0  0  0  0  0  0
   57.5820   33.0910   46.5290 C   0  0  0  0  0  0  0  0  0  0  0  0
   58.3760   33.2830   47.6590 C   0  0  0  0  0  0  0  0  0  0  0  0
   58.2240   32.7180   48.8690 N   0  0  0  0  0  0  0  0  0  0  0  0
   59.2880   30.3970   50.8010 C   0  0  0  0  0  0  0  0  0  0  0  0
   58.1050   30.3650   50.3680 O   0  0  0  0  0  0  0  0  0  0  0  0
   61.5780   30.7010   48.4800 C   0  0  0  0  0  0  0  0  0  0  0  0
   61.6760   31.6420   47.4510 C   0  0  0  0  0  0  0  0  0  0  0  0
   62.7810   32.6570   47.4750 C   0  0  0  0  0  0  0  0  0  0  0  0
   60.7880   31.6100   46.4180 N   0  0  0  0  0  0  0  0  0  0  0  0
   59.7790   30.6950   46.3670 C   0  0  0  0  0  0  0  0  0  0  0  0
   58.9620   30.7320   45.4070 O   0  0  0  0  0  0  0  0  0  0  0  0
   60.4230   26.9588   47.4476 H   0  0  0  0  0  0  0  0  0  0  0  0
   60.1866   26.0852   45.8960 H   0  0  0  0  0  0  0  0  0  0  0  0
   60.8653   27.7484   45.8960 H   0  0  0  0  0  0  0  0  0  0  0  0
   58.6125   28.0845   45.2787 H   0  0  0  0  0  0  0  0  0  0  0  0
   58.0221   26.8302   46.4411 H   0  0  0  0  0  0  0  0  0  0  0  0
   57.5712   29.2615   47.1001 H   0  0  0  0  0  0  0  0  0  0  0  0
   58.4327   28.2400   48.3223 H   0  0  0  0  0  0  0  0  0  0  0  0
   59.7471   28.3364   51.3372 H   0  0  0  0  0  0  0  0  0  0  0  0
   61.4696   29.3464   52.5914 H   0  0  0  0  0  0  0  0  0  0  0  0
   62.3438   29.4625   51.0471 H   0  0  0  0  0  0  0  0  0  0  0  0
   61.5121   31.6586   52.6363 H   0  0  0  0  0  0  0  0  0  0  0  0
   61.9889   31.7815   50.9359 H   0  0  0  0  0  0  0  0  0  0  0  0
   58.3961   33.0021   51.5839 H   0  0  0  0  0  0  0  0  0  0  0  0
   60.0747   33.6507   51.5353 H   0  0  0  0  0  0  0  0  0  0  0  0
   60.8790   34.6849   49.2666 H   0  0  0  0  0  0  0  0  0  0  0  0
   60.6642   35.5443   46.5189 H   0  0  0  0  0  0  0  0  0  0  0  0
   59.2750   35.2372   44.4376 H   0  0  0  0  0  0  0  0  0  0  0  0
   57.3145   33.6752   44.4517 H   0  0  0  0  0  0  0  0  0  0  0  0
   56.7223   32.4050   46.5484 H   0  0  0  0  0  0  0  0  0  0  0  0
   57.4780   32.0480   49.1630 H   0  0  0  0  0  0  0  0  0  0  0  0
   62.2920   30.7242   49.3164 H   0  0  0  0  0  0  0  0  0  0  0  0
   63.0388   32.8938   48.5178 H   0  0  0  0  0  0  0  0  0  0  0  0
   63.6647   32.2492   46.9624 H   0  0  0  0  0  0  0  0  0  0  0  0
   62.4495   33.5721   46.9624 H   0  0  0  0  0  0  0  0  0  0  0  0
   60.8710   32.3110   45.6470 H   0  0  0  0  0  0  0  0  0  0  0  0
  1  2  1  0
  2  3  1  0
  3  4  1  0
  4  5  2  0
  5  6  1  0
  6  7  1  0
  7  8  1  0
  8  9  1  0
  9 10  1  0
 10 11  1  0
 11 12  1  0
 12 13  2  0
 13 14  1  0
 14 15  2  0
 15 16  1  0
 16 17  2  0
 17 18  1  0
 18 19  2  0
 19 20  1  0
 10 21  1  0
 21 22  2  0
  5 23  1  0
 23 24  2  0
 24 25  1  0
 24 26  1  0
 26 27  1  0
 27 28  2  0
 27  4  1  0
 21  7  1  0
 20 12  1  0
 19 14  1  0
  1 29  1  0
  1 30  1  0
  1 31  1  0
  2 32  1  0
  2 33  1  0
  3 34  1  0
  3 35  1  0
  7 36  1  1
  8 37  1  0
  8 38  1  0
  9 39  1  0
  9 40  1  0
 11 41  1  0
 11 42  1  0
 13 43  1  0
 15 44  1  0
 16 45  1  0
 17 46  1  0
 18 47  1  0
 20 48  1  0
 23 49  1  0
 25 50  1  0
 25 51  1  0
 25 52  1  0
 26 53  1  0
M  END
>  <UniqueID>  (44) 
39

>  <SMILES>  (44) 
CCCc1c(O[C@H]2CCN(Cc3cc4ccccc4[nH]3)C2=O)cc(C)[nH]c1=O

>  <Energy>  (44) 
94.38839759731925

>  <Genealogy>  (44) 
CCCc1c(O[C@H]2CCN(Cc3cc4ccccc4[nH]3)C2=O)cc(C)[nH]c1=O (chirality)
CCCc1c(O[C@H]2CCN(Cc3cc4ccccc4[nH]3)C2=O)cc(C)[nH]c1=O (3D coordinates assigned)
CCCc1c(O[C@H]2CCN(Cc3cc4ccccc4[nH]3)C2=O)cc(C)[nH]c1=O (nonaromatic ring conformer: 94.38839759731925 kcal/mol)

>  <smiles>  (44) 
CCCc1c(OC2CCN(Cc3cc4ccccc4[nH]3)C2=O)cc(C)[nH]c1=O

>  <score_type>  (44) 
oracle

>  <origin>  (44) 
adg

>  <m_score__min__energy>  (44) 
-8.8699999999999992

>  <m_primary>  (44) 
energy

$$$$
44:0
     RDKit          3D

 45 47  0  0  1  0  0  0  0  0999 V2000
   56.7020   21.6690   42.9900 C   0  0  0  0  0  0  0  0  0  0  0  0
   57.3760   32.9540   44.4770 N   0  0  0  0  0  0  0  0  0  0  0  0
   58.1370   33.7370   45.2280 C   0  0  0  0  0  0  0  0  0  0  0  0
   56.6570   23.9090   44.6160 N   0  0  0  0  0  0  0  0  0  0  0  0
   56.6540   24.7850   45.6550 C   0  0  0  0  0  0  0  0  0  0  0  0
   57.7990   25.3080   45.9530 N   0  0  0  0  0  0  0  0  0  0  0  0
   58.0080   26.7110   45.8170 C   0  0  0  0  0  0  0  0  0  0  0  0
   57.7670   27.2450   44.5610 C   0  0  0  0  0  0  0  0  0  0  0  0
   57.9500   28.6100   44.3530 C   0  0  0  0  0  0  0  0  0  0  0  0
   58.3690   29.4380   45.3850 C   0  0  0  0  0  0  0  0  0  0  0  0
   58.5320   30.8180   45.0890 N   0  0  0  0  0  0  0  0  0  0  0  0
   57.3910   31.5730   44.7910 C   0  0  0  0  0  0  0  0  0  0  0  0
   56.2690   30.9710   44.8030 O   0  0  0  0  0  0  0  0  0  0  0  0
   55.5440   22.5030   43.2630 N   0  0  0  0  0  0  0  0  0  0  0  0
   55.4950   23.3230   44.2500 C   0  0  0  0  0  0  0  0  0  0  0  0
   59.0280   34.6830   44.9340 N   0  0  0  0  0  0  0  0  0  0  0  0
   59.5990   35.2590   45.9220 N   0  0  0  0  0  0  0  0  0  0  0  0
   59.4610   35.0860   47.1190 C   0  0  0  0  0  0  0  0  0  0  0  0
   58.1330   33.6870   47.0480 S   0  0  0  0  0  0  0  0  0  0  0  0
   58.5950   28.8710   46.6030 C   0  0  0  0  0  0  0  0  0  0  0  0
   59.0410   29.7180   47.7230 C   0  0  0  0  0  0  0  0  0  0  0  0
   58.4240   27.5160   46.8540 C   0  0  0  0  0  0  0  0  0  0  0  0
   55.5430   25.0960   46.3360 N   0  0  0  0  0  0  0  0  0  0  0  0
   54.3770   24.5120   45.9710 C   0  0  0  0  0  0  0  0  0  0  0  0
   54.3290   23.6160   44.9240 C   0  0  0  0  0  0  0  0  0  0  0  0
   53.1710   22.9870   44.5020 O   0  0  0  0  0  0  0  0  0  0  0  0
   51.9470   23.6900   44.4070 C   0  0  0  0  0  0  0  0  0  0  0  0
   57.1524   21.3447   43.9397 H   0  0  0  0  0  0  0  0  0  0  0  0
   56.3903   20.7867   42.4118 H   0  0  0  0  0  0  0  0  0  0  0  0
   57.4401   22.2443   42.4118 H   0  0  0  0  0  0  0  0  0  0  0  0
   57.5450   23.6840   44.1020 H   0  0  0  0  0  0  0  0  0  0  0  0
   57.4345   26.5972   43.7365 H   0  0  0  0  0  0  0  0  0  0  0  0
   57.7599   29.0375   43.3575 H   0  0  0  0  0  0  0  0  0  0  0  0
   59.4640   31.2940   45.0850 H   0  0  0  0  0  0  0  0  0  0  0  0
   59.2380   34.9290   43.9130 H   0  0  0  0  0  0  0  0  0  0  0  0
   59.9443   35.5761   47.9770 H   0  0  0  0  0  0  0  0  0  0  0  0
   58.7847   29.2312   48.6755 H   0  0  0  0  0  0  0  0  0  0  0  0
   60.1304   29.8591   47.6648 H   0  0  0  0  0  0  0  0  0  0  0  0
   58.5410   30.6960   47.6648 H   0  0  0  0  0  0  0  0  0  0  0  0
   58.6154   27.0974   47.8531 H   0  0  0  0  0  0  0  0  0  0  0  0
   55.5780   25.7700   47.1230 H   0  0  0  0  0  0  0  0  0  0  0  0
   53.4543   24.7561   46.5179 H   0  0  0  0  0  0  0  0  0  0  0  0
   51.5694   23.9069   45.4171 H   0  0  0  0  0  0  0  0  0  0  0  0
   52.1073   24.6337   43.8650 H   0  0  0  0  0  0  0  0  0  0  0  0
   51.2126   23.0760   43.8650 H   0  0  0  0  0  0  0  0  0  0  0  0
  1  2  1  0
  2  3  2  0
  3  4  1  0
  4  5  1  0
  5  6  2  0
  6  7  1  0
  7  8  2  0
  8  9  1  0
  9 10  2  0
 10 11  1  0
 11 12  1  0
 12 13  2  0
 12 14  1  0
 14 15  2  0
 15 16  1  0
 16 17  1  0
 17 18  2  0
 18 19  1  0
 10 20  1  0
 20 21  1  0
 20 22  2  0
  5 23  1  0
 23 24  1  0
 24 25  2  0
 25 26  1  0
 26 27  1  0
 25  3  1  0
 22  7  1  0
 19 15  1  0
  1 28  1  0
  1 29  1  0
  1 30  1  0
  4 31  1  0
  8 32  1  0
  9 33  1  0
 11 34  1  0
 16 35  1  0
 18 36  1  0
 21 37  1  0
 21 38  1  0
 21 39  1  0
 22 40  1  0
 23 41  1  0
 24 42  1  0
 27 43  1  0
 27 44  1  0
 27 45  1  0
M  END
>  <smiles>  (45) 
CN=c1[nH]c(=Nc2ccc(NC(=O)N=c3[nH]ncs3)c(C)c2)[nH]cc1OC

>  <score_type>  (45) 
oracle

>  <origin>  (45) 
adg

>  <m_score__min__energy>  (45) 
-7.8200000000000003

>  <m_primary>  (45) 
energy

$$$$
45:0
     RDKit          3D

 52 55  0  0  0  0  0  0  0  0999 V2000
   56.5210   30.2610   43.0800 O   0  0  0  0  0  0  0  0  0  0  0  0
   56.3390   30.4200   44.3170 C   0  0  0  0  0  0  0  0  0  0  0  0
   56.0550   29.3030   45.1710 N   0  0  0  0  0  0  0  0  0  0  0  0
   56.7180   28.1870   45.3170 C   0  0  0  0  0  0  0  0  0  0  0  0
   58.1020   28.0760   45.0800 C   0  0  0  0  0  0  0  0  0  0  0  0
   58.7360   26.8450   45.2700 C   0  0  0  0  0  0  0  0  0  0  0  0
   58.0060   25.7290   45.7030 C   0  0  0  0  0  0  0  0  0  0  0  0
   58.6670   24.4190   45.9130 C   0  0  0  0  0  0  0  0  0  0  0  0
   59.9250   24.3580   45.9670 O   0  0  0  0  0  0  0  0  0  0  0  0
   57.8690   23.2450   46.1380 N   0  0  0  0  0  0  0  0  0  0  0  0
   57.2370   22.4940   45.2760 C   0  0  0  0  0  0  0  0  0  0  0  0
   56.9690   23.0290   44.0090 C   0  0  0  0  0  0  0  0  0  0  0  0
   56.2870   22.2660   43.0590 C   0  0  0  0  0  0  0  0  0  0  0  0
   55.8990   20.9980   43.3550 N   0  0  0  0  0  0  0  0  0  0  0  0
   56.1650   20.4370   44.5630 C   0  0  0  0  0  0  0  0  0  0  0  0
   56.8400   21.1670   45.5450 C   0  0  0  0  0  0  0  0  0  0  0  0
   56.6340   25.8880   45.9470 C   0  0  0  0  0  0  0  0  0  0  0  0
   56.0380   27.0940   45.7530 N   0  0  0  0  0  0  0  0  0  0  0  0
   56.2750   31.7390   44.8720 N   0  0  0  0  0  0  0  0  0  0  0  0
   57.3810   32.6130   45.1540 C   0  0  0  0  0  0  0  0  0  0  0  0
   57.4260   33.9190   44.6330 C   0  0  0  0  0  0  0  0  0  0  0  0
   58.5220   34.7460   44.8880 C   0  0  0  0  0  0  0  0  0  0  0  0
   59.5850   34.2780   45.6560 C   0  0  0  0  0  0  0  0  0  0  0  0
   59.5660   32.9770   46.1600 C   0  0  0  0  0  0  0  0  0  0  0  0
   58.4750   32.1240   45.9050 C   0  0  0  0  0  0  0  0  0  0  0  0
   58.4500   30.7760   46.4160 N   0  0  0  0  0  0  0  0  0  0  0  0
   59.8670   29.9210   46.9420 S   0  0  0  0  0  0  0  0  0  0  0  0
   60.6190   29.4250   45.7400 O   0  0  0  0  0  0  0  0  0  0  0  0
   59.4510   28.7400   47.7740 O   0  0  0  0  0  0  0  0  0  0  0  0
   60.8800   30.9790   47.9180 C   0  0  0  0  0  0  0  0  0  0  0  0
   60.3960   31.5150   49.1200 C   0  0  0  0  0  0  0  0  0  0  0  0
   61.2070   32.3550   49.8900 C   0  0  0  0  0  0  0  0  0  0  0  0
   62.5010   32.6670   49.4610 C   0  0  0  0  0  0  0  0  0  0  0  0
   63.6070   33.8160   50.5120 Br  0  0  0  0  0  0  0  0  0  0  0  0
   62.9850   32.1370   48.2610 C   0  0  0  0  0  0  0  0  0  0  0  0
   62.1760   31.2960   47.4900 C   0  0  0  0  0  0  0  0  0  0  0  0
   58.6794   28.9514   44.7479 H   0  0  0  0  0  0  0  0  0  0  0  0
   59.8151   26.7511   45.0785 H   0  0  0  0  0  0  0  0  0  0  0  0
   57.2959   24.0500   43.7627 H   0  0  0  0  0  0  0  0  0  0  0  0
   56.0636   22.6920   42.0698 H   0  0  0  0  0  0  0  0  0  0  0  0
   55.8479   19.4041   44.7692 H   0  0  0  0  0  0  0  0  0  0  0  0
   57.0603   20.7102   46.5211 H   0  0  0  0  0  0  0  0  0  0  0  0
   56.0375   25.0326   46.2970 H   0  0  0  0  0  0  0  0  0  0  0  0
   56.5918   34.2915   44.0203 H   0  0  0  0  0  0  0  0  0  0  0  0
   58.5456   35.7680   44.4818 H   0  0  0  0  0  0  0  0  0  0  0  0
   60.4416   34.9354   45.8659 H   0  0  0  0  0  0  0  0  0  0  0  0
   60.4117   32.6141   46.7625 H   0  0  0  0  0  0  0  0  0  0  0  0
   57.5570   30.2370   46.4170 H   0  0  0  0  0  0  0  0  0  0  0  0
   59.3771   31.2745   49.4578 H   0  0  0  0  0  0  0  0  0  0  0  0
   60.8264   32.7709   50.8345 H   0  0  0  0  0  0  0  0  0  0  0  0
   64.0028   32.3817   47.9231 H   0  0  0  0  0  0  0  0  0  0  0  0
   62.5582   30.8823   46.5451 H   0  0  0  0  0  0  0  0  0  0  0  0
  1  2  2  0
  2  3  1  0
  3  4  2  3
  4  5  1  0
  5  6  2  0
  6  7  1  0
  7  8  1  0
  8  9  2  0
  8 10  1  0
 10 11  2  3
 11 12  1  0
 12 13  2  0
 13 14  1  0
 14 15  1  0
 15 16  2  0
  7 17  2  0
 17 18  1  0
  2 19  1  0
 19 20  1  0
 20 21  2  0
 21 22  1  0
 22 23  2  0
 23 24  1  0
 24 25  2  0
 25 26  1  0
 26 27  1  0
 27 28  2  0
 27 29  2  0
 27 30  1  0
 30 31  2  0
 31 32  1  0
 32 33  2  0
 33 34  1  0
 33 35  1  0
 35 36  2  0
 18  4  1  0
 25 20  1  0
 36 30  1  0
 16 11  1  0
  5 37  1  0
  6 38  1  0
 12 39  1  0
 13 40  1  0
 15 41  1  0
 16 42  1  0
 17 43  1  0
 21 44  1  0
 22 45  1  0
 23 46  1  0
 24 47  1  0
 26 48  1  0
 31 49  1  0
 32 50  1  0
 35 51  1  0
 36 52  1  0
M  CHG  3  14  -1  18  -1  19  -1
M  END
>  <UniqueID>  (46) 
40

>  <SMILES>  (46) 
O=C(N=c1ccc(C(=O)N=c2cc[n-]cc2)c[n-]1)[N-]c1ccccc1NS(=O)(=O)c1ccc(Br)cc1

>  <Energy>  (46) 
82.02208182289635

>  <Genealogy>  (46) 
O=C(N=c1ccc(C(=O)N=c2cc[n-]cc2)c[n-]1)[N-]c1ccccc1NS(=O)(=O)c1ccc(Br)cc1 (protonated)
O=C(N=c1ccc(C(=O)N=c2cc[n-]cc2)c[n-]1)[N-]c1ccccc1NS(=O)(=O)c1ccc(Br)cc1 (3D coordinates assigned)
O=C(N=c1ccc(C(=O)N=c2cc[n-]cc2)c[n-]1)[N-]c1ccccc1NS(=O)(=O)c1ccc(Br)cc1 (optimized conformer: 82.02208182289635 kcal/mol)

>  <smiles>  (46) 
O=C(N=c1ccc(C(=O)N=c2cc[nH]cc2)c[nH]1)Nc1ccccc1NS(=O)(=O)c1ccc(Br)cc1

>  <score_type>  (46) 
oracle

>  <origin>  (46) 
adg

>  <m_score__min__energy>  (46) 
-14.52

>  <m_primary>  (46) 
energy

$$$$
46:0
     RDKit          3D

 40 42  0  0  0  0  0  0  0  0999 V2000
   56.2150   30.1250   42.9790 C   0  0  0  0  0  0  0  0  0  0  0  0
   56.2870   30.5740   44.3280 O   0  0  0  0  0  0  0  0  0  0  0  0
   57.1570   30.0470   45.2940 C   0  0  0  0  0  0  0  0  0  0  0  0
   58.2380   30.7850   45.8110 C   0  0  0  0  0  0  0  0  0  0  0  0
   59.0960   30.2140   46.7570 C   0  0  0  0  0  0  0  0  0  0  0  0
   60.1320   30.9130   47.2080 O   0  0  0  0  0  0  0  0  0  0  0  0
   61.0120   30.4160   48.0720 C   0  0  0  0  0  0  0  0  0  0  0  0
   62.1820   31.2210   48.4340 C   0  0  0  0  0  0  0  0  0  0  0  0
   62.9020   30.8620   49.4010 O   0  0  0  0  0  0  0  0  0  0  0  0
   62.4840   32.4470   47.7520 N   0  0  0  0  0  0  0  0  0  0  0  0
   61.8940   33.7500   48.0650 C   0  0  0  0  0  0  0  0  0  0  0  0
   60.5830   33.9470   47.3450 C   0  0  0  0  0  0  0  0  0  0  0  0
   59.3670   33.7500   48.0180 C   0  0  0  0  0  0  0  0  0  0  0  0
   58.1550   33.8360   47.3250 C   0  0  0  0  0  0  0  0  0  0  0  0
   58.1440   34.1190   45.9520 C   0  0  0  0  0  0  0  0  0  0  0  0
   56.8480   34.2060   45.2030 C   0  0  0  0  0  0  0  0  0  0  0  0
   59.3550   34.3690   45.2900 C   0  0  0  0  0  0  0  0  0  0  0  0
   60.5670   34.2840   45.9810 C   0  0  0  0  0  0  0  0  0  0  0  0
   60.8550   29.1210   48.5770 C   0  0  0  0  0  0  0  0  0  0  0  0
   59.7740   28.3520   48.1420 C   0  0  0  0  0  0  0  0  0  0  0  0
   59.6260   27.1800   48.5840 O   0  0  0  0  0  0  0  0  0  0  0  0
   58.8750   28.8940   47.2080 C   0  0  0  0  0  0  0  0  0  0  0  0
   57.7860   28.1650   46.7020 C   0  0  0  0  0  0  0  0  0  0  0  0
   56.9370   28.7390   45.7510 C   0  0  0  0  0  0  0  0  0  0  0  0
   55.8690   28.0010   45.2520 O   0  0  0  0  0  0  0  0  0  0  0  0
   56.0409   29.0390   42.9628 H   0  0  0  0  0  0  0  0  0  0  0  0
   55.3874   30.6367   42.4659 H   0  0  0  0  0  0  0  0  0  0  0  0
   57.1611   30.3523   42.4659 H   0  0  0  0  0  0  0  0  0  0  0  0
   58.4093   31.8165   45.4694 H   0  0  0  0  0  0  0  0  0  0  0  0
   61.7200   33.8131   49.1493 H   0  0  0  0  0  0  0  0  0  0  0  0
   62.5915   34.5343   47.7357 H   0  0  0  0  0  0  0  0  0  0  0  0
   59.3672   33.5270   49.0952 H   0  0  0  0  0  0  0  0  0  0  0  0
   57.2063   33.6809   47.8597 H   0  0  0  0  0  0  0  0  0  0  0  0
   56.0142   34.2620   45.9183 H   0  0  0  0  0  0  0  0  0  0  0  0
   56.8497   35.1061   44.5706 H   0  0  0  0  0  0  0  0  0  0  0  0
   56.7294   33.3138   44.5706 H   0  0  0  0  0  0  0  0  0  0  0  0
   59.3509   34.6331   44.2222 H   0  0  0  0  0  0  0  0  0  0  0  0
   61.5124   34.4818   45.4547 H   0  0  0  0  0  0  0  0  0  0  0  0
   61.5721   28.7148   49.3055 H   0  0  0  0  0  0  0  0  0  0  0  0
   57.6007   27.1398   47.0550 H   0  0  0  0  0  0  0  0  0  0  0  0
  1  2  1  0
  2  3  1  0
  3  4  2  0
  4  5  1  0
  5  6  1  0
  6  7  1  0
  7  8  1  0
  8  9  2  0
  8 10  1  0
 10 11  1  0
 11 12  1  0
 12 13  2  0
 13 14  1  0
 14 15  2  0
 15 16  1  0
 15 17  1  0
 17 18  2  0
  7 19  2  0
 19 20  1  0
 20 21  2  0
 20 22  1  0
 22 23  1  0
 23 24  2  0
 24 25  1  0
 24  3  1  0
 22  5  2  0
 18 12  1  0
  1 26  1  0
  1 27  1  0
  1 28  1  0
  4 29  1  0
 11 30  1  0
 11 31  1  0
 13 32  1  0
 14 33  1  0
 16 34  1  0
 16 35  1  0
 16 36  1  0
 17 37  1  0
 18 38  1  0
 19 39  1  0
 23 40  1  0
M  CHG  2  10  -1  25  -1
M  END
>  <UniqueID>  (47) 
41

>  <SMILES>  (47) 
COc1cc2oc(C(=O)[N-]Cc3ccc(C)cc3)cc(=O)c2cc1[O-]

>  <Energy>  (47) 
47.25113962269416

>  <Genealogy>  (47) 
COc1cc2oc(C(=O)[N-]Cc3ccc(C)cc3)cc(=O)c2cc1[O-] (protonated)
COc1cc2oc(C(=O)[N-]Cc3ccc(C)cc3)cc(=O)c2cc1[O-] (3D coordinates assigned)
COc1cc2oc(C(=O)[N-]Cc3ccc(C)cc3)cc(=O)c2cc1[O-] (optimized conformer: 47.25113962269416 kcal/mol)

>  <smiles>  (47) 
COc1cc2oc(C(=O)NCc3ccc(C)cc3)cc(=O)c2cc1O

>  <score_type>  (47) 
oracle

>  <origin>  (47) 
adg

>  <m_score__min__energy>  (47) 
-10.69

>  <m_primary>  (47) 
energy

$$$$
47:0
     RDKit          3D

 31 33  0  0  0  0  0  0  0  0999 V2000
   58.1620   27.1170   43.2780 C   0  0  0  0  0  0  0  0  0  0  0  0
   58.6660   27.8700   44.4810 C   0  0  0  0  0  0  0  0  0  0  0  0
   60.0160   28.2650   44.5070 C   0  0  0  0  0  0  0  0  0  0  0  0
   60.5420   28.9320   45.6130 C   0  0  0  0  0  0  0  0  0  0  0  0
   59.7300   29.2180   46.7080 C   0  0  0  0  0  0  0  0  0  0  0  0
   58.3840   28.8470   46.6970 C   0  0  0  0  0  0  0  0  0  0  0  0
   57.8270   28.1830   45.5870 C   0  0  0  0  0  0  0  0  0  0  0  0
   56.3820   27.8380   45.6220 C   0  0  0  0  0  0  0  0  0  0  0  0
   55.5220   28.6510   45.1890 O   0  0  0  0  0  0  0  0  0  0  0  0
   55.9610   26.6070   46.2280 N   0  0  0  0  0  0  0  0  0  0  0  0
   56.3530   25.2850   45.8350 C   0  0  0  0  0  0  0  0  0  0  0  0
   57.5320   24.7350   46.3960 C   0  0  0  0  0  0  0  0  0  0  0  0
   57.9740   23.4500   46.0300 C   0  0  0  0  0  0  0  0  0  0  0  0
   57.2210   22.7550   45.0890 C   0  0  0  0  0  0  0  0  0  0  0  0
   57.4470   21.5370   44.5780 N   0  0  0  0  0  0  0  0  0  0  0  0
   56.4270   21.3710   43.7050 C   0  0  0  0  0  0  0  0  0  0  0  0
   56.2860   20.3300   43.0110 O   0  0  0  0  0  0  0  0  0  0  0  0
   55.5680   22.4200   43.6350 N   0  0  0  0  0  0  0  0  0  0  0  0
   56.0960   23.2810   44.5250 C   0  0  0  0  0  0  0  0  0  0  0  0
   55.6290   24.5470   44.8640 C   0  0  0  0  0  0  0  0  0  0  0  0
   57.5785   26.2453   43.6091 H   0  0  0  0  0  0  0  0  0  0  0  0
   57.5233   27.7775   42.6731 H   0  0  0  0  0  0  0  0  0  0  0  0
   59.0161   26.7783   42.6731 H   0  0  0  0  0  0  0  0  0  0  0  0
   60.6637   28.0453   43.6455 H   0  0  0  0  0  0  0  0  0  0  0  0
   61.6000   29.2328   45.6207 H   0  0  0  0  0  0  0  0  0  0  0  0
   60.1497   29.7368   47.5825 H   0  0  0  0  0  0  0  0  0  0  0  0
   57.7505   29.0763   47.5665 H   0  0  0  0  0  0  0  0  0  0  0  0
   58.1094   25.3199   47.1271 H   0  0  0  0  0  0  0  0  0  0  0  0
   58.8811   23.0115   46.4715 H   0  0  0  0  0  0  0  0  0  0  0  0
   58.2260   20.8770   44.7980 H   0  0  0  0  0  0  0  0  0  0  0  0
   54.7259   24.9628   44.3933 H   0  0  0  0  0  0  0  0  0  0  0  0
  1  2  1  0
  2  3  2  0
  3  4  1  0
  4  5  2  0
  5  6  1  0
  6  7  2  0
  7  8  1  0
  8  9  2  0
  8 10  1  0
 10 11  1  0
 11 12  2  0
 12 13  1  0
 13 14  2  0
 14 15  1  0
 15 16  1  0
 16 17  2  0
 16 18  1  0
 18 19  1  0
 19 20  2  0
  7  2  1  0
 20 11  1  0
 19 14  1  0
  1 21  1  0
  1 22  1  0
  1 23  1  0
  3 24  1  0
  4 25  1  0
  5 26  1  0
  6 27  1  0
 12 28  1  0
 13 29  1  0
 15 30  1  0
 20 31  1  0
M  CHG  2  10  -1  18  -1
M  END
>  <UniqueID>  (48) 
42

>  <SMILES>  (48) 
Cc1ccccc1C(=O)[N-]c1ccc2[nH]c(=O)[n-]c2c1

>  <Energy>  (48) 
78.61169560431185

>  <Genealogy>  (48) 
Cc1ccccc1C(=O)[N-]c1ccc2[nH]c(=O)[n-]c2c1 (protonated)
Cc1ccccc1C(=O)[N-]c1ccc2[nH]c(=O)[n-]c2c1 (3D coordinates assigned)
Cc1ccccc1C(=O)[N-]c1ccc2[nH]c(=O)[n-]c2c1 (optimized conformer: 78.61169560431185 kcal/mol)

>  <smiles>  (48) 
Cc1ccccc1C(=O)Nc1ccc2[nH]c(=O)[nH]c2c1

>  <score_type>  (48) 
oracle

>  <origin>  (48) 
adg

>  <m_score__min__energy>  (48) 
-10.56

>  <m_primary>  (48) 
energy

$$$$
48:0
     RDKit          3D

 81 87  0  0  0  0  0  0  0  0999 V2000
   60.8400   33.8130   50.4160 C   0  0  0  0  0  0  0  0  0  0  0  0
   60.2790   32.4640   50.2760 N   0  0  0  0  0  0  0  0  0  0  0  0
   60.8330   31.4670   49.5270 C   0  0  0  0  0  0  0  0  0  0  0  0
   61.9140   31.6290   48.8170 N   0  0  0  0  0  0  0  0  0  0  0  0
   61.9990   32.3050   47.5520 C   0  0  0  0  0  0  0  0  0  0  0  0
   63.0200   32.1110   46.8340 O   0  0  0  0  0  0  0  0  0  0  0  0
   60.8670   33.1240   47.0440 C   0  0  0  0  0  0  0  0  0  0  0  0
   60.9130   34.5090   47.2770 C   0  0  0  0  0  0  0  0  0  0  0  0
   59.9680   35.3610   46.7070 C   0  0  0  0  0  0  0  0  0  0  0  0
   58.9750   34.8490   45.8800 C   0  0  0  0  0  0  0  0  0  0  0  0
   58.8820   33.4690   45.6570 C   0  0  0  0  0  0  0  0  0  0  0  0
   59.8010   32.5850   46.2660 C   0  0  0  0  0  0  0  0  0  0  0  0
   59.6940   31.0890   46.0040 C   0  0  0  0  0  0  0  0  0  0  0  0
   58.4110   30.6640   45.4080 N   0  0  0  0  0  0  0  0  0  0  0  0
   58.1280   29.2480   45.3350 C   0  0  0  0  0  0  0  0  0  0  0  0
   58.1390   28.5840   44.0960 C   0  0  0  0  0  0  0  0  0  0  0  0
   57.8120   27.2290   44.0120 C   0  0  0  0  0  0  0  0  0  0  0  0
   57.4720   26.5050   45.1640 C   0  0  0  0  0  0  0  0  0  0  0  0
   57.0950   25.0710   45.0670 C   0  0  0  0  0  0  0  0  0  0  0  0
   57.7830   24.2100   44.2000 C   0  0  0  0  0  0  0  0  0  0  0  0
   57.4440   22.8590   44.1240 C   0  0  0  0  0  0  0  0  0  0  0  0
   56.4100   22.3300   44.9160 C   0  0  0  0  0  0  0  0  0  0  0  0
   56.0660   20.8950   44.7830 C   0  0  0  0  0  0  0  0  0  0  0  0
   55.9480   20.1730   45.8100 O   0  0  0  0  0  0  0  0  0  0  0  0
   55.8950   20.3140   43.5340 O   0  0  0  0  0  0  0  0  0  0  0  0
   55.7220   23.1910   45.8040 C   0  0  0  0  0  0  0  0  0  0  0  0
   54.7380   22.6940   46.7200 N   0  0  0  0  0  0  0  0  0  0  0  0
   53.3360   22.5790   46.3180 C   0  0  0  0  0  0  0  0  0  0  0  0
   52.7850   21.2280   46.7850 C   0  0  0  0  0  0  0  0  0  0  0  0
   53.0400   21.0240   48.1650 O   0  0  0  0  0  0  0  0  0  0  0  0
   54.4400   20.9480   48.3950 C   0  0  0  0  0  0  0  0  0  0  0  0
   55.1120   22.2860   48.0740 C   0  0  0  0  0  0  0  0  0  0  0  0
   56.0610   24.5510   45.8610 C   0  0  0  0  0  0  0  0  0  0  0  0
   57.4710   27.1660   46.4060 C   0  0  0  0  0  0  0  0  0  0  0  0
   57.7940   28.5230   46.4900 C   0  0  0  0  0  0  0  0  0  0  0  0
   57.3190   31.6200   45.1960 C   0  0  0  0  0  0  0  0  0  0  0  0
   57.8590   32.9480   44.6970 C   0  0  0  0  0  0  0  0  0  0  0  0
   59.9220   30.0350   49.6140 S   0  0  0  0  0  0  0  0  0  0  0  0
   58.8020   30.7150   50.6660 C   0  0  0  0  0  0  0  0  0  0  0  0
   57.6870   30.1110   51.2420 C   0  0  0  0  0  0  0  0  0  0  0  0
   56.8930   30.8720   52.1160 C   0  0  0  0  0  0  0  0  0  0  0  0
   55.4870   30.1490   52.8880 S   0  0  0  0  0  0  0  0  0  0  0  0
   54.0020   30.8200   52.1720 C   0  0  0  0  0  0  0  0  0  0  0  0
   55.5060   30.4430   54.3610 O   0  0  0  0  0  0  0  0  0  0  0  0
   55.5170   28.6580   52.6950 O   0  0  0  0  0  0  0  0  0  0  0  0
   57.2430   32.2090   52.4000 C   0  0  0  0  0  0  0  0  0  0  0  0
   58.3740   32.7970   51.8060 C   0  0  0  0  0  0  0  0  0  0  0  0
   59.1540   32.0340   50.9240 C   0  0  0  0  0  0  0  0  0  0  0  0
   60.9422   34.0587   51.4833 H   0  0  0  0  0  0  0  0  0  0  0  0
   61.8284   33.8508   49.9348 H   0  0  0  0  0  0  0  0  0  0  0  0
   60.1699   34.5406   49.9348 H   0  0  0  0  0  0  0  0  0  0  0  0
   61.7044   34.9261   47.9171 H   0  0  0  0  0  0  0  0  0  0  0  0
   60.0083   36.4409   46.9122 H   0  0  0  0  0  0  0  0  0  0  0  0
   58.2586   35.5307   45.3982 H   0  0  0  0  0  0  0  0  0  0  0  0
   60.5042   30.8011   45.3179 H   0  0  0  0  0  0  0  0  0  0  0  0
   59.7648   30.5930   46.9833 H   0  0  0  0  0  0  0  0  0  0  0  0
   58.4078   29.1371   43.1839 H   0  0  0  0  0  0  0  0  0  0  0  0
   57.8212   26.7253   43.0341 H   0  0  0  0  0  0  0  0  0  0  0  0
   58.5975   24.6035   43.5741 H   0  0  0  0  0  0  0  0  0  0  0  0
   57.9927   22.1993   43.4357 H   0  0  0  0  0  0  0  0  0  0  0  0
   52.7542   23.3918   46.7772 H   0  0  0  0  0  0  0  0  0  0  0  0
   53.2595   22.6497   45.2229 H   0  0  0  0  0  0  0  0  0  0  0  0
   51.6989   21.2036   46.6126 H   0  0  0  0  0  0  0  0  0  0  0  0
   53.2840   20.4304   46.2151 H   0  0  0  0  0  0  0  0  0  0  0  0
   54.6199   20.6972   49.4508 H   0  0  0  0  0  0  0  0  0  0  0  0
   54.8652   20.1717   47.7419 H   0  0  0  0  0  0  0  0  0  0  0  0
   54.7790   23.0480   48.7940 H   0  0  0  0  0  0  0  0  0  0  0  0
   56.2047   22.1787   48.1413 H   0  0  0  0  0  0  0  0  0  0  0  0
   55.5085   25.2195   46.5377 H   0  0  0  0  0  0  0  0  0  0  0  0
   57.2136   26.6095   47.3193 H   0  0  0  0  0  0  0  0  0  0  0  0
   57.7865   29.0267   47.4679 H   0  0  0  0  0  0  0  0  0  0  0  0
   56.6205   31.2112   44.4510 H   0  0  0  0  0  0  0  0  0  0  0  0
   56.8022   31.7850   46.1529 H   0  0  0  0  0  0  0  0  0  0  0  0
   58.3227   32.8064   43.7096 H   0  0  0  0  0  0  0  0  0  0  0  0
   57.0332   33.6702   44.6170 H   0  0  0  0  0  0  0  0  0  0  0  0
   57.4344   29.0641   51.0181 H   0  0  0  0  0  0  0  0  0  0  0  0
   53.3159   31.1300   52.9740 H   0  0  0  0  0  0  0  0  0  0  0  0
   54.2560   31.6908   51.5498 H   0  0  0  0  0  0  0  0  0  0  0  0
   53.5163   30.0539   51.5498 H   0  0  0  0  0  0  0  0  0  0  0  0
   56.6246   32.7978   53.0935 H   0  0  0  0  0  0  0  0  0  0  0  0
   58.6432   33.8399   52.0296 H   0  0  0  0  0  0  0  0  0  0  0  0
  1  2  1  0
  2  3  1  0
  3  4  2  3
  4  5  1  0
  5  6  2  0
  5  7  1  0
  7  8  2  0
  8  9  1  0
  9 10  2  0
 10 11  1  0
 11 12  2  0
 12 13  1  0
 13 14  1  0
 14 15  1  0
 15 16  2  0
 16 17  1  0
 17 18  2  0
 18 19  1  0
 19 20  2  0
 20 21  1  0
 21 22  2  0
 22 23  1  0
 23 24  2  0
 23 25  1  0
 22 26  1  0
 26 27  1  0
 27 28  1  0
 28 29  1  0
 29 30  1  0
 30 31  1  0
 31 32  1  0
 26 33  2  0
 18 34  1  0
 34 35  2  0
 14 36  1  0
 36 37  1  0
  3 38  1  0
 38 39  1  0
 39 40  2  0
 40 41  1  0
 41 42  1  0
 42 43  1  0
 42 44  2  0
 42 45  2  0
 41 46  2  0
 46 47  1  0
 47 48  2  0
 48  2  1  0
 12  7  1  0
 35 15  1  0
 48 39  1  0
 37 11  1  0
 33 19  1  0
 32 27  1  0
  1 49  1  0
  1 50  1  0
  1 51  1  0
  8 52  1  0
  9 53  1  0
 10 54  1  0
 13 55  1  0
 13 56  1  0
 16 57  1  0
 17 58  1  0
 20 59  1  0
 21 60  1  0
 28 61  1  0
 28 62  1  0
 29 63  1  0
 29 64  1  0
 31 65  1  0
 31 66  1  0
 32 67  1  0
 32 68  1  0
 33 69  1  0
 34 70  1  0
 35 71  1  0
 36 72  1  0
 36 73  1  0
 37 74  1  0
 37 75  1  0
 40 76  1  0
 43 77  1  0
 43 78  1  0
 43 79  1  0
 46 80  1  0
 47 81  1  0
M  CHG  1  25  -1
M  END
>  <UniqueID>  (49) 
43

>  <SMILES>  (49) 
Cn1c(=NC(=O)c2cccc3c2CN(c2ccc(-c4ccc(C(=O)[O-])c(N5CCOCC5)c4)cc2)CC3)sc2cc(S(C)(=O)=O)ccc21

>  <Energy>  (49) 
158.75515851244023

>  <Genealogy>  (49) 
Cn1c(=NC(=O)c2cccc3c2CN(c2ccc(-c4ccc(C(=O)[O-])c(N5CCOCC5)c4)cc2)CC3)sc2cc(S(C)(=O)=O)ccc21 (protonated)
Cn1c(=NC(=O)c2cccc3c2CN(c2ccc(-c4ccc(C(=O)[O-])c(N5CCOCC5)c4)cc2)CC3)sc2cc(S(C)(=O)=O)ccc21 (3D coordinates assigned)
Cn1c(=NC(=O)c2cccc3c2CN(c2ccc(-c4ccc(C(=O)[O-])c(N5CCOCC5)c4)cc2)CC3)sc2cc(S(C)(=O)=O)ccc21 (nonaromatic ring conformer: 158.75515851244023 kcal/mol)

>  <smiles>  (49) 
Cn1c(=NC(=O)c2cccc3c2CN(c2ccc(-c4ccc(C(=O)O)c(N5CCOCC5)c4)cc2)CC3)sc2cc(S(C)(=O)=O)ccc21

>  <score_type>  (49) 
oracle

>  <origin>  (49) 
adg

>  <m_score__min__energy>  (49) 
-13.02

>  <m_primary>  (49) 
energy

$$$$
49:0
     RDKit          3D

 60 63  0  0  0  0  0  0  0  0999 V2000
   51.2490   24.6980   51.5860 C   0  0  0  0  0  0  0  0  0  0  0  0
   50.8930   26.1170   51.6270 N   0  0  0  0  0  0  0  0  0  0  0  0
   50.0710   26.4420   52.8040 C   0  0  0  0  0  0  0  0  0  0  0  0
   50.7730   27.3670   53.7750 C   0  0  0  0  0  0  0  0  0  0  0  0
   50.2160   27.6500   54.8680 O   0  0  0  0  0  0  0  0  0  0  0  0
   52.1270   27.7890   53.5680 N   0  0  0  0  0  0  0  0  0  0  0  0
   52.5560   28.9690   52.8760 C   0  0  0  0  0  0  0  0  0  0  0  0
   51.6320   29.9060   52.3960 C   0  0  0  0  0  0  0  0  0  0  0  0
   52.0670   31.0720   51.7450 C   0  0  0  0  0  0  0  0  0  0  0  0
   51.0810   32.0450   51.2240 C   0  0  0  0  0  0  0  0  0  0  0  0
   50.6550   31.9550   50.0420 O   0  0  0  0  0  0  0  0  0  0  0  0
   50.6110   33.0730   52.0330 O   0  0  0  0  0  0  0  0  0  0  0  0
   53.4470   31.3010   51.6030 C   0  0  0  0  0  0  0  0  0  0  0  0
   54.3870   30.3870   52.1140 C   0  0  0  0  0  0  0  0  0  0  0  0
   55.8420   30.6410   51.9780 C   0  0  0  0  0  0  0  0  0  0  0  0
   56.6850   29.7150   51.6710 N   0  0  0  0  0  0  0  0  0  0  0  0
   57.9510   30.2320   51.6160 O   0  0  0  0  0  0  0  0  0  0  0  0
   57.9910   31.6220   51.9070 C   0  0  1  0  0  0  0  0  0  0  0  0
   56.5070   31.9680   52.1750 C   0  0  0  0  0  0  0  0  0  0  0  0
   58.9260   31.8780   53.0950 C   0  0  0  0  0  0  0  0  0  0  0  0
   60.2990   32.1260   52.4620 C   0  0  2  0  0  0  0  0  0  0  0  0
   61.0530   33.2040   53.1930 C   0  0  0  0  0  0  0  0  0  0  0  0
   62.4730   33.1390   53.3110 N   0  0  0  0  0  0  0  0  0  0  0  0
   60.4300   34.1840   53.6830 O   0  0  0  0  0  0  0  0  0  0  0  0
   60.0260   32.5040   51.0760 N   0  0  0  0  0  0  0  0  0  0  0  0
   60.9940   33.0370   50.1520 C   0  0  0  0  0  0  0  0  0  0  0  0
   62.2080   33.0910   50.4890 O   0  0  0  0  0  0  0  0  0  0  0  0
   60.6070   33.5010   48.8050 C   0  0  0  0  0  0  0  0  0  0  0  0
   61.1710   32.9230   47.6570 C   0  0  0  0  0  0  0  0  0  0  0  0
   60.8000   33.3700   46.3860 C   0  0  0  0  0  0  0  0  0  0  0  0
   59.8410   34.3840   46.2450 C   0  0  0  0  0  0  0  0  0  0  0  0
   59.4740   34.8910   44.8810 C   0  0  0  0  0  0  0  0  0  0  0  0
   59.2740   34.9610   47.3910 C   0  0  0  0  0  0  0  0  0  0  0  0
   59.6440   34.5120   48.6620 C   0  0  0  0  0  0  0  0  0  0  0  0
   58.6170   32.3840   50.7370 C   0  0  0  0  0  0  0  0  0  0  0  0
   53.9260   29.2260   52.7590 C   0  0  0  0  0  0  0  0  0  0  0  0
   51.3453   24.3143   52.6124 H   0  0  0  0  0  0  0  0  0  0  0  0
   50.4635   24.1380   51.0574 H   0  0  0  0  0  0  0  0  0  0  0  0
   52.2058   24.5751   51.0574 H   0  0  0  0  0  0  0  0  0  0  0  0
   51.7690   26.6880   51.6330 H   0  0  0  0  0  0  0  0  0  0  0  0
   49.1455   26.9285   52.4623 H   0  0  0  0  0  0  0  0  0  0  0  0
   49.8664   25.5002   53.3342 H   0  0  0  0  0  0  0  0  0  0  0  0
   50.5550   29.7268   52.5303 H   0  0  0  0  0  0  0  0  0  0  0  0
   53.7964   32.2066   51.0856 H   0  0  0  0  0  0  0  0  0  0  0  0
   56.3615   32.3406   53.1997 H   0  0  0  0  0  0  0  0  0  0  0  0
   56.1116   32.7646   51.5276 H   0  0  0  0  0  0  0  0  0  0  0  0
   58.5967   32.7592   53.6651 H   0  0  0  0  0  0  0  0  0  0  0  0
   58.9397   31.0363   53.8031 H   0  0  0  0  0  0  0  0  0  0  0  0
   60.9385   31.2326   52.5158 H   0  0  0  0  0  0  0  0  0  0  0  0
   63.0760   33.0090   52.4690 H   0  0  0  0  0  0  0  0  0  0  0  0
   61.9091   32.1137   47.7583 H   0  0  0  0  0  0  0  0  0  0  0  0
   61.2619   32.9249   45.4924 H   0  0  0  0  0  0  0  0  0  0  0  0
   58.8316   35.7784   44.9803 H   0  0  0  0  0  0  0  0  0  0  0  0
   60.3882   35.1597   44.3315 H   0  0  0  0  0  0  0  0  0  0  0  0
   58.9331   34.1065   44.3315 H   0  0  0  0  0  0  0  0  0  0  0  0
   58.5355   35.7698   47.2891 H   0  0  0  0  0  0  0  0  0  0  0  0
   59.1778   34.9535   49.5552 H   0  0  0  0  0  0  0  0  0  0  0  0
   58.1583   33.3784   50.6337 H   0  0  0  0  0  0  0  0  0  0  0  0
   58.4656   31.8659   49.7785 H   0  0  0  0  0  0  0  0  0  0  0  0
   54.6509   28.5116   53.1764 H   0  0  0  0  0  0  0  0  0  0  0  0
  1  2  1  0
  2  3  1  0
  3  4  1  0
  4  5  2  0
  4  6  1  0
  6  7  1  0
  7  8  2  0
  8  9  1  0
  9 10  1  0
 10 11  2  0
 10 12  1  0
  9 13  2  0
 13 14  1  0
 14 15  1  0
 15 16  2  0
 16 17  1  0
 18 17  1  6
 18 19  1  0
 18 20  1  0
 20 21  1  0
 21 22  1  0
 22 23  1  0
 22 24  2  0
 21 25  1  0
 25 26  1  0
 26 27  2  0
 26 28  1  0
 28 29  2  0
 29 30  1  0
 30 31  2  0
 31 32  1  0
 31 33  1  0
 33 34  2  0
 25 35  1  0
 14 36  2  0
 36  7  1  0
 19 15  1  0
 34 28  1  0
 35 18  1  0
  1 37  1  0
  1 38  1  0
  1 39  1  0
  2 40  1  0
  3 41  1  0
  3 42  1  0
  8 43  1  0
 13 44  1  0
 19 45  1  0
 19 46  1  0
 20 47  1  0
 20 48  1  0
 21 49  1  6
 23 50  1  0
 29 51  1  0
 30 52  1  0
 32 53  1  0
 32 54  1  0
 32 55  1  0
 33 56  1  0
 34 57  1  0
 35 58  1  0
 35 59  1  0
 36 60  1  0
M  CHG  3   6  -1  12  -1  23  -1
M  END
>  <UniqueID>  (50) 
44

>  <SMILES>  (50) 
CNCC(=O)[N-]c1cc(C(=O)[O-])cc(C2=NO[C@@]3(C2)C[C@H](C([NH-])=O)N(C(=O)c2ccc(C)cc2)C3)c1

>  <Energy>  (50) 
88.1065313941487

>  <Genealogy>  (50) 
CNCC(=O)[N-]c1cc(C(=O)[O-])cc(C2=NOC3(C2)CC(C([NH-])=O)N(C(=O)c2ccc(C)cc2)C3)c1 (protonated)
CNCC(=O)[N-]c1cc(C(=O)[O-])cc(C2=NO[C@@]3(C2)C[C@H](C([NH-])=O)N(C(=O)c2ccc(C)cc2)C3)c1 (chirality)
CNCC(=O)[N-]c1cc(C(=O)[O-])cc(C2=NO[C@@]3(C2)C[C@H](C([NH-])=O)N(C(=O)c2ccc(C)cc2)C3)c1 (3D coordinates assigned)
CNCC(=O)[N-]c1cc(C(=O)[O-])cc(C2=NO[C@@]3(C2)C[C@H](C([NH-])=O)N(C(=O)c2ccc(C)cc2)C3)c1 (nonaromatic ring conformer: 88.1065313941487 kcal/mol)

>  <smiles>  (50) 
CNCC(=O)Nc1cc(C(=O)O)cc(C2=NOC3(C2)CC(C(N)=O)N(C(=O)c2ccc(C)cc2)C3)c1

>  <score_type>  (50) 
oracle

>  <origin>  (50) 
adg

>  <m_score__min__energy>  (50) 
-14.16

>  <m_primary>  (50) 
energy

$$$$
50:0
     RDKit          3D

 36 38  0  0  0  0  0  0  0  0999 V2000
   62.1850   30.6630   46.7400 O   0  0  0  0  0  0  0  0  0  0  0  0
   61.0780   30.9340   47.2760 C   0  0  0  0  0  0  0  0  0  0  0  0
   61.0870   31.7290   48.4710 N   0  0  0  0  0  0  0  0  0  0  0  0
   59.9650   32.4730   49.0300 C   0  0  0  0  0  0  0  0  0  0  0  0
   59.9480   33.8990   48.4770 C   0  0  0  0  0  0  0  0  0  0  0  0
   59.1370   33.9870   47.2090 C   0  0  0  0  0  0  0  0  0  0  0  0
   59.6680   34.6110   46.0680 C   0  0  0  0  0  0  0  0  0  0  0  0
   58.9010   34.7180   44.9030 C   0  0  0  0  0  0  0  0  0  0  0  0
   57.5990   34.2100   44.8730 C   0  0  0  0  0  0  0  0  0  0  0  0
   57.0600   33.5980   46.0080 C   0  0  0  0  0  0  0  0  0  0  0  0
   57.8240   33.4890   47.1730 C   0  0  0  0  0  0  0  0  0  0  0  0
   59.8270   30.4240   46.6560 C   0  0  0  0  0  0  0  0  0  0  0  0
   59.1490   29.3300   47.2170 C   0  0  0  0  0  0  0  0  0  0  0  0
   57.9760   28.8670   46.6190 C   0  0  0  0  0  0  0  0  0  0  0  0
   57.3740   27.8840   47.1300 O   0  0  0  0  0  0  0  0  0  0  0  0
   57.4900   29.5040   45.4600 C   0  0  0  0  0  0  0  0  0  0  0  0
   56.3110   29.1010   44.7890 C   0  0  0  0  0  0  0  0  0  0  0  0
   55.5480   28.0300   45.2450 O   0  0  0  0  0  0  0  0  0  0  0  0
   55.8930   29.7850   43.6420 C   0  0  0  0  0  0  0  0  0  0  0  0
   56.6310   30.8640   43.1530 C   0  0  0  0  0  0  0  0  0  0  0  0
   57.7960   31.2700   43.8060 C   0  0  0  0  0  0  0  0  0  0  0  0
   58.2300   30.5990   44.9540 C   0  0  0  0  0  0  0  0  0  0  0  0
   59.3410   31.0010   45.5610 O   0  0  0  0  0  0  0  0  0  0  0  0
   59.0250   31.9683   48.7622 H   0  0  0  0  0  0  0  0  0  0  0  0
   60.0712   32.5138   50.1241 H   0  0  0  0  0  0  0  0  0  0  0  0
   59.5089   34.5698   49.2301 H   0  0  0  0  0  0  0  0  0  0  0  0
   60.9826   34.1941   48.2477 H   0  0  0  0  0  0  0  0  0  0  0  0
   60.6902   35.0168   46.0906 H   0  0  0  0  0  0  0  0  0  0  0  0
   59.3227   35.2022   44.0099 H   0  0  0  0  0  0  0  0  0  0  0  0
   56.9982   34.2920   43.9553 H   0  0  0  0  0  0  0  0  0  0  0  0
   56.0340   33.2020   45.9843 H   0  0  0  0  0  0  0  0  0  0  0  0
   57.3952   33.0110   48.0661 H   0  0  0  0  0  0  0  0  0  0  0  0
   59.5396   28.8411   48.1217 H   0  0  0  0  0  0  0  0  0  0  0  0
   54.9762   29.4700   43.1220 H   0  0  0  0  0  0  0  0  0  0  0  0
   56.2938   31.3957   42.2510 H   0  0  0  0  0  0  0  0  0  0  0  0
   58.3747   32.1205   43.4165 H   0  0  0  0  0  0  0  0  0  0  0  0
  1  2  2  0
  2  3  1  0
  3  4  1  0
  4  5  1  0
  5  6  1  0
  6  7  2  0
  7  8  1  0
  8  9  2  0
  9 10  1  0
 10 11  2  0
  2 12  1  0
 12 13  2  0
 13 14  1  0
 14 15  2  0
 14 16  1  0
 16 17  2  0
 17 18  1  0
 17 19  1  0
 19 20  2  0
 20 21  1  0
 21 22  2  0
 22 23  1  0
 11  6  1  0
 23 12  1  0
 22 16  1  0
  4 24  1  0
  4 25  1  0
  5 26  1  0
  5 27  1  0
  7 28  1  0
  8 29  1  0
  9 30  1  0
 10 31  1  0
 11 32  1  0
 13 33  1  0
 19 34  1  0
 20 35  1  0
 21 36  1  0
M  CHG  2   3  -1  18  -1
M  END
>  <UniqueID>  (51) 
45

>  <SMILES>  (51) 
O=C([N-]CCc1ccccc1)c1cc(=O)c2c([O-])cccc2o1

>  <Energy>  (51) 
42.741188233922394

>  <Genealogy>  (51) 
O=C([N-]CCc1ccccc1)c1cc(=O)c2c([O-])cccc2o1 (protonated)
O=C([N-]CCc1ccccc1)c1cc(=O)c2c([O-])cccc2o1 (3D coordinates assigned)
O=C([N-]CCc1ccccc1)c1cc(=O)c2c([O-])cccc2o1 (optimized conformer: 42.741188233922394 kcal/mol)

>  <smiles>  (51) 
O=C(NCCc1ccccc1)c1cc(=O)c2c(O)cccc2o1

>  <score_type>  (51) 
oracle

>  <origin>  (51) 
adg

>  <m_score__min__energy>  (51) 
-11.91

>  <m_primary>  (51) 
energy

$$$$
51:0
     RDKit          3D

 58 62  0  0  0  0  0  0  0  0999 V2000
   60.0647   35.6632   44.1916 H   0  0  0  0  0  0  0  0  0  0  0  0
   59.5880   34.8820   44.8020 C   0  0  0  0  0  0  0  0  0  0  0  0
   59.7380   34.8970   46.1600 N   0  0  0  0  0  0  0  0  0  0  0  0
   59.1580   33.9190   46.9010 C   0  0  0  0  0  0  0  0  0  0  0  0
   58.4420   32.9040   46.3370 C   0  0  0  0  0  0  0  0  0  0  0  0
   57.9960   32.1080   47.3740 C   0  0  0  0  0  0  0  0  0  0  0  0
   57.3816   31.1986   47.3004 H   0  0  0  0  0  0  0  0  0  0  0  0
   58.4890   32.7010   48.5300 C   0  0  0  0  0  0  0  0  0  0  0  0
   58.3211   32.3190   49.5478 H   0  0  0  0  0  0  0  0  0  0  0  0
   59.2030   33.8110   48.2350 N   0  0  0  0  0  0  0  0  0  0  0  0
   59.6690   34.4560   48.9080 H   0  0  0  0  0  0  0  0  0  0  0  0
   58.2410   32.8550   44.9540 C   0  0  0  0  0  0  0  0  0  0  0  0
   57.4430   31.8810   44.3470 O   0  0  0  0  0  0  0  0  0  0  0  0
   57.3450   30.5630   44.8040 C   0  0  0  0  0  0  0  0  0  0  0  0
   58.4410   29.9700   45.4280 C   0  0  0  0  0  0  0  0  0  0  0  0
   59.3727   30.5415   45.5519 H   0  0  0  0  0  0  0  0  0  0  0  0
   58.3670   28.6550   45.8980 C   0  0  0  0  0  0  0  0  0  0  0  0
   59.9390   27.8400   46.2470 S   0  0  0  0  0  0  0  0  0  0  0  0
   59.8680   28.2660   47.9840 C   0  0  0  0  0  0  0  0  0  0  0  0
   60.7240   27.6390   48.8980 C   0  0  0  0  0  0  0  0  0  0  0  0
   61.4254   26.8653   48.5522 H   0  0  0  0  0  0  0  0  0  0  0  0
   60.6880   27.9960   50.2520 C   0  0  0  0  0  0  0  0  0  0  0  0
   61.3569   27.4989   50.9700 H   0  0  0  0  0  0  0  0  0  0  0  0
   59.8010   28.9850   50.6910 C   0  0  0  0  0  0  0  0  0  0  0  0
   59.7824   29.2755   51.7518 H   0  0  0  0  0  0  0  0  0  0  0  0
   58.9370   29.6050   49.7800 C   0  0  0  0  0  0  0  0  0  0  0  0
   58.2356   30.3782   50.1268 H   0  0  0  0  0  0  0  0  0  0  0  0
   58.9650   29.2420   48.4290 C   0  0  0  0  0  0  0  0  0  0  0  0
   58.2787   29.7223   47.7161 H   0  0  0  0  0  0  0  0  0  0  0  0
   57.1070   27.9880   45.8710 C   0  0  0  0  0  0  0  0  0  0  0  0
   56.8700   26.8410   46.4500 N   0  0  0  0  0  0  0  0  0  0  0  0
   55.9780   25.7830   46.0660 C   0  0  0  0  0  0  0  0  0  0  0  0
   54.8120   26.0560   45.6620 O   0  0  0  0  0  0  0  0  0  0  0  0
   56.4630   24.3880   45.9920 C   0  0  0  0  0  0  0  0  0  0  0  0
   56.8000   23.8120   44.7570 C   0  0  0  0  0  0  0  0  0  0  0  0
   56.7171   24.4108   43.8380 H   0  0  0  0  0  0  0  0  0  0  0  0
   57.2390   22.4890   44.6800 C   0  0  0  0  0  0  0  0  0  0  0  0
   57.5760   21.9730   43.4210 O   0  0  0  0  0  0  0  0  0  0  0  0
   56.7080   21.1800   42.6140 C   0  0  0  0  0  0  0  0  0  0  0  0
   56.0515   20.5802   43.2615 H   0  0  0  0  0  0  0  0  0  0  0  0
   56.0957   21.8371   41.9790 H   0  0  0  0  0  0  0  0  0  0  0  0
   57.3073   20.5109   41.9790 H   0  0  0  0  0  0  0  0  0  0  0  0
   57.3350   21.7230   45.8560 C   0  0  0  0  0  0  0  0  0  0  0  0
   57.6725   20.6775   45.8013 H   0  0  0  0  0  0  0  0  0  0  0  0
   57.0020   22.2860   47.1020 C   0  0  0  0  0  0  0  0  0  0  0  0
   57.1390   21.5760   48.3050 O   0  0  0  0  0  0  0  0  0  0  0  0
   56.1750   21.5660   49.3640 C   0  0  0  0  0  0  0  0  0  0  0  0
   56.6950   21.5714   50.3333 H   0  0  0  0  0  0  0  0  0  0  0  0
   55.5354   22.4576   49.2861 H   0  0  0  0  0  0  0  0  0  0  0  0
   55.5541   20.6614   49.2861 H   0  0  0  0  0  0  0  0  0  0  0  0
   56.5740   23.6170   47.1610 C   0  0  0  0  0  0  0  0  0  0  0  0
   56.3217   24.0645   48.1336 H   0  0  0  0  0  0  0  0  0  0  0  0
   56.0780   28.5730   45.1890 N   0  0  0  0  0  0  0  0  0  0  0  0
   55.1570   28.0780   45.1250 H   0  0  0  0  0  0  0  0  0  0  0  0
   56.1700   29.8230   44.6620 C   0  0  0  0  0  0  0  0  0  0  0  0
   55.3143   30.2532   44.1211 H   0  0  0  0  0  0  0  0  0  0  0  0
   58.8270   33.8730   44.1770 C   0  0  0  0  0  0  0  0  0  0  0  0
   58.6913   33.8809   43.0854 H   0  0  0  0  0  0  0  0  0  0  0  0
  1  2  1  0
  2  3  2  0
  3  4  1  0
  4  5  2  0
  5  6  1  0
  6  7  1  0
  6  8  2  0
  8  9  1  0
  8 10  1  0
 10 11  1  0
  5 12  1  0
 12 13  1  0
 13 14  1  0
 14 15  1  0
 15 16  1  0
 15 17  2  0
 17 18  1  0
 18 19  1  0
 19 20  2  0
 20 21  1  0
 20 22  1  0
 22 23  1  0
 22 24  2  0
 24 25  1  0
 24 26  1  0
 26 27  1  0
 26 28  2  0
 28 29  1  0
 17 30  1  0
 30 31  2  0
 31 32  1  0
 32 33  2  0
 32 34  1  0
 34 35  2  0
 35 36  1  0
 35 37  1  0
 37 38  1  0
 38 39  1  0
 39 40  1  0
 39 41  1  0
 39 42  1  0
 37 43  2  0
 43 44  1  0
 43 45  1  0
 45 46  1  0
 46 47  1  0
 47 48  1  0
 47 49  1  0
 47 50  1  0
 45 51  2  0
 51 52  1  0
 30 53  1  0
 53 54  1  0
 53 55  1  0
 55 56  1  0
 12 57  2  0
 57 58  1  0
 57  2  1  0
 10  4  1  0
 55 14  2  0
 28 19  1  0
 51 34  1  0
M  END
>  <UniqueID>  (52) 
46

>  <SMILES>  (52) 
COc1cc(OC)cc(C(=O)/N=c2/[nH]cc(Oc3ccnc4[nH]ccc34)cc2Sc2ccccc2)c1

>  <Energy>  (52) 
121.7035004668429

>  <Genealogy>  (52) 
COc1cc(OC)cc(C(=O)/N=c2/[nH]cc(Oc3ccnc4[nH]ccc34)cc2Sc2ccccc2)c1 (cis-trans isomerization)
COc1cc(OC)cc(C(=O)/N=c2/[nH]cc(Oc3ccnc4[nH]ccc34)cc2Sc2ccccc2)c1 (3D coordinates assigned)
COc1cc(OC)cc(C(=O)/N=c2/[nH]cc(Oc3ccnc4[nH]ccc34)cc2Sc2ccccc2)c1 (optimized conformer: 121.7035004668429 kcal/mol)

>  <smiles>  (52) 
COc1cc(OC)cc(C(=O)N=c2[nH]cc(Oc3ccnc4[nH]ccc34)cc2Sc2ccccc2)c1

>  <score_type>  (52) 
oracle

>  <origin>  (52) 
adg

>  <m_score__min__energy>  (52) 
-10.56

>  <m_primary>  (52) 
energy

$$$$
52:0
     RDKit          3D

 46 48  0  0  0  0  0  0  0  0999 V2000
   55.3100   23.3180   47.4160 C   0  0  0  0  0  0  0  0  0  0  0  0
   56.7450   22.8940   47.4820 C   0  0  0  0  0  0  0  0  0  0  0  0
   57.0680   21.9490   48.2480 O   0  0  0  0  0  0  0  0  0  0  0  0
   57.7710   23.5560   46.7290 N   0  0  0  0  0  0  0  0  0  0  0  0
   57.7380   24.9020   46.2350 C   0  0  0  0  0  0  0  0  0  0  0  0
   58.0630   25.2080   44.9030 C   0  0  0  0  0  0  0  0  0  0  0  0
   58.0490   26.5340   44.4590 C   0  0  0  0  0  0  0  0  0  0  0  0
   57.7160   27.5740   45.3440 C   0  0  0  0  0  0  0  0  0  0  0  0
   57.7170   28.9480   44.9200 N   0  0  0  0  0  0  0  0  0  0  0  0
   56.5280   29.7000   44.6220 C   0  0  0  0  0  0  0  0  0  0  0  0
   55.3870   29.2200   44.8570 O   0  0  0  0  0  0  0  0  0  0  0  0
   56.6430   31.0810   44.0530 C   0  0  0  0  0  0  0  0  0  0  0  0
   57.9980   31.5260   44.0800 O   0  0  0  0  0  0  0  0  0  0  0  0
   58.5280   32.4950   44.9480 C   0  0  0  0  0  0  0  0  0  0  0  0
   58.6340   33.8500   44.5740 C   0  0  0  0  0  0  0  0  0  0  0  0
   59.1150   34.8000   45.4790 C   0  0  0  0  0  0  0  0  0  0  0  0
   59.4910   34.4120   46.7650 C   0  0  0  0  0  0  0  0  0  0  0  0
   59.4050   33.0730   47.1440 C   0  0  0  0  0  0  0  0  0  0  0  0
   58.9540   32.1040   46.2380 C   0  0  0  0  0  0  0  0  0  0  0  0
   58.8870   30.7400   46.6810 N   0  0  0  0  0  0  0  0  0  0  0  0
   59.9590   29.7880   46.6750 C   0  0  0  0  0  0  0  0  0  0  0  0
   60.6540   29.6640   45.6320 O   0  0  0  0  0  0  0  0  0  0  0  0
   60.2450   28.9190   47.8320 C   0  0  0  0  0  0  0  0  0  0  0  0
   60.2590   29.2910   49.1730 C   0  0  0  0  0  0  0  0  0  0  0  0
   60.5540   28.2310   50.0390 C   0  0  0  0  0  0  0  0  0  0  0  0
   60.7640   27.0210   49.3900 C   0  0  0  0  0  0  0  0  0  0  0  0
   60.5800   27.2730   47.7380 S   0  0  0  0  0  0  0  0  0  0  0  0
   57.4460   27.2700   46.6860 C   0  0  0  0  0  0  0  0  0  0  0  0
   57.4590   25.9440   47.1270 C   0  0  0  0  0  0  0  0  0  0  0  0
   54.9149   23.4347   48.4359 H   0  0  0  0  0  0  0  0  0  0  0  0
   55.2351   24.2767   46.8818 H   0  0  0  0  0  0  0  0  0  0  0  0
   54.7261   22.5540   46.8818 H   0  0  0  0  0  0  0  0  0  0  0  0
   58.3299   24.4003   44.2056 H   0  0  0  0  0  0  0  0  0  0  0  0
   58.2996   26.7641   43.4129 H   0  0  0  0  0  0  0  0  0  0  0  0
   58.6280   29.4610   44.9250 H   0  0  0  0  0  0  0  0  0  0  0  0
   56.2859   31.0738   43.0126 H   0  0  0  0  0  0  0  0  0  0  0  0
   56.0336   31.7659   44.6608 H   0  0  0  0  0  0  0  0  0  0  0  0
   58.3358   34.1619   43.5622 H   0  0  0  0  0  0  0  0  0  0  0  0
   59.1972   35.8545   45.1770 H   0  0  0  0  0  0  0  0  0  0  0  0
   59.8558   35.1633   47.4809 H   0  0  0  0  0  0  0  0  0  0  0  0
   59.6936   32.7749   48.1627 H   0  0  0  0  0  0  0  0  0  0  0  0
   60.0583   30.3159   49.5183 H   0  0  0  0  0  0  0  0  0  0  0  0
   60.6139   28.3458   51.1314 H   0  0  0  0  0  0  0  0  0  0  0  0
   61.0084   26.0636   49.8733 H   0  0  0  0  0  0  0  0  0  0  0  0
   57.2226   28.0801   47.3958 H   0  0  0  0  0  0  0  0  0  0  0  0
   57.2485   25.7175   48.1826 H   0  0  0  0  0  0  0  0  0  0  0  0
  1  2  1  0
  2  3  2  0
  2  4  1  0
  4  5  1  0
  5  6  2  0
  6  7  1  0
  7  8  2  0
  8  9  1  0
  9 10  1  0
 10 11  2  0
 10 12  1  0
 12 13  1  0
 13 14  1  0
 14 15  2  0
 15 16  1  0
 16 17  2  0
 17 18  1  0
 18 19  2  0
 19 20  1  0
 20 21  1  0
 21 22  2  0
 21 23  1  0
 23 24  2  0
 24 25  1  0
 25 26  2  0
 26 27  1  0
  8 28  1  0
 28 29  2  0
 29  5  1  0
 19 14  1  0
 27 23  1  0
  1 30  1  0
  1 31  1  0
  1 32  1  0
  6 33  1  0
  7 34  1  0
  9 35  1  0
 12 36  1  0
 12 37  1  0
 15 38  1  0
 16 39  1  0
 17 40  1  0
 18 41  1  0
 24 42  1  0
 25 43  1  0
 26 44  1  0
 28 45  1  0
 29 46  1  0
M  CHG  2   4  -1  20  -1
M  END
>  <UniqueID>  (53) 
47

>  <SMILES>  (53) 
CC(=O)[N-]c1ccc(NC(=O)COc2ccccc2[N-]C(=O)c2cccs2)cc1

>  <Energy>  (53) 
85.88763030804195

>  <Genealogy>  (53) 
CC(=O)[N-]c1ccc(NC(=O)COc2ccccc2[N-]C(=O)c2cccs2)cc1 (protonated)
CC(=O)[N-]c1ccc(NC(=O)COc2ccccc2[N-]C(=O)c2cccs2)cc1 (3D coordinates assigned)
CC(=O)[N-]c1ccc(NC(=O)COc2ccccc2[N-]C(=O)c2cccs2)cc1 (optimized conformer: 85.88763030804195 kcal/mol)

>  <smiles>  (53) 
CC(=O)Nc1ccc(NC(=O)COc2ccccc2NC(=O)c2cccs2)cc1

>  <score_type>  (53) 
oracle

>  <origin>  (53) 
adg

>  <m_score__min__energy>  (53) 
-11.19

>  <m_primary>  (53) 
energy

$$$$
53:0
     RDKit          3D

 46 48  0  0  0  0  0  0  0  0999 V2000
   59.9260   30.0790   49.2330 C   0  0  0  0  0  0  0  0  0  0  0  0
   59.7920   29.8840   47.7950 N   0  0  0  0  0  0  0  0  0  0  0  0
   60.7630   29.9640   46.8540 C   0  0  0  0  0  0  0  0  0  0  0  0
   60.2070   29.7100   45.6150 C   0  0  0  0  0  0  0  0  0  0  0  0
   58.8630   29.4710   45.8290 C   0  0  0  0  0  0  0  0  0  0  0  0
   57.6480   29.0910   44.6310 S   0  0  0  0  0  0  0  0  0  0  0  0
   57.8180   27.7110   44.0780 O   0  0  0  0  0  0  0  0  0  0  0  0
   56.2850   29.2470   45.2630 O   0  0  0  0  0  0  0  0  0  0  0  0
   57.7350   30.2050   43.3330 N   0  0  0  0  0  0  0  0  0  0  0  0
   56.8960   31.3590   43.5240 C   0  0  0  0  0  0  0  0  0  0  0  0
   57.6260   32.3060   44.4090 C   0  0  0  0  0  0  0  0  0  0  0  0
   58.5130   33.1750   43.7620 C   0  0  0  0  0  0  0  0  0  0  0  0
   59.2100   34.0700   44.5450 C   0  0  0  0  0  0  0  0  0  0  0  0
   59.0520   34.1240   45.9310 C   0  0  0  0  0  0  0  0  0  0  0  0
   59.8610   35.1300   46.6480 C   0  0  0  0  0  0  0  0  0  0  0  0
   60.7040   34.4210   47.5940 N   0  0  0  0  0  0  0  0  0  0  0  0
   61.8980   33.7860   47.1720 C   0  0  0  0  0  0  0  0  0  0  0  0
   62.2200   33.8450   45.9670 O   0  0  0  0  0  0  0  0  0  0  0  0
   62.7300   33.0820   48.1310 C   0  0  0  0  0  0  0  0  0  0  0  0
   62.3940   32.7470   49.4250 C   0  0  0  0  0  0  0  0  0  0  0  0
   63.4790   32.0870   49.9720 C   0  0  0  0  0  0  0  0  0  0  0  0
   63.5270   31.6360   51.1440 O   0  0  0  0  0  0  0  0  0  0  0  0
   64.4300   32.0310   49.0320 N   0  0  0  0  0  0  0  0  0  0  0  0
   63.9790   32.6200   47.9480 N   0  0  0  0  0  0  0  0  0  0  0  0
   58.1720   33.2590   46.5520 C   0  0  0  0  0  0  0  0  0  0  0  0
   57.4530   32.3420   45.7790 C   0  0  0  0  0  0  0  0  0  0  0  0
   58.6350   29.5840   47.1780 C   0  0  0  0  0  0  0  0  0  0  0  0
   59.3802   29.2847   49.7632 H   0  0  0  0  0  0  0  0  0  0  0  0
   60.9897   30.0411   49.5106 H   0  0  0  0  0  0  0  0  0  0  0  0
   59.5093   31.0584   49.5106 H   0  0  0  0  0  0  0  0  0  0  0  0
   61.8216   30.1937   47.0451 H   0  0  0  0  0  0  0  0  0  0  0  0
   60.7313   29.7000   44.6480 H   0  0  0  0  0  0  0  0  0  0  0  0
   58.6740   30.3810   42.9730 H   0  0  0  0  0  0  0  0  0  0  0  0
   56.6883   31.8360   42.5548 H   0  0  0  0  0  0  0  0  0  0  0  0
   55.9372   31.0680   43.9779 H   0  0  0  0  0  0  0  0  0  0  0  0
   58.6484   33.1446   42.6708 H   0  0  0  0  0  0  0  0  0  0  0  0
   59.9135   34.7642   44.0621 H   0  0  0  0  0  0  0  0  0  0  0  0
   60.4849   35.6879   45.9342 H   0  0  0  0  0  0  0  0  0  0  0  0
   59.2114   35.8473   47.1710 H   0  0  0  0  0  0  0  0  0  0  0  0
   60.4690   34.3480   48.6170 H   0  0  0  0  0  0  0  0  0  0  0  0
   61.4405   32.9642   49.9287 H   0  0  0  0  0  0  0  0  0  0  0  0
   65.3770   31.5910   49.1370 H   0  0  0  0  0  0  0  0  0  0  0  0
   64.5310   32.7120   47.0670 H   0  0  0  0  0  0  0  0  0  0  0  0
   58.0382   33.2912   47.6434 H   0  0  0  0  0  0  0  0  0  0  0  0
   56.7490   31.6487   46.2623 H   0  0  0  0  0  0  0  0  0  0  0  0
   57.6625   29.4507   47.6745 H   0  0  0  0  0  0  0  0  0  0  0  0
  1  2  1  0
  2  3  1  0
  3  4  2  0
  4  5  1  0
  5  6  1  0
  6  7  2  0
  6  8  2  0
  6  9  1  0
  9 10  1  0
 10 11  1  0
 11 12  2  0
 12 13  1  0
 13 14  2  0
 14 15  1  0
 15 16  1  0
 16 17  1  0
 17 18  2  0
 17 19  1  0
 19 20  2  0
 20 21  1  0
 21 22  2  0
 21 23  1  0
 23 24  1  0
 14 25  1  0
 25 26  2  0
  5 27  2  0
 27  2  1  0
 26 11  1  0
 24 19  1  0
  1 28  1  0
  1 29  1  0
  1 30  1  0
  3 31  1  0
  4 32  1  0
  9 33  1  0
 10 34  1  0
 10 35  1  0
 12 36  1  0
 13 37  1  0
 15 38  1  0
 15 39  1  0
 16 40  1  0
 20 41  1  0
 23 42  1  0
 24 43  1  0
 25 44  1  0
 26 45  1  0
 27 46  1  0
M  END
>  <smiles>  (54) 
Cn1ccc(S(=O)(=O)NCc2ccc(CNC(=O)c3cc(=O)[nH][nH]3)cc2)c1

>  <score_type>  (54) 
oracle

>  <origin>  (54) 
adg

>  <m_score__min__energy>  (54) 
-9.2200000000000006

>  <m_primary>  (54) 
energy

$$$$
54:0
     RDKit          3D

 39 42  0  0  0  0  0  0  0  0999 V2000
   63.1730   33.6460   49.5040 C   0  0  0  0  0  0  0  0  0  0  0  0
   62.1150   33.2270   48.5250 C   0  0  0  0  0  0  0  0  0  0  0  0
   61.9760   31.8850   48.1660 C   0  0  0  0  0  0  0  0  0  0  0  0
   61.0160   31.5120   47.2300 C   0  0  0  0  0  0  0  0  0  0  0  0
   60.2010   32.4900   46.6410 C   0  0  0  0  0  0  0  0  0  0  0  0
   59.2620   32.1180   45.7230 N   0  0  0  0  0  0  0  0  0  0  0  0
   58.4600   33.0380   45.1220 C   0  0  0  0  0  0  0  0  0  0  0  0
   57.4040   32.5970   44.1480 C   0  0  0  0  0  0  0  0  0  0  0  0
   57.0230   31.1780   44.4240 C   0  0  0  0  0  0  0  0  0  0  0  0
   55.8050   30.8550   44.4600 O   0  0  0  0  0  0  0  0  0  0  0  0
   58.0500   30.2030   44.6420 N   0  0  0  0  0  0  0  0  0  0  0  0
   57.8700   28.8780   45.1610 C   0  0  0  0  0  0  0  0  0  0  0  0
   59.0070   28.1780   45.6350 C   0  0  0  0  0  0  0  0  0  0  0  0
   58.8820   26.8860   46.1770 C   0  0  0  0  0  0  0  0  0  0  0  0
   57.6080   26.3310   46.2420 C   0  0  0  0  0  0  0  0  0  0  0  0
   57.2600   25.1310   46.7280 N   0  0  0  0  0  0  0  0  0  0  0  0
   55.9120   25.1360   46.5550 C   0  0  0  0  0  0  0  0  0  0  0  0
   55.1880   24.1650   46.8920 O   0  0  0  0  0  0  0  0  0  0  0  0
   55.4040   26.2640   45.9970 N   0  0  0  0  0  0  0  0  0  0  0  0
   56.5070   27.0040   45.8070 C   0  0  0  0  0  0  0  0  0  0  0  0
   56.5890   28.2840   45.2650 C   0  0  0  0  0  0  0  0  0  0  0  0
   58.5840   34.3840   45.4640 C   0  0  0  0  0  0  0  0  0  0  0  0
   59.5440   34.7620   46.4000 C   0  0  0  0  0  0  0  0  0  0  0  0
   59.6520   35.9850   46.6980 O   0  0  0  0  0  0  0  0  0  0  0  0
   60.3510   33.8180   46.9860 N   0  0  0  0  0  0  0  0  0  0  0  0
   61.2990   34.1850   47.9090 C   0  0  0  0  0  0  0  0  0  0  0  0
   62.8026   33.4993   50.5293 H   0  0  0  0  0  0  0  0  0  0  0  0
   64.0766   33.0378   49.3500 H   0  0  0  0  0  0  0  0  0  0  0  0
   63.4152   34.7079   49.3500 H   0  0  0  0  0  0  0  0  0  0  0  0
   62.6248   31.1230   48.6226 H   0  0  0  0  0  0  0  0  0  0  0  0
   60.8968   30.4541   46.9531 H   0  0  0  0  0  0  0  0  0  0  0  0
   59.1500   31.1080   45.4760 H   0  0  0  0  0  0  0  0  0  0  0  0
   56.5180   33.2404   44.2535 H   0  0  0  0  0  0  0  0  0  0  0  0
   57.7983   32.6751   43.1241 H   0  0  0  0  0  0  0  0  0  0  0  0
   59.9988   28.6503   45.5785 H   0  0  0  0  0  0  0  0  0  0  0  0
   59.7620   26.3331   46.5373 H   0  0  0  0  0  0  0  0  0  0  0  0
   55.6874   28.8167   44.9284 H   0  0  0  0  0  0  0  0  0  0  0  0
   57.9315   35.1384   45.0002 H   0  0  0  0  0  0  0  0  0  0  0  0
   61.4196   35.2471   48.1687 H   0  0  0  0  0  0  0  0  0  0  0  0
  1  2  1  0
  2  3  1  0
  3  4  2  0
  4  5  1  0
  5  6  2  0
  6  7  1  0
  7  8  1  0
  8  9  1  0
  9 10  2  0
  9 11  1  0
 11 12  1  0
 12 13  2  0
 13 14  1  0
 14 15  2  0
 15 16  1  0
 16 17  1  0
 17 18  2  0
 17 19  1  0
 19 20  1  0
 20 21  2  0
  7 22  2  0
 22 23  1  0
 23 24  2  0
 23 25  1  0
 25 26  1  0
 26  2  2  0
 25  5  1  0
 21 12  1  0
 20 15  1  0
  1 27  1  0
  1 28  1  0
  1 29  1  0
  3 30  1  0
  4 31  1  0
  6 32  1  0
  8 33  1  0
  8 34  1  0
 13 35  1  0
 14 36  1  0
 21 37  1  0
 22 38  1  0
 26 39  1  0
M  CHG  4   6   1  11  -1  16  -1  19  -1
M  END
>  <UniqueID>  (55) 
48

>  <SMILES>  (55) 
Cc1ccc2[nH+]c(CC(=O)[N-]c3ccc4[n-]c(=O)[n-]c4c3)cc(=O)n2c1

>  <Energy>  (55) 
84.88162082799693

>  <Genealogy>  (55) 
Cc1ccc2[nH+]c(CC(=O)[N-]c3ccc4[n-]c(=O)[n-]c4c3)cc(=O)n2c1 (protonated)
Cc1ccc2[nH+]c(CC(=O)[N-]c3ccc4[n-]c(=O)[n-]c4c3)cc(=O)n2c1 (3D coordinates assigned)
Cc1ccc2[nH+]c(CC(=O)[N-]c3ccc4[n-]c(=O)[n-]c4c3)cc(=O)n2c1 (optimized conformer: 84.88162082799693 kcal/mol)

>  <smiles>  (55) 
Cc1ccc2nc(CC(=O)Nc3ccc4[nH]c(=O)[nH]c4c3)cc(=O)n2c1

>  <score_type>  (55) 
oracle

>  <origin>  (55) 
adg

>  <m_score__min__energy>  (55) 
-11.91

>  <m_primary>  (55) 
energy

$$$$
55:0
     RDKit          3D

 38 40  0  0  0  0  0  0  0  0999 V2000
   55.9020   22.2740   42.8850 N   0  0  0  0  0  0  0  0  0  0  0  0
   56.7920   23.2810   43.9730 S   0  0  0  0  0  0  0  0  0  0  0  0
   58.2500   22.9260   43.8890 O   0  0  0  0  0  0  0  0  0  0  0  0
   56.5990   24.7110   43.5530 O   0  0  0  0  0  0  0  0  0  0  0  0
   56.2220   23.0640   45.6360 C   0  0  0  0  0  0  0  0  0  0  0  0
   55.7500   21.8040   46.0380 C   0  0  0  0  0  0  0  0  0  0  0  0
   55.2620   21.6060   47.3330 C   0  0  0  0  0  0  0  0  0  0  0  0
   55.2380   22.6660   48.2410 C   0  0  0  0  0  0  0  0  0  0  0  0
   55.7090   23.9230   47.8610 C   0  0  0  0  0  0  0  0  0  0  0  0
   56.2110   24.1340   46.5650 C   0  0  0  0  0  0  0  0  0  0  0  0
   56.7190   25.4770   46.2180 C   0  0  0  0  0  0  0  0  0  0  0  0
   58.0990   25.7160   46.1970 C   0  0  0  0  0  0  0  0  0  0  0  0
   58.5900   26.9850   45.8770 C   0  0  0  0  0  0  0  0  0  0  0  0
   57.7110   28.0290   45.5650 C   0  0  0  0  0  0  0  0  0  0  0  0
   58.2570   29.3200   45.2600 N   0  0  0  0  0  0  0  0  0  0  0  0
   57.5350   30.5570   45.1800 C   0  0  0  0  0  0  0  0  0  0  0  0
   56.4240   30.6100   44.5850 O   0  0  0  0  0  0  0  0  0  0  0  0
   58.1100   31.7920   45.7450 C   0  0  0  0  0  0  0  0  0  0  0  0
   58.2490   32.9550   44.9680 C   0  0  0  0  0  0  0  0  0  0  0  0
   58.8010   34.1050   45.5420 C   0  0  0  0  0  0  0  0  0  0  0  0
   58.9300   35.1520   44.8530 O   0  0  0  0  0  0  0  0  0  0  0  0
   59.2080   34.0850   46.8810 C   0  0  0  0  0  0  0  0  0  0  0  0
   59.7590   35.2180   47.4710 O   0  0  0  0  0  0  0  0  0  0  0  0
   59.0550   32.9120   47.6220 C   0  0  0  0  0  0  0  0  0  0  0  0
   58.5170   31.8050   47.0450 N   0  0  0  0  0  0  0  0  0  0  0  0
   56.3240   27.7990   45.6220 C   0  0  0  0  0  0  0  0  0  0  0  0
   55.8300   26.5300   45.9430 C   0  0  0  0  0  0  0  0  0  0  0  0
   54.4540   26.3230   45.9840 O   0  0  0  0  0  0  0  0  0  0  0  0
   56.1070   22.6070   41.9170 H   0  0  0  0  0  0  0  0  0  0  0  0
   55.7644   20.9647   45.3271 H   0  0  0  0  0  0  0  0  0  0  0  0
   54.8966   20.6139   47.6368 H   0  0  0  0  0  0  0  0  0  0  0  0
   54.8472   22.5100   49.2574 H   0  0  0  0  0  0  0  0  0  0  0  0
   55.6874   24.7548   48.5805 H   0  0  0  0  0  0  0  0  0  0  0  0
   58.7994   24.9014   46.4334 H   0  0  0  0  0  0  0  0  0  0  0  0
   59.6752   27.1647   45.8703 H   0  0  0  0  0  0  0  0  0  0  0  0
   57.9261   32.9608   43.9165 H   0  0  0  0  0  0  0  0  0  0  0  0
   59.3705   32.8833   48.6754 H   0  0  0  0  0  0  0  0  0  0  0  0
   55.6242   28.6215   45.4130 H   0  0  0  0  0  0  0  0  0  0  0  0
  1  2  1  0
  2  3  2  0
  2  4  2  0
  2  5  1  0
  5  6  2  0
  6  7  1  0
  7  8  2  0
  8  9  1  0
  9 10  2  0
 10 11  1  0
 11 12  2  0
 12 13  1  0
 13 14  2  0
 14 15  1  0
 15 16  1  0
 16 17  2  0
 16 18  1  0
 18 19  2  0
 19 20  1  0
 20 21  2  0
 20 22  1  0
 22 23  1  0
 22 24  2  0
 24 25  1  0
 14 26  1  0
 26 27  2  0
 27 28  1  0
 10  5  1  0
 27 11  1  0
 25 18  1  0
  1 29  1  0
  6 30  1  0
  7 31  1  0
  8 32  1  0
  9 33  1  0
 12 34  1  0
 13 35  1  0
 19 36  1  0
 24 37  1  0
 26 38  1  0
M  CHG  5   1  -1  15  -1  23  -1  25  -1  28  -1
M  END
>  <UniqueID>  (56) 
49

>  <SMILES>  (56) 
[NH-]S(=O)(=O)c1ccccc1-c1ccc([N-]C(=O)c2cc(=O)c([O-])c[n-]2)cc1[O-]

>  <Energy>  (56) 
55.06793488401878

>  <Genealogy>  (56) 
[NH-]S(=O)(=O)c1ccccc1-c1ccc([N-]C(=O)c2cc(=O)c([O-])c[n-]2)cc1[O-] (protonated)
[NH-]S(=O)(=O)c1ccccc1-c1ccc([N-]C(=O)c2cc(=O)c([O-])c[n-]2)cc1[O-] (3D coordinates assigned)
[NH-]S(=O)(=O)c1ccccc1-c1ccc([N-]C(=O)c2cc(=O)c([O-])c[n-]2)cc1[O-] (optimized conformer: 55.06793488401878 kcal/mol)

>  <smiles>  (56) 
NS(=O)(=O)c1ccccc1-c1ccc(NC(=O)c2cc(=O)c(O)c[nH]2)cc1O

>  <score_type>  (56) 
oracle

>  <origin>  (56) 
adg

>  <m_score__min__energy>  (56) 
-16.780000000000001

>  <m_primary>  (56) 
energy

$$$$
56:0
     RDKit          3D

 32 33  0  0  0  0  0  0  0  0999 V2000
   60.4070   27.0880   47.6110 C   0  0  0  0  0  0  0  0  0  0  0  0
   59.1700   27.2950   46.8060 C   0  0  0  0  0  0  0  0  0  0  0  0
   59.0330   28.2770   45.8890 N   0  0  0  0  0  0  0  0  0  0  0  0
   57.8340   28.2050   45.2470 C   0  0  0  0  0  0  0  0  0  0  0  0
   57.4680   29.1590   44.1540 C   0  0  0  0  0  0  0  0  0  0  0  0
   56.2560   29.9400   44.5500 C   0  0  0  0  0  0  0  0  0  0  0  0
   55.2000   29.3320   44.8720 O   0  0  0  0  0  0  0  0  0  0  0  0
   56.3100   31.3710   44.5520 N   0  0  0  0  0  0  0  0  0  0  0  0
   57.3810   32.1820   45.0560 C   0  0  0  0  0  0  0  0  0  0  0  0
   57.4000   33.5790   44.8910 C   0  0  0  0  0  0  0  0  0  0  0  0
   58.4540   34.3340   45.4150 C   0  0  0  0  0  0  0  0  0  0  0  0
   59.4840   33.7080   46.1210 C   0  0  0  0  0  0  0  0  0  0  0  0
   59.4580   32.3220   46.3200 C   0  0  0  0  0  0  0  0  0  0  0  0
   60.7560   31.5300   47.2080 S   0  0  0  0  0  0  0  0  0  0  0  0
   60.9680   29.9210   46.6140 N   0  0  0  0  0  0  0  0  0  0  0  0
   60.4170   31.4830   48.6720 O   0  0  0  0  0  0  0  0  0  0  0  0
   62.0350   32.3010   47.0360 O   0  0  0  0  0  0  0  0  0  0  0  0
   58.4050   31.5650   45.7870 C   0  0  0  0  0  0  0  0  0  0  0  0
   57.0220   27.1380   45.6280 C   0  0  0  0  0  0  0  0  0  0  0  0
   57.8350   26.2750   46.8190 S   0  0  0  0  0  0  0  0  0  0  0  0
   60.1588   27.1295   48.6818 H   0  0  0  0  0  0  0  0  0  0  0  0
   60.8394   26.1050   47.3727 H   0  0  0  0  0  0  0  0  0  0  0  0
   61.1358   27.8767   47.3727 H   0  0  0  0  0  0  0  0  0  0  0  0
   58.3056   29.8495   43.9760 H   0  0  0  0  0  0  0  0  0  0  0  0
   57.2525   28.5940   43.2351 H   0  0  0  0  0  0  0  0  0  0  0  0
   56.5838   34.0786   44.3485 H   0  0  0  0  0  0  0  0  0  0  0  0
   58.4720   35.4244   45.2708 H   0  0  0  0  0  0  0  0  0  0  0  0
   60.3169   34.3047   46.5213 H   0  0  0  0  0  0  0  0  0  0  0  0
   60.5000   29.8770   45.6800 H   0  0  0  0  0  0  0  0  0  0  0  0
   60.4300   29.2880   47.2490 H   0  0  0  0  0  0  0  0  0  0  0  0
   58.3825   30.4765   45.9442 H   0  0  0  0  0  0  0  0  0  0  0  0
   56.0271   26.9029   45.2218 H   0  0  0  0  0  0  0  0  0  0  0  0
  1  2  1  0
  2  3  2  0
  3  4  1  0
  4  5  1  0
  5  6  1  0
  6  7  2  0
  6  8  1  0
  8  9  1  0
  9 10  2  0
 10 11  1  0
 11 12  2  0
 12 13  1  0
 13 14  1  0
 14 15  1  0
 14 16  2  0
 14 17  2  0
 13 18  2  0
  4 19  2  0
 19 20  1  0
 20  2  1  0
 18  9  1  0
  1 21  1  0
  1 22  1  0
  1 23  1  0
  5 24  1  0
  5 25  1  0
 10 26  1  0
 11 27  1  0
 12 28  1  0
 15 29  1  0
 15 30  1  0
 18 31  1  0
 19 32  1  0
M  CHG  1   8  -1
M  END
>  <UniqueID>  (57) 
50

>  <SMILES>  (57) 
Cc1nc(CC(=O)[N-]c2cccc(S(N)(=O)=O)c2)cs1

>  <Energy>  (57) 
59.18262469183993

>  <Genealogy>  (57) 
Cc1nc(CC(=O)[N-]c2cccc(S(N)(=O)=O)c2)cs1 (protonated)
Cc1nc(CC(=O)[N-]c2cccc(S(N)(=O)=O)c2)cs1 (3D coordinates assigned)
Cc1nc(CC(=O)[N-]c2cccc(S(N)(=O)=O)c2)cs1 (optimized conformer: 59.18262469183993 kcal/mol)

>  <smiles>  (57) 
Cc1nc(CC(=O)Nc2cccc(S(N)(=O)=O)c2)cs1

>  <score_type>  (57) 
oracle

>  <origin>  (57) 
adg

>  <m_score__min__energy>  (57) 
-10.039999999999999

>  <m_primary>  (57) 
energy

$$$$
57:0
     RDKit          3D

 75 79  0  0  0  0  0  0  0  0999 V2000
   60.0380   26.7579   46.4474 H   0  0  0  0  0  0  0  0  0  0  0  0
   58.9420   26.7390   46.3560 C   0  0  0  0  0  0  0  0  0  0  0  0
   58.2900   27.7920   45.7980 N   0  0  0  0  0  0  0  0  0  0  0  0
   56.9300   27.8130   45.6700 C   0  0  0  0  0  0  0  0  0  0  0  0
   56.3280   28.8380   45.1450 N   0  0  0  0  0  0  0  0  0  0  0  0
   56.6350   29.3730   43.8180 C   0  0  0  0  0  0  0  0  0  0  0  0
   56.0329   28.8443   43.0644 H   0  0  0  0  0  0  0  0  0  0  0  0
   57.7055   29.2286   43.6104 H   0  0  0  0  0  0  0  0  0  0  0  0
   56.3120   30.8680   43.7660 C   0  0  0  0  0  0  0  0  0  0  0  0
   55.3037   31.0263   44.1762 H   0  0  0  0  0  0  0  0  0  0  0  0
   56.3741   31.1887   42.7156 H   0  0  0  0  0  0  0  0  0  0  0  0
   57.2920   31.6940   44.5580 C   0  0  0  0  0  0  0  0  0  0  0  0
   58.3940   31.1000   45.0960 N   0  0  0  0  0  0  0  0  0  0  0  0
   59.2590   31.7650   45.9110 C   0  0  0  0  0  0  0  0  0  0  0  0
   60.2830   31.1630   46.4430 N   0  0  0  0  0  0  0  0  0  0  0  0
   60.3610   30.6710   47.7900 C   0  0  0  0  0  0  0  0  0  0  0  0
   60.6730   31.4480   48.7330 O   0  0  0  0  0  0  0  0  0  0  0  0
   59.9910   29.3090   48.0530 N   0  0  0  0  0  0  0  0  0  0  0  0
   59.4440   28.8140   47.3130 H   0  0  0  0  0  0  0  0  0  0  0  0
   60.2910   28.5860   49.2610 C   0  0  0  0  0  0  0  0  0  0  0  0
   60.2540   29.2650   50.4880 C   0  0  0  0  0  0  0  0  0  0  0  0
   60.0463   30.3451   50.5057 H   0  0  0  0  0  0  0  0  0  0  0  0
   60.4780   28.5850   51.6880 C   0  0  0  0  0  0  0  0  0  0  0  0
   60.4463   29.1320   52.6418 H   0  0  0  0  0  0  0  0  0  0  0  0
   60.7430   27.2080   51.6810 C   0  0  0  0  0  0  0  0  0  0  0  0
   60.9850   26.4720   52.9730 C   0  0  0  0  0  0  0  0  0  0  0  0
   61.0565   27.2072   53.7881 H   0  0  0  0  0  0  0  0  0  0  0  0
   61.9164   25.8983   52.8576 H   0  0  0  0  0  0  0  0  0  0  0  0
   59.8660   25.4740   53.3090 C   0  0  0  0  0  0  0  0  0  0  0  0
   60.2976   24.6186   53.8494 H   0  0  0  0  0  0  0  0  0  0  0  0
   59.3998   25.1418   52.3697 H   0  0  0  0  0  0  0  0  0  0  0  0
   58.8230   26.1070   54.1560 N   0  0  0  0  0  0  0  0  0  0  0  0
   58.9030   27.5990   54.1650 C   0  0  0  0  0  0  0  0  0  0  0  0
   59.7393   27.9013   53.5175 H   0  0  0  0  0  0  0  0  0  0  0  0
   59.0395   27.8967   55.2151 H   0  0  0  0  0  0  0  0  0  0  0  0
   57.6530   28.3020   53.6800 C   0  0  0  0  0  0  0  0  0  0  0  0
   57.7280   29.5750   53.1000 C   0  0  0  0  0  0  0  0  0  0  0  0
   58.7098   30.0441   52.9389 H   0  0  0  0  0  0  0  0  0  0  0  0
   56.5550   30.2600   52.7210 C   0  0  0  0  0  0  0  0  0  0  0  0
   56.5950   31.5250   52.1120 O   0  0  0  0  0  0  0  0  0  0  0  0
   57.6470   31.9770   51.2650 C   0  0  0  0  0  0  0  0  0  0  0  0
   58.4845   32.3368   51.8807 H   0  0  0  0  0  0  0  0  0  0  0  0
   57.9891   31.1464   50.6301 H   0  0  0  0  0  0  0  0  0  0  0  0
   57.2799   32.7968   50.6301 H   0  0  0  0  0  0  0  0  0  0  0  0
   55.3010   29.6730   52.9580 C   0  0  0  0  0  0  0  0  0  0  0  0
   54.1490   30.3860   52.5830 O   0  0  0  0  0  0  0  0  0  0  0  0
   53.6120   30.4050   51.2660 C   0  0  0  0  0  0  0  0  0  0  0  0
   52.5139   30.4439   51.3183 H   0  0  0  0  0  0  0  0  0  0  0  0
   53.9852   31.2905   50.7306 H   0  0  0  0  0  0  0  0  0  0  0  0
   53.9216   29.4953   50.7306 H   0  0  0  0  0  0  0  0  0  0  0  0
   55.2300   28.4010   53.5580 C   0  0  0  0  0  0  0  0  0  0  0  0
   54.2500   27.9406   53.7517 H   0  0  0  0  0  0  0  0  0  0  0  0
   56.4020   27.7200   53.9090 C   0  0  0  0  0  0  0  0  0  0  0  0
   56.3600   26.3500   54.5090 C   0  0  0  0  0  0  0  0  0  0  0  0
   55.3898   25.8788   54.2929 H   0  0  0  0  0  0  0  0  0  0  0  0
   56.4877   26.4098   55.5999 H   0  0  0  0  0  0  0  0  0  0  0  0
   57.4850   25.5220   53.8920 C   0  0  0  0  0  0  0  0  0  0  0  0
   57.3301   25.4692   52.8042 H   0  0  0  0  0  0  0  0  0  0  0  0
   57.4579   24.5222   54.3499 H   0  0  0  0  0  0  0  0  0  0  0  0
   60.7790   26.5230   50.4580 C   0  0  0  0  0  0  0  0  0  0  0  0
   60.9958   25.4447   50.4417 H   0  0  0  0  0  0  0  0  0  0  0  0
   60.5410   27.2020   49.2590 C   0  0  0  0  0  0  0  0  0  0  0  0
   60.5494   26.6498   48.3077 H   0  0  0  0  0  0  0  0  0  0  0  0
   59.0100   33.1040   46.2280 C   0  0  0  0  0  0  0  0  0  0  0  0
   59.6901   33.6517   46.8970 H   0  0  0  0  0  0  0  0  0  0  0  0
   57.8910   33.7390   45.6880 C   0  0  0  0  0  0  0  0  0  0  0  0
   57.6967   34.7974   45.9160 H   0  0  0  0  0  0  0  0  0  0  0  0
   57.0180   33.0330   44.8590 C   0  0  0  0  0  0  0  0  0  0  0  0
   56.1241   33.5238   44.4466 H   0  0  0  0  0  0  0  0  0  0  0  0
   56.1750   26.7140   46.1160 C   0  0  0  0  0  0  0  0  0  0  0  0
   54.7890   26.7060   45.9950 O   0  0  0  0  0  0  0  0  0  0  0  0
   56.8290   25.6230   46.6930 C   0  0  0  0  0  0  0  0  0  0  0  0
   56.2498   24.7592   47.0513 H   0  0  0  0  0  0  0  0  0  0  0  0
   58.2230   25.6320   46.8140 C   0  0  0  0  0  0  0  0  0  0  0  0
   58.7473   24.7766   47.2649 H   0  0  0  0  0  0  0  0  0  0  0  0
  1  2  1  0
  2  3  1  0
  3  4  1  0
  4  5  2  0
  5  6  1  0
  6  7  1  0
  6  8  1  0
  6  9  1  0
  9 10  1  0
  9 11  1  0
  9 12  1  0
 12 13  1  0
 13 14  1  0
 14 15  2  3
 15 16  1  0
 16 17  2  0
 16 18  1  0
 18 19  1  0
 18 20  1  0
 20 21  2  0
 21 22  1  0
 21 23  1  0
 23 24  1  0
 23 25  2  0
 25 26  1  0
 26 27  1  0
 26 28  1  0
 26 29  1  0
 29 30  1  0
 29 31  1  0
 29 32  1  0
 32 33  1  0
 33 34  1  0
 33 35  1  0
 33 36  1  0
 36 37  2  0
 37 38  1  0
 37 39  1  0
 39 40  1  0
 40 41  1  0
 41 42  1  0
 41 43  1  0
 41 44  1  0
 39 45  2  0
 45 46  1  0
 46 47  1  0
 47 48  1  0
 47 49  1  0
 47 50  1  0
 45 51  1  0
 51 52  1  0
 51 53  2  0
 53 54  1  0
 54 55  1  0
 54 56  1  0
 54 57  1  0
 57 58  1  0
 57 59  1  0
 25 60  1  0
 60 61  1  0
 60 62  2  0
 62 63  1  0
 14 64  1  0
 64 65  1  0
 64 66  2  0
 66 67  1  0
 66 68  1  0
 68 69  1  0
  4 70  1  0
 70 71  1  0
 70 72  2  0
 72 73  1  0
 72 74  1  0
 74 75  1  0
 74  2  2  0
 68 12  2  0
 62 20  1  0
 57 32  1  0
 53 36  1  0
M  CHG  3   3  -1  13  -1  71  -1
M  END
>  <UniqueID>  (58) 
51

>  <SMILES>  (58) 
COc1cc2c(cc1OC)CN(CCc1ccc(NC(=O)N=c3cccc(CC/N=c4\[n-]cccc4[O-])[n-]3)cc1)CC2

>  <Energy>  (58) 
95.56951127285166

>  <Genealogy>  (58) 
COc1cc2c(cc1OC)CN(CCc1ccc(NC(=O)N=c3cccc(CCN=c4[n-]cccc4[O-])[n-]3)cc1)CC2 (protonated)
COc1cc2c(cc1OC)CN(CCc1ccc(NC(=O)N=c3cccc(CC/N=c4\[n-]cccc4[O-])[n-]3)cc1)CC2 (cis-trans isomerization)
COc1cc2c(cc1OC)CN(CCc1ccc(NC(=O)N=c3cccc(CC/N=c4\[n-]cccc4[O-])[n-]3)cc1)CC2 (3D coordinates assigned)
COc1cc2c(cc1OC)CN(CCc1ccc(NC(=O)N=c3cccc(CC/N=c4\[n-]cccc4[O-])[n-]3)cc1)CC2 (nonaromatic ring conformer: 95.56951127285166 kcal/mol)

>  <smiles>  (58) 
COc1cc2c(cc1OC)CN(CCc1ccc(NC(=O)N=c3cccc(CCN=c4[nH]cccc4O)[nH]3)cc1)CC2

>  <score_type>  (58) 
oracle

>  <origin>  (58) 
adg

>  <m_score__min__energy>  (58) 
-15.76

>  <m_primary>  (58) 
energy

$$$$
58:0
     RDKit          3D

 42 44  0  0  0  0  0  0  0  0999 V2000
   58.4540   27.3900   43.5760 C   0  0  0  0  0  0  0  0  0  0  0  0
   58.7590   27.5310   45.0450 C   0  0  0  0  0  0  0  0  0  0  0  0
   60.0980   27.4530   45.4710 C   0  0  0  0  0  0  0  0  0  0  0  0
   60.4230   27.6020   46.8200 C   0  0  0  0  0  0  0  0  0  0  0  0
   59.4180   27.8230   47.7610 C   0  0  0  0  0  0  0  0  0  0  0  0
   58.0840   27.8890   47.3590 C   0  0  0  0  0  0  0  0  0  0  0  0
   57.7350   27.7400   46.0040 C   0  0  0  0  0  0  0  0  0  0  0  0
   56.3020   27.7960   45.6260 C   0  0  0  0  0  0  0  0  0  0  0  0
   55.5520   26.8180   45.8860 O   0  0  0  0  0  0  0  0  0  0  0  0
   55.7200   28.9730   45.0500 N   0  0  0  0  0  0  0  0  0  0  0  0
   56.4130   29.9770   44.2940 C   0  0  0  0  0  0  0  0  0  0  0  0
   56.2990   30.0560   42.8960 C   0  0  0  0  0  0  0  0  0  0  0  0
   56.9740   31.0540   42.1940 C   0  0  0  0  0  0  0  0  0  0  0  0
   57.7500   31.9910   42.8800 C   0  0  0  0  0  0  0  0  0  0  0  0
   57.8530   31.9460   44.2760 C   0  0  0  0  0  0  0  0  0  0  0  0
   58.6570   32.9410   44.9260 N   0  0  0  0  0  0  0  0  0  0  0  0
   58.9750   33.1090   46.6250 S   0  0  0  0  0  0  0  0  0  0  0  0
   58.5410   34.4570   47.1290 O   0  0  0  0  0  0  0  0  0  0  0  0
   58.1670   32.0690   47.3490 O   0  0  0  0  0  0  0  0  0  0  0  0
   60.6900   32.8510   46.9530 C   0  0  0  0  0  0  0  0  0  0  0  0
   61.6390   33.8010   46.5470 C   0  0  0  0  0  0  0  0  0  0  0  0
   62.9980   33.5950   46.8030 C   0  0  0  0  0  0  0  0  0  0  0  0
   63.4190   32.4410   47.4670 C   0  0  0  0  0  0  0  0  0  0  0  0
   62.4810   31.4890   47.8740 C   0  0  0  0  0  0  0  0  0  0  0  0
   61.1200   31.6910   47.6190 C   0  0  0  0  0  0  0  0  0  0  0  0
   57.1730   30.9340   44.9790 C   0  0  0  0  0  0  0  0  0  0  0  0
   57.4621   26.9315   43.4498 H   0  0  0  0  0  0  0  0  0  0  0  0
   58.4617   28.3831   43.1029 H   0  0  0  0  0  0  0  0  0  0  0  0
   59.2155   26.7526   43.1029 H   0  0  0  0  0  0  0  0  0  0  0  0
   60.8951   27.2731   44.7346 H   0  0  0  0  0  0  0  0  0  0  0  0
   61.4735   27.5450   47.1414 H   0  0  0  0  0  0  0  0  0  0  0  0
   59.6778   27.9456   48.8228 H   0  0  0  0  0  0  0  0  0  0  0  0
   57.2971   28.0592   48.1085 H   0  0  0  0  0  0  0  0  0  0  0  0
   55.6761   29.3292   42.3541 H   0  0  0  0  0  0  0  0  0  0  0  0
   56.8952   31.1034   41.0979 H   0  0  0  0  0  0  0  0  0  0  0  0
   58.2850   32.7713   42.3188 H   0  0  0  0  0  0  0  0  0  0  0  0
   61.3124   34.7124   46.0247 H   0  0  0  0  0  0  0  0  0  0  0  0
   63.7369   34.3434   46.4807 H   0  0  0  0  0  0  0  0  0  0  0  0
   64.4884   32.2816   47.6695 H   0  0  0  0  0  0  0  0  0  0  0  0
   62.8128   30.5792   48.3957 H   0  0  0  0  0  0  0  0  0  0  0  0
   60.3844   30.9392   47.9410 H   0  0  0  0  0  0  0  0  0  0  0  0
   57.2389   30.8941   46.0763 H   0  0  0  0  0  0  0  0  0  0  0  0
  1  2  1  0
  2  3  2  0
  3  4  1  0
  4  5  2  0
  5  6  1  0
  6  7  2  0
  7  8  1  0
  8  9  2  0
  8 10  1  0
 10 11  1  0
 11 12  2  0
 12 13  1  0
 13 14  2  0
 14 15  1  0
 15 16  1  0
 16 17  1  0
 17 18  2  0
 17 19  2  0
 17 20  1  0
 20 21  2  0
 21 22  1  0
 22 23  2  0
 23 24  1  0
 24 25  2  0
 15 26  2  0
  7  2  1  0
 26 11  1  0
 25 20  1  0
  1 27  1  0
  1 28  1  0
  1 29  1  0
  3 30  1  0
  4 31  1  0
  5 32  1  0
  6 33  1  0
 12 34  1  0
 13 35  1  0
 14 36  1  0
 21 37  1  0
 22 38  1  0
 23 39  1  0
 24 40  1  0
 25 41  1  0
 26 42  1  0
M  CHG  2  10  -1  16  -1
M  END
>  <UniqueID>  (59) 
52

>  <SMILES>  (59) 
Cc1ccccc1C(=O)[N-]c1cccc([N-]S(=O)(=O)c2ccccc2)c1

>  <Energy>  (59) 
59.131140615496605

>  <Genealogy>  (59) 
Cc1ccccc1C(=O)[N-]c1cccc([N-]S(=O)(=O)c2ccccc2)c1 (protonated)
Cc1ccccc1C(=O)[N-]c1cccc([N-]S(=O)(=O)c2ccccc2)c1 (3D coordinates assigned)
Cc1ccccc1C(=O)[N-]c1cccc([N-]S(=O)(=O)c2ccccc2)c1 (optimized conformer: 59.131140615496605 kcal/mol)

>  <smiles>  (59) 
Cc1ccccc1C(=O)Nc1cccc(NS(=O)(=O)c2ccccc2)c1

>  <score_type>  (59) 
oracle

>  <origin>  (59) 
adg

>  <m_score__min__energy>  (59) 
-12.619999999999999

>  <m_primary>  (59) 
energy

$$$$
59:0
     RDKit          3D

 51 53  0  0  0  0  0  0  0  0999 V2000
   58.1300   31.8560   43.6110 O   0  0  0  0  0  0  0  0  0  0  0  0
   57.2540   31.8410   44.5160 C   0  0  0  0  0  0  0  0  0  0  0  0
   56.9500   33.1010   45.2880 C   0  0  0  0  0  0  0  0  0  0  0  0
   58.1080   33.5160   46.1570 C   0  0  0  0  0  0  0  0  0  0  0  0
   58.9620   34.5590   45.7540 C   0  0  0  0  0  0  0  0  0  0  0  0
   60.0180   34.9620   46.5780 C   0  0  0  0  0  0  0  0  0  0  0  0
   60.2230   34.3360   47.8110 C   0  0  0  0  0  0  0  0  0  0  0  0
   59.3710   33.3070   48.2230 C   0  0  0  0  0  0  0  0  0  0  0  0
   58.3140   32.9000   47.4030 C   0  0  0  0  0  0  0  0  0  0  0  0
   56.6260   30.5950   44.8400 N   0  0  0  0  0  0  0  0  0  0  0  0
   56.7880   29.3630   44.0760 C   0  0  0  0  0  0  0  0  0  0  0  0
   57.8330   28.4580   44.7480 C   0  0  1  0  0  0  0  0  0  0  0  0
   59.2100   29.1400   44.7600 C   0  0  0  0  0  0  0  0  0  0  0  0
   60.2900   28.1810   45.2860 C   0  0  0  0  0  0  0  0  0  0  0  0
   59.8670   27.3900   46.5560 C   0  0  2  0  0  0  0  0  0  0  0  0
   59.7880   25.9000   46.2770 C   0  0  0  0  0  0  0  0  0  0  0  0
   60.8370   25.2660   45.9900 O   0  0  0  0  0  0  0  0  0  0  0  0
   58.5740   25.1600   46.4620 N   0  0  0  0  0  0  0  0  0  0  0  0
   57.8940   24.3680   45.4780 C   0  0  0  0  0  0  0  0  0  0  0  0
   56.7450   24.8390   44.8210 C   0  0  0  0  0  0  0  0  0  0  0  0
   56.1240   24.0560   43.8420 C   0  0  0  0  0  0  0  0  0  0  0  0
   56.6570   22.8070   43.4970 C   0  0  0  0  0  0  0  0  0  0  0  0
   56.0460   22.0180   42.5250 O   0  0  0  0  0  0  0  0  0  0  0  0
   57.8180   22.3500   44.1290 C   0  0  0  0  0  0  0  0  0  0  0  0
   58.4390   23.1320   45.1070 C   0  0  0  0  0  0  0  0  0  0  0  0
   58.5570   27.9190   47.1830 C   0  0  0  0  0  0  0  0  0  0  0  0
   57.3930   28.0470   46.1800 C   0  0  0  0  0  0  0  0  0  0  0  0
   56.7304   33.9106   44.5764 H   0  0  0  0  0  0  0  0  0  0  0  0
   56.0862   32.9034   45.9398 H   0  0  0  0  0  0  0  0  0  0  0  0
   58.7987   35.0591   44.7879 H   0  0  0  0  0  0  0  0  0  0  0  0
   60.6880   35.7726   46.2554 H   0  0  0  0  0  0  0  0  0  0  0  0
   61.0548   34.6531   48.4572 H   0  0  0  0  0  0  0  0  0  0  0  0
   59.5325   32.8165   49.1943 H   0  0  0  0  0  0  0  0  0  0  0  0
   57.6416   32.0950   47.7344 H   0  0  0  0  0  0  0  0  0  0  0  0
   55.8246   28.8342   44.0299 H   0  0  0  0  0  0  0  0  0  0  0  0
   57.1275   29.6117   43.0597 H   0  0  0  0  0  0  0  0  0  0  0  0
   57.9136   27.5345   44.1559 H   0  0  0  0  0  0  0  0  0  0  0  0
   59.1676   30.0266   45.4098 H   0  0  0  0  0  0  0  0  0  0  0  0
   59.4681   29.4311   43.7311 H   0  0  0  0  0  0  0  0  0  0  0  0
   61.1875   28.7694   45.5276 H   0  0  0  0  0  0  0  0  0  0  0  0
   60.4711   27.4394   44.4940 H   0  0  0  0  0  0  0  0  0  0  0  0
   60.6563   27.5543   47.3043 H   0  0  0  0  0  0  0  0  0  0  0  0
   56.3325   25.8261   45.0770 H   0  0  0  0  0  0  0  0  0  0  0  0
   55.2151   24.4218   43.3419 H   0  0  0  0  0  0  0  0  0  0  0  0
   56.1970   22.1850   41.5360 H   0  0  0  0  0  0  0  0  0  0  0  0
   58.2433   21.3730   43.8558 H   0  0  0  0  0  0  0  0  0  0  0  0
   59.3613   22.7747   45.5883 H   0  0  0  0  0  0  0  0  0  0  0  0
   58.7548   28.9120   47.6129 H   0  0  0  0  0  0  0  0  0  0  0  0
   58.2464   27.1854   47.9415 H   0  0  0  0  0  0  0  0  0  0  0  0
   56.6931   28.8068   46.5579 H   0  0  0  0  0  0  0  0  0  0  0  0
   56.9340   27.0508   46.0975 H   0  0  0  0  0  0  0  0  0  0  0  0
  1  2  2  0
  2  3  1  0
  3  4  1  0
  4  5  2  0
  5  6  1  0
  6  7  2  0
  7  8  1  0
  8  9  2  0
  2 10  1  0
 10 11  1  0
 11 12  1  0
 12 13  1  0
 13 14  1  0
 14 15  1  0
 15 16  1  0
 16 17  2  0
 16 18  1  0
 18 19  1  0
 19 20  2  0
 20 21  1  0
 21 22  2  0
 22 23  1  0
 22 24  1  0
 24 25  2  0
 15 26  1  0
 26 27  1  0
  9  4  1  0
 27 12  1  0
 25 19  1  0
  3 28  1  0
  3 29  1  0
  5 30  1  0
  6 31  1  0
  7 32  1  0
  8 33  1  0
  9 34  1  0
 11 35  1  0
 11 36  1  0
 12 37  1  6
 13 38  1  0
 13 39  1  0
 14 40  1  0
 14 41  1  0
 15 42  1  1
 20 43  1  0
 21 44  1  0
 23 45  1  0
 24 46  1  0
 25 47  1  0
 26 48  1  0
 26 49  1  0
 27 50  1  0
 27 51  1  0
M  CHG  2  10  -1  18  -1
M  END
>  <UniqueID>  (60) 
53

>  <SMILES>  (60) 
O=C(Cc1ccccc1)[N-]CC1CCC(C(=O)[N-]c2ccc(O)cc2)CC1

>  <Energy>  (60) 
58.43872522439636

>  <Genealogy>  (60) 
O=C(Cc1ccccc1)[N-]CC1CCC(C(=O)[N-]c2ccc(O)cc2)CC1 (protonated)
O=C(Cc1ccccc1)[N-]CC1CCC(C(=O)[N-]c2ccc(O)cc2)CC1 (3D coordinates assigned)
O=C(Cc1ccccc1)[N-]CC1CCC(C(=O)[N-]c2ccc(O)cc2)CC1 (nonaromatic ring conformer: 58.43872522439636 kcal/mol)

>  <smiles>  (60) 
O=C(Cc1ccccc1)NCC1CCC(C(=O)Nc2ccc(O)cc2)CC1

>  <score_type>  (60) 
oracle

>  <origin>  (60) 
adg

>  <m_score__min__energy>  (60) 
-12.800000000000001

>  <m_primary>  (60) 
energy

$$$$
60:0
     RDKit          3D

 45 48  0  0  0  0  0  0  0  0999 V2000
   49.9560   33.2860   54.6660 O   0  0  0  0  0  0  0  0  0  0  0  0
   50.5070   32.7020   53.6980 C   0  0  0  0  0  0  0  0  0  0  0  0
   50.3410   33.0880   52.4150 N   0  0  0  0  0  0  0  0  0  0  0  0
   51.0470   32.2920   51.5720 C   0  0  0  0  0  0  0  0  0  0  0  0
   51.0480   32.5040   50.1990 O   0  0  0  0  0  0  0  0  0  0  0  0
   51.7630   31.2640   52.1830 C   0  0  0  0  0  0  0  0  0  0  0  0
   52.6810   30.2950   51.5060 C   0  0  0  0  0  0  0  0  0  0  0  0
   54.0360   30.3450   52.1450 C   0  0  0  0  0  0  0  0  0  0  0  0
   54.3630   29.4830   53.2020 C   0  0  0  0  0  0  0  0  0  0  0  0
   55.6500   29.5170   53.7390 C   0  0  0  0  0  0  0  0  0  0  0  0
   56.6020   30.3930   53.2140 C   0  0  0  0  0  0  0  0  0  0  0  0
   58.2670   30.4210   53.8760 S   0  0  0  0  0  0  0  0  0  0  0  0
   58.8100   31.7010   52.7340 C   0  0  0  0  0  0  0  0  0  0  0  0
   58.7910   33.0330   53.1730 C   0  0  0  0  0  0  0  0  0  0  0  0
   59.1660   34.0670   52.3140 C   0  0  0  0  0  0  0  0  0  0  0  0
   59.5650   33.7800   51.0090 C   0  0  0  0  0  0  0  0  0  0  0  0
   59.5950   32.4570   50.5620 C   0  0  0  0  0  0  0  0  0  0  0  0
   59.2230   31.4050   51.4150 C   0  0  0  0  0  0  0  0  0  0  0  0
   59.2840   30.0490   50.9320 N   0  0  0  0  0  0  0  0  0  0  0  0
   58.6600   29.6950   49.6520 C   0  0  0  0  0  0  0  0  0  0  0  0
   59.7310   29.2670   48.6270 C   0  0  0  0  0  0  0  0  0  0  0  0
   60.9790   28.7910   49.2540 N   0  0  0  0  0  0  0  0  0  0  0  0
   60.7280   28.0920   50.5190 C   0  0  0  0  0  0  0  0  0  0  0  0
   60.2060   29.0920   51.5570 C   0  0  0  0  0  0  0  0  0  0  0  0
   56.2390   31.2460   52.1660 C   0  0  0  0  0  0  0  0  0  0  0  0
   54.9800   31.1960   51.6540 N   0  0  0  0  0  0  0  0  0  0  0  0
   51.5260   31.3730   53.8480 S   0  0  0  0  0  0  0  0  0  0  0  0
   52.2712   29.2784   51.5988 H   0  0  0  0  0  0  0  0  0  0  0  0
   52.7715   30.5636   50.4431 H   0  0  0  0  0  0  0  0  0  0  0  0
   53.6119   28.7869   53.6036 H   0  0  0  0  0  0  0  0  0  0  0  0
   55.9147   28.8539   54.5758 H   0  0  0  0  0  0  0  0  0  0  0  0
   58.4782   33.2643   54.2019 H   0  0  0  0  0  0  0  0  0  0  0  0
   59.1468   35.1088   52.6665 H   0  0  0  0  0  0  0  0  0  0  0  0
   59.8563   34.5960   50.3312 H   0  0  0  0  0  0  0  0  0  0  0  0
   59.9130   32.2369   49.5322 H   0  0  0  0  0  0  0  0  0  0  0  0
   57.9575   28.8633   49.8098 H   0  0  0  0  0  0  0  0  0  0  0  0
   58.1264   30.5742   49.2619 H   0  0  0  0  0  0  0  0  0  0  0  0
   59.3188   28.4557   48.0090 H   0  0  0  0  0  0  0  0  0  0  0  0
   59.9839   30.1548   48.0288 H   0  0  0  0  0  0  0  0  0  0  0  0
   61.4420   28.1210   48.5970 H   0  0  0  0  0  0  0  0  0  0  0  0
   59.9784   27.3028   50.3600 H   0  0  0  0  0  0  0  0  0  0  0  0
   61.6630   27.6399   50.8814 H   0  0  0  0  0  0  0  0  0  0  0  0
   59.6767   28.5457   52.3515 H   0  0  0  0  0  0  0  0  0  0  0  0
   61.0588   29.6439   51.9791 H   0  0  0  0  0  0  0  0  0  0  0  0
   56.9717   31.9569   51.7563 H   0  0  0  0  0  0  0  0  0  0  0  0
  1  2  2  0
  2  3  1  0
  3  4  1  0
  4  5  1  0
  4  6  2  0
  6  7  1  0
  7  8  1  0
  8  9  2  0
  9 10  1  0
 10 11  2  0
 11 12  1  0
 12 13  1  0
 13 14  2  0
 14 15  1  0
 15 16  2  0
 16 17  1  0
 17 18  2  0
 18 19  1  0
 19 20  1  0
 20 21  1  0
 21 22  1  0
 22 23  1  0
 23 24  1  0
 11 25  1  0
 25 26  2  0
  6 27  1  0
 27  2  1  0
 26  8  1  0
 18 13  1  0
 24 19  1  0
  7 28  1  0
  7 29  1  0
  9 30  1  0
 10 31  1  0
 14 32  1  0
 15 33  1  0
 16 34  1  0
 17 35  1  0
 20 36  1  0
 20 37  1  0
 21 38  1  0
 21 39  1  0
 22 40  1  0
 23 41  1  0
 23 42  1  0
 24 43  1  0
 24 44  1  0
 25 45  1  0
M  CHG  2   3  -1   5  -1
M  END
>  <UniqueID>  (61) 
54

>  <SMILES>  (61) 
O=c1[n-]c([O-])c(Cc2ccc(Sc3ccccc3N3CCNCC3)cn2)s1

>  <Energy>  (61) 
82.41985618536582

>  <Genealogy>  (61) 
O=c1[n-]c([O-])c(Cc2ccc(Sc3ccccc3N3CCNCC3)cn2)s1 (protonated)
O=c1[n-]c([O-])c(Cc2ccc(Sc3ccccc3N3CCNCC3)cn2)s1 (3D coordinates assigned)
O=c1[n-]c([O-])c(Cc2ccc(Sc3ccccc3N3CCNCC3)cn2)s1 (nonaromatic ring conformer: 82.41985618536582 kcal/mol)

>  <smiles>  (61) 
O=c1[nH]c(O)c(Cc2ccc(Sc3ccccc3N3CCNCC3)cn2)s1

>  <score_type>  (61) 
oracle

>  <origin>  (61) 
adg

>  <m_score__min__energy>  (61) 
-15.050000000000001

>  <m_primary>  (61) 
energy

$$$$
61:0
     RDKit          3D

 41 42  0  0  0  0  0  0  0  0999 V2000
   60.2350   33.0400   50.7180 C   0  0  0  0  0  0  0  0  0  0  0  0
   59.7110   33.3210   49.3410 C   0  0  0  0  0  0  0  0  0  0  0  0
   58.6150   32.6020   48.8440 C   0  0  0  0  0  0  0  0  0  0  0  0
   58.1390   32.8470   47.5510 C   0  0  0  0  0  0  0  0  0  0  0  0
   58.7620   33.8040   46.7400 C   0  0  0  0  0  0  0  0  0  0  0  0
   58.1290   34.1690   45.1360 S   0  0  0  0  0  0  0  0  0  0  0  0
   56.6900   34.5780   45.2640 O   0  0  0  0  0  0  0  0  0  0  0  0
   58.9070   35.2880   44.5000 O   0  0  0  0  0  0  0  0  0  0  0  0
   58.2380   32.7610   44.1310 N   0  0  0  0  0  0  0  0  0  0  0  0
   57.8530   31.4410   44.5370 C   0  0  0  0  0  0  0  0  0  0  0  0
   58.7390   30.6910   45.3210 C   0  0  0  0  0  0  0  0  0  0  0  0
   58.4320   29.3740   45.6740 C   0  0  0  0  0  0  0  0  0  0  0  0
   57.2300   28.7870   45.2430 C   0  0  0  0  0  0  0  0  0  0  0  0
   56.9110   27.4210   45.5440 N   0  0  0  0  0  0  0  0  0  0  0  0
   57.5880   26.6620   46.5600 C   0  0  0  0  0  0  0  0  0  0  0  0
   58.2710   27.2390   47.4480 O   0  0  0  0  0  0  0  0  0  0  0  0
   57.5850   25.1620   46.4980 C   0  0  0  0  0  0  0  0  0  0  0  0
   56.1820   24.6150   46.7710 C   0  0  0  0  0  0  0  0  0  0  0  0
   55.1870   25.3550   45.9990 N   0  0  0  0  0  0  0  0  0  0  0  0
   54.1310   24.8020   45.5550 C   0  0  0  0  0  0  0  0  0  0  0  0
   52.7970   24.0910   44.9960 S   0  0  0  0  0  0  0  0  0  0  0  0
   56.3170   29.5580   44.5120 C   0  0  0  0  0  0  0  0  0  0  0  0
   56.6240   30.8730   44.1570 C   0  0  0  0  0  0  0  0  0  0  0  0
   59.8770   34.5010   47.2250 C   0  0  0  0  0  0  0  0  0  0  0  0
   60.3510   34.2590   48.5170 C   0  0  0  0  0  0  0  0  0  0  0  0
   59.5240   33.4213   51.4657 H   0  0  0  0  0  0  0  0  0  0  0  0
   60.3582   31.9548   50.8491 H   0  0  0  0  0  0  0  0  0  0  0  0
   61.2071   33.5378   50.8491 H   0  0  0  0  0  0  0  0  0  0  0  0
   58.1273   31.8424   49.4727 H   0  0  0  0  0  0  0  0  0  0  0  0
   57.2727   32.2861   47.1703 H   0  0  0  0  0  0  0  0  0  0  0  0
   59.6830   31.1417   45.6612 H   0  0  0  0  0  0  0  0  0  0  0  0
   59.1340   28.7946   46.2916 H   0  0  0  0  0  0  0  0  0  0  0  0
   56.3650   26.8870   44.8300 H   0  0  0  0  0  0  0  0  0  0  0  0
   57.9100   24.8408   45.4974 H   0  0  0  0  0  0  0  0  0  0  0  0
   58.2725   24.7738   47.2639 H   0  0  0  0  0  0  0  0  0  0  0  0
   56.1453   23.5532   46.4860 H   0  0  0  0  0  0  0  0  0  0  0  0
   55.9578   24.7273   47.8420 H   0  0  0  0  0  0  0  0  0  0  0  0
   55.3507   29.1241   44.2154 H   0  0  0  0  0  0  0  0  0  0  0  0
   55.9017   31.4670   43.5778 H   0  0  0  0  0  0  0  0  0  0  0  0
   60.3808   35.2413   46.5862 H   0  0  0  0  0  0  0  0  0  0  0  0
   61.2295   34.8062   48.8896 H   0  0  0  0  0  0  0  0  0  0  0  0
  1  2  1  0
  2  3  2  0
  3  4  1  0
  4  5  2  0
  5  6  1  0
  6  7  2  0
  6  8  2  0
  6  9  1  0
  9 10  1  0
 10 11  2  0
 11 12  1  0
 12 13  2  0
 13 14  1  0
 14 15  1  0
 15 16  2  0
 15 17  1  0
 17 18  1  0
 18 19  1  0
 19 20  2  0
 20 21  2  0
 13 22  1  0
 22 23  2  0
  5 24  1  0
 24 25  2  0
 25  2  1  0
 23 10  1  0
  1 26  1  0
  1 27  1  0
  1 28  1  0
  3 29  1  0
  4 30  1  0
 11 31  1  0
 12 32  1  0
 14 33  1  0
 17 34  1  0
 17 35  1  0
 18 36  1  0
 18 37  1  0
 22 38  1  0
 23 39  1  0
 24 40  1  0
 25 41  1  0
M  CHG  1   9  -1
M  END
>  <UniqueID>  (62) 
55

>  <SMILES>  (62) 
Cc1ccc(S(=O)(=O)[N-]c2ccc(NC(=O)CCN=C=S)cc2)cc1

>  <Energy>  (62) 
40.814025343638846

>  <Genealogy>  (62) 
Cc1ccc(S(=O)(=O)[N-]c2ccc(NC(=O)CCN=C=S)cc2)cc1 (protonated)
Cc1ccc(S(=O)(=O)[N-]c2ccc(NC(=O)CCN=C=S)cc2)cc1 (3D coordinates assigned)
Cc1ccc(S(=O)(=O)[N-]c2ccc(NC(=O)CCN=C=S)cc2)cc1 (optimized conformer: 40.814025343638846 kcal/mol)

>  <smiles>  (62) 
Cc1ccc(S(=O)(=O)Nc2ccc(NC(=O)CCN=C=S)cc2)cc1

>  <score_type>  (62) 
oracle

>  <origin>  (62) 
adg

>  <m_score__min__energy>  (62) 
-9.0899999999999999

>  <m_primary>  (62) 
energy

$$$$
62:0
     RDKit          3D

 54 56  0  0  0  0  0  0  0  0999 V2000
   61.5110   29.9630   50.2520 C   0  0  0  0  0  0  0  0  0  0  0  0
   61.4170   30.5420   48.8320 C   0  0  1  0  0  0  0  0  0  0  0  0
   60.4440   29.8350   47.9010 C   0  0  0  0  0  0  0  0  0  0  0  0
   60.3790   30.2620   46.5610 C   0  0  0  0  0  0  0  0  0  0  0  0
   59.4240   29.7350   45.6890 C   0  0  0  0  0  0  0  0  0  0  0  0
   58.5030   28.7790   46.1390 C   0  0  0  0  0  0  0  0  0  0  0  0
   57.3780   28.3250   45.2450 C   0  0  0  0  0  0  0  0  0  0  0  0
   56.7750   29.5020   44.5260 C   0  0  0  0  0  0  0  0  0  0  0  0
   55.6350   29.9310   44.8720 O   0  0  0  0  0  0  0  0  0  0  0  0
   57.4790   30.1140   43.4340 N   0  0  0  0  0  0  0  0  0  0  0  0
   57.0190   31.3460   42.7890 C   0  0  0  0  0  0  0  0  0  0  0  0
   58.0510   32.4690   42.9690 C   0  0  0  0  0  0  0  0  0  0  0  0
   58.3430   32.7280   44.3970 N   0  0  0  0  0  0  0  0  0  0  0  0
   57.0890   32.8410   45.1680 C   0  0  0  0  0  0  0  0  0  0  0  0
   57.3910   33.0880   46.6590 C   0  0  0  0  0  0  0  0  0  0  0  0
   58.7630   33.3580   46.8930 O   0  0  0  0  0  0  0  0  0  0  0  0
   59.1960   34.3990   46.0440 C   0  0  0  0  0  0  0  0  0  0  0  0
   59.1620   33.9510   44.5710 C   0  0  0  0  0  0  0  0  0  0  0  0
   58.5800   28.3220   47.4610 C   0  0  0  0  0  0  0  0  0  0  0  0
   59.5470   28.8360   48.3320 C   0  0  0  0  0  0  0  0  0  0  0  0
   61.1730   32.0400   48.8140 C   0  0  0  0  0  0  0  0  0  0  0  0
   60.1720   32.5970   49.5510 N   0  0  0  0  0  0  0  0  0  0  0  0
   60.3260   33.9260   49.3830 C   0  0  0  0  0  0  0  0  0  0  0  0
   61.4150   34.1650   48.5630 C   0  0  0  0  0  0  0  0  0  0  0  0
   61.9650   32.9830   48.2210 N   0  0  0  0  0  0  0  0  0  0  0  0
   63.1010   32.8140   47.3130 C   0  0  0  0  0  0  0  0  0  0  0  0
   61.3798   30.7710   50.9868 H   0  0  0  0  0  0  0  0  0  0  0  0
   60.7237   29.2078   50.3929 H   0  0  0  0  0  0  0  0  0  0  0  0
   62.4968   29.4957   50.3929 H   0  0  0  0  0  0  0  0  0  0  0  0
   62.4197   30.3450   48.4247 H   0  0  0  0  0  0  0  0  0  0  0  0
   61.0886   31.0194   46.1967 H   0  0  0  0  0  0  0  0  0  0  0  0
   59.3943   30.0723   44.6424 H   0  0  0  0  0  0  0  0  0  0  0  0
   57.7678   27.6092   44.5062 H   0  0  0  0  0  0  0  0  0  0  0  0
   56.6025   27.8460   45.8608 H   0  0  0  0  0  0  0  0  0  0  0  0
   58.3190   29.6130   43.0290 H   0  0  0  0  0  0  0  0  0  0  0  0
   56.8724   31.1587   41.7150 H   0  0  0  0  0  0  0  0  0  0  0  0
   56.0720   31.6572   43.2541 H   0  0  0  0  0  0  0  0  0  0  0  0
   58.9834   32.1794   42.4624 H   0  0  0  0  0  0  0  0  0  0  0  0
   57.6324   33.3889   42.5348 H   0  0  0  0  0  0  0  0  0  0  0  0
   56.4970   33.6806   44.7749 H   0  0  0  0  0  0  0  0  0  0  0  0
   56.5262   31.9009   45.0705 H   0  0  0  0  0  0  0  0  0  0  0  0
   56.7977   33.9484   47.0022 H   0  0  0  0  0  0  0  0  0  0  0  0
   57.1293   32.1733   47.2112 H   0  0  0  0  0  0  0  0  0  0  0  0
   58.5342   35.2682   46.1723 H   0  0  0  0  0  0  0  0  0  0  0  0
   60.2302   34.6638   46.3089 H   0  0  0  0  0  0  0  0  0  0  0  0
   58.7325   34.7592   43.9608 H   0  0  0  0  0  0  0  0  0  0  0  0
   60.1910   33.7269   44.2532 H   0  0  0  0  0  0  0  0  0  0  0  0
   57.8763   27.5548   47.8163 H   0  0  0  0  0  0  0  0  0  0  0  0
   59.6080   28.4571   49.3629 H   0  0  0  0  0  0  0  0  0  0  0  0
   59.6850   34.7007   49.8289 H   0  0  0  0  0  0  0  0  0  0  0  0
   61.7723   35.1551   48.2435 H   0  0  0  0  0  0  0  0  0  0  0  0
   64.0217   32.6770   47.8992 H   0  0  0  0  0  0  0  0  0  0  0  0
   62.9352   31.9306   46.6788 H   0  0  0  0  0  0  0  0  0  0  0  0
   63.1996   33.7074   46.6788 H   0  0  0  0  0  0  0  0  0  0  0  0
  1  2  1  0
  2  3  1  0
  3  4  2  0
  4  5  1  0
  5  6  2  0
  6  7  1  0
  7  8  1  0
  8  9  2  0
  8 10  1  0
 10 11  1  0
 11 12  1  0
 12 13  1  0
 13 14  1  0
 14 15  1  0
 15 16  1  0
 16 17  1  0
 17 18  1  0
  6 19  1  0
 19 20  2  0
  2 21  1  0
 21 22  2  0
 22 23  1  0
 23 24  2  0
 24 25  1  0
 25 26  1  0
 20  3  1  0
 25 21  1  0
 18 13  1  0
  1 27  1  0
  1 28  1  0
  1 29  1  0
  2 30  1  6
  4 31  1  0
  5 32  1  0
  7 33  1  0
  7 34  1  0
 10 35  1  0
 11 36  1  0
 11 37  1  0
 12 38  1  0
 12 39  1  0
 14 40  1  0
 14 41  1  0
 15 42  1  0
 15 43  1  0
 17 44  1  0
 17 45  1  0
 18 46  1  0
 18 47  1  0
 19 48  1  0
 20 49  1  0
 23 50  1  0
 24 51  1  0
 26 52  1  0
 26 53  1  0
 26 54  1  0
M  END
>  <UniqueID>  (63) 
56

>  <SMILES>  (63) 
C[C@@H](c1ccc(CC(=O)NCCN2CCOCC2)cc1)c1nccn1C

>  <Energy>  (63) 
89.55676102999416

>  <Genealogy>  (63) 
C[C@@H](c1ccc(CC(=O)NCCN2CCOCC2)cc1)c1nccn1C (chirality)
C[C@@H](c1ccc(CC(=O)NCCN2CCOCC2)cc1)c1nccn1C (3D coordinates assigned)
C[C@@H](c1ccc(CC(=O)NCCN2CCOCC2)cc1)c1nccn1C (nonaromatic ring conformer: 89.55676102999416 kcal/mol)

>  <smiles>  (63) 
CC(c1ccc(CC(=O)NCCN2CCOCC2)cc1)c1nccn1C

>  <score_type>  (63) 
oracle

>  <origin>  (63) 
adg

>  <m_score__min__energy>  (63) 
-7.8300000000000001

>  <m_primary>  (63) 
energy

$$$$
63:0
     RDKit          3D

 38 39  0  0  0  0  0  0  0  0999 V2000
   58.7820   34.7330   45.2580 C   0  0  0  0  0  0  0  0  0  0  0  0
   59.9710   33.9960   45.8650 C   0  0  0  0  0  0  0  0  0  0  0  0
   59.5130   32.7960   46.6390 C   0  0  0  0  0  0  0  0  0  0  0  0
   59.7630   32.6190   47.9530 N   0  0  0  0  0  0  0  0  0  0  0  0
   59.1820   31.4870   48.3180 N   0  0  0  0  0  0  0  0  0  0  0  0
   59.1600   30.9880   49.6840 C   0  0  0  0  0  0  0  0  0  0  0  0
   58.5340   30.9390   47.2720 C   0  0  0  0  0  0  0  0  0  0  0  0
   58.7240   31.7540   46.1760 C   0  0  0  0  0  0  0  0  0  0  0  0
   58.1630   31.5450   44.7990 C   0  0  0  0  0  0  0  0  0  0  0  0
   56.7260   31.2760   44.8340 N   0  0  0  0  0  0  0  0  0  0  0  0
   56.3170   29.7690   44.0610 S   0  0  0  0  0  0  0  0  0  0  0  0
   55.2660   29.0510   44.8600 O   0  0  0  0  0  0  0  0  0  0  0  0
   55.7430   30.0850   42.7090 O   0  0  0  0  0  0  0  0  0  0  0  0
   57.7590   28.7260   43.8090 C   0  0  0  0  0  0  0  0  0  0  0  0
   58.4150   28.3190   45.1040 C   0  0  0  0  0  0  0  0  0  0  0  0
   59.7980   28.4890   45.2910 C   0  0  0  0  0  0  0  0  0  0  0  0
   60.4010   28.1070   46.4940 C   0  0  0  0  0  0  0  0  0  0  0  0
   59.6330   27.5410   47.5150 C   0  0  0  0  0  0  0  0  0  0  0  0
   60.3890   27.0750   49.0270 Cl  0  0  0  0  0  0  0  0  0  0  0  0
   58.2620   27.3420   47.3270 C   0  0  0  0  0  0  0  0  0  0  0  0
   57.6570   27.7190   46.1250 C   0  0  0  0  0  0  0  0  0  0  0  0
   58.1452   35.1277   46.0634 H   0  0  0  0  0  0  0  0  0  0  0  0
   59.1447   35.5649   44.6364 H   0  0  0  0  0  0  0  0  0  0  0  0
   58.1984   34.0381   44.6364 H   0  0  0  0  0  0  0  0  0  0  0  0
   60.6437   33.6698   45.0581 H   0  0  0  0  0  0  0  0  0  0  0  0
   60.4974   34.6778   46.5491 H   0  0  0  0  0  0  0  0  0  0  0  0
   59.1974   31.8353   50.3845 H   0  0  0  0  0  0  0  0  0  0  0  0
   58.2357   30.4152   49.8503 H   0  0  0  0  0  0  0  0  0  0  0  0
   60.0303   30.3361   49.8503 H   0  0  0  0  0  0  0  0  0  0  0  0
   57.9543   30.0043   47.2891 H   0  0  0  0  0  0  0  0  0  0  0  0
   58.3414   32.4505   44.2004 H   0  0  0  0  0  0  0  0  0  0  0  0
   58.6638   30.6725   44.3542 H   0  0  0  0  0  0  0  0  0  0  0  0
   57.4473   27.8182   43.2717 H   0  0  0  0  0  0  0  0  0  0  0  0
   58.4935   29.3075   43.2324 H   0  0  0  0  0  0  0  0  0  0  0  0
   60.4092   28.9248   44.4869 H   0  0  0  0  0  0  0  0  0  0  0  0
   61.4820   28.2525   46.6366 H   0  0  0  0  0  0  0  0  0  0  0  0
   57.6584   26.8879   48.1267 H   0  0  0  0  0  0  0  0  0  0  0  0
   56.5810   27.5453   45.9767 H   0  0  0  0  0  0  0  0  0  0  0  0
  1  2  1  0
  2  3  1  0
  3  4  2  0
  4  5  1  0
  5  6  1  0
  5  7  1  0
  7  8  2  0
  8  9  1  0
  9 10  1  0
 10 11  1  0
 11 12  2  0
 11 13  2  0
 11 14  1  0
 14 15  1  0
 15 16  2  0
 16 17  1  0
 17 18  2  0
 18 19  1  0
 18 20  1  0
 20 21  2  0
  8  3  1  0
 21 15  1  0
  1 22  1  0
  1 23  1  0
  1 24  1  0
  2 25  1  0
  2 26  1  0
  6 27  1  0
  6 28  1  0
  6 29  1  0
  7 30  1  0
  9 31  1  0
  9 32  1  0
 14 33  1  0
 14 34  1  0
 16 35  1  0
 17 36  1  0
 20 37  1  0
 21 38  1  0
M  CHG  1  10  -1
M  END
>  <UniqueID>  (64) 
57

>  <SMILES>  (64) 
CCc1nn(C)cc1C[N-]S(=O)(=O)Cc1ccc(Cl)cc1

>  <Energy>  (64) 
55.74421212294751

>  <Genealogy>  (64) 
CCc1nn(C)cc1C[N-]S(=O)(=O)Cc1ccc(Cl)cc1 (protonated)
CCc1nn(C)cc1C[N-]S(=O)(=O)Cc1ccc(Cl)cc1 (3D coordinates assigned)
CCc1nn(C)cc1C[N-]S(=O)(=O)Cc1ccc(Cl)cc1 (optimized conformer: 55.74421212294751 kcal/mol)

>  <smiles>  (64) 
CCc1nn(C)cc1CNS(=O)(=O)Cc1ccc(Cl)cc1

>  <score_type>  (64) 
oracle

>  <origin>  (64) 
adg

>  <m_score__min__energy>  (64) 
-8.8000000000000007

>  <m_primary>  (64) 
energy

$$$$
64:0
     RDKit          3D

 56 59  0  0  0  0  0  0  0  0999 V2000
   65.1900   32.8940   49.7810 C   0  0  0  0  0  0  0  0  0  0  0  0
   64.5250   33.5090   48.6810 O   0  0  0  0  0  0  0  0  0  0  0  0
   63.1420   33.4470   48.4580 C   0  0  0  0  0  0  0  0  0  0  0  0
   62.2840   33.6560   49.5440 C   0  0  0  0  0  0  0  0  0  0  0  0
   60.8970   33.6010   49.3750 C   0  0  0  0  0  0  0  0  0  0  0  0
   60.3460   33.3370   48.1110 C   0  0  0  0  0  0  0  0  0  0  0  0
   58.8530   33.2490   47.9280 C   0  0  0  0  0  0  0  0  0  0  0  0
   58.4980   32.1500   46.9540 C   0  0  0  0  0  0  0  0  0  0  0  0
   58.6790   30.8120   47.3460 C   0  0  0  0  0  0  0  0  0  0  0  0
   58.3260   29.7490   46.4950 C   0  0  0  0  0  0  0  0  0  0  0  0
   58.4840   28.3120   46.9550 C   0  0  1  0  0  0  0  0  0  0  0  0
   57.3750   27.5370   46.5150 O   0  0  0  0  0  0  0  0  0  0  0  0
   57.4190   26.2330   47.0730 C   0  0  1  0  0  0  0  0  0  0  0  0
   56.1050   25.5150   46.7410 C   0  0  0  0  0  0  0  0  0  0  0  0
   55.2740   26.3500   45.9840 O   0  0  0  0  0  0  0  0  0  0  0  0
   58.6460   25.4570   46.5390 C   0  0  1  0  0  0  0  0  0  0  0  0
   58.5270   25.2800   45.1480 O   0  0  0  0  0  0  0  0  0  0  0  0
   59.9270   26.2520   46.8780 C   0  0  1  0  0  0  0  0  0  0  0  0
   61.0830   25.6330   46.3720 O   0  0  0  0  0  0  0  0  0  0  0  0
   59.8090   27.7220   46.4200 C   0  0  1  0  0  0  0  0  0  0  0  0
   59.8330   27.8060   45.0150 O   0  0  0  0  0  0  0  0  0  0  0  0
   57.7550   30.0420   45.2440 C   0  0  0  0  0  0  0  0  0  0  0  0
   57.5430   31.3730   44.8560 C   0  0  0  0  0  0  0  0  0  0  0  0
   57.9250   32.4280   45.6940 C   0  0  0  0  0  0  0  0  0  0  0  0
   57.6500   34.0810   45.1470 Cl  0  0  0  0  0  0  0  0  0  0  0  0
   56.9340   31.6280   43.6210 O   0  0  0  0  0  0  0  0  0  0  0  0
   56.2750   30.5930   42.8890 C   0  0  0  0  0  0  0  0  0  0  0  0
   57.0670   29.2870   42.9970 C   0  0  0  0  0  0  0  0  0  0  0  0
   57.3810   29.0180   44.3640 O   0  0  0  0  0  0  0  0  0  0  0  0
   61.2060   33.1300   47.0200 C   0  0  0  0  0  0  0  0  0  0  0  0
   62.5920   33.1820   47.1900 C   0  0  0  0  0  0  0  0  0  0  0  0
   64.7733   33.2793   50.7233 H   0  0  0  0  0  0  0  0  0  0  0  0
   65.0452   31.8046   49.7344 H   0  0  0  0  0  0  0  0  0  0  0  0
   66.2648   33.1234   49.7344 H   0  0  0  0  0  0  0  0  0  0  0  0
   62.7043   33.8653   50.5387 H   0  0  0  0  0  0  0  0  0  0  0  0
   60.2340   33.7655   50.2372 H   0  0  0  0  0  0  0  0  0  0  0  0
   58.3821   33.0367   48.8992 H   0  0  0  0  0  0  0  0  0  0  0  0
   58.4887   34.2069   47.5283 H   0  0  0  0  0  0  0  0  0  0  0  0
   59.1045   30.5924   48.3363 H   0  0  0  0  0  0  0  0  0  0  0  0
   58.5145   28.2881   48.0543 H   0  0  0  0  0  0  0  0  0  0  0  0
   57.5272   26.2912   48.1661 H   0  0  0  0  0  0  0  0  0  0  0  0
   56.3246   24.6034   46.1660 H   0  0  0  0  0  0  0  0  0  0  0  0
   55.5924   25.2541   47.6787 H   0  0  0  0  0  0  0  0  0  0  0  0
   55.8380   26.7040   45.2470 H   0  0  0  0  0  0  0  0  0  0  0  0
   58.7004   24.4650   47.0113 H   0  0  0  0  0  0  0  0  0  0  0  0
   59.3140   25.7160   44.7300 H   0  0  0  0  0  0  0  0  0  0  0  0
   60.0307   26.2557   47.9731 H   0  0  0  0  0  0  0  0  0  0  0  0
   61.4000   26.1530   45.5890 H   0  0  0  0  0  0  0  0  0  0  0  0
   60.6618   28.2923   46.8169 H   0  0  0  0  0  0  0  0  0  0  0  0
   58.9420   27.5170   44.6880 H   0  0  0  0  0  0  0  0  0  0  0  0
   55.2661   30.4419   43.3005 H   0  0  0  0  0  0  0  0  0  0  0  0
   56.2072   30.8869   41.8312 H   0  0  0  0  0  0  0  0  0  0  0  0
   56.4641   28.4608   42.5923 H   0  0  0  0  0  0  0  0  0  0  0  0
   58.0011   29.3826   42.4239 H   0  0  0  0  0  0  0  0  0  0  0  0
   60.7854   32.9254   46.0244 H   0  0  0  0  0  0  0  0  0  0  0  0
   63.2560   33.0151   46.3290 H   0  0  0  0  0  0  0  0  0  0  0  0
  1  2  1  0
  2  3  1  0
  3  4  2  0
  4  5  1  0
  5  6  2  0
  6  7  1  0
  7  8  1  0
  8  9  2  0
  9 10  1  0
 10 11  1  0
 11 12  1  0
 12 13  1  0
 13 14  1  0
 14 15  1  0
 13 16  1  0
 16 17  1  0
 16 18  1  0
 18 19  1  0
 18 20  1  0
 20 21  1  0
 10 22  2  0
 22 23  1  0
 23 24  2  0
 24 25  1  0
 23 26  1  0
 26 27  1  0
 27 28  1  0
 28 29  1  0
  6 30  1  0
 30 31  2  0
 31  3  1  0
 24  8  1  0
 20 11  1  0
 29 22  1  0
  1 32  1  0
  1 33  1  0
  1 34  1  0
  4 35  1  0
  5 36  1  0
  7 37  1  0
  7 38  1  0
  9 39  1  0
 11 40  1  1
 13 41  1  1
 14 42  1  0
 14 43  1  0
 15 44  1  0
 16 45  1  1
 17 46  1  0
 18 47  1  1
 19 48  1  0
 20 49  1  1
 21 50  1  0
 27 51  1  0
 27 52  1  0
 28 53  1  0
 28 54  1  0
 30 55  1  0
 31 56  1  0
M  END
>  <UniqueID>  (65) 
58

>  <SMILES>  (65) 
COc1ccc(Cc2cc([C@H]3O[C@@H](CO)C(O)C(O)C3O)c3c(c2Cl)OCCO3)cc1

>  <Energy>  (65) 
61.993580944803924

>  <Genealogy>  (65) 
COc1ccc(Cc2cc([C@H]3O[C@@H](CO)C(O)C(O)C3O)c3c(c2Cl)OCCO3)cc1 (chirality)
COc1ccc(Cc2cc([C@H]3O[C@@H](CO)C(O)C(O)C3O)c3c(c2Cl)OCCO3)cc1 (3D coordinates assigned)
COc1ccc(Cc2cc([C@H]3O[C@@H](CO)C(O)C(O)C3O)c3c(c2Cl)OCCO3)cc1 (nonaromatic ring conformer: 61.993580944803924 kcal/mol)

>  <smiles>  (65) 
COc1ccc(Cc2cc(C3OC(CO)C(O)C(O)C3O)c3c(c2Cl)OCCO3)cc1

>  <score_type>  (65) 
oracle

>  <origin>  (65) 
adg

>  <m_score__min__energy>  (65) 
-8.0899999999999999

>  <m_primary>  (65) 
energy

$$$$
65:0
     RDKit          3D

 36 37  0  0  0  0  0  0  0  0999 V2000
   54.9335   30.1102   54.3996 H   0  0  0  0  0  0  0  0  0  0  0  0
   54.8570   29.9640   53.3120 C   0  0  0  0  0  0  0  0  0  0  0  0
   56.0350   30.3220   52.5000 C   0  0  0  0  0  0  0  0  0  0  0  0
   55.9130   30.7040   51.3050 O   0  0  0  0  0  0  0  0  0  0  0  0
   57.3370   30.1970   53.0820 N   0  0  0  0  0  0  0  0  0  0  0  0
   58.3970   29.4050   52.5250 C   0  0  0  0  0  0  0  0  0  0  0  0
   58.9790   29.6990   51.2720 C   0  0  0  0  0  0  0  0  0  0  0  0
   58.4380   30.7710   50.4790 N   0  0  0  0  0  0  0  0  0  0  0  0
   58.8870   31.0940   49.5970 H   0  0  0  0  0  0  0  0  0  0  0  0
   57.5860   31.2900   50.7870 H   0  0  0  0  0  0  0  0  0  0  0  0
   60.0230   28.9250   50.8050 N   0  0  0  0  0  0  0  0  0  0  0  0
   60.6500   29.1950   49.4950 C   0  0  0  0  0  0  0  0  0  0  0  0
   61.7294   28.9940   49.5623 H   0  0  0  0  0  0  0  0  0  0  0  0
   60.4755   30.2477   49.2280 H   0  0  0  0  0  0  0  0  0  0  0  0
   60.0400   28.3050   48.4150 C   0  0  0  0  0  0  0  0  0  0  0  0
   59.4787   27.4861   48.8886 H   0  0  0  0  0  0  0  0  0  0  0  0
   59.3600   28.9016   47.7891 H   0  0  0  0  0  0  0  0  0  0  0  0
   60.8417   27.8861   47.7891 H   0  0  0  0  0  0  0  0  0  0  0  0
   60.4950   27.8890   51.5740 C   0  0  0  0  0  0  0  0  0  0  0  0
   61.4750   27.1930   51.1910 O   0  0  0  0  0  0  0  0  0  0  0  0
   59.9120   27.5890   52.7600 N   0  0  0  0  0  0  0  0  0  0  0  0
   58.8740   28.3100   53.2420 C   0  0  0  0  0  0  0  0  0  0  0  0
   58.3600   27.9970   54.3490 O   0  0  0  0  0  0  0  0  0  0  0  0
   53.6990   29.4750   52.8390 C   0  0  0  0  0  0  0  0  0  0  0  0
   53.4143   28.4599   53.1528 H   0  0  0  0  0  0  0  0  0  0  0  0
   52.7760   30.1880   51.9320 C   0  0  0  0  0  0  0  0  0  0  0  0
   52.6180   29.7900   50.5920 C   0  0  0  0  0  0  0  0  0  0  0  0
   53.1594   28.9100   50.2146 H   0  0  0  0  0  0  0  0  0  0  0  0
   51.7760   30.5080   49.7380 C   0  0  0  0  0  0  0  0  0  0  0  0
   51.6434   30.1818   48.6959 H   0  0  0  0  0  0  0  0  0  0  0  0
   51.1020   31.6400   50.2060 C   0  0  0  0  0  0  0  0  0  0  0  0
   50.2650   32.3490   49.3530 O   0  0  0  0  0  0  0  0  0  0  0  0
   51.2780   32.0610   51.5310 C   0  0  0  0  0  0  0  0  0  0  0  0
   50.6200   33.1920   51.9980 O   0  0  0  0  0  0  0  0  0  0  0  0
   52.1210   31.3420   52.3860 C   0  0  0  0  0  0  0  0  0  0  0  0
   52.2708   31.6842   53.4206 H   0  0  0  0  0  0  0  0  0  0  0  0
  1  2  1  0
  2  3  1  0
  3  4  2  0
  3  5  1  0
  5  6  1  0
  6  7  2  0
  7  8  1  0
  8  9  1  0
  8 10  1  0
  7 11  1  0
 11 12  1  0
 12 13  1  0
 12 14  1  0
 12 15  1  0
 15 16  1  0
 15 17  1  0
 15 18  1  0
 11 19  1  0
 19 20  2  0
 19 21  1  0
 21 22  1  0
 22 23  2  0
  2 24  2  0
 24 25  1  0
 24 26  1  0
 26 27  2  0
 27 28  1  0
 27 29  1  0
 29 30  1  0
 29 31  2  0
 31 32  1  0
 31 33  1  0
 33 34  1  0
 33 35  2  0
 35 36  1  0
 22  6  1  0
 35 26  1  0
M  CHG  4   5  -1  21  -1  32  -1  34  -1
M  END
>  <UniqueID>  (66) 
59

>  <SMILES>  (66) 
CCn1c(N)c([N-]C(=O)/C=C\c2ccc([O-])c([O-])c2)c(=O)[n-]c1=O

>  <Energy>  (66) 
55.39101935953674

>  <Genealogy>  (66) 
CCn1c(N)c([N-]C(=O)C=Cc2ccc([O-])c([O-])c2)c(=O)[n-]c1=O (protonated)
CCn1c(N)c([N-]C(=O)/C=C\c2ccc([O-])c([O-])c2)c(=O)[n-]c1=O (cis-trans isomerization)
CCn1c(N)c([N-]C(=O)/C=C\c2ccc([O-])c([O-])c2)c(=O)[n-]c1=O (3D coordinates assigned)
CCn1c(N)c([N-]C(=O)/C=C\c2ccc([O-])c([O-])c2)c(=O)[n-]c1=O (optimized conformer: 55.39101935953674 kcal/mol)

>  <smiles>  (66) 
CCn1c(N)c(NC(=O)C=Cc2ccc(O)c(O)c2)c(=O)[nH]c1=O

>  <score_type>  (66) 
oracle

>  <origin>  (66) 
adg

>  <m_score__min__energy>  (66) 
-17.039999999999999

>  <m_primary>  (66) 
energy

$$$$
66:0
     RDKit          3D

 44 46  0  0  0  0  0  0  0  0999 V2000
   57.4110   31.9180   42.1220 C   0  0  0  0  0  0  0  0  0  0  0  0
   57.8390   32.4020   43.4820 C   0  0  0  0  0  0  0  0  0  0  0  0
   58.7770   33.4430   43.5680 C   0  0  0  0  0  0  0  0  0  0  0  0
   59.2300   33.8900   44.8100 C   0  0  0  0  0  0  0  0  0  0  0  0
   58.7520   33.3040   45.9880 C   0  0  0  0  0  0  0  0  0  0  0  0
   59.3260   33.8690   47.5590 S   0  0  0  0  0  0  0  0  0  0  0  0
   58.9120   35.3020   47.7500 O   0  0  0  0  0  0  0  0  0  0  0  0
   58.6820   33.0500   48.6430 O   0  0  0  0  0  0  0  0  0  0  0  0
   61.0630   33.7490   47.6990 N   0  0  0  0  0  0  0  0  0  0  0  0
   61.5210   32.4100   47.3010 C   0  0  0  0  0  0  0  0  0  0  0  0
   63.0480   32.2880   47.4980 C   0  0  0  0  0  0  0  0  0  0  0  0
   63.6140   33.4920   47.9800 O   0  0  0  0  0  0  0  0  0  0  0  0
   63.0150   33.8420   49.2150 C   0  0  0  0  0  0  0  0  0  0  0  0
   61.4910   34.0390   49.0760 C   0  0  0  0  0  0  0  0  0  0  0  0
   57.8040   32.2760   45.9120 C   0  0  0  0  0  0  0  0  0  0  0  0
   57.3170   31.8440   44.6730 C   0  0  0  0  0  0  0  0  0  0  0  0
   56.3280   30.8090   44.6550 N   0  0  0  0  0  0  0  0  0  0  0  0
   56.5340   29.4900   45.1720 C   0  0  0  0  0  0  0  0  0  0  0  0
   55.5610   28.6910   45.2410 O   0  0  0  0  0  0  0  0  0  0  0  0
   57.8810   29.0440   45.6090 C   0  0  0  0  0  0  0  0  0  0  0  0
   58.4100   29.5730   46.8040 C   0  0  0  0  0  0  0  0  0  0  0  0
   59.6600   29.1690   47.2730 C   0  0  0  0  0  0  0  0  0  0  0  0
   60.4060   28.2320   46.5590 C   0  0  0  0  0  0  0  0  0  0  0  0
   59.9080   27.7070   45.3660 C   0  0  0  0  0  0  0  0  0  0  0  0
   58.6560   28.1050   44.8790 C   0  0  0  0  0  0  0  0  0  0  0  0
   58.1530   27.4480   43.3240 Cl  0  0  0  0  0  0  0  0  0  0  0  0
   56.6862   31.0984   42.2358 H   0  0  0  0  0  0  0  0  0  0  0  0
   56.9442   32.7460   41.5683 H   0  0  0  0  0  0  0  0  0  0  0  0
   58.2899   31.5560   41.5683 H   0  0  0  0  0  0  0  0  0  0  0  0
   59.1583   33.9105   42.6482 H   0  0  0  0  0  0  0  0  0  0  0  0
   59.9656   34.7061   44.8635 H   0  0  0  0  0  0  0  0  0  0  0  0
   61.0135   31.6541   47.9182 H   0  0  0  0  0  0  0  0  0  0  0  0
   61.2822   32.2499   46.2392 H   0  0  0  0  0  0  0  0  0  0  0  0
   63.2505   31.4847   48.2217 H   0  0  0  0  0  0  0  0  0  0  0  0
   63.5017   32.0641   46.5213 H   0  0  0  0  0  0  0  0  0  0  0  0
   63.2056   33.0400   49.9433 H   0  0  0  0  0  0  0  0  0  0  0  0
   63.4539   34.7930   49.5510 H   0  0  0  0  0  0  0  0  0  0  0  0
   60.9725   33.3592   49.7681 H   0  0  0  0  0  0  0  0  0  0  0  0
   61.2415   35.0830   49.3162 H   0  0  0  0  0  0  0  0  0  0  0  0
   57.4384   31.8032   46.8355 H   0  0  0  0  0  0  0  0  0  0  0  0
   57.8296   30.3137   47.3737 H   0  0  0  0  0  0  0  0  0  0  0  0
   60.0580   29.5904   48.2079 H   0  0  0  0  0  0  0  0  0  0  0  0
   61.3868   27.9068   46.9361 H   0  0  0  0  0  0  0  0  0  0  0  0
   60.5039   26.9738   44.8026 H   0  0  0  0  0  0  0  0  0  0  0  0
  1  2  1  0
  2  3  2  0
  3  4  1  0
  4  5  2  0
  5  6  1  0
  6  7  2  0
  6  8  2  0
  6  9  1  0
  9 10  1  0
 10 11  1  0
 11 12  1  0
 12 13  1  0
 13 14  1  0
  5 15  1  0
 15 16  2  0
 16 17  1  0
 17 18  1  0
 18 19  2  0
 18 20  1  0
 20 21  2  0
 21 22  1  0
 22 23  2  0
 23 24  1  0
 24 25  2  0
 25 26  1  0
 16  2  1  0
 25 20  1  0
 14  9  1  0
  1 27  1  0
  1 28  1  0
  1 29  1  0
  3 30  1  0
  4 31  1  0
 10 32  1  0
 10 33  1  0
 11 34  1  0
 11 35  1  0
 13 36  1  0
 13 37  1  0
 14 38  1  0
 14 39  1  0
 15 40  1  0
 21 41  1  0
 22 42  1  0
 23 43  1  0
 24 44  1  0
M  CHG  1  17  -1
M  END
>  <UniqueID>  (67) 
60

>  <SMILES>  (67) 
Cc1ccc(S(=O)(=O)N2CCOCC2)cc1[N-]C(=O)c1ccccc1Cl

>  <Energy>  (67) 
63.898588796395

>  <Genealogy>  (67) 
Cc1ccc(S(=O)(=O)N2CCOCC2)cc1[N-]C(=O)c1ccccc1Cl (protonated)
Cc1ccc(S(=O)(=O)N2CCOCC2)cc1[N-]C(=O)c1ccccc1Cl (3D coordinates assigned)
Cc1ccc(S(=O)(=O)N2CCOCC2)cc1[N-]C(=O)c1ccccc1Cl (nonaromatic ring conformer: 63.898588796395 kcal/mol)

>  <smiles>  (67) 
Cc1ccc(S(=O)(=O)N2CCOCC2)cc1NC(=O)c1ccccc1Cl

>  <score_type>  (67) 
oracle

>  <origin>  (67) 
adg

>  <m_score__min__energy>  (67) 
-11.42

>  <m_primary>  (67) 
energy

$$$$
67:0
     RDKit          3D

 52 55  0  0  0  0  0  0  0  0999 V2000
   57.2440   28.5840   43.8310 O   0  0  0  0  0  0  0  0  0  0  0  0
   57.0580   29.0540   44.9840 C   0  0  0  0  0  0  0  0  0  0  0  0
   57.4670   28.2320   46.1770 C   0  0  0  0  0  0  0  0  0  0  0  0
   57.2920   26.8100   45.8860 N   0  0  0  0  0  0  0  0  0  0  0  0
   58.2720   25.9010   45.6850 C   0  0  0  0  0  0  0  0  0  0  0  0
   59.6320   26.1990   45.6950 O   0  0  0  0  0  0  0  0  0  0  0  0
   57.7300   24.6460   45.4860 C   0  0  0  0  0  0  0  0  0  0  0  0
   56.3660   24.7840   45.6190 C   0  0  0  0  0  0  0  0  0  0  0  0
   56.1270   26.1260   45.8430 C   0  0  0  0  0  0  0  0  0  0  0  0
   54.8720   26.7040   45.9970 O   0  0  0  0  0  0  0  0  0  0  0  0
   55.3860   23.6660   45.4240 C   0  0  0  0  0  0  0  0  0  0  0  0
   56.0990   22.3010   45.5220 C   0  0  0  0  0  0  0  0  0  0  0  0
   57.4330   22.2870   44.7400 C   0  0  0  0  0  0  0  0  0  0  0  0
   58.4260   23.3350   45.2820 C   0  0  0  0  0  0  0  0  0  0  0  0
   56.6140   30.4100   45.1150 N   0  0  0  0  0  0  0  0  0  0  0  0
   57.4540   31.5560   45.2970 C   0  0  0  0  0  0  0  0  0  0  0  0
   57.4670   32.5530   44.3150 C   0  0  0  0  0  0  0  0  0  0  0  0
   58.2560   33.6940   44.4800 C   0  0  0  0  0  0  0  0  0  0  0  0
   59.0290   33.8590   45.6350 C   0  0  0  0  0  0  0  0  0  0  0  0
   59.7960   35.0090   45.7770 O   0  0  0  0  0  0  0  0  0  0  0  0
   59.0110   32.8700   46.6380 C   0  0  0  0  0  0  0  0  0  0  0  0
   59.9500   33.0360   48.1270 S   0  0  0  0  0  0  0  0  0  0  0  0
   60.2060   31.6880   48.7460 O   0  0  0  0  0  0  0  0  0  0  0  0
   59.1530   33.8620   49.1000 O   0  0  0  0  0  0  0  0  0  0  0  0
   61.4660   33.8400   47.7880 N   0  0  0  0  0  0  0  0  0  0  0  0
   62.2310   33.0790   46.7820 C   0  0  0  0  0  0  0  0  0  0  0  0
   63.7170   33.4800   46.8140 C   0  0  0  0  0  0  0  0  0  0  0  0
   64.3550   33.2910   48.0720 O   0  0  0  0  0  0  0  0  0  0  0  0
   63.4520   33.1600   49.1590 C   0  0  0  0  0  0  0  0  0  0  0  0
   62.2310   34.0890   49.0320 C   0  0  0  0  0  0  0  0  0  0  0  0
   58.2030   31.7350   46.4710 C   0  0  0  0  0  0  0  0  0  0  0  0
   58.5237   28.4290   46.4105 H   0  0  0  0  0  0  0  0  0  0  0  0
   56.8385   28.5053   47.0374 H   0  0  0  0  0  0  0  0  0  0  0  0
   54.6093   23.7256   46.2006 H   0  0  0  0  0  0  0  0  0  0  0  0
   54.9319   23.7601   44.4265 H   0  0  0  0  0  0  0  0  0  0  0  0
   56.3054   22.0833   46.5803 H   0  0  0  0  0  0  0  0  0  0  0  0
   55.4384   21.5401   45.0808 H   0  0  0  0  0  0  0  0  0  0  0  0
   57.8863   21.2885   44.8272 H   0  0  0  0  0  0  0  0  0  0  0  0
   57.2162   22.5326   43.6899 H   0  0  0  0  0  0  0  0  0  0  0  0
   58.8347   22.9867   46.2420 H   0  0  0  0  0  0  0  0  0  0  0  0
   59.2407   23.4690   44.5552 H   0  0  0  0  0  0  0  0  0  0  0  0
   56.8534   32.4377   43.4094 H   0  0  0  0  0  0  0  0  0  0  0  0
   58.2698   34.4672   43.6977 H   0  0  0  0  0  0  0  0  0  0  0  0
   62.1419   32.0040   46.9974 H   0  0  0  0  0  0  0  0  0  0  0  0
   61.8249   33.3021   45.7844 H   0  0  0  0  0  0  0  0  0  0  0  0
   64.2511   32.8775   46.0645 H   0  0  0  0  0  0  0  0  0  0  0  0
   63.7530   34.5594   46.6054 H   0  0  0  0  0  0  0  0  0  0  0  0
   63.0993   32.1189   49.2001 H   0  0  0  0  0  0  0  0  0  0  0  0
   63.9912   33.4432   50.0750 H   0  0  0  0  0  0  0  0  0  0  0  0
   61.5686   33.9235   49.8945 H   0  0  0  0  0  0  0  0  0  0  0  0
   62.5970   35.1259   49.0018 H   0  0  0  0  0  0  0  0  0  0  0  0
   58.1559   30.9780   47.2677 H   0  0  0  0  0  0  0  0  0  0  0  0
  1  2  2  0
  2  3  1  0
  3  4  1  0
  4  5  1  0
  5  6  1  0
  5  7  2  0
  7  8  1  0
  8  9  2  0
  9 10  1  0
  8 11  1  0
 11 12  1  0
 12 13  1  0
 13 14  1  0
  2 15  1  0
 15 16  1  0
 16 17  2  0
 17 18  1  0
 18 19  2  0
 19 20  1  0
 19 21  1  0
 21 22  1  0
 22 23  2  0
 22 24  2  0
 22 25  1  0
 25 26  1  0
 26 27  1  0
 27 28  1  0
 28 29  1  0
 29 30  1  0
 21 31  2  0
  9  4  1  0
 31 16  1  0
 14  7  1  0
 30 25  1  0
  3 32  1  0
  3 33  1  0
 11 34  1  0
 11 35  1  0
 12 36  1  0
 12 37  1  0
 13 38  1  0
 13 39  1  0
 14 40  1  0
 14 41  1  0
 17 42  1  0
 18 43  1  0
 26 44  1  0
 26 45  1  0
 27 46  1  0
 27 47  1  0
 29 48  1  0
 29 49  1  0
 30 50  1  0
 30 51  1  0
 31 52  1  0
M  CHG  4   6  -1  10  -1  15  -1  20  -1
M  END
>  <UniqueID>  (68) 
61

>  <SMILES>  (68) 
O=C(Cn1c([O-])c2c(c1[O-])CCCC2)[N-]c1ccc([O-])c(S(=O)(=O)N2CCOCC2)c1

>  <Energy>  (68) 
99.80761335427754

>  <Genealogy>  (68) 
O=C(Cn1c([O-])c2c(c1[O-])CCCC2)[N-]c1ccc([O-])c(S(=O)(=O)N2CCOCC2)c1 (protonated)
O=C(Cn1c([O-])c2c(c1[O-])CCCC2)[N-]c1ccc([O-])c(S(=O)(=O)N2CCOCC2)c1 (3D coordinates assigned)
O=C(Cn1c([O-])c2c(c1[O-])CCCC2)[N-]c1ccc([O-])c(S(=O)(=O)N2CCOCC2)c1 (nonaromatic ring conformer: 99.80761335427754 kcal/mol)

>  <smiles>  (68) 
O=C(Cn1c(O)c2c(c1O)CCCC2)Nc1ccc(O)c(S(=O)(=O)N2CCOCC2)c1

>  <score_type>  (68) 
oracle

>  <origin>  (68) 
adg

>  <m_score__min__energy>  (68) 
-16.02

>  <m_primary>  (68) 
energy

$$$$
68:0
     RDKit          3D

 27 28  0  0  0  0  0  0  0  0999 V2000
   55.1430   27.4800   45.5640 H   0  0  0  0  0  0  0  0  0  0  0  0
   54.9280   26.6910   46.1560 O   0  0  0  0  0  0  0  0  0  0  0  0
   55.3940   25.3950   45.9230 C   0  0  0  0  0  0  0  0  0  0  0  0
   54.4760   24.4120   45.7350 N   0  0  0  0  0  0  0  0  0  0  0  0
   54.8480   23.1320   45.4850 C   0  0  0  0  0  0  0  0  0  0  0  0
   53.9720   22.2450   45.3170 O   0  0  0  0  0  0  0  0  0  0  0  0
   56.1620   22.8110   45.4110 N   0  0  0  0  0  0  0  0  0  0  0  0
   57.1270   23.7470   45.5920 C   0  0  0  0  0  0  0  0  0  0  0  0
   58.3360   23.4040   45.5040 O   0  0  0  0  0  0  0  0  0  0  0  0
   56.7730   25.0830   45.8720 C   0  0  0  0  0  0  0  0  0  0  0  0
   57.8430   26.1380   46.0570 C   0  0  0  0  0  0  0  0  0  0  0  0
   58.8174   25.7213   45.7624 H   0  0  0  0  0  0  0  0  0  0  0  0
   57.8652   26.4416   47.1140 H   0  0  0  0  0  0  0  0  0  0  0  0
   57.5450   27.3380   45.2140 C   0  0  0  0  0  0  0  0  0  0  0  0
   56.8930   28.4280   45.6530 N   0  0  0  0  0  0  0  0  0  0  0  0
   56.8190   29.2080   44.5560 C   0  0  0  0  0  0  0  0  0  0  0  0
   56.2520   30.3760   44.5760 N   0  0  0  0  0  0  0  0  0  0  0  0
   56.9730   31.6470   44.5270 C   0  0  0  0  0  0  0  0  0  0  0  0
   57.6800   31.6933   45.3684 H   0  0  0  0  0  0  0  0  0  0  0  0
   56.2445   32.4685   44.5935 H   0  0  0  0  0  0  0  0  0  0  0  0
   57.7440   31.7820   43.2180 C   0  0  0  0  0  0  0  0  0  0  0  0
   58.8061   31.9680   43.4355 H   0  0  0  0  0  0  0  0  0  0  0  0
   57.6459   30.8530   42.6372 H   0  0  0  0  0  0  0  0  0  0  0  0
   57.3361   32.6224   42.6372 H   0  0  0  0  0  0  0  0  0  0  0  0
   57.3830   28.6700   43.4510 N   0  0  0  0  0  0  0  0  0  0  0  0
   57.8390   27.4790   43.8760 C   0  0  0  0  0  0  0  0  0  0  0  0
   58.3624   26.7369   43.2553 H   0  0  0  0  0  0  0  0  0  0  0  0
  1  2  1  0
  2  3  1  0
  3  4  1  0
  4  5  1  0
  5  6  2  0
  5  7  1  0
  7  8  1  0
  8  9  2  0
  8 10  1  0
 10 11  1  0
 11 12  1  0
 11 13  1  0
 11 14  1  0
 14 15  1  0
 15 16  1  0
 16 17  2  0
 17 18  1  0
 18 19  1  0
 18 20  1  0
 18 21  1  0
 21 22  1  0
 21 23  1  0
 21 24  1  0
 16 25  1  0
 25 26  1  0
 26 27  1  0
 10  3  2  0
 26 14  2  0
M  CHG  4   4  -1   7  -1  15  -1  25  -1
M  END
>  <UniqueID>  (69) 
62

>  <SMILES>  (69) 
CC/N=c1\[n-]cc(Cc2c(O)[n-]c(=O)[n-]c2=O)[n-]1

>  <Energy>  (69) 
54.19842356913112

>  <Genealogy>  (69) 
CCN=c1[n-]cc(Cc2c(O)[n-]c(=O)[n-]c2=O)[n-]1 (protonated)
CC/N=c1\[n-]cc(Cc2c(O)[n-]c(=O)[n-]c2=O)[n-]1 (cis-trans isomerization)
CC/N=c1\[n-]cc(Cc2c(O)[n-]c(=O)[n-]c2=O)[n-]1 (3D coordinates assigned)
CC/N=c1\[n-]cc(Cc2c(O)[n-]c(=O)[n-]c2=O)[n-]1 (optimized conformer: 54.19842356913112 kcal/mol)

>  <smiles>  (69) 
CCN=c1[nH]cc(Cc2c(O)[nH]c(=O)[nH]c2=O)[nH]1

>  <score_type>  (69) 
oracle

>  <origin>  (69) 
adg

>  <m_score__min__energy>  (69) 
-12.619999999999999

>  <m_primary>  (69) 
energy

$$$$
69:0
     RDKit          3D

 50 52  0  0  0  0  0  0  0  0999 V2000
   59.5460   34.9660   48.2770 N   0  0  0  0  0  0  0  0  0  0  0  0
   60.0220   34.7580   46.6270 S   0  0  0  0  0  0  0  0  0  0  0  0
   59.9020   36.0670   45.8980 O   0  0  0  0  0  0  0  0  0  0  0  0
   61.4540   34.3040   46.5800 O   0  0  0  0  0  0  0  0  0  0  0  0
   58.9780   33.5660   45.8620 C   0  0  0  0  0  0  0  0  0  0  0  0
   58.5270   33.7470   44.5450 C   0  0  0  0  0  0  0  0  0  0  0  0
   57.7000   32.7910   43.9490 C   0  0  0  0  0  0  0  0  0  0  0  0
   57.3170   31.6430   44.6590 C   0  0  0  0  0  0  0  0  0  0  0  0
   56.4360   30.6040   44.0200 C   0  0  0  0  0  0  0  0  0  0  0  0
   56.5610   29.3310   44.7200 N   0  0  0  0  0  0  0  0  0  0  0  0
   57.5760   28.3670   44.4160 C   0  0  0  0  0  0  0  0  0  0  0  0
   57.6810   27.9320   43.2360 O   0  0  0  0  0  0  0  0  0  0  0  0
   58.4930   27.8550   45.4710 C   0  0  0  0  0  0  0  0  0  0  0  0
   59.4400   28.7410   46.0240 C   0  0  0  0  0  0  0  0  0  0  0  0
   60.3190   28.3190   47.0210 C   0  0  0  0  0  0  0  0  0  0  0  0
   60.2660   27.0100   47.4890 C   0  0  0  0  0  0  0  0  0  0  0  0
   59.3370   26.1150   46.9600 C   0  0  0  0  0  0  0  0  0  0  0  0
   58.4430   26.5170   45.9470 C   0  0  0  0  0  0  0  0  0  0  0  0
   57.4710   25.5960   45.4200 N   0  0  0  0  0  0  0  0  0  0  0  0
   55.8590   25.3870   46.0290 S   0  0  0  0  0  0  0  0  0  0  0  0
   55.9110   24.8680   47.4390 O   0  0  0  0  0  0  0  0  0  0  0  0
   55.1390   26.7050   46.0050 O   0  0  0  0  0  0  0  0  0  0  0  0
   54.9550   24.2270   45.0100 C   0  0  0  0  0  0  0  0  0  0  0  0
   55.8500   23.1460   44.4630 C   0  0  0  0  0  0  0  0  0  0  0  0
   55.8620   22.8560   43.0870 C   0  0  0  0  0  0  0  0  0  0  0  0
   56.7120   21.8680   42.5820 C   0  0  0  0  0  0  0  0  0  0  0  0
   57.5680   21.1740   43.4390 C   0  0  0  0  0  0  0  0  0  0  0  0
   57.5820   21.4740   44.8030 C   0  0  0  0  0  0  0  0  0  0  0  0
   56.7260   22.4540   45.3150 C   0  0  0  0  0  0  0  0  0  0  0  0
   57.7760   31.4630   45.9740 C   0  0  0  0  0  0  0  0  0  0  0  0
   58.6020   32.4200   46.5710 C   0  0  0  0  0  0  0  0  0  0  0  0
   58.8930   35.7820   48.3050 H   0  0  0  0  0  0  0  0  0  0  0  0
   58.9870   34.1240   48.5410 H   0  0  0  0  0  0  0  0  0  0  0  0
   58.8251   34.6431   43.9810 H   0  0  0  0  0  0  0  0  0  0  0  0
   57.3474   32.9393   42.9177 H   0  0  0  0  0  0  0  0  0  0  0  0
   55.3895   30.9400   44.0631 H   0  0  0  0  0  0  0  0  0  0  0  0
   56.7466   30.4677   42.9736 H   0  0  0  0  0  0  0  0  0  0  0  0
   59.4862   29.7794   45.6641 H   0  0  0  0  0  0  0  0  0  0  0  0
   61.0552   29.0220   47.4379 H   0  0  0  0  0  0  0  0  0  0  0  0
   60.9583   26.6805   48.2778 H   0  0  0  0  0  0  0  0  0  0  0  0
   59.3013   25.0825   47.3378 H   0  0  0  0  0  0  0  0  0  0  0  0
   54.1643   23.7613   45.6166 H   0  0  0  0  0  0  0  0  0  0  0  0
   54.5281   24.7795   44.1600 H   0  0  0  0  0  0  0  0  0  0  0  0
   55.1995   23.4092   42.4051 H   0  0  0  0  0  0  0  0  0  0  0  0
   56.7064   21.6367   41.5066 H   0  0  0  0  0  0  0  0  0  0  0  0
   58.2307   20.3917   43.0405 H   0  0  0  0  0  0  0  0  0  0  0  0
   58.2678   20.9383   45.4758 H   0  0  0  0  0  0  0  0  0  0  0  0
   56.7388   22.6841   46.3906 H   0  0  0  0  0  0  0  0  0  0  0  0
   57.4841   30.5643   46.5372 H   0  0  0  0  0  0  0  0  0  0  0  0
   58.9574   32.2715   47.6014 H   0  0  0  0  0  0  0  0  0  0  0  0
  1  2  1  0
  2  3  2  0
  2  4  2  0
  2  5  1  0
  5  6  2  0
  6  7  1  0
  7  8  2  0
  8  9  1  0
  9 10  1  0
 10 11  1  0
 11 12  2  0
 11 13  1  0
 13 14  2  0
 14 15  1  0
 15 16  2  0
 16 17  1  0
 17 18  2  0
 18 19  1  0
 19 20  1  0
 20 21  2  0
 20 22  2  0
 20 23  1  0
 23 24  1  0
 24 25  2  0
 25 26  1  0
 26 27  2  0
 27 28  1  0
 28 29  2  0
  8 30  1  0
 30 31  2  0
 31  5  1  0
 18 13  1  0
 29 24  1  0
  1 32  1  0
  1 33  1  0
  6 34  1  0
  7 35  1  0
  9 36  1  0
  9 37  1  0
 14 38  1  0
 15 39  1  0
 16 40  1  0
 17 41  1  0
 23 42  1  0
 23 43  1  0
 25 44  1  0
 26 45  1  0
 27 46  1  0
 28 47  1  0
 29 48  1  0
 30 49  1  0
 31 50  1  0
M  CHG  2  10  -1  19  -1
M  END
>  <UniqueID>  (70) 
63

>  <SMILES>  (70) 
NS(=O)(=O)c1ccc(C[N-]C(=O)c2ccccc2[N-]S(=O)(=O)Cc2ccccc2)cc1

>  <Energy>  (70) 
49.52901686950393

>  <Genealogy>  (70) 
NS(=O)(=O)c1ccc(C[N-]C(=O)c2ccccc2[N-]S(=O)(=O)Cc2ccccc2)cc1 (protonated)
NS(=O)(=O)c1ccc(C[N-]C(=O)c2ccccc2[N-]S(=O)(=O)Cc2ccccc2)cc1 (3D coordinates assigned)
NS(=O)(=O)c1ccc(C[N-]C(=O)c2ccccc2[N-]S(=O)(=O)Cc2ccccc2)cc1 (optimized conformer: 49.52901686950393 kcal/mol)

>  <smiles>  (70) 
NS(=O)(=O)c1ccc(CNC(=O)c2ccccc2NS(=O)(=O)Cc2ccccc2)cc1

>  <score_type>  (70) 
oracle

>  <origin>  (70) 
adg

>  <m_score__min__energy>  (70) 
-13.34

>  <m_primary>  (70) 
energy

$$$$
70:0
     RDKit          3D

 38 40  0  0  0  0  0  0  0  0999 V2000
   57.7130   30.9100   42.9280 O   0  0  0  0  0  0  0  0  0  0  0  0
   57.4080   30.7570   44.1410 C   0  0  0  0  0  0  0  0  0  0  0  0
   57.0040   31.9710   44.9350 C   0  0  0  0  0  0  0  0  0  0  0  0
   57.8540   32.1200   46.1130 N   0  0  0  0  0  0  0  0  0  0  0  0
   58.8040   31.2680   46.5330 C   0  0  0  0  0  0  0  0  0  0  0  0
   59.3070   31.8060   47.6960 C   0  0  0  0  0  0  0  0  0  0  0  0
   60.3030   31.1750   48.6090 C   0  0  0  0  0  0  0  0  0  0  0  0
   59.6500   30.8000   49.8190 O   0  0  0  0  0  0  0  0  0  0  0  0
   59.0660   31.7030   50.7200 C   0  0  0  0  0  0  0  0  0  0  0  0
   59.5910   32.9920   50.9410 C   0  0  0  0  0  0  0  0  0  0  0  0
   58.9740   33.8570   51.8500 C   0  0  0  0  0  0  0  0  0  0  0  0
   57.8320   33.4470   52.5430 C   0  0  0  0  0  0  0  0  0  0  0  0
   57.3060   32.1720   52.3300 C   0  0  0  0  0  0  0  0  0  0  0  0
   57.9200   31.3010   51.4210 C   0  0  0  0  0  0  0  0  0  0  0  0
   57.3860   30.0330   51.2180 O   0  0  0  0  0  0  0  0  0  0  0  0
   58.6460   32.9520   47.9590 N   0  0  0  0  0  0  0  0  0  0  0  0
   57.7750   33.1230   46.9750 N   0  0  0  0  0  0  0  0  0  0  0  0
   57.4570   29.4000   44.7490 C   0  0  0  0  0  0  0  0  0  0  0  0
   58.6940   28.7710   44.9870 C   0  0  0  0  0  0  0  0  0  0  0  0
   58.7480   27.4940   45.5480 C   0  0  0  0  0  0  0  0  0  0  0  0
   57.5720   26.8200   45.8860 C   0  0  0  0  0  0  0  0  0  0  0  0
   57.6570   25.5450   46.4450 O   0  0  0  0  0  0  0  0  0  0  0  0
   56.3310   27.4330   45.6580 C   0  0  0  0  0  0  0  0  0  0  0  0
   55.1530   26.7710   45.9890 O   0  0  0  0  0  0  0  0  0  0  0  0
   56.2700   28.7150   45.0930 C   0  0  0  0  0  0  0  0  0  0  0  0
   55.0250   29.2900   44.8600 O   0  0  0  0  0  0  0  0  0  0  0  0
   57.1021   32.8658   44.3027 H   0  0  0  0  0  0  0  0  0  0  0  0
   55.9610   31.8497   45.2629 H   0  0  0  0  0  0  0  0  0  0  0  0
   59.1161   30.3319   46.0469 H   0  0  0  0  0  0  0  0  0  0  0  0
   60.7304   30.2825   48.1285 H   0  0  0  0  0  0  0  0  0  0  0  0
   61.1110   31.8885   48.8281 H   0  0  0  0  0  0  0  0  0  0  0  0
   60.4892   33.3188   50.3966 H   0  0  0  0  0  0  0  0  0  0  0  0
   59.3883   34.8618   52.0198 H   0  0  0  0  0  0  0  0  0  0  0  0
   57.3474   34.1295   53.2567 H   0  0  0  0  0  0  0  0  0  0  0  0
   56.4075   31.8504   52.8770 H   0  0  0  0  0  0  0  0  0  0  0  0
   59.6278   29.2915   44.7281 H   0  0  0  0  0  0  0  0  0  0  0  0
   59.7225   27.0155   45.7250 H   0  0  0  0  0  0  0  0  0  0  0  0
   56.8340   25.0220   46.7160 H   0  0  0  0  0  0  0  0  0  0  0  0
  1  2  2  0
  2  3  1  0
  3  4  1  0
  4  5  1  0
  5  6  2  0
  6  7  1  0
  7  8  1  0
  8  9  1  0
  9 10  2  0
 10 11  1  0
 11 12  2  0
 12 13  1  0
 13 14  2  0
 14 15  1  0
  6 16  1  0
 16 17  2  0
  2 18  1  0
 18 19  2  0
 19 20  1  0
 20 21  2  0
 21 22  1  0
 21 23  1  0
 23 24  1  0
 23 25  2  0
 25 26  1  0
 17  4  1  0
 25 18  1  0
 14  9  1  0
  3 27  1  0
  3 28  1  0
  5 29  1  0
  7 30  1  0
  7 31  1  0
 10 32  1  0
 11 33  1  0
 12 34  1  0
 13 35  1  0
 19 36  1  0
 20 37  1  0
 22 38  1  0
M  CHG  3  15  -1  24  -1  26  -1
M  END
>  <UniqueID>  (71) 
64

>  <SMILES>  (71) 
O=C(Cn1cc(COc2ccccc2[O-])nn1)c1ccc(O)c([O-])c1[O-]

>  <Energy>  (71) 
76.82234877769746

>  <Genealogy>  (71) 
O=C(Cn1cc(COc2ccccc2[O-])nn1)c1ccc(O)c([O-])c1[O-] (protonated)
O=C(Cn1cc(COc2ccccc2[O-])nn1)c1ccc(O)c([O-])c1[O-] (3D coordinates assigned)
O=C(Cn1cc(COc2ccccc2[O-])nn1)c1ccc(O)c([O-])c1[O-] (optimized conformer: 76.82234877769746 kcal/mol)

>  <smiles>  (71) 
O=C(Cn1cc(COc2ccccc2O)nn1)c1ccc(O)c(O)c1O

>  <score_type>  (71) 
oracle

>  <origin>  (71) 
adg

>  <m_score__min__energy>  (71) 
-15.970000000000001

>  <m_primary>  (71) 
energy

$$$$
71:0
     RDKit          3D

 52 55  0  0  1  0  0  0  0  0999 V2000
   57.0130   33.3260   47.3380 N   0  0  0  0  0  0  0  0  0  0  0  0
   58.4130   33.4890   47.5310 C   0  0  0  0  0  0  0  0  0  0  0  0
   58.8760   33.7870   48.6400 O   0  0  0  0  0  0  0  0  0  0  0  0
   59.3240   33.2950   46.3730 C   0  0  2  0  0  0  0  0  0  0  0  0
   60.3850   34.3880   46.3430 C   0  0  0  0  0  0  0  0  0  0  0  0
   59.6470   35.5150   45.7010 C   0  0  0  0  0  0  0  0  0  0  0  0
   58.6460   34.8500   44.8090 C   0  0  0  0  0  0  0  0  0  0  0  0
   58.6060   33.4460   45.1310 N   0  0  0  0  0  0  0  0  0  0  0  0
   57.9580   32.4780   44.3180 C   0  0  0  0  0  0  0  0  0  0  0  0
   57.3370   31.4490   44.9230 N   0  0  0  0  0  0  0  0  0  0  0  0
   56.6900   30.4730   44.2210 C   0  0  0  0  0  0  0  0  0  0  0  0
   56.1170   29.5150   44.8920 N   0  0  0  0  0  0  0  0  0  0  0  0
   56.9330   28.3630   45.2430 C   0  0  0  0  0  0  0  0  0  0  0  0
   58.2260   28.7850   45.8060 C   0  0  0  0  0  0  0  0  0  0  0  0
   59.3870   28.3210   45.2270 C   0  0  0  0  0  0  0  0  0  0  0  0
   60.5720   28.7320   45.7740 C   0  0  0  0  0  0  0  0  0  0  0  0
   60.5840   29.5860   46.8720 C   0  0  0  0  0  0  0  0  0  0  0  0
   59.4400   30.0590   47.4650 C   0  0  0  0  0  0  0  0  0  0  0  0
   59.3850   30.9230   48.5760 N   0  0  0  0  0  0  0  0  0  0  0  0
   58.7580   30.6880   49.8010 C   0  0  0  0  0  0  0  0  0  0  0  0
   58.1490   29.6250   50.0450 O   0  0  0  0  0  0  0  0  0  0  0  0
   58.7980   31.6940   50.8460 C   0  0  0  0  0  0  0  0  0  0  0  0
   57.8090   32.1240   51.7120 C   0  0  0  0  0  0  0  0  0  0  0  0
   58.0760   33.0640   52.5940 C   0  0  0  0  0  0  0  0  0  0  0  0
   59.3590   33.6080   52.6330 C   0  0  0  0  0  0  0  0  0  0  0  0
   60.2630   32.6810   51.2760 S   0  0  0  0  0  0  0  0  0  0  0  0
   58.2430   29.6270   46.8900 C   0  0  0  0  0  0  0  0  0  0  0  0
   56.6610   30.5310   42.8410 C   0  0  0  0  0  0  0  0  0  0  0  0
   57.3080   31.6020   42.2380 C   0  0  0  0  0  0  0  0  0  0  0  0
   57.9430   32.5540   42.9740 N   0  0  0  0  0  0  0  0  0  0  0  0
   56.2950   33.8670   47.8750 H   0  0  0  0  0  0  0  0  0  0  0  0
   56.7040   32.6240   46.6140 H   0  0  0  0  0  0  0  0  0  0  0  0
   59.7607   32.2911   46.4799 H   0  0  0  0  0  0  0  0  0  0  0  0
   60.7155   34.6528   47.3582 H   0  0  0  0  0  0  0  0  0  0  0  0
   61.3052   34.1001   45.8135 H   0  0  0  0  0  0  0  0  0  0  0  0
   59.1424   36.1312   46.4597 H   0  0  0  0  0  0  0  0  0  0  0  0
   60.3158   36.1905   45.1474 H   0  0  0  0  0  0  0  0  0  0  0  0
   57.6531   35.2955   44.9690 H   0  0  0  0  0  0  0  0  0  0  0  0
   58.9316   34.9864   43.7555 H   0  0  0  0  0  0  0  0  0  0  0  0
   56.3972   27.7560   45.9876 H   0  0  0  0  0  0  0  0  0  0  0  0
   57.1219   27.7763   44.3319 H   0  0  0  0  0  0  0  0  0  0  0  0
   59.3622   27.6463   44.3586 H   0  0  0  0  0  0  0  0  0  0  0  0
   61.5222   28.3845   45.3423 H   0  0  0  0  0  0  0  0  0  0  0  0
   61.5554   29.8967   47.2842 H   0  0  0  0  0  0  0  0  0  0  0  0
   59.8760   31.8620   48.4700 H   0  0  0  0  0  0  0  0  0  0  0  0
   56.8028   31.6820   51.6639 H   0  0  0  0  0  0  0  0  0  0  0  0
   57.2991   33.4147   53.2893 H   0  0  0  0  0  0  0  0  0  0  0  0
   59.7477   34.3922   53.2993 H   0  0  0  0  0  0  0  0  0  0  0  0
   57.2891   29.9703   47.3168 H   0  0  0  0  0  0  0  0  0  0  0  0
   56.1475   29.7619   42.2453 H   0  0  0  0  0  0  0  0  0  0  0  0
   57.3070   31.6823   41.1409 H   0  0  0  0  0  0  0  0  0  0  0  0
   58.4220   33.3480   42.4920 H   0  0  0  0  0  0  0  0  0  0  0  0
  1  2  1  0
  2  3  2  0
  2  4  1  0
  4  5  1  0
  5  6  1  0
  6  7  1  0
  7  8  1  0
  8  9  1  0
  9 10  2  0
 10 11  1  0
 11 12  2  0
 12 13  1  0
 13 14  1  0
 14 15  2  0
 15 16  1  0
 16 17  2  0
 17 18  1  0
 18 19  1  0
 19 20  1  0
 20 21  2  0
 20 22  1  0
 22 23  2  0
 23 24  1  0
 24 25  2  0
 25 26  1  0
 18 27  2  0
 11 28  1  0
 28 29  2  0
 29 30  1  0
  8  4  1  0
 30  9  1  0
 27 14  1  0
 26 22  1  0
  1 31  1  0
  1 32  1  0
  4 33  1  1
  5 34  1  0
  5 35  1  0
  6 36  1  0
  6 37  1  0
  7 38  1  0
  7 39  1  0
 13 40  1  0
 13 41  1  0
 15 42  1  0
 16 43  1  0
 17 44  1  0
 19 45  1  0
 23 46  1  0
 24 47  1  0
 25 48  1  0
 27 49  1  0
 28 50  1  0
 29 51  1  0
 30 52  1  0
M  END
>  <smiles>  (72) 
NC(=O)C1CCCN1c1nc(=NCc2cccc(NC(=O)c3cccs3)c2)cc[nH]1

>  <score_type>  (72) 
oracle

>  <origin>  (72) 
adg

>  <m_score__min__energy>  (72) 
-10.07

>  <m_primary>  (72) 
energy

$$$$
72:0
     RDKit          3D

 57 59  0  0  0  0  0  0  0  0999 V2000
   57.1840   31.8460   42.0940 C   0  0  0  0  0  0  0  0  0  0  0  0
   56.9100   30.9900   43.6320 S   0  0  0  0  0  0  0  0  0  0  0  0
   58.0840   30.0930   43.9040 O   0  0  0  0  0  0  0  0  0  0  0  0
   55.6680   30.1450   43.5500 O   0  0  0  0  0  0  0  0  0  0  0  0
   56.7650   32.1320   44.9290 N   0  0  0  0  0  0  0  0  0  0  0  0
   57.8480   32.6900   45.6850 C   0  0  0  0  0  0  0  0  0  0  0  0
   57.7580   32.6860   47.0820 C   0  0  0  0  0  0  0  0  0  0  0  0
   58.7900   33.2160   47.8620 C   0  0  0  0  0  0  0  0  0  0  0  0
   59.9240   33.7720   47.2520 C   0  0  0  0  0  0  0  0  0  0  0  0
   61.0430   34.3140   48.0970 C   0  0  0  0  0  0  0  0  0  0  0  0
   62.2970   33.6490   47.7610 N   0  0  0  0  0  0  0  0  0  0  0  0
   62.4490   32.2280   47.7520 C   0  0  0  0  0  0  0  0  0  0  0  0
   63.5360   31.7230   48.1420 O   0  0  0  0  0  0  0  0  0  0  0  0
   61.4020   31.4130   47.3050 O   0  0  0  0  0  0  0  0  0  0  0  0
   60.8970   30.3040   48.0450 C   0  0  0  0  0  0  0  0  0  0  0  0
   59.8570   29.5730   47.2560 C   0  0  0  0  0  0  0  0  0  0  0  0
   60.0460   28.3750   46.5900 C   0  0  0  0  0  0  0  0  0  0  0  0
   58.8270   28.0800   46.0120 C   0  0  0  0  0  0  0  0  0  0  0  0
   58.5300   26.9310   45.0970 C   0  0  0  0  0  0  0  0  0  0  0  0
   57.1230   26.7030   45.0310 O   0  0  0  0  0  0  0  0  0  0  0  0
   56.3680   26.2450   46.1160 C   0  0  0  0  0  0  0  0  0  0  0  0
   56.9230   25.9790   47.2180 O   0  0  0  0  0  0  0  0  0  0  0  0
   54.9560   26.0870   45.9650 N   0  0  0  0  0  0  0  0  0  0  0  0
   54.3210   24.8330   45.5790 C   0  0  0  0  0  0  0  0  0  0  0  0
   55.3500   23.8610   45.0680 C   0  0  0  0  0  0  0  0  0  0  0  0
   56.1210   23.1120   45.9710 C   0  0  0  0  0  0  0  0  0  0  0  0
   57.0930   22.2230   45.5000 C   0  0  0  0  0  0  0  0  0  0  0  0
   57.3040   22.0780   44.1290 C   0  0  0  0  0  0  0  0  0  0  0  0
   56.5430   22.8220   43.2230 C   0  0  0  0  0  0  0  0  0  0  0  0
   55.5690   23.7110   43.6890 C   0  0  0  0  0  0  0  0  0  0  0  0
   57.9840   29.1190   46.3590 C   0  0  0  0  0  0  0  0  0  0  0  0
   56.6540   29.2640   45.9760 O   0  0  0  0  0  0  0  0  0  0  0  0
   58.6180   29.9890   47.1090 O   0  0  0  0  0  0  0  0  0  0  0  0
   60.0200   33.7710   45.8520 C   0  0  0  0  0  0  0  0  0  0  0  0
   58.9920   33.2310   45.0730 C   0  0  0  0  0  0  0  0  0  0  0  0
   57.5134   32.8750   42.3007 H   0  0  0  0  0  0  0  0  0  0  0  0
   57.9593   31.3220   41.5158 H   0  0  0  0  0  0  0  0  0  0  0  0
   56.2485   31.8696   41.5158 H   0  0  0  0  0  0  0  0  0  0  0  0
   56.8679   32.2623   47.5700 H   0  0  0  0  0  0  0  0  0  0  0  0
   58.7123   33.1969   48.9591 H   0  0  0  0  0  0  0  0  0  0  0  0
   61.1448   35.3941   47.9155 H   0  0  0  0  0  0  0  0  0  0  0  0
   60.8129   34.1308   49.1569 H   0  0  0  0  0  0  0  0  0  0  0  0
   61.7244   29.6170   48.2761 H   0  0  0  0  0  0  0  0  0  0  0  0
   60.4402   30.6764   48.9738 H   0  0  0  0  0  0  0  0  0  0  0  0
   60.9713   27.7829   46.5330 H   0  0  0  0  0  0  0  0  0  0  0  0
   58.9081   27.1615   44.0901 H   0  0  0  0  0  0  0  0  0  0  0  0
   59.0217   26.0270   45.4856 H   0  0  0  0  0  0  0  0  0  0  0  0
   53.8146   24.3986   46.4536 H   0  0  0  0  0  0  0  0  0  0  0  0
   53.5909   25.0329   44.7809 H   0  0  0  0  0  0  0  0  0  0  0  0
   55.9601   23.2246   47.0533 H   0  0  0  0  0  0  0  0  0  0  0  0
   57.6922   21.6371   46.2125 H   0  0  0  0  0  0  0  0  0  0  0  0
   58.0690   21.3785   43.7609 H   0  0  0  0  0  0  0  0  0  0  0  0
   56.7104   22.7082   42.1418 H   0  0  0  0  0  0  0  0  0  0  0  0
   54.9723   24.2948   42.9727 H   0  0  0  0  0  0  0  0  0  0  0  0
   56.2980   30.1410   45.6130 H   0  0  0  0  0  0  0  0  0  0  0  0
   60.9091   34.1975   45.3646 H   0  0  0  0  0  0  0  0  0  0  0  0
   59.0789   33.2295   43.9764 H   0  0  0  0  0  0  0  0  0  0  0  0
  1  2  1  0
  2  3  2  0
  2  4  2  0
  2  5  1  0
  5  6  1  0
  6  7  2  0
  7  8  1  0
  8  9  2  0
  9 10  1  0
 10 11  1  0
 11 12  1  0
 12 13  2  0
 12 14  1  0
 14 15  1  0
 15 16  1  0
 16 17  2  0
 17 18  1  0
 18 19  1  0
 19 20  1  0
 20 21  1  0
 21 22  2  0
 21 23  1  0
 23 24  1  0
 24 25  1  0
 25 26  2  0
 26 27  1  0
 27 28  2  0
 28 29  1  0
 29 30  2  0
 18 31  2  0
 31 32  1  0
 31 33  1  0
  9 34  1  0
 34 35  2  0
 35  6  1  0
 33 16  1  0
 30 25  1  0
  1 36  1  0
  1 37  1  0
  1 38  1  0
  7 39  1  0
  8 40  1  0
 10 41  1  0
 10 42  1  0
 15 43  1  0
 15 44  1  0
 17 45  1  0
 19 46  1  0
 19 47  1  0
 24 48  1  0
 24 49  1  0
 26 50  1  0
 27 51  1  0
 28 52  1  0
 29 53  1  0
 30 54  1  0
 32 55  1  0
 34 56  1  0
 35 57  1  0
M  CHG  3   5  -1  11  -1  23  -1
M  END
>  <UniqueID>  (73) 
65

>  <SMILES>  (73) 
CS(=O)(=O)[N-]c1ccc(C[N-]C(=O)OCc2cc(COC(=O)[N-]Cc3ccccc3)c(O)o2)cc1

>  <Energy>  (73) 
74.56041207902456

>  <Genealogy>  (73) 
CS(=O)(=O)[N-]c1ccc(C[N-]C(=O)OCc2cc(COC(=O)[N-]Cc3ccccc3)c(O)o2)cc1 (protonated)
CS(=O)(=O)[N-]c1ccc(C[N-]C(=O)OCc2cc(COC(=O)[N-]Cc3ccccc3)c(O)o2)cc1 (3D coordinates assigned)
CS(=O)(=O)[N-]c1ccc(C[N-]C(=O)OCc2cc(COC(=O)[N-]Cc3ccccc3)c(O)o2)cc1 (optimized conformer: 74.56041207902456 kcal/mol)

>  <smiles>  (73) 
CS(=O)(=O)Nc1ccc(CNC(=O)OCc2cc(COC(=O)NCc3ccccc3)c(O)o2)cc1

>  <score_type>  (73) 
oracle

>  <origin>  (73) 
adg

>  <m_score__min__energy>  (73) 
-13.4

>  <m_primary>  (73) 
energy

$$$$
73:0
     RDKit          3D

 43 45  0  0  0  0  0  0  0  0999 V2000
   54.4690   29.1793   44.0877 H   0  0  0  0  0  0  0  0  0  0  0  0
   55.4940   29.5630   44.1980 C   0  0  0  0  0  0  0  0  0  0  0  0
   56.2570   29.1670   45.2510 N   0  0  0  0  0  0  0  0  0  0  0  0
   57.5330   29.6180   45.4300 C   0  0  0  0  0  0  0  0  0  0  0  0
   58.2510   29.2350   46.4460 N   0  0  0  0  0  0  0  0  0  0  0  0
   59.6830   29.0970   46.4970 C   0  0  0  0  0  0  0  0  0  0  0  0
   60.2860   28.3700   45.6600 O   0  0  0  0  0  0  0  0  0  0  0  0
   60.4540   29.8110   47.5420 C   0  0  0  0  0  0  0  0  0  0  0  0
   60.6160   29.2510   48.8230 C   0  0  0  0  0  0  0  0  0  0  0  0
   60.1599   28.2773   49.0550 H   0  0  0  0  0  0  0  0  0  0  0  0
   61.3520   29.9230   49.8020 C   0  0  0  0  0  0  0  0  0  0  0  0
   61.4759   29.4752   50.7991 H   0  0  0  0  0  0  0  0  0  0  0  0
   61.9310   31.1620   49.5180 C   0  0  0  0  0  0  0  0  0  0  0  0
   62.5128   31.6856   50.2909 H   0  0  0  0  0  0  0  0  0  0  0  0
   61.7730   31.7390   48.2530 C   0  0  0  0  0  0  0  0  0  0  0  0
   62.5210   33.2880   47.8710 S   0  0  0  0  0  0  0  0  0  0  0  0
   62.6310   33.4600   46.3820 O   0  0  0  0  0  0  0  0  0  0  0  0
   63.9040   33.3190   48.4560 O   0  0  0  0  0  0  0  0  0  0  0  0
   61.5860   34.5890   48.5420 N   0  0  0  0  0  0  0  0  0  0  0  0
   62.0190   34.8280   49.4650 H   0  0  0  0  0  0  0  0  0  0  0  0
   60.2140   34.1390   48.7840 C   0  0  0  0  0  0  0  0  0  0  0  0
   60.2321   33.1320   49.2264 H   0  0  0  0  0  0  0  0  0  0  0  0
   59.7181   34.8370   49.4746 H   0  0  0  0  0  0  0  0  0  0  0  0
   59.4570   34.1010   47.4860 C   0  0  0  0  0  0  0  0  0  0  0  0
   58.2750   33.3470   47.3740 C   0  0  0  0  0  0  0  0  0  0  0  0
   57.9157   32.7601   48.2322 H   0  0  0  0  0  0  0  0  0  0  0  0
   57.5550   33.3410   46.1750 C   0  0  0  0  0  0  0  0  0  0  0  0
   56.6365   32.7420   46.0885 H   0  0  0  0  0  0  0  0  0  0  0  0
   58.0020   34.0960   45.0860 C   0  0  0  0  0  0  0  0  0  0  0  0
   57.4362   34.0889   44.1427 H   0  0  0  0  0  0  0  0  0  0  0  0
   59.1680   34.8600   45.1960 C   0  0  0  0  0  0  0  0  0  0  0  0
   59.5168   35.4558   44.3396 H   0  0  0  0  0  0  0  0  0  0  0  0
   59.8910   34.8680   46.3920 C   0  0  0  0  0  0  0  0  0  0  0  0
   60.8031   35.4770   46.4770 H   0  0  0  0  0  0  0  0  0  0  0  0
   61.0400   31.0610   47.2680 C   0  0  0  0  0  0  0  0  0  0  0  0
   60.9219   31.5108   46.2711 H   0  0  0  0  0  0  0  0  0  0  0  0
   58.0820   30.5130   44.5030 C   0  0  0  0  0  0  0  0  0  0  0  0
   59.1095   30.8835   44.6331 H   0  0  0  0  0  0  0  0  0  0  0  0
   57.3150   30.9330   43.4100 C   0  0  0  0  0  0  0  0  0  0  0  0
   57.8660   31.8530   42.4500 C   0  0  0  0  0  0  0  0  0  0  0  0
   58.3090   32.5920   41.6770 N   0  0  0  0  0  0  0  0  0  0  0  0
   56.0090   30.4560   43.2560 C   0  0  0  0  0  0  0  0  0  0  0  0
   55.3950   30.7805   42.4030 H   0  0  0  0  0  0  0  0  0  0  0  0
  1  2  1  0
  2  3  1  0
  3  4  1  0
  4  5  2  0
  5  6  1  0
  6  7  2  0
  6  8  1  0
  8  9  2  0
  9 10  1  0
  9 11  1  0
 11 12  1  0
 11 13  2  0
 13 14  1  0
 13 15  1  0
 15 16  1  0
 16 17  2  0
 16 18  2  0
 16 19  1  0
 19 20  1  0
 19 21  1  0
 21 22  1  0
 21 23  1  0
 21 24  1  0
 24 25  2  0
 25 26  1  0
 25 27  1  0
 27 28  1  0
 27 29  2  0
 29 30  1  0
 29 31  1  0
 31 32  1  0
 31 33  2  0
 33 34  1  0
 15 35  2  0
 35 36  1  0
  4 37  1  0
 37 38  1  0
 37 39  2  0
 39 40  1  0
 40 41  3  0
 39 42  1  0
 42 43  1  0
 42  2  2  0
 35  8  1  0
 33 24  1  0
M  CHG  1   3  -1
M  END
>  <UniqueID>  (74) 
66

>  <SMILES>  (74) 
N#Cc1cc[n-]/c(=N\C(=O)c2cccc(S(=O)(=O)NCc3ccccc3)c2)c1

>  <Energy>  (74) 
46.13717908122552

>  <Genealogy>  (74) 
N#Cc1cc[n-]c(=NC(=O)c2cccc(S(=O)(=O)NCc3ccccc3)c2)c1 (protonated)
N#Cc1cc[n-]/c(=N\C(=O)c2cccc(S(=O)(=O)NCc3ccccc3)c2)c1 (cis-trans isomerization)
N#Cc1cc[n-]/c(=N\C(=O)c2cccc(S(=O)(=O)NCc3ccccc3)c2)c1 (3D coordinates assigned)
N#Cc1cc[n-]/c(=N\C(=O)c2cccc(S(=O)(=O)NCc3ccccc3)c2)c1 (optimized conformer: 46.13717908122552 kcal/mol)

>  <smiles>  (74) 
N#Cc1cc[nH]c(=NC(=O)c2cccc(S(=O)(=O)NCc3ccccc3)c2)c1

>  <score_type>  (74) 
oracle

>  <origin>  (74) 
adg

>  <m_score__min__energy>  (74) 
-12.130000000000001

>  <m_primary>  (74) 
energy

$$$$
74:0
     RDKit          3D

 26 28  0  0  0  0  0  0  0  0999 V2000
   57.8805   27.0649   43.7300 H   0  0  0  0  0  0  0  0  0  0  0  0
   57.5080   27.3040   44.7370 C   0  0  0  0  0  0  0  0  0  0  0  0
   57.4050   28.5980   45.0830 C   0  0  0  0  0  0  0  0  0  0  0  0
   56.4560   29.7970   44.1160 S   0  0  0  0  0  0  0  0  0  0  0  0
   57.4200   31.0700   44.9190 C   0  0  0  0  0  0  0  0  0  0  0  0
   57.3690   32.4260   44.5910 C   0  0  0  0  0  0  0  0  0  0  0  0
   56.6981   32.7823   43.7954 H   0  0  0  0  0  0  0  0  0  0  0  0
   58.1840   33.3270   45.2890 C   0  0  0  0  0  0  0  0  0  0  0  0
   58.1499   34.3992   45.0458 H   0  0  0  0  0  0  0  0  0  0  0  0
   59.0440   32.8650   46.2980 C   0  0  0  0  0  0  0  0  0  0  0  0
   59.6821   33.5769   46.8422 H   0  0  0  0  0  0  0  0  0  0  0  0
   59.0930   31.5000   46.6150 C   0  0  0  0  0  0  0  0  0  0  0  0
   59.7713   31.1328   47.3993 H   0  0  0  0  0  0  0  0  0  0  0  0
   58.2630   30.6090   45.9160 C   0  0  0  0  0  0  0  0  0  0  0  0
   58.2340   29.1940   46.0930 N   0  0  0  0  0  0  0  0  0  0  0  0
   59.0310   28.4610   47.0780 C   0  0  0  0  0  0  0  0  0  0  0  0
   58.7170   28.7498   48.0919 H   0  0  0  0  0  0  0  0  0  0  0  0
   58.8795   27.3801   46.9411 H   0  0  0  0  0  0  0  0  0  0  0  0
   60.0955   28.7023   46.9411 H   0  0  0  0  0  0  0  0  0  0  0  0
   57.1510   26.1870   45.6280 C   0  0  0  0  0  0  0  0  0  0  0  0
   58.2600   25.0780   46.2410 S   0  0  0  0  0  0  0  0  0  0  0  0
   57.0980   24.3020   47.1740 C   0  0  0  0  0  0  0  0  0  0  0  0
   57.3260   23.3050   47.9070 O   0  0  0  0  0  0  0  0  0  0  0  0
   55.8790   24.8720   47.0660 N   0  0  0  0  0  0  0  0  0  0  0  0
   55.9100   25.9310   46.2150 C   0  0  0  0  0  0  0  0  0  0  0  0
   54.7850   26.7160   45.9960 O   0  0  0  0  0  0  0  0  0  0  0  0
  1  2  1  0
  2  3  2  0
  3  4  1  0
  4  5  1  0
  5  6  2  0
  6  7  1  0
  6  8  1  0
  8  9  1  0
  8 10  2  0
 10 11  1  0
 10 12  1  0
 12 13  1  0
 12 14  2  0
 14 15  1  0
 15 16  1  0
 16 17  1  0
 16 18  1  0
 16 19  1  0
  2 20  1  0
 20 21  1  0
 21 22  1  0
 22 23  2  0
 22 24  1  0
 24 25  1  0
 25 26  1  0
 15  3  1  0
 25 20  2  0
 14  5  1  0
M  CHG  2  24  -1  26  -1
M  END
>  <UniqueID>  (75) 
67

>  <SMILES>  (75) 
CN1/C(=C/c2sc(=O)[n-]c2[O-])Sc2ccccc21

>  <Energy>  (75) 
87.81460174215817

>  <Genealogy>  (75) 
CN1C(=Cc2sc(=O)[n-]c2[O-])Sc2ccccc21 (protonated)
CN1/C(=C/c2sc(=O)[n-]c2[O-])Sc2ccccc21 (cis-trans isomerization)
CN1/C(=C/c2sc(=O)[n-]c2[O-])Sc2ccccc21 (3D coordinates assigned)
CN1/C(=C/c2sc(=O)[n-]c2[O-])Sc2ccccc21 (nonaromatic ring conformer: 87.81460174215817 kcal/mol)

>  <smiles>  (75) 
CN1C(=Cc2sc(=O)[nH]c2O)Sc2ccccc21

>  <score_type>  (75) 
oracle

>  <origin>  (75) 
adg

>  <m_score__min__energy>  (75) 
-13.35

>  <m_primary>  (75) 
energy

$$$$
75:0
     RDKit          3D

 52 54  0  0  0  0  0  0  0  0999 V2000
   59.1266   35.2752   44.1741 H   0  0  0  0  0  0  0  0  0  0  0  0
   58.9260   34.4390   44.8600 C   0  0  0  0  0  0  0  0  0  0  0  0
   57.5940   33.8050   44.7850 C   0  0  0  0  0  0  0  0  0  0  0  0
   56.6390   34.2630   45.4690 O   0  0  0  0  0  0  0  0  0  0  0  0
   57.4030   32.5870   44.0500 N   0  0  0  0  0  0  0  0  0  0  0  0
   57.1990   31.3950   44.5420 C   0  0  0  0  0  0  0  0  0  0  0  0
   56.1400   30.6300   44.0380 C   0  0  0  0  0  0  0  0  0  0  0  0
   55.4879   31.0413   43.2534 H   0  0  0  0  0  0  0  0  0  0  0  0
   55.9130   29.3440   44.5330 C   0  0  0  0  0  0  0  0  0  0  0  0
   55.0657   28.7528   44.1554 H   0  0  0  0  0  0  0  0  0  0  0  0
   56.7350   28.8210   45.4790 N   0  0  0  0  0  0  0  0  0  0  0  0
   57.7960   29.5140   45.9730 C   0  0  0  0  0  0  0  0  0  0  0  0
   58.6140   28.9110   46.9420 O   0  0  0  0  0  0  0  0  0  0  0  0
   59.7080   29.5400   47.5550 C   0  0  0  0  0  0  0  0  0  0  0  0
   60.7100   30.1690   46.7970 C   0  0  0  0  0  0  0  0  0  0  0  0
   60.6654   30.1366   45.6984 H   0  0  0  0  0  0  0  0  0  0  0  0
   61.7620   30.8350   47.4290 C   0  0  0  0  0  0  0  0  0  0  0  0
   62.5377   31.3307   46.8269 H   0  0  0  0  0  0  0  0  0  0  0  0
   61.8330   30.8740   48.8350 C   0  0  0  0  0  0  0  0  0  0  0  0
   62.8380   31.5720   49.5280 O   0  0  0  0  0  0  0  0  0  0  0  0
   64.0680   32.0370   48.9690 C   0  0  0  0  0  0  0  0  0  0  0  0
   64.5130   31.2500   48.3424 H   0  0  0  0  0  0  0  0  0  0  0  0
   65.0610   32.3770   50.0850 C   0  0  0  0  0  0  0  0  0  0  0  0
   64.5839   32.2136   51.0626 H   0  0  0  0  0  0  0  0  0  0  0  0
   65.9470   31.7310   49.9968 H   0  0  0  0  0  0  0  0  0  0  0  0
   65.3651   33.4305   49.9968 H   0  0  0  0  0  0  0  0  0  0  0  0
   63.7840   33.2720   48.1160 C   0  0  0  0  0  0  0  0  0  0  0  0
   63.5860   34.1328   48.7716 H   0  0  0  0  0  0  0  0  0  0  0  0
   64.6560   33.4875   47.4811 H   0  0  0  0  0  0  0  0  0  0  0  0
   62.9054   33.0850   47.4811 H   0  0  0  0  0  0  0  0  0  0  0  0
   60.8580   30.2040   49.5840 C   0  0  0  0  0  0  0  0  0  0  0  0
   60.9178   30.2063   50.6824 H   0  0  0  0  0  0  0  0  0  0  0  0
   59.8090   29.5320   48.9490 C   0  0  0  0  0  0  0  0  0  0  0  0
   59.0600   28.9947   49.5492 H   0  0  0  0  0  0  0  0  0  0  0  0
   58.0320   30.8240   45.5250 C   0  0  0  0  0  0  0  0  0  0  0  0
   58.8679   31.4050   45.9418 H   0  0  0  0  0  0  0  0  0  0  0  0
   59.9120   34.0780   45.6970 C   0  0  0  0  0  0  0  0  0  0  0  0
   60.9282   34.0277   45.2788 H   0  0  0  0  0  0  0  0  0  0  0  0
   59.7580   33.7410   47.1320 C   0  0  0  0  0  0  0  0  0  0  0  0
   58.6890   32.9590   47.6070 C   0  0  0  0  0  0  0  0  0  0  0  0
   57.9746   32.5207   46.8946 H   0  0  0  0  0  0  0  0  0  0  0  0
   58.5280   32.7350   48.9770 C   0  0  0  0  0  0  0  0  0  0  0  0
   57.7027   32.1020   49.3349 H   0  0  0  0  0  0  0  0  0  0  0  0
   59.4130   33.3130   49.8970 C   0  0  0  0  0  0  0  0  0  0  0  0
   59.2330   33.1050   51.3720 C   0  0  0  0  0  0  0  0  0  0  0  0
   59.8562   33.8251   51.9226 H   0  0  0  0  0  0  0  0  0  0  0  0
   58.1763   33.2564   51.6374 H   0  0  0  0  0  0  0  0  0  0  0  0
   59.5346   32.0810   51.6374 H   0  0  0  0  0  0  0  0  0  0  0  0
   60.4670   34.1100   49.4300 C   0  0  0  0  0  0  0  0  0  0  0  0
   61.1672   34.5655   50.1457 H   0  0  0  0  0  0  0  0  0  0  0  0
   60.6330   34.3290   48.0600 C   0  0  0  0  0  0  0  0  0  0  0  0
   61.4558   34.9672   47.7054 H   0  0  0  0  0  0  0  0  0  0  0  0
  1  2  1  0
  2  3  1  0
  3  4  2  0
  3  5  1  0
  5  6  2  0
  6  7  1  0
  7  8  1  0
  7  9  2  0
  9 10  1  0
  9 11  1  0
 11 12  1  0
 12 13  1  0
 13 14  1  0
 14 15  2  0
 15 16  1  0
 15 17  1  0
 17 18  1  0
 17 19  2  0
 19 20  1  0
 20 21  1  0
 21 22  1  0
 21 23  1  0
 23 24  1  0
 23 25  1  0
 23 26  1  0
 21 27  1  0
 27 28  1  0
 27 29  1  0
 27 30  1  0
 19 31  1  0
 31 32  1  0
 31 33  2  0
 33 34  1  0
 12 35  2  0
 35 36  1  0
  2 37  2  0
 37 38  1  0
 37 39  1  0
 39 40  2  0
 40 41  1  0
 40 42  1  0
 42 43  1  0
 42 44  2  0
 44 45  1  0
 45 46  1  0
 45 47  1  0
 45 48  1  0
 44 49  1  0
 49 50  1  0
 49 51  2  0
 51 52  1  0
 35  6  1  0
 51 39  1  0
 33 14  1  0
M  CHG  1  11  -1
M  END
>  <UniqueID>  (76) 
68

>  <SMILES>  (76) 
Cc1ccc(/C=C\C(=O)/N=c2/cc[n-]c(Oc3ccc(OC(C)C)cc3)c2)cc1

>  <Energy>  (76) 
68.88584375937246

>  <Genealogy>  (76) 
Cc1ccc(C=CC(=O)N=c2cc[n-]c(Oc3ccc(OC(C)C)cc3)c2)cc1 (protonated)
Cc1ccc(/C=C\C(=O)/N=c2/cc[n-]c(Oc3ccc(OC(C)C)cc3)c2)cc1 (cis-trans isomerization)
Cc1ccc(/C=C\C(=O)/N=c2/cc[n-]c(Oc3ccc(OC(C)C)cc3)c2)cc1 (3D coordinates assigned)
Cc1ccc(/C=C\C(=O)/N=c2/cc[n-]c(Oc3ccc(OC(C)C)cc3)c2)cc1 (optimized conformer: 68.88584375937246 kcal/mol)

>  <smiles>  (76) 
Cc1ccc(C=CC(=O)N=c2cc[nH]c(Oc3ccc(OC(C)C)cc3)c2)cc1

>  <score_type>  (76) 
oracle

>  <origin>  (76) 
adg

>  <m_score__min__energy>  (76) 
-10.85

>  <m_primary>  (76) 
energy

$$$$
76:0
     RDKit          3D

 23 24  0  0  0  0  0  0  0  0999 V2000
   57.5581   24.6288   46.7427 H   0  0  0  0  0  0  0  0  0  0  0  0
   56.9430   25.4810   46.4180 C   0  0  0  0  0  0  0  0  0  0  0  0
   55.5990   25.5400   46.4840 N   0  0  0  0  0  0  0  0  0  0  0  0
   55.2040   26.7100   46.0070 N   0  0  0  0  0  0  0  0  0  0  0  0
   56.2980   27.4070   45.6430 C   0  0  0  0  0  0  0  0  0  0  0  0
   56.2670   28.7490   45.0290 C   0  0  0  0  0  0  0  0  0  0  0  0
   55.1590   29.3280   44.8760 O   0  0  0  0  0  0  0  0  0  0  0  0
   57.4670   29.4480   44.6670 N   0  0  0  0  0  0  0  0  0  0  0  0
   57.5980   30.7380   44.5480 C   0  0  0  0  0  0  0  0  0  0  0  0
   57.6050   31.5490   45.6450 N   0  0  0  0  0  0  0  0  0  0  0  0
   57.7560   32.8980   45.5480 C   0  0  0  0  0  0  0  0  0  0  0  0
   57.7610   33.7370   46.7850 C   0  0  0  0  0  0  0  0  0  0  0  0
   57.7571   33.0845   47.6706 H   0  0  0  0  0  0  0  0  0  0  0  0
   58.6629   34.3666   46.7974 H   0  0  0  0  0  0  0  0  0  0  0  0
   56.8667   34.3773   46.7974 H   0  0  0  0  0  0  0  0  0  0  0  0
   57.9360   33.4870   44.2900 C   0  0  0  0  0  0  0  0  0  0  0  0
   58.0680   34.5753   44.1992 H   0  0  0  0  0  0  0  0  0  0  0  0
   57.9460   32.6770   43.1520 C   0  0  0  0  0  0  0  0  0  0  0  0
   58.0845   33.1264   42.1576 H   0  0  0  0  0  0  0  0  0  0  0  0
   57.7800   31.2960   43.2780 C   0  0  0  0  0  0  0  0  0  0  0  0
   57.7922   30.6523   42.3861 H   0  0  0  0  0  0  0  0  0  0  0  0
   57.4280   26.6530   45.8810 C   0  0  0  0  0  0  0  0  0  0  0  0
   58.4759   26.9251   45.6866 H   0  0  0  0  0  0  0  0  0  0  0  0
  1  2  1  0
  2  3  1  0
  3  4  1  0
  4  5  2  0
  5  6  1  0
  6  7  2  0
  6  8  1  0
  8  9  2  0
  9 10  1  0
 10 11  1  0
 11 12  1  0
 12 13  1  0
 12 14  1  0
 12 15  1  0
 11 16  2  0
 16 17  1  0
 16 18  1  0
 18 19  1  0
 18 20  2  0
 20 21  1  0
  5 22  1  0
 22 23  1  0
 22  2  2  0
 20  9  1  0
M  CHG  2   3  -1  10  -1
M  END
>  <UniqueID>  (77) 
69

>  <SMILES>  (77) 
Cc1ccc/c(=N/C(=O)c2cc[n-]n2)[n-]1

>  <Energy>  (77) 
57.55315967639852

>  <Genealogy>  (77) 
Cc1cccc(=NC(=O)c2cc[n-]n2)[n-]1 (protonated)
Cc1ccc/c(=N/C(=O)c2cc[n-]n2)[n-]1 (cis-trans isomerization)
Cc1ccc/c(=N/C(=O)c2cc[n-]n2)[n-]1 (3D coordinates assigned)
Cc1ccc/c(=N/C(=O)c2cc[n-]n2)[n-]1 (optimized conformer: 57.55315967639852 kcal/mol)

>  <smiles>  (77) 
Cc1cccc(=NC(=O)c2cc[nH]n2)[nH]1

>  <score_type>  (77) 
oracle

>  <origin>  (77) 
adg

>  <m_score__min__energy>  (77) 
-10.19

>  <m_primary>  (77) 
energy

$$$$
77:0
     RDKit          3D

 42 44  0  0  0  0  0  0  0  0999 V2000
   53.9240   25.3460   45.6170 O   0  0  0  0  0  0  0  0  0  0  0  0
   55.1700   25.1720   45.6350 C   0  0  0  0  0  0  0  0  0  0  0  0
   55.9850   26.1100   46.3540 N   0  0  0  0  0  0  0  0  0  0  0  0
   56.9840   26.9700   45.7900 C   0  0  0  0  0  0  0  0  0  0  0  0
   58.3160   26.5380   45.7620 C   0  0  0  0  0  0  0  0  0  0  0  0
   59.3130   27.3600   45.2290 C   0  0  0  0  0  0  0  0  0  0  0  0
   58.9860   28.6180   44.7150 C   0  0  0  0  0  0  0  0  0  0  0  0
   57.6530   29.0510   44.7150 C   0  0  0  0  0  0  0  0  0  0  0  0
   57.2200   30.6460   44.1050 S   0  0  0  0  0  0  0  0  0  0  0  0
   57.2840   30.6620   42.6020 O   0  0  0  0  0  0  0  0  0  0  0  0
   55.8140   30.9630   44.5350 O   0  0  0  0  0  0  0  0  0  0  0  0
   58.3230   31.8380   44.7520 N   0  0  0  0  0  0  0  0  0  0  0  0
   58.1460   31.9450   46.2160 C   0  0  0  0  0  0  0  0  0  0  0  0
   58.6880   33.2880   46.7310 C   0  0  0  0  0  0  0  0  0  0  0  0
   58.0580   34.4300   46.1610 O   0  0  0  0  0  0  0  0  0  0  0  0
   57.4200   34.1710   44.9180 C   0  0  0  0  0  0  0  0  0  0  0  0
   58.1720   33.1410   44.0570 C   0  0  0  0  0  0  0  0  0  0  0  0
   56.6530   28.2180   45.2330 C   0  0  0  0  0  0  0  0  0  0  0  0
   55.7390   24.0330   44.8840 C   0  0  0  0  0  0  0  0  0  0  0  0
   55.0410   23.3720   43.9490 C   0  0  0  0  0  0  0  0  0  0  0  0
   55.6460   22.3340   43.2300 O   0  0  0  0  0  0  0  0  0  0  0  0
   57.0570   22.1140   43.2800 C   0  0  0  0  0  0  0  0  0  0  0  0
   57.5680   22.3740   44.6970 C   0  0  0  0  0  0  0  0  0  0  0  0
   57.0450   23.6150   45.1770 O   0  0  0  0  0  0  0  0  0  0  0  0
   58.5787   25.5473   46.1613 H   0  0  0  0  0  0  0  0  0  0  0  0
   60.3577   27.0160   45.2140 H   0  0  0  0  0  0  0  0  0  0  0  0
   59.7753   29.2686   44.3103 H   0  0  0  0  0  0  0  0  0  0  0  0
   59.2920   31.4840   44.5710 H   0  0  0  0  0  0  0  0  0  0  0  0
   57.0752   31.8713   46.4568 H   0  0  0  0  0  0  0  0  0  0  0  0
   58.7026   31.1293   46.7005 H   0  0  0  0  0  0  0  0  0  0  0  0
   58.5437   33.3228   47.8209 H   0  0  0  0  0  0  0  0  0  0  0  0
   59.7475   33.3335   46.4389 H   0  0  0  0  0  0  0  0  0  0  0  0
   56.4078   33.7889   45.1168 H   0  0  0  0  0  0  0  0  0  0  0  0
   57.4001   35.1164   44.3561 H   0  0  0  0  0  0  0  0  0  0  0  0
   57.6123   32.9825   43.1234 H   0  0  0  0  0  0  0  0  0  0  0  0
   59.1784   33.5369   43.8559 H   0  0  0  0  0  0  0  0  0  0  0  0
   55.6023   28.5422   45.2039 H   0  0  0  0  0  0  0  0  0  0  0  0
   53.9947   23.6449   43.7472 H   0  0  0  0  0  0  0  0  0  0  0  0
   57.2753   21.0735   42.9976 H   0  0  0  0  0  0  0  0  0  0  0  0
   57.5580   22.7990   42.5802 H   0  0  0  0  0  0  0  0  0  0  0  0
   57.2410   21.5587   45.3591 H   0  0  0  0  0  0  0  0  0  0  0  0
   58.6669   22.4216   44.6853 H   0  0  0  0  0  0  0  0  0  0  0  0
  1  2  2  0
  2  3  1  0
  3  4  1  0
  4  5  2  0
  5  6  1  0
  6  7  2  0
  7  8  1  0
  8  9  1  0
  9 10  2  0
  9 11  2  0
  9 12  1  0
 12 13  1  0
 13 14  1  0
 14 15  1  0
 15 16  1  0
 16 17  1  0
  8 18  2  0
  2 19  1  0
 19 20  2  0
 20 21  1  0
 21 22  1  0
 22 23  1  0
 23 24  1  0
 18  4  1  0
 24 19  1  0
 17 12  1  0
  5 25  1  0
  6 26  1  0
  7 27  1  0
 12 28  1  0
 13 29  1  0
 13 30  1  0
 14 31  1  0
 14 32  1  0
 16 33  1  0
 16 34  1  0
 17 35  1  0
 17 36  1  0
 18 37  1  0
 20 38  1  0
 22 39  1  0
 22 40  1  0
 23 41  1  0
 23 42  1  0
M  CHG  2   3  -1  12   1
M  END
>  <UniqueID>  (78) 
70

>  <SMILES>  (78) 
O=C([N-]c1cccc(S(=O)(=O)[NH+]2CCOCC2)c1)C1=COCCO1

>  <Energy>  (78) 
58.47674125469698

>  <Genealogy>  (78) 
O=C([N-]c1cccc(S(=O)(=O)[NH+]2CCOCC2)c1)C1=COCCO1 (protonated)
O=C([N-]c1cccc(S(=O)(=O)[NH+]2CCOCC2)c1)C1=COCCO1 (3D coordinates assigned)
O=C([N-]c1cccc(S(=O)(=O)[NH+]2CCOCC2)c1)C1=COCCO1 (nonaromatic ring conformer: 58.47674125469698 kcal/mol)

>  <smiles>  (78) 
O=C(Nc1cccc(S(=O)(=O)N2CCOCC2)c1)C1=COCCO1

>  <score_type>  (78) 
oracle

>  <origin>  (78) 
adg

>  <m_score__min__energy>  (78) 
-8.8699999999999992

>  <m_primary>  (78) 
energy

$$$$
78:0
     RDKit          3D

 55 58  0  0  0  0  0  0  0  0999 V2000
   58.1440   27.4690   43.4480 C   0  0  0  0  0  0  0  0  0  0  0  0
   58.2260   28.3670   44.6480 C   0  0  0  0  0  0  0  0  0  0  0  0
   57.7330   29.6760   44.5840 C   0  0  0  0  0  0  0  0  0  0  0  0
   57.8620   30.5110   45.6920 C   0  0  0  0  0  0  0  0  0  0  0  0
   58.4720   30.0590   46.8180 N   0  0  0  0  0  0  0  0  0  0  0  0
   58.9690   28.7970   46.9250 C   0  0  0  0  0  0  0  0  0  0  0  0
   59.5460   28.4590   48.0450 N   0  0  0  0  0  0  0  0  0  0  0  0
   60.1840   29.2900   49.0300 C   0  0  0  0  0  0  0  0  0  0  0  0
   60.8140   30.3270   48.6840 O   0  0  0  0  0  0  0  0  0  0  0  0
   60.1480   28.8800   50.4550 C   0  0  0  0  0  0  0  0  0  0  0  0
   61.1180   27.9720   50.9170 C   0  0  0  0  0  0  0  0  0  0  0  0
   61.1230   27.5500   52.2480 C   0  0  0  0  0  0  0  0  0  0  0  0
   60.1670   28.0340   53.1390 C   0  0  0  0  0  0  0  0  0  0  0  0
   59.2080   28.9480   52.7070 C   0  0  0  0  0  0  0  0  0  0  0  0
   59.1880   29.3800   51.3730 C   0  0  0  0  0  0  0  0  0  0  0  0
   57.9470   30.6010   50.9080 S   0  0  0  0  0  0  0  0  0  0  0  0
   59.0040   32.0580   51.2290 C   0  0  0  0  0  0  0  0  0  0  0  0
   59.0590   32.9170   50.0070 C   0  0  0  0  0  0  0  0  0  0  0  0
   59.3160   34.1450   50.1290 O   0  0  0  0  0  0  0  0  0  0  0  0
   58.8930   32.3320   48.7070 N   0  0  0  0  0  0  0  0  0  0  0  0
   58.8480   33.1060   47.4940 C   0  0  0  0  0  0  0  0  0  0  0  0
   57.6190   33.3460   46.8510 C   0  0  0  0  0  0  0  0  0  0  0  0
   57.5650   34.1160   45.6870 C   0  0  0  0  0  0  0  0  0  0  0  0
   58.7360   34.6500   45.1480 C   0  0  0  0  0  0  0  0  0  0  0  0
   59.9650   34.4070   45.7630 C   0  0  0  0  0  0  0  0  0  0  0  0
   60.0330   33.6260   46.9270 C   0  0  0  0  0  0  0  0  0  0  0  0
   61.3480   33.3950   47.5500 C   0  0  0  0  0  0  0  0  0  0  0  0
   61.7860   34.2130   48.6020 C   0  0  0  0  0  0  0  0  0  0  0  0
   63.0210   33.9710   49.2110 C   0  0  0  0  0  0  0  0  0  0  0  0
   63.8270   32.9180   48.7660 C   0  0  0  0  0  0  0  0  0  0  0  0
   63.3940   32.1000   47.7180 C   0  0  0  0  0  0  0  0  0  0  0  0
   62.1550   32.3330   47.1140 C   0  0  0  0  0  0  0  0  0  0  0  0
   58.8700   27.9300   45.8150 C   0  0  0  0  0  0  0  0  0  0  0  0
   58.0486   26.4240   43.7779 H   0  0  0  0  0  0  0  0  0  0  0  0
   57.2672   27.7441   42.8434 H   0  0  0  0  0  0  0  0  0  0  0  0
   59.0561   27.5808   42.8434 H   0  0  0  0  0  0  0  0  0  0  0  0
   57.2481   30.0420   43.6670 H   0  0  0  0  0  0  0  0  0  0  0  0
   57.4692   31.5378   45.6546 H   0  0  0  0  0  0  0  0  0  0  0  0
   61.8807   27.5903   50.2223 H   0  0  0  0  0  0  0  0  0  0  0  0
   61.8831   26.8341   52.5940 H   0  0  0  0  0  0  0  0  0  0  0  0
   60.1694   27.6939   54.1851 H   0  0  0  0  0  0  0  0  0  0  0  0
   58.4616   29.3333   53.4172 H   0  0  0  0  0  0  0  0  0  0  0  0
   58.5849   32.6372   52.0650 H   0  0  0  0  0  0  0  0  0  0  0  0
   60.0197   31.7228   51.4857 H   0  0  0  0  0  0  0  0  0  0  0  0
   58.8860   31.2900   48.6390 H   0  0  0  0  0  0  0  0  0  0  0  0
   56.6933   32.9235   47.2688 H   0  0  0  0  0  0  0  0  0  0  0  0
   56.5988   34.3016   45.1949 H   0  0  0  0  0  0  0  0  0  0  0  0
   58.6904   35.2639   44.2363 H   0  0  0  0  0  0  0  0  0  0  0  0
   60.8851   34.8298   45.3332 H   0  0  0  0  0  0  0  0  0  0  0  0
   61.1568   35.0462   48.9484 H   0  0  0  0  0  0  0  0  0  0  0  0
   63.3591   34.6092   50.0407 H   0  0  0  0  0  0  0  0  0  0  0  0
   64.8019   32.7334   49.2408 H   0  0  0  0  0  0  0  0  0  0  0  0
   64.0288   31.2724   47.3685 H   0  0  0  0  0  0  0  0  0  0  0  0
   61.8121   31.6828   46.2956 H   0  0  0  0  0  0  0  0  0  0  0  0
   59.2957   26.9170   45.8651 H   0  0  0  0  0  0  0  0  0  0  0  0
  1  2  1  0
  2  3  1  0
  3  4  2  0
  4  5  1  0
  5  6  1  0
  6  7  2  3
  7  8  1  0
  8  9  2  0
  8 10  1  0
 10 11  2  0
 11 12  1  0
 12 13  2  0
 13 14  1  0
 14 15  2  0
 15 16  1  0
 16 17  1  0
 17 18  1  0
 18 19  2  0
 18 20  1  0
 20 21  1  0
 21 22  2  0
 22 23  1  0
 23 24  2  0
 24 25  1  0
 25 26  2  0
 26 27  1  0
 27 28  2  0
 28 29  1  0
 29 30  2  0
 30 31  1  0
 31 32  2  0
  6 33  1  0
 33  2  2  0
 15 10  1  0
 26 21  1  0
 32 27  1  0
  1 34  1  0
  1 35  1  0
  1 36  1  0
  3 37  1  0
  4 38  1  0
 11 39  1  0
 12 40  1  0
 13 41  1  0
 14 42  1  0
 17 43  1  0
 17 44  1  0
 20 45  1  0
 22 46  1  0
 23 47  1  0
 24 48  1  0
 25 49  1  0
 28 50  1  0
 29 51  1  0
 30 52  1  0
 31 53  1  0
 32 54  1  0
 33 55  1  0
M  CHG  1   5  -1
M  END
>  <UniqueID>  (79) 
71

>  <SMILES>  (79) 
Cc1cc[n-]c(=NC(=O)c2ccccc2SCC(=O)Nc2ccccc2-c2ccccc2)c1

>  <Energy>  (79) 
77.1957178535963

>  <Genealogy>  (79) 
Cc1cc[n-]c(=NC(=O)c2ccccc2SCC(=O)Nc2ccccc2-c2ccccc2)c1 (protonated)
Cc1cc[n-]c(=NC(=O)c2ccccc2SCC(=O)Nc2ccccc2-c2ccccc2)c1 (3D coordinates assigned)
Cc1cc[n-]c(=NC(=O)c2ccccc2SCC(=O)Nc2ccccc2-c2ccccc2)c1 (optimized conformer: 77.1957178535963 kcal/mol)

>  <smiles>  (79) 
Cc1cc[nH]c(=NC(=O)c2ccccc2SCC(=O)Nc2ccccc2-c2ccccc2)c1

>  <score_type>  (79) 
oracle

>  <origin>  (79) 
adg

>  <m_score__min__energy>  (79) 
-11.93

>  <m_primary>  (79) 
energy

$$$$
79:0
     RDKit          3D

 38 39  0  0  0  0  0  0  0  0999 V2000
   63.7990   33.1380   46.7600 C   0  0  0  0  0  0  0  0  0  0  0  0
   63.0370   32.6510   47.7360 C   0  0  0  0  0  0  0  0  0  0  0  0
   61.6240   33.0330   47.8990 C   0  0  0  0  0  0  0  0  0  0  0  0
   61.2330   34.1340   48.6550 C   0  0  0  0  0  0  0  0  0  0  0  0
   59.5570   34.2440   48.5800 S   0  0  0  0  0  0  0  0  0  0  0  0
   59.4030   32.8970   47.5870 C   0  0  0  0  0  0  0  0  0  0  0  0
   58.1090   32.3600   47.0640 C   0  0  0  0  0  0  0  0  0  0  0  0
   58.1560   32.2310   45.5990 N   0  0  0  0  0  0  0  0  0  0  0  0
   58.8500   33.2740   44.8280 C   0  0  0  0  0  0  0  0  0  0  0  0
   58.0850   34.5920   44.8990 C   0  0  0  0  0  0  0  0  0  0  0  0
   57.5390   31.1220   44.8950 C   0  0  0  0  0  0  0  0  0  0  0  0
   56.2860   31.1060   44.7430 O   0  0  0  0  0  0  0  0  0  0  0  0
   58.3250   29.9550   44.3470 C   0  0  0  0  0  0  0  0  0  0  0  0
   57.9780   28.6900   45.0890 C   0  0  0  0  0  0  0  0  0  0  0  0
   58.9820   27.9340   45.7180 C   0  0  0  0  0  0  0  0  0  0  0  0
   58.6500   26.7750   46.4260 C   0  0  0  0  0  0  0  0  0  0  0  0
   57.3160   26.3650   46.5160 C   0  0  0  0  0  0  0  0  0  0  0  0
   56.3120   27.1180   45.9000 C   0  0  0  0  0  0  0  0  0  0  0  0
   54.9850   26.7160   45.9970 O   0  0  0  0  0  0  0  0  0  0  0  0
   56.6400   28.2770   45.1900 C   0  0  0  0  0  0  0  0  0  0  0  0
   60.6060   32.3480   47.3120 N   0  0  0  0  0  0  0  0  0  0  0  0
   64.8502   32.8255   46.6750 H   0  0  0  0  0  0  0  0  0  0  0  0
   63.3777   33.8531   46.0381 H   0  0  0  0  0  0  0  0  0  0  0  0
   63.4784   31.9371   48.4470 H   0  0  0  0  0  0  0  0  0  0  0  0
   61.9022   34.8124   49.2045 H   0  0  0  0  0  0  0  0  0  0  0  0
   57.9221   31.3712   47.5081 H   0  0  0  0  0  0  0  0  0  0  0  0
   57.3014   33.0568   47.3329 H   0  0  0  0  0  0  0  0  0  0  0  0
   59.8588   33.4187   45.2419 H   0  0  0  0  0  0  0  0  0  0  0  0
   58.9123   32.9560   43.7768 H   0  0  0  0  0  0  0  0  0  0  0  0
   57.9254   34.8670   45.9520 H   0  0  0  0  0  0  0  0  0  0  0  0
   58.6658   35.3805   44.3981 H   0  0  0  0  0  0  0  0  0  0  0  0
   57.1122   34.4788   44.3981 H   0  0  0  0  0  0  0  0  0  0  0  0
   58.0863   29.8264   43.2809 H   0  0  0  0  0  0  0  0  0  0  0  0
   59.3986   30.1584   44.4733 H   0  0  0  0  0  0  0  0  0  0  0  0
   60.0321   28.2551   45.6531 H   0  0  0  0  0  0  0  0  0  0  0  0
   59.4398   26.1844   46.9133 H   0  0  0  0  0  0  0  0  0  0  0  0
   57.0570   25.4511   47.0708 H   0  0  0  0  0  0  0  0  0  0  0  0
   55.8466   28.8676   44.7087 H   0  0  0  0  0  0  0  0  0  0  0  0
  1  2  2  0
  2  3  1  0
  3  4  2  0
  4  5  1  0
  5  6  1  0
  6  7  1  0
  7  8  1  0
  8  9  1  0
  9 10  1  0
  8 11  1  0
 11 12  2  0
 11 13  1  0
 13 14  1  0
 14 15  2  0
 15 16  1  0
 16 17  2  0
 17 18  1  0
 18 19  1  0
 18 20  2  0
  6 21  2  0
 21  3  1  0
 20 14  1  0
  1 22  1  0
  1 23  1  0
  2 24  1  0
  4 25  1  0
  7 26  1  0
  7 27  1  0
  9 28  1  0
  9 29  1  0
 10 30  1  0
 10 31  1  0
 10 32  1  0
 13 33  1  0
 13 34  1  0
 15 35  1  0
 16 36  1  0
 17 37  1  0
 20 38  1  0
M  CHG  1  19  -1
M  END
>  <UniqueID>  (80) 
72

>  <SMILES>  (80) 
C=Cc1csc(CN(CC)C(=O)Cc2cccc([O-])c2)n1

>  <Energy>  (80) 
59.19116381945414

>  <Genealogy>  (80) 
C=Cc1csc(CN(CC)C(=O)Cc2cccc([O-])c2)n1 (protonated)
C=Cc1csc(CN(CC)C(=O)Cc2cccc([O-])c2)n1 (3D coordinates assigned)
C=Cc1csc(CN(CC)C(=O)Cc2cccc([O-])c2)n1 (optimized conformer: 59.19116381945414 kcal/mol)

>  <smiles>  (80) 
C=Cc1csc(CN(CC)C(=O)Cc2cccc(O)c2)n1

>  <score_type>  (80) 
oracle

>  <origin>  (80) 
adg

>  <m_score__min__energy>  (80) 
-11.19

>  <m_primary>  (80) 
energy

$$$$
80:0
     RDKit          3D

 33 35  0  0  0  0  0  0  0  0999 V2000
   60.7260   26.6790   48.7670 N   0  0  0  0  0  0  0  0  0  0  0  0
   60.2650   27.7050   48.5410 C   0  0  0  0  0  0  0  0  0  0  0  0
   59.6900   28.9740   48.2370 C   0  0  0  0  0  0  0  0  0  0  0  0
   58.8490   29.1620   47.1760 C   0  0  0  0  0  0  0  0  0  0  0  0
   58.4230   28.1280   46.2550 C   0  0  0  0  0  0  0  0  0  0  0  0
   59.0460   27.4280   45.2760 C   0  0  0  0  0  0  0  0  0  0  0  0
   58.1370   26.5350   44.6930 C   0  0  0  0  0  0  0  0  0  0  0  0
   56.9710   26.7520   45.3760 C   0  0  0  0  0  0  0  0  0  0  0  0
   57.1760   27.6730   46.2630 O   0  0  0  0  0  0  0  0  0  0  0  0
   58.3850   30.4390   47.0110 N   0  0  0  0  0  0  0  0  0  0  0  0
   58.7350   31.4350   47.8370 C   0  0  0  0  0  0  0  0  0  0  0  0
   58.0830   33.0560   47.5530 S   0  0  0  0  0  0  0  0  0  0  0  0
   58.3650   33.6640   45.8940 C   0  0  0  0  0  0  0  0  0  0  0  0
   57.8920   32.7450   44.8350 C   0  0  0  0  0  0  0  0  0  0  0  0
   58.1450   32.7170   43.4920 C   0  0  0  0  0  0  0  0  0  0  0  0
   57.4640   31.6550   42.9300 C   0  0  0  0  0  0  0  0  0  0  0  0
   56.8030   31.0630   44.0040 C   0  0  0  0  0  0  0  0  0  0  0  0
   55.9320   29.8910   43.9670 C   0  0  0  0  0  0  0  0  0  0  0  0
   55.5450   29.3840   42.8780 O   0  0  0  0  0  0  0  0  0  0  0  0
   55.5230   29.3250   45.1670 O   0  0  0  0  0  0  0  0  0  0  0  0
   57.0870   31.7360   45.0770 O   0  0  0  0  0  0  0  0  0  0  0  0
   59.5570   31.2520   48.8760 N   0  0  0  0  0  0  0  0  0  0  0  0
   60.0500   30.0230   49.0950 C   0  0  0  0  0  0  0  0  0  0  0  0
   60.8220   29.8460   50.0680 O   0  0  0  0  0  0  0  0  0  0  0  0
   60.1005   27.5429   44.9846 H   0  0  0  0  0  0  0  0  0  0  0  0
   58.3188   25.8231   43.8744 H   0  0  0  0  0  0  0  0  0  0  0  0
   56.0183   26.2308   45.2007 H   0  0  0  0  0  0  0  0  0  0  0  0
   57.7300   30.6780   46.2190 H   0  0  0  0  0  0  0  0  0  0  0  0
   57.8388   34.6234   45.7817 H   0  0  0  0  0  0  0  0  0  0  0  0
   59.4532   33.7650   45.7694 H   0  0  0  0  0  0  0  0  0  0  0  0
   58.7867   33.4252   42.9474 H   0  0  0  0  0  0  0  0  0  0  0  0
   57.4473   31.3466   41.8742 H   0  0  0  0  0  0  0  0  0  0  0  0
   55.8910   29.7340   46.0150 H   0  0  0  0  0  0  0  0  0  0  0  0
  1  2  3  0
  2  3  1  0
  3  4  2  0
  4  5  1  0
  5  6  2  0
  6  7  1  0
  7  8  2  0
  8  9  1  0
  4 10  1  0
 10 11  1  0
 11 12  1  0
 12 13  1  0
 13 14  1  0
 14 15  2  0
 15 16  1  0
 16 17  2  0
 17 18  1  0
 18 19  2  0
 18 20  1  0
 17 21  1  0
 11 22  2  0
 22 23  1  0
 23 24  2  0
 23  3  1  0
  9  5  1  0
 21 14  1  0
  6 25  1  0
  7 26  1  0
  8 27  1  0
 10 28  1  0
 13 29  1  0
 13 30  1  0
 15 31  1  0
 16 32  1  0
 20 33  1  0
M  END
>  <smiles>  (81) 
N#Cc1c(-c2ccco2)[nH]c(SCc2ccc(C(=O)O)o2)nc1=O

>  <score_type>  (81) 
oracle

>  <origin>  (81) 
adg

>  <m_score__min__energy>  (81) 
-7.46

>  <m_primary>  (81) 
energy

$$$$
81:0
     RDKit          3D

 54 55  0  0  0  0  0  0  0  0999 V2000
   64.7160   32.4520   50.0330 C   0  0  0  0  0  0  0  0  0  0  0  0
   63.4720   32.7520   49.1760 C   0  0  0  0  0  0  0  0  0  0  0  0
   63.8750   33.0690   47.7230 C   0  0  0  0  0  0  0  0  0  0  0  0
   62.7460   33.9710   49.7660 C   0  0  0  0  0  0  0  0  0  0  0  0
   62.5520   31.6510   49.2160 O   0  0  0  0  0  0  0  0  0  0  0  0
   61.1610   31.7300   49.3890 C   0  0  0  0  0  0  0  0  0  0  0  0
   60.6390   31.4750   50.5080 O   0  0  0  0  0  0  0  0  0  0  0  0
   60.3220   32.1030   48.2800 N   0  0  0  0  0  0  0  0  0  0  0  0
   58.8600   32.0040   48.4220 C   0  0  0  0  0  0  0  0  0  0  0  0
   58.1400   32.3530   47.1140 C   0  0  0  0  0  0  0  0  0  0  0  0
   58.6770   33.6800   46.5550 C   0  0  0  0  0  0  0  0  0  0  0  0
   57.8240   34.1230   45.0350 S   0  0  0  0  0  0  0  0  0  0  0  0
   56.6160   34.9520   45.3720 O   0  0  0  0  0  0  0  0  0  0  0  0
   58.7500   34.9500   44.1880 O   0  0  0  0  0  0  0  0  0  0  0  0
   57.3710   32.7000   44.1350 N   0  0  0  0  0  0  0  0  0  0  0  0
   58.4940   31.7630   44.0490 C   0  0  0  0  0  0  0  0  0  0  0  0
   58.0640   30.4050   44.5320 C   0  0  0  0  0  0  0  0  0  0  0  0
   56.7030   30.0630   44.5700 C   0  0  0  0  0  0  0  0  0  0  0  0
   56.3080   28.7860   44.9790 C   0  0  0  0  0  0  0  0  0  0  0  0
   57.2680   27.8340   45.3470 C   0  0  0  0  0  0  0  0  0  0  0  0
   56.7650   26.2210   45.8420 S   0  0  0  0  0  0  0  0  0  0  0  0
   55.0420   26.1710   45.9800 N   0  0  0  0  0  0  0  0  0  0  0  0
   57.2170   25.2080   44.8270 O   0  0  0  0  0  0  0  0  0  0  0  0
   57.3840   25.8840   47.1700 O   0  0  0  0  0  0  0  0  0  0  0  0
   58.6290   28.1640   45.2860 C   0  0  0  0  0  0  0  0  0  0  0  0
   59.0250   29.4420   44.8790 C   0  0  0  0  0  0  0  0  0  0  0  0
   60.2170   33.6660   46.3570 C   0  0  0  0  0  0  0  0  0  0  0  0
   60.9130   32.4430   46.9760 C   0  0  0  0  0  0  0  0  0  0  0  0
   64.4512   32.5159   51.0987 H   0  0  0  0  0  0  0  0  0  0  0  0
   65.0821   31.4398   49.8062 H   0  0  0  0  0  0  0  0  0  0  0  0
   65.5032   33.1860   49.8062 H   0  0  0  0  0  0  0  0  0  0  0  0
   64.7396   33.7491   47.7223 H   0  0  0  0  0  0  0  0  0  0  0  0
   64.1418   32.1362   47.2047 H   0  0  0  0  0  0  0  0  0  0  0  0
   63.0313   33.5480   47.2047 H   0  0  0  0  0  0  0  0  0  0  0  0
   62.7765   33.9198   50.8644 H   0  0  0  0  0  0  0  0  0  0  0  0
   63.2425   34.8925   49.4280 H   0  0  0  0  0  0  0  0  0  0  0  0
   61.6992   33.9734   49.4280 H   0  0  0  0  0  0  0  0  0  0  0  0
   58.5983   30.9751   48.7098 H   0  0  0  0  0  0  0  0  0  0  0  0
   58.5402   32.7212   49.1923 H   0  0  0  0  0  0  0  0  0  0  0  0
   58.3114   31.5525   46.3793 H   0  0  0  0  0  0  0  0  0  0  0  0
   57.0626   32.4545   47.3114 H   0  0  0  0  0  0  0  0  0  0  0  0
   58.4692   34.4544   47.3081 H   0  0  0  0  0  0  0  0  0  0  0  0
   57.1200   33.0100   43.1680 H   0  0  0  0  0  0  0  0  0  0  0  0
   58.8288   31.6895   43.0038 H   0  0  0  0  0  0  0  0  0  0  0  0
   59.3194   32.1273   44.6784 H   0  0  0  0  0  0  0  0  0  0  0  0
   55.9440   30.8032   44.2766 H   0  0  0  0  0  0  0  0  0  0  0  0
   55.2393   28.5275   45.0121 H   0  0  0  0  0  0  0  0  0  0  0  0
   54.7420   27.0890   46.3790 H   0  0  0  0  0  0  0  0  0  0  0  0
   59.3876   27.4157   45.5590 H   0  0  0  0  0  0  0  0  0  0  0  0
   60.0946   29.6940   44.8305 H   0  0  0  0  0  0  0  0  0  0  0  0
   60.4276   33.6749   45.2774 H   0  0  0  0  0  0  0  0  0  0  0  0
   60.6134   34.5537   46.8716 H   0  0  0  0  0  0  0  0  0  0  0  0
   60.8033   31.5848   46.2967 H   0  0  0  0  0  0  0  0  0  0  0  0
   61.9760   32.6833   47.1253 H   0  0  0  0  0  0  0  0  0  0  0  0
  1  2  1  0
  2  3  1  0
  2  4  1  0
  2  5  1  0
  5  6  1  0
  6  7  2  0
  6  8  1  0
  8  9  1  0
  9 10  1  0
 10 11  1  0
 11 12  1  0
 12 13  2  0
 12 14  2  0
 12 15  1  0
 15 16  1  0
 16 17  1  0
 17 18  2  0
 18 19  1  0
 19 20  2  0
 20 21  1  0
 21 22  1  0
 21 23  2  0
 21 24  2  0
 20 25  1  0
 25 26  2  0
 11 27  1  0
 27 28  1  0
 28  8  1  0
 26 17  1  0
  1 29  1  0
  1 30  1  0
  1 31  1  0
  3 32  1  0
  3 33  1  0
  3 34  1  0
  4 35  1  0
  4 36  1  0
  4 37  1  0
  9 38  1  0
  9 39  1  0
 10 40  1  0
 10 41  1  0
 11 42  1  0
 15 43  1  0
 16 44  1  0
 16 45  1  0
 18 46  1  0
 19 47  1  0
 22 48  1  0
 25 49  1  0
 26 50  1  0
 27 51  1  0
 27 52  1  0
 28 53  1  0
 28 54  1  0
M  CHG  1  22  -1
M  END
>  <UniqueID>  (82) 
73

>  <SMILES>  (82) 
CC(C)(C)OC(=O)N1CCC(S(=O)(=O)NCc2ccc(S([NH-])(=O)=O)cc2)CC1

>  <Energy>  (82) 
42.58572294658966

>  <Genealogy>  (82) 
CC(C)(C)OC(=O)N1CCC(S(=O)(=O)NCc2ccc(S([NH-])(=O)=O)cc2)CC1 (protonated)
CC(C)(C)OC(=O)N1CCC(S(=O)(=O)NCc2ccc(S([NH-])(=O)=O)cc2)CC1 (3D coordinates assigned)
CC(C)(C)OC(=O)N1CCC(S(=O)(=O)NCc2ccc(S([NH-])(=O)=O)cc2)CC1 (nonaromatic ring conformer: 42.58572294658966 kcal/mol)

>  <smiles>  (82) 
CC(C)(C)OC(=O)N1CCC(S(=O)(=O)NCc2ccc(S(N)(=O)=O)cc2)CC1

>  <score_type>  (82) 
oracle

>  <origin>  (82) 
adg

>  <m_score__min__energy>  (82) 
-12.44

>  <m_primary>  (82) 
energy

$$$$
82:0
     RDKit          3D

 40 42  0  0  0  0  0  0  0  0999 V2000
   54.1950   26.7120   46.4020 H   0  0  0  0  0  0  0  0  0  0  0  0
   54.7150   25.9610   45.8940 N   0  0  0  0  0  0  0  0  0  0  0  0
   56.1410   25.8930   45.9530 C   0  0  0  0  0  0  0  0  0  0  0  0
   56.7070   24.7940   46.2130 O   0  0  0  0  0  0  0  0  0  0  0  0
   56.9520   27.0880   45.6910 C   0  0  0  0  0  0  0  0  0  0  0  0
   58.6300   27.1700   45.8210 S   0  0  0  0  0  0  0  0  0  0  0  0
   58.7750   28.7790   45.3550 C   0  0  0  0  0  0  0  0  0  0  0  0
   59.7148   29.3440   45.2678 H   0  0  0  0  0  0  0  0  0  0  0  0
   57.5000   29.2710   45.0990 C   0  0  0  0  0  0  0  0  0  0  0  0
   57.2100   30.9330   44.6140 S   0  0  0  0  0  0  0  0  0  0  0  0
   55.8010   31.0550   44.1100 O   0  0  0  0  0  0  0  0  0  0  0  0
   58.1570   31.3350   43.5170 O   0  0  0  0  0  0  0  0  0  0  0  0
   57.4230   31.9920   45.9770 N   0  0  0  0  0  0  0  0  0  0  0  0
   58.2070   33.0340   46.0370 C   0  0  0  0  0  0  0  0  0  0  0  0
   58.9010   33.3890   47.2130 C   0  0  0  0  0  0  0  0  0  0  0  0
   58.7618   32.8037   48.1339 H   0  0  0  0  0  0  0  0  0  0  0  0
   59.7660   34.4870   47.2040 C   0  0  0  0  0  0  0  0  0  0  0  0
   60.4720   34.8140   48.3660 O   0  0  0  0  0  0  0  0  0  0  0  0
   61.7060   34.2490   48.7280 C   0  0  0  0  0  0  0  0  0  0  0  0
   62.6280   33.7800   47.7730 C   0  0  0  0  0  0  0  0  0  0  0  0
   62.4165   33.9044   46.7007 H   0  0  0  0  0  0  0  0  0  0  0  0
   63.8110   33.1570   48.1810 C   0  0  0  0  0  0  0  0  0  0  0  0
   64.5304   32.8015   47.4286 H   0  0  0  0  0  0  0  0  0  0  0  0
   64.0850   32.9830   49.5480 C   0  0  0  0  0  0  0  0  0  0  0  0
   65.3620   32.3210   49.9760 C   0  0  0  0  0  0  0  0  0  0  0  0
   65.4114   32.2954   51.0746 H   0  0  0  0  0  0  0  0  0  0  0  0
   65.3919   31.2938   49.5836 H   0  0  0  0  0  0  0  0  0  0  0  0
   66.2187   32.8886   49.5836 H   0  0  0  0  0  0  0  0  0  0  0  0
   63.1860   33.4850   50.4990 C   0  0  0  0  0  0  0  0  0  0  0  0
   63.4103   33.3858   51.5713 H   0  0  0  0  0  0  0  0  0  0  0  0
   62.0040   34.1120   50.0890 C   0  0  0  0  0  0  0  0  0  0  0  0
   61.3031   34.5005   50.8425 H   0  0  0  0  0  0  0  0  0  0  0  0
   59.9020   35.2500   46.0390 C   0  0  0  0  0  0  0  0  0  0  0  0
   60.5667   36.1263   46.0227 H   0  0  0  0  0  0  0  0  0  0  0  0
   59.1850   34.8870   44.8980 C   0  0  0  0  0  0  0  0  0  0  0  0
   59.2809   35.4833   43.9787 H   0  0  0  0  0  0  0  0  0  0  0  0
   58.3670   33.7980   44.9170 N   0  0  0  0  0  0  0  0  0  0  0  0
   57.8530   33.5470   44.0420 H   0  0  0  0  0  0  0  0  0  0  0  0
   56.4770   28.3320   45.2860 C   0  0  0  0  0  0  0  0  0  0  0  0
   55.4112   28.5545   45.1293 H   0  0  0  0  0  0  0  0  0  0  0  0
  1  2  1  0
  2  3  1  0
  3  4  2  0
  3  5  1  0
  5  6  1  0
  6  7  1  0
  7  8  1  0
  7  9  2  0
  9 10  1  0
 10 11  2  0
 10 12  2  0
 10 13  1  0
 13 14  2  0
 14 15  1  0
 15 16  1  0
 15 17  2  0
 17 18  1  0
 18 19  1  0
 19 20  2  0
 20 21  1  0
 20 22  1  0
 22 23  1  0
 22 24  2  0
 24 25  1  0
 25 26  1  0
 25 27  1  0
 25 28  1  0
 24 29  1  0
 29 30  1  0
 29 31  2  0
 31 32  1  0
 17 33  1  0
 33 34  1  0
 33 35  2  0
 35 36  1  0
 35 37  1  0
 37 38  1  0
  9 39  1  0
 39 40  1  0
 39  5  2  0
 37 14  1  0
 31 19  1  0
M  CHG  1   2  -1
M  END
>  <UniqueID>  (83) 
74

>  <SMILES>  (83) 
Cc1ccc(Oc2cc[nH]/c(=N/S(=O)(=O)c3csc(C([NH-])=O)c3)c2)cc1

>  <Energy>  (83) 
79.64106314866959

>  <Genealogy>  (83) 
Cc1ccc(Oc2cc[nH]c(=NS(=O)(=O)c3csc(C([NH-])=O)c3)c2)cc1 (protonated)
Cc1ccc(Oc2cc[nH]/c(=N/S(=O)(=O)c3csc(C([NH-])=O)c3)c2)cc1 (cis-trans isomerization)
Cc1ccc(Oc2cc[nH]/c(=N/S(=O)(=O)c3csc(C([NH-])=O)c3)c2)cc1 (3D coordinates assigned)
Cc1ccc(Oc2cc[nH]/c(=N/S(=O)(=O)c3csc(C([NH-])=O)c3)c2)cc1 (optimized conformer: 79.64106314866959 kcal/mol)

>  <smiles>  (83) 
Cc1ccc(Oc2cc[nH]c(=NS(=O)(=O)c3csc(C(N)=O)c3)c2)cc1

>  <score_type>  (83) 
oracle

>  <origin>  (83) 
adg

>  <m_score__min__energy>  (83) 
-12.279999999999999

>  <m_primary>  (83) 
energy

$$$$
83:0
     RDKit          3D

 41 42  0  0  0  0  0  0  0  0999 V2000
   59.7300   34.2550   48.6870 C   0  0  0  0  0  0  0  0  0  0  0  0
   60.0650   34.0180   47.2050 C   0  0  0  0  0  0  0  0  0  0  0  0
   59.0680   34.5430   46.2440 N   0  0  0  0  0  0  0  0  0  0  0  0
   59.6060   34.8520   44.9120 C   0  0  0  0  0  0  0  0  0  0  0  0
   57.6340   33.5480   46.1400 S   0  0  0  0  0  0  0  0  0  0  0  0
   56.6550   34.1740   45.1840 O   0  0  0  0  0  0  0  0  0  0  0  0
   56.9800   33.4860   47.4930 O   0  0  0  0  0  0  0  0  0  0  0  0
   57.9900   31.9100   45.5950 C   0  0  0  0  0  0  0  0  0  0  0  0
   57.2930   31.3620   44.5100 C   0  0  0  0  0  0  0  0  0  0  0  0
   57.6000   30.0780   44.0510 C   0  0  0  0  0  0  0  0  0  0  0  0
   58.6050   29.3250   44.6770 C   0  0  0  0  0  0  0  0  0  0  0  0
   58.9670   27.9650   44.1430 C   0  0  0  0  0  0  0  0  0  0  0  0
   57.8050   27.0800   44.1910 N   0  0  0  0  0  0  0  0  0  0  0  0
   57.3840   26.4290   45.4000 C   0  0  0  0  0  0  0  0  0  0  0  0
   57.9670   26.6890   46.4880 O   0  0  0  0  0  0  0  0  0  0  0  0
   56.2720   25.4540   45.3800 C   0  0  0  0  0  0  0  0  0  0  0  0
   56.3990   24.2170   44.7310 C   0  0  0  0  0  0  0  0  0  0  0  0
   55.3240   23.3300   44.7330 C   0  0  0  0  0  0  0  0  0  0  0  0
   54.1460   23.6940   45.3810 C   0  0  0  0  0  0  0  0  0  0  0  0
   53.1590   22.9110   45.3980 O   0  0  0  0  0  0  0  0  0  0  0  0
   54.0660   24.9020   45.9960 N   0  0  0  0  0  0  0  0  0  0  0  0
   55.0940   25.7510   45.9950 N   0  0  0  0  0  0  0  0  0  0  0  0
   59.2970   29.8720   45.7700 C   0  0  0  0  0  0  0  0  0  0  0  0
   58.9880   31.1550   46.2270 C   0  0  0  0  0  0  0  0  0  0  0  0
   60.4661   33.7343   49.3171 H   0  0  0  0  0  0  0  0  0  0  0  0
   59.7609   35.3333   48.9020 H   0  0  0  0  0  0  0  0  0  0  0  0
   58.7234   33.8669   48.9020 H   0  0  0  0  0  0  0  0  0  0  0  0
   61.0303   34.5007   46.9924 H   0  0  0  0  0  0  0  0  0  0  0  0
   60.0806   32.9271   47.0650 H   0  0  0  0  0  0  0  0  0  0  0  0
   60.5555   35.3973   45.0175 H   0  0  0  0  0  0  0  0  0  0  0  0
   59.7800   33.9162   44.3607 H   0  0  0  0  0  0  0  0  0  0  0  0
   58.8853   35.4738   44.3607 H   0  0  0  0  0  0  0  0  0  0  0  0
   56.5008   31.9448   44.0173 H   0  0  0  0  0  0  0  0  0  0  0  0
   57.0517   29.6562   43.1958 H   0  0  0  0  0  0  0  0  0  0  0  0
   59.3074   28.0621   43.1015 H   0  0  0  0  0  0  0  0  0  0  0  0
   59.7701   27.5379   44.7615 H   0  0  0  0  0  0  0  0  0  0  0  0
   57.2780   26.9170   43.3030 H   0  0  0  0  0  0  0  0  0  0  0  0
   57.3384   23.9495   44.2251 H   0  0  0  0  0  0  0  0  0  0  0  0
   55.4048   22.3553   44.2295 H   0  0  0  0  0  0  0  0  0  0  0  0
   60.0850   29.2879   46.2678 H   0  0  0  0  0  0  0  0  0  0  0  0
   59.5302   31.5751   47.0869 H   0  0  0  0  0  0  0  0  0  0  0  0
  1  2  1  0
  2  3  1  0
  3  4  1  0
  3  5  1  0
  5  6  2  0
  5  7  2  0
  5  8  1  0
  8  9  2  0
  9 10  1  0
 10 11  2  0
 11 12  1  0
 12 13  1  0
 13 14  1  0
 14 15  2  0
 14 16  1  0
 16 17  1  0
 17 18  2  0
 18 19  1  0
 19 20  2  0
 19 21  1  0
 21 22  1  0
 11 23  1  0
 23 24  2  0
 24  8  1  0
 22 16  2  0
  1 25  1  0
  1 26  1  0
  1 27  1  0
  2 28  1  0
  2 29  1  0
  4 30  1  0
  4 31  1  0
  4 32  1  0
  9 33  1  0
 10 34  1  0
 12 35  1  0
 12 36  1  0
 13 37  1  0
 17 38  1  0
 18 39  1  0
 23 40  1  0
 24 41  1  0
M  CHG  1  21  -1
M  END
>  <UniqueID>  (84) 
75

>  <SMILES>  (84) 
CCN(C)S(=O)(=O)c1ccc(CNC(=O)c2ccc(=O)[n-]n2)cc1

>  <Energy>  (84) 
41.56463763691946

>  <Genealogy>  (84) 
CCN(C)S(=O)(=O)c1ccc(CNC(=O)c2ccc(=O)[n-]n2)cc1 (protonated)
CCN(C)S(=O)(=O)c1ccc(CNC(=O)c2ccc(=O)[n-]n2)cc1 (3D coordinates assigned)
CCN(C)S(=O)(=O)c1ccc(CNC(=O)c2ccc(=O)[n-]n2)cc1 (optimized conformer: 41.56463763691946 kcal/mol)

>  <smiles>  (84) 
CCN(C)S(=O)(=O)c1ccc(CNC(=O)c2ccc(=O)[nH]n2)cc1

>  <score_type>  (84) 
oracle

>  <origin>  (84) 
adg

>  <m_score__min__energy>  (84) 
-10.630000000000001

>  <m_primary>  (84) 
energy

$$$$
84:0
     RDKit          3D

 42 44  0  0  0  0  0  0  0  0999 V2000
   63.3820   33.4250   47.0860 C   0  0  0  0  0  0  0  0  0  0  0  0
   62.1940   34.1560   47.3700 O   0  0  0  0  0  0  0  0  0  0  0  0
   60.9250   33.8330   46.8640 C   0  0  0  0  0  0  0  0  0  0  0  0
   60.0560   34.8030   46.3280 C   0  0  0  0  0  0  0  0  0  0  0  0
   58.8020   34.4310   45.8380 C   0  0  0  0  0  0  0  0  0  0  0  0
   58.3920   33.0890   45.8820 C   0  0  0  0  0  0  0  0  0  0  0  0
   57.0370   32.6970   45.3570 C   0  0  0  0  0  0  0  0  0  0  0  0
   57.1480   31.6040   44.3960 N   0  0  0  0  0  0  0  0  0  0  0  0
   57.0230   30.2090   44.7010 C   0  0  0  0  0  0  0  0  0  0  0  0
   55.8710   29.7330   44.8840 O   0  0  0  0  0  0  0  0  0  0  0  0
   58.2330   29.3220   44.8550 C   0  0  0  0  0  0  0  0  0  0  0  0
   57.8410   27.9350   45.1590 N   0  0  0  0  0  0  0  0  0  0  0  0
   57.5910   27.5870   46.4670 C   0  0  0  0  0  0  0  0  0  0  0  0
   57.2480   26.3110   46.7990 N   0  0  0  0  0  0  0  0  0  0  0  0
   57.1630   25.3820   45.8220 C   0  0  0  0  0  0  0  0  0  0  0  0
   56.7690   23.7600   46.0000 S   0  0  0  0  0  0  0  0  0  0  0  0
   56.9220   23.4240   44.3480 C   0  0  0  0  0  0  0  0  0  0  0  0
   56.6870   21.8430   43.6280 S   0  0  0  0  0  0  0  0  0  0  0  0
   58.2230   21.0990   43.3530 N   0  0  0  0  0  0  0  0  0  0  0  0
   55.8690   20.9860   44.5520 O   0  0  0  0  0  0  0  0  0  0  0  0
   55.9550   21.9900   42.3230 O   0  0  0  0  0  0  0  0  0  0  0  0
   57.2880   24.5750   43.6520 C   0  0  0  0  0  0  0  0  0  0  0  0
   57.4180   25.6780   44.5030 C   0  0  0  0  0  0  0  0  0  0  0  0
   57.7710   26.9850   44.1650 C   0  0  0  0  0  0  0  0  0  0  0  0
   58.0260   27.2800   42.9650 O   0  0  0  0  0  0  0  0  0  0  0  0
   59.2620   32.1220   46.4080 C   0  0  0  0  0  0  0  0  0  0  0  0
   60.5180   32.4950   46.8980 C   0  0  0  0  0  0  0  0  0  0  0  0
   63.8642   33.1283   48.0291 H   0  0  0  0  0  0  0  0  0  0  0  0
   63.1292   32.5260   46.5047 H   0  0  0  0  0  0  0  0  0  0  0  0
   64.0706   34.0559   46.5047 H   0  0  0  0  0  0  0  0  0  0  0  0
   60.3661   35.8579   46.2951 H   0  0  0  0  0  0  0  0  0  0  0  0
   58.1318   35.1939   45.4152 H   0  0  0  0  0  0  0  0  0  0  0  0
   56.4043   32.3751   46.1973 H   0  0  0  0  0  0  0  0  0  0  0  0
   56.5906   33.5660   44.8515 H   0  0  0  0  0  0  0  0  0  0  0  0
   58.8091   29.3350   43.9180 H   0  0  0  0  0  0  0  0  0  0  0  0
   58.8407   29.7032   45.6889 H   0  0  0  0  0  0  0  0  0  0  0  0
   57.6693   28.3500   47.2555 H   0  0  0  0  0  0  0  0  0  0  0  0
   58.0560   20.2680   42.7430 H   0  0  0  0  0  0  0  0  0  0  0  0
   58.5560   20.7380   44.2740 H   0  0  0  0  0  0  0  0  0  0  0  0
   57.4545   24.6117   42.5653 H   0  0  0  0  0  0  0  0  0  0  0  0
   58.9551   31.0660   46.4352 H   0  0  0  0  0  0  0  0  0  0  0  0
   61.1909   31.7303   47.3133 H   0  0  0  0  0  0  0  0  0  0  0  0
  1  2  1  0
  2  3  1  0
  3  4  2  0
  4  5  1  0
  5  6  2  0
  6  7  1  0
  7  8  1  0
  8  9  1  0
  9 10  2  0
  9 11  1  0
 11 12  1  0
 12 13  1  0
 13 14  2  0
 14 15  1  0
 15 16  1  0
 16 17  1  0
 17 18  1  0
 18 19  1  0
 18 20  2  0
 18 21  2  0
 17 22  2  0
 22 23  1  0
 23 24  1  0
 24 25  2  0
  6 26  1  0
 26 27  2  0
 27  3  1  0
 24 12  1  0
 23 15  2  0
  1 28  1  0
  1 29  1  0
  1 30  1  0
  4 31  1  0
  5 32  1  0
  7 33  1  0
  7 34  1  0
 11 35  1  0
 11 36  1  0
 13 37  1  0
 19 38  1  0
 19 39  1  0
 22 40  1  0
 26 41  1  0
 27 42  1  0
M  CHG  1   8  -1
M  END
>  <UniqueID>  (85) 
76

>  <SMILES>  (85) 
COc1ccc(C[N-]C(=O)Cn2cnc3sc(S(N)(=O)=O)cc3c2=O)cc1

>  <Energy>  (85) 
75.3545434607526

>  <Genealogy>  (85) 
COc1ccc(C[N-]C(=O)Cn2cnc3sc(S(N)(=O)=O)cc3c2=O)cc1 (protonated)
COc1ccc(C[N-]C(=O)Cn2cnc3sc(S(N)(=O)=O)cc3c2=O)cc1 (3D coordinates assigned)
COc1ccc(C[N-]C(=O)Cn2cnc3sc(S(N)(=O)=O)cc3c2=O)cc1 (optimized conformer: 75.3545434607526 kcal/mol)

>  <smiles>  (85) 
COc1ccc(CNC(=O)Cn2cnc3sc(S(N)(=O)=O)cc3c2=O)cc1

>  <score_type>  (85) 
oracle

>  <origin>  (85) 
adg

>  <m_score__min__energy>  (85) 
-10.68

>  <m_primary>  (85) 
energy

$$$$
85:0
     RDKit          3D

 48 51  0  0  0  0  0  0  0  0999 V2000
   60.0580   29.6010   45.9380 O   0  0  0  0  0  0  0  0  0  0  0  0
   59.1020   29.5380   46.7540 C   0  0  0  0  0  0  0  0  0  0  0  0
   59.3710   29.1230   48.1000 N   0  0  0  0  0  0  0  0  0  0  0  0
   59.2990   29.8700   49.1630 C   0  0  0  0  0  0  0  0  0  0  0  0
   59.3020   31.2170   49.0940 N   0  0  0  0  0  0  0  0  0  0  0  0
   59.2600   31.7890   50.3290 C   0  0  0  0  0  0  0  0  0  0  0  0
   59.2530   33.2540   50.5150 C   0  0  0  0  0  0  0  0  0  0  0  0
   58.7580   33.7400   51.5670 O   0  0  0  0  0  0  0  0  0  0  0  0
   59.7650   34.1470   49.5160 N   0  0  0  0  0  0  0  0  0  0  0  0
   60.8900   33.8950   48.6620 C   0  0  0  0  0  0  0  0  0  0  0  0
   62.1530   33.7580   49.2530 C   0  0  0  0  0  0  0  0  0  0  0  0
   63.2870   33.5560   48.4640 C   0  0  0  0  0  0  0  0  0  0  0  0
   63.1670   33.4750   47.0760 C   0  0  0  0  0  0  0  0  0  0  0  0
   61.9100   33.5730   46.4760 C   0  0  0  0  0  0  0  0  0  0  0  0
   60.7590   33.7700   47.2560 C   0  0  0  0  0  0  0  0  0  0  0  0
   59.4670   33.7710   46.6220 N   0  0  0  0  0  0  0  0  0  0  0  0
   58.3010   33.0990   47.1730 C   0  0  0  0  0  0  0  0  0  0  0  0
   57.1250   33.5430   46.3120 C   0  0  0  0  0  0  0  0  0  0  0  0
   57.7320   34.2170   45.0850 C   0  0  0  0  0  0  0  0  0  0  0  0
   59.1390   34.6210   45.4910 C   0  0  0  0  0  0  0  0  0  0  0  0
   59.2220   30.8890   51.3930 C   0  0  0  0  0  0  0  0  0  0  0  0
   59.2630   29.3310   50.7610 S   0  0  0  0  0  0  0  0  0  0  0  0
   57.7760   29.9200   46.3500 N   0  0  0  0  0  0  0  0  0  0  0  0
   57.4050   30.1540   44.9830 C   0  0  0  0  0  0  0  0  0  0  0  0
   58.1340   31.0500   44.1800 C   0  0  0  0  0  0  0  0  0  0  0  0
   57.7390   31.2940   42.8610 C   0  0  0  0  0  0  0  0  0  0  0  0
   56.6140   30.6510   42.3350 C   0  0  0  0  0  0  0  0  0  0  0  0
   55.8770   29.7690   43.1300 C   0  0  0  0  0  0  0  0  0  0  0  0
   56.2640   29.5230   44.4530 C   0  0  0  0  0  0  0  0  0  0  0  0
   55.5210   28.6430   45.2330 O   0  0  0  0  0  0  0  0  0  0  0  0
   62.2519   33.8100   50.3473 H   0  0  0  0  0  0  0  0  0  0  0  0
   64.2757   33.4606   48.9367 H   0  0  0  0  0  0  0  0  0  0  0  0
   64.0633   33.3338   46.4542 H   0  0  0  0  0  0  0  0  0  0  0  0
   61.8205   33.4952   45.3824 H   0  0  0  0  0  0  0  0  0  0  0  0
   58.4258   32.0075   47.1185 H   0  0  0  0  0  0  0  0  0  0  0  0
   58.1481   33.3536   48.2322 H   0  0  0  0  0  0  0  0  0  0  0  0
   56.5219   32.6736   46.0112 H   0  0  0  0  0  0  0  0  0  0  0  0
   56.4606   34.2274   46.8599 H   0  0  0  0  0  0  0  0  0  0  0  0
   57.7638   33.5153   44.2385 H   0  0  0  0  0  0  0  0  0  0  0  0
   57.1376   35.0848   44.7631 H   0  0  0  0  0  0  0  0  0  0  0  0
   59.8433   34.4508   44.6634 H   0  0  0  0  0  0  0  0  0  0  0  0
   59.2028   35.6889   45.7468 H   0  0  0  0  0  0  0  0  0  0  0  0
   59.1736   31.1521   52.4600 H   0  0  0  0  0  0  0  0  0  0  0  0
   57.0220   29.9600   47.0690 H   0  0  0  0  0  0  0  0  0  0  0  0
   59.0176   31.5603   44.5910 H   0  0  0  0  0  0  0  0  0  0  0  0
   58.3142   31.9930   42.2360 H   0  0  0  0  0  0  0  0  0  0  0  0
   56.3091   30.8395   41.2951 H   0  0  0  0  0  0  0  0  0  0  0  0
   54.9906   29.2667   42.7153 H   0  0  0  0  0  0  0  0  0  0  0  0
  1  2  2  0
  2  3  1  0
  3  4  2  3
  4  5  1  0
  5  6  1  0
  6  7  1  0
  7  8  2  0
  7  9  1  0
  9 10  1  0
 10 11  2  0
 11 12  1  0
 12 13  2  0
 13 14  1  0
 14 15  2  0
 15 16  1  0
 16 17  1  0
 17 18  1  0
 18 19  1  0
 19 20  1  0
  6 21  2  0
 21 22  1  0
  2 23  1  0
 23 24  1  0
 24 25  2  0
 25 26  1  0
 26 27  2  0
 27 28  1  0
 28 29  2  0
 29 30  1  0
 22  4  1  0
 29 24  1  0
 15 10  1  0
 20 16  1  0
 11 31  1  0
 12 32  1  0
 13 33  1  0
 14 34  1  0
 17 35  1  0
 17 36  1  0
 18 37  1  0
 18 38  1  0
 19 39  1  0
 19 40  1  0
 20 41  1  0
 20 42  1  0
 21 43  1  0
 23 44  1  0
 25 45  1  0
 26 46  1  0
 27 47  1  0
 28 48  1  0
M  CHG  3   5  -1   9  -1  30  -1
M  END
>  <UniqueID>  (86) 
77

>  <SMILES>  (86) 
O=C(N=c1[n-]c(C(=O)[N-]c2ccccc2N2CCCC2)cs1)Nc1ccccc1[O-]

>  <Energy>  (86) 
102.08828208846519

>  <Genealogy>  (86) 
O=C(N=c1[n-]c(C(=O)[N-]c2ccccc2N2CCCC2)cs1)Nc1ccccc1[O-] (protonated)
O=C(N=c1[n-]c(C(=O)[N-]c2ccccc2N2CCCC2)cs1)Nc1ccccc1[O-] (3D coordinates assigned)
O=C(N=c1[n-]c(C(=O)[N-]c2ccccc2N2CCCC2)cs1)Nc1ccccc1[O-] (nonaromatic ring conformer: 102.08828208846519 kcal/mol)

>  <smiles>  (86) 
O=C(N=c1[nH]c(C(=O)Nc2ccccc2N2CCCC2)cs1)Nc1ccccc1O

>  <score_type>  (86) 
oracle

>  <origin>  (86) 
adg

>  <m_score__min__energy>  (86) 
-15.44

>  <m_primary>  (86) 
energy

$$$$
86:0
     RDKit          3D

 41 43  0  0  0  0  0  0  0  0999 V2000
   57.7600   34.3340   45.2960 O   0  0  0  0  0  0  0  0  0  0  0  0
   58.4540   33.2910   45.1610 C   0  0  0  0  0  0  0  0  0  0  0  0
   58.0240   32.2570   44.1570 C   0  0  0  0  0  0  0  0  0  0  0  0
   56.8340   31.4320   44.6590 C   0  0  0  0  0  0  0  0  0  0  0  0
   57.2670   30.1150   45.1340 N   0  0  0  0  0  0  0  0  0  0  0  0
   56.5010   29.0040   45.2000 C   0  0  0  0  0  0  0  0  0  0  0  0
   55.1530   28.9610   44.8630 O   0  0  0  0  0  0  0  0  0  0  0  0
   57.2470   27.9270   45.6310 C   0  0  0  0  0  0  0  0  0  0  0  0
   58.5220   28.3900   45.8280 C   0  0  0  0  0  0  0  0  0  0  0  0
   58.5120   29.7330   45.5110 C   0  0  0  0  0  0  0  0  0  0  0  0
   59.6290   30.5640   45.5600 O   0  0  0  0  0  0  0  0  0  0  0  0
   59.6670   27.5310   46.2580 C   0  0  0  0  0  0  0  0  0  0  0  0
   59.2320   26.1020   46.5150 C   0  0  0  0  0  0  0  0  0  0  0  0
   57.9740   25.6460   46.3220 C   0  0  0  0  0  0  0  0  0  0  0  0
   56.8290   26.5040   45.8200 C   0  0  0  0  0  0  0  0  0  0  0  0
   59.6530   33.1620   45.9340 N   0  0  0  0  0  0  0  0  0  0  0  0
   60.5250   34.2560   46.3540 C   0  0  0  0  0  0  0  0  0  0  0  0
   61.5350   33.7760   47.3660 C   0  0  0  0  0  0  0  0  0  0  0  0
   61.1360   33.4910   48.6840 C   0  0  0  0  0  0  0  0  0  0  0  0
   62.0720   33.0510   49.6250 C   0  0  0  0  0  0  0  0  0  0  0  0
   63.4080   32.8800   49.2580 C   0  0  0  0  0  0  0  0  0  0  0  0
   63.8120   33.1420   47.9460 C   0  0  0  0  0  0  0  0  0  0  0  0
   62.8800   33.5800   46.9980 C   0  0  0  0  0  0  0  0  0  0  0  0
   63.2910   33.8190   45.7280 F   0  0  0  0  0  0  0  0  0  0  0  0
   57.7364   32.7649   43.2246 H   0  0  0  0  0  0  0  0  0  0  0  0
   58.8681   31.5714   43.9915 H   0  0  0  0  0  0  0  0  0  0  0  0
   56.3475   31.9699   45.4860 H   0  0  0  0  0  0  0  0  0  0  0  0
   56.1319   31.2886   43.8245 H   0  0  0  0  0  0  0  0  0  0  0  0
   59.5790   31.5150   45.9040 H   0  0  0  0  0  0  0  0  0  0  0  0
   60.4313   27.5339   45.4669 H   0  0  0  0  0  0  0  0  0  0  0  0
   60.0686   27.9406   47.1966 H   0  0  0  0  0  0  0  0  0  0  0  0
   59.9873   25.3913   46.8816 H   0  0  0  0  0  0  0  0  0  0  0  0
   57.7686   24.5881   46.5426 H   0  0  0  0  0  0  0  0  0  0  0  0
   56.4793   26.1041   44.8568 H   0  0  0  0  0  0  0  0  0  0  0  0
   56.0261   26.4790   46.5715 H   0  0  0  0  0  0  0  0  0  0  0  0
   61.0550   34.6527   45.4755 H   0  0  0  0  0  0  0  0  0  0  0  0
   59.9086   35.0415   46.8156 H   0  0  0  0  0  0  0  0  0  0  0  0
   60.0827   33.6148   48.9760 H   0  0  0  0  0  0  0  0  0  0  0  0
   61.7549   32.8391   50.6568 H   0  0  0  0  0  0  0  0  0  0  0  0
   64.1431   32.5389   50.0018 H   0  0  0  0  0  0  0  0  0  0  0  0
   64.8645   33.0037   47.6578 H   0  0  0  0  0  0  0  0  0  0  0  0
  1  2  2  0
  2  3  1  0
  3  4  1  0
  4  5  1  0
  5  6  1  0
  6  7  1  0
  6  8  2  0
  8  9  1  0
  9 10  2  0
 10 11  1  0
  9 12  1  0
 12 13  1  0
 13 14  2  0
 14 15  1  0
  2 16  1  0
 16 17  1  0
 17 18  1  0
 18 19  2  0
 19 20  1  0
 20 21  2  0
 21 22  1  0
 22 23  2  0
 23 24  1  0
 10  5  1  0
 23 18  1  0
 15  8  1  0
  3 25  1  0
  3 26  1  0
  4 27  1  0
  4 28  1  0
 11 29  1  0
 12 30  1  0
 12 31  1  0
 13 32  1  0
 14 33  1  0
 15 34  1  0
 15 35  1  0
 17 36  1  0
 17 37  1  0
 19 38  1  0
 20 39  1  0
 21 40  1  0
 22 41  1  0
M  CHG  2   7  -1  16  -1
M  END
>  <UniqueID>  (87) 
78

>  <SMILES>  (87) 
O=C(CCn1c([O-])c2c(c1O)CC=CC2)[N-]Cc1ccccc1F

>  <Energy>  (87) 
70.0127853965032

>  <Genealogy>  (87) 
O=C(CCn1c([O-])c2c(c1O)CC=CC2)[N-]Cc1ccccc1F (protonated)
O=C(CCn1c([O-])c2c(c1O)CC=CC2)[N-]Cc1ccccc1F (3D coordinates assigned)
O=C(CCn1c([O-])c2c(c1O)CC=CC2)[N-]Cc1ccccc1F (nonaromatic ring conformer: 70.0127853965032 kcal/mol)

>  <smiles>  (87) 
O=C(CCn1c(O)c2c(c1O)CC=CC2)NCc1ccccc1F

>  <score_type>  (87) 
oracle

>  <origin>  (87) 
adg

>  <m_score__min__energy>  (87) 
-13.08

>  <m_primary>  (87) 
energy

$$$$
87:0
     RDKit          3D

 45 47  0  0  0  0  0  0  0  0999 V2000
   56.4850   27.0390   45.6170 O   0  0  0  0  0  0  0  0  0  0  0  0
   56.6450   28.2870   45.5510 C   0  0  0  0  0  0  0  0  0  0  0  0
   55.5750   29.0970   45.0460 N   0  0  0  0  0  0  0  0  0  0  0  0
   55.5450   29.7460   43.7360 C   0  0  0  0  0  0  0  0  0  0  0  0
   56.5150   30.8980   43.6830 C   0  0  0  0  0  0  0  0  0  0  0  0
   57.1020   31.2690   42.4630 C   0  0  0  0  0  0  0  0  0  0  0  0
   58.0230   32.3220   42.4150 C   0  0  0  0  0  0  0  0  0  0  0  0
   58.3560   33.0140   43.5830 C   0  0  0  0  0  0  0  0  0  0  0  0
   57.7670   32.6580   44.7980 C   0  0  0  0  0  0  0  0  0  0  0  0
   56.8480   31.6060   44.8510 C   0  0  0  0  0  0  0  0  0  0  0  0
   57.9410   28.8650   45.9470 C   0  0  0  0  0  0  0  0  0  0  0  0
   58.1850   29.2280   47.2800 C   0  0  0  0  0  0  0  0  0  0  0  0
   59.4060   29.8070   47.6390 C   0  0  0  0  0  0  0  0  0  0  0  0
   60.4010   30.0230   46.6720 C   0  0  0  0  0  0  0  0  0  0  0  0
   61.7110   30.6680   47.0630 C   0  0  0  0  0  0  0  0  0  0  0  0
   61.5190   31.7670   48.0460 N   0  0  0  0  0  0  0  0  0  0  0  0
   60.6990   32.8820   47.5030 C   0  0  0  0  0  0  0  0  0  0  0  0
   61.5520   33.9750   46.8250 C   0  0  0  0  0  0  0  0  0  0  0  0
   62.7750   33.4440   46.3630 O   0  0  0  0  0  0  0  0  0  0  0  0
   63.5870   33.0650   47.4610 C   0  0  0  0  0  0  0  0  0  0  0  0
   62.8150   32.2740   48.5450 C   0  0  0  0  0  0  0  0  0  0  0  0
   60.1630   29.6350   45.3430 C   0  0  0  0  0  0  0  0  0  0  0  0
   58.9430   29.0540   44.9850 C   0  0  0  0  0  0  0  0  0  0  0  0
   55.8165   29.0110   42.9639 H   0  0  0  0  0  0  0  0  0  0  0  0
   54.5306   30.1329   43.5592 H   0  0  0  0  0  0  0  0  0  0  0  0
   56.8372   30.7302   41.5413 H   0  0  0  0  0  0  0  0  0  0  0  0
   58.4849   32.6051   41.4577 H   0  0  0  0  0  0  0  0  0  0  0  0
   59.0823   33.8393   43.5450 H   0  0  0  0  0  0  0  0  0  0  0  0
   58.0267   33.2066   45.7154 H   0  0  0  0  0  0  0  0  0  0  0  0
   56.3839   31.3313   45.8097 H   0  0  0  0  0  0  0  0  0  0  0  0
   57.4134   29.0566   48.0450 H   0  0  0  0  0  0  0  0  0  0  0  0
   59.5882   30.0949   48.6849 H   0  0  0  0  0  0  0  0  0  0  0  0
   62.3644   29.9033   47.5083 H   0  0  0  0  0  0  0  0  0  0  0  0
   62.1621   31.0978   46.1565 H   0  0  0  0  0  0  0  0  0  0  0  0
   61.0140   31.3740   48.8760 H   0  0  0  0  0  0  0  0  0  0  0  0
   59.9968   32.4734   46.7614 H   0  0  0  0  0  0  0  0  0  0  0  0
   60.1726   33.3489   48.3485 H   0  0  0  0  0  0  0  0  0  0  0  0
   60.9944   34.3900   45.9724 H   0  0  0  0  0  0  0  0  0  0  0  0
   61.7666   34.7620   47.5630 H   0  0  0  0  0  0  0  0  0  0  0  0
   64.4087   32.4361   47.0877 H   0  0  0  0  0  0  0  0  0  0  0  0
   63.9551   33.9893   47.9302 H   0  0  0  0  0  0  0  0  0  0  0  0
   63.4298   31.4204   48.8666 H   0  0  0  0  0  0  0  0  0  0  0  0
   62.6117   32.9573   49.3827 H   0  0  0  0  0  0  0  0  0  0  0  0
   60.9405   29.7891   44.5803 H   0  0  0  0  0  0  0  0  0  0  0  0
   58.7685   28.7438   43.9442 H   0  0  0  0  0  0  0  0  0  0  0  0
  1  2  2  0
  2  3  1  0
  3  4  1  0
  4  5  1  0
  5  6  2  0
  6  7  1  0
  7  8  2  0
  8  9  1  0
  9 10  2  0
  2 11  1  0
 11 12  2  0
 12 13  1  0
 13 14  2  0
 14 15  1  0
 15 16  1  0
 16 17  1  0
 17 18  1  0
 18 19  1  0
 19 20  1  0
 20 21  1  0
 14 22  1  0
 22 23  2  0
 10  5  1  0
 23 11  1  0
 21 16  1  0
  4 24  1  0
  4 25  1  0
  6 26  1  0
  7 27  1  0
  8 28  1  0
  9 29  1  0
 10 30  1  0
 12 31  1  0
 13 32  1  0
 15 33  1  0
 15 34  1  0
 16 35  1  0
 17 36  1  0
 17 37  1  0
 18 38  1  0
 18 39  1  0
 20 40  1  0
 20 41  1  0
 21 42  1  0
 21 43  1  0
 22 44  1  0
 23 45  1  0
M  CHG  2   3  -1  16   1
M  END
>  <UniqueID>  (88) 
79

>  <SMILES>  (88) 
O=C([N-]Cc1ccccc1)c1ccc(C[NH+]2CCOCC2)cc1

>  <Energy>  (88) 
59.94663964995133

>  <Genealogy>  (88) 
O=C([N-]Cc1ccccc1)c1ccc(C[NH+]2CCOCC2)cc1 (protonated)
O=C([N-]Cc1ccccc1)c1ccc(C[NH+]2CCOCC2)cc1 (3D coordinates assigned)
O=C([N-]Cc1ccccc1)c1ccc(C[NH+]2CCOCC2)cc1 (nonaromatic ring conformer: 59.94663964995133 kcal/mol)

>  <smiles>  (88) 
O=C(NCc1ccccc1)c1ccc(CN2CCOCC2)cc1

>  <score_type>  (88) 
oracle

>  <origin>  (88) 
adg

>  <m_score__min__energy>  (88) 
-7.7599999999999998

>  <m_primary>  (88) 
energy

$$$$
88:0
     RDKit          3D

 43 45  0  0  0  0  0  0  0  0999 V2000
   58.8319   30.0718   48.3888 H   0  0  0  0  0  0  0  0  0  0  0  0
   59.1130   30.8310   47.6440 C   0  0  0  0  0  0  0  0  0  0  0  0
   59.8620   30.3700   46.4600 C   0  0  0  0  0  0  0  0  0  0  0  0
   61.1160   30.4790   46.4130 O   0  0  0  0  0  0  0  0  0  0  0  0
   59.1360   29.7150   45.4070 N   0  0  0  0  0  0  0  0  0  0  0  0
   58.0400   29.0150   45.4990 C   0  0  0  0  0  0  0  0  0  0  0  0
   57.8770   27.7640   46.0730 C   0  0  0  0  0  0  0  0  0  0  0  0
   58.6334   27.1409   46.5727 H   0  0  0  0  0  0  0  0  0  0  0  0
   56.5340   27.4840   45.8680 C   0  0  0  0  0  0  0  0  0  0  0  0
   55.8370   26.2600   46.2780 C   0  0  0  0  0  0  0  0  0  0  0  0
   56.3710   25.4910   47.1220 O   0  0  0  0  0  0  0  0  0  0  0  0
   54.5600   25.9420   45.7150 N   0  0  0  0  0  0  0  0  0  0  0  0
   54.0630   24.5800   45.5610 C   0  0  0  0  0  0  0  0  0  0  0  0
   53.0910   24.6039   45.0466 H   0  0  0  0  0  0  0  0  0  0  0  0
   53.9503   24.1245   46.5559 H   0  0  0  0  0  0  0  0  0  0  0  0
   55.0270   23.7660   44.7580 C   0  0  0  0  0  0  0  0  0  0  0  0
   56.4330   23.0550   45.3460 S   0  0  0  0  0  0  0  0  0  0  0  0
   56.8030   22.3450   43.8660 C   0  0  0  0  0  0  0  0  0  0  0  0
   57.9610   21.4370   43.6270 C   0  0  0  0  0  0  0  0  0  0  0  0
   58.3766   21.1111   44.5919 H   0  0  0  0  0  0  0  0  0  0  0  0
   57.6262   20.5582   43.0564 H   0  0  0  0  0  0  0  0  0  0  0  0
   58.7346   21.9718   43.0564 H   0  0  0  0  0  0  0  0  0  0  0  0
   55.8620   22.6100   42.9340 N   0  0  0  0  0  0  0  0  0  0  0  0
   54.8730   23.4050   43.4240 C   0  0  0  0  0  0  0  0  0  0  0  0
   54.0197   23.7359   42.8138 H   0  0  0  0  0  0  0  0  0  0  0  0
   55.9390   28.5020   45.2110 N   0  0  0  0  0  0  0  0  0  0  0  0
   56.8600   29.4280   44.9970 N   0  0  0  0  0  0  0  0  0  0  0  0
   56.6070   30.6700   44.2760 C   0  0  0  0  0  0  0  0  0  0  0  0
   56.4410   31.4848   44.9962 H   0  0  0  0  0  0  0  0  0  0  0  0
   57.4746   30.9103   43.6440 H   0  0  0  0  0  0  0  0  0  0  0  0
   55.7145   30.5518   43.6440 H   0  0  0  0  0  0  0  0  0  0  0  0
   58.7450   32.0990   47.8900 C   0  0  0  0  0  0  0  0  0  0  0  0
   58.2907   32.3117   48.8690 H   0  0  0  0  0  0  0  0  0  0  0  0
   58.9000   33.2320   46.9540 C   0  0  0  0  0  0  0  0  0  0  0  0
   59.8780   34.2220   47.1510 C   0  0  0  0  0  0  0  0  0  0  0  0
   60.5215   34.1875   48.0425 H   0  0  0  0  0  0  0  0  0  0  0  0
   60.0310   35.2220   46.2430 N   0  0  0  0  0  0  0  0  0  0  0  0
   59.2650   35.2930   45.1210 C   0  0  0  0  0  0  0  0  0  0  0  0
   59.4049   36.1214   44.4110 H   0  0  0  0  0  0  0  0  0  0  0  0
   58.3020   34.3150   44.8710 C   0  0  0  0  0  0  0  0  0  0  0  0
   57.6853   34.3633   43.9614 H   0  0  0  0  0  0  0  0  0  0  0  0
   58.1280   33.2750   45.7850 C   0  0  0  0  0  0  0  0  0  0  0  0
   57.3846   32.4886   45.5879 H   0  0  0  0  0  0  0  0  0  0  0  0
  1  2  1  0
  2  3  1  0
  3  4  2  0
  3  5  1  0
  5  6  2  0
  6  7  1  0
  7  8  1  0
  7  9  2  0
  9 10  1  0
 10 11  2  0
 10 12  1  0
 12 13  1  0
 13 14  1  0
 13 15  1  0
 13 16  1  0
 16 17  1  0
 17 18  1  0
 18 19  1  0
 19 20  1  0
 19 21  1  0
 19 22  1  0
 18 23  2  0
 23 24  1  0
 24 25  1  0
  9 26  1  0
 26 27  1  0
 27 28  1  0
 28 29  1  0
 28 30  1  0
 28 31  1  0
  2 32  2  3
 32 33  1  0
 32 34  1  0
 34 35  2  0
 35 36  1  0
 35 37  1  0
 37 38  2  0
 38 39  1  0
 38 40  1  0
 40 41  1  0
 40 42  2  0
 42 43  1  0
 27  6  1  0
 42 34  1  0
 24 16  2  0
M  CHG  2  12  -1  26  -1
M  END
>  <UniqueID>  (89) 
80

>  <SMILES>  (89) 
Cc1ncc(C[N-]C(=O)c2c/c(=N\C(=O)C=Cc3cccnc3)n(C)[n-]2)s1

>  <Energy>  (89) 
111.92407345114536

>  <Genealogy>  (89) 
Cc1ncc(C[N-]C(=O)c2cc(=NC(=O)C=Cc3cccnc3)n(C)[n-]2)s1 (protonated)
Cc1ncc(C[N-]C(=O)c2c/c(=N\C(=O)C=Cc3cccnc3)n(C)[n-]2)s1 (cis-trans isomerization)
Cc1ncc(C[N-]C(=O)c2c/c(=N\C(=O)C=Cc3cccnc3)n(C)[n-]2)s1 (3D coordinates assigned)
Cc1ncc(C[N-]C(=O)c2c/c(=N\C(=O)C=Cc3cccnc3)n(C)[n-]2)s1 (optimized conformer: 111.92407345114536 kcal/mol)

>  <smiles>  (89) 
Cc1ncc(CNC(=O)c2cc(=NC(=O)C=Cc3cccnc3)n(C)[nH]2)s1

>  <score_type>  (89) 
oracle

>  <origin>  (89) 
adg

>  <m_score__min__energy>  (89) 
-12.23

>  <m_primary>  (89) 
energy

$$$$
89:0
     RDKit          3D

 39 40  0  0  0  0  0  0  0  0999 V2000
   64.1430   32.1560   47.5900 N   0  0  0  0  0  0  0  0  0  0  0  0
   63.0770   32.2540   48.5440 C   0  0  0  0  0  0  0  0  0  0  0  0
   62.8670   33.5010   49.2150 N   0  0  0  0  0  0  0  0  0  0  0  0
   62.3330   31.2240   48.8530 N   0  0  0  0  0  0  0  0  0  0  0  0
   61.1470   30.8230   48.1470 C   0  0  0  0  0  0  0  0  0  0  0  0
   60.0280   30.3260   48.8330 C   0  0  0  0  0  0  0  0  0  0  0  0
   58.9040   29.8870   48.1280 C   0  0  0  0  0  0  0  0  0  0  0  0
   58.8860   29.9180   46.7220 C   0  0  0  0  0  0  0  0  0  0  0  0
   57.6960   29.4540   45.9700 C   0  0  0  0  0  0  0  0  0  0  0  0
   57.3690   28.2360   45.9950 O   0  0  0  0  0  0  0  0  0  0  0  0
   56.9070   30.3870   45.2200 N   0  0  0  0  0  0  0  0  0  0  0  0
   57.4630   31.5490   44.5390 C   0  0  0  0  0  0  0  0  0  0  0  0
   57.0020   32.8400   45.2190 C   0  0  0  0  0  0  0  0  0  0  0  0
   58.1090   33.4220   46.0570 C   0  0  0  0  0  0  0  0  0  0  0  0
   59.0470   34.2980   45.4830 C   0  0  0  0  0  0  0  0  0  0  0  0
   60.0530   34.8650   46.2720 C   0  0  0  0  0  0  0  0  0  0  0  0
   60.1260   34.5700   47.6360 C   0  0  0  0  0  0  0  0  0  0  0  0
   59.1890   33.7100   48.2160 C   0  0  0  0  0  0  0  0  0  0  0  0
   58.1800   33.1400   47.4320 C   0  0  0  0  0  0  0  0  0  0  0  0
   60.0220   30.3910   46.0380 C   0  0  0  0  0  0  0  0  0  0  0  0
   61.1460   30.8290   46.7460 C   0  0  0  0  0  0  0  0  0  0  0  0
   64.6700   33.0130   47.3110 H   0  0  0  0  0  0  0  0  0  0  0  0
   64.4900   31.2390   47.2330 H   0  0  0  0  0  0  0  0  0  0  0  0
   62.1100   33.6100   49.9270 H   0  0  0  0  0  0  0  0  0  0  0  0
   63.4710   34.3240   49.0000 H   0  0  0  0  0  0  0  0  0  0  0  0
   62.6210   30.6220   49.6600 H   0  0  0  0  0  0  0  0  0  0  0  0
   60.0357   30.2817   49.9321 H   0  0  0  0  0  0  0  0  0  0  0  0
   58.0266   29.5144   48.6770 H   0  0  0  0  0  0  0  0  0  0  0  0
   58.5613   31.4957   44.5701 H   0  0  0  0  0  0  0  0  0  0  0  0
   57.1129   31.5515   43.4962 H   0  0  0  0  0  0  0  0  0  0  0  0
   56.7095   33.5694   44.4493 H   0  0  0  0  0  0  0  0  0  0  0  0
   56.1463   32.6112   45.8712 H   0  0  0  0  0  0  0  0  0  0  0  0
   58.9895   34.5379   44.4110 H   0  0  0  0  0  0  0  0  0  0  0  0
   60.7887   35.5450   45.8177 H   0  0  0  0  0  0  0  0  0  0  0  0
   60.9207   35.0145   48.2532 H   0  0  0  0  0  0  0  0  0  0  0  0
   59.2450   33.4810   49.2904 H   0  0  0  0  0  0  0  0  0  0  0  0
   57.4402   32.4692   47.8932 H   0  0  0  0  0  0  0  0  0  0  0  0
   60.0257   30.4163   44.9383 H   0  0  0  0  0  0  0  0  0  0  0  0
   62.0340   31.1801   46.1998 H   0  0  0  0  0  0  0  0  0  0  0  0
  1  2  1  0
  2  3  1  0
  2  4  2  3
  4  5  1  0
  5  6  2  0
  6  7  1  0
  7  8  2  0
  8  9  1  0
  9 10  2  0
  9 11  1  0
 11 12  1  0
 12 13  1  0
 13 14  1  0
 14 15  2  0
 15 16  1  0
 16 17  2  0
 17 18  1  0
 18 19  2  0
  8 20  1  0
 20 21  2  0
 21  5  1  0
 19 14  1  0
  1 22  1  0
  1 23  1  0
  3 24  1  0
  3 25  1  0
  4 26  1  0
  6 27  1  0
  7 28  1  0
 12 29  1  0
 12 30  1  0
 13 31  1  0
 13 32  1  0
 15 33  1  0
 16 34  1  0
 17 35  1  0
 18 36  1  0
 19 37  1  0
 20 38  1  0
 21 39  1  0
M  CHG  2   4   1  11  -1
M  END
>  <UniqueID>  (90) 
81

>  <SMILES>  (90) 
NC(N)=[NH+]c1ccc(C(=O)[N-]CCc2ccccc2)cc1

>  <Energy>  (90) 
40.80870917038716

>  <Genealogy>  (90) 
NC(N)=[NH+]c1ccc(C(=O)[N-]CCc2ccccc2)cc1 (protonated)
NC(N)=[NH+]c1ccc(C(=O)[N-]CCc2ccccc2)cc1 (3D coordinates assigned)
NC(N)=[NH+]c1ccc(C(=O)[N-]CCc2ccccc2)cc1 (optimized conformer: 40.80870917038716 kcal/mol)

>  <smiles>  (90) 
NC(N)=Nc1ccc(C(=O)NCCc2ccccc2)cc1

>  <score_type>  (90) 
oracle

>  <origin>  (90) 
adg

>  <m_score__min__energy>  (90) 
-7.8899999999999997

>  <m_primary>  (90) 
energy

$$$$
90:0
     RDKit          3D

 59 62  0  0  0  0  0  0  0  0999 V2000
   55.4210   29.0670   44.8810 N   0  0  0  0  0  0  0  0  0  0  0  0
   56.2570   29.9450   44.1300 C   0  0  0  0  0  0  0  0  0  0  0  0
   56.0380   30.1170   42.9000 O   0  0  0  0  0  0  0  0  0  0  0  0
   57.3700   30.6900   44.8200 C   0  0  2  0  0  0  0  0  0  0  0  0
   57.2150   32.2130   44.6600 C   0  0  0  0  0  0  0  0  0  0  0  0
   58.0810   33.0030   45.6140 C   0  0  0  0  0  0  0  0  0  0  0  0
   58.8120   34.1150   45.1600 C   0  0  0  0  0  0  0  0  0  0  0  0
   59.5920   34.8600   46.0520 C   0  0  0  0  0  0  0  0  0  0  0  0
   59.6500   34.5000   47.4020 C   0  0  0  0  0  0  0  0  0  0  0  0
   58.9260   33.3940   47.8630 C   0  0  0  0  0  0  0  0  0  0  0  0
   58.1460   32.6480   46.9740 C   0  0  0  0  0  0  0  0  0  0  0  0
   58.6770   30.2600   44.3180 N   0  0  0  0  0  0  0  0  0  0  0  0
   59.3220   29.0250   44.6600 C   0  0  0  0  0  0  0  0  0  0  0  0
   60.5380   29.0400   44.9890 O   0  0  0  0  0  0  0  0  0  0  0  0
   58.6090   27.7350   44.6020 C   0  0  0  0  0  0  0  0  0  0  0  0
   58.4710   27.0910   43.3640 C   0  0  0  0  0  0  0  0  0  0  0  0
   57.7720   25.8850   43.2690 C   0  0  0  0  0  0  0  0  0  0  0  0
   57.2060   25.3160   44.4100 C   0  0  0  0  0  0  0  0  0  0  0  0
   57.3540   25.9380   45.6520 C   0  0  0  0  0  0  0  0  0  0  0  0
   58.0860   27.1370   45.7670 C   0  0  0  0  0  0  0  0  0  0  0  0
   58.2710   27.7820   47.0380 N   0  0  0  0  0  0  0  0  0  0  0  0
   59.3190   27.5270   47.9810 C   0  0  0  0  0  0  0  0  0  0  0  0
   59.8990   26.4100   47.9580 O   0  0  0  0  0  0  0  0  0  0  0  0
   59.6320   28.4860   48.9990 N   0  0  0  0  0  0  0  0  0  0  0  0
   60.5570   29.5790   48.8880 C   0  0  0  0  0  0  0  0  0  0  0  0
   61.2120   30.0250   50.0410 C   0  0  0  0  0  0  0  0  0  0  0  0
   62.1060   31.0990   49.9790 C   0  0  0  0  0  0  0  0  0  0  0  0
   62.3540   31.7440   48.7560 C   0  0  0  0  0  0  0  0  0  0  0  0
   63.2350   32.8300   48.6560 O   0  0  0  0  0  0  0  0  0  0  0  0
   64.0510   33.3150   49.6910 C   0  0  0  0  0  0  0  0  0  0  0  0
   63.5620   34.1890   50.6800 C   0  0  0  0  0  0  0  0  0  0  0  0
   64.4040   34.6360   51.7030 C   0  0  0  0  0  0  0  0  0  0  0  0
   65.7330   34.2060   51.7550 C   0  0  0  0  0  0  0  0  0  0  0  0
   66.2180   33.3210   50.7890 C   0  0  0  0  0  0  0  0  0  0  0  0
   65.3780   32.8740   49.7640 C   0  0  0  0  0  0  0  0  0  0  0  0
   61.6640   31.3280   47.6120 C   0  0  0  0  0  0  0  0  0  0  0  0
   60.7690   30.2560   47.6730 C   0  0  0  0  0  0  0  0  0  0  0  0
   54.4590   29.3570   45.1680 H   0  0  0  0  0  0  0  0  0  0  0  0
   57.3073   30.4514   45.8920 H   0  0  0  0  0  0  0  0  0  0  0  0
   57.4898   32.4861   43.6305 H   0  0  0  0  0  0  0  0  0  0  0  0
   56.1677   32.4607   44.8876 H   0  0  0  0  0  0  0  0  0  0  0  0
   58.7707   34.4009   44.0986 H   0  0  0  0  0  0  0  0  0  0  0  0
   60.1601   35.7298   45.6906 H   0  0  0  0  0  0  0  0  0  0  0  0
   60.2644   35.0857   48.1016 H   0  0  0  0  0  0  0  0  0  0  0  0
   58.9708   33.1117   48.9252 H   0  0  0  0  0  0  0  0  0  0  0  0
   57.5800   31.7787   47.3399 H   0  0  0  0  0  0  0  0  0  0  0  0
   58.9156   27.5379   42.4625 H   0  0  0  0  0  0  0  0  0  0  0  0
   57.6680   25.3845   42.2950 H   0  0  0  0  0  0  0  0  0  0  0  0
   56.6417   24.3751   44.3315 H   0  0  0  0  0  0  0  0  0  0  0  0
   56.8964   25.4892   46.5460 H   0  0  0  0  0  0  0  0  0  0  0  0
   61.0225   29.5273   51.0035 H   0  0  0  0  0  0  0  0  0  0  0  0
   62.6169   31.4399   50.8916 H   0  0  0  0  0  0  0  0  0  0  0  0
   62.5140   34.5215   50.6481 H   0  0  0  0  0  0  0  0  0  0  0  0
   64.0200   35.3270   52.4679 H   0  0  0  0  0  0  0  0  0  0  0  0
   66.3965   34.5642   52.5559 H   0  0  0  0  0  0  0  0  0  0  0  0
   67.2613   32.9755   50.8346 H   0  0  0  0  0  0  0  0  0  0  0  0
   65.7624   32.1712   49.0101 H   0  0  0  0  0  0  0  0  0  0  0  0
   61.8272   31.8488   46.6569 H   0  0  0  0  0  0  0  0  0  0  0  0
   60.2287   29.9407   46.7682 H   0  0  0  0  0  0  0  0  0  0  0  0
  1  2  1  0
  2  3  2  0
  2  4  1  0
  4  5  1  0
  5  6  1  0
  6  7  2  0
  7  8  1  0
  8  9  2  0
  9 10  1  0
 10 11  2  0
  4 12  1  0
 12 13  1  0
 13 14  2  0
 13 15  1  0
 15 16  2  0
 16 17  1  0
 17 18  2  0
 18 19  1  0
 19 20  2  0
 20 21  1  0
 21 22  1  0
 22 23  2  0
 22 24  1  0
 24 25  1  0
 25 26  2  0
 26 27  1  0
 27 28  2  0
 28 29  1  0
 29 30  1  0
 30 31  2  0
 31 32  1  0
 32 33  2  0
 33 34  1  0
 34 35  2  0
 28 36  1  0
 36 37  2  0
 11  6  1  0
 20 15  1  0
 37 25  1  0
 35 30  1  0
  1 38  1  0
  4 39  1  1
  5 40  1  0
  5 41  1  0
  7 42  1  0
  8 43  1  0
  9 44  1  0
 10 45  1  0
 11 46  1  0
 16 47  1  0
 17 48  1  0
 18 49  1  0
 19 50  1  0
 26 51  1  0
 27 52  1  0
 31 53  1  0
 32 54  1  0
 33 55  1  0
 34 56  1  0
 35 57  1  0
 36 58  1  0
 37 59  1  0
M  CHG  4   1  -1  12  -1  21  -1  24  -1
M  END
>  <UniqueID>  (91) 
82

>  <SMILES>  (91) 
[NH-]C(=O)[C@H](Cc1ccccc1)[N-]C(=O)c1ccccc1[N-]C(=O)[N-]c1ccc(Oc2ccccc2)cc1

>  <Energy>  (91) 
79.55980372279582

>  <Genealogy>  (91) 
[NH-]C(=O)C(Cc1ccccc1)[N-]C(=O)c1ccccc1[N-]C(=O)[N-]c1ccc(Oc2ccccc2)cc1 (protonated)
[NH-]C(=O)[C@H](Cc1ccccc1)[N-]C(=O)c1ccccc1[N-]C(=O)[N-]c1ccc(Oc2ccccc2)cc1 (chirality)
[NH-]C(=O)[C@H](Cc1ccccc1)[N-]C(=O)c1ccccc1[N-]C(=O)[N-]c1ccc(Oc2ccccc2)cc1 (3D coordinates assigned)
[NH-]C(=O)[C@H](Cc1ccccc1)[N-]C(=O)c1ccccc1[N-]C(=O)[N-]c1ccc(Oc2ccccc2)cc1 (optimized conformer: 79.55980372279582 kcal/mol)

>  <smiles>  (91) 
NC(=O)C(Cc1ccccc1)NC(=O)c1ccccc1NC(=O)Nc1ccc(Oc2ccccc2)cc1

>  <score_type>  (91) 
oracle

>  <origin>  (91) 
adg

>  <m_score__min__energy>  (91) 
-16.940000000000001

>  <m_primary>  (91) 
energy

$$$$
91:0
     RDKit          3D

 59 62  0  0  0  0  0  0  0  0999 V2000
   61.1282   27.9672   46.1210 H   0  0  0  0  0  0  0  0  0  0  0  0
   60.6320   27.2600   46.8020 C   0  0  0  0  0  0  0  0  0  0  0  0
   61.1793   26.8503   47.6637 H   0  0  0  0  0  0  0  0  0  0  0  0
   59.3620   26.8980   46.5820 C   0  0  0  0  0  0  0  0  0  0  0  0
   58.8280   26.0210   47.4720 N   0  0  0  0  0  0  0  0  0  0  0  0
   57.7150   25.2600   47.3810 C   0  0  0  0  0  0  0  0  0  0  0  0
   57.4700   24.4540   48.3210 O   0  0  0  0  0  0  0  0  0  0  0  0
   56.9060   25.2860   46.2830 N   0  0  0  0  0  0  0  0  0  0  0  0
   56.1700   24.0400   45.9010 C   0  0  0  0  0  0  0  0  0  0  0  0
   55.3951   23.9358   46.6747 H   0  0  0  0  0  0  0  0  0  0  0  0
   57.1140   22.8060   45.8550 C   0  0  0  0  0  0  0  0  0  0  0  0
   57.6785   22.7461   46.7972 H   0  0  0  0  0  0  0  0  0  0  0  0
   56.5082   21.8979   45.7192 H   0  0  0  0  0  0  0  0  0  0  0  0
   58.1000   22.9290   44.6800 C   0  0  0  0  0  0  0  0  0  0  0  0
   58.7007   23.8415   44.8081 H   0  0  0  0  0  0  0  0  0  0  0  0
   58.7480   22.0402   44.6708 H   0  0  0  0  0  0  0  0  0  0  0  0
   57.4100   22.9980   43.4460 O   0  0  0  0  0  0  0  0  0  0  0  0
   56.6080   24.1670   43.4020 C   0  0  0  0  0  0  0  0  0  0  0  0
   57.2456   25.0485   43.5643 H   0  0  0  0  0  0  0  0  0  0  0  0
   56.1205   24.2242   42.4176 H   0  0  0  0  0  0  0  0  0  0  0  0
   55.5230   24.1230   44.4880 C   0  0  0  0  0  0  0  0  0  0  0  0
   54.9092   25.0336   44.4237 H   0  0  0  0  0  0  0  0  0  0  0  0
   54.8972   23.2322   44.3301 H   0  0  0  0  0  0  0  0  0  0  0  0
   56.4120   26.5070   45.9220 C   0  0  0  0  0  0  0  0  0  0  0  0
   55.1630   26.6990   46.0030 O   0  0  0  0  0  0  0  0  0  0  0  0
   57.2410   27.5330   45.4140 C   0  0  0  0  0  0  0  0  0  0  0  0
   56.6410   28.5640   44.7550 C   0  0  0  0  0  0  0  0  0  0  0  0
   55.7048   28.3407   44.2223 H   0  0  0  0  0  0  0  0  0  0  0  0
   57.1360   29.9560   44.6920 C   0  0  0  0  0  0  0  0  0  0  0  0
   57.7740   30.5090   45.8120 C   0  0  0  0  0  0  0  0  0  0  0  0
   57.9118   29.9016   46.7187 H   0  0  0  0  0  0  0  0  0  0  0  0
   58.2360   31.8290   45.7820 C   0  0  0  0  0  0  0  0  0  0  0  0
   58.7155   32.2625   46.6720 H   0  0  0  0  0  0  0  0  0  0  0  0
   58.0890   32.6050   44.6150 C   0  0  0  0  0  0  0  0  0  0  0  0
   58.5120   33.9420   44.5390 O   0  0  0  0  0  0  0  0  0  0  0  0
   59.6450   34.4830   45.2140 C   0  0  0  0  0  0  0  0  0  0  0  0
   60.4763   33.7644   45.1640 H   0  0  0  0  0  0  0  0  0  0  0  0
   59.9378   35.4262   44.7296 H   0  0  0  0  0  0  0  0  0  0  0  0
   59.3040   34.7530   46.6590 C   0  0  0  0  0  0  0  0  0  0  0  0
   58.3156   35.1751   46.8933 H   0  0  0  0  0  0  0  0  0  0  0  0
   60.1520   34.5020   47.6770 C   0  0  0  0  0  0  0  0  0  0  0  0
   60.0159   35.0690   48.6097 H   0  0  0  0  0  0  0  0  0  0  0  0
   61.2490   33.5190   47.6240 C   0  0  0  0  0  0  0  0  0  0  0  0
   60.9700   32.1610   47.8300 C   0  0  0  0  0  0  0  0  0  0  0  0
   59.9459   31.8425   48.0747 H   0  0  0  0  0  0  0  0  0  0  0  0
   61.9840   31.2150   47.7260 C   0  0  0  0  0  0  0  0  0  0  0  0
   61.7700   30.1550   47.9277 H   0  0  0  0  0  0  0  0  0  0  0  0
   63.2720   31.6100   47.3660 C   0  0  0  0  0  0  0  0  0  0  0  0
   64.0713   30.8597   47.2756 H   0  0  0  0  0  0  0  0  0  0  0  0
   63.5490   32.9570   47.1200 C   0  0  0  0  0  0  0  0  0  0  0  0
   64.5626   33.2646   46.8232 H   0  0  0  0  0  0  0  0  0  0  0  0
   62.5450   33.9080   47.2500 C   0  0  0  0  0  0  0  0  0  0  0  0
   62.7659   34.9686   47.0594 H   0  0  0  0  0  0  0  0  0  0  0  0
   57.4970   32.0300   43.4830 C   0  0  0  0  0  0  0  0  0  0  0  0
   57.4054   32.6195   42.5589 H   0  0  0  0  0  0  0  0  0  0  0  0
   57.0210   30.7150   43.5140 C   0  0  0  0  0  0  0  0  0  0  0  0
   56.5576   30.2755   42.6184 H   0  0  0  0  0  0  0  0  0  0  0  0
   58.6550   27.4560   45.4890 C   0  0  0  0  0  0  0  0  0  0  0  0
   59.3310   27.9910   44.5600 O   0  0  0  0  0  0  0  0  0  0  0  0
  1  2  1  0
  2  3  1  0
  2  4  2  0
  4  5  1  0
  5  6  1  0
  6  7  2  0
  6  8  1  0
  8  9  1  0
  9 10  1  0
  9 11  1  0
 11 12  1  0
 11 13  1  0
 11 14  1  0
 14 15  1  0
 14 16  1  0
 14 17  1  0
 17 18  1  0
 18 19  1  0
 18 20  1  0
 18 21  1  0
 21 22  1  0
 21 23  1  0
  8 24  1  0
 24 25  2  0
 24 26  1  0
 26 27  2  3
 27 28  1  0
 27 29  1  0
 29 30  2  0
 30 31  1  0
 30 32  1  0
 32 33  1  0
 32 34  2  0
 34 35  1  0
 35 36  1  0
 36 37  1  0
 36 38  1  0
 36 39  1  0
 39 40  1  0
 39 41  2  0
 41 42  1  0
 41 43  1  0
 43 44  2  0
 44 45  1  0
 44 46  1  0
 46 47  1  0
 46 48  2  0
 48 49  1  0
 48 50  1  0
 50 51  1  0
 50 52  2  0
 52 53  1  0
 34 54  1  0
 54 55  1  0
 54 56  2  0
 56 57  1  0
 26 58  1  0
 58 59  2  0
 58  4  1  0
 21  9  1  0
 56 29  1  0
 52 43  1  0
M  CHG  1   5  -1
M  END
>  <UniqueID>  (92) 
83

>  <SMILES>  (92) 
C=c1[n-]c(=O)n(C2CCOCC2)c(=O)c(=Cc2ccc(OC/C=C\c3ccccc3)cc2)c1=O

>  <Energy>  (92) 
140.65930338561668

>  <Genealogy>  (92) 
C=c1[n-]c(=O)n(C2CCOCC2)c(=O)c(=Cc2ccc(OCC=Cc3ccccc3)cc2)c1=O (protonated)
C=c1[n-]c(=O)n(C2CCOCC2)c(=O)c(=Cc2ccc(OC/C=C\c3ccccc3)cc2)c1=O (cis-trans isomerization)
C=c1[n-]c(=O)n(C2CCOCC2)c(=O)c(=Cc2ccc(OC/C=C\c3ccccc3)cc2)c1=O (3D coordinates assigned)
C=c1[n-]c(=O)n(C2CCOCC2)c(=O)c(=Cc2ccc(OC/C=C\c3ccccc3)cc2)c1=O (nonaromatic ring conformer: 140.65930338561668 kcal/mol)

>  <smiles>  (92) 
C=c1[nH]c(=O)n(C2CCOCC2)c(=O)c(=Cc2ccc(OCC=Cc3ccccc3)cc2)c1=O

>  <score_type>  (92) 
oracle

>  <origin>  (92) 
adg

>  <m_score__min__energy>  (92) 
-11.77

>  <m_primary>  (92) 
energy

$$$$
92:0
     RDKit          3D

 64 67  0  0  0  0  0  0  0  0999 V2000
   63.8680   33.2660   46.4460 N   0  0  0  0  0  0  0  0  0  0  0  0
   63.0000   32.5880   47.1330 C   0  0  0  0  0  0  0  0  0  0  0  0
   63.4710   31.5930   48.0450 N   0  0  0  0  0  0  0  0  0  0  0  0
   61.5430   32.8240   46.9680 C   0  0  0  0  0  0  0  0  0  0  0  0
   60.6430   31.7450   47.0040 C   0  0  0  0  0  0  0  0  0  0  0  0
   59.2700   31.9600   46.8440 C   0  0  0  0  0  0  0  0  0  0  0  0
   58.7740   33.2560   46.6420 C   0  0  0  0  0  0  0  0  0  0  0  0
   57.2960   33.4980   46.4960 C   0  0  0  0  0  0  0  0  0  0  0  0
   56.8840   33.2680   45.1160 N   0  0  0  0  0  0  0  0  0  0  0  0
   57.7940   32.9360   44.0640 C   0  0  0  0  0  0  0  0  0  0  0  0
   58.8400   33.6210   43.8940 O   0  0  0  0  0  0  0  0  0  0  0  0
   57.4880   31.7550   43.1890 C   0  0  0  0  0  0  0  0  0  0  0  0
   57.0240   30.5540   43.9600 C   0  0  0  0  0  0  0  0  0  0  0  0
   55.7010   30.1550   44.1390 C   0  0  0  0  0  0  0  0  0  0  0  0
   55.5450   29.0180   44.8670 N   0  0  0  0  0  0  0  0  0  0  0  0
   56.7380   28.5110   45.2580 C   0  0  0  0  0  0  0  0  0  0  0  0
   56.8810   27.4140   45.9390 N   0  0  0  0  0  0  0  0  0  0  0  0
   58.1280   26.7890   46.2810 C   0  0  0  0  0  0  0  0  0  0  0  0
   58.5370   25.7700   45.6590 O   0  0  0  0  0  0  0  0  0  0  0  0
   58.9400   27.3500   47.3680 C   0  0  0  0  0  0  0  0  0  0  0  0
   60.1880   26.8920   47.7780 C   0  0  0  0  0  0  0  0  0  0  0  0
   60.7560   27.6640   48.7990 C   0  0  0  0  0  0  0  0  0  0  0  0
   59.9460   28.7200   49.2110 C   0  0  0  0  0  0  0  0  0  0  0  0
   60.2750   29.7570   50.2060 C   0  0  0  0  0  0  0  0  0  0  0  0
   59.8020   29.6490   51.3690 O   0  0  0  0  0  0  0  0  0  0  0  0
   61.1460   30.8590   49.9210 N   0  0  0  0  0  0  0  0  0  0  0  0
   61.6490   31.8140   50.9010 C   0  0  0  0  0  0  0  0  0  0  0  0
   61.6510   33.2180   50.2920 C   0  0  0  0  0  0  0  0  0  0  0  0
   60.2340   33.7110   49.9550 C   0  0  0  0  0  0  0  0  0  0  0  0
   59.1990   33.1450   50.8930 C   0  0  0  0  0  0  0  0  0  0  0  0
   59.1800   33.5360   52.2420 C   0  0  0  0  0  0  0  0  0  0  0  0
   58.2320   32.9980   53.1180 C   0  0  0  0  0  0  0  0  0  0  0  0
   57.3020   32.0620   52.6560 C   0  0  0  0  0  0  0  0  0  0  0  0
   57.3210   31.6590   51.3180 C   0  0  0  0  0  0  0  0  0  0  0  0
   58.2680   32.1960   50.4390 C   0  0  0  0  0  0  0  0  0  0  0  0
   58.5510   28.7170   48.2700 S   0  0  0  0  0  0  0  0  0  0  0  0
   58.0320   29.4430   44.7260 S   0  0  0  0  0  0  0  0  0  0  0  0
   59.6670   34.3370   46.6160 C   0  0  0  0  0  0  0  0  0  0  0  0
   61.0390   34.1240   46.7770 C   0  0  0  0  0  0  0  0  0  0  0  0
   64.8780   33.0080   46.3950 H   0  0  0  0  0  0  0  0  0  0  0  0
   62.8170   31.0910   48.6850 H   0  0  0  0  0  0  0  0  0  0  0  0
   64.4950   31.4010   48.1340 H   0  0  0  0  0  0  0  0  0  0  0  0
   61.0211   30.7238   47.1592 H   0  0  0  0  0  0  0  0  0  0  0  0
   58.5755   31.1076   46.8768 H   0  0  0  0  0  0  0  0  0  0  0  0
   56.7479   32.8119   47.1584 H   0  0  0  0  0  0  0  0  0  0  0  0
   57.0733   34.5400   46.7691 H   0  0  0  0  0  0  0  0  0  0  0  0
   56.6984   32.0412   42.4786 H   0  0  0  0  0  0  0  0  0  0  0  0
   58.4212   31.4756   42.6780 H   0  0  0  0  0  0  0  0  0  0  0  0
   54.8504   30.7157   43.7241 H   0  0  0  0  0  0  0  0  0  0  0  0
   60.6804   26.0099   47.3428 H   0  0  0  0  0  0  0  0  0  0  0  0
   61.7452   27.4569   49.2333 H   0  0  0  0  0  0  0  0  0  0  0  0
   61.0021   31.8013   51.7906 H   0  0  0  0  0  0  0  0  0  0  0  0
   62.6742   31.5380   51.1886 H   0  0  0  0  0  0  0  0  0  0  0  0
   62.1060   33.9148   51.0114 H   0  0  0  0  0  0  0  0  0  0  0  0
   62.2244   33.1768   49.3542 H   0  0  0  0  0  0  0  0  0  0  0  0
   60.2142   34.8086   50.0254 H   0  0  0  0  0  0  0  0  0  0  0  0
   59.9904   33.3720   48.9373 H   0  0  0  0  0  0  0  0  0  0  0  0
   59.9135   34.2681   52.6107 H   0  0  0  0  0  0  0  0  0  0  0  0
   58.2180   33.3118   54.1722 H   0  0  0  0  0  0  0  0  0  0  0  0
   56.5550   31.6426   53.3459 H   0  0  0  0  0  0  0  0  0  0  0  0
   56.5915   30.9196   50.9559 H   0  0  0  0  0  0  0  0  0  0  0  0
   58.2836   31.8735   49.3874 H   0  0  0  0  0  0  0  0  0  0  0  0
   59.2856   35.3581   46.4681 H   0  0  0  0  0  0  0  0  0  0  0  0
   61.7303   34.9793   46.7542 H   0  0  0  0  0  0  0  0  0  0  0  0
  1  2  2  3
  2  3  1  0
  2  4  1  0
  4  5  2  0
  5  6  1  0
  6  7  2  0
  7  8  1  0
  8  9  1  0
  9 10  1  0
 10 11  2  0
 10 12  1  0
 12 13  1  0
 13 14  2  0
 14 15  1  0
 15 16  1  0
 16 17  2  3
 17 18  1  0
 18 19  2  0
 18 20  1  0
 20 21  2  0
 21 22  1  0
 22 23  2  0
 23 24  1  0
 24 25  2  0
 24 26  1  0
 26 27  1  0
 27 28  1  0
 28 29  1  0
 29 30  1  0
 30 31  2  0
 31 32  1  0
 32 33  2  0
 33 34  1  0
 34 35  2  0
 23 36  1  0
 16 37  1  0
  7 38  1  0
 38 39  2  0
 39  4  1  0
 37 13  1  0
 36 20  1  0
 35 30  1  0
  1 40  1  0
  3 41  1  0
  3 42  1  0
  5 43  1  0
  6 44  1  0
  8 45  1  0
  8 46  1  0
 12 47  1  0
 12 48  1  0
 14 49  1  0
 21 50  1  0
 22 51  1  0
 27 52  1  0
 27 53  1  0
 28 54  1  0
 28 55  1  0
 29 56  1  0
 29 57  1  0
 31 58  1  0
 32 59  1  0
 33 60  1  0
 34 61  1  0
 35 62  1  0
 38 63  1  0
 39 64  1  0
M  CHG  3   9  -1  15  -1  26  -1
M  END
>  <UniqueID>  (93) 
84

>  <SMILES>  (93) 
N=C(N)c1ccc(C[N-]C(=O)Cc2c[n-]c(=NC(=O)c3ccc(C(=O)[N-]CCCc4ccccc4)s3)s2)cc1

>  <Energy>  (93) 
123.00264115546388

>  <Genealogy>  (93) 
N=C(N)c1ccc(C[N-]C(=O)Cc2c[n-]c(=NC(=O)c3ccc(C(=O)[N-]CCCc4ccccc4)s3)s2)cc1 (protonated)
N=C(N)c1ccc(C[N-]C(=O)Cc2c[n-]c(=NC(=O)c3ccc(C(=O)[N-]CCCc4ccccc4)s3)s2)cc1 (3D coordinates assigned)
N=C(N)c1ccc(C[N-]C(=O)Cc2c[n-]c(=NC(=O)c3ccc(C(=O)[N-]CCCc4ccccc4)s3)s2)cc1 (optimized conformer: 123.00264115546388 kcal/mol)

>  <smiles>  (93) 
N=C(N)c1ccc(CNC(=O)Cc2c[nH]c(=NC(=O)c3ccc(C(=O)NCCCc4ccccc4)s3)s2)cc1

>  <score_type>  (93) 
oracle

>  <origin>  (93) 
adg

>  <m_score__min__energy>  (93) 
-13.58

>  <m_primary>  (93) 
energy

$$$$
93:0
     RDKit          3D

 40 42  0  0  0  0  0  0  0  0999 V2000
   55.0040   24.8170   44.4210 H   0  0  0  0  0  0  0  0  0  0  0  0
   55.3400   23.9350   44.0530 O   0  0  0  0  0  0  0  0  0  0  0  0
   56.5420   23.3720   44.4770 C   0  0  0  0  0  0  0  0  0  0  0  0
   57.0550   22.2640   43.7870 C   0  0  0  0  0  0  0  0  0  0  0  0
   56.4727   21.8107   42.9713 H   0  0  0  0  0  0  0  0  0  0  0  0
   58.2970   21.7340   44.1280 C   0  0  0  0  0  0  0  0  0  0  0  0
   58.6959   20.8607   43.5911 H   0  0  0  0  0  0  0  0  0  0  0  0
   59.0280   22.3230   45.1570 C   0  0  0  0  0  0  0  0  0  0  0  0
   60.0203   21.9293   45.4222 H   0  0  0  0  0  0  0  0  0  0  0  0
   58.5150   23.3840   45.8330 N   0  0  0  0  0  0  0  0  0  0  0  0
   57.2930   23.9160   45.5540 C   0  0  0  0  0  0  0  0  0  0  0  0
   56.8970   24.9280   46.2770 N   0  0  0  0  0  0  0  0  0  0  0  0
   56.3020   26.1650   45.8560 C   0  0  0  0  0  0  0  0  0  0  0  0
   55.0580   26.3340   45.9750 O   0  0  0  0  0  0  0  0  0  0  0  0
   57.1590   27.2830   45.3960 C   0  0  0  0  0  0  0  0  0  0  0  0
   58.4920   27.0520   45.0110 C   0  0  0  0  0  0  0  0  0  0  0  0
   58.9071   26.0346   45.0623 H   0  0  0  0  0  0  0  0  0  0  0  0
   59.2920   28.1060   44.5640 C   0  0  0  0  0  0  0  0  0  0  0  0
   60.3316   27.9146   44.2599 H   0  0  0  0  0  0  0  0  0  0  0  0
   58.7760   29.4020   44.5020 C   0  0  0  0  0  0  0  0  0  0  0  0
   59.4079   30.2269   44.1410 H   0  0  0  0  0  0  0  0  0  0  0  0
   57.4530   29.6560   44.8990 C   0  0  0  0  0  0  0  0  0  0  0  0
   56.8920   30.9410   44.8340 O   0  0  0  0  0  0  0  0  0  0  0  0
   57.5620   32.1360   45.1330 C   0  0  0  0  0  0  0  0  0  0  0  0
   58.0370   32.3250   46.3910 N   0  0  0  0  0  0  0  0  0  0  0  0
   58.7110   33.4530   46.7460 C   0  0  0  0  0  0  0  0  0  0  0  0
   59.2000   33.5960   48.1570 C   0  0  0  0  0  0  0  0  0  0  0  0
   58.3833   33.3572   48.8541 H   0  0  0  0  0  0  0  0  0  0  0  0
   60.0397   32.9058   48.3258 H   0  0  0  0  0  0  0  0  0  0  0  0
   59.5356   34.6299   48.3258 H   0  0  0  0  0  0  0  0  0  0  0  0
   58.9310   34.4510   45.7740 C   0  0  0  0  0  0  0  0  0  0  0  0
   59.6660   35.7200   46.0900 C   0  0  0  0  0  0  0  0  0  0  0  0
   59.7362   35.8411   47.1811 H   0  0  0  0  0  0  0  0  0  0  0  0
   60.6776   35.6745   45.6603 H   0  0  0  0  0  0  0  0  0  0  0  0
   59.1232   36.5748   45.6603 H   0  0  0  0  0  0  0  0  0  0  0  0
   58.4730   34.2490   44.5100 N   0  0  0  0  0  0  0  0  0  0  0  0
   57.7990   33.1220   44.1650 C   0  0  0  0  0  0  0  0  0  0  0  0
   57.4417   32.9837   43.1339 H   0  0  0  0  0  0  0  0  0  0  0  0
   56.6480   28.5930   45.3260 C   0  0  0  0  0  0  0  0  0  0  0  0
   55.6027   28.7839   45.6105 H   0  0  0  0  0  0  0  0  0  0  0  0
  1  2  1  0
  2  3  1  0
  3  4  2  0
  4  5  1  0
  4  6  1  0
  6  7  1  0
  6  8  2  0
  8  9  1  0
  8 10  1  0
 10 11  1  0
 11 12  2  0
 12 13  1  0
 13 14  2  0
 13 15  1  0
 15 16  2  0
 16 17  1  0
 16 18  1  0
 18 19  1  0
 18 20  2  0
 20 21  1  0
 20 22  1  0
 22 23  1  0
 23 24  1  0
 24 25  2  0
 25 26  1  0
 26 27  1  0
 27 28  1  0
 27 29  1  0
 27 30  1  0
 26 31  2  0
 31 32  1  0
 32 33  1  0
 32 34  1  0
 32 35  1  0
 31 36  1  0
 36 37  2  0
 37 38  1  0
 22 39  2  0
 39 40  1  0
 11  3  1  0
 39 15  1  0
 37 24  1  0
M  CHG  1  10  -1
M  END
>  <UniqueID>  (94) 
85

>  <SMILES>  (94) 
Cc1ncc(Oc2cccc(C(=O)/N=c3/[n-]cccc3O)c2)nc1C

>  <Energy>  (94) 
62.96475881719304

>  <Genealogy>  (94) 
Cc1ncc(Oc2cccc(C(=O)N=c3[n-]cccc3O)c2)nc1C (protonated)
Cc1ncc(Oc2cccc(C(=O)/N=c3/[n-]cccc3O)c2)nc1C (cis-trans isomerization)
Cc1ncc(Oc2cccc(C(=O)/N=c3/[n-]cccc3O)c2)nc1C (3D coordinates assigned)
Cc1ncc(Oc2cccc(C(=O)/N=c3/[n-]cccc3O)c2)nc1C (optimized conformer: 62.96475881719304 kcal/mol)

>  <smiles>  (94) 
Cc1ncc(Oc2cccc(C(=O)N=c3[nH]cccc3O)c2)nc1C

>  <score_type>  (94) 
oracle

>  <origin>  (94) 
adg

>  <m_score__min__energy>  (94) 
-11.18

>  <m_primary>  (94) 
energy

$$$$
94:0
     RDKit          3D

 52 53  0  0  0  0  0  0  0  0999 V2000
   57.7680   27.9980   44.0740 C   0  0  0  0  0  0  0  0  0  0  0  0
   57.0520   28.4280   45.3490 C   0  0  0  0  0  0  0  0  0  0  0  0
   56.6240   29.7840   45.2510 O   0  0  0  0  0  0  0  0  0  0  0  0
   57.3940   30.7970   44.6680 C   0  0  0  0  0  0  0  0  0  0  0  0
   57.2840   31.0530   43.4370 O   0  0  0  0  0  0  0  0  0  0  0  0
   58.3390   31.5670   45.5020 C   0  0  0  0  0  0  0  0  0  0  0  0
   58.1520   32.8670   45.9590 C   0  0  0  0  0  0  0  0  0  0  0  0
   56.9550   33.7460   45.7200 C   0  0  0  0  0  0  0  0  0  0  0  0
   59.2870   33.1990   46.6950 C   0  0  0  0  0  0  0  0  0  0  0  0
   59.5890   34.5150   47.3090 C   0  0  0  0  0  0  0  0  0  0  0  0
   59.9910   35.4710   46.5920 O   0  0  0  0  0  0  0  0  0  0  0  0
   59.4050   34.7050   48.6830 O   0  0  0  0  0  0  0  0  0  0  0  0
   60.1360   33.9950   49.6800 C   0  0  0  0  0  0  0  0  0  0  0  0
   59.2950   32.8820   50.2470 C   0  0  0  0  0  0  0  0  0  0  0  0
   58.5670   33.0900   51.4240 C   0  0  0  0  0  0  0  0  0  0  0  0
   57.8090   32.0560   51.9760 C   0  0  0  0  0  0  0  0  0  0  0  0
   57.7740   30.7910   51.3600 C   0  0  0  0  0  0  0  0  0  0  0  0
   57.0250   29.7260   51.8860 O   0  0  0  0  0  0  0  0  0  0  0  0
   56.2760   29.7880   53.0960 C   0  0  0  0  0  0  0  0  0  0  0  0
   58.5080   30.5720   50.1830 C   0  0  0  0  0  0  0  0  0  0  0  0
   58.4600   29.2990   49.5950 O   0  0  0  0  0  0  0  0  0  0  0  0
   59.5330   28.6980   48.8780 C   0  0  0  0  0  0  0  0  0  0  0  0
   59.2680   31.6220   49.6310 C   0  0  0  0  0  0  0  0  0  0  0  0
   60.0980   32.0660   46.6900 C   0  0  0  0  0  0  0  0  0  0  0  0
   61.4270   31.9370   47.3860 C   0  0  0  0  0  0  0  0  0  0  0  0
   59.5340   31.0940   45.9330 N   0  0  0  0  0  0  0  0  0  0  0  0
   60.1140   29.7840   45.6270 C   0  0  0  0  0  0  0  0  0  0  0  0
   58.6840   27.4479   44.3356 H   0  0  0  0  0  0  0  0  0  0  0  0
   57.1060   27.3479   43.4831 H   0  0  0  0  0  0  0  0  0  0  0  0
   58.0308   28.8878   43.4831 H   0  0  0  0  0  0  0  0  0  0  0  0
   56.1752   27.7826   45.5064 H   0  0  0  0  0  0  0  0  0  0  0  0
   57.7488   28.3363   46.1952 H   0  0  0  0  0  0  0  0  0  0  0  0
   56.5304   34.0578   46.6857 H   0  0  0  0  0  0  0  0  0  0  0  0
   57.2612   34.6354   45.1498 H   0  0  0  0  0  0  0  0  0  0  0  0
   56.1980   33.1876   45.1498 H   0  0  0  0  0  0  0  0  0  0  0  0
   61.0456   33.5703   49.2303 H   0  0  0  0  0  0  0  0  0  0  0  0
   60.4063   34.6890   50.4895 H   0  0  0  0  0  0  0  0  0  0  0  0
   58.5923   34.0732   51.9166 H   0  0  0  0  0  0  0  0  0  0  0  0
   57.2354   32.2309   52.8982 H   0  0  0  0  0  0  0  0  0  0  0  0
   56.9612   29.7313   53.9547 H   0  0  0  0  0  0  0  0  0  0  0  0
   55.7183   30.7354   53.1339 H   0  0  0  0  0  0  0  0  0  0  0  0
   55.5701   28.9452   53.1339 H   0  0  0  0  0  0  0  0  0  0  0  0
   60.2651   28.2880   49.5893 H   0  0  0  0  0  0  0  0  0  0  0  0
   59.1426   27.8872   48.2453 H   0  0  0  0  0  0  0  0  0  0  0  0
   60.0204   29.4544   48.2453 H   0  0  0  0  0  0  0  0  0  0  0  0
   59.8447   31.4525   48.7098 H   0  0  0  0  0  0  0  0  0  0  0  0
   61.2735   31.9519   48.4751 H   0  0  0  0  0  0  0  0  0  0  0  0
   61.9024   30.9885   47.0957 H   0  0  0  0  0  0  0  0  0  0  0  0
   62.0760   32.7764   47.0957 H   0  0  0  0  0  0  0  0  0  0  0  0
   60.3469   29.2580   46.5646 H   0  0  0  0  0  0  0  0  0  0  0  0
   59.3941   29.1916   45.0433 H   0  0  0  0  0  0  0  0  0  0  0  0
   61.0366   29.9188   45.0433 H   0  0  0  0  0  0  0  0  0  0  0  0
  1  2  1  0
  2  3  1  0
  3  4  1  0
  4  5  2  0
  4  6  1  0
  6  7  2  0
  7  8  1  0
  7  9  1  0
  9 10  1  0
 10 11  2  0
 10 12  1  0
 12 13  1  0
 13 14  1  0
 14 15  2  0
 15 16  1  0
 16 17  2  0
 17 18  1  0
 18 19  1  0
 17 20  1  0
 20 21  1  0
 21 22  1  0
 20 23  2  0
  9 24  2  0
 24 25  1  0
 24 26  1  0
 26 27  1  0
 26  6  1  0
 23 14  1  0
  1 28  1  0
  1 29  1  0
  1 30  1  0
  2 31  1  0
  2 32  1  0
  8 33  1  0
  8 34  1  0
  8 35  1  0
 13 36  1  0
 13 37  1  0
 15 38  1  0
 16 39  1  0
 19 40  1  0
 19 41  1  0
 19 42  1  0
 22 43  1  0
 22 44  1  0
 22 45  1  0
 23 46  1  0
 25 47  1  0
 25 48  1  0
 25 49  1  0
 27 50  1  0
 27 51  1  0
 27 52  1  0
M  END
>  <UniqueID>  (95) 
86

>  <SMILES>  (95) 
CCOC(=O)c1c(C)c(C(=O)OCc2ccc(OC)c(OC)c2)c(C)n1C

>  <Energy>  (95) 
75.63988571290916

>  <Genealogy>  (95) 
CCOC(=O)c1c(C)c(C(=O)OCc2ccc(OC)c(OC)c2)c(C)n1C (3D coordinates assigned)
CCOC(=O)c1c(C)c(C(=O)OCc2ccc(OC)c(OC)c2)c(C)n1C (optimized conformer: 75.63988571290916 kcal/mol)

>  <smiles>  (95) 
CCOC(=O)c1c(C)c(C(=O)OCc2ccc(OC)c(OC)c2)c(C)n1C

>  <score_type>  (95) 
oracle

>  <origin>  (95) 
adg

>  <m_score__min__energy>  (95) 
-7.0700000000000003

>  <m_primary>  (95) 
energy

$$$$
95:0
     RDKit          3D

 31 33  0  0  0  0  0  0  0  0999 V2000
   55.4350   26.7100   45.9950 O   0  0  0  0  0  0  0  0  0  0  0  0
   56.6540   26.6030   45.6940 C   0  0  0  0  0  0  0  0  0  0  0  0
   57.3720   27.7690   45.0930 C   0  0  0  0  0  0  0  0  0  0  0  0
   56.2000   29.1090   44.6860 S   0  0  0  0  0  0  0  0  0  0  0  0
   57.2920   30.4260   45.2150 C   0  0  0  0  0  0  0  0  0  0  0  0
   58.4110   30.1300   45.9430 N   0  0  0  0  0  0  0  0  0  0  0  0
   59.2680   31.1070   46.3550 C   0  0  0  0  0  0  0  0  0  0  0  0
   60.2930   30.8100   47.0230 O   0  0  0  0  0  0  0  0  0  0  0  0
   58.9850   32.4320   46.0210 C   0  0  0  0  0  0  0  0  0  0  0  0
   59.7200   33.5810   46.3340 C   0  0  0  0  0  0  0  0  0  0  0  0
   59.1310   34.7420   45.8310 C   0  0  0  0  0  0  0  0  0  0  0  0
   57.7070   34.3400   45.0040 S   0  0  0  0  0  0  0  0  0  0  0  0
   57.8470   32.6950   45.2900 C   0  0  0  0  0  0  0  0  0  0  0  0
   57.0020   31.7170   44.8870 N   0  0  0  0  0  0  0  0  0  0  0  0
   57.3840   25.4070   45.9960 N   0  0  0  0  0  0  0  0  0  0  0  0
   57.0920   24.0840   45.5200 C   0  0  0  0  0  0  0  0  0  0  0  0
   58.0510   23.3130   44.8360 C   0  0  0  0  0  0  0  0  0  0  0  0
   57.7380   22.0210   44.4050 C   0  0  0  0  0  0  0  0  0  0  0  0
   56.4760   21.4820   44.6620 C   0  0  0  0  0  0  0  0  0  0  0  0
   55.5260   22.2310   45.3590 C   0  0  0  0  0  0  0  0  0  0  0  0
   55.8320   23.5290   45.7960 C   0  0  0  0  0  0  0  0  0  0  0  0
   54.8850   24.2730   46.4980 O   0  0  0  0  0  0  0  0  0  0  0  0
   58.1149   28.1451   45.8118 H   0  0  0  0  0  0  0  0  0  0  0  0
   57.8682   27.4401   44.1680 H   0  0  0  0  0  0  0  0  0  0  0  0
   60.6563   33.5703   46.9113 H   0  0  0  0  0  0  0  0  0  0  0  0
   59.5292   35.7602   45.9524 H   0  0  0  0  0  0  0  0  0  0  0  0
   59.0503   23.7290   44.6401 H   0  0  0  0  0  0  0  0  0  0  0  0
   58.4879   21.4272   43.8618 H   0  0  0  0  0  0  0  0  0  0  0  0
   56.2302   20.4674   44.3154 H   0  0  0  0  0  0  0  0  0  0  0  0
   54.5344   21.8023   45.5663 H   0  0  0  0  0  0  0  0  0  0  0  0
   55.0500   25.2420   46.7490 H   0  0  0  0  0  0  0  0  0  0  0  0
  1  2  2  0
  2  3  1  0
  3  4  1  0
  4  5  1  0
  5  6  2  0
  6  7  1  0
  7  8  2  0
  7  9  1  0
  9 10  1  0
 10 11  2  0
 11 12  1  0
 12 13  1  0
 13 14  1  0
  2 15  1  0
 15 16  1  0
 16 17  2  0
 17 18  1  0
 18 19  2  0
 19 20  1  0
 20 21  2  0
 21 22  1  0
 14  5  1  0
 21 16  1  0
 13  9  2  0
  3 23  1  0
  3 24  1  0
 10 25  1  0
 11 26  1  0
 17 27  1  0
 18 28  1  0
 19 29  1  0
 20 30  1  0
 22 31  1  0
M  CHG  2  14  -1  15  -1
M  END
>  <UniqueID>  (96) 
87

>  <SMILES>  (96) 
O=C(CSc1nc(=O)c2ccsc2[n-]1)[N-]c1ccccc1O

>  <Energy>  (96) 
65.81106985199776

>  <Genealogy>  (96) 
O=C(CSc1nc(=O)c2ccsc2[n-]1)[N-]c1ccccc1O (protonated)
O=C(CSc1nc(=O)c2ccsc2[n-]1)[N-]c1ccccc1O (3D coordinates assigned)
O=C(CSc1nc(=O)c2ccsc2[n-]1)[N-]c1ccccc1O (optimized conformer: 65.81106985199776 kcal/mol)

>  <smiles>  (96) 
O=C(CSc1nc(=O)c2ccsc2[nH]1)Nc1ccccc1O

>  <score_type>  (96) 
oracle

>  <origin>  (96) 
adg

>  <m_score__min__energy>  (96) 
-11.84

>  <m_primary>  (96) 
energy

$$$$
96:0
     RDKit          3D

 50 53  0  0  0  0  0  0  0  0999 V2000
   56.3500   30.2090   54.4620 O   0  0  0  0  0  0  0  0  0  0  0  0
   56.0280   29.5350   53.4450 C   0  0  0  0  0  0  0  0  0  0  0  0
   57.0060   29.2420   52.4360 N   0  0  0  0  0  0  0  0  0  0  0  0
   58.3230   29.8760   52.4240 C   0  0  0  0  0  0  0  0  0  0  0  0
   58.7700   30.0830   51.0030 C   0  0  0  0  0  0  0  0  0  0  0  0
   59.6700   29.1910   50.3990 C   0  0  0  0  0  0  0  0  0  0  0  0
   60.1490   29.4430   49.1110 C   0  0  0  0  0  0  0  0  0  0  0  0
   59.7550   30.5960   48.4280 C   0  0  0  0  0  0  0  0  0  0  0  0
   58.8710   31.5080   49.0290 C   0  0  0  0  0  0  0  0  0  0  0  0
   58.4720   32.7730   48.3080 C   0  0  0  0  0  0  0  0  0  0  0  0
   58.9680   32.8490   46.9150 N   0  0  0  0  0  0  0  0  0  0  0  0
   60.0780   33.7930   46.6770 C   0  0  0  0  0  0  0  0  0  0  0  0
   59.5870   35.1270   46.0980 C   0  0  0  0  0  0  0  0  0  0  0  0
   58.8030   34.9080   44.9460 O   0  0  0  0  0  0  0  0  0  0  0  0
   57.6220   34.2310   45.3140 C   0  0  0  0  0  0  0  0  0  0  0  0
   57.9380   32.8280   45.8560 C   0  0  0  0  0  0  0  0  0  0  0  0
   58.3570   31.2270   50.3040 C   0  0  0  0  0  0  0  0  0  0  0  0
   54.6170   29.1340   53.2610 C   0  0  0  0  0  0  0  0  0  0  0  0
   54.2160   27.8840   53.7480 C   0  0  0  0  0  0  0  0  0  0  0  0
   52.8720   27.5160   53.6710 C   0  0  0  0  0  0  0  0  0  0  0  0
   52.4990   26.4030   54.1270 O   0  0  0  0  0  0  0  0  0  0  0  0
   51.9800   28.3330   53.1240 O   0  0  0  0  0  0  0  0  0  0  0  0
   52.3070   29.5190   52.6200 C   0  0  0  0  0  0  0  0  0  0  0  0
   51.3140   30.3170   52.0430 C   0  0  0  0  0  0  0  0  0  0  0  0
   51.6420   31.5520   51.4800 C   0  0  0  0  0  0  0  0  0  0  0  0
   50.6510   32.3410   50.9090 O   0  0  0  0  0  0  0  0  0  0  0  0
   52.9680   31.9930   51.4840 C   0  0  0  0  0  0  0  0  0  0  0  0
   53.9710   31.2070   52.0600 C   0  0  0  0  0  0  0  0  0  0  0  0
   53.6510   29.9700   52.6570 C   0  0  0  0  0  0  0  0  0  0  0  0
   56.7230   28.6890   51.5960 H   0  0  0  0  0  0  0  0  0  0  0  0
   58.2660   30.8483   52.9352 H   0  0  0  0  0  0  0  0  0  0  0  0
   59.0449   29.2288   52.9436 H   0  0  0  0  0  0  0  0  0  0  0  0
   59.9987   28.2919   50.9408 H   0  0  0  0  0  0  0  0  0  0  0  0
   60.8385   28.7313   48.6333 H   0  0  0  0  0  0  0  0  0  0  0  0
   60.1383   30.7908   47.4155 H   0  0  0  0  0  0  0  0  0  0  0  0
   57.3736   32.8293   48.2885 H   0  0  0  0  0  0  0  0  0  0  0  0
   58.9270   33.6111   48.8561 H   0  0  0  0  0  0  0  0  0  0  0  0
   60.5893   33.9873   47.6314 H   0  0  0  0  0  0  0  0  0  0  0  0
   60.7601   33.3363   45.9447 H   0  0  0  0  0  0  0  0  0  0  0  0
   58.9815   35.6485   46.8539 H   0  0  0  0  0  0  0  0  0  0  0  0
   60.4596   35.7377   45.8231 H   0  0  0  0  0  0  0  0  0  0  0  0
   57.1036   34.8093   46.0930 H   0  0  0  0  0  0  0  0  0  0  0  0
   56.9851   34.1275   44.4231 H   0  0  0  0  0  0  0  0  0  0  0  0
   57.0158   32.3937   46.2695 H   0  0  0  0  0  0  0  0  0  0  0  0
   58.3291   32.2277   45.0214 H   0  0  0  0  0  0  0  0  0  0  0  0
   57.6241   31.9094   50.7592 H   0  0  0  0  0  0  0  0  0  0  0  0
   54.9544   27.1975   54.1878 H   0  0  0  0  0  0  0  0  0  0  0  0
   50.2701   29.9703   52.0326 H   0  0  0  0  0  0  0  0  0  0  0  0
   53.2239   32.9627   51.0321 H   0  0  0  0  0  0  0  0  0  0  0  0
   55.0144   31.5552   52.0474 H   0  0  0  0  0  0  0  0  0  0  0  0
  1  2  2  0
  2  3  1  0
  3  4  1  0
  4  5  1  0
  5  6  2  0
  6  7  1  0
  7  8  2  0
  8  9  1  0
  9 10  1  0
 10 11  1  0
 11 12  1  0
 12 13  1  0
 13 14  1  0
 14 15  1  0
 15 16  1  0
  9 17  2  0
  2 18  1  0
 18 19  2  0
 19 20  1  0
 20 21  2  0
 20 22  1  0
 22 23  1  0
 23 24  2  0
 24 25  1  0
 25 26  1  0
 25 27  2  0
 27 28  1  0
 28 29  2  0
 17  5  1  0
 29 18  1  0
 16 11  1  0
 29 23  1  0
  3 30  1  0
  4 31  1  0
  4 32  1  0
  6 33  1  0
  7 34  1  0
  8 35  1  0
 10 36  1  0
 10 37  1  0
 12 38  1  0
 12 39  1  0
 13 40  1  0
 13 41  1  0
 15 42  1  0
 15 43  1  0
 16 44  1  0
 16 45  1  0
 17 46  1  0
 19 47  1  0
 24 48  1  0
 27 49  1  0
 28 50  1  0
M  CHG  1  26  -1
M  END
>  <UniqueID>  (97) 
88

>  <SMILES>  (97) 
O=C(NCc1cccc(CN2CCOCC2)c1)c1cc(=O)oc2cc([O-])ccc12

>  <Energy>  (97) 
68.57615689451686

>  <Genealogy>  (97) 
O=C(NCc1cccc(CN2CCOCC2)c1)c1cc(=O)oc2cc([O-])ccc12 (protonated)
O=C(NCc1cccc(CN2CCOCC2)c1)c1cc(=O)oc2cc([O-])ccc12 (3D coordinates assigned)
O=C(NCc1cccc(CN2CCOCC2)c1)c1cc(=O)oc2cc([O-])ccc12 (nonaromatic ring conformer: 68.57615689451686 kcal/mol)

>  <smiles>  (97) 
O=C(NCc1cccc(CN2CCOCC2)c1)c1cc(=O)oc2cc(O)ccc12

>  <score_type>  (97) 
oracle

>  <origin>  (97) 
adg

>  <m_score__min__energy>  (97) 
-11.84

>  <m_primary>  (97) 
energy

$$$$
