0:0
     RDKit          3D

 54 56  0  0  0  0  0  0  0  0999 V2000
   57.4710   29.8190   52.4010 C   0  0  0  0  0  0  0  0  0  0  0  0
   58.1760   29.3580   51.2540 O   0  0  0  0  0  0  0  0  0  0  0  0
   58.4150   30.1350   50.1090 C   0  0  0  0  0  0  0  0  0  0  0  0
   58.2810   31.5380   50.1050 C   0  0  0  0  0  0  0  0  0  0  0  0
   58.5320   32.2660   48.9370 C   0  0  0  0  0  0  0  0  0  0  0  0
   58.9170   31.6070   47.7590 C   0  0  0  0  0  0  0  0  0  0  0  0
   59.1740   32.3550   46.5600 N   0  0  0  0  0  0  0  0  0  0  0  0
   58.7980   31.8160   45.2490 C   0  0  0  0  0  0  0  0  0  0  0  0
   57.3100   31.7390   45.1350 C   0  0  0  0  0  0  0  0  0  0  0  0
   56.6190   32.7820   45.2850 O   0  0  0  0  0  0  0  0  0  0  0  0
   56.6790   30.4760   44.8920 N   0  0  0  0  0  0  0  0  0  0  0  0
   57.3020   29.3950   44.1380 C   0  0  0  0  0  0  0  0  0  0  0  0
   57.8310   28.3440   45.0710 C   0  0  0  0  0  0  0  0  0  0  0  0
   57.0450   27.4560   45.7830 C   0  0  0  0  0  0  0  0  0  0  0  0
   57.9100   26.6580   46.5070 C   0  0  0  0  0  0  0  0  0  0  0  0
   59.1880   27.0920   46.2050 C   0  0  0  0  0  0  0  0  0  0  0  0
   60.4450   26.5170   46.7830 C   0  0  0  0  0  0  0  0  0  0  0  0
   59.1400   28.1060   45.3110 N   0  0  0  0  0  0  0  0  0  0  0  0
   60.2740   28.8800   44.8060 C   0  0  0  0  0  0  0  0  0  0  0  0
   59.9090   33.9290   46.6580 S   0  0  0  0  0  0  0  0  0  0  0  0
   60.1450   34.4800   45.2790 O   0  0  0  0  0  0  0  0  0  0  0  0
   58.9980   34.8690   47.3980 O   0  0  0  0  0  0  0  0  0  0  0  0
   61.4610   33.7920   47.4800 C   0  0  0  0  0  0  0  0  0  0  0  0
   62.6040   33.4320   46.7470 C   0  0  0  0  0  0  0  0  0  0  0  0
   63.8400   33.3000   47.3920 C   0  0  0  0  0  0  0  0  0  0  0  0
   63.9400   33.5190   48.7700 C   0  0  0  0  0  0  0  0  0  0  0  0
   65.1390   33.3880   49.3940 F   0  0  0  0  0  0  0  0  0  0  0  0
   62.8010   33.8680   49.5070 C   0  0  0  0  0  0  0  0  0  0  0  0
   61.5620   34.0030   48.8640 C   0  0  0  0  0  0  0  0  0  0  0  0
   59.0470   30.2120   47.7630 C   0  0  0  0  0  0  0  0  0  0  0  0
   58.7990   29.4850   48.9320 C   0  0  0  0  0  0  0  0  0  0  0  0
   57.9890   29.4803   53.3104 H   0  0  0  0  0  0  0  0  0  0  0  0
   57.4311   30.9182   52.3896 H   0  0  0  0  0  0  0  0  0  0  0  0
   56.4480   29.4148   52.3896 H   0  0  0  0  0  0  0  0  0  0  0  0
   57.9780   32.0624   51.0233 H   0  0  0  0  0  0  0  0  0  0  0  0
   58.4271   33.3610   48.9418 H   0  0  0  0  0  0  0  0  0  0  0  0
   59.1902   32.4732   44.4589 H   0  0  0  0  0  0  0  0  0  0  0  0
   59.2210   30.8065   45.1391 H   0  0  0  0  0  0  0  0  0  0  0  0
   56.5555   28.9429   43.4684 H   0  0  0  0  0  0  0  0  0  0  0  0
   58.1373   29.8044   43.5508 H   0  0  0  0  0  0  0  0  0  0  0  0
   55.9466   27.3967   45.7745 H   0  0  0  0  0  0  0  0  0  0  0  0
   57.6363   25.8393   47.1888 H   0  0  0  0  0  0  0  0  0  0  0  0
   60.3888   26.5427   47.8813 H   0  0  0  0  0  0  0  0  0  0  0  0
   60.5609   25.4763   46.4461 H   0  0  0  0  0  0  0  0  0  0  0  0
   61.3082   27.1098   46.4461 H   0  0  0  0  0  0  0  0  0  0  0  0
   60.8539   29.2758   45.6528 H   0  0  0  0  0  0  0  0  0  0  0  0
   60.9167   28.2313   44.1928 H   0  0  0  0  0  0  0  0  0  0  0  0
   59.9041   29.7149   44.1928 H   0  0  0  0  0  0  0  0  0  0  0  0
   62.5280   33.2534   45.6643 H   0  0  0  0  0  0  0  0  0  0  0  0
   64.7341   33.0235   46.8139 H   0  0  0  0  0  0  0  0  0  0  0  0
   62.8785   34.0364   50.5913 H   0  0  0  0  0  0  0  0  0  0  0  0
   60.6683   34.2746   49.4450 H   0  0  0  0  0  0  0  0  0  0  0  0
   59.3451   29.6867   46.8437 H   0  0  0  0  0  0  0  0  0  0  0  0
   58.9072   28.3904   48.9253 H   0  0  0  0  0  0  0  0  0  0  0  0
  1  2  1  0
  2  3  1  0
  3  4  2  0
  4  5  1  0
  5  6  2  0
  6  7  1  0
  7  8  1  0
  8  9  1  0
  9 10  2  0
  9 11  1  0
 11 12  1  0
 12 13  1  0
 13 14  2  0
 14 15  1  0
 15 16  2  0
 16 17  1  0
 16 18  1  0
 18 19  1  0
  7 20  1  0
 20 21  2  0
 20 22  2  0
 20 23  1  0
 23 24  2  0
 24 25  1  0
 25 26  2  0
 26 27  1  0
 26 28  1  0
 28 29  2  0
  6 30  1  0
 30 31  2  0
 31  3  1  0
 18 13  1  0
 29 23  1  0
  1 32  1  0
  1 33  1  0
  1 34  1  0
  4 35  1  0
  5 36  1  0
  8 37  1  0
  8 38  1  0
 12 39  1  0
 12 40  1  0
 14 41  1  0
 15 42  1  0
 17 43  1  0
 17 44  1  0
 17 45  1  0
 19 46  1  0
 19 47  1  0
 19 48  1  0
 24 49  1  0
 25 50  1  0
 28 51  1  0
 29 52  1  0
 30 53  1  0
 31 54  1  0
M  CHG  1  11  -1
M  END
>  <UniqueID>  (1) 
1

>  <SMILES>  (1) 
COc1ccc(N(CC(=O)[N-]Cc2ccc(C)n2C)S(=O)(=O)c2ccc(F)cc2)cc1

>  <Energy>  (1) 
80.97638701084576

>  <Genealogy>  (1) 
COc1ccc(N(CC(=O)[N-]Cc2ccc(C)n2C)S(=O)(=O)c2ccc(F)cc2)cc1 (protonated)
COc1ccc(N(CC(=O)[N-]Cc2ccc(C)n2C)S(=O)(=O)c2ccc(F)cc2)cc1 (3D coordinates assigned)
COc1ccc(N(CC(=O)[N-]Cc2ccc(C)n2C)S(=O)(=O)c2ccc(F)cc2)cc1 (optimized conformer: 80.97638701084576 kcal/mol)

>  <smiles>  (1) 
COc1ccc(N(CC(=O)NCc2ccc(C)n2C)S(=O)(=O)c2ccc(F)cc2)cc1

>  <score_type>  (1) 
oracle

>  <origin>  (1) 
adg

>  <m_score__min__energy>  (1) 
-10.48

>  <m_primary>  (1) 
energy

$$$$
1:0
     RDKit          3D

 48 51  0  0  0  0  0  0  0  0999 V2000
   51.3160   22.0100   46.4810 H   0  0  0  0  0  0  0  0  0  0  0  0
   51.9210   22.0980   45.6340 N   0  0  0  0  0  0  0  0  0  0  0  0
   53.0280   22.7680   45.6610 C   0  0  0  0  0  0  0  0  0  0  0  0
   53.5010   23.3510   44.5260 N   0  0  0  0  0  0  0  0  0  0  0  0
   54.6610   24.0590   44.5140 C   0  0  0  0  0  0  0  0  0  0  0  0
   55.0085   24.5230   43.5791 H   0  0  0  0  0  0  0  0  0  0  0  0
   55.4190   24.2020   45.6880 C   0  0  0  0  0  0  0  0  0  0  0  0
   56.6870   24.9690   45.6800 C   0  0  0  0  0  0  0  0  0  0  0  0
   56.6510   26.2910   45.3630 N   0  0  0  0  0  0  0  0  0  0  0  0
   57.7830   27.0360   45.2740 C   0  0  0  0  0  0  0  0  0  0  0  0
   57.7050   28.4270   44.9290 N   0  0  0  0  0  0  0  0  0  0  0  0
   57.0880   28.9160   43.7080 C   0  0  0  0  0  0  0  0  0  0  0  0
   57.6607   28.5858   42.8288 H   0  0  0  0  0  0  0  0  0  0  0  0
   56.0643   28.5324   43.5859 H   0  0  0  0  0  0  0  0  0  0  0  0
   57.1130   30.4360   43.8200 C   0  0  0  0  0  0  0  0  0  0  0  0
   57.3888   30.8883   42.8559 H   0  0  0  0  0  0  0  0  0  0  0  0
   56.1279   30.8418   44.0936 H   0  0  0  0  0  0  0  0  0  0  0  0
   58.1740   30.7500   44.8830 C   0  0  1  0  0  0  0  0  0  0  0  0
   59.1504   30.9808   44.4321 H   0  0  0  0  0  0  0  0  0  0  0  0
   57.8430   32.0200   45.6840 C   0  0  0  0  0  0  0  0  0  0  0  0
   57.7617   31.7643   46.7508 H   0  0  0  0  0  0  0  0  0  0  0  0
   58.6455   32.7566   45.5309 H   0  0  0  0  0  0  0  0  0  0  0  0
   56.6300   32.5730   45.2480 O   0  0  0  0  0  0  0  0  0  0  0  0
   56.8340   33.1100   44.4390 H   0  0  0  0  0  0  0  0  0  0  0  0
   58.2570   29.4900   45.7490 C   0  0  0  0  0  0  0  0  0  0  0  0
   59.3024   29.2709   46.0119 H   0  0  0  0  0  0  0  0  0  0  0  0
   57.7091   29.6053   46.6958 H   0  0  0  0  0  0  0  0  0  0  0  0
   58.9920   26.4520   45.4930 N   0  0  0  0  0  0  0  0  0  0  0  0
   59.0860   25.1380   45.8150 C   0  0  0  0  0  0  0  0  0  0  0  0
   60.0742   24.6826   45.9766 H   0  0  0  0  0  0  0  0  0  0  0  0
   57.9340   24.3620   45.9420 C   0  0  0  0  0  0  0  0  0  0  0  0
   58.0540   23.0210   46.3170 O   0  0  0  0  0  0  0  0  0  0  0  0
   58.0780   21.9590   45.3640 C   0  0  2  0  0  0  0  0  0  0  0  0
   59.0542   21.4908   45.5585 H   0  0  0  0  0  0  0  0  0  0  0  0
   57.7180   22.4480   43.9660 C   0  0  0  0  0  0  0  0  0  0  0  0
   58.4256   22.1353   43.1840 H   0  0  0  0  0  0  0  0  0  0  0  0
   57.6815   23.5246   43.7432 H   0  0  0  0  0  0  0  0  0  0  0  0
   56.4340   21.6220   44.0130 C   0  0  1  0  0  0  0  0  0  0  0  0
   55.4603   22.0932   43.8135 H   0  0  0  0  0  0  0  0  0  0  0  0
   56.4480   20.5740   43.0830 O   0  0  0  0  0  0  0  0  0  0  0  0
   56.9990   19.8550   43.4910 H   0  0  0  0  0  0  0  0  0  0  0  0
   56.7960   21.1350   45.4120 C   0  0  0  0  0  0  0  0  0  0  0  0
   56.9615   20.0497   45.4813 H   0  0  0  0  0  0  0  0  0  0  0  0
   56.0873   21.2542   46.2448 H   0  0  0  0  0  0  0  0  0  0  0  0
   54.9350   23.6190   46.8740 C   0  0  0  0  0  0  0  0  0  0  0  0
   55.6430   23.7330   48.0650 O   0  0  0  0  0  0  0  0  0  0  0  0
   53.7370   22.8980   46.8580 C   0  0  0  0  0  0  0  0  0  0  0  0
   53.3556   22.4366   47.7808 H   0  0  0  0  0  0  0  0  0  0  0  0
  1  2  1  0
  2  3  2  0
  3  4  1  0
  4  5  1  0
  5  6  1  0
  5  7  2  0
  7  8  1  0
  8  9  2  0
  9 10  1  0
 10 11  1  0
 11 12  1  0
 12 13  1  0
 12 14  1  0
 12 15  1  0
 15 16  1  0
 15 17  1  0
 15 18  1  0
 18 19  1  6
 18 20  1  0
 20 21  1  0
 20 22  1  0
 20 23  1  0
 23 24  1  0
 18 25  1  0
 25 26  1  0
 25 27  1  0
 10 28  2  0
 28 29  1  0
 29 30  1  0
 29 31  2  0
 31 32  1  0
 32 33  1  0
 33 34  1  6
 33 35  1  0
 35 36  1  0
 35 37  1  0
 35 38  1  0
 38 39  1  1
 38 40  1  0
 40 41  1  0
 38 42  1  0
 42 43  1  0
 42 44  1  0
  7 45  1  0
 45 46  1  0
 45 47  2  0
 47 48  1  0
 47  3  1  0
 31  8  1  0
 42 33  1  0
 25 11  1  0
M  CHG  2   4  -1  46  -1
M  END
>  <UniqueID>  (2) 
2

>  <SMILES>  (2) 
[H]/N=c1/cc([O-])c(-c2nc(N3CC[C@@H](CO)C3)ncc2OC2CC(O)C2)c[n-]1

>  <Energy>  (2) 
121.06456250806197

>  <Genealogy>  (2) 
N=c1cc([O-])c(-c2nc(N3CCC(CO)C3)ncc2OC2CC(O)C2)c[n-]1 (protonated)
N=c1cc([O-])c(-c2nc(N3CC[C@@H](CO)C3)ncc2OC2CC(O)C2)c[n-]1 (chirality)
[H]/N=c1/cc([O-])c(-c2nc(N3CC[C@@H](CO)C3)ncc2OC2CC(O)C2)c[n-]1 (cis-trans isomerization)
[H]/N=c1/cc([O-])c(-c2nc(N3CC[C@@H](CO)C3)ncc2OC2CC(O)C2)c[n-]1 (3D coordinates assigned)
[H]/N=c1/cc([O-])c(-c2nc(N3CC[C@@H](CO)C3)ncc2OC2CC(O)C2)c[n-]1 (nonaromatic ring conformer: 121.06456250806197 kcal/mol)

>  <smiles>  (2) 
N=c1cc(O)c(-c2nc(N3CCC(CO)C3)ncc2OC2CC(O)C2)c[nH]1

>  <score_type>  (2) 
oracle

>  <origin>  (2) 
adg

>  <m_score__min__energy>  (2) 
-11.85

>  <m_primary>  (2) 
energy

$$$$
2:0
     RDKit          3D

 47 49  0  0  0  0  0  0  0  0999 V2000
   57.0340   24.3360   43.4650 C   0  0  0  0  0  0  0  0  0  0  0  0
   57.7440   24.8900   44.5680 O   0  0  0  0  0  0  0  0  0  0  0  0
   57.8430   26.2640   44.8370 C   0  0  0  0  0  0  0  0  0  0  0  0
   57.3280   26.8430   46.0140 C   0  0  0  0  0  0  0  0  0  0  0  0
   57.4510   28.2170   46.2340 C   0  0  0  0  0  0  0  0  0  0  0  0
   58.0800   29.0350   45.2830 C   0  0  0  0  0  0  0  0  0  0  0  0
   58.2150   30.4470   45.5200 N   0  0  0  0  0  0  0  0  0  0  0  0
   58.8370   31.0140   46.5740 C   0  0  0  0  0  0  0  0  0  0  0  0
   59.3820   30.3700   47.5090 O   0  0  0  0  0  0  0  0  0  0  0  0
   58.8080   32.3890   46.4530 C   0  0  0  0  0  0  0  0  0  0  0  0
   59.4390   33.4000   47.3780 C   0  0  0  0  0  0  0  0  0  0  0  0
   60.6190   32.8470   48.0900 N   0  0  0  0  0  0  0  0  0  0  0  0
   61.6470   32.3800   47.1180 C   0  0  0  0  0  0  0  0  0  0  0  0
   62.6710   33.4640   46.7620 C   0  0  0  0  0  0  0  0  0  0  0  0
   63.7720   33.8410   48.1750 S   0  0  0  0  0  0  0  0  0  0  0  0
   62.5770   33.5000   49.5200 C   0  0  0  0  0  0  0  0  0  0  0  0
   61.1430   33.8180   49.0890 C   0  0  0  0  0  0  0  0  0  0  0  0
   58.1410   32.6140   45.2530 C   0  0  0  0  0  0  0  0  0  0  0  0
   57.8110   33.9500   44.6530 C   0  0  0  0  0  0  0  0  0  0  0  0
   57.7730   31.4200   44.7260 N   0  0  0  0  0  0  0  0  0  0  0  0
   57.0240   31.2240   43.4830 C   0  0  0  0  0  0  0  0  0  0  0  0
   58.6000   28.4570   44.1170 C   0  0  0  0  0  0  0  0  0  0  0  0
   58.4790   27.0830   43.8960 C   0  0  0  0  0  0  0  0  0  0  0  0
   56.2178   23.6992   43.8369 H   0  0  0  0  0  0  0  0  0  0  0  0
   56.6153   25.1485   42.8530 H   0  0  0  0  0  0  0  0  0  0  0  0
   57.7204   23.7323   42.8530 H   0  0  0  0  0  0  0  0  0  0  0  0
   56.8274   26.2108   46.7621 H   0  0  0  0  0  0  0  0  0  0  0  0
   57.0524   28.6604   47.1584 H   0  0  0  0  0  0  0  0  0  0  0  0
   59.7579   34.2710   46.7867 H   0  0  0  0  0  0  0  0  0  0  0  0
   58.6900   33.6819   48.1327 H   0  0  0  0  0  0  0  0  0  0  0  0
   60.3010   31.9980   48.6160 H   0  0  0  0  0  0  0  0  0  0  0  0
   62.1808   31.5240   47.5566 H   0  0  0  0  0  0  0  0  0  0  0  0
   61.1225   32.1056   46.1908 H   0  0  0  0  0  0  0  0  0  0  0  0
   63.2820   33.1142   45.9168 H   0  0  0  0  0  0  0  0  0  0  0  0
   62.1237   34.3809   46.4981 H   0  0  0  0  0  0  0  0  0  0  0  0
   62.6406   32.4365   49.7938 H   0  0  0  0  0  0  0  0  0  0  0  0
   62.8301   34.1405   50.3777 H   0  0  0  0  0  0  0  0  0  0  0  0
   60.4944   33.7948   49.9772 H   0  0  0  0  0  0  0  0  0  0  0  0
   61.1485   34.8119   48.6177 H   0  0  0  0  0  0  0  0  0  0  0  0
   57.6310   34.6787   45.4571 H   0  0  0  0  0  0  0  0  0  0  0  0
   58.6520   34.2905   44.0311 H   0  0  0  0  0  0  0  0  0  0  0  0
   56.9082   33.8597   44.0311 H   0  0  0  0  0  0  0  0  0  0  0  0
   55.9848   30.9521   43.7201 H   0  0  0  0  0  0  0  0  0  0  0  0
   57.0349   32.1552   42.8976 H   0  0  0  0  0  0  0  0  0  0  0  0
   57.4896   30.4175   42.8976 H   0  0  0  0  0  0  0  0  0  0  0  0
   59.1060   29.0886   43.3720 H   0  0  0  0  0  0  0  0  0  0  0  0
   58.8867   26.6407   42.9751 H   0  0  0  0  0  0  0  0  0  0  0  0
  1  2  1  0
  2  3  1  0
  3  4  2  0
  4  5  1  0
  5  6  2  0
  6  7  1  0
  7  8  1  0
  8  9  2  0
  8 10  1  0
 10 11  1  0
 11 12  1  0
 12 13  1  0
 13 14  1  0
 14 15  1  0
 15 16  1  0
 16 17  1  0
 10 18  2  0
 18 19  1  0
 18 20  1  0
 20 21  1  0
  6 22  1  0
 22 23  2  0
 23  3  1  0
 20  7  1  0
 17 12  1  0
  1 24  1  0
  1 25  1  0
  1 26  1  0
  4 27  1  0
  5 28  1  0
 11 29  1  0
 11 30  1  0
 12 31  1  0
 13 32  1  0
 13 33  1  0
 14 34  1  0
 14 35  1  0
 16 36  1  0
 16 37  1  0
 17 38  1  0
 17 39  1  0
 19 40  1  0
 19 41  1  0
 19 42  1  0
 21 43  1  0
 21 44  1  0
 21 45  1  0
 22 46  1  0
 23 47  1  0
M  CHG  1  12   1
M  END
>  <UniqueID>  (3) 
3

>  <SMILES>  (3) 
COc1ccc(-n2c(=O)c(C[NH+]3CCSCC3)c(C)n2C)cc1

>  <Energy>  (3) 
92.89231842225101

>  <Genealogy>  (3) 
COc1ccc(-n2c(=O)c(C[NH+]3CCSCC3)c(C)n2C)cc1 (protonated)
COc1ccc(-n2c(=O)c(C[NH+]3CCSCC3)c(C)n2C)cc1 (3D coordinates assigned)
COc1ccc(-n2c(=O)c(C[NH+]3CCSCC3)c(C)n2C)cc1 (nonaromatic ring conformer: 92.89231842225101 kcal/mol)

>  <smiles>  (3) 
COc1ccc(-n2c(=O)c(CN3CCSCC3)c(C)n2C)cc1

>  <score_type>  (3) 
oracle

>  <origin>  (3) 
adg

>  <m_score__min__energy>  (3) 
-4.9400000000000004

>  <m_primary>  (3) 
energy

$$$$
3:0
     RDKit          3D

 38 39  0  0  0  0  0  0  0  0999 V2000
   60.1580   34.6840   48.8720 N   0  0  0  0  0  0  0  0  0  0  0  0
   59.6290   33.5120   49.4960 C   0  0  0  0  0  0  0  0  0  0  0  0
   59.3210   33.5170   50.8640 C   0  0  0  0  0  0  0  0  0  0  0  0
   58.8040   32.3690   51.4740 C   0  0  0  0  0  0  0  0  0  0  0  0
   58.6050   31.1990   50.7260 C   0  0  0  0  0  0  0  0  0  0  0  0
   58.0510   29.9950   51.3750 C   0  0  0  0  0  0  0  0  0  0  0  0
   58.8190   29.0320   51.6360 O   0  0  0  0  0  0  0  0  0  0  0  0
   56.6610   29.8830   51.7060 N   0  0  0  0  0  0  0  0  0  0  0  0
   55.7600   31.0190   51.8540 C   0  0  0  0  0  0  0  0  0  0  0  0
   54.8510   30.8040   53.0700 C   0  0  0  0  0  0  0  0  0  0  0  0
   54.4440   29.3940   53.2180 N   0  0  0  0  0  0  0  0  0  0  0  0
   52.9880   29.1930   53.1430 C   0  0  0  0  0  0  0  0  0  0  0  0
   52.3360   30.1040   52.1300 C   0  0  0  0  0  0  0  0  0  0  0  0
   52.3470   29.7660   50.7670 C   0  0  0  0  0  0  0  0  0  0  0  0
   51.7850   30.6290   49.8220 C   0  0  0  0  0  0  0  0  0  0  0  0
   51.2070   31.8350   50.2300 C   0  0  0  0  0  0  0  0  0  0  0  0
   50.6480   32.6890   49.2860 O   0  0  0  0  0  0  0  0  0  0  0  0
   51.1960   32.1820   51.5860 C   0  0  0  0  0  0  0  0  0  0  0  0
   50.6300   33.3830   51.9960 O   0  0  0  0  0  0  0  0  0  0  0  0
   51.7580   31.3190   52.5340 C   0  0  0  0  0  0  0  0  0  0  0  0
   58.8900   31.2040   49.3510 C   0  0  0  0  0  0  0  0  0  0  0  0
   59.4070   32.3510   48.7420 C   0  0  0  0  0  0  0  0  0  0  0  0
   59.7050   35.6150   49.0130 H   0  0  0  0  0  0  0  0  0  0  0  0
   61.0070   34.6310   48.2660 H   0  0  0  0  0  0  0  0  0  0  0  0
   59.4865   34.4268   51.4597 H   0  0  0  0  0  0  0  0  0  0  0  0
   58.5525   32.3839   52.5447 H   0  0  0  0  0  0  0  0  0  0  0  0
   56.3494   31.9368   51.9960 H   0  0  0  0  0  0  0  0  0  0  0  0
   55.1413   31.1130   50.9493 H   0  0  0  0  0  0  0  0  0  0  0  0
   55.3922   31.1136   53.9762 H   0  0  0  0  0  0  0  0  0  0  0  0
   53.9414   31.4047   52.9225 H   0  0  0  0  0  0  0  0  0  0  0  0
   54.9310   28.7780   52.5250 H   0  0  0  0  0  0  0  0  0  0  0  0
   52.7890   28.1489   52.8598 H   0  0  0  0  0  0  0  0  0  0  0  0
   52.5640   29.4287   54.1303 H   0  0  0  0  0  0  0  0  0  0  0  0
   52.7999   28.8178   50.4416 H   0  0  0  0  0  0  0  0  0  0  0  0
   51.7975   30.3590   48.7557 H   0  0  0  0  0  0  0  0  0  0  0  0
   51.7470   31.5932   53.5992 H   0  0  0  0  0  0  0  0  0  0  0  0
   58.7055   30.3011   48.7504 H   0  0  0  0  0  0  0  0  0  0  0  0
   59.6406   32.3427   47.6671 H   0  0  0  0  0  0  0  0  0  0  0  0
  1  2  1  0
  2  3  2  0
  3  4  1  0
  4  5  2  0
  5  6  1  0
  6  7  2  0
  6  8  1  0
  8  9  1  0
  9 10  1  0
 10 11  1  0
 11 12  1  0
 12 13  1  0
 13 14  2  0
 14 15  1  0
 15 16  2  0
 16 17  1  0
 16 18  1  0
 18 19  1  0
 18 20  2  0
  5 21  1  0
 21 22  2  0
 22  2  1  0
 20 13  1  0
  1 23  1  0
  1 24  1  0
  3 25  1  0
  4 26  1  0
  9 27  1  0
  9 28  1  0
 10 29  1  0
 10 30  1  0
 11 31  1  0
 12 32  1  0
 12 33  1  0
 14 34  1  0
 15 35  1  0
 20 36  1  0
 21 37  1  0
 22 38  1  0
M  CHG  3   8  -1  17  -1  19  -1
M  END
>  <UniqueID>  (4) 
4

>  <SMILES>  (4) 
Nc1ccc(C(=O)[N-]CCNCc2ccc([O-])c([O-])c2)cc1

>  <Energy>  (4) 
39.394091839360044

>  <Genealogy>  (4) 
Nc1ccc(C(=O)[N-]CCNCc2ccc([O-])c([O-])c2)cc1 (protonated)
Nc1ccc(C(=O)[N-]CCNCc2ccc([O-])c([O-])c2)cc1 (3D coordinates assigned)
Nc1ccc(C(=O)[N-]CCNCc2ccc([O-])c([O-])c2)cc1 (optimized conformer: 39.394091839360044 kcal/mol)

>  <smiles>  (4) 
Nc1ccc(C(=O)NCCNCc2ccc(O)c(O)c2)cc1

>  <score_type>  (4) 
oracle

>  <origin>  (4) 
adg

>  <m_score__min__energy>  (4) 
-16.34

>  <m_primary>  (4) 
energy

$$$$
4:0
     RDKit          3D

 31 32  0  0  0  0  0  0  0  0999 V2000
   54.8400   29.1840   42.5950 H   0  0  0  0  0  0  0  0  0  0  0  0
   54.7870   29.7400   43.4780 N   0  0  0  0  0  0  0  0  0  0  0  0
   55.7640   29.7560   44.3240 C   0  0  0  0  0  0  0  0  0  0  0  0
   56.5240   30.8720   44.4560 N   0  0  0  0  0  0  0  0  0  0  0  0
   57.5510   30.8980   45.3450 C   0  0  0  0  0  0  0  0  0  0  0  0
   58.4060   32.1180   45.4670 C   0  0  0  0  0  0  0  0  0  0  0  0
   59.4433   31.8135   45.6701 H   0  0  0  0  0  0  0  0  0  0  0  0
   58.3527   32.6837   44.5251 H   0  0  0  0  0  0  0  0  0  0  0  0
   57.8160   33.1840   46.8280 S   0  0  0  0  0  0  0  0  0  0  0  0
   58.8530   34.5860   46.3910 C   0  0  0  0  0  0  0  0  0  0  0  0
   59.2600   35.3320   47.2680 O   0  0  0  0  0  0  0  0  0  0  0  0
   59.2360   34.8350   44.9660 C   0  0  0  0  0  0  0  0  0  0  0  0
   60.1578   35.4343   44.9334 H   0  0  0  0  0  0  0  0  0  0  0  0
   59.4054   33.8739   44.4585 H   0  0  0  0  0  0  0  0  0  0  0  0
   58.4263   35.3799   44.4585 H   0  0  0  0  0  0  0  0  0  0  0  0
   57.8190   29.7990   46.0980 N   0  0  0  0  0  0  0  0  0  0  0  0
   57.0700   28.6760   45.9650 C   0  0  0  0  0  0  0  0  0  0  0  0
   57.3340   27.6440   46.7080 N   0  0  0  0  0  0  0  0  0  0  0  0
   57.1910   26.2710   46.3110 C   0  0  0  0  0  0  0  0  0  0  0  0
   58.3460   25.4940   46.1430 C   0  0  0  0  0  0  0  0  0  0  0  0
   59.3351   25.9384   46.3281 H   0  0  0  0  0  0  0  0  0  0  0  0
   58.2490   24.1590   45.7420 C   0  0  0  0  0  0  0  0  0  0  0  0
   59.1591   23.5521   45.6264 H   0  0  0  0  0  0  0  0  0  0  0  0
   56.9970   23.5950   45.4880 C   0  0  0  0  0  0  0  0  0  0  0  0
   56.9211   22.5405   45.1843 H   0  0  0  0  0  0  0  0  0  0  0  0
   55.8410   24.3680   45.6190 C   0  0  0  0  0  0  0  0  0  0  0  0
   54.8570   23.9222   45.4118 H   0  0  0  0  0  0  0  0  0  0  0  0
   55.9310   25.7110   46.0140 C   0  0  0  0  0  0  0  0  0  0  0  0
   54.7770   26.4930   46.0860 O   0  0  0  0  0  0  0  0  0  0  0  0
   54.8140   27.4690   46.3560 H   0  0  0  0  0  0  0  0  0  0  0  0
   56.0350   28.6620   45.0800 N   0  0  0  0  0  0  0  0  0  0  0  0
  1  2  1  0
  2  3  2  0
  3  4  1  0
  4  5  2  0
  5  6  1  0
  6  7  1  0
  6  8  1  0
  6  9  1  0
  9 10  1  0
 10 11  2  0
 10 12  1  0
 12 13  1  0
 12 14  1  0
 12 15  1  0
  5 16  1  0
 16 17  1  0
 17 18  2  0
 18 19  1  0
 19 20  2  0
 20 21  1  0
 20 22  1  0
 22 23  1  0
 22 24  2  0
 24 25  1  0
 24 26  1  0
 26 27  1  0
 26 28  2  0
 28 29  1  0
 29 30  1  0
 17 31  1  0
 31  3  1  0
 28 19  1  0
M  CHG  2  16  -1  31  -1
M  END
>  <UniqueID>  (5) 
5

>  <SMILES>  (5) 
[H]/N=c1/nc(CSC(C)=O)[n-]/c(=N/c2ccccc2O)[n-]1

>  <Energy>  (5) 
31.352465002843214

>  <Genealogy>  (5) 
CC(=O)SCc1nc(=N)[n-]c(=Nc2ccccc2O)[n-]1 (protonated)
[H]/N=c1/nc(CSC(C)=O)[n-]/c(=N/c2ccccc2O)[n-]1 (cis-trans isomerization)
[H]/N=c1/nc(CSC(C)=O)[n-]/c(=N/c2ccccc2O)[n-]1 (3D coordinates assigned)
[H]/N=c1/nc(CSC(C)=O)[n-]/c(=N/c2ccccc2O)[n-]1 (optimized conformer: 31.352465002843214 kcal/mol)

>  <smiles>  (5) 
CC(=O)SCc1nc(=N)[nH]c(=Nc2ccccc2O)[nH]1

>  <score_type>  (5) 
oracle

>  <origin>  (5) 
adg

>  <m_score__min__energy>  (5) 
-11.31

>  <m_primary>  (5) 
energy

$$$$
5:0
     RDKit          3D

 51 54  0  0  0  0  0  0  0  0999 V2000
   58.2870   28.9900   44.8480 H   0  0  0  0  0  0  0  0  0  0  0  0
   59.0360   29.5840   45.1730 O   0  0  0  0  0  0  0  0  0  0  0  0
   58.8010   30.8060   45.8080 C   0  0  0  0  0  0  0  0  0  0  0  0
   59.7730   31.3030   46.6840 C   0  0  0  0  0  0  0  0  0  0  0  0
   60.6922   30.7246   46.8588 H   0  0  0  0  0  0  0  0  0  0  0  0
   59.5910   32.5300   47.3430 C   0  0  0  0  0  0  0  0  0  0  0  0
   60.6380   33.0350   48.2630 C   0  0  0  0  0  0  0  0  0  0  0  0
   60.3470   33.1960   49.5840 N   0  0  0  0  0  0  0  0  0  0  0  0
   61.2660   33.6750   50.4630 C   0  0  0  0  0  0  0  0  0  0  0  0
   60.9460   33.8020   51.7170 N   0  0  0  0  0  0  0  0  0  0  0  0
   59.5790   33.9800   52.2110 C   0  0  1  0  0  0  0  0  0  0  0  0
   59.0619   34.7220   51.5849 H   0  0  0  0  0  0  0  0  0  0  0  0
   58.8110   32.6770   52.1240 C   0  0  0  0  0  0  0  0  0  0  0  0
   57.4020   32.6740   52.0950 C   0  0  0  0  0  0  0  0  0  0  0  0
   56.8511   33.6239   52.1592 H   0  0  0  0  0  0  0  0  0  0  0  0
   56.7010   31.4690   51.9850 C   0  0  0  0  0  0  0  0  0  0  0  0
   55.6012   31.4732   51.9621 H   0  0  0  0  0  0  0  0  0  0  0  0
   57.3970   30.2580   51.9040 C   0  0  0  0  0  0  0  0  0  0  0  0
   56.8446   29.3108   51.8167 H   0  0  0  0  0  0  0  0  0  0  0  0
   58.7940   30.2520   51.9340 C   0  0  0  0  0  0  0  0  0  0  0  0
   59.3396   29.2989   51.8717 H   0  0  0  0  0  0  0  0  0  0  0  0
   59.5010   31.4540   52.0430 C   0  0  0  0  0  0  0  0  0  0  0  0
   60.6007   31.4428   52.0655 H   0  0  0  0  0  0  0  0  0  0  0  0
   59.6190   34.4880   53.6540 C   0  0  0  0  0  0  0  0  0  0  0  0
   59.5518   33.6348   54.3451 H   0  0  0  0  0  0  0  0  0  0  0  0
   60.5623   35.0267   53.8271 H   0  0  0  0  0  0  0  0  0  0  0  0
   58.7716   35.1677   53.8271 H   0  0  0  0  0  0  0  0  0  0  0  0
   62.5090   34.0120   50.0210 N   0  0  0  0  0  0  0  0  0  0  0  0
   62.8480   33.8770   48.7120 C   0  0  0  0  0  0  0  0  0  0  0  0
   64.0030   34.2020   48.3290 O   0  0  0  0  0  0  0  0  0  0  0  0
   61.9170   33.3850   47.7990 C   0  0  0  0  0  0  0  0  0  0  0  0
   62.1784   33.2730   46.7364 H   0  0  0  0  0  0  0  0  0  0  0  0
   58.4230   33.2700   47.0890 C   0  0  0  0  0  0  0  0  0  0  0  0
   58.2768   34.2447   47.5774 H   0  0  0  0  0  0  0  0  0  0  0  0
   57.4450   32.7750   46.2190 C   0  0  0  0  0  0  0  0  0  0  0  0
   56.5383   33.3668   46.0247 H   0  0  0  0  0  0  0  0  0  0  0  0
   57.6110   31.5280   45.5910 C   0  0  0  0  0  0  0  0  0  0  0  0
   56.6170   30.9820   44.7060 N   0  0  0  0  0  0  0  0  0  0  0  0
   56.4810   29.6180   44.2820 C   0  0  0  0  0  0  0  0  0  0  0  0
   56.8440   29.2530   43.1260 O   0  0  0  0  0  0  0  0  0  0  0  0
   55.9790   28.6570   45.2220 N   0  0  0  0  0  0  0  0  0  0  0  0
   56.5190   27.5410   45.6370 C   0  0  0  0  0  0  0  0  0  0  0  0
   57.8750   27.5200   45.7890 N   0  0  0  0  0  0  0  0  0  0  0  0
   58.5470   26.4200   46.2220 C   0  0  0  0  0  0  0  0  0  0  0  0
   59.6416   26.4512   46.3265 H   0  0  0  0  0  0  0  0  0  0  0  0
   57.8510   25.2520   46.5340 C   0  0  0  0  0  0  0  0  0  0  0  0
   58.3922   24.3556   46.8711 H   0  0  0  0  0  0  0  0  0  0  0  0
   56.4620   25.2330   46.4140 C   0  0  0  0  0  0  0  0  0  0  0  0
   55.9031   24.3174   46.6574 H   0  0  0  0  0  0  0  0  0  0  0  0
   55.7770   26.3750   45.9850 C   0  0  0  0  0  0  0  0  0  0  0  0
   54.3870   26.3340   45.9660 O   0  0  0  0  0  0  0  0  0  0  0  0
  1  2  1  0
  2  3  1  0
  3  4  2  0
  4  5  1  0
  4  6  1  0
  6  7  1  0
  7  8  1  0
  8  9  1  0
  9 10  2  3
 10 11  1  0
 11 12  1  6
 11 13  1  0
 13 14  2  0
 14 15  1  0
 14 16  1  0
 16 17  1  0
 16 18  2  0
 18 19  1  0
 18 20  1  0
 20 21  1  0
 20 22  2  0
 22 23  1  0
 11 24  1  0
 24 25  1  0
 24 26  1  0
 24 27  1  0
  9 28  1  0
 28 29  1  0
 29 30  2  0
 29 31  1  0
 31 32  1  0
  6 33  2  0
 33 34  1  0
 33 35  1  0
 35 36  1  0
 35 37  2  0
 37 38  1  0
 38 39  1  0
 39 40  2  0
 39 41  1  0
 41 42  2  0
 42 43  1  0
 43 44  1  0
 44 45  1  0
 44 46  2  0
 46 47  1  0
 46 48  1  0
 48 49  1  0
 48 50  2  0
 50 51  1  0
 37  3  1  0
 50 42  1  0
 31  7  2  0
 22 13  1  0
M  CHG  5   8  -1  28  -1  38  -1  43  -1  51  -1
M  END
>  <UniqueID>  (6) 
6

>  <SMILES>  (6) 
C[C@@H](N=c1[n-]c(-c2ccc([N-]C(=O)/N=c3/[n-]cccc3[O-])c(O)c2)cc(=O)[n-]1)c1ccccc1

>  <Energy>  (6) 
75.93949456986255

>  <Genealogy>  (6) 
CC(N=c1[n-]c(-c2ccc([N-]C(=O)N=c3[n-]cccc3[O-])c(O)c2)cc(=O)[n-]1)c1ccccc1 (protonated)
C[C@@H](N=c1[n-]c(-c2ccc([N-]C(=O)N=c3[n-]cccc3[O-])c(O)c2)cc(=O)[n-]1)c1ccccc1 (chirality)
C[C@@H](N=c1[n-]c(-c2ccc([N-]C(=O)/N=c3/[n-]cccc3[O-])c(O)c2)cc(=O)[n-]1)c1ccccc1 (cis-trans isomerization)
C[C@@H](N=c1[n-]c(-c2ccc([N-]C(=O)/N=c3/[n-]cccc3[O-])c(O)c2)cc(=O)[n-]1)c1ccccc1 (3D coordinates assigned)
C[C@@H](N=c1[n-]c(-c2ccc([N-]C(=O)/N=c3/[n-]cccc3[O-])c(O)c2)cc(=O)[n-]1)c1ccccc1 (optimized conformer: 75.93949456986255 kcal/mol)

>  <smiles>  (6) 
CC(N=c1[nH]c(-c2ccc(NC(=O)N=c3[nH]cccc3O)c(O)c2)cc(=O)[nH]1)c1ccccc1

>  <score_type>  (6) 
oracle

>  <origin>  (6) 
adg

>  <m_score__min__energy>  (6) 
-16.030000000000001

>  <m_primary>  (6) 
energy

$$$$
6:0
     RDKit          3D

 69 72  0  0  0  0  0  0  0  0999 V2000
   63.4220   33.8470   46.4950 C   0  0  0  0  0  0  0  0  0  0  0  0
   63.5690   32.4460   47.0700 C   0  0  0  0  0  0  0  0  0  0  0  0
   64.0550   32.5050   48.4090 O   0  0  0  0  0  0  0  0  0  0  0  0
   63.6410   31.6390   49.4290 C   0  0  0  0  0  0  0  0  0  0  0  0
   62.5280   31.0530   49.3440 O   0  0  0  0  0  0  0  0  0  0  0  0
   64.5310   31.4210   50.5970 C   0  0  0  0  0  0  0  0  0  0  0  0
   64.4820   30.3060   51.3460 C   0  0  0  0  0  0  0  0  0  0  0  0
   65.6040   29.8280   52.0260 O   0  0  0  0  0  0  0  0  0  0  0  0
   66.8100   29.5180   51.3430 C   0  0  0  0  0  0  0  0  0  0  0  0
   65.4550   32.5110   50.9930 C   0  0  0  0  0  0  0  0  0  0  0  0
   66.5990   32.7290   50.2040 C   0  0  0  0  0  0  0  0  0  0  0  0
   67.5070   33.7370   50.5260 C   0  0  0  0  0  0  0  0  0  0  0  0
   67.2840   34.5500   51.6360 C   0  0  0  0  0  0  0  0  0  0  0  0
   66.1510   34.3540   52.4290 C   0  0  0  0  0  0  0  0  0  0  0  0
   65.2290   33.3340   52.1310 C   0  0  0  0  0  0  0  0  0  0  0  0
   64.0120   33.2010   53.0200 C   0  0  0  0  0  0  0  0  0  0  0  0
   62.9780   34.0880   52.5900 O   0  0  0  0  0  0  0  0  0  0  0  0
   62.1730   33.9150   51.4530 C   0  0  0  0  0  0  0  0  0  0  0  0
   61.0310   33.0920   51.4440 C   0  0  0  0  0  0  0  0  0  0  0  0
   60.3030   32.9090   50.2640 C   0  0  0  0  0  0  0  0  0  0  0  0
   60.6820   33.5660   49.0810 C   0  0  0  0  0  0  0  0  0  0  0  0
   59.9230   33.3770   47.8230 C   0  0  0  0  0  0  0  0  0  0  0  0
   58.5480   33.3310   47.6660 C   0  0  0  0  0  0  0  0  0  0  0  0
   58.3240   33.1430   46.3530 N   0  0  0  0  0  0  0  0  0  0  0  0
   57.0270   33.0650   45.6900 C   0  0  0  0  0  0  0  0  0  0  0  0
   56.9850   31.8610   44.8040 C   0  0  0  0  0  0  0  0  0  0  0  0
   55.9220   31.1900   44.7060 O   0  0  0  0  0  0  0  0  0  0  0  0
   58.1750   31.4380   44.1350 N   0  0  0  0  0  0  0  0  0  0  0  0
   58.7080   30.0870   44.2500 C   0  0  0  0  0  0  0  0  0  0  0  0
   59.1010   29.8040   45.6750 C   0  0  0  0  0  0  0  0  0  0  0  0
   60.3990   30.0980   46.1250 C   0  0  0  0  0  0  0  0  0  0  0  0
   60.7810   29.7810   47.4330 C   0  0  0  0  0  0  0  0  0  0  0  0
   59.8750   29.1600   48.2980 C   0  0  0  0  0  0  0  0  0  0  0  0
   60.3610   28.7540   49.9350 Cl  0  0  0  0  0  0  0  0  0  0  0  0
   58.5830   28.8570   47.8550 C   0  0  0  0  0  0  0  0  0  0  0  0
   58.1970   29.1760   46.5490 C   0  0  0  0  0  0  0  0  0  0  0  0
   59.4970   33.0830   45.7440 N   0  0  0  0  0  0  0  0  0  0  0  0
   60.4920   33.2160   46.6080 N   0  0  0  0  0  0  0  0  0  0  0  0
   61.8030   34.4130   49.1040 C   0  0  0  0  0  0  0  0  0  0  0  0
   62.5430   34.5770   50.2780 C   0  0  0  0  0  0  0  0  0  0  0  0
   63.3457   34.5744   47.3166 H   0  0  0  0  0  0  0  0  0  0  0  0
   64.3003   34.0835   45.8763 H   0  0  0  0  0  0  0  0  0  0  0  0
   62.5138   33.8960   45.8763 H   0  0  0  0  0  0  0  0  0  0  0  0
   62.5889   31.9467   47.0622 H   0  0  0  0  0  0  0  0  0  0  0  0
   64.2863   31.8823   46.4554 H   0  0  0  0  0  0  0  0  0  0  0  0
   63.5330   29.7555   51.4254 H   0  0  0  0  0  0  0  0  0  0  0  0
   67.6044   29.3138   52.0760 H   0  0  0  0  0  0  0  0  0  0  0  0
   66.6562   28.6302   50.7120 H   0  0  0  0  0  0  0  0  0  0  0  0
   67.1034   30.3699   50.7120 H   0  0  0  0  0  0  0  0  0  0  0  0
   66.7795   32.0966   49.3223 H   0  0  0  0  0  0  0  0  0  0  0  0
   68.4006   33.8908   49.9032 H   0  0  0  0  0  0  0  0  0  0  0  0
   68.0003   35.3460   51.8875 H   0  0  0  0  0  0  0  0  0  0  0  0
   65.9773   35.0057   53.2980 H   0  0  0  0  0  0  0  0  0  0  0  0
   63.6426   32.1659   52.9752 H   0  0  0  0  0  0  0  0  0  0  0  0
   64.2953   33.4587   54.0512 H   0  0  0  0  0  0  0  0  0  0  0  0
   60.7099   32.5907   52.3690 H   0  0  0  0  0  0  0  0  0  0  0  0
   59.4260   32.2450   50.2619 H   0  0  0  0  0  0  0  0  0  0  0  0
   57.7900   33.4287   48.4572 H   0  0  0  0  0  0  0  0  0  0  0  0
   56.2331   32.9892   46.4476 H   0  0  0  0  0  0  0  0  0  0  0  0
   56.8734   33.9694   45.0829 H   0  0  0  0  0  0  0  0  0  0  0  0
   57.9403   29.3652   43.9344 H   0  0  0  0  0  0  0  0  0  0  0  0
   59.5960   29.9951   43.6073 H   0  0  0  0  0  0  0  0  0  0  0  0
   61.1181   30.5795   45.4460 H   0  0  0  0  0  0  0  0  0  0  0  0
   61.7963   30.0209   47.7816 H   0  0  0  0  0  0  0  0  0  0  0  0
   57.8699   28.3673   48.5345 H   0  0  0  0  0  0  0  0  0  0  0  0
   57.1808   28.9342   46.2042 H   0  0  0  0  0  0  0  0  0  0  0  0
   59.6290   32.9500   44.7160 H   0  0  0  0  0  0  0  0  0  0  0  0
   62.1001   34.9507   48.1915 H   0  0  0  0  0  0  0  0  0  0  0  0
   63.4256   35.2335   50.2779 H   0  0  0  0  0  0  0  0  0  0  0  0
  1  2  1  0
  2  3  1  0
  3  4  1  0
  4  5  2  0
  4  6  1  0
  6  7  2  3
  7  8  1  0
  8  9  1  0
  6 10  1  0
 10 11  2  0
 11 12  1  0
 12 13  2  0
 13 14  1  0
 14 15  2  0
 15 16  1  0
 16 17  1  0
 17 18  1  0
 18 19  2  0
 19 20  1  0
 20 21  2  0
 21 22  1  0
 22 23  2  0
 23 24  1  0
 24 25  1  0
 25 26  1  0
 26 27  2  0
 26 28  1  0
 28 29  1  0
 29 30  1  0
 30 31  2  0
 31 32  1  0
 32 33  2  0
 33 34  1  0
 33 35  1  0
 35 36  2  0
 24 37  1  0
 37 38  2  0
 21 39  1  0
 39 40  2  0
 15 10  1  0
 40 18  1  0
 38 22  1  0
 36 30  1  0
  1 41  1  0
  1 42  1  0
  1 43  1  0
  2 44  1  0
  2 45  1  0
  7 46  1  0
  9 47  1  0
  9 48  1  0
  9 49  1  0
 11 50  1  0
 12 51  1  0
 13 52  1  0
 14 53  1  0
 16 54  1  0
 16 55  1  0
 19 56  1  0
 20 57  1  0
 23 58  1  0
 25 59  1  0
 25 60  1  0
 29 61  1  0
 29 62  1  0
 31 63  1  0
 32 64  1  0
 35 65  1  0
 36 66  1  0
 37 67  1  0
 39 68  1  0
 40 69  1  0
M  CHG  2  28  -1  37   1
M  END
>  <UniqueID>  (7) 
7

>  <SMILES>  (7) 
CCOC(=O)C(=COC)c1ccccc1COc1ccc(-c2cn(CC(=O)[N-]Cc3ccc(Cl)cc3)[nH+]n2)cc1

>  <Energy>  (7) 
103.66488341225211

>  <Genealogy>  (7) 
CCOC(=O)C(=COC)c1ccccc1COc1ccc(-c2cn(CC(=O)[N-]Cc3ccc(Cl)cc3)[nH+]n2)cc1 (protonated)
CCOC(=O)C(=COC)c1ccccc1COc1ccc(-c2cn(CC(=O)[N-]Cc3ccc(Cl)cc3)[nH+]n2)cc1 (3D coordinates assigned)
CCOC(=O)C(=COC)c1ccccc1COc1ccc(-c2cn(CC(=O)[N-]Cc3ccc(Cl)cc3)[nH+]n2)cc1 (optimized conformer: 103.66488341225211 kcal/mol)

>  <smiles>  (7) 
CCOC(=O)C(=COC)c1ccccc1COc1ccc(-c2cn(CC(=O)NCc3ccc(Cl)cc3)nn2)cc1

>  <score_type>  (7) 
oracle

>  <origin>  (7) 
adg

>  <m_score__min__energy>  (7) 
-9.0899999999999999

>  <m_primary>  (7) 
energy

$$$$
7:0
     RDKit          3D

 41 43  0  0  0  0  0  0  0  0999 V2000
   58.9870   27.5730   46.0520 O   0  0  0  0  0  0  0  0  0  0  0  0
   57.8120   28.0290   45.9990 C   0  0  0  0  0  0  0  0  0  0  0  0
   56.7060   27.1980   46.3810 N   0  0  0  0  0  0  0  0  0  0  0  0
   56.4580   25.8500   45.9520 C   0  0  0  0  0  0  0  0  0  0  0  0
   57.5090   24.9540   45.6760 C   0  0  0  0  0  0  0  0  0  0  0  0
   57.2290   23.6560   45.2370 C   0  0  0  0  0  0  0  0  0  0  0  0
   55.9060   23.2480   45.0550 C   0  0  0  0  0  0  0  0  0  0  0  0
   54.8590   24.1380   45.3020 C   0  0  0  0  0  0  0  0  0  0  0  0
   55.1320   25.4380   45.7430 C   0  0  0  0  0  0  0  0  0  0  0  0
   54.0810   26.3180   45.9780 O   0  0  0  0  0  0  0  0  0  0  0  0
   57.5800   29.4440   45.6030 C   0  0  0  0  0  0  0  0  0  0  0  0
   56.3680   29.8420   45.0130 C   0  0  0  0  0  0  0  0  0  0  0  0
   55.3580   28.9180   44.7560 O   0  0  0  0  0  0  0  0  0  0  0  0
   56.1750   31.1390   44.6740 N   0  0  0  0  0  0  0  0  0  0  0  0
   57.1290   32.0810   44.8730 C   0  0  0  0  0  0  0  0  0  0  0  0
   56.8820   33.2730   44.5490 O   0  0  0  0  0  0  0  0  0  0  0  0
   58.3380   31.7350   45.4200 N   0  0  0  0  0  0  0  0  0  0  0  0
   59.3650   32.7710   45.6530 C   0  0  0  0  0  0  0  0  0  0  0  0
   59.3650   33.2000   47.1220 C   0  0  0  0  0  0  0  0  0  0  0  0
   60.7670   33.4650   47.5990 C   0  0  0  0  0  0  0  0  0  0  0  0
   61.8620   33.2050   46.7580 C   0  0  0  0  0  0  0  0  0  0  0  0
   63.1670   33.4200   47.2140 C   0  0  0  0  0  0  0  0  0  0  0  0
   63.3860   33.8870   48.5130 C   0  0  0  0  0  0  0  0  0  0  0  0
   62.3020   34.1350   49.3600 C   0  0  0  0  0  0  0  0  0  0  0  0
   60.9970   33.9200   48.9080 C   0  0  0  0  0  0  0  0  0  0  0  0
   58.5660   30.4370   45.8040 C   0  0  0  0  0  0  0  0  0  0  0  0
   59.6580   30.1280   46.3590 O   0  0  0  0  0  0  0  0  0  0  0  0
   58.5528   25.2759   45.8061 H   0  0  0  0  0  0  0  0  0  0  0  0
   58.0524   22.9552   45.0347 H   0  0  0  0  0  0  0  0  0  0  0  0
   55.6885   22.2242   44.7166 H   0  0  0  0  0  0  0  0  0  0  0  0
   53.8179   23.8170   45.1498 H   0  0  0  0  0  0  0  0  0  0  0  0
   55.1470   28.1780   45.4140 H   0  0  0  0  0  0  0  0  0  0  0  0
   60.3542   32.3658   45.3936 H   0  0  0  0  0  0  0  0  0  0  0  0
   59.1389   33.6457   45.0254 H   0  0  0  0  0  0  0  0  0  0  0  0
   58.7674   34.1172   47.2303 H   0  0  0  0  0  0  0  0  0  0  0  0
   58.9331   32.3892   47.7270 H   0  0  0  0  0  0  0  0  0  0  0  0
   61.6926   32.8311   45.7375 H   0  0  0  0  0  0  0  0  0  0  0  0
   64.0211   33.2214   46.5499 H   0  0  0  0  0  0  0  0  0  0  0  0
   64.4123   34.0596   48.8692 H   0  0  0  0  0  0  0  0  0  0  0  0
   62.4762   34.4997   50.3831 H   0  0  0  0  0  0  0  0  0  0  0  0
   60.1466   34.1078   49.5800 H   0  0  0  0  0  0  0  0  0  0  0  0
  1  2  2  0
  2  3  1  0
  3  4  1  0
  4  5  2  0
  5  6  1  0
  6  7  2  0
  7  8  1  0
  8  9  2  0
  9 10  1  0
  2 11  1  0
 11 12  2  0
 12 13  1  0
 12 14  1  0
 14 15  1  0
 15 16  2  0
 15 17  1  0
 17 18  1  0
 18 19  1  0
 19 20  1  0
 20 21  2  0
 21 22  1  0
 22 23  2  0
 23 24  1  0
 24 25  2  0
 17 26  1  0
 26 27  2  0
  9  4  1  0
 26 11  1  0
 25 20  1  0
  5 28  1  0
  6 29  1  0
  7 30  1  0
  8 31  1  0
 13 32  1  0
 18 33  1  0
 18 34  1  0
 19 35  1  0
 19 36  1  0
 21 37  1  0
 22 38  1  0
 23 39  1  0
 24 40  1  0
 25 41  1  0
M  CHG  3   3  -1  10  -1  14  -1
M  END
>  <UniqueID>  (8) 
8

>  <SMILES>  (8) 
O=C([N-]c1ccccc1[O-])c1c(O)[n-]c(=O)n(CCc2ccccc2)c1=O

>  <Energy>  (8) 
53.396729615083515

>  <Genealogy>  (8) 
O=C([N-]c1ccccc1[O-])c1c(O)[n-]c(=O)n(CCc2ccccc2)c1=O (protonated)
O=C([N-]c1ccccc1[O-])c1c(O)[n-]c(=O)n(CCc2ccccc2)c1=O (3D coordinates assigned)
O=C([N-]c1ccccc1[O-])c1c(O)[n-]c(=O)n(CCc2ccccc2)c1=O (optimized conformer: 53.396729615083515 kcal/mol)

>  <smiles>  (8) 
O=C(Nc1ccccc1O)c1c(O)[nH]c(=O)n(CCc2ccccc2)c1=O

>  <score_type>  (8) 
oracle

>  <origin>  (8) 
adg

>  <m_score__min__energy>  (8) 
-15.68

>  <m_primary>  (8) 
energy

$$$$
8:0
     RDKit          3D

 54 57  0  0  1  0  0  0  0  0999 V2000
   65.6500   31.9670   50.3170 C   0  0  0  0  0  0  0  0  0  0  0  0
   63.9190   31.5950   50.3080 S   0  0  0  0  0  0  0  0  0  0  0  0
   63.2380   32.5320   51.2640 O   0  0  0  0  0  0  0  0  0  0  0  0
   63.6470   30.2030   50.8040 O   0  0  0  0  0  0  0  0  0  0  0  0
   63.3000   31.8530   48.7330 N   0  0  0  0  0  0  0  0  0  0  0  0
   61.8420   31.8330   48.8380 C   0  0  0  0  0  0  0  0  0  0  0  0
   61.3270   32.1210   47.4250 C   0  0  0  0  0  0  0  0  0  0  0  0
   61.7300   33.5340   47.1240 C   0  0  0  0  0  0  0  0  0  0  0  0
   60.9520   34.2130   46.0550 C   0  0  0  0  0  0  0  0  0  0  0  0
   59.5240   33.9050   46.1360 C   0  0  0  0  0  0  0  0  0  0  0  0
   58.8720   33.1120   45.1810 C   0  0  0  0  0  0  0  0  0  0  0  0
   57.5590   32.9890   45.5290 C   0  0  0  0  0  0  0  0  0  0  0  0
   56.6450   32.3410   44.9050 N   0  0  0  0  0  0  0  0  0  0  0  0
   56.8770   30.7440   44.3430 S   0  0  0  0  0  0  0  0  0  0  0  0
   55.5360   30.0430   44.5160 O   0  0  0  0  0  0  0  0  0  0  0  0
   57.1710   30.6550   42.8730 O   0  0  0  0  0  0  0  0  0  0  0  0
   58.0240   29.8320   45.3080 C   0  0  0  0  0  0  0  0  0  0  0  0
   58.8300   28.8480   44.7650 C   0  0  0  0  0  0  0  0  0  0  0  0
   59.7240   28.1560   45.5850 C   0  0  0  0  0  0  0  0  0  0  0  0
   59.8280   28.4260   46.9280 C   0  0  0  0  0  0  0  0  0  0  0  0
   60.6930   27.7740   47.7790 C   0  0  0  0  0  0  0  0  0  0  0  0
   60.7420   28.1040   49.1360 C   0  0  0  0  0  0  0  0  0  0  0  0
   59.9330   29.0880   49.6670 C   0  0  0  0  0  0  0  0  0  0  0  0
   59.0610   29.7470   48.8140 C   0  0  0  0  0  0  0  0  0  0  0  0
   59.0290   29.4060   47.4780 C   0  0  0  0  0  0  0  0  0  0  0  0
   58.1580   30.0750   46.6630 C   0  0  0  0  0  0  0  0  0  0  0  0
   57.3990   33.6820   46.6590 N   0  0  0  0  0  0  0  0  0  0  0  0
   58.5690   34.2250   47.0170 N   0  0  0  0  0  0  0  0  0  0  0  0
   63.2270   33.5180   46.9030 C   0  0  0  0  0  0  0  0  0  0  0  0
   63.8210   33.0920   48.2510 C   0  0  0  0  0  0  0  0  0  0  0  0
   66.0033   32.0429   51.3559 H   0  0  0  0  0  0  0  0  0  0  0  0
   66.1998   31.1665   49.8003 H   0  0  0  0  0  0  0  0  0  0  0  0
   65.8224   32.9227   49.8003 H   0  0  0  0  0  0  0  0  0  0  0  0
   61.4946   30.8471   49.1805 H   0  0  0  0  0  0  0  0  0  0  0  0
   61.4747   32.5721   49.5652 H   0  0  0  0  0  0  0  0  0  0  0  0
   61.7847   31.4297   46.7021 H   0  0  0  0  0  0  0  0  0  0  0  0
   60.2374   31.9870   47.3558 H   0  0  0  0  0  0  0  0  0  0  0  0
   61.4756   34.1739   47.9818 H   0  0  0  0  0  0  0  0  0  0  0  0
   61.0869   35.3002   46.1538 H   0  0  0  0  0  0  0  0  0  0  0  0
   61.3226   33.8524   45.0841 H   0  0  0  0  0  0  0  0  0  0  0  0
   59.3431   32.6620   44.2947 H   0  0  0  0  0  0  0  0  0  0  0  0
   58.7672   28.6116   43.6925 H   0  0  0  0  0  0  0  0  0  0  0  0
   60.3610   27.3750   45.1443 H   0  0  0  0  0  0  0  0  0  0  0  0
   61.3519   26.9855   47.3864 H   0  0  0  0  0  0  0  0  0  0  0  0
   61.4405   27.5679   49.7953 H   0  0  0  0  0  0  0  0  0  0  0  0
   59.9787   29.3421   50.7363 H   0  0  0  0  0  0  0  0  0  0  0  0
   58.3993   30.5363   49.2001 H   0  0  0  0  0  0  0  0  0  0  0  0
   57.5251   30.8542   47.1128 H   0  0  0  0  0  0  0  0  0  0  0  0
   56.4940   33.7650   47.1570 H   0  0  0  0  0  0  0  0  0  0  0  0
   58.6600   34.8070   47.8550 H   0  0  0  0  0  0  0  0  0  0  0  0
   63.4944   32.7964   46.1170 H   0  0  0  0  0  0  0  0  0  0  0  0
   63.6072   34.4963   46.5739 H   0  0  0  0  0  0  0  0  0  0  0  0
   64.9103   32.9913   48.1360 H   0  0  0  0  0  0  0  0  0  0  0  0
   63.5507   33.8658   48.9846 H   0  0  0  0  0  0  0  0  0  0  0  0
  1  2  1  0
  2  3  2  0
  2  4  2  0
  2  5  1  0
  5  6  1  0
  6  7  1  0
  7  8  1  0
  8  9  1  0
  9 10  1  0
 10 11  2  0
 11 12  1  0
 12 13  2  0
 13 14  1  0
 14 15  2  0
 14 16  2  0
 14 17  1  0
 17 18  2  0
 18 19  1  0
 19 20  2  0
 20 21  1  0
 21 22  2  0
 22 23  1  0
 23 24  2  0
 24 25  1  0
 25 26  2  0
 12 27  1  0
 27 28  1  0
  8 29  1  0
 29 30  1  0
 30  5  1  0
 28 10  1  0
 26 17  1  0
 25 20  1  0
  1 31  1  0
  1 32  1  0
  1 33  1  0
  6 34  1  0
  6 35  1  0
  7 36  1  0
  7 37  1  0
  8 38  1  0
  9 39  1  0
  9 40  1  0
 11 41  1  0
 18 42  1  0
 19 43  1  0
 21 44  1  0
 22 45  1  0
 23 46  1  0
 24 47  1  0
 26 48  1  0
 27 49  1  0
 28 50  1  0
 29 51  1  0
 29 52  1  0
 30 53  1  0
 30 54  1  0
M  END
>  <smiles>  (9) 
CS(=O)(=O)N1CCC(Cc2cc(=NS(=O)(=O)c3ccc4ccccc4c3)[nH][nH]2)CC1

>  <score_type>  (9) 
oracle

>  <origin>  (9) 
adg

>  <m_score__min__energy>  (9) 
-10.48

>  <m_primary>  (9) 
energy

$$$$
9:0
     RDKit          3D

 45 49  0  0  0  0  0  0  0  0999 V2000
   57.3730   28.2030   44.7070 O   0  0  0  0  0  0  0  0  0  0  0  0
   57.9700   28.9130   45.5590 C   0  0  0  0  0  0  0  0  0  0  0  0
   57.8660   30.3300   45.5360 C   0  0  0  0  0  0  0  0  0  0  0  0
   58.5780   31.0650   46.5110 C   0  0  0  0  0  0  0  0  0  0  0  0
   59.3020   30.4200   47.4640 N   0  0  0  0  0  0  0  0  0  0  0  0
   59.4170   29.0720   47.5040 C   0  0  0  0  0  0  0  0  0  0  0  0
   60.1950   28.4710   48.4990 C   0  0  0  0  0  0  0  0  0  0  0  0
   60.3230   27.0810   48.5460 C   0  0  0  0  0  0  0  0  0  0  0  0
   59.6720   26.2870   47.5990 C   0  0  0  0  0  0  0  0  0  0  0  0
   58.8900   26.8780   46.6020 C   0  0  0  0  0  0  0  0  0  0  0  0
   58.7550   28.2800   46.5440 C   0  0  0  0  0  0  0  0  0  0  0  0
   58.4570   32.5760   46.5450 C   0  0  1  0  0  0  0  0  0  0  0  0
   59.4950   33.2240   47.4320 C   0  0  0  0  0  0  0  0  0  0  0  0
   59.2700   34.2530   48.3420 C   0  0  0  0  0  0  0  0  0  0  0  0
   60.4250   34.6090   48.9520 N   0  0  0  0  0  0  0  0  0  0  0  0
   61.3790   33.8170   48.4320 C   0  0  0  0  0  0  0  0  0  0  0  0
   62.7360   33.8120   48.7510 C   0  0  0  0  0  0  0  0  0  0  0  0
   63.5650   32.8930   48.0820 C   0  0  0  0  0  0  0  0  0  0  0  0
   63.0260   32.0100   47.1200 C   0  0  0  0  0  0  0  0  0  0  0  0
   61.6530   32.0390   46.8180 C   0  0  0  0  0  0  0  0  0  0  0  0
   60.8540   32.9610   47.4980 C   0  0  0  0  0  0  0  0  0  0  0  0
   58.4990   33.1960   45.1270 C   0  0  0  0  0  0  0  0  0  0  0  0
   57.8890   32.3100   44.0160 C   0  0  0  0  0  0  0  0  0  0  0  0
   57.0170   31.1580   44.5580 C   0  0  1  0  0  0  0  0  0  0  0  0
   56.3670   30.4080   43.3730 C   0  0  0  0  0  0  0  0  0  0  0  0
   55.3520   29.5480   43.8180 O   0  0  0  0  0  0  0  0  0  0  0  0
   60.7073   29.0947   49.2464 H   0  0  0  0  0  0  0  0  0  0  0  0
   60.9366   26.6114   49.3290 H   0  0  0  0  0  0  0  0  0  0  0  0
   59.7750   25.1925   47.6378 H   0  0  0  0  0  0  0  0  0  0  0  0
   58.3784   26.2469   45.8604 H   0  0  0  0  0  0  0  0  0  0  0  0
   57.4694   32.7842   46.9823 H   0  0  0  0  0  0  0  0  0  0  0  0
   58.2902   34.7129   48.5382 H   0  0  0  0  0  0  0  0  0  0  0  0
   60.5450   35.3500   49.6760 H   0  0  0  0  0  0  0  0  0  0  0  0
   63.1454   34.5042   49.5015 H   0  0  0  0  0  0  0  0  0  0  0  0
   64.6407   32.8618   48.3097 H   0  0  0  0  0  0  0  0  0  0  0  0
   63.6843   31.2955   46.6041 H   0  0  0  0  0  0  0  0  0  0  0  0
   61.2219   31.3573   46.0701 H   0  0  0  0  0  0  0  0  0  0  0  0
   57.9439   34.1454   45.1516 H   0  0  0  0  0  0  0  0  0  0  0  0
   59.5622   33.3227   44.8747 H   0  0  0  0  0  0  0  0  0  0  0  0
   57.2656   32.9437   43.3681 H   0  0  0  0  0  0  0  0  0  0  0  0
   58.7271   31.8526   43.4697 H   0  0  0  0  0  0  0  0  0  0  0  0
   56.1570   31.5002   45.1524 H   0  0  0  0  0  0  0  0  0  0  0  0
   55.9366   31.1417   42.6755 H   0  0  0  0  0  0  0  0  0  0  0  0
   57.1404   29.8074   42.8719 H   0  0  0  0  0  0  0  0  0  0  0  0
   55.6950   28.6220   43.7180 H   0  0  0  0  0  0  0  0  0  0  0  0
  1  2  2  0
  2  3  1  0
  3  4  2  0
  4  5  1  0
  5  6  1  0
  6  7  2  0
  7  8  1  0
  8  9  2  0
  9 10  1  0
 10 11  2  0
  4 12  1  0
 12 13  1  0
 13 14  2  0
 14 15  1  0
 15 16  1  0
 16 17  2  0
 17 18  1  0
 18 19  2  0
 19 20  1  0
 20 21  2  0
 12 22  1  0
 22 23  1  0
 23 24  1  0
 24 25  1  0
 25 26  1  0
 11  2  1  0
 21 13  1  0
 24  3  1  0
 11  6  1  0
 21 16  1  0
  7 27  1  0
  8 28  1  0
  9 29  1  0
 10 30  1  0
 12 31  1  1
 14 32  1  0
 15 33  1  0
 17 34  1  0
 18 35  1  0
 19 36  1  0
 20 37  1  0
 22 38  1  0
 22 39  1  0
 23 40  1  0
 23 41  1  0
 24 42  1  1
 25 43  1  0
 25 44  1  0
 26 45  1  0
M  CHG  1   5  -1
M  END
>  <UniqueID>  (10) 
9

>  <SMILES>  (10) 
O=c1c2c([n-]c3ccccc13)[C@@H](c1c[nH]c3ccccc13)CC[C@H]2CO

>  <Energy>  (10) 
100.69409467702255

>  <Genealogy>  (10) 
O=c1c2c([n-]c3ccccc13)C(c1c[nH]c3ccccc13)CCC2CO (protonated)
O=c1c2c([n-]c3ccccc13)[C@@H](c1c[nH]c3ccccc13)CC[C@H]2CO (chirality)
O=c1c2c([n-]c3ccccc13)[C@@H](c1c[nH]c3ccccc13)CC[C@H]2CO (3D coordinates assigned)
O=c1c2c([n-]c3ccccc13)[C@@H](c1c[nH]c3ccccc13)CC[C@H]2CO (nonaromatic ring conformer: 100.69409467702255 kcal/mol)

>  <smiles>  (10) 
O=c1c2c([nH]c3ccccc13)C(c1c[nH]c3ccccc13)CCC2CO

>  <score_type>  (10) 
oracle

>  <origin>  (10) 
adg

>  <m_score__min__energy>  (10) 
-9.4700000000000006

>  <m_primary>  (10) 
energy

$$$$
10:0
     RDKit          3D

 63 66  0  0  0  0  0  0  0  0999 V2000
   55.3660   29.1380   52.7240 C   0  0  0  0  0  0  0  0  0  0  0  0
   56.4900   30.1140   52.5720 C   0  0  0  0  0  0  0  0  0  0  0  0
   56.9700   30.8190   53.6780 C   0  0  0  0  0  0  0  0  0  0  0  0
   57.9980   31.7600   53.5170 C   0  0  0  0  0  0  0  0  0  0  0  0
   58.4790   32.5210   54.7250 C   0  0  0  0  0  0  0  0  0  0  0  0
   58.5610   31.9530   52.2310 C   0  0  0  0  0  0  0  0  0  0  0  0
   59.6880   32.8840   52.0050 C   0  0  0  0  0  0  0  0  0  0  0  0
   60.0730   33.6330   52.9430 O   0  0  0  0  0  0  0  0  0  0  0  0
   60.3200   32.9580   50.7210 N   0  0  0  0  0  0  0  0  0  0  0  0
   61.5010   33.7870   50.4870 C   0  0  0  0  0  0  0  0  0  0  0  0
   61.9130   33.7110   49.0360 C   0  0  0  0  0  0  0  0  0  0  0  0
   63.2020   33.2430   48.7280 C   0  0  0  0  0  0  0  0  0  0  0  0
   63.6200   33.1240   47.4030 C   0  0  0  0  0  0  0  0  0  0  0  0
   62.7570   33.4640   46.3660 C   0  0  0  0  0  0  0  0  0  0  0  0
   61.4650   33.9110   46.6500 C   0  0  0  0  0  0  0  0  0  0  0  0
   61.0190   34.0230   47.9780 C   0  0  0  0  0  0  0  0  0  0  0  0
   59.6170   34.5230   48.2320 C   0  0  0  0  0  0  0  0  0  0  0  0
   58.6850   33.4010   48.2580 N   0  0  0  0  0  0  0  0  0  0  0  0
   58.0440   31.2200   51.1460 C   0  0  0  0  0  0  0  0  0  0  0  0
   58.5740   31.4010   49.8600 O   0  0  0  0  0  0  0  0  0  0  0  0
   59.0720   30.3730   49.0460 C   0  0  0  0  0  0  0  0  0  0  0  0
   60.1200   29.5810   49.5260 C   0  0  0  0  0  0  0  0  0  0  0  0
   60.6410   28.5470   48.7420 C   0  0  0  0  0  0  0  0  0  0  0  0
   60.0940   28.2780   47.4830 C   0  0  0  0  0  0  0  0  0  0  0  0
   59.0100   29.0250   47.0100 C   0  0  0  0  0  0  0  0  0  0  0  0
   58.4690   28.7280   45.7150 N   0  0  0  0  0  0  0  0  0  0  0  0
   57.2160   28.0790   45.4440 C   0  0  0  0  0  0  0  0  0  0  0  0
   56.1950   28.7930   45.2550 O   0  0  0  0  0  0  0  0  0  0  0  0
   57.1010   26.5750   45.3330 C   0  0  1  0  0  0  0  0  0  0  0  0
   58.3090   25.8520   45.9580 C   0  0  0  0  0  0  0  0  0  0  0  0
   57.8020   25.1280   47.2180 C   0  0  0  0  0  0  0  0  0  0  0  0
   56.3590   25.2380   47.2070 N   0  0  0  0  0  0  0  0  0  0  0  0
   55.9690   26.0710   46.1380 C   0  0  0  0  0  0  0  0  0  0  0  0
   54.7630   26.3500   45.9060 O   0  0  0  0  0  0  0  0  0  0  0  0
   58.5200   30.0910   47.7830 C   0  0  0  0  0  0  0  0  0  0  0  0
   57.0240   30.3420   51.3460 N   0  0  0  0  0  0  0  0  0  0  0  0
   55.1701   28.9679   53.7930 H   0  0  0  0  0  0  0  0  0  0  0  0
   54.4619   29.5425   52.2454 H   0  0  0  0  0  0  0  0  0  0  0  0
   55.6397   28.1861   52.2454 H   0  0  0  0  0  0  0  0  0  0  0  0
   56.5422   30.6365   54.6748 H   0  0  0  0  0  0  0  0  0  0  0  0
   58.1518   32.0033   55.6387 H   0  0  0  0  0  0  0  0  0  0  0  0
   59.5774   32.5778   54.7091 H   0  0  0  0  0  0  0  0  0  0  0  0
   58.0590   33.5375   54.7091 H   0  0  0  0  0  0  0  0  0  0  0  0
   59.8420   32.5130   49.9060 H   0  0  0  0  0  0  0  0  0  0  0  0
   61.2689   34.8309   50.7445 H   0  0  0  0  0  0  0  0  0  0  0  0
   62.3269   33.4200   51.1141 H   0  0  0  0  0  0  0  0  0  0  0  0
   63.8891   32.9674   49.5416 H   0  0  0  0  0  0  0  0  0  0  0  0
   64.6335   32.7608   47.1773 H   0  0  0  0  0  0  0  0  0  0  0  0
   63.0927   33.3806   45.3218 H   0  0  0  0  0  0  0  0  0  0  0  0
   60.7886   34.1785   45.8249 H   0  0  0  0  0  0  0  0  0  0  0  0
   59.5860   35.0450   49.1998 H   0  0  0  0  0  0  0  0  0  0  0  0
   59.3283   35.2141   47.4264 H   0  0  0  0  0  0  0  0  0  0  0  0
   59.2320   32.5190   48.1270 H   0  0  0  0  0  0  0  0  0  0  0  0
   58.2640   33.3530   49.2150 H   0  0  0  0  0  0  0  0  0  0  0  0
   60.5367   29.7725   50.5258 H   0  0  0  0  0  0  0  0  0  0  0  0
   61.4820   27.9444   49.1157 H   0  0  0  0  0  0  0  0  0  0  0  0
   60.5183   27.4753   46.8620 H   0  0  0  0  0  0  0  0  0  0  0  0
   57.0018   26.3813   44.2547 H   0  0  0  0  0  0  0  0  0  0  0  0
   58.7227   25.1235   45.2452 H   0  0  0  0  0  0  0  0  0  0  0  0
   59.1048   26.5677   46.2117 H   0  0  0  0  0  0  0  0  0  0  0  0
   58.1020   24.0700   47.1941 H   0  0  0  0  0  0  0  0  0  0  0  0
   58.2265   25.5745   48.1293 H   0  0  0  0  0  0  0  0  0  0  0  0
   57.6972   30.7108   47.3972 H   0  0  0  0  0  0  0  0  0  0  0  0
  1  2  1  0
  2  3  2  0
  3  4  1  0
  4  5  1  0
  4  6  2  0
  6  7  1  0
  7  8  2  0
  7  9  1  0
  9 10  1  0
 10 11  1  0
 11 12  2  0
 12 13  1  0
 13 14  2  0
 14 15  1  0
 15 16  2  0
 16 17  1  0
 17 18  1  0
  6 19  1  0
 19 20  1  0
 20 21  1  0
 21 22  2  0
 22 23  1  0
 23 24  2  0
 24 25  1  0
 25 26  1  0
 26 27  1  0
 27 28  2  0
 27 29  1  0
 29 30  1  0
 30 31  1  0
 31 32  1  0
 32 33  1  0
 33 34  2  0
 25 35  2  0
 19 36  2  0
 36  2  1  0
 16 11  1  0
 35 21  1  0
 33 29  1  0
  1 37  1  0
  1 38  1  0
  1 39  1  0
  3 40  1  0
  5 41  1  0
  5 42  1  0
  5 43  1  0
  9 44  1  0
 10 45  1  0
 10 46  1  0
 12 47  1  0
 13 48  1  0
 14 49  1  0
 15 50  1  0
 17 51  1  0
 17 52  1  0
 18 53  1  0
 18 54  1  0
 22 55  1  0
 23 56  1  0
 24 57  1  0
 29 58  1  6
 30 59  1  0
 30 60  1  0
 31 61  1  0
 31 62  1  0
 35 63  1  0
M  CHG  2  26  -1  32  -1
M  END
>  <UniqueID>  (11) 
10

>  <SMILES>  (11) 
Cc1cc(C)c(C(=O)NCc2ccccc2CN)c(Oc2cccc([N-]C(=O)[C@H]3CC[N-]C3=O)c2)n1

>  <Energy>  (11) 
85.3778361476981

>  <Genealogy>  (11) 
Cc1cc(C)c(C(=O)NCc2ccccc2CN)c(Oc2cccc([N-]C(=O)C3CC[N-]C3=O)c2)n1 (protonated)
Cc1cc(C)c(C(=O)NCc2ccccc2CN)c(Oc2cccc([N-]C(=O)[C@H]3CC[N-]C3=O)c2)n1 (chirality)
Cc1cc(C)c(C(=O)NCc2ccccc2CN)c(Oc2cccc([N-]C(=O)[C@H]3CC[N-]C3=O)c2)n1 (3D coordinates assigned)
Cc1cc(C)c(C(=O)NCc2ccccc2CN)c(Oc2cccc([N-]C(=O)[C@H]3CC[N-]C3=O)c2)n1 (nonaromatic ring conformer: 85.3778361476981 kcal/mol)

>  <smiles>  (11) 
Cc1cc(C)c(C(=O)NCc2ccccc2CN)c(Oc2cccc(NC(=O)C3CCNC3=O)c2)n1

>  <score_type>  (11) 
oracle

>  <origin>  (11) 
adg

>  <m_score__min__energy>  (11) 
-12.35

>  <m_primary>  (11) 
energy

$$$$
11:0
     RDKit          3D

 49 51  0  0  0  0  0  0  0  0999 V2000
   57.6440   32.2040   42.9970 O   0  0  0  0  0  0  0  0  0  0  0  0
   57.1190   31.5400   43.9290 C   0  0  0  0  0  0  0  0  0  0  0  0
   56.2370   30.3780   43.6020 C   0  0  0  0  0  0  0  0  0  0  0  0
   55.9260   29.6550   44.8330 N   0  0  0  0  0  0  0  0  0  0  0  0
   56.9910   28.2970   45.0120 S   0  0  0  0  0  0  0  0  0  0  0  0
   57.4070   27.8070   43.6550 O   0  0  0  0  0  0  0  0  0  0  0  0
   56.2830   27.1900   45.7430 O   0  0  0  0  0  0  0  0  0  0  0  0
   58.4170   28.7860   45.9120 C   0  0  0  0  0  0  0  0  0  0  0  0
   59.5090   29.4610   45.3880 C   0  0  0  0  0  0  0  0  0  0  0  0
   60.4870   29.7460   46.3490 C   0  0  0  0  0  0  0  0  0  0  0  0
   60.1620   29.2950   47.6240 C   0  0  0  0  0  0  0  0  0  0  0  0
   58.6550   28.5430   47.5570 S   0  0  0  0  0  0  0  0  0  0  0  0
   57.4030   31.8470   45.3020 N   0  0  0  0  0  0  0  0  0  0  0  0
   58.1450   33.0050   45.7250 C   0  0  0  0  0  0  0  0  0  0  0  0
   58.3220   33.9670   44.9270 O   0  0  0  0  0  0  0  0  0  0  0  0
   58.6720   33.1010   47.1060 C   0  0  0  0  0  0  0  0  0  0  0  0
   58.4910   32.0490   48.0240 C   0  0  0  0  0  0  0  0  0  0  0  0
   58.9880   32.1510   49.3260 C   0  0  0  0  0  0  0  0  0  0  0  0
   59.6750   33.3040   49.7310 C   0  0  0  0  0  0  0  0  0  0  0  0
   60.2690   33.4620   51.3820 S   0  0  0  0  0  0  0  0  0  0  0  0
   60.2410   32.1090   52.0330 O   0  0  0  0  0  0  0  0  0  0  0  0
   59.3790   34.3850   52.1680 O   0  0  0  0  0  0  0  0  0  0  0  0
   61.9010   34.0730   51.4130 N   0  0  0  0  0  0  0  0  0  0  0  0
   62.8740   33.0460   51.0330 C   0  0  0  0  0  0  0  0  0  0  0  0
   63.0180   32.9450   49.5360 C   0  0  0  0  0  0  0  0  0  0  0  0
   63.2730   34.0970   48.7720 C   0  0  0  0  0  0  0  0  0  0  0  0
   63.3970   34.0070   47.3830 C   0  0  0  0  0  0  0  0  0  0  0  0
   63.2740   32.7680   46.7460 C   0  0  0  0  0  0  0  0  0  0  0  0
   63.0320   31.6160   47.5000 C   0  0  0  0  0  0  0  0  0  0  0  0
   62.9070   31.7010   48.8890 C   0  0  0  0  0  0  0  0  0  0  0  0
   59.8700   34.3480   48.8200 C   0  0  0  0  0  0  0  0  0  0  0  0
   59.3790   34.2470   47.5150 C   0  0  0  0  0  0  0  0  0  0  0  0
   55.3058   30.7400   43.1417 H   0  0  0  0  0  0  0  0  0  0  0  0
   56.7515   29.7079   42.8975 H   0  0  0  0  0  0  0  0  0  0  0  0
   59.5978   29.7431   44.3285 H   0  0  0  0  0  0  0  0  0  0  0  0
   61.4228   30.2759   46.1176 H   0  0  0  0  0  0  0  0  0  0  0  0
   60.7836   29.4097   48.5242 H   0  0  0  0  0  0  0  0  0  0  0  0
   57.0210   31.2040   46.0290 H   0  0  0  0  0  0  0  0  0  0  0  0
   57.9544   31.1401   47.7140 H   0  0  0  0  0  0  0  0  0  0  0  0
   58.8397   31.3237   50.0356 H   0  0  0  0  0  0  0  0  0  0  0  0
   63.8511   33.3011   51.4692 H   0  0  0  0  0  0  0  0  0  0  0  0
   62.5163   32.0767   51.4104 H   0  0  0  0  0  0  0  0  0  0  0  0
   63.3753   35.0728   49.2693 H   0  0  0  0  0  0  0  0  0  0  0  0
   63.5917   34.9124   46.7895 H   0  0  0  0  0  0  0  0  0  0  0  0
   63.3676   32.7000   45.6521 H   0  0  0  0  0  0  0  0  0  0  0  0
   62.9398   30.6411   46.9990 H   0  0  0  0  0  0  0  0  0  0  0  0
   62.7210   30.7914   49.4789 H   0  0  0  0  0  0  0  0  0  0  0  0
   60.4123   35.2527   49.1322 H   0  0  0  0  0  0  0  0  0  0  0  0
   59.5464   35.0687   46.8031 H   0  0  0  0  0  0  0  0  0  0  0  0
  1  2  2  0
  2  3  1  0
  3  4  1  0
  4  5  1  0
  5  6  2  0
  5  7  2  0
  5  8  1  0
  8  9  2  0
  9 10  1  0
 10 11  2  0
 11 12  1  0
  2 13  1  0
 13 14  1  0
 14 15  2  0
 14 16  1  0
 16 17  2  0
 17 18  1  0
 18 19  2  0
 19 20  1  0
 20 21  2  0
 20 22  2  0
 20 23  1  0
 23 24  1  0
 24 25  1  0
 25 26  2  0
 26 27  1  0
 27 28  2  0
 28 29  1  0
 29 30  2  0
 19 31  1  0
 31 32  2  0
 12  8  1  0
 32 16  1  0
 30 25  1  0
  3 33  1  0
  3 34  1  0
  9 35  1  0
 10 36  1  0
 11 37  1  0
 13 38  1  0
 17 39  1  0
 18 40  1  0
 24 41  1  0
 24 42  1  0
 26 43  1  0
 27 44  1  0
 28 45  1  0
 29 46  1  0
 30 47  1  0
 31 48  1  0
 32 49  1  0
M  CHG  2   4  -1  23  -1
M  END
>  <UniqueID>  (12) 
11

>  <SMILES>  (12) 
O=C(C[N-]S(=O)(=O)c1cccs1)NC(=O)c1ccc(S(=O)(=O)[N-]Cc2ccccc2)cc1

>  <Energy>  (12) 
74.61950314252176

>  <Genealogy>  (12) 
O=C(C[N-]S(=O)(=O)c1cccs1)NC(=O)c1ccc(S(=O)(=O)[N-]Cc2ccccc2)cc1 (protonated)
O=C(C[N-]S(=O)(=O)c1cccs1)NC(=O)c1ccc(S(=O)(=O)[N-]Cc2ccccc2)cc1 (3D coordinates assigned)
O=C(C[N-]S(=O)(=O)c1cccs1)NC(=O)c1ccc(S(=O)(=O)[N-]Cc2ccccc2)cc1 (optimized conformer: 74.61950314252176 kcal/mol)

>  <smiles>  (12) 
O=C(CNS(=O)(=O)c1cccs1)NC(=O)c1ccc(S(=O)(=O)NCc2ccccc2)cc1

>  <score_type>  (12) 
oracle

>  <origin>  (12) 
adg

>  <m_score__min__energy>  (12) 
-11.43

>  <m_primary>  (12) 
energy

$$$$
12:0
     RDKit          3D

 60 64  0  0  0  0  0  0  0  0999 V2000
   62.1210   29.3580   50.9750 C   0  0  0  0  0  0  0  0  0  0  0  0
   61.0110   29.7880   50.1240 N   0  0  0  0  0  0  0  0  0  0  0  0
   60.3210   30.9620   50.1820 C   0  0  0  0  0  0  0  0  0  0  0  0
   60.6550   32.1010   51.1270 C   0  0  1  0  0  0  0  0  0  0  0  0
   61.3270   33.2660   50.3640 C   0  0  0  0  0  0  0  0  0  0  0  0
   60.7440   33.4950   48.9890 C   0  0  0  0  0  0  0  0  0  0  0  0
   59.5190   34.1650   48.8410 C   0  0  0  0  0  0  0  0  0  0  0  0
   58.9380   34.3050   47.5780 C   0  0  0  0  0  0  0  0  0  0  0  0
   59.5690   33.7690   46.4410 C   0  0  0  0  0  0  0  0  0  0  0  0
   58.9510   33.8910   45.0990 C   0  0  0  0  0  0  0  0  0  0  0  0
   59.0000   35.0030   44.5040 O   0  0  0  0  0  0  0  0  0  0  0  0
   58.2810   32.7500   44.4300 C   0  0  0  0  0  0  0  0  0  0  0  0
   57.7550   31.6950   45.1970 C   0  0  0  0  0  0  0  0  0  0  0  0
   57.1090   30.6210   44.5760 C   0  0  0  0  0  0  0  0  0  0  0  0
   56.9710   30.5940   43.1860 C   0  0  0  0  0  0  0  0  0  0  0  0
   57.4740   31.6450   42.4150 C   0  0  0  0  0  0  0  0  0  0  0  0
   58.1200   32.7210   43.0310 C   0  0  0  0  0  0  0  0  0  0  0  0
   60.8150   33.1380   46.5860 C   0  0  0  0  0  0  0  0  0  0  0  0
   61.3970   33.0020   47.8490 C   0  0  0  0  0  0  0  0  0  0  0  0
   59.4700   32.5750   51.9460 C   0  0  0  0  0  0  0  0  0  0  0  0
   59.4930   33.7310   52.4480 O   0  0  0  0  0  0  0  0  0  0  0  0
   58.3260   31.7450   52.1720 N   0  0  0  0  0  0  0  0  0  0  0  0
   57.0420   31.9950   51.5510 C   0  0  0  0  0  0  0  0  0  0  0  0
   56.1380   30.8690   52.0350 C   0  0  0  0  0  0  0  0  0  0  0  0
   56.8300   30.2700   53.2600 C   0  0  0  0  0  0  0  0  0  0  0  0
   58.2920   30.6930   53.1690 C   0  0  0  0  0  0  0  0  0  0  0  0
   59.3320   31.0420   49.2510 N   0  0  0  0  0  0  0  0  0  0  0  0
   59.3970   29.8570   48.6250 C   0  0  0  0  0  0  0  0  0  0  0  0
   58.5860   29.4060   47.5860 C   0  0  0  0  0  0  0  0  0  0  0  0
   58.8270   28.1140   47.0830 C   0  0  0  0  0  0  0  0  0  0  0  0
   59.8600   27.3160   47.6240 C   0  0  0  0  0  0  0  0  0  0  0  0
   60.6620   27.8040   48.6730 C   0  0  0  0  0  0  0  0  0  0  0  0
   60.3990   29.0930   49.1470 C   0  0  0  0  0  0  0  0  0  0  0  0
   61.8367   29.4681   52.0319 H   0  0  0  0  0  0  0  0  0  0  0  0
   62.3559   28.3038   50.7664 H   0  0  0  0  0  0  0  0  0  0  0  0
   63.0048   29.9788   50.7664 H   0  0  0  0  0  0  0  0  0  0  0  0
   61.3738   31.7013   51.8575 H   0  0  0  0  0  0  0  0  0  0  0  0
   61.2036   34.1866   50.9533 H   0  0  0  0  0  0  0  0  0  0  0  0
   62.3856   32.9992   50.2288 H   0  0  0  0  0  0  0  0  0  0  0  0
   59.0137   34.5821   49.7246 H   0  0  0  0  0  0  0  0  0  0  0  0
   57.9814   34.8376   47.4723 H   0  0  0  0  0  0  0  0  0  0  0  0
   57.8523   31.7146   46.2925 H   0  0  0  0  0  0  0  0  0  0  0  0
   56.7087   29.7958   45.1834 H   0  0  0  0  0  0  0  0  0  0  0  0
   56.4669   29.7462   42.6991 H   0  0  0  0  0  0  0  0  0  0  0  0
   57.3615   31.6258   41.3209 H   0  0  0  0  0  0  0  0  0  0  0  0
   58.5050   33.5502   42.4193 H   0  0  0  0  0  0  0  0  0  0  0  0
   61.3364   32.7481   45.6994 H   0  0  0  0  0  0  0  0  0  0  0  0
   62.3732   32.5053   47.9503 H   0  0  0  0  0  0  0  0  0  0  0  0
   56.6447   32.9711   51.8662 H   0  0  0  0  0  0  0  0  0  0  0  0
   57.1143   32.0212   50.4537 H   0  0  0  0  0  0  0  0  0  0  0  0
   55.1489   31.2642   52.3099 H   0  0  0  0  0  0  0  0  0  0  0  0
   55.9809   30.1133   51.2513 H   0  0  0  0  0  0  0  0  0  0  0  0
   56.3766   30.6598   54.1833 H   0  0  0  0  0  0  0  0  0  0  0  0
   56.7293   29.1749   53.2829 H   0  0  0  0  0  0  0  0  0  0  0  0
   58.6446   31.0711   54.1399 H   0  0  0  0  0  0  0  0  0  0  0  0
   58.9459   29.8509   52.8982 H   0  0  0  0  0  0  0  0  0  0  0  0
   57.7855   30.0375   47.1733 H   0  0  0  0  0  0  0  0  0  0  0  0
   58.2069   27.7226   46.2630 H   0  0  0  0  0  0  0  0  0  0  0  0
   60.0386   26.3074   47.2231 H   0  0  0  0  0  0  0  0  0  0  0  0
   61.4678   27.1924   49.1049 H   0  0  0  0  0  0  0  0  0  0  0  0
  1  2  1  0
  2  3  1  0
  3  4  1  0
  4  5  1  0
  5  6  1  0
  6  7  2  0
  7  8  1  0
  8  9  2  0
  9 10  1  0
 10 11  2  0
 10 12  1  0
 12 13  2  0
 13 14  1  0
 14 15  2  0
 15 16  1  0
 16 17  2  0
  9 18  1  0
 18 19  2  0
  4 20  1  0
 20 21  2  0
 20 22  1  0
 22 23  1  0
 23 24  1  0
 24 25  1  0
 25 26  1  0
  3 27  2  0
 27 28  1  0
 28 29  2  0
 29 30  1  0
 30 31  2  0
 31 32  1  0
 32 33  2  0
 33  2  1  0
 19  6  1  0
 26 22  1  0
 33 28  1  0
 17 12  1  0
  1 34  1  0
  1 35  1  0
  1 36  1  0
  4 37  1  1
  5 38  1  0
  5 39  1  0
  7 40  1  0
  8 41  1  0
 13 42  1  0
 14 43  1  0
 15 44  1  0
 16 45  1  0
 17 46  1  0
 18 47  1  0
 19 48  1  0
 23 49  1  0
 23 50  1  0
 24 51  1  0
 24 52  1  0
 25 53  1  0
 25 54  1  0
 26 55  1  0
 26 56  1  0
 29 57  1  0
 30 58  1  0
 31 59  1  0
 32 60  1  0
M  END
>  <UniqueID>  (13) 
12

>  <SMILES>  (13) 
Cn1c([C@@H](Cc2ccc(C(=O)c3ccccc3)cc2)C(=O)N2CCCC2)nc2ccccc21

>  <Energy>  (13) 
110.44065993199602

>  <Genealogy>  (13) 
Cn1c([C@@H](Cc2ccc(C(=O)c3ccccc3)cc2)C(=O)N2CCCC2)nc2ccccc21 (chirality)
Cn1c([C@@H](Cc2ccc(C(=O)c3ccccc3)cc2)C(=O)N2CCCC2)nc2ccccc21 (3D coordinates assigned)
Cn1c([C@@H](Cc2ccc(C(=O)c3ccccc3)cc2)C(=O)N2CCCC2)nc2ccccc21 (nonaromatic ring conformer: 110.44065993199602 kcal/mol)

>  <smiles>  (13) 
Cn1c(C(Cc2ccc(C(=O)c3ccccc3)cc2)C(=O)N2CCCC2)nc2ccccc21

>  <score_type>  (13) 
oracle

>  <origin>  (13) 
adg

>  <m_score__min__energy>  (13) 
-9.7200000000000006

>  <m_primary>  (13) 
energy

$$$$
13:0
     RDKit          3D

 44 45  0  0  0  0  0  0  0  0999 V2000
   58.8338   28.9534   47.5810 H   0  0  0  0  0  0  0  0  0  0  0  0
   58.1500   28.8250   46.7290 C   0  0  0  0  0  0  0  0  0  0  0  0
   57.4880   29.8710   46.3190 N   0  0  0  0  0  0  0  0  0  0  0  0
   57.2410   30.2550   44.9570 C   0  0  0  0  0  0  0  0  0  0  0  0
   58.1950   31.0330   44.2880 C   0  0  0  0  0  0  0  0  0  0  0  0
   59.1162   31.3355   44.8075 H   0  0  0  0  0  0  0  0  0  0  0  0
   57.9820   31.4270   42.9630 C   0  0  0  0  0  0  0  0  0  0  0  0
   58.7274   32.0514   42.4487 H   0  0  0  0  0  0  0  0  0  0  0  0
   56.8230   31.0280   42.2920 C   0  0  0  0  0  0  0  0  0  0  0  0
   56.6504   31.3492   41.2542 H   0  0  0  0  0  0  0  0  0  0  0  0
   55.8830   30.2210   42.9390 C   0  0  0  0  0  0  0  0  0  0  0  0
   54.9762   29.8999   42.4055 H   0  0  0  0  0  0  0  0  0  0  0  0
   56.0920   29.8200   44.2640 C   0  0  0  0  0  0  0  0  0  0  0  0
   55.1700   28.9790   44.8730 O   0  0  0  0  0  0  0  0  0  0  0  0
   58.0450   27.4790   46.1280 C   0  0  0  0  0  0  0  0  0  0  0  0
   58.3855   27.3355   45.0919 H   0  0  0  0  0  0  0  0  0  0  0  0
   57.5520   26.4270   46.7940 C   0  0  0  0  0  0  0  0  0  0  0  0
   57.6041   26.4261   47.8928 H   0  0  0  0  0  0  0  0  0  0  0  0
   56.9390   25.2640   46.1100 C   0  0  0  0  0  0  0  0  0  0  0  0
   55.5750   25.2410   45.7770 C   0  0  0  0  0  0  0  0  0  0  0  0
   54.7700   26.3470   46.0430 O   0  0  0  0  0  0  0  0  0  0  0  0
   55.0260   24.1190   45.1400 C   0  0  0  0  0  0  0  0  0  0  0  0
   53.5650   24.0920   44.7520 C   0  0  0  0  0  0  0  0  0  0  0  0
   53.1345   25.0949   44.8894 H   0  0  0  0  0  0  0  0  0  0  0  0
   53.4801   23.7866   43.6987 H   0  0  0  0  0  0  0  0  0  0  0  0
   52.8150   23.1080   45.6090 C   0  0  0  0  0  0  0  0  0  0  0  0
   51.8140   22.5640   45.1660 O   0  0  0  0  0  0  0  0  0  0  0  0
   53.2730   22.7740   46.9980 C   0  0  0  0  0  0  0  0  0  0  0  0
   52.6091   23.2581   47.7293 H   0  0  0  0  0  0  0  0  0  0  0  0
   53.2436   21.6838   47.1416 H   0  0  0  0  0  0  0  0  0  0  0  0
   54.3021   23.1352   47.1416 H   0  0  0  0  0  0  0  0  0  0  0  0
   55.8700   23.0470   44.7980 C   0  0  0  0  0  0  0  0  0  0  0  0
   55.3320   21.9470   44.1320 O   0  0  0  0  0  0  0  0  0  0  0  0
   57.2080   23.0830   45.1040 N   0  0  0  0  0  0  0  0  0  0  0  0
   58.0860   21.9620   44.7120 C   0  0  0  0  0  0  0  0  0  0  0  0
   59.1278   22.2162   44.9568 H   0  0  0  0  0  0  0  0  0  0  0  0
   57.9800   21.7901   43.6307 H   0  0  0  0  0  0  0  0  0  0  0  0
   57.6990   20.7050   45.4430 C   0  0  0  0  0  0  0  0  0  0  0  0
   57.6993   19.7487   44.8994 H   0  0  0  0  0  0  0  0  0  0  0  0
   57.3550   20.7180   46.7340 C   0  0  0  0  0  0  0  0  0  0  0  0
   57.0773   19.7809   47.2387 H   0  0  0  0  0  0  0  0  0  0  0  0
   57.3495   21.6658   47.2922 H   0  0  0  0  0  0  0  0  0  0  0  0
   57.7470   24.1740   45.7420 C   0  0  0  0  0  0  0  0  0  0  0  0
   58.9810   24.2020   46.0110 O   0  0  0  0  0  0  0  0  0  0  0  0
  1  2  1  0
  2  3  2  0
  3  4  1  0
  4  5  2  0
  5  6  1  0
  5  7  1  0
  7  8  1  0
  7  9  2  0
  9 10  1  0
  9 11  1  0
 11 12  1  0
 11 13  2  0
 13 14  1  0
  2 15  1  0
 15 16  1  0
 15 17  2  0
 17 18  1  0
 17 19  1  0
 19 20  2  0
 20 21  1  0
 20 22  1  0
 22 23  1  0
 23 24  1  0
 23 25  1  0
 23 26  1  0
 26 27  2  0
 26 28  1  0
 28 29  1  0
 28 30  1  0
 28 31  1  0
 22 32  2  0
 32 33  1  0
 32 34  1  0
 34 35  1  0
 35 36  1  0
 35 37  1  0
 35 38  1  0
 38 39  1  0
 38 40  2  0
 40 41  1  0
 40 42  1  0
 34 43  1  0
 43 44  2  0
 13  4  1  0
 43 19  1  0
M  CHG  3  14  -1  21  -1  33  -1
M  END
>  <UniqueID>  (14) 
13

>  <SMILES>  (14) 
C=CCn1c([O-])c(CC(C)=O)c([O-])c(/C=C/C=Nc2ccccc2[O-])c1=O

>  <Energy>  (14) 
59.70243834340695

>  <Genealogy>  (14) 
C=CCn1c([O-])c(CC(C)=O)c([O-])c(C=CC=Nc2ccccc2[O-])c1=O (protonated)
C=CCn1c([O-])c(CC(C)=O)c([O-])c(/C=C/C=Nc2ccccc2[O-])c1=O (cis-trans isomerization)
C=CCn1c([O-])c(CC(C)=O)c([O-])c(/C=C/C=Nc2ccccc2[O-])c1=O (3D coordinates assigned)
C=CCn1c([O-])c(CC(C)=O)c([O-])c(/C=C/C=Nc2ccccc2[O-])c1=O (optimized conformer: 59.70243834340695 kcal/mol)

>  <smiles>  (14) 
C=CCn1c(O)c(CC(C)=O)c(O)c(C=CC=Nc2ccccc2O)c1=O

>  <score_type>  (14) 
oracle

>  <origin>  (14) 
adg

>  <m_score__min__energy>  (14) 
-16.550000000000001

>  <m_primary>  (14) 
energy

$$$$
14:0
     RDKit          3D

 55 58  0  0  0  0  0  0  0  0999 V2000
   61.0440   32.9200   46.9970 O   0  0  0  0  0  0  0  0  0  0  0  0
   59.8910   32.7940   46.5010 C   0  0  0  0  0  0  0  0  0  0  0  0
   59.3870   33.8420   45.5550 C   0  0  0  0  0  0  0  0  0  0  0  0
   57.5650   33.9380   45.5960 S   0  0  0  0  0  0  0  0  0  0  0  0
   57.3150   32.4460   44.6380 C   0  0  0  0  0  0  0  0  0  0  0  0
   57.4350   32.3690   43.3000 N   0  0  0  0  0  0  0  0  0  0  0  0
   57.1950   31.1070   42.9790 N   0  0  0  0  0  0  0  0  0  0  0  0
   56.9510   30.4650   44.1370 C   0  0  0  0  0  0  0  0  0  0  0  0
   56.6220   29.0090   44.2330 C   0  0  0  0  0  0  0  0  0  0  0  0
   56.9380   28.4970   45.5290 O   0  0  0  0  0  0  0  0  0  0  0  0
   57.2360   27.1540   45.8260 C   0  0  0  0  0  0  0  0  0  0  0  0
   58.5600   26.6710   45.8980 C   0  0  0  0  0  0  0  0  0  0  0  0
   58.8050   25.3300   46.2120 C   0  0  0  0  0  0  0  0  0  0  0  0
   57.7420   24.4610   46.4530 C   0  0  0  0  0  0  0  0  0  0  0  0
   56.4270   24.9290   46.3840 C   0  0  0  0  0  0  0  0  0  0  0  0
   56.1730   26.2670   46.0660 C   0  0  0  0  0  0  0  0  0  0  0  0
   54.8570   26.7150   45.9970 O   0  0  0  0  0  0  0  0  0  0  0  0
   57.0120   31.2850   45.1600 O   0  0  0  0  0  0  0  0  0  0  0  0
   59.0930   31.6300   46.7720 N   0  0  0  0  0  0  0  0  0  0  0  0
   59.4710   30.5920   47.6940 C   0  0  0  0  0  0  0  0  0  0  0  0
   60.2080   29.4930   47.2270 C   0  0  0  0  0  0  0  0  0  0  0  0
   60.5860   28.4720   48.1030 C   0  0  0  0  0  0  0  0  0  0  0  0
   60.2340   28.5400   49.4530 C   0  0  0  0  0  0  0  0  0  0  0  0
   59.4820   29.6200   49.9300 C   0  0  0  0  0  0  0  0  0  0  0  0
   59.0290   29.6810   51.6300 S   0  0  0  0  0  0  0  0  0  0  0  0
   59.3100   28.3360   52.2420 O   0  0  0  0  0  0  0  0  0  0  0  0
   59.8540   30.7180   52.3440 O   0  0  0  0  0  0  0  0  0  0  0  0
   57.3260   30.0580   51.7610 N   0  0  0  0  0  0  0  0  0  0  0  0
   57.0150   31.4170   51.2640 C   0  0  0  0  0  0  0  0  0  0  0  0
   56.8630   32.4450   52.4000 C   0  0  0  0  0  0  0  0  0  0  0  0
   57.7230   32.1240   53.4690 O   0  0  0  0  0  0  0  0  0  0  0  0
   57.2860   30.9390   54.1110 C   0  0  0  0  0  0  0  0  0  0  0  0
   56.8260   29.8340   53.1290 C   0  0  0  0  0  0  0  0  0  0  0  0
   59.0850   30.6330   49.0470 C   0  0  0  0  0  0  0  0  0  0  0  0
   59.8052   34.8178   45.8431 H   0  0  0  0  0  0  0  0  0  0  0  0
   59.7010   33.5741   44.5354 H   0  0  0  0  0  0  0  0  0  0  0  0
   55.5474   28.8698   44.0434 H   0  0  0  0  0  0  0  0  0  0  0  0
   57.2188   28.4649   43.4862 H   0  0  0  0  0  0  0  0  0  0  0  0
   59.4027   27.3516   45.7065 H   0  0  0  0  0  0  0  0  0  0  0  0
   59.8394   24.9602   46.2689 H   0  0  0  0  0  0  0  0  0  0  0  0
   57.9383   23.4066   46.6975 H   0  0  0  0  0  0  0  0  0  0  0  0
   55.5896   24.2433   46.5803 H   0  0  0  0  0  0  0  0  0  0  0  0
   58.2630   31.4640   46.1630 H   0  0  0  0  0  0  0  0  0  0  0  0
   60.4898   29.4349   46.1653 H   0  0  0  0  0  0  0  0  0  0  0  0
   61.1620   27.6129   47.7286 H   0  0  0  0  0  0  0  0  0  0  0  0
   60.5485   27.7430   50.1429 H   0  0  0  0  0  0  0  0  0  0  0  0
   57.8291   31.7438   50.6003 H   0  0  0  0  0  0  0  0  0  0  0  0
   56.0532   31.3644   50.7328 H   0  0  0  0  0  0  0  0  0  0  0  0
   57.1150   33.4459   52.0196 H   0  0  0  0  0  0  0  0  0  0  0  0
   55.8237   32.4291   52.7600 H   0  0  0  0  0  0  0  0  0  0  0  0
   58.1167   30.5440   54.7142 H   0  0  0  0  0  0  0  0  0  0  0  0
   56.4135   31.2081   54.7245 H   0  0  0  0  0  0  0  0  0  0  0  0
   57.2000   28.8638   53.4879 H   0  0  0  0  0  0  0  0  0  0  0  0
   55.7268   29.8523   53.0927 H   0  0  0  0  0  0  0  0  0  0  0  0
   58.4674   31.4661   49.4137 H   0  0  0  0  0  0  0  0  0  0  0  0
  1  2  2  0
  2  3  1  0
  3  4  1  0
  4  5  1  0
  5  6  2  0
  6  7  1  0
  7  8  2  0
  8  9  1  0
  9 10  1  0
 10 11  1  0
 11 12  2  0
 12 13  1  0
 13 14  2  0
 14 15  1  0
 15 16  2  0
 16 17  1  0
  8 18  1  0
  2 19  1  0
 19 20  1  0
 20 21  2  0
 21 22  1  0
 22 23  2  0
 23 24  1  0
 24 25  1  0
 25 26  2  0
 25 27  2  0
 25 28  1  0
 28 29  1  0
 29 30  1  0
 30 31  1  0
 31 32  1  0
 32 33  1  0
 24 34  2  0
 18  5  1  0
 34 20  1  0
 16 11  1  0
 33 28  1  0
  3 35  1  0
  3 36  1  0
  9 37  1  0
  9 38  1  0
 12 39  1  0
 13 40  1  0
 14 41  1  0
 15 42  1  0
 19 43  1  0
 21 44  1  0
 22 45  1  0
 23 46  1  0
 29 47  1  0
 29 48  1  0
 30 49  1  0
 30 50  1  0
 32 51  1  0
 32 52  1  0
 33 53  1  0
 33 54  1  0
 34 55  1  0
M  CHG  1  17  -1
M  END
>  <UniqueID>  (15) 
14

>  <SMILES>  (15) 
O=C(CSc1nnc(COc2ccccc2[O-])o1)Nc1cccc(S(=O)(=O)N2CCOCC2)c1

>  <Energy>  (15) 
98.38492378300555

>  <Genealogy>  (15) 
O=C(CSc1nnc(COc2ccccc2[O-])o1)Nc1cccc(S(=O)(=O)N2CCOCC2)c1 (protonated)
O=C(CSc1nnc(COc2ccccc2[O-])o1)Nc1cccc(S(=O)(=O)N2CCOCC2)c1 (3D coordinates assigned)
O=C(CSc1nnc(COc2ccccc2[O-])o1)Nc1cccc(S(=O)(=O)N2CCOCC2)c1 (nonaromatic ring conformer: 98.38492378300555 kcal/mol)

>  <smiles>  (15) 
O=C(CSc1nnc(COc2ccccc2O)o1)Nc1cccc(S(=O)(=O)N2CCOCC2)c1

>  <score_type>  (15) 
oracle

>  <origin>  (15) 
adg

>  <m_score__min__energy>  (15) 
-13.35

>  <m_primary>  (15) 
energy

$$$$
15:0
     RDKit          3D

 23 24  0  0  0  0  0  0  0  0999 V2000
   60.3850   29.5440   45.6210 C   0  0  0  0  0  0  0  0  0  0  0  0
   59.0540   29.2570   44.9960 C   0  0  0  0  0  0  0  0  0  0  0  0
   58.6700   28.0500   44.4480 C   0  0  0  0  0  0  0  0  0  0  0  0
   57.4170   28.1780   43.9700 N   0  0  0  0  0  0  0  0  0  0  0  0
   57.0620   29.4520   44.2250 C   0  0  0  0  0  0  0  0  0  0  0  0
   55.6300   30.0900   43.7440 S   0  0  0  0  0  0  0  0  0  0  0  0
   58.0450   30.1450   44.8470 N   0  0  0  0  0  0  0  0  0  0  0  0
   58.0290   31.5250   45.2520 C   0  0  0  0  0  0  0  0  0  0  0  0
   57.8850   32.5430   44.2960 C   0  0  0  0  0  0  0  0  0  0  0  0
   57.8650   33.8840   44.6920 C   0  0  0  0  0  0  0  0  0  0  0  0
   57.9870   34.2160   46.0440 C   0  0  0  0  0  0  0  0  0  0  0  0
   58.1310   33.2090   47.0020 C   0  0  0  0  0  0  0  0  0  0  0  0
   58.1510   31.8670   46.6090 C   0  0  0  0  0  0  0  0  0  0  0  0
   60.2878   29.5230   46.7165 H   0  0  0  0  0  0  0  0  0  0  0  0
   61.1115   28.7819   45.3027 H   0  0  0  0  0  0  0  0  0  0  0  0
   60.7329   30.5378   45.3027 H   0  0  0  0  0  0  0  0  0  0  0  0
   59.2833   27.1377   44.4082 H   0  0  0  0  0  0  0  0  0  0  0  0
   56.8530   27.4450   43.4850 H   0  0  0  0  0  0  0  0  0  0  0  0
   57.7875   32.2847   43.2312 H   0  0  0  0  0  0  0  0  0  0  0  0
   57.7532   34.6780   43.9389 H   0  0  0  0  0  0  0  0  0  0  0  0
   57.9696   35.2712   46.3544 H   0  0  0  0  0  0  0  0  0  0  0  0
   58.2287   33.4719   48.0656 H   0  0  0  0  0  0  0  0  0  0  0  0
   58.2627   31.0762   47.3654 H   0  0  0  0  0  0  0  0  0  0  0  0
  1  2  1  0
  2  3  2  0
  3  4  1  0
  4  5  1  0
  5  6  2  0
  5  7  1  0
  7  8  1  0
  8  9  2  0
  9 10  1  0
 10 11  2  0
 11 12  1  0
 12 13  2  0
  7  2  1  0
 13  8  1  0
  1 14  1  0
  1 15  1  0
  1 16  1  0
  3 17  1  0
  4 18  1  0
  9 19  1  0
 10 20  1  0
 11 21  1  0
 12 22  1  0
 13 23  1  0
M  END
>  <UniqueID>  (16) 
15

>  <SMILES>  (16) 
Cc1c[nH]c(=S)n1-c1ccccc1

>  <Energy>  (16) 
60.660979960764195

>  <Genealogy>  (16) 
Cc1c[nH]c(=S)n1-c1ccccc1 (3D coordinates assigned)
Cc1c[nH]c(=S)n1-c1ccccc1 (optimized conformer: 60.660979960764195 kcal/mol)

>  <smiles>  (16) 
Cc1c[nH]c(=S)n1-c1ccccc1

>  <score_type>  (16) 
oracle

>  <origin>  (16) 
adg

>  <m_score__min__energy>  (16) 
-5.6900000000000004

>  <m_primary>  (16) 
energy

$$$$
16:0
     RDKit          3D

 42 45  0  0  0  0  0  0  0  0999 V2000
   61.5840   33.8390   50.5240 C   0  0  0  0  0  0  0  0  0  0  0  0
   61.4550   32.8260   49.4240 C   0  0  0  0  0  0  0  0  0  0  0  0
   60.6880   31.6680   49.6170 C   0  0  0  0  0  0  0  0  0  0  0  0
   60.5380   30.7430   48.5790 C   0  0  0  0  0  0  0  0  0  0  0  0
   61.1490   30.9600   47.3360 C   0  0  0  0  0  0  0  0  0  0  0  0
   60.9700   29.9980   46.2820 N   0  0  0  0  0  0  0  0  0  0  0  0
   59.7060   29.3950   45.9680 C   0  0  0  0  0  0  0  0  0  0  0  0
   58.5550   30.0820   45.5950 C   0  0  0  0  0  0  0  0  0  0  0  0
   58.3870   31.5460   45.4870 C   0  0  0  0  0  0  0  0  0  0  0  0
   58.2980   32.3410   46.6420 C   0  0  0  0  0  0  0  0  0  0  0  0
   58.1380   33.7260   46.5340 C   0  0  0  0  0  0  0  0  0  0  0  0
   58.0610   34.3250   45.2740 C   0  0  0  0  0  0  0  0  0  0  0  0
   58.1400   33.5410   44.1210 C   0  0  0  0  0  0  0  0  0  0  0  0
   58.2990   32.1560   44.2240 C   0  0  0  0  0  0  0  0  0  0  0  0
   57.6110   29.1110   45.2710 C   0  0  0  0  0  0  0  0  0  0  0  0
   56.2530   29.3300   44.8430 C   0  0  0  0  0  0  0  0  0  0  0  0
   55.1620   29.5040   44.4990 N   0  0  0  0  0  0  0  0  0  0  0  0
   58.2210   27.8870   45.4830 C   0  0  0  0  0  0  0  0  0  0  0  0
   57.6890   26.6060   45.3220 C   0  0  0  0  0  0  0  0  0  0  0  0
   58.5160   25.5120   45.6210 C   0  0  0  0  0  0  0  0  0  0  0  0
   59.8310   25.7200   46.0740 C   0  0  0  0  0  0  0  0  0  0  0  0
   60.3140   27.0280   46.2190 C   0  0  0  0  0  0  0  0  0  0  0  0
   59.4880   28.0640   45.9040 N   0  0  0  0  0  0  0  0  0  0  0  0
   61.8890   32.1400   47.1350 C   0  0  0  0  0  0  0  0  0  0  0  0
   62.0400   33.0650   48.1720 C   0  0  0  0  0  0  0  0  0  0  0  0
   61.5195   33.3325   51.4983 H   0  0  0  0  0  0  0  0  0  0  0  0
   62.5545   34.3500   50.4399 H   0  0  0  0  0  0  0  0  0  0  0  0
   60.7726   34.5769   50.4399 H   0  0  0  0  0  0  0  0  0  0  0  0
   60.2030   31.4868   50.5875 H   0  0  0  0  0  0  0  0  0  0  0  0
   59.9352   29.8370   48.7392 H   0  0  0  0  0  0  0  0  0  0  0  0
   61.8120   29.6850   45.7500 H   0  0  0  0  0  0  0  0  0  0  0  0
   58.3544   31.8720   47.6354 H   0  0  0  0  0  0  0  0  0  0  0  0
   58.0727   34.3442   47.4415 H   0  0  0  0  0  0  0  0  0  0  0  0
   57.9381   35.4149   45.1902 H   0  0  0  0  0  0  0  0  0  0  0  0
   58.0770   34.0142   43.1300 H   0  0  0  0  0  0  0  0  0  0  0  0
   58.3554   31.5415   43.3134 H   0  0  0  0  0  0  0  0  0  0  0  0
   56.6564   26.4592   44.9725 H   0  0  0  0  0  0  0  0  0  0  0  0
   58.1339   24.4876   45.5005 H   0  0  0  0  0  0  0  0  0  0  0  0
   60.4764   24.8619   46.3130 H   0  0  0  0  0  0  0  0  0  0  0  0
   61.3368   27.2134   46.5790 H   0  0  0  0  0  0  0  0  0  0  0  0
   62.3513   32.3355   46.1562 H   0  0  0  0  0  0  0  0  0  0  0  0
   62.6203   33.9845   48.0053 H   0  0  0  0  0  0  0  0  0  0  0  0
  1  2  1  0
  2  3  2  0
  3  4  1  0
  4  5  2  0
  5  6  1  0
  6  7  1  0
  7  8  2  0
  8  9  1  0
  9 10  2  0
 10 11  1  0
 11 12  2  0
 12 13  1  0
 13 14  2  0
  8 15  1  0
 15 16  1  0
 16 17  3  0
 15 18  2  0
 18 19  1  0
 19 20  2  0
 20 21  1  0
 21 22  2  0
 22 23  1  0
  5 24  1  0
 24 25  2  0
 25  2  1  0
 23  7  1  0
 14  9  1  0
 23 18  1  0
  1 26  1  0
  1 27  1  0
  1 28  1  0
  3 29  1  0
  4 30  1  0
  6 31  1  0
 10 32  1  0
 11 33  1  0
 12 34  1  0
 13 35  1  0
 14 36  1  0
 19 37  1  0
 20 38  1  0
 21 39  1  0
 22 40  1  0
 24 41  1  0
 25 42  1  0
M  END
>  <UniqueID>  (17) 
16

>  <SMILES>  (17) 
Cc1ccc(Nc2c(-c3ccccc3)c(C#N)c3ccccn23)cc1

>  <Energy>  (17) 
89.9306952194367

>  <Genealogy>  (17) 
Cc1ccc(Nc2c(-c3ccccc3)c(C#N)c3ccccn23)cc1 (3D coordinates assigned)
Cc1ccc(Nc2c(-c3ccccc3)c(C#N)c3ccccn23)cc1 (optimized conformer: 89.9306952194367 kcal/mol)

>  <smiles>  (17) 
Cc1ccc(Nc2c(-c3ccccc3)c(C#N)c3ccccn23)cc1

>  <score_type>  (17) 
oracle

>  <origin>  (17) 
adg

>  <m_score__min__energy>  (17) 
-7.5899999999999999

>  <m_primary>  (17) 
energy

$$$$
17:0
     RDKit          3D

 42 44  0  0  0  0  0  0  0  0999 V2000
   59.3477   28.3613   44.1408 H   0  0  0  0  0  0  0  0  0  0  0  0
   58.8110   28.5790   45.0760 C   0  0  0  0  0  0  0  0  0  0  0  0
   58.8000   29.8430   45.5180 C   0  0  0  0  0  0  0  0  0  0  0  0
   59.8500   30.4130   46.2940 N   0  0  0  0  0  0  0  0  0  0  0  0
   59.5030   31.6370   46.5790 C   0  0  0  0  0  0  0  0  0  0  0  0
   60.3630   32.5370   47.3870 C   0  0  0  0  0  0  0  0  0  0  0  0
   59.8080   33.4890   48.2540 C   0  0  0  0  0  0  0  0  0  0  0  0
   58.7153   33.5824   48.3391 H   0  0  0  0  0  0  0  0  0  0  0  0
   60.6370   34.3170   49.0080 C   0  0  0  0  0  0  0  0  0  0  0  0
   60.2027   35.0593   49.6939 H   0  0  0  0  0  0  0  0  0  0  0  0
   62.0210   34.1980   48.8870 C   0  0  0  0  0  0  0  0  0  0  0  0
   62.6792   34.8407   49.4900 H   0  0  0  0  0  0  0  0  0  0  0  0
   62.5650   33.2890   48.0250 N   0  0  0  0  0  0  0  0  0  0  0  0
   64.0210   33.1550   47.9400 C   0  0  0  0  0  0  0  0  0  0  0  0
   64.4454   33.1159   48.9541 H   0  0  0  0  0  0  0  0  0  0  0  0
   64.2732   32.2298   47.4010 H   0  0  0  0  0  0  0  0  0  0  0  0
   64.4379   34.0186   47.4010 H   0  0  0  0  0  0  0  0  0  0  0  0
   61.7660   32.4560   47.2940 C   0  0  0  0  0  0  0  0  0  0  0  0
   62.2241   31.7130   46.6246 H   0  0  0  0  0  0  0  0  0  0  0  0
   58.2210   32.0180   46.0550 N   0  0  0  0  0  0  0  0  0  0  0  0
   57.6780   32.8930   46.2180 H   0  0  0  0  0  0  0  0  0  0  0  0
   57.7700   30.8550   45.3890 C   0  0  0  0  0  0  0  0  0  0  0  0
   56.6340   30.7360   44.8610 O   0  0  0  0  0  0  0  0  0  0  0  0
   58.1440   27.4610   45.7720 C   0  0  0  0  0  0  0  0  0  0  0  0
   56.7700   27.2710   45.5770 C   0  0  0  0  0  0  0  0  0  0  0  0
   56.2191   27.9440   44.9035 H   0  0  0  0  0  0  0  0  0  0  0  0
   56.0890   26.2360   46.2280 C   0  0  0  0  0  0  0  0  0  0  0  0
   54.7170   26.0830   45.9800 O   0  0  0  0  0  0  0  0  0  0  0  0
   54.0970   24.8520   45.6200 C   0  0  0  0  0  0  0  0  0  0  0  0
   53.8195   24.3011   46.5308 H   0  0  0  0  0  0  0  0  0  0  0  0
   53.1942   25.0562   45.0256 H   0  0  0  0  0  0  0  0  0  0  0  0
   54.7985   24.2482   45.0256 H   0  0  0  0  0  0  0  0  0  0  0  0
   56.7970   25.3920   47.1000 C   0  0  0  0  0  0  0  0  0  0  0  0
   56.2741   24.5690   47.6092 H   0  0  0  0  0  0  0  0  0  0  0  0
   58.1610   25.5920   47.3240 C   0  0  0  0  0  0  0  0  0  0  0  0
   58.7039   24.9290   48.0137 H   0  0  0  0  0  0  0  0  0  0  0  0
   58.8470   26.6370   46.6730 C   0  0  0  0  0  0  0  0  0  0  0  0
   60.2080   26.8890   46.9100 O   0  0  0  0  0  0  0  0  0  0  0  0
   60.7220   27.5300   48.0730 C   0  0  0  0  0  0  0  0  0  0  0  0
   60.3245   27.0342   48.9709 H   0  0  0  0  0  0  0  0  0  0  0  0
   61.8200   27.4636   48.0733 H   0  0  0  0  0  0  0  0  0  0  0  0
   60.4186   28.5873   48.0733 H   0  0  0  0  0  0  0  0  0  0  0  0
  1  2  1  0
  2  3  2  0
  3  4  1  0
  4  5  2  0
  5  6  1  0
  6  7  2  0
  7  8  1  0
  7  9  1  0
  9 10  1  0
  9 11  2  0
 11 12  1  0
 11 13  1  0
 13 14  1  0
 14 15  1  0
 14 16  1  0
 14 17  1  0
 13 18  2  0
 18 19  1  0
  5 20  1  0
 20 21  1  0
 20 22  1  0
 22 23  2  0
  2 24  1  0
 24 25  2  0
 25 26  1  0
 25 27  1  0
 27 28  1  0
 28 29  1  0
 29 30  1  0
 29 31  1  0
 29 32  1  0
 27 33  2  0
 33 34  1  0
 33 35  1  0
 35 36  1  0
 35 37  2  0
 37 38  1  0
 38 39  1  0
 39 40  1  0
 39 41  1  0
 39 42  1  0
 22  3  1  0
 37 24  1  0
 18  6  1  0
M  CHG  1  13   1
M  END
>  <UniqueID>  (18) 
17

>  <SMILES>  (18) 
COc1ccc(OC)c(/C=C2/N=C(c3ccc[n+](C)c3)NC2=O)c1

>  <Energy>  (18) 
80.48246158838911

>  <Genealogy>  (18) 
COc1ccc(OC)c(/C=C2/N=C(c3ccc[n+](C)c3)NC2=O)c1 (cis-trans isomerization)
COc1ccc(OC)c(/C=C2/N=C(c3ccc[n+](C)c3)NC2=O)c1 (3D coordinates assigned)
COc1ccc(OC)c(/C=C2/N=C(c3ccc[n+](C)c3)NC2=O)c1 (nonaromatic ring conformer: 80.48246158838911 kcal/mol)

>  <smiles>  (18) 
COc1ccc(OC)c(C=C2N=C(c3ccc[n+](C)c3)NC2=O)c1

>  <score_type>  (18) 
oracle

>  <origin>  (18) 
adg

>  <m_score__min__energy>  (18) 
-6.46

>  <m_primary>  (18) 
energy

$$$$
18:0
     RDKit          3D

 47 50  0  0  0  0  0  0  0  0999 V2000
   64.0890   33.0950   46.9560 C   0  0  0  0  0  0  0  0  0  0  0  0
   62.8130   33.2240   47.7240 C   0  0  0  0  0  0  0  0  0  0  0  0
   62.8390   33.2180   49.0820 N   0  0  0  0  0  0  0  0  0  0  0  0
   61.7010   33.3460   49.8080 C   0  0  0  0  0  0  0  0  0  0  0  0
   61.7570   33.3280   51.2070 C   0  0  0  0  0  0  0  0  0  0  0  0
   60.5840   33.4510   51.9570 C   0  0  0  0  0  0  0  0  0  0  0  0
   60.6650   33.4260   53.8650 Br  0  0  0  0  0  0  0  0  0  0  0  0
   59.3500   33.5900   51.3120 C   0  0  0  0  0  0  0  0  0  0  0  0
   59.2850   33.6110   49.9160 C   0  0  0  0  0  0  0  0  0  0  0  0
   60.4600   33.4950   49.1520 C   0  0  0  0  0  0  0  0  0  0  0  0
   60.4560   33.5120   47.7440 C   0  0  0  0  0  0  0  0  0  0  0  0
   59.2390   33.6820   47.0070 N   0  0  0  0  0  0  0  0  0  0  0  0
   58.9870   34.9230   46.2740 C   0  0  0  0  0  0  0  0  0  0  0  0
   58.4890   34.6220   44.8460 C   0  0  0  0  0  0  0  0  0  0  0  0
   57.6980   33.3660   44.7220 N   0  0  0  0  0  0  0  0  0  0  0  0
   58.4510   32.2900   44.0380 C   0  0  0  0  0  0  0  0  0  0  0  0
   57.9360   30.9410   44.4660 C   0  0  0  0  0  0  0  0  0  0  0  0
   58.8030   30.0190   45.0720 C   0  0  0  0  0  0  0  0  0  0  0  0
   58.3290   28.7680   45.4790 C   0  0  0  0  0  0  0  0  0  0  0  0
   56.9870   28.4300   45.2840 C   0  0  0  0  0  0  0  0  0  0  0  0
   56.1170   29.3430   44.6820 C   0  0  0  0  0  0  0  0  0  0  0  0
   54.7820   29.0050   44.4900 O   0  0  0  0  0  0  0  0  0  0  0  0
   56.5870   30.5960   44.2730 C   0  0  0  0  0  0  0  0  0  0  0  0
   57.1270   32.9090   46.0060 C   0  0  0  0  0  0  0  0  0  0  0  0
   58.2280   32.6260   47.0380 C   0  0  0  0  0  0  0  0  0  0  0  0
   61.6290   33.3740   47.0670 N   0  0  0  0  0  0  0  0  0  0  0  0
   64.9321   33.0098   47.6574 H   0  0  0  0  0  0  0  0  0  0  0  0
   64.0466   32.1966   46.3227 H   0  0  0  0  0  0  0  0  0  0  0  0
   64.2273   33.9837   46.3227 H   0  0  0  0  0  0  0  0  0  0  0  0
   62.7255   33.2169   51.7165 H   0  0  0  0  0  0  0  0  0  0  0  0
   58.4284   33.6830   51.9054 H   0  0  0  0  0  0  0  0  0  0  0  0
   58.3123   33.7185   49.4136 H   0  0  0  0  0  0  0  0  0  0  0  0
   58.2230   35.5082   46.8068 H   0  0  0  0  0  0  0  0  0  0  0  0
   59.9265   35.4914   46.2081 H   0  0  0  0  0  0  0  0  0  0  0  0
   57.8568   35.4604   44.5183 H   0  0  0  0  0  0  0  0  0  0  0  0
   59.3854   34.4913   44.2220 H   0  0  0  0  0  0  0  0  0  0  0  0
   58.3295   32.3967   42.9500 H   0  0  0  0  0  0  0  0  0  0  0  0
   59.5146   32.3697   44.3070 H   0  0  0  0  0  0  0  0  0  0  0  0
   59.8599   30.2814   45.2275 H   0  0  0  0  0  0  0  0  0  0  0  0
   59.0132   28.0490   45.9532 H   0  0  0  0  0  0  0  0  0  0  0  0
   56.6156   27.4454   45.6044 H   0  0  0  0  0  0  0  0  0  0  0  0
   55.8995   31.3124   43.7995 H   0  0  0  0  0  0  0  0  0  0  0  0
   56.4596   33.6900   46.3993 H   0  0  0  0  0  0  0  0  0  0  0  0
   56.5721   31.9764   45.8264 H   0  0  0  0  0  0  0  0  0  0  0  0
   57.7809   32.5815   48.0421 H   0  0  0  0  0  0  0  0  0  0  0  0
   58.7070   31.6661   46.7948 H   0  0  0  0  0  0  0  0  0  0  0  0
   61.6180   33.3930   46.0220 H   0  0  0  0  0  0  0  0  0  0  0  0
  1  2  1  0
  2  3  2  0
  3  4  1  0
  4  5  2  0
  5  6  1  0
  6  7  1  0
  6  8  2  0
  8  9  1  0
  9 10  2  0
 10 11  1  0
 11 12  1  0
 12 13  1  0
 13 14  1  0
 14 15  1  0
 15 16  1  0
 16 17  1  0
 17 18  2  0
 18 19  1  0
 19 20  2  0
 20 21  1  0
 21 22  1  0
 21 23  2  0
 15 24  1  0
 24 25  1  0
 11 26  2  0
 26  2  1  0
 10  4  1  0
 25 12  1  0
 23 17  1  0
  1 27  1  0
  1 28  1  0
  1 29  1  0
  5 30  1  0
  8 31  1  0
  9 32  1  0
 13 33  1  0
 13 34  1  0
 14 35  1  0
 14 36  1  0
 16 37  1  0
 16 38  1  0
 18 39  1  0
 19 40  1  0
 20 41  1  0
 23 42  1  0
 24 43  1  0
 24 44  1  0
 25 45  1  0
 25 46  1  0
 26 47  1  0
M  CHG  2  22  -1  26   1
M  END
>  <UniqueID>  (19) 
18

>  <SMILES>  (19) 
Cc1nc2cc(Br)ccc2c(N2CCN(Cc3cccc([O-])c3)CC2)[nH+]1

>  <Energy>  (19) 
65.53238236405663

>  <Genealogy>  (19) 
Cc1nc2cc(Br)ccc2c(N2CCN(Cc3cccc([O-])c3)CC2)[nH+]1 (protonated)
Cc1nc2cc(Br)ccc2c(N2CCN(Cc3cccc([O-])c3)CC2)[nH+]1 (3D coordinates assigned)
Cc1nc2cc(Br)ccc2c(N2CCN(Cc3cccc([O-])c3)CC2)[nH+]1 (nonaromatic ring conformer: 65.53238236405663 kcal/mol)

>  <smiles>  (19) 
Cc1nc(N2CCN(Cc3cccc(O)c3)CC2)c2ccc(Br)cc2n1

>  <score_type>  (19) 
oracle

>  <origin>  (19) 
adg

>  <m_score__min__energy>  (19) 
-10.859999999999999

>  <m_primary>  (19) 
energy

$$$$
19:0
     RDKit          3D

 52 55  0  0  0  0  0  0  0  0999 V2000
   59.9960   28.9540   44.5720 C   0  0  0  0  0  0  0  0  0  0  0  0
   61.0460   28.4530   45.5550 C   0  0  0  0  0  0  0  0  0  0  0  0
   60.7060   28.8700   46.9190 N   0  0  0  0  0  0  0  0  0  0  0  0
   60.2300   28.1080   47.9430 C   0  0  0  0  0  0  0  0  0  0  0  0
   59.8370   26.6640   47.8270 C   0  0  0  0  0  0  0  0  0  0  0  0
   58.4920   26.5380   47.1630 C   0  0  0  0  0  0  0  0  0  0  0  0
   57.8020   25.3170   47.1720 C   0  0  0  0  0  0  0  0  0  0  0  0
   56.5550   25.2080   46.5520 C   0  0  0  0  0  0  0  0  0  0  0  0
   55.9890   26.3150   45.9150 C   0  0  0  0  0  0  0  0  0  0  0  0
   56.6720   27.5360   45.8770 C   0  0  0  0  0  0  0  0  0  0  0  0
   56.0460   28.6560   45.2350 N   0  0  0  0  0  0  0  0  0  0  0  0
   56.6380   29.5130   44.2490 C   0  0  0  0  0  0  0  0  0  0  0  0
   56.5670   29.2110   43.0270 O   0  0  0  0  0  0  0  0  0  0  0  0
   57.2850   30.7800   44.6610 C   0  0  0  0  0  0  0  0  0  0  0  0
   57.4020   31.8520   43.7610 C   0  0  0  0  0  0  0  0  0  0  0  0
   58.0070   33.0490   44.1520 C   0  0  0  0  0  0  0  0  0  0  0  0
   58.5180   33.2030   45.4550 C   0  0  0  0  0  0  0  0  0  0  0  0
   59.1650   34.4700   45.8890 C   0  0  0  0  0  0  0  0  0  0  0  0
   59.3630   34.8060   47.3370 C   0  0  0  0  0  0  0  0  0  0  0  0
   59.5730   35.2910   45.0240 O   0  0  0  0  0  0  0  0  0  0  0  0
   58.4010   32.1280   46.3540 C   0  0  0  0  0  0  0  0  0  0  0  0
   57.7920   30.9330   45.9630 C   0  0  0  0  0  0  0  0  0  0  0  0
   57.9180   27.6500   46.5200 C   0  0  0  0  0  0  0  0  0  0  0  0
   60.0860   28.8000   49.1040 N   0  0  0  0  0  0  0  0  0  0  0  0
   60.5140   30.0330   48.7810 C   0  0  0  0  0  0  0  0  0  0  0  0
   60.5970   31.1470   49.6130 C   0  0  0  0  0  0  0  0  0  0  0  0
   61.0970   32.3420   49.0610 C   0  0  0  0  0  0  0  0  0  0  0  0
   61.5000   32.3910   47.7080 C   0  0  0  0  0  0  0  0  0  0  0  0
   61.4040   31.2460   46.8950 C   0  0  0  0  0  0  0  0  0  0  0  0
   60.8950   30.0800   47.4730 C   0  0  0  0  0  0  0  0  0  0  0  0
   59.1391   29.3628   45.1275 H   0  0  0  0  0  0  0  0  0  0  0  0
   60.4320   29.7411   43.9393 H   0  0  0  0  0  0  0  0  0  0  0  0
   59.6585   28.1199   43.9393 H   0  0  0  0  0  0  0  0  0  0  0  0
   61.0892   27.3547   45.5114 H   0  0  0  0  0  0  0  0  0  0  0  0
   62.0229   28.8795   45.2834 H   0  0  0  0  0  0  0  0  0  0  0  0
   60.5889   26.1308   47.2267 H   0  0  0  0  0  0  0  0  0  0  0  0
   59.7795   26.2277   48.8351 H   0  0  0  0  0  0  0  0  0  0  0  0
   58.2447   24.4414   47.6694 H   0  0  0  0  0  0  0  0  0  0  0  0
   56.0175   24.2484   46.5654 H   0  0  0  0  0  0  0  0  0  0  0  0
   55.0006   26.2265   45.4404 H   0  0  0  0  0  0  0  0  0  0  0  0
   57.0131   31.7479   42.7373 H   0  0  0  0  0  0  0  0  0  0  0  0
   58.0849   33.8794   43.4348 H   0  0  0  0  0  0  0  0  0  0  0  0
   58.9030   34.0254   47.9608 H   0  0  0  0  0  0  0  0  0  0  0  0
   60.4394   34.8636   47.5562 H   0  0  0  0  0  0  0  0  0  0  0  0
   58.8918   35.7755   47.5562 H   0  0  0  0  0  0  0  0  0  0  0  0
   58.7934   32.2291   47.3766 H   0  0  0  0  0  0  0  0  0  0  0  0
   57.7085   30.1038   46.6810 H   0  0  0  0  0  0  0  0  0  0  0  0
   58.4468   28.6146   46.5201 H   0  0  0  0  0  0  0  0  0  0  0  0
   60.2825   31.0950   50.6658 H   0  0  0  0  0  0  0  0  0  0  0  0
   61.1743   33.2430   49.6873 H   0  0  0  0  0  0  0  0  0  0  0  0
   61.8910   33.3292   47.2874 H   0  0  0  0  0  0  0  0  0  0  0  0
   61.7187   31.2683   45.8412 H   0  0  0  0  0  0  0  0  0  0  0  0
  1  2  1  0
  2  3  1  0
  3  4  1  0
  4  5  1  0
  5  6  1  0
  6  7  2  0
  7  8  1  0
  8  9  2  0
  9 10  1  0
 10 11  1  0
 11 12  1  0
 12 13  2  0
 12 14  1  0
 14 15  2  0
 15 16  1  0
 16 17  2  0
 17 18  1  0
 18 19  1  0
 18 20  2  0
 17 21  1  0
 21 22  2  0
 10 23  2  0
  4 24  2  0
 24 25  1  0
 25 26  2  0
 26 27  1  0
 27 28  2  0
 28 29  1  0
 29 30  2  0
 30  3  1  0
 23  6  1  0
 30 25  1  0
 22 14  1  0
  1 31  1  0
  1 32  1  0
  1 33  1  0
  2 34  1  0
  2 35  1  0
  5 36  1  0
  5 37  1  0
  7 38  1  0
  8 39  1  0
  9 40  1  0
 15 41  1  0
 16 42  1  0
 19 43  1  0
 19 44  1  0
 19 45  1  0
 21 46  1  0
 22 47  1  0
 23 48  1  0
 26 49  1  0
 27 50  1  0
 28 51  1  0
 29 52  1  0
M  CHG  1  11  -1
M  END
>  <UniqueID>  (20) 
19

>  <SMILES>  (20) 
CCn1c(Cc2cccc([N-]C(=O)c3ccc(C(C)=O)cc3)c2)nc2ccccc21

>  <Energy>  (20) 
93.38782054343307

>  <Genealogy>  (20) 
CCn1c(Cc2cccc([N-]C(=O)c3ccc(C(C)=O)cc3)c2)nc2ccccc21 (protonated)
CCn1c(Cc2cccc([N-]C(=O)c3ccc(C(C)=O)cc3)c2)nc2ccccc21 (3D coordinates assigned)
CCn1c(Cc2cccc([N-]C(=O)c3ccc(C(C)=O)cc3)c2)nc2ccccc21 (optimized conformer: 93.38782054343307 kcal/mol)

>  <smiles>  (20) 
CCn1c(Cc2cccc(NC(=O)c3ccc(C(C)=O)cc3)c2)nc2ccccc21

>  <score_type>  (20) 
oracle

>  <origin>  (20) 
adg

>  <m_score__min__energy>  (20) 
-11.08

>  <m_primary>  (20) 
energy

$$$$
20:0
     RDKit          3D

 32 34  0  0  0  0  0  0  0  0999 V2000
   55.5080   29.4970   43.8680 C   0  0  0  0  0  0  0  0  0  0  0  0
   56.5430   29.7600   44.6670 C   0  0  0  0  0  0  0  0  0  0  0  0
   56.7710   30.9880   45.1800 N   0  0  0  0  0  0  0  0  0  0  0  0
   57.8600   30.9270   45.9320 N   0  0  0  0  0  0  0  0  0  0  0  0
   58.4100   32.0670   46.6200 C   0  0  0  0  0  0  0  0  0  0  0  0
   58.7780   31.9560   47.9730 C   0  0  0  0  0  0  0  0  0  0  0  0
   59.3230   33.0510   48.6510 C   0  0  0  0  0  0  0  0  0  0  0  0
   59.5150   34.2640   47.9850 C   0  0  0  0  0  0  0  0  0  0  0  0
   59.1690   34.3800   46.6360 C   0  0  0  0  0  0  0  0  0  0  0  0
   58.6220   33.2890   45.9540 C   0  0  0  0  0  0  0  0  0  0  0  0
   58.3470   29.6680   45.8950 C   0  0  0  0  0  0  0  0  0  0  0  0
   59.4270   29.3100   46.4370 O   0  0  0  0  0  0  0  0  0  0  0  0
   57.5270   28.8720   45.1080 C   0  0  0  0  0  0  0  0  0  0  0  0
   57.6620   27.5680   44.7950 C   0  0  0  0  0  0  0  0  0  0  0  0
   57.5340   26.4690   45.7740 C   0  0  0  0  0  0  0  0  0  0  0  0
   56.2900   26.1280   46.3350 C   0  0  0  0  0  0  0  0  0  0  0  0
   55.1420   26.8380   45.9930 O   0  0  0  0  0  0  0  0  0  0  0  0
   56.2050   25.0910   47.2090 N   0  0  0  0  0  0  0  0  0  0  0  0
   57.3000   24.3610   47.5410 C   0  0  0  0  0  0  0  0  0  0  0  0
   57.1960   23.4070   48.3550 O   0  0  0  0  0  0  0  0  0  0  0  0
   58.5050   24.6530   46.9900 N   0  0  0  0  0  0  0  0  0  0  0  0
   58.6450   25.6800   46.1130 C   0  0  0  0  0  0  0  0  0  0  0  0
   59.7780   25.9210   45.6170 O   0  0  0  0  0  0  0  0  0  0  0  0
   55.3622   28.4806   43.4734 H   0  0  0  0  0  0  0  0  0  0  0  0
   54.8002   30.2965   43.6036 H   0  0  0  0  0  0  0  0  0  0  0  0
   58.6362   31.0016   48.5013 H   0  0  0  0  0  0  0  0  0  0  0  0
   59.6011   32.9570   49.7111 H   0  0  0  0  0  0  0  0  0  0  0  0
   59.9378   35.1262   48.5215 H   0  0  0  0  0  0  0  0  0  0  0  0
   59.3275   35.3325   46.1092 H   0  0  0  0  0  0  0  0  0  0  0  0
   58.3558   33.3860   44.8911 H   0  0  0  0  0  0  0  0  0  0  0  0
   57.8803   27.3067   43.7490 H   0  0  0  0  0  0  0  0  0  0  0  0
   55.1380   27.8510   45.9900 H   0  0  0  0  0  0  0  0  0  0  0  0
  1  2  2  0
  2  3  1  0
  3  4  1  0
  4  5  1  0
  5  6  2  0
  6  7  1  0
  7  8  2  0
  8  9  1  0
  9 10  2  0
  4 11  1  0
 11 12  2  0
 11 13  1  0
 13 14  2  3
 14 15  1  0
 15 16  2  0
 16 17  1  0
 16 18  1  0
 18 19  1  0
 19 20  2  0
 19 21  1  0
 21 22  1  0
 22 23  2  0
 13  2  1  0
 22 15  1  0
 10  5  1  0
  1 24  1  0
  1 25  1  0
  6 26  1  0
  7 27  1  0
  8 28  1  0
  9 29  1  0
 10 30  1  0
 14 31  1  0
 17 32  1  0
M  CHG  3   3  -1  18  -1  21  -1
M  END
>  <UniqueID>  (21) 
20

>  <SMILES>  (21) 
C=c1[n-]n(-c2ccccc2)c(=O)c1=Cc1c(O)[n-]c(=O)[n-]c1=O

>  <Energy>  (21) 
83.51275051504759

>  <Genealogy>  (21) 
C=c1[n-]n(-c2ccccc2)c(=O)c1=Cc1c(O)[n-]c(=O)[n-]c1=O (protonated)
C=c1[n-]n(-c2ccccc2)c(=O)c1=Cc1c(O)[n-]c(=O)[n-]c1=O (3D coordinates assigned)
C=c1[n-]n(-c2ccccc2)c(=O)c1=Cc1c(O)[n-]c(=O)[n-]c1=O (optimized conformer: 83.51275051504759 kcal/mol)

>  <smiles>  (21) 
C=c1[nH]n(-c2ccccc2)c(=O)c1=Cc1c(O)[nH]c(=O)[nH]c1=O

>  <score_type>  (21) 
oracle

>  <origin>  (21) 
adg

>  <m_score__min__energy>  (21) 
-13.67

>  <m_primary>  (21) 
energy

$$$$
21:0
     RDKit          3D

 46 48  0  0  0  0  0  0  0  0999 V2000
   58.5697   23.2945   45.0502 H   0  0  0  0  0  0  0  0  0  0  0  0
   57.6930   23.9190   45.2770 C   0  0  0  0  0  0  0  0  0  0  0  0
   57.8620   25.1690   45.7790 N   0  0  0  0  0  0  0  0  0  0  0  0
   56.8170   25.9890   46.0810 C   0  0  0  0  0  0  0  0  0  0  0  0
   57.0950   27.1680   46.5650 N   0  0  0  0  0  0  0  0  0  0  0  0
   58.2040   28.0280   46.2640 C   0  0  0  0  0  0  0  0  0  0  0  0
   59.3750   27.6380   46.5260 O   0  0  0  0  0  0  0  0  0  0  0  0
   57.9770   29.3150   45.5470 C   0  0  0  0  0  0  0  0  0  0  0  0
   56.8870   29.4230   44.6660 C   0  0  0  0  0  0  0  0  0  0  0  0
   56.2260   28.5579   44.5088 H   0  0  0  0  0  0  0  0  0  0  0  0
   56.6360   30.6130   43.9910 C   0  0  0  0  0  0  0  0  0  0  0  0
   55.7821   30.6905   43.3019 H   0  0  0  0  0  0  0  0  0  0  0  0
   57.4740   31.7040   44.1950 C   0  0  0  0  0  0  0  0  0  0  0  0
   57.2834   32.6479   43.6632 H   0  0  0  0  0  0  0  0  0  0  0  0
   58.5280   31.6090   45.0490 N   0  0  0  0  0  0  0  0  0  0  0  0
   59.1230   32.4590   45.1520 H   0  0  0  0  0  0  0  0  0  0  0  0
   58.8050   30.4540   45.7340 C   0  0  0  0  0  0  0  0  0  0  0  0
   59.8110   30.3890   46.5650 N   0  0  0  0  0  0  0  0  0  0  0  0
   60.0070   31.1590   47.7930 C   0  0  0  0  0  0  0  0  0  0  0  0
   60.1003   30.4664   48.6425 H   0  0  0  0  0  0  0  0  0  0  0  0
   59.1421   31.8235   47.9355 H   0  0  0  0  0  0  0  0  0  0  0  0
   61.2570   32.0020   47.7010 C   0  0  0  0  0  0  0  0  0  0  0  0
   62.4000   31.6420   48.4370 C   0  0  0  0  0  0  0  0  0  0  0  0
   62.3739   30.7529   49.0842 H   0  0  0  0  0  0  0  0  0  0  0  0
   63.5770   32.4090   48.3530 C   0  0  0  0  0  0  0  0  0  0  0  0
   64.7430   32.0760   49.0580 O   0  0  0  0  0  0  0  0  0  0  0  0
   65.3870   32.9300   49.9990 C   0  0  0  0  0  0  0  0  0  0  0  0
   65.1403   32.6029   51.0198 H   0  0  0  0  0  0  0  0  0  0  0  0
   66.4761   32.8825   49.8519 H   0  0  0  0  0  0  0  0  0  0  0  0
   65.0419   33.9640   49.8519 H   0  0  0  0  0  0  0  0  0  0  0  0
   63.5950   33.5430   47.5390 C   0  0  0  0  0  0  0  0  0  0  0  0
   64.5113   34.1475   47.4680 H   0  0  0  0  0  0  0  0  0  0  0  0
   62.4620   33.9180   46.8140 C   0  0  0  0  0  0  0  0  0  0  0  0
   62.4919   34.8163   46.1799 H   0  0  0  0  0  0  0  0  0  0  0  0
   61.2830   33.1550   46.8890 C   0  0  0  0  0  0  0  0  0  0  0  0
   60.1240   33.5100   46.1780 O   0  0  0  0  0  0  0  0  0  0  0  0
   59.7720   34.8430   45.8200 C   0  0  0  0  0  0  0  0  0  0  0  0
   59.6148   35.4381   46.7316 H   0  0  0  0  0  0  0  0  0  0  0  0
   60.5830   35.2894   45.2259 H   0  0  0  0  0  0  0  0  0  0  0  0
   58.8463   34.8308   45.2259 H   0  0  0  0  0  0  0  0  0  0  0  0
   55.4980   25.5330   45.8160 C   0  0  0  0  0  0  0  0  0  0  0  0
   54.3810   26.3410   45.9840 O   0  0  0  0  0  0  0  0  0  0  0  0
   55.3120   24.2400   45.3170 C   0  0  0  0  0  0  0  0  0  0  0  0
   54.2944   23.8638   45.1355 H   0  0  0  0  0  0  0  0  0  0  0  0
   56.4100   23.4270   45.0490 C   0  0  0  0  0  0  0  0  0  0  0  0
   56.2659   22.4076   44.6616 H   0  0  0  0  0  0  0  0  0  0  0  0
  1  2  1  0
  2  3  1  0
  3  4  1  0
  4  5  2  3
  5  6  1  0
  6  7  2  0
  6  8  1  0
  8  9  2  0
  9 10  1  0
  9 11  1  0
 11 12  1  0
 11 13  2  0
 13 14  1  0
 13 15  1  0
 15 16  1  0
 15 17  1  0
 17 18  2  0
 18 19  1  0
 19 20  1  0
 19 21  1  0
 19 22  1  0
 22 23  2  0
 23 24  1  0
 23 25  1  0
 25 26  1  0
 26 27  1  0
 27 28  1  0
 27 29  1  0
 27 30  1  0
 25 31  2  0
 31 32  1  0
 31 33  1  0
 33 34  1  0
 33 35  2  0
 35 36  1  0
 36 37  1  0
 37 38  1  0
 37 39  1  0
 37 40  1  0
  4 41  1  0
 41 42  1  0
 41 43  2  0
 43 44  1  0
 43 45  1  0
 45 46  1  0
 45  2  2  0
 17  8  1  0
 35 22  1  0
M  CHG  2   3  -1  42  -1
M  END
>  <UniqueID>  (22) 
21

>  <SMILES>  (22) 
COc1ccc(OC)c(C/N=c2\[nH]cccc2C(=O)N=c2[n-]cccc2[O-])c1

>  <Energy>  (22) 
64.73729193186811

>  <Genealogy>  (22) 
COc1ccc(OC)c(CN=c2[nH]cccc2C(=O)N=c2[n-]cccc2[O-])c1 (protonated)
COc1ccc(OC)c(C/N=c2\[nH]cccc2C(=O)N=c2[n-]cccc2[O-])c1 (cis-trans isomerization)
COc1ccc(OC)c(C/N=c2\[nH]cccc2C(=O)N=c2[n-]cccc2[O-])c1 (3D coordinates assigned)
COc1ccc(OC)c(C/N=c2\[nH]cccc2C(=O)N=c2[n-]cccc2[O-])c1 (optimized conformer: 64.73729193186811 kcal/mol)

>  <smiles>  (22) 
COc1ccc(OC)c(CN=c2[nH]cccc2C(=O)N=c2[nH]cccc2O)c1

>  <score_type>  (22) 
oracle

>  <origin>  (22) 
adg

>  <m_score__min__energy>  (22) 
-12.17

>  <m_primary>  (22) 
energy

$$$$
22:0
     RDKit          3D

 31 32  0  0  0  0  0  0  0  0999 V2000
   57.6288   32.5421   42.8680 H   0  0  0  0  0  0  0  0  0  0  0  0
   57.3910   31.7310   43.5720 C   0  0  0  0  0  0  0  0  0  0  0  0
   56.8770   30.1820   43.1580 S   0  0  0  0  0  0  0  0  0  0  0  0
   56.7850   29.6790   44.7560 C   0  0  0  0  0  0  0  0  0  0  0  0
   56.4060   28.4900   45.1160 N   0  0  0  0  0  0  0  0  0  0  0  0
   57.1950   27.5610   45.8750 C   0  0  0  0  0  0  0  0  0  0  0  0
   58.2190   27.9850   46.4730 O   0  0  0  0  0  0  0  0  0  0  0  0
   56.8210   26.1380   46.0140 C   0  0  0  0  0  0  0  0  0  0  0  0
   55.5410   25.6160   46.0430 C   0  0  0  0  0  0  0  0  0  0  0  0
   54.3570   26.3390   45.9850 O   0  0  0  0  0  0  0  0  0  0  0  0
   55.6400   24.2430   46.1390 C   0  0  0  0  0  0  0  0  0  0  0  0
   54.7924   23.5432   46.1832 H   0  0  0  0  0  0  0  0  0  0  0  0
   56.9440   23.8970   46.1700 N   0  0  0  0  0  0  0  0  0  0  0  0
   57.4730   22.5390   46.1780 C   0  0  0  0  0  0  0  0  0  0  0  0
   57.6040   22.2027   47.2171 H   0  0  0  0  0  0  0  0  0  0  0  0
   56.7702   21.8687   45.6615 H   0  0  0  0  0  0  0  0  0  0  0  0
   58.4440   22.5207   45.6615 H   0  0  0  0  0  0  0  0  0  0  0  0
   57.6600   25.0370   46.0680 C   0  0  0  0  0  0  0  0  0  0  0  0
   59.0480   25.0720   45.9880 O   0  0  0  0  0  0  0  0  0  0  0  0
   57.1210   30.6640   45.6180 N   0  0  0  0  0  0  0  0  0  0  0  0
   57.4630   31.8070   44.9660 C   0  0  0  0  0  0  0  0  0  0  0  0
   57.9090   33.0320   45.7190 C   0  0  0  0  0  0  0  0  0  0  0  0
   57.1831   33.2206   46.5237 H   0  0  0  0  0  0  0  0  0  0  0  0
   57.9240   34.2650   44.8080 C   0  0  0  0  0  0  0  0  0  0  0  0
   57.9351   35.1761   45.4243 H   0  0  0  0  0  0  0  0  0  0  0  0
   58.8219   34.2409   44.1730 H   0  0  0  0  0  0  0  0  0  0  0  0
   57.0258   34.2627   44.1730 H   0  0  0  0  0  0  0  0  0  0  0  0
   59.2810   32.8040   46.3610 C   0  0  0  0  0  0  0  0  0  0  0  0
   59.1806   32.8207   47.4563 H   0  0  0  0  0  0  0  0  0  0  0  0
   59.6766   31.8278   46.0439 H   0  0  0  0  0  0  0  0  0  0  0  0
   59.9710   33.5998   46.0439 H   0  0  0  0  0  0  0  0  0  0  0  0
  1  2  1  0
  2  3  1  0
  3  4  1  0
  4  5  2  0
  5  6  1  0
  6  7  2  0
  6  8  1  0
  8  9  1  0
  9 10  1  0
  9 11  2  0
 11 12  1  0
 11 13  1  0
 13 14  1  0
 14 15  1  0
 14 16  1  0
 14 17  1  0
 13 18  1  0
 18 19  1  0
  4 20  1  0
 20 21  1  0
 21 22  1  0
 22 23  1  0
 22 24  1  0
 24 25  1  0
 24 26  1  0
 24 27  1  0
 22 28  1  0
 28 29  1  0
 28 30  1  0
 28 31  1  0
 21  2  2  0
 18  8  2  0
M  CHG  3  10  -1  19  -1  20  -1
M  END
>  <UniqueID>  (23) 
22

>  <SMILES>  (23) 
CC(C)c1cs/c(=N/C(=O)c2c([O-])cn(C)c2[O-])[n-]1

>  <Energy>  (23) 
90.27887298521641

>  <Genealogy>  (23) 
CC(C)c1csc(=NC(=O)c2c([O-])cn(C)c2[O-])[n-]1 (protonated)
CC(C)c1cs/c(=N/C(=O)c2c([O-])cn(C)c2[O-])[n-]1 (cis-trans isomerization)
CC(C)c1cs/c(=N/C(=O)c2c([O-])cn(C)c2[O-])[n-]1 (3D coordinates assigned)
CC(C)c1cs/c(=N/C(=O)c2c([O-])cn(C)c2[O-])[n-]1 (optimized conformer: 90.27887298521641 kcal/mol)

>  <smiles>  (23) 
CC(C)c1csc(=NC(=O)c2c(O)cn(C)c2O)[nH]1

>  <score_type>  (23) 
oracle

>  <origin>  (23) 
adg

>  <m_score__min__energy>  (23) 
-13.35

>  <m_primary>  (23) 
energy

$$$$
23:0
     RDKit          3D

 78 83  0  0  0  0  0  0  0  0999 V2000
   59.4940   34.9590   47.6130 C   0  0  0  0  0  0  0  0  0  0  0  0
   59.0210   34.0930   46.5230 N   0  0  0  0  0  0  0  0  0  0  0  0
   57.6790   33.5540   46.8260 C   0  0  0  0  0  0  0  0  0  0  0  0
   56.9130   33.0720   45.5710 C   0  0  0  0  0  0  0  0  0  0  0  0
   57.7930   32.8040   44.4160 N   0  0  0  0  0  0  0  0  0  0  0  0
   58.1210   31.3900   44.1280 C   0  0  0  0  0  0  0  0  0  0  0  0
   56.9790   30.3910   44.4040 C   0  0  0  0  0  0  0  0  0  0  0  0
   57.4580   29.0870   45.0530 C   0  0  0  0  0  0  0  0  0  0  0  0
   58.9670   29.1140   45.3090 C   0  0  0  0  0  0  0  0  0  0  0  0
   59.2330   29.6510   46.6410 N   0  0  0  0  0  0  0  0  0  0  0  0
   58.8620   29.0930   47.8220 C   0  0  0  0  0  0  0  0  0  0  0  0
   58.2690   27.8440   47.9560 O   0  0  0  0  0  0  0  0  0  0  0  0
   59.1290   29.9740   48.8410 C   0  0  0  0  0  0  0  0  0  0  0  0
   59.6770   31.0760   48.2980 C   0  0  0  0  0  0  0  0  0  0  0  0
   59.7100   30.8890   46.9340 C   0  0  0  0  0  0  0  0  0  0  0  0
   60.1200   31.8220   45.9860 O   0  0  0  0  0  0  0  0  0  0  0  0
   59.8830   32.1800   49.2800 C   0  0  2  0  0  0  0  0  0  0  0  0
   61.3480   32.3890   49.6220 C   0  0  0  0  0  0  0  0  0  0  0  0
   61.8280   33.6980   49.8000 C   0  0  0  0  0  0  0  0  0  0  0  0
   63.1650   33.9250   50.1450 C   0  0  0  0  0  0  0  0  0  0  0  0
   64.0340   32.8460   50.3260 C   0  0  0  0  0  0  0  0  0  0  0  0
   65.7110   33.1310   50.7580 Cl  0  0  0  0  0  0  0  0  0  0  0  0
   63.5660   31.5400   50.1670 C   0  0  0  0  0  0  0  0  0  0  0  0
   62.2310   31.3090   49.8220 C   0  0  0  0  0  0  0  0  0  0  0  0
   59.0250   31.6200   50.4570 C   0  0  2  0  0  0  0  0  0  0  0  0
   59.3300   31.9640   51.9150 C   0  0  0  0  0  0  0  0  0  0  0  0
   58.6820   30.8960   52.8400 C   0  0  0  0  0  0  0  0  0  0  0  0
   57.5250   30.0710   52.1550 C   0  0  1  0  0  0  0  0  0  0  0  0
   56.2520   30.8760   52.0820 C   0  0  0  0  0  0  0  0  0  0  0  0
   56.2630   32.1010   52.3870 O   0  0  0  0  0  0  0  0  0  0  0  0
   55.0160   30.2210   51.7710 N   0  0  0  0  0  0  0  0  0  0  0  0
   53.7010   30.7610   51.9590 C   0  0  0  0  0  0  0  0  0  0  0  0
   53.1410   30.7370   53.2440 C   0  0  0  0  0  0  0  0  0  0  0  0
   51.8460   31.2200   53.4590 C   0  0  0  0  0  0  0  0  0  0  0  0
   51.0990   31.7210   52.3900 C   0  0  0  0  0  0  0  0  0  0  0  0
   51.6430   31.7340   51.1020 C   0  0  0  0  0  0  0  0  0  0  0  0
   52.9370   31.2500   50.8830 C   0  0  0  0  0  0  0  0  0  0  0  0
   57.8190   29.5350   50.8510 O   0  0  0  0  0  0  0  0  0  0  0  0
   59.0000   30.0820   50.3040 C   0  0  1  0  0  0  0  0  0  0  0  0
   58.8300   33.8110   44.1040 C   0  0  0  0  0  0  0  0  0  0  0  0
   59.0300   34.8150   45.2430 C   0  0  0  0  0  0  0  0  0  0  0  0
   59.2434   34.5002   48.5808 H   0  0  0  0  0  0  0  0  0  0  0  0
   60.5845   35.0818   47.5368 H   0  0  0  0  0  0  0  0  0  0  0  0
   59.0080   35.9429   47.5368 H   0  0  0  0  0  0  0  0  0  0  0  0
   57.7921   32.7030   47.5138 H   0  0  0  0  0  0  0  0  0  0  0  0
   57.0929   34.3722   47.2700 H   0  0  0  0  0  0  0  0  0  0  0  0
   56.3769   32.1453   45.8238 H   0  0  0  0  0  0  0  0  0  0  0  0
   56.2277   33.8808   45.2773 H   0  0  0  0  0  0  0  0  0  0  0  0
   58.3943   31.3119   43.0654 H   0  0  0  0  0  0  0  0  0  0  0  0
   58.9411   31.1180   44.8088 H   0  0  0  0  0  0  0  0  0  0  0  0
   56.2517   30.8692   45.0766 H   0  0  0  0  0  0  0  0  0  0  0  0
   56.5345   30.1277   43.4329 H   0  0  0  0  0  0  0  0  0  0  0  0
   56.9346   28.9502   46.0108 H   0  0  0  0  0  0  0  0  0  0  0  0
   57.2374   28.2563   44.3665 H   0  0  0  0  0  0  0  0  0  0  0  0
   59.3674   28.0917   45.2407 H   0  0  0  0  0  0  0  0  0  0  0  0
   59.4519   29.7529   44.5562 H   0  0  0  0  0  0  0  0  0  0  0  0
   59.5170   32.5910   45.7200 H   0  0  0  0  0  0  0  0  0  0  0  0
   59.5934   33.1865   48.9437 H   0  0  0  0  0  0  0  0  0  0  0  0
   61.1468   34.5514   49.6670 H   0  0  0  0  0  0  0  0  0  0  0  0
   63.5322   34.9539   50.2738 H   0  0  0  0  0  0  0  0  0  0  0  0
   64.2495   30.6907   50.3136 H   0  0  0  0  0  0  0  0  0  0  0  0
   61.8674   30.2773   49.7059 H   0  0  0  0  0  0  0  0  0  0  0  0
   58.0723   32.1542   50.3264 H   0  0  0  0  0  0  0  0  0  0  0  0
   60.4189   31.9731   52.0706 H   0  0  0  0  0  0  0  0  0  0  0  0
   58.9199   32.9564   52.1535 H   0  0  0  0  0  0  0  0  0  0  0  0
   59.4658   30.1933   53.1590 H   0  0  0  0  0  0  0  0  0  0  0  0
   58.2300   31.4379   53.6838 H   0  0  0  0  0  0  0  0  0  0  0  0
   57.4062   29.1999   52.8161 H   0  0  0  0  0  0  0  0  0  0  0  0
   53.7228   30.3364   54.0872 H   0  0  0  0  0  0  0  0  0  0  0  0
   51.4152   31.2053   54.4710 H   0  0  0  0  0  0  0  0  0  0  0  0
   50.0827   32.1053   52.5616 H   0  0  0  0  0  0  0  0  0  0  0  0
   51.0528   32.1252   50.2602 H   0  0  0  0  0  0  0  0  0  0  0  0
   53.3586   31.2516   49.8670 H   0  0  0  0  0  0  0  0  0  0  0  0
   59.7758   29.5164   50.8408 H   0  0  0  0  0  0  0  0  0  0  0  0
   59.7821   33.2921   43.9192 H   0  0  0  0  0  0  0  0  0  0  0  0
   58.4977   34.3712   43.2175 H   0  0  0  0  0  0  0  0  0  0  0  0
   59.9940   35.3295   45.1163 H   0  0  0  0  0  0  0  0  0  0  0  0
   58.2198   35.5589   45.2298 H   0  0  0  0  0  0  0  0  0  0  0  0
  1  2  1  0
  2  3  1  0
  3  4  1  0
  4  5  1  0
  5  6  1  0
  6  7  1  0
  7  8  1  0
  8  9  1  0
  9 10  1  0
 10 11  1  0
 11 12  1  0
 11 13  2  0
 13 14  1  0
 14 15  2  0
 15 16  1  0
 14 17  1  0
 17 18  1  0
 18 19  2  0
 19 20  1  0
 20 21  2  0
 21 22  1  0
 21 23  1  0
 23 24  2  0
 17 25  1  0
 25 26  1  0
 26 27  1  0
 27 28  1  0
 28 29  1  0
 29 30  2  0
 29 31  1  0
 31 32  1  0
 32 33  2  0
 33 34  1  0
 34 35  2  0
 35 36  1  0
 36 37  2  0
 28 38  1  0
 38 39  1  0
  5 40  1  0
 40 41  1  0
 41  2  1  0
 15 10  1  0
 24 18  1  0
 39 25  1  0
 39 13  1  0
 37 32  1  0
  1 42  1  0
  1 43  1  0
  1 44  1  0
  3 45  1  0
  3 46  1  0
  4 47  1  0
  4 48  1  0
  6 49  1  0
  6 50  1  0
  7 51  1  0
  7 52  1  0
  8 53  1  0
  8 54  1  0
  9 55  1  0
  9 56  1  0
 16 57  1  0
 17 58  1  6
 19 59  1  0
 20 60  1  0
 23 61  1  0
 24 62  1  0
 25 63  1  6
 26 64  1  0
 26 65  1  0
 27 66  1  0
 27 67  1  0
 28 68  1  1
 33 69  1  0
 34 70  1  0
 35 71  1  0
 36 72  1  0
 37 73  1  0
 39 74  1  1
 40 75  1  0
 40 76  1  0
 41 77  1  0
 41 78  1  0
M  CHG  2  12  -1  31  -1
M  END
>  <UniqueID>  (24) 
23

>  <SMILES>  (24) 
CN1CCN(CCCCn2c([O-])c3c(c2O)[C@H](c2ccc(Cl)cc2)[C@@H]2CCC(C(=O)[N-]c4ccccc4)OC32)CC1

>  <Energy>  (24) 
171.38575189602582

>  <Genealogy>  (24) 
CN1CCN(CCCCn2c([O-])c3c(c2O)C(c2ccc(Cl)cc2)C2CCC(C(=O)[N-]c4ccccc4)OC32)CC1 (protonated)
CN1CCN(CCCCn2c([O-])c3c(c2O)[C@H](c2ccc(Cl)cc2)[C@@H]2CCC(C(=O)[N-]c4ccccc4)OC32)CC1 (chirality)
CN1CCN(CCCCn2c([O-])c3c(c2O)[C@H](c2ccc(Cl)cc2)[C@@H]2CCC(C(=O)[N-]c4ccccc4)OC32)CC1 (3D coordinates assigned)
CN1CCN(CCCCn2c([O-])c3c(c2O)[C@H](c2ccc(Cl)cc2)[C@@H]2CCC(C(=O)[N-]c4ccccc4)OC32)CC1 (nonaromatic ring conformer: 171.38575189602582 kcal/mol)

>  <smiles>  (24) 
CN1CCN(CCCCn2c(O)c3c(c2O)C(c2ccc(Cl)cc2)C2CCC(C(=O)Nc4ccccc4)OC32)CC1

>  <score_type>  (24) 
oracle

>  <origin>  (24) 
adg

>  <m_score__min__energy>  (24) 
-12.630000000000001

>  <m_primary>  (24) 
energy

$$$$
24:0
     RDKit          3D

 41 43  0  0  0  0  0  0  0  0999 V2000
   58.9050   34.6770   53.3420 C   0  0  0  0  0  0  0  0  0  0  0  0
   58.5250   34.2060   52.0550 O   0  0  0  0  0  0  0  0  0  0  0  0
   58.2970   32.8570   51.7710 C   0  0  0  0  0  0  0  0  0  0  0  0
   57.1810   32.2510   52.2650 N   0  0  0  0  0  0  0  0  0  0  0  0
   56.9040   30.9460   52.0240 C   0  0  0  0  0  0  0  0  0  0  0  0
   57.7830   30.1960   51.2500 C   0  0  0  0  0  0  0  0  0  0  0  0
   58.8990   30.7870   50.7510 N   0  0  0  0  0  0  0  0  0  0  0  0
   59.1960   32.0940   50.9800 C   0  0  0  0  0  0  0  0  0  0  0  0
   60.2950   32.5620   50.4530 N   0  0  0  0  0  0  0  0  0  0  0  0
   60.5150   33.5330   49.0290 S   0  0  0  0  0  0  0  0  0  0  0  0
   60.1860   34.9660   49.3430 O   0  0  0  0  0  0  0  0  0  0  0  0
   61.9280   33.4200   48.5290 O   0  0  0  0  0  0  0  0  0  0  0  0
   59.4270   32.9450   47.7760 C   0  0  0  0  0  0  0  0  0  0  0  0
   58.8910   33.8420   46.8430 C   0  0  0  0  0  0  0  0  0  0  0  0
   58.0170   33.3870   45.8510 C   0  0  0  0  0  0  0  0  0  0  0  0
   57.6820   32.0290   45.7700 C   0  0  0  0  0  0  0  0  0  0  0  0
   56.7710   31.6000   44.7470 N   0  0  0  0  0  0  0  0  0  0  0  0
   56.8490   30.3760   44.0030 C   0  0  0  0  0  0  0  0  0  0  0  0
   56.3170   30.3320   42.8620 O   0  0  0  0  0  0  0  0  0  0  0  0
   57.5930   29.1960   44.5090 C   0  0  0  0  0  0  0  0  0  0  0  0
   58.9930   29.1430   44.3820 C   0  0  0  0  0  0  0  0  0  0  0  0
   59.7040   28.0350   44.8470 C   0  0  0  0  0  0  0  0  0  0  0  0
   59.0290   26.9650   45.4350 C   0  0  0  0  0  0  0  0  0  0  0  0
   57.6380   26.9980   45.5620 C   0  0  0  0  0  0  0  0  0  0  0  0
   56.7380   25.5190   46.3780 Br  0  0  0  0  0  0  0  0  0  0  0  0
   56.9150   28.1090   45.1010 C   0  0  0  0  0  0  0  0  0  0  0  0
   55.5320   28.1340   45.2460 O   0  0  0  0  0  0  0  0  0  0  0  0
   58.1980   31.1350   46.7250 C   0  0  0  0  0  0  0  0  0  0  0  0
   59.0690   31.5910   47.7190 C   0  0  0  0  0  0  0  0  0  0  0  0
   58.4137   34.0680   54.1151 H   0  0  0  0  0  0  0  0  0  0  0  0
   59.9966   34.5997   53.4532 H   0  0  0  0  0  0  0  0  0  0  0  0
   58.5986   35.7276   53.4532 H   0  0  0  0  0  0  0  0  0  0  0  0
   55.9940   30.4854   52.4361 H   0  0  0  0  0  0  0  0  0  0  0  0
   57.5764   29.1354   51.0443 H   0  0  0  0  0  0  0  0  0  0  0  0
   59.1586   34.9079   46.8910 H   0  0  0  0  0  0  0  0  0  0  0  0
   57.5899   34.0995   45.1299 H   0  0  0  0  0  0  0  0  0  0  0  0
   59.5311   29.9801   43.9132 H   0  0  0  0  0  0  0  0  0  0  0  0
   60.7993   28.0057   44.7495 H   0  0  0  0  0  0  0  0  0  0  0  0
   59.5930   26.0937   45.7993 H   0  0  0  0  0  0  0  0  0  0  0  0
   57.9152   30.0726   46.6898 H   0  0  0  0  0  0  0  0  0  0  0  0
   59.4746   30.8850   48.4586 H   0  0  0  0  0  0  0  0  0  0  0  0
  1  2  1  0
  2  3  1  0
  3  4  2  0
  4  5  1  0
  5  6  2  0
  6  7  1  0
  7  8  1  0
  8  9  2  3
  9 10  1  0
 10 11  2  0
 10 12  2  0
 10 13  1  0
 13 14  2  0
 14 15  1  0
 15 16  2  0
 16 17  1  0
 17 18  1  0
 18 19  2  0
 18 20  1  0
 20 21  2  0
 21 22  1  0
 22 23  2  0
 23 24  1  0
 24 25  1  0
 24 26  2  0
 26 27  1  0
 16 28  1  0
 28 29  2  0
  8  3  1  0
 29 13  1  0
 26 20  1  0
  1 30  1  0
  1 31  1  0
  1 32  1  0
  5 33  1  0
  6 34  1  0
 14 35  1  0
 15 36  1  0
 21 37  1  0
 22 38  1  0
 23 39  1  0
 28 40  1  0
 29 41  1  0
M  CHG  3   7  -1  17  -1  27  -1
M  END
>  <UniqueID>  (25) 
24

>  <SMILES>  (25) 
COc1ncc[n-]c1=NS(=O)(=O)c1ccc([N-]C(=O)c2cccc(Br)c2[O-])cc1

>  <Energy>  (25) 
62.224881383315164

>  <Genealogy>  (25) 
COc1ncc[n-]c1=NS(=O)(=O)c1ccc([N-]C(=O)c2cccc(Br)c2[O-])cc1 (protonated)
COc1ncc[n-]c1=NS(=O)(=O)c1ccc([N-]C(=O)c2cccc(Br)c2[O-])cc1 (3D coordinates assigned)
COc1ncc[n-]c1=NS(=O)(=O)c1ccc([N-]C(=O)c2cccc(Br)c2[O-])cc1 (optimized conformer: 62.224881383315164 kcal/mol)

>  <smiles>  (25) 
COc1ncc[nH]c1=NS(=O)(=O)c1ccc(NC(=O)c2cccc(Br)c2O)cc1

>  <score_type>  (25) 
oracle

>  <origin>  (25) 
adg

>  <m_score__min__energy>  (25) 
-15

>  <m_primary>  (25) 
energy

$$$$
25:0
     RDKit          3D

 58 61  0  0  0  0  0  0  0  0999 V2000
   57.4550   33.1060   47.3300 O   0  0  0  0  0  0  0  0  0  0  0  0
   58.7050   32.9470   47.2930 C   0  0  0  0  0  0  0  0  0  0  0  0
   59.5490   33.9640   47.8420 N   0  0  0  0  0  0  0  0  0  0  0  0
   60.9840   33.9640   47.8760 C   0  0  0  0  0  0  0  0  0  0  0  0
   61.6310   34.2810   49.0780 C   0  0  0  0  0  0  0  0  0  0  0  0
   63.0270   34.2360   49.1630 C   0  0  0  0  0  0  0  0  0  0  0  0
   63.7850   33.8610   48.0500 C   0  0  0  0  0  0  0  0  0  0  0  0
   63.1480   33.5200   46.8540 C   0  0  0  0  0  0  0  0  0  0  0  0
   61.7530   33.5620   46.7670 C   0  0  0  0  0  0  0  0  0  0  0  0
   59.2690   31.7690   46.7000 N   0  0  0  0  0  0  0  0  0  0  0  0
   58.8150   30.4190   46.8960 C   0  0  0  0  0  0  0  0  0  0  0  0
   57.9980   29.7800   45.9450 C   0  0  0  0  0  0  0  0  0  0  0  0
   57.6000   28.4540   46.1320 C   0  0  0  0  0  0  0  0  0  0  0  0
   58.0260   27.7460   47.2560 C   0  0  0  0  0  0  0  0  0  0  0  0
   58.8540   28.3590   48.1980 C   0  0  0  0  0  0  0  0  0  0  0  0
   59.2510   29.6950   48.0290 C   0  0  0  0  0  0  0  0  0  0  0  0
   60.1300   30.3190   49.0470 C   0  0  0  0  0  0  0  0  0  0  0  0
   61.5190   30.2820   48.8350 C   0  0  0  0  0  0  0  0  0  0  0  0
   62.3880   30.9230   49.7170 C   0  0  0  0  0  0  0  0  0  0  0  0
   61.8850   31.6090   50.8220 C   0  0  0  0  0  0  0  0  0  0  0  0
   60.5090   31.6450   51.0560 C   0  0  0  0  0  0  0  0  0  0  0  0
   59.6150   30.9940   50.1860 C   0  0  0  0  0  0  0  0  0  0  0  0
   58.1640   31.0510   50.4850 C   0  0  0  0  0  0  0  0  0  0  0  0
   57.4670   32.0270   50.0970 O   0  0  0  0  0  0  0  0  0  0  0  0
   57.5540   29.9980   51.2340 N   0  0  0  0  0  0  0  0  0  0  0  0
   56.6350   30.2350   52.3410 C   0  0  0  0  0  0  0  0  0  0  0  0
   55.9630   28.9230   52.7460 C   0  0  0  0  0  0  0  0  0  0  0  0
   54.6070   28.8350   52.1990 N   0  0  0  0  0  0  0  0  0  0  0  0
   53.6580   29.8970   52.3650 C   0  0  0  0  0  0  0  0  0  0  0  0
   53.9280   30.8820   53.1010 O   0  0  0  0  0  0  0  0  0  0  0  0
   52.3120   29.8110   51.7100 C   0  0  0  0  0  0  0  0  0  0  0  0
   51.4970   31.0180   52.0510 C   0  0  0  0  0  0  0  0  0  0  0  0
   51.4980   32.2140   51.3720 C   0  0  0  0  0  0  0  0  0  0  0  0
   50.6770   33.0710   52.0040 N   0  0  0  0  0  0  0  0  0  0  0  0
   50.2100   32.3650   53.0580 C   0  0  0  0  0  0  0  0  0  0  0  0
   50.6940   31.1080   53.1260 N   0  0  0  0  0  0  0  0  0  0  0  0
   61.0382   34.5667   49.9595 H   0  0  0  0  0  0  0  0  0  0  0  0
   63.5285   34.4960   50.1068 H   0  0  0  0  0  0  0  0  0  0  0  0
   64.8827   33.8344   48.1157 H   0  0  0  0  0  0  0  0  0  0  0  0
   63.7443   33.2183   45.9803 H   0  0  0  0  0  0  0  0  0  0  0  0
   61.2542   33.2798   45.8281 H   0  0  0  0  0  0  0  0  0  0  0  0
   57.6708   30.3279   45.0490 H   0  0  0  0  0  0  0  0  0  0  0  0
   56.9490   27.9669   45.3911 H   0  0  0  0  0  0  0  0  0  0  0  0
   57.7088   26.7026   47.4003 H   0  0  0  0  0  0  0  0  0  0  0  0
   59.1969   27.7928   49.0765 H   0  0  0  0  0  0  0  0  0  0  0  0
   61.9239   29.7428   47.9659 H   0  0  0  0  0  0  0  0  0  0  0  0
   63.4732   30.8875   49.5408 H   0  0  0  0  0  0  0  0  0  0  0  0
   62.5730   32.1223   51.5099 H   0  0  0  0  0  0  0  0  0  0  0  0
   60.1197   32.1881   51.9298 H   0  0  0  0  0  0  0  0  0  0  0  0
   57.1928   30.6395   53.1985 H   0  0  0  0  0  0  0  0  0  0  0  0
   55.8654   30.9553   52.0264 H   0  0  0  0  0  0  0  0  0  0  0  0
   56.5596   28.0811   52.3649 H   0  0  0  0  0  0  0  0  0  0  0  0
   55.9003   28.8865   53.8436 H   0  0  0  0  0  0  0  0  0  0  0  0
   54.3000   27.9700   51.6970 H   0  0  0  0  0  0  0  0  0  0  0  0
   52.4411   29.7554   50.6190 H   0  0  0  0  0  0  0  0  0  0  0  0
   51.7922   28.9115   52.0715 H   0  0  0  0  0  0  0  0  0  0  0  0
   52.0754   32.4334   50.4618 H   0  0  0  0  0  0  0  0  0  0  0  0
   49.5015   32.7772   53.7916 H   0  0  0  0  0  0  0  0  0  0  0  0
  1  2  2  0
  2  3  1  0
  3  4  1  0
  4  5  2  0
  5  6  1  0
  6  7  2  0
  7  8  1  0
  8  9  2  0
  2 10  1  0
 10 11  1  0
 11 12  2  0
 12 13  1  0
 13 14  2  0
 14 15  1  0
 15 16  2  0
 16 17  1  0
 17 18  2  0
 18 19  1  0
 19 20  2  0
 20 21  1  0
 21 22  2  0
 22 23  1  0
 23 24  2  0
 23 25  1  0
 25 26  1  0
 26 27  1  0
 27 28  1  0
 28 29  1  0
 29 30  2  0
 29 31  1  0
 31 32  1  0
 32 33  2  0
 33 34  1  0
 34 35  1  0
 35 36  2  0
  9  4  1  0
 16 11  1  0
 22 17  1  0
 36 32  1  0
  5 37  1  0
  6 38  1  0
  7 39  1  0
  8 40  1  0
  9 41  1  0
 12 42  1  0
 13 43  1  0
 14 44  1  0
 15 45  1  0
 18 46  1  0
 19 47  1  0
 20 48  1  0
 21 49  1  0
 26 50  1  0
 26 51  1  0
 27 52  1  0
 27 53  1  0
 28 54  1  0
 31 55  1  0
 31 56  1  0
 33 57  1  0
 35 58  1  0
M  CHG  4   3  -1  10  -1  25  -1  34  -1
M  END
>  <UniqueID>  (26) 
25

>  <SMILES>  (26) 
O=C([N-]c1ccccc1)[N-]c1ccccc1-c1ccccc1C(=O)[N-]CCNC(=O)Cc1c[n-]cn1

>  <Energy>  (26) 
91.73292598062261

>  <Genealogy>  (26) 
O=C([N-]c1ccccc1)[N-]c1ccccc1-c1ccccc1C(=O)[N-]CCNC(=O)Cc1c[n-]cn1 (protonated)
O=C([N-]c1ccccc1)[N-]c1ccccc1-c1ccccc1C(=O)[N-]CCNC(=O)Cc1c[n-]cn1 (3D coordinates assigned)
O=C([N-]c1ccccc1)[N-]c1ccccc1-c1ccccc1C(=O)[N-]CCNC(=O)Cc1c[n-]cn1 (optimized conformer: 91.73292598062261 kcal/mol)

>  <smiles>  (26) 
O=C(Cc1c[nH]cn1)NCCNC(=O)c1ccccc1-c1ccccc1NC(=O)Nc1ccccc1

>  <score_type>  (26) 
oracle

>  <origin>  (26) 
adg

>  <m_score__min__energy>  (26) 
-16.09

>  <m_primary>  (26) 
energy

$$$$
26:0
     RDKit          3D

 43 45  0  0  0  0  0  0  0  0999 V2000
   54.5210   29.0620   52.1420 O   0  0  0  0  0  0  0  0  0  0  0  0
   54.5230   30.2780   51.8090 C   0  0  0  0  0  0  0  0  0  0  0  0
   53.2890   30.8860   51.2270 C   0  0  0  0  0  0  0  0  0  0  0  0
   52.3510   31.2930   52.3320 C   0  0  0  0  0  0  0  0  0  0  0  0
   52.5770   30.8350   53.6420 C   0  0  0  0  0  0  0  0  0  0  0  0
   51.7280   31.2210   54.6830 C   0  0  0  0  0  0  0  0  0  0  0  0
   50.6520   32.0740   54.4280 C   0  0  0  0  0  0  0  0  0  0  0  0
   50.4330   32.5580   53.1370 C   0  0  0  0  0  0  0  0  0  0  0  0
   51.2790   32.1750   52.0890 C   0  0  0  0  0  0  0  0  0  0  0  0
   51.0490   32.6770   50.8120 O   0  0  0  0  0  0  0  0  0  0  0  0
   55.6900   31.0860   51.9970 N   0  0  0  0  0  0  0  0  0  0  0  0
   57.0340   30.7020   51.6800 C   0  0  0  0  0  0  0  0  0  0  0  0
   57.6750   29.7570   52.4850 C   0  0  0  0  0  0  0  0  0  0  0  0
   58.9710   29.3360   52.1820 C   0  0  0  0  0  0  0  0  0  0  0  0
   59.6370   29.8320   51.0560 C   0  0  0  0  0  0  0  0  0  0  0  0
   60.9390   29.3870   50.8160 O   0  0  0  0  0  0  0  0  0  0  0  0
   58.9830   30.7550   50.2070 C   0  0  0  0  0  0  0  0  0  0  0  0
   59.7470   31.3580   48.7290 S   0  0  0  0  0  0  0  0  0  0  0  0
   61.2130   31.6010   48.9600 O   0  0  0  0  0  0  0  0  0  0  0  0
   59.0900   32.6500   48.3340 O   0  0  0  0  0  0  0  0  0  0  0  0
   59.5670   30.2310   47.4210 N   0  0  0  0  0  0  0  0  0  0  0  0
   58.5850   30.3130   46.3790 C   0  0  0  0  0  0  0  0  0  0  0  0
   58.6830   31.3510   45.4440 C   0  0  0  0  0  0  0  0  0  0  0  0
   57.7470   31.4660   44.4130 C   0  0  0  0  0  0  0  0  0  0  0  0
   56.7020   30.5450   44.3100 C   0  0  0  0  0  0  0  0  0  0  0  0
   56.5830   29.5160   45.2470 C   0  0  0  0  0  0  0  0  0  0  0  0
   55.5320   28.6110   45.1540 O   0  0  0  0  0  0  0  0  0  0  0  0
   57.5200   29.3960   46.2790 C   0  0  0  0  0  0  0  0  0  0  0  0
   57.6890   31.1910   50.5380 C   0  0  0  0  0  0  0  0  0  0  0  0
   53.5626   31.7721   50.6354 H   0  0  0  0  0  0  0  0  0  0  0  0
   52.7907   30.1483   50.5809 H   0  0  0  0  0  0  0  0  0  0  0  0
   53.4274   30.1687   53.8489 H   0  0  0  0  0  0  0  0  0  0  0  0
   51.9074   30.8527   55.7038 H   0  0  0  0  0  0  0  0  0  0  0  0
   49.9761   32.3649   55.2456 H   0  0  0  0  0  0  0  0  0  0  0  0
   49.5937   33.2420   52.9425 H   0  0  0  0  0  0  0  0  0  0  0  0
   57.1559   29.3427   53.3619 H   0  0  0  0  0  0  0  0  0  0  0  0
   59.4735   28.6072   52.8349 H   0  0  0  0  0  0  0  0  0  0  0  0
   61.5430   29.7920   50.1130 H   0  0  0  0  0  0  0  0  0  0  0  0
   59.5024   32.0807   45.5218 H   0  0  0  0  0  0  0  0  0  0  0  0
   57.8332   32.2830   43.6815 H   0  0  0  0  0  0  0  0  0  0  0  0
   55.9727   30.6300   43.4909 H   0  0  0  0  0  0  0  0  0  0  0  0
   57.4250   28.5835   47.0144 H   0  0  0  0  0  0  0  0  0  0  0  0
   57.1823   31.9250   49.8942 H   0  0  0  0  0  0  0  0  0  0  0  0
  1  2  2  0
  2  3  1  0
  3  4  1  0
  4  5  2  0
  5  6  1  0
  6  7  2  0
  7  8  1  0
  8  9  2  0
  9 10  1  0
  2 11  1  0
 11 12  1  0
 12 13  2  0
 13 14  1  0
 14 15  2  0
 15 16  1  0
 15 17  1  0
 17 18  1  0
 18 19  2  0
 18 20  2  0
 18 21  1  0
 21 22  1  0
 22 23  2  0
 23 24  1  0
 24 25  2  0
 25 26  1  0
 26 27  1  0
 26 28  2  0
 17 29  2  0
  9  4  1  0
 29 12  1  0
 28 22  1  0
  3 30  1  0
  3 31  1  0
  5 32  1  0
  6 33  1  0
  7 34  1  0
  8 35  1  0
 13 36  1  0
 14 37  1  0
 16 38  1  0
 23 39  1  0
 24 40  1  0
 25 41  1  0
 28 42  1  0
 29 43  1  0
M  CHG  4  10  -1  11  -1  21  -1  27  -1
M  END
>  <UniqueID>  (27) 
26

>  <SMILES>  (27) 
O=C(Cc1ccccc1[O-])[N-]c1ccc(O)c(S(=O)(=O)[N-]c2cccc([O-])c2)c1

>  <Energy>  (27) 
49.91776226781984

>  <Genealogy>  (27) 
O=C(Cc1ccccc1[O-])[N-]c1ccc(O)c(S(=O)(=O)[N-]c2cccc([O-])c2)c1 (protonated)
O=C(Cc1ccccc1[O-])[N-]c1ccc(O)c(S(=O)(=O)[N-]c2cccc([O-])c2)c1 (3D coordinates assigned)
O=C(Cc1ccccc1[O-])[N-]c1ccc(O)c(S(=O)(=O)[N-]c2cccc([O-])c2)c1 (optimized conformer: 49.91776226781984 kcal/mol)

>  <smiles>  (27) 
O=C(Cc1ccccc1O)Nc1ccc(O)c(S(=O)(=O)Nc2cccc(O)c2)c1

>  <score_type>  (27) 
oracle

>  <origin>  (27) 
adg

>  <m_score__min__energy>  (27) 
-17.57

>  <m_primary>  (27) 
energy

$$$$
27:0
     RDKit          3D

 76 79  0  0  0  0  0  0  0  0999 V2000
   55.7060   24.1070   44.3500 C   0  0  0  0  0  0  0  0  0  0  0  0
   55.5190   24.6690   46.0260 S   0  0  0  0  0  0  0  0  0  0  0  0
   55.1680   26.1280   45.9990 O   0  0  0  0  0  0  0  0  0  0  0  0
   54.4100   23.9180   46.7140 O   0  0  0  0  0  0  0  0  0  0  0  0
   57.0060   24.4660   46.8930 N   0  0  0  0  0  0  0  0  0  0  0  0
   58.2700   25.0060   46.4830 C   0  0  0  0  0  0  0  0  0  0  0  0
   59.1390   24.2320   46.0090 O   0  0  0  0  0  0  0  0  0  0  0  0
   58.5600   26.4440   46.5630 C   0  0  0  0  0  0  0  0  0  0  0  0
   58.2970   27.2670   45.4610 C   0  0  0  0  0  0  0  0  0  0  0  0
   58.5840   28.6300   45.5240 C   0  0  0  0  0  0  0  0  0  0  0  0
   59.1180   29.1940   46.6920 C   0  0  0  0  0  0  0  0  0  0  0  0
   59.4830   30.6600   46.7050 C   0  0  0  0  0  0  0  0  0  0  0  0
   60.9980   30.8290   46.5610 C   0  0  0  0  0  0  0  0  0  0  0  0
   61.5860   31.4400   47.7910 C   0  0  0  0  0  0  0  0  0  0  0  0
   62.8380   31.4660   47.9410 O   0  0  0  0  0  0  0  0  0  0  0  0
   60.7300   32.0360   48.7670 N   0  0  0  0  0  0  0  0  0  0  0  0
   60.1550   33.6620   48.6300 S   0  0  0  0  0  0  0  0  0  0  0  0
   59.3630   34.0190   49.8570 O   0  0  0  0  0  0  0  0  0  0  0  0
   61.3310   34.5950   48.5270 O   0  0  0  0  0  0  0  0  0  0  0  0
   59.1670   33.8280   47.1830 C   0  0  0  0  0  0  0  0  0  0  0  0
   59.6750   34.4580   46.0370 C   0  0  0  0  0  0  0  0  0  0  0  0
   58.8800   34.5820   44.8930 C   0  0  0  0  0  0  0  0  0  0  0  0
   57.5760   34.0760   44.8900 C   0  0  0  0  0  0  0  0  0  0  0  0
   57.0650   33.4520   46.0310 C   0  0  0  0  0  0  0  0  0  0  0  0
   57.8560   33.3290   47.1750 C   0  0  0  0  0  0  0  0  0  0  0  0
   59.4000   28.3700   47.8030 C   0  0  0  0  0  0  0  0  0  0  0  0
   59.9370   28.9610   48.9600 O   0  0  0  0  0  0  0  0  0  0  0  0
   59.2480   29.2060   50.1880 C   0  0  1  0  0  0  0  0  0  0  0  0
   60.2770   29.1820   51.3290 C   0  0  0  0  0  0  0  0  0  0  0  0
   61.0860   30.4960   51.4120 C   0  0  0  0  0  0  0  0  0  0  0  0
   60.2490   31.7310   51.3660 N   0  0  2  0  0  0  0  0  0  0  0  0
   60.6310   32.8580   52.6590 S   0  0  0  0  0  0  0  0  0  0  0  0
   60.0900   34.2110   52.2800 O   0  0  0  0  0  0  0  0  0  0  0  0
   59.9460   32.4220   53.9300 O   0  0  0  0  0  0  0  0  0  0  0  0
   62.3790   33.0660   53.0150 C   0  0  0  0  0  0  0  0  0  0  0  0
   63.2390   32.9770   51.7840 C   0  0  0  0  0  0  0  0  0  0  0  0
   64.1710   31.9350   51.6480 C   0  0  0  0  0  0  0  0  0  0  0  0
   64.9700   31.8470   50.5040 C   0  0  0  0  0  0  0  0  0  0  0  0
   64.8290   32.7860   49.4770 C   0  0  0  0  0  0  0  0  0  0  0  0
   63.8880   33.8130   49.5940 C   0  0  0  0  0  0  0  0  0  0  0  0
   63.0900   33.9070   50.7400 C   0  0  0  0  0  0  0  0  0  0  0  0
   58.7970   31.4690   51.3080 C   0  0  0  0  0  0  0  0  0  0  0  0
   58.4710   30.5430   50.1320 C   0  0  0  0  0  0  0  0  0  0  0  0
   59.1340   26.9880   47.7180 C   0  0  0  0  0  0  0  0  0  0  0  0
   56.0533   23.0633   44.3499 H   0  0  0  0  0  0  0  0  0  0  0  0
   54.7380   24.1714   43.8315 H   0  0  0  0  0  0  0  0  0  0  0  0
   56.4424   24.7385   43.8315 H   0  0  0  0  0  0  0  0  0  0  0  0
   57.8639   26.8381   44.5454 H   0  0  0  0  0  0  0  0  0  0  0  0
   58.3899   29.2688   44.6498 H   0  0  0  0  0  0  0  0  0  0  0  0
   58.9797   31.1672   45.8687 H   0  0  0  0  0  0  0  0  0  0  0  0
   59.1618   31.1014   47.6600 H   0  0  0  0  0  0  0  0  0  0  0  0
   61.4561   29.8429   46.3945 H   0  0  0  0  0  0  0  0  0  0  0  0
   61.1977   31.4946   45.7083 H   0  0  0  0  0  0  0  0  0  0  0  0
   60.7008   34.8553   46.0382 H   0  0  0  0  0  0  0  0  0  0  0  0
   59.2801   35.0773   43.9960 H   0  0  0  0  0  0  0  0  0  0  0  0
   56.9523   34.1694   43.9887 H   0  0  0  0  0  0  0  0  0  0  0  0
   56.0383   33.0572   46.0280 H   0  0  0  0  0  0  0  0  0  0  0  0
   57.4500   32.8394   48.0725 H   0  0  0  0  0  0  0  0  0  0  0  0
   58.4963   28.4226   50.3649 H   0  0  0  0  0  0  0  0  0  0  0  0
   60.9733   28.3472   51.1608 H   0  0  0  0  0  0  0  0  0  0  0  0
   59.7296   29.0617   52.2755 H   0  0  0  0  0  0  0  0  0  0  0  0
   61.7885   30.5231   50.5660 H   0  0  0  0  0  0  0  0  0  0  0  0
   61.5950   30.4940   52.3871 H   0  0  0  0  0  0  0  0  0  0  0  0
   60.4930   32.2450   50.4830 H   0  0  0  0  0  0  0  0  0  0  0  0
   62.5285   34.0527   53.4776 H   0  0  0  0  0  0  0  0  0  0  0  0
   62.6793   32.2499   53.6886 H   0  0  0  0  0  0  0  0  0  0  0  0
   64.2728   31.1844   52.4456 H   0  0  0  0  0  0  0  0  0  0  0  0
   65.7102   31.0385   50.4116 H   0  0  0  0  0  0  0  0  0  0  0  0
   65.4584   32.7163   48.5776 H   0  0  0  0  0  0  0  0  0  0  0  0
   63.7745   34.5486   48.7840 H   0  0  0  0  0  0  0  0  0  0  0  0
   62.3439   34.7109   50.8242 H   0  0  0  0  0  0  0  0  0  0  0  0
   58.2612   32.4211   51.1797 H   0  0  0  0  0  0  0  0  0  0  0  0
   58.4831   30.9834   52.2438 H   0  0  0  0  0  0  0  0  0  0  0  0
   58.7283   31.0600   49.1958 H   0  0  0  0  0  0  0  0  0  0  0  0
   57.3984   30.3051   50.1854 H   0  0  0  0  0  0  0  0  0  0  0  0
   59.3795   26.3320   48.5662 H   0  0  0  0  0  0  0  0  0  0  0  0
  1  2  1  0
  2  3  2  0
  2  4  2  0
  2  5  1  0
  5  6  1  0
  6  7  2  0
  6  8  1  0
  8  9  2  0
  9 10  1  0
 10 11  2  0
 11 12  1  0
 12 13  1  0
 13 14  1  0
 14 15  2  0
 14 16  1  0
 16 17  1  0
 17 18  2  0
 17 19  2  0
 17 20  1  0
 20 21  2  0
 21 22  1  0
 22 23  2  0
 23 24  1  0
 24 25  2  0
 11 26  1  0
 26 27  1  0
 27 28  1  0
 28 29  1  0
 29 30  1  0
 30 31  1  0
 31 32  1  0
 32 33  2  0
 32 34  2  0
 32 35  1  0
 35 36  1  0
 36 37  2  0
 37 38  1  0
 38 39  2  0
 39 40  1  0
 40 41  2  0
 31 42  1  0
 42 43  1  0
 26 44  2  0
 44  8  1  0
 25 20  1  0
 43 28  1  0
 41 36  1  0
  1 45  1  0
  1 46  1  0
  1 47  1  0
  9 48  1  0
 10 49  1  0
 12 50  1  0
 12 51  1  0
 13 52  1  0
 13 53  1  0
 21 54  1  0
 22 55  1  0
 23 56  1  0
 24 57  1  0
 25 58  1  0
 28 59  1  1
 29 60  1  0
 29 61  1  0
 30 62  1  0
 30 63  1  0
 31 64  1  6
 35 65  1  0
 35 66  1  0
 37 67  1  0
 38 68  1  0
 39 69  1  0
 40 70  1  0
 41 71  1  0
 42 72  1  0
 42 73  1  0
 43 74  1  0
 43 75  1  0
 44 76  1  0
M  CHG  3   5  -1  16  -1  31   1
M  END
>  <UniqueID>  (28) 
27

>  <SMILES>  (28) 
CS(=O)(=O)[N-]C(=O)c1ccc(CCC(=O)[N-]S(=O)(=O)c2ccccc2)c(OC2CC[NH+](S(=O)(=O)Cc3ccccc3)CC2)c1

>  <Energy>  (28) 
85.0763242290967

>  <Genealogy>  (28) 
CS(=O)(=O)[N-]C(=O)c1ccc(CCC(=O)[N-]S(=O)(=O)c2ccccc2)c(OC2CC[NH+](S(=O)(=O)Cc3ccccc3)CC2)c1 (protonated)
CS(=O)(=O)[N-]C(=O)c1ccc(CCC(=O)[N-]S(=O)(=O)c2ccccc2)c(OC2CC[NH+](S(=O)(=O)Cc3ccccc3)CC2)c1 (3D coordinates assigned)
CS(=O)(=O)[N-]C(=O)c1ccc(CCC(=O)[N-]S(=O)(=O)c2ccccc2)c(OC2CC[NH+](S(=O)(=O)Cc3ccccc3)CC2)c1 (nonaromatic ring conformer: 85.0763242290967 kcal/mol)

>  <smiles>  (28) 
CS(=O)(=O)NC(=O)c1ccc(CCC(=O)NS(=O)(=O)c2ccccc2)c(OC2CCN(S(=O)(=O)Cc3ccccc3)CC2)c1

>  <score_type>  (28) 
oracle

>  <origin>  (28) 
adg

>  <m_score__min__energy>  (28) 
-11.81

>  <m_primary>  (28) 
energy

$$$$
28:0
     RDKit          3D

 45 47  0  0  0  0  0  0  0  0999 V2000
   59.0740   33.9070   44.7400 C   0  0  0  0  0  0  0  0  0  0  0  0
   60.0650   34.5980   45.4950 O   0  0  0  0  0  0  0  0  0  0  0  0
   60.8230   34.0360   46.5350 C   0  0  0  0  0  0  0  0  0  0  0  0
   62.2030   33.8050   46.3770 C   0  0  0  0  0  0  0  0  0  0  0  0
   62.9540   33.2420   47.4060 C   0  0  0  0  0  0  0  0  0  0  0  0
   62.3460   32.9060   48.6120 C   0  0  0  0  0  0  0  0  0  0  0  0
   60.9780   33.1400   48.8070 C   0  0  0  0  0  0  0  0  0  0  0  0
   60.3400   32.7440   50.1110 C   0  0  0  0  0  0  0  0  0  0  0  0
   60.2930   31.2900   50.2050 N   0  0  0  0  0  0  0  0  0  0  0  0
   59.3120   30.4780   49.5510 C   0  0  0  0  0  0  0  0  0  0  0  0
   58.1530   30.9390   49.3790 O   0  0  0  0  0  0  0  0  0  0  0  0
   59.6270   29.1170   49.0730 C   0  0  0  0  0  0  0  0  0  0  0  0
   60.4290   28.2940   49.8740 C   0  0  0  0  0  0  0  0  0  0  0  0
   60.7250   26.9930   49.4610 C   0  0  0  0  0  0  0  0  0  0  0  0
   61.4460   26.2510   50.1780 O   0  0  0  0  0  0  0  0  0  0  0  0
   60.2350   26.5230   48.2860 N   0  0  0  0  0  0  0  0  0  0  0  0
   59.4520   27.2860   47.4780 C   0  0  0  0  0  0  0  0  0  0  0  0
   58.9740   26.7540   46.2770 C   0  0  0  0  0  0  0  0  0  0  0  0
   58.1790   27.5290   45.4300 C   0  0  0  0  0  0  0  0  0  0  0  0
   57.8620   28.8500   45.7740 C   0  0  0  0  0  0  0  0  0  0  0  0
   56.8560   29.8240   44.7060 S   0  0  0  0  0  0  0  0  0  0  0  0
   55.2060   29.3390   44.8750 N   0  0  0  0  0  0  0  0  0  0  0  0
   57.2910   29.6360   43.2800 O   0  0  0  0  0  0  0  0  0  0  0  0
   56.9940   31.2760   45.0650 O   0  0  0  0  0  0  0  0  0  0  0  0
   58.3290   29.3880   46.9810 C   0  0  0  0  0  0  0  0  0  0  0  0
   59.1250   28.6130   47.8490 C   0  0  0  0  0  0  0  0  0  0  0  0
   60.1980   33.6920   47.7650 C   0  0  0  0  0  0  0  0  0  0  0  0
   58.8220   33.8690   48.0130 O   0  0  0  0  0  0  0  0  0  0  0  0
   57.7540   33.0910   47.4850 C   0  0  0  0  0  0  0  0  0  0  0  0
   58.3681   33.4148   45.4252 H   0  0  0  0  0  0  0  0  0  0  0  0
   58.5307   34.6231   44.1059 H   0  0  0  0  0  0  0  0  0  0  0  0
   59.5581   33.1496   44.1059 H   0  0  0  0  0  0  0  0  0  0  0  0
   62.6938   34.0724   45.4296 H   0  0  0  0  0  0  0  0  0  0  0  0
   64.0301   33.0625   47.2652 H   0  0  0  0  0  0  0  0  0  0  0  0
   62.9432   32.4537   49.4175 H   0  0  0  0  0  0  0  0  0  0  0  0
   60.9316   33.1469   50.9463 H   0  0  0  0  0  0  0  0  0  0  0  0
   59.3182   33.1485   50.1580 H   0  0  0  0  0  0  0  0  0  0  0  0
   60.8255   28.6722   50.8278 H   0  0  0  0  0  0  0  0  0  0  0  0
   59.2252   25.7201   45.9978 H   0  0  0  0  0  0  0  0  0  0  0  0
   57.8004   27.1013   44.4899 H   0  0  0  0  0  0  0  0  0  0  0  0
   55.1740   28.6240   45.6350 H   0  0  0  0  0  0  0  0  0  0  0  0
   58.0726   30.4225   47.2531 H   0  0  0  0  0  0  0  0  0  0  0  0
   57.1677   32.6639   48.3120 H   0  0  0  0  0  0  0  0  0  0  0  0
   57.1055   33.7298   46.8674 H   0  0  0  0  0  0  0  0  0  0  0  0
   58.1631   32.2779   46.8674 H   0  0  0  0  0  0  0  0  0  0  0  0
  1  2  1  0
  2  3  1  0
  3  4  2  0
  4  5  1  0
  5  6  2  0
  6  7  1  0
  7  8  1  0
  8  9  1  0
  9 10  1  0
 10 11  2  0
 10 12  1  0
 12 13  2  0
 13 14  1  0
 14 15  2  0
 14 16  1  0
 16 17  1  0
 17 18  2  0
 18 19  1  0
 19 20  2  0
 20 21  1  0
 21 22  1  0
 21 23  2  0
 21 24  2  0
 20 25  1  0
 25 26  2  0
  7 27  2  0
 27 28  1  0
 28 29  1  0
 27  3  1  0
 26 12  1  0
 26 17  1  0
  1 30  1  0
  1 31  1  0
  1 32  1  0
  4 33  1  0
  5 34  1  0
  6 35  1  0
  8 36  1  0
  8 37  1  0
 13 38  1  0
 18 39  1  0
 19 40  1  0
 22 41  1  0
 25 42  1  0
 29 43  1  0
 29 44  1  0
 29 45  1  0
M  CHG  3   9  -1  16  -1  22  -1
M  END
>  <UniqueID>  (29) 
28

>  <SMILES>  (29) 
COc1cccc(C[N-]C(=O)c2cc(=O)[n-]c3ccc(S([NH-])(=O)=O)cc23)c1OC

>  <Energy>  (29) 
58.818721585455606

>  <Genealogy>  (29) 
COc1cccc(C[N-]C(=O)c2cc(=O)[n-]c3ccc(S([NH-])(=O)=O)cc23)c1OC (protonated)
COc1cccc(C[N-]C(=O)c2cc(=O)[n-]c3ccc(S([NH-])(=O)=O)cc23)c1OC (3D coordinates assigned)
COc1cccc(C[N-]C(=O)c2cc(=O)[n-]c3ccc(S([NH-])(=O)=O)cc23)c1OC (optimized conformer: 58.818721585455606 kcal/mol)

>  <smiles>  (29) 
COc1cccc(CNC(=O)c2cc(=O)[nH]c3ccc(S(N)(=O)=O)cc23)c1OC

>  <score_type>  (29) 
oracle

>  <origin>  (29) 
adg

>  <m_score__min__energy>  (29) 
-13.07

>  <m_primary>  (29) 
energy

$$$$
29:0
     RDKit          3D

 40 41  0  0  0  0  0  0  0  0999 V2000
   59.5308   29.7206   49.8290 H   0  0  0  0  0  0  0  0  0  0  0  0
   59.1000   29.1110   49.0210 C   0  0  0  0  0  0  0  0  0  0  0  0
   58.0230   28.8873   49.0152 H   0  0  0  0  0  0  0  0  0  0  0  0
   59.8870   28.6410   48.0440 C   0  0  0  0  0  0  0  0  0  0  0  0
   60.9611   28.8767   48.0694 H   0  0  0  0  0  0  0  0  0  0  0  0
   59.3470   27.7890   46.8950 C   0  0  0  0  0  0  0  0  0  0  0  0
   58.2330   28.5600   46.1170 C   0  0  0  0  0  0  0  0  0  0  0  0
   57.0420   27.9670   45.5830 C   0  0  0  0  0  0  0  0  0  0  0  0
   56.8120   26.5140   45.5130 C   0  0  0  0  0  0  0  0  0  0  0  0
   55.8930   25.8980   46.3730 C   0  0  0  0  0  0  0  0  0  0  0  0
   55.3681   26.4944   47.1337 H   0  0  0  0  0  0  0  0  0  0  0  0
   55.6490   24.5650   46.2690 N   0  0  0  0  0  0  0  0  0  0  0  0
   56.2580   23.7920   45.3240 C   0  0  0  0  0  0  0  0  0  0  0  0
   56.0170   22.5180   45.2490 N   0  0  0  0  0  0  0  0  0  0  0  0
   56.4880   21.5180   43.9120 S   0  0  0  0  0  0  0  0  0  0  0  0
   55.9170   22.0950   42.6470 O   0  0  0  0  0  0  0  0  0  0  0  0
   55.9530   20.1270   44.1010 O   0  0  0  0  0  0  0  0  0  0  0  0
   58.2630   21.4780   43.7790 C   0  0  0  0  0  0  0  0  0  0  0  0
   58.7060   21.4680   44.7858 H   0  0  0  0  0  0  0  0  0  0  0  0
   58.5696   20.5727   43.2345 H   0  0  0  0  0  0  0  0  0  0  0  0
   58.6101   22.3686   43.2345 H   0  0  0  0  0  0  0  0  0  0  0  0
   57.1500   24.3790   44.4210 C   0  0  0  0  0  0  0  0  0  0  0  0
   57.6373   23.7682   43.6468 H   0  0  0  0  0  0  0  0  0  0  0  0
   57.4170   25.7460   44.5100 C   0  0  0  0  0  0  0  0  0  0  0  0
   58.1026   26.2203   43.7924 H   0  0  0  0  0  0  0  0  0  0  0  0
   56.0820   28.7560   45.0200 N   0  0  0  0  0  0  0  0  0  0  0  0
   55.2000   28.3230   44.6600 H   0  0  0  0  0  0  0  0  0  0  0  0
   56.2580   30.0900   44.8690 C   0  0  0  0  0  0  0  0  0  0  0  0
   55.3540   30.7930   44.3450 O   0  0  0  0  0  0  0  0  0  0  0  0
   57.4150   30.6650   45.2570 N   0  0  0  0  0  0  0  0  0  0  0  0
   58.4030   29.9480   45.8430 C   0  0  0  0  0  0  0  0  0  0  0  0
   59.4760   30.5430   46.1300 O   0  0  0  0  0  0  0  0  0  0  0  0
   58.8980   26.4560   47.5460 C   0  0  0  0  0  0  0  0  0  0  0  0
   58.9308   26.5535   48.6412 H   0  0  0  0  0  0  0  0  0  0  0  0
   57.8711   26.2209   47.2294 H   0  0  0  0  0  0  0  0  0  0  0  0
   59.5734   25.6475   47.2294 H   0  0  0  0  0  0  0  0  0  0  0  0
   60.5010   27.4850   45.9190 C   0  0  0  0  0  0  0  0  0  0  0  0
   61.4104   27.2454   46.4897 H   0  0  0  0  0  0  0  0  0  0  0  0
   60.2292   26.6278   45.2855 H   0  0  0  0  0  0  0  0  0  0  0  0
   60.6868   28.3648   45.2855 H   0  0  0  0  0  0  0  0  0  0  0  0
  1  2  1  0
  2  3  1  0
  2  4  2  0
  4  5  1  0
  4  6  1  0
  6  7  1  0
  7  8  2  0
  8  9  1  0
  9 10  2  0
 10 11  1  0
 10 12  1  0
 12 13  1  0
 13 14  2  0
 14 15  1  0
 15 16  2  0
 15 17  2  0
 15 18  1  0
 18 19  1  0
 18 20  1  0
 18 21  1  0
 13 22  1  0
 22 23  1  0
 22 24  2  0
 24 25  1  0
  8 26  1  0
 26 27  1  0
 26 28  1  0
 28 29  2  0
 28 30  1  0
 30 31  1  0
 31 32  2  0
  6 33  1  0
 33 34  1  0
 33 35  1  0
 33 36  1  0
  6 37  1  0
 37 38  1  0
 37 39  1  0
 37 40  1  0
 31  7  1  0
 24  9  1  0
M  CHG  2  12  -1  30  -1
M  END
>  <UniqueID>  (30) 
29

>  <SMILES>  (30) 
C=CC(C)(C)c1c(-c2cc/c(=N/S(C)(=O)=O)[n-]c2)[nH]c(=O)[n-]c1=O

>  <Energy>  (30) 
58.46942293459787

>  <Genealogy>  (30) 
C=CC(C)(C)c1c(-c2ccc(=NS(C)(=O)=O)[n-]c2)[nH]c(=O)[n-]c1=O (protonated)
C=CC(C)(C)c1c(-c2cc/c(=N/S(C)(=O)=O)[n-]c2)[nH]c(=O)[n-]c1=O (cis-trans isomerization)
C=CC(C)(C)c1c(-c2cc/c(=N/S(C)(=O)=O)[n-]c2)[nH]c(=O)[n-]c1=O (3D coordinates assigned)
C=CC(C)(C)c1c(-c2cc/c(=N/S(C)(=O)=O)[n-]c2)[nH]c(=O)[n-]c1=O (optimized conformer: 58.46942293459787 kcal/mol)

>  <smiles>  (30) 
C=CC(C)(C)c1c(-c2ccc(=NS(C)(=O)=O)[nH]c2)[nH]c(=O)[nH]c1=O

>  <score_type>  (30) 
oracle

>  <origin>  (30) 
adg

>  <m_score__min__energy>  (30) 
-11.300000000000001

>  <m_primary>  (30) 
energy

$$$$
30:0
     RDKit          3D

 58 61  0  0  0  0  0  0  0  0999 V2000
   52.8660   23.3920   51.2190 C   0  0  0  0  0  0  0  0  0  0  0  0
   53.7480   22.5650   50.4670 O   0  0  0  0  0  0  0  0  0  0  0  0
   53.6800   22.3830   49.0770 C   0  0  0  0  0  0  0  0  0  0  0  0
   54.7430   22.7290   48.2210 C   0  0  0  0  0  0  0  0  0  0  0  0
   54.6380   22.5360   46.8320 C   0  0  0  0  0  0  0  0  0  0  0  0
   55.7720   22.9500   45.9220 C   0  0  0  0  0  0  0  0  0  0  0  0
   55.4260   24.1180   44.9800 C   0  0  0  0  0  0  0  0  0  0  0  0
   54.6030   25.2050   45.6320 C   0  0  0  0  0  0  0  0  0  0  0  0
   53.3480   25.1490   45.5390 O   0  0  0  0  0  0  0  0  0  0  0  0
   55.1880   26.3250   46.3100 N   0  0  0  0  0  0  0  0  0  0  0  0
   56.4860   26.8770   46.0780 C   0  0  0  0  0  0  0  0  0  0  0  0
   57.6220   26.2090   46.5660 C   0  0  0  0  0  0  0  0  0  0  0  0
   58.9010   26.7090   46.3220 C   0  0  0  0  0  0  0  0  0  0  0  0
   59.0600   27.8920   45.6000 C   0  0  0  0  0  0  0  0  0  0  0  0
   57.9390   28.5850   45.1400 C   0  0  0  0  0  0  0  0  0  0  0  0
   56.6460   28.1060   45.3840 C   0  0  0  0  0  0  0  0  0  0  0  0
   55.5820   28.8880   44.8980 O   0  0  0  0  0  0  0  0  0  0  0  0
   55.5780   29.6800   43.7130 C   0  0  0  0  0  0  0  0  0  0  0  0
   56.5080   30.8380   43.8940 C   0  0  0  0  0  0  0  0  0  0  0  0
   57.1520   31.4110   42.7980 C   0  0  0  0  0  0  0  0  0  0  0  0
   57.9830   32.5130   43.0010 C   0  0  0  0  0  0  0  0  0  0  0  0
   58.5610   33.0300   42.0040 O   0  0  0  0  0  0  0  0  0  0  0  0
   58.1620   33.0220   44.2650 N   0  0  0  0  0  0  0  0  0  0  0  0
   58.9710   34.1110   44.4760 C   0  0  0  0  0  0  0  0  0  0  0  0
   59.1600   34.6280   45.7640 C   0  0  0  0  0  0  0  0  0  0  0  0
   60.0120   35.8440   45.9770 C   0  0  0  0  0  0  0  0  0  0  0  0
   58.4880   34.0380   46.8390 C   0  0  0  0  0  0  0  0  0  0  0  0
   57.6700   32.9350   46.6240 C   0  0  0  0  0  0  0  0  0  0  0  0
   57.5130   32.4310   45.3290 C   0  0  0  0  0  0  0  0  0  0  0  0
   56.7040   31.3600   45.1300 N   0  0  0  0  0  0  0  0  0  0  0  0
   53.4420   22.0230   46.3020 C   0  0  0  0  0  0  0  0  0  0  0  0
   52.3920   21.6640   47.1480 C   0  0  0  0  0  0  0  0  0  0  0  0
   52.5080   21.8400   48.5330 C   0  0  0  0  0  0  0  0  0  0  0  0
   51.4570   21.4850   49.3760 O   0  0  0  0  0  0  0  0  0  0  0  0
   53.0384   23.2303   52.2933 H   0  0  0  0  0  0  0  0  0  0  0  0
   53.0534   24.4475   50.9723 H   0  0  0  0  0  0  0  0  0  0  0  0
   51.8248   23.1371   50.9723 H   0  0  0  0  0  0  0  0  0  0  0  0
   55.6652   23.1547   48.6431 H   0  0  0  0  0  0  0  0  0  0  0  0
   56.6249   23.2516   46.5478 H   0  0  0  0  0  0  0  0  0  0  0  0
   55.9997   22.0836   45.2836 H   0  0  0  0  0  0  0  0  0  0  0  0
   56.3653   24.5631   44.6201 H   0  0  0  0  0  0  0  0  0  0  0  0
   54.8172   23.7015   44.1639 H   0  0  0  0  0  0  0  0  0  0  0  0
   57.5013   25.2824   47.1463 H   0  0  0  0  0  0  0  0  0  0  0  0
   59.7835   26.1710   46.6985 H   0  0  0  0  0  0  0  0  0  0  0  0
   60.0688   28.2787   45.3932 H   0  0  0  0  0  0  0  0  0  0  0  0
   58.0733   29.5209   44.5777 H   0  0  0  0  0  0  0  0  0  0  0  0
   55.9116   29.0695   42.8610 H   0  0  0  0  0  0  0  0  0  0  0  0
   54.5604   30.0494   43.5180 H   0  0  0  0  0  0  0  0  0  0  0  0
   57.0069   31.0001   41.7880 H   0  0  0  0  0  0  0  0  0  0  0  0
   59.4777   34.5840   43.6219 H   0  0  0  0  0  0  0  0  0  0  0  0
   60.1358   36.0206   47.0557 H   0  0  0  0  0  0  0  0  0  0  0  0
   60.9981   35.6862   45.5158 H   0  0  0  0  0  0  0  0  0  0  0  0
   59.5270   36.7169   45.5158 H   0  0  0  0  0  0  0  0  0  0  0  0
   58.6066   34.4463   47.8535 H   0  0  0  0  0  0  0  0  0  0  0  0
   57.1486   32.4608   47.4685 H   0  0  0  0  0  0  0  0  0  0  0  0
   53.3328   21.9037   45.2139 H   0  0  0  0  0  0  0  0  0  0  0  0
   51.4688   21.2408   46.7254 H   0  0  0  0  0  0  0  0  0  0  0  0
   51.5550   21.5010   50.3840 H   0  0  0  0  0  0  0  0  0  0  0  0
  1  2  1  0
  2  3  1  0
  3  4  2  0
  4  5  1  0
  5  6  1  0
  6  7  1  0
  7  8  1  0
  8  9  2  0
  8 10  1  0
 10 11  1  0
 11 12  2  0
 12 13  1  0
 13 14  2  0
 14 15  1  0
 15 16  2  0
 16 17  1  0
 17 18  1  0
 18 19  1  0
 19 20  2  0
 20 21  1  0
 21 22  2  0
 21 23  1  0
 23 24  1  0
 24 25  2  0
 25 26  1  0
 25 27  1  0
 27 28  2  0
 28 29  1  0
 29 30  2  0
  5 31  2  0
 31 32  1  0
 32 33  2  0
 33 34  1  0
 33  3  1  0
 16 11  1  0
 30 19  1  0
 29 23  1  0
  1 35  1  0
  1 36  1  0
  1 37  1  0
  4 38  1  0
  6 39  1  0
  6 40  1  0
  7 41  1  0
  7 42  1  0
 12 43  1  0
 13 44  1  0
 14 45  1  0
 15 46  1  0
 18 47  1  0
 18 48  1  0
 20 49  1  0
 24 50  1  0
 26 51  1  0
 26 52  1  0
 26 53  1  0
 27 54  1  0
 28 55  1  0
 31 56  1  0
 32 57  1  0
 34 58  1  0
M  CHG  1  10  -1
M  END
>  <UniqueID>  (31) 
30

>  <SMILES>  (31) 
COc1cc(CCC(=O)[N-]c2ccccc2OCc2cc(=O)n3cc(C)ccc3n2)ccc1O

>  <Energy>  (31) 
67.03996964535229

>  <Genealogy>  (31) 
COc1cc(CCC(=O)[N-]c2ccccc2OCc2cc(=O)n3cc(C)ccc3n2)ccc1O (protonated)
COc1cc(CCC(=O)[N-]c2ccccc2OCc2cc(=O)n3cc(C)ccc3n2)ccc1O (3D coordinates assigned)
COc1cc(CCC(=O)[N-]c2ccccc2OCc2cc(=O)n3cc(C)ccc3n2)ccc1O (optimized conformer: 67.03996964535229 kcal/mol)

>  <smiles>  (31) 
COc1cc(CCC(=O)Nc2ccccc2OCc2cc(=O)n3cc(C)ccc3n2)ccc1O

>  <score_type>  (31) 
oracle

>  <origin>  (31) 
adg

>  <m_score__min__energy>  (31) 
-11.130000000000001

>  <m_primary>  (31) 
energy

$$$$
31:0
     RDKit          3D

 37 39  0  0  0  0  0  0  0  0999 V2000
   57.0410   28.5960   43.2590 N   0  0  0  0  0  0  0  0  0  0  0  0
   56.4780   29.5890   44.1200 C   0  0  0  0  0  0  0  0  0  0  0  0
   55.5080   29.2820   44.8630 O   0  0  0  0  0  0  0  0  0  0  0  0
   57.0210   30.9590   44.1460 C   0  0  0  0  0  0  0  0  0  0  0  0
   57.6850   31.5380   43.0640 C   0  0  0  0  0  0  0  0  0  0  0  0
   58.1390   33.0960   43.5060 S   0  0  0  0  0  0  0  0  0  0  0  0
   57.4720   32.9650   45.0490 C   0  0  0  0  0  0  0  0  0  0  0  0
   57.4750   33.8820   45.9760 N   0  0  0  0  0  0  0  0  0  0  0  0
   58.4750   34.0950   47.0320 C   0  0  2  0  0  0  0  0  0  0  0  0
   59.7960   34.6780   46.4830 C   0  0  0  0  0  0  0  0  0  0  0  0
   60.8030   33.6880   46.9140 C   0  0  0  0  0  0  0  0  0  0  0  0
   62.0300   33.7750   46.6410 O   0  0  0  0  0  0  0  0  0  0  0  0
   60.2500   32.6180   47.6590 N   0  0  0  0  0  0  0  0  0  0  0  0
   61.0020   31.4900   48.2050 C   0  0  0  0  0  0  0  0  0  0  0  0
   60.5580   30.2080   47.5560 C   0  0  0  0  0  0  0  0  0  0  0  0
   60.3320   30.1640   46.1700 C   0  0  0  0  0  0  0  0  0  0  0  0
   59.8920   28.9820   45.5660 C   0  0  0  0  0  0  0  0  0  0  0  0
   59.6700   27.8400   46.3390 C   0  0  0  0  0  0  0  0  0  0  0  0
   59.8860   27.8790   47.7200 C   0  0  0  0  0  0  0  0  0  0  0  0
   60.3260   29.0580   48.3290 C   0  0  0  0  0  0  0  0  0  0  0  0
   58.8150   32.7920   47.7960 C   0  0  0  0  0  0  0  0  0  0  0  0
   56.9060   31.7560   45.2440 N   0  0  0  0  0  0  0  0  0  0  0  0
   56.6500   27.6280   43.2480 H   0  0  0  0  0  0  0  0  0  0  0  0
   57.8460   28.8170   42.6320 H   0  0  0  0  0  0  0  0  0  0  0  0
   57.8777   31.0595   42.0925 H   0  0  0  0  0  0  0  0  0  0  0  0
   58.0081   34.8161   47.7191 H   0  0  0  0  0  0  0  0  0  0  0  0
   59.7662   34.7594   45.3864 H   0  0  0  0  0  0  0  0  0  0  0  0
   60.0049   35.6945   46.8479 H   0  0  0  0  0  0  0  0  0  0  0  0
   62.0746   31.6416   48.0140 H   0  0  0  0  0  0  0  0  0  0  0  0
   60.8191   31.4267   49.2878 H   0  0  0  0  0  0  0  0  0  0  0  0
   60.5017   31.0622   45.5580 H   0  0  0  0  0  0  0  0  0  0  0  0
   59.7204   28.9515   44.4799 H   0  0  0  0  0  0  0  0  0  0  0  0
   59.3255   26.9107   45.8618 H   0  0  0  0  0  0  0  0  0  0  0  0
   59.7093   26.9799   48.3286 H   0  0  0  0  0  0  0  0  0  0  0  0
   60.4910   29.0853   49.4162 H   0  0  0  0  0  0  0  0  0  0  0  0
   58.2813   31.9379   47.3537 H   0  0  0  0  0  0  0  0  0  0  0  0
   58.5125   32.8504   48.8520 H   0  0  0  0  0  0  0  0  0  0  0  0
  1  2  1  0
  2  3  2  0
  2  4  1  0
  4  5  2  0
  5  6  1  0
  6  7  1  0
  7  8  2  3
  8  9  1  0
  9 10  1  0
 10 11  1  0
 11 12  2  0
 11 13  1  0
 13 14  1  0
 14 15  1  0
 15 16  2  0
 16 17  1  0
 17 18  2  0
 18 19  1  0
 19 20  2  0
 13 21  1  0
  7 22  1  0
 22  4  1  0
 21  9  1  0
 20 15  1  0
  1 23  1  0
  1 24  1  0
  5 25  1  0
  9 26  1  1
 10 27  1  0
 10 28  1  0
 14 29  1  0
 14 30  1  0
 16 31  1  0
 17 32  1  0
 18 33  1  0
 19 34  1  0
 20 35  1  0
 21 36  1  0
 21 37  1  0
M  CHG  1  22  -1
M  END
>  <UniqueID>  (32) 
31

>  <SMILES>  (32) 
NC(=O)c1csc(=N[C@@H]2CC(=O)N(Cc3ccccc3)C2)[n-]1

>  <Energy>  (32) 
73.6307136802221

>  <Genealogy>  (32) 
NC(=O)c1csc(=NC2CC(=O)N(Cc3ccccc3)C2)[n-]1 (protonated)
NC(=O)c1csc(=N[C@@H]2CC(=O)N(Cc3ccccc3)C2)[n-]1 (chirality)
NC(=O)c1csc(=N[C@@H]2CC(=O)N(Cc3ccccc3)C2)[n-]1 (3D coordinates assigned)
NC(=O)c1csc(=N[C@@H]2CC(=O)N(Cc3ccccc3)C2)[n-]1 (nonaromatic ring conformer: 73.6307136802221 kcal/mol)

>  <smiles>  (32) 
NC(=O)c1csc(=NC2CC(=O)N(Cc3ccccc3)C2)[nH]1

>  <score_type>  (32) 
oracle

>  <origin>  (32) 
adg

>  <m_score__min__energy>  (32) 
-9.3900000000000006

>  <m_primary>  (32) 
energy

$$$$
32:0
     RDKit          3D

 61 63  0  0  0  0  0  0  0  0999 V2000
   58.1060   27.5490   43.4980 C   0  0  0  0  0  0  0  0  0  0  0  0
   58.4380   27.6350   44.9310 N   0  0  0  0  0  0  0  0  0  0  0  0
   57.3280   28.2120   45.7170 C   0  0  0  0  0  0  0  0  0  0  0  0
   56.6850   29.3400   44.9730 C   0  0  0  0  0  0  0  0  0  0  0  0
   55.4280   29.3870   44.8760 O   0  0  0  0  0  0  0  0  0  0  0  0
   57.5070   30.3100   44.3110 N   0  0  0  0  0  0  0  0  0  0  0  0
   57.7840   31.6420   44.7630 C   0  0  0  0  0  0  0  0  0  0  0  0
   57.4130   32.7750   44.0160 C   0  0  0  0  0  0  0  0  0  0  0  0
   57.6820   34.0570   44.5030 C   0  0  0  0  0  0  0  0  0  0  0  0
   58.3070   34.2210   45.7400 C   0  0  0  0  0  0  0  0  0  0  0  0
   58.6580   33.1000   46.5060 C   0  0  0  0  0  0  0  0  0  0  0  0
   59.4420   33.3060   48.0740 S   0  0  0  0  0  0  0  0  0  0  0  0
   59.2710   34.7290   48.5290 O   0  0  0  0  0  0  0  0  0  0  0  0
   58.7730   32.4140   49.0820 O   0  0  0  0  0  0  0  0  0  0  0  0
   61.1450   32.9240   47.9970 N   0  0  0  0  0  0  0  0  0  0  0  0
   61.7250   33.4790   46.7680 C   0  0  0  0  0  0  0  0  0  0  0  0
   61.8310   33.4730   49.1730 C   0  0  0  0  0  0  0  0  0  0  0  0
   58.3860   31.8150   46.0150 C   0  0  0  0  0  0  0  0  0  0  0  0
   59.7210   28.3370   45.1670 C   0  0  0  0  0  0  0  0  0  0  0  0
   60.0420   28.5460   46.6340 C   0  0  0  0  0  0  0  0  0  0  0  0
   60.4610   29.8020   47.0990 C   0  0  0  0  0  0  0  0  0  0  0  0
   60.7780   29.9860   48.4480 C   0  0  0  0  0  0  0  0  0  0  0  0
   60.6810   28.9240   49.3530 C   0  0  0  0  0  0  0  0  0  0  0  0
   61.0280   29.1600   50.6930 O   0  0  0  0  0  0  0  0  0  0  0  0
   61.2080   30.4480   51.2840 C   0  0  0  0  0  0  0  0  0  0  0  0
   59.8810   31.1220   51.5120 C   0  0  0  0  0  0  0  0  0  0  0  0
   58.6890   30.3850   51.4080 C   0  0  0  0  0  0  0  0  0  0  0  0
   57.4550   31.0060   51.6230 C   0  0  0  0  0  0  0  0  0  0  0  0
   57.4030   32.3630   51.9510 C   0  0  0  0  0  0  0  0  0  0  0  0
   58.5840   33.1000   52.0690 C   0  0  0  0  0  0  0  0  0  0  0  0
   59.8200   32.4840   51.8550 C   0  0  0  0  0  0  0  0  0  0  0  0
   60.2410   27.6680   48.8920 C   0  0  0  0  0  0  0  0  0  0  0  0
   59.9240   27.4850   47.5430 C   0  0  0  0  0  0  0  0  0  0  0  0
   57.0470   27.2747   43.3828 H   0  0  0  0  0  0  0  0  0  0  0  0
   58.2864   28.5235   43.0207 H   0  0  0  0  0  0  0  0  0  0  0  0
   58.7368   26.7846   43.0207 H   0  0  0  0  0  0  0  0  0  0  0  0
   56.5772   27.4313   45.9090 H   0  0  0  0  0  0  0  0  0  0  0  0
   57.7289   28.5968   46.6663 H   0  0  0  0  0  0  0  0  0  0  0  0
   56.9097   32.6514   43.0457 H   0  0  0  0  0  0  0  0  0  0  0  0
   57.4003   34.9394   43.9096 H   0  0  0  0  0  0  0  0  0  0  0  0
   58.5248   35.2319   46.1150 H   0  0  0  0  0  0  0  0  0  0  0  0
   62.4972   34.2179   47.0282 H   0  0  0  0  0  0  0  0  0  0  0  0
   62.1772   32.6686   46.1774 H   0  0  0  0  0  0  0  0  0  0  0  0
   60.9353   33.9664   46.1774 H   0  0  0  0  0  0  0  0  0  0  0  0
   61.3537   33.0910   50.0875 H   0  0  0  0  0  0  0  0  0  0  0  0
   62.8879   33.1685   49.1564 H   0  0  0  0  0  0  0  0  0  0  0  0
   61.7655   34.5709   49.1564 H   0  0  0  0  0  0  0  0  0  0  0  0
   58.6482   30.9342   46.6195 H   0  0  0  0  0  0  0  0  0  0  0  0
   60.5296   27.7431   44.7160 H   0  0  0  0  0  0  0  0  0  0  0  0
   59.6290   29.3348   44.7133 H   0  0  0  0  0  0  0  0  0  0  0  0
   60.5404   30.6462   46.3983 H   0  0  0  0  0  0  0  0  0  0  0  0
   61.1066   30.9747   48.8009 H   0  0  0  0  0  0  0  0  0  0  0  0
   61.7246   30.3333   52.2484 H   0  0  0  0  0  0  0  0  0  0  0  0
   61.8060   31.0689   50.6007 H   0  0  0  0  0  0  0  0  0  0  0  0
   58.7270   29.3149   51.1563 H   0  0  0  0  0  0  0  0  0  0  0  0
   56.5247   30.4259   51.5339 H   0  0  0  0  0  0  0  0  0  0  0  0
   56.4314   32.8516   52.1165 H   0  0  0  0  0  0  0  0  0  0  0  0
   58.5409   34.1675   52.3309 H   0  0  0  0  0  0  0  0  0  0  0  0
   60.7477   33.0664   51.9552 H   0  0  0  0  0  0  0  0  0  0  0  0
   60.1465   26.8281   49.5960 H   0  0  0  0  0  0  0  0  0  0  0  0
   59.5794   26.5012   47.1919 H   0  0  0  0  0  0  0  0  0  0  0  0
  1  2  1  0
  2  3  1  0
  3  4  1  0
  4  5  2  0
  4  6  1  0
  6  7  1  0
  7  8  2  0
  8  9  1  0
  9 10  2  0
 10 11  1  0
 11 12  1  0
 12 13  2  0
 12 14  2  0
 12 15  1  0
 15 16  1  0
 15 17  1  0
 11 18  2  0
  2 19  1  0
 19 20  1  0
 20 21  2  0
 21 22  1  0
 22 23  2  0
 23 24  1  0
 24 25  1  0
 25 26  1  0
 26 27  2  0
 27 28  1  0
 28 29  2  0
 29 30  1  0
 30 31  2  0
 23 32  1  0
 32 33  2  0
 18  7  1  0
 33 20  1  0
 31 26  1  0
  1 34  1  0
  1 35  1  0
  1 36  1  0
  3 37  1  0
  3 38  1  0
  8 39  1  0
  9 40  1  0
 10 41  1  0
 16 42  1  0
 16 43  1  0
 16 44  1  0
 17 45  1  0
 17 46  1  0
 17 47  1  0
 18 48  1  0
 19 49  1  0
 19 50  1  0
 21 51  1  0
 22 52  1  0
 25 53  1  0
 25 54  1  0
 27 55  1  0
 28 56  1  0
 29 57  1  0
 30 58  1  0
 31 59  1  0
 32 60  1  0
 33 61  1  0
M  CHG  1   6  -1
M  END
>  <UniqueID>  (33) 
32

>  <SMILES>  (33) 
CN(CC(=O)[N-]c1cccc(S(=O)(=O)N(C)C)c1)Cc1ccc(OCc2ccccc2)cc1

>  <Energy>  (33) 
65.23966483440485

>  <Genealogy>  (33) 
CN(CC(=O)[N-]c1cccc(S(=O)(=O)N(C)C)c1)Cc1ccc(OCc2ccccc2)cc1 (protonated)
CN(CC(=O)[N-]c1cccc(S(=O)(=O)N(C)C)c1)Cc1ccc(OCc2ccccc2)cc1 (3D coordinates assigned)
CN(CC(=O)[N-]c1cccc(S(=O)(=O)N(C)C)c1)Cc1ccc(OCc2ccccc2)cc1 (optimized conformer: 65.23966483440485 kcal/mol)

>  <smiles>  (33) 
CN(CC(=O)Nc1cccc(S(=O)(=O)N(C)C)c1)Cc1ccc(OCc2ccccc2)cc1

>  <score_type>  (33) 
oracle

>  <origin>  (33) 
adg

>  <m_score__min__energy>  (33) 
-11.289999999999999

>  <m_primary>  (33) 
energy

$$$$
33:0
     RDKit          3D

 33 35  0  0  0  0  0  0  0  0999 V2000
   63.8944   33.3428   46.7518 H   0  0  0  0  0  0  0  0  0  0  0  0
   63.4090   33.5880   47.7080 C   0  0  0  0  0  0  0  0  0  0  0  0
   63.9955   33.5873   48.6386 H   0  0  0  0  0  0  0  0  0  0  0  0
   62.1100   33.8860   47.7390 C   0  0  0  0  0  0  0  0  0  0  0  0
   61.3930   34.2090   48.8750 C   0  0  0  0  0  0  0  0  0  0  0  0
   61.7792   34.2831   49.9023 H   0  0  0  0  0  0  0  0  0  0  0  0
   60.0930   34.4200   48.4590 C   0  0  0  0  0  0  0  0  0  0  0  0
   59.2351   34.6870   49.0936 H   0  0  0  0  0  0  0  0  0  0  0  0
   60.0800   34.2300   47.0880 C   0  0  0  0  0  0  0  0  0  0  0  0
   58.9810   34.3190   46.3240 C   0  0  0  0  0  0  0  0  0  0  0  0
   58.4238   35.2674   46.3328 H   0  0  0  0  0  0  0  0  0  0  0  0
   58.4720   33.2290   45.4740 C   0  0  0  0  0  0  0  0  0  0  0  0
   58.1760   33.3590   44.1330 C   0  0  0  0  0  0  0  0  0  0  0  0
   58.2133   34.2815   43.5350 H   0  0  0  0  0  0  0  0  0  0  0  0
   57.8230   32.0970   43.6910 C   0  0  0  0  0  0  0  0  0  0  0  0
   57.4450   31.7590   42.2840 C   0  0  0  0  0  0  0  0  0  0  0  0
   56.6250   31.0258   42.2907 H   0  0  0  0  0  0  0  0  0  0  0  0
   57.1173   32.6708   41.7632 H   0  0  0  0  0  0  0  0  0  0  0  0
   58.3146   31.3318   41.7632 H   0  0  0  0  0  0  0  0  0  0  0  0
   57.9280   31.2440   44.7850 C   0  0  0  0  0  0  0  0  0  0  0  0
   57.6800   29.7850   44.8210 C   0  0  0  0  0  0  0  0  0  0  0  0
   58.4340   28.8020   44.2020 C   0  0  0  0  0  0  0  0  0  0  0  0
   59.3471   28.9487   43.6064 H   0  0  0  0  0  0  0  0  0  0  0  0
   57.8120   27.6010   44.4810 C   0  0  0  0  0  0  0  0  0  0  0  0
   58.1350   26.6019   44.1532 H   0  0  0  0  0  0  0  0  0  0  0  0
   56.7080   27.8980   45.2500 C   0  0  0  0  0  0  0  0  0  0  0  0
   55.9957   27.1573   45.6424 H   0  0  0  0  0  0  0  0  0  0  0  0
   56.6280   29.2250   45.4510 N   0  0  0  0  0  0  0  0  0  0  0  0
   55.8890   29.7150   46.0000 H   0  0  0  0  0  0  0  0  0  0  0  0
   58.3430   31.9430   45.8610 N   0  0  0  0  0  0  0  0  0  0  0  0
   58.5650   31.5550   46.8050 H   0  0  0  0  0  0  0  0  0  0  0  0
   61.3150   33.8950   46.6510 N   0  0  0  0  0  0  0  0  0  0  0  0
   61.6040   33.6340   45.6820 H   0  0  0  0  0  0  0  0  0  0  0  0
  1  2  1  0
  2  3  1  0
  2  4  2  0
  4  5  1  0
  5  6  1  0
  5  7  2  0
  7  8  1  0
  7  9  1  0
  9 10  2  0
 10 11  1  0
 10 12  1  0
 12 13  2  0
 13 14  1  0
 13 15  1  0
 15 16  1  0
 16 17  1  0
 16 18  1  0
 16 19  1  0
 15 20  2  0
 20 21  1  0
 21 22  2  0
 22 23  1  0
 22 24  1  0
 24 25  1  0
 24 26  2  0
 26 27  1  0
 26 28  1  0
 28 29  1  0
 20 30  1  0
 30 31  1  0
  9 32  1  0
 32 33  1  0
 32  4  1  0
 30 12  1  0
 28 21  1  0
M  END
>  <UniqueID>  (34) 
33

>  <SMILES>  (34) 
C=c1cc/c(=C/c2cc(C)c(-c3ccc[nH]3)[nH]2)[nH]1

>  <Energy>  (34) 
116.42994586021808

>  <Genealogy>  (34) 
C=c1cc/c(=C/c2cc(C)c(-c3ccc[nH]3)[nH]2)[nH]1 (cis-trans isomerization)
C=c1cc/c(=C/c2cc(C)c(-c3ccc[nH]3)[nH]2)[nH]1 (3D coordinates assigned)
C=c1cc/c(=C/c2cc(C)c(-c3ccc[nH]3)[nH]2)[nH]1 (optimized conformer: 116.42994586021808 kcal/mol)

>  <smiles>  (34) 
C=c1ccc(=Cc2cc(C)c(-c3ccc[nH]3)[nH]2)[nH]1

>  <score_type>  (34) 
oracle

>  <origin>  (34) 
adg

>  <m_score__min__energy>  (34) 
-6.8399999999999999

>  <m_primary>  (34) 
energy

$$$$
34:0
     RDKit          3D

 56 59  0  0  0  0  0  0  0  0999 V2000
   58.6320   34.8660   52.7090 N   0  0  0  0  0  0  0  0  0  0  0  0
   59.6430   33.5220   52.2970 S   0  0  0  0  0  0  0  0  0  0  0  0
   58.9010   32.2390   52.5430 O   0  0  0  0  0  0  0  0  0  0  0  0
   60.8730   33.5440   53.1640 O   0  0  0  0  0  0  0  0  0  0  0  0
   60.0950   33.6190   50.5970 C   0  0  0  0  0  0  0  0  0  0  0  0
   61.3250   34.1730   50.2120 C   0  0  0  0  0  0  0  0  0  0  0  0
   61.6760   34.2360   48.8610 C   0  0  0  0  0  0  0  0  0  0  0  0
   60.7990   33.7540   47.8850 C   0  0  0  0  0  0  0  0  0  0  0  0
   59.5550   33.2150   48.2560 C   0  0  0  0  0  0  0  0  0  0  0  0
   58.6330   32.6990   47.2210 C   0  0  0  0  0  0  0  0  0  0  0  0
   57.4030   32.9580   47.3200 O   0  0  0  0  0  0  0  0  0  0  0  0
   59.1080   31.8760   46.1330 N   0  0  0  0  0  0  0  0  0  0  0  0
   60.1600   30.8750   46.3910 C   0  0  0  0  0  0  0  0  0  0  0  0
   60.0660   29.7050   45.4020 C   0  0  0  0  0  0  0  0  0  0  0  0
   58.6520   29.3400   45.2210 N   0  0  0  0  0  0  0  0  0  0  0  0
   58.1320   28.0740   45.6840 C   0  0  0  0  0  0  0  0  0  0  0  0
   58.9480   27.1730   46.3940 C   0  0  0  0  0  0  0  0  0  0  0  0
   58.4170   25.9890   46.9090 C   0  0  0  0  0  0  0  0  0  0  0  0
   57.0500   25.6990   46.7590 C   0  0  0  0  0  0  0  0  0  0  0  0
   56.4600   24.5220   47.3350 N   0  0  0  0  0  0  0  0  0  0  0  0
   56.7060   23.1640   46.9330 C   0  0  0  0  0  0  0  0  0  0  0  0
   56.9270   22.3020   47.8250 O   0  0  0  0  0  0  0  0  0  0  0  0
   56.7760   22.7650   45.5060 C   0  0  0  0  0  0  0  0  0  0  0  0
   55.8670   23.2970   44.5720 C   0  0  0  0  0  0  0  0  0  0  0  0
   55.9060   22.8900   43.2340 C   0  0  0  0  0  0  0  0  0  0  0  0
   56.8580   21.9630   42.8100 C   0  0  0  0  0  0  0  0  0  0  0  0
   57.7810   21.4450   43.7220 C   0  0  0  0  0  0  0  0  0  0  0  0
   57.7480   21.8470   45.0640 C   0  0  0  0  0  0  0  0  0  0  0  0
   58.6440   21.3140   45.9350 F   0  0  0  0  0  0  0  0  0  0  0  0
   56.2430   26.5690   46.0210 C   0  0  0  0  0  0  0  0  0  0  0  0
   56.7750   27.7500   45.4920 C   0  0  0  0  0  0  0  0  0  0  0  0
   57.7100   30.3820   44.7700 C   0  0  0  0  0  0  0  0  0  0  0  0
   58.3290   31.7830   44.8870 C   0  0  0  0  0  0  0  0  0  0  0  0
   59.2120   33.1480   49.6160 C   0  0  0  0  0  0  0  0  0  0  0  0
   58.3860   35.3470   51.8160 H   0  0  0  0  0  0  0  0  0  0  0  0
   57.7430   34.4730   53.0900 H   0  0  0  0  0  0  0  0  0  0  0  0
   62.0155   34.5591   50.9763 H   0  0  0  0  0  0  0  0  0  0  0  0
   62.6443   34.6657   48.5649 H   0  0  0  0  0  0  0  0  0  0  0  0
   61.0833   33.7967   46.8232 H   0  0  0  0  0  0  0  0  0  0  0  0
   61.1447   31.3543   46.2876 H   0  0  0  0  0  0  0  0  0  0  0  0
   60.0254   30.4823   47.4097 H   0  0  0  0  0  0  0  0  0  0  0  0
   60.4958   30.0048   44.4348 H   0  0  0  0  0  0  0  0  0  0  0  0
   60.6242   28.8422   45.7945 H   0  0  0  0  0  0  0  0  0  0  0  0
   60.0130   27.4038   46.5443 H   0  0  0  0  0  0  0  0  0  0  0  0
   59.0722   25.2791   47.4351 H   0  0  0  0  0  0  0  0  0  0  0  0
   55.1211   24.0376   44.8963 H   0  0  0  0  0  0  0  0  0  0  0  0
   55.1836   23.3024   42.5142 H   0  0  0  0  0  0  0  0  0  0  0  0
   56.8821   21.6401   41.7587 H   0  0  0  0  0  0  0  0  0  0  0  0
   58.5360   20.7193   43.3855 H   0  0  0  0  0  0  0  0  0  0  0  0
   55.1836   26.3240   45.8550 H   0  0  0  0  0  0  0  0  0  0  0  0
   56.1274   28.4316   44.9210 H   0  0  0  0  0  0  0  0  0  0  0  0
   57.4444   30.1943   43.7192 H   0  0  0  0  0  0  0  0  0  0  0  0
   56.8165   30.3428   45.4104 H   0  0  0  0  0  0  0  0  0  0  0  0
   58.9907   31.9639   44.0271 H   0  0  0  0  0  0  0  0  0  0  0  0
   57.5278   32.5366   44.8998 H   0  0  0  0  0  0  0  0  0  0  0  0
   58.2424   32.7224   49.9138 H   0  0  0  0  0  0  0  0  0  0  0  0
  1  2  1  0
  2  3  2  0
  2  4  2  0
  2  5  1  0
  5  6  2  0
  6  7  1  0
  7  8  2  0
  8  9  1  0
  9 10  1  0
 10 11  2  0
 10 12  1  0
 12 13  1  0
 13 14  1  0
 14 15  1  0
 15 16  1  0
 16 17  2  0
 17 18  1  0
 18 19  2  0
 19 20  1  0
 20 21  1  0
 21 22  2  0
 21 23  1  0
 23 24  2  0
 24 25  1  0
 25 26  2  0
 26 27  1  0
 27 28  2  0
 28 29  1  0
 19 30  1  0
 30 31  2  0
 15 32  1  0
 32 33  1  0
  9 34  2  0
 34  5  1  0
 33 12  1  0
 31 16  1  0
 28 23  1  0
  1 35  1  0
  1 36  1  0
  6 37  1  0
  7 38  1  0
  8 39  1  0
 13 40  1  0
 13 41  1  0
 14 42  1  0
 14 43  1  0
 17 44  1  0
 18 45  1  0
 24 46  1  0
 25 47  1  0
 26 48  1  0
 27 49  1  0
 30 50  1  0
 31 51  1  0
 32 52  1  0
 32 53  1  0
 33 54  1  0
 33 55  1  0
 34 56  1  0
M  CHG  1  20  -1
M  END
>  <UniqueID>  (35) 
34

>  <SMILES>  (35) 
NS(=O)(=O)c1cccc(C(=O)N2CCN(c3ccc([N-]C(=O)c4ccccc4F)cc3)CC2)c1

>  <Energy>  (35) 
77.12569737351843

>  <Genealogy>  (35) 
NS(=O)(=O)c1cccc(C(=O)N2CCN(c3ccc([N-]C(=O)c4ccccc4F)cc3)CC2)c1 (protonated)
NS(=O)(=O)c1cccc(C(=O)N2CCN(c3ccc([N-]C(=O)c4ccccc4F)cc3)CC2)c1 (3D coordinates assigned)
NS(=O)(=O)c1cccc(C(=O)N2CCN(c3ccc([N-]C(=O)c4ccccc4F)cc3)CC2)c1 (nonaromatic ring conformer: 77.12569737351843 kcal/mol)

>  <smiles>  (35) 
NS(=O)(=O)c1cccc(C(=O)N2CCN(c3ccc(NC(=O)c4ccccc4F)cc3)CC2)c1

>  <score_type>  (35) 
oracle

>  <origin>  (35) 
adg

>  <m_score__min__energy>  (35) 
-10.94

>  <m_primary>  (35) 
energy

$$$$
35:0
     RDKit          3D

 28 29  0  0  1  0  0  0  0  0999 V2000
   62.8300   33.8300   47.2180 C   0  0  0  0  0  0  0  0  0  0  0  0
   61.4160   33.5770   46.7910 C   0  0  0  0  0  0  0  0  0  0  0  0
   60.9130   32.2740   46.8210 C   0  0  0  0  0  0  0  0  0  0  0  0
   59.6060   32.0410   46.4260 C   0  0  0  0  0  0  0  0  0  0  0  0
   58.7820   33.0750   45.9990 C   0  0  0  0  0  0  0  0  0  0  0  0
   57.4110   32.7880   45.5910 C   0  0  0  0  0  0  0  0  0  0  0  0
   57.0330   31.5670   45.4540 N   0  0  0  0  0  0  0  0  0  0  0  0
   56.7630   31.0080   44.1990 N   0  0  0  0  0  0  0  0  0  0  0  0
   57.2100   31.3470   42.9880 C   0  0  0  0  0  0  0  0  0  0  0  0
   58.1510   32.4650   42.7110 C   0  0  0  0  0  0  0  0  0  0  0  0
   56.6440   30.4870   42.1050 N   0  0  0  0  0  0  0  0  0  0  0  0
   55.8740   29.6450   42.7450 N   0  0  0  0  0  0  0  0  0  0  0  0
   55.9320   29.9500   44.0520 C   0  0  0  0  0  0  0  0  0  0  0  0
   55.2980   29.3210   44.9340 O   0  0  0  0  0  0  0  0  0  0  0  0
   59.2710   34.3630   45.9670 C   0  0  0  0  0  0  0  0  0  0  0  0
   60.5820   34.5840   46.3650 C   0  0  0  0  0  0  0  0  0  0  0  0
   62.8851   33.8399   48.3166 H   0  0  0  0  0  0  0  0  0  0  0  0
   63.4796   33.0338   46.8254 H   0  0  0  0  0  0  0  0  0  0  0  0
   63.1632   34.8020   46.8254 H   0  0  0  0  0  0  0  0  0  0  0  0
   61.5489   31.4409   47.1552 H   0  0  0  0  0  0  0  0  0  0  0  0
   59.2116   31.0144   46.4509 H   0  0  0  0  0  0  0  0  0  0  0  0
   56.7057   33.6107   45.4019 H   0  0  0  0  0  0  0  0  0  0  0  0
   58.5074   32.8884   43.6617 H   0  0  0  0  0  0  0  0  0  0  0  0
   59.0079   32.0884   42.1332 H   0  0  0  0  0  0  0  0  0  0  0  0
   57.6337   33.2451   42.1332 H   0  0  0  0  0  0  0  0  0  0  0  0
   55.3350   28.8880   42.2530 H   0  0  0  0  0  0  0  0  0  0  0  0
   58.6364   35.1973   45.6334 H   0  0  0  0  0  0  0  0  0  0  0  0
   60.9720   35.6122   46.3385 H   0  0  0  0  0  0  0  0  0  0  0  0
  1  2  1  0
  2  3  2  0
  3  4  1  0
  4  5  2  0
  5  6  1  0
  6  7  2  0
  7  8  1  0
  8  9  1  0
  9 10  1  0
  9 11  2  0
 11 12  1  0
 12 13  1  0
 13 14  2  0
  5 15  1  0
 15 16  2  0
 16  2  1  0
 13  8  1  0
  1 17  1  0
  1 18  1  0
  1 19  1  0
  3 20  1  0
  4 21  1  0
  6 22  1  0
 10 23  1  0
 10 24  1  0
 10 25  1  0
 12 26  1  0
 15 27  1  0
 16 28  1  0
M  END
>  <smiles>  (36) 
Cc1ccc(C=Nn2c(C)n[nH]c2=O)cc1

>  <score_type>  (36) 
oracle

>  <origin>  (36) 
adg

>  <m_score__min__energy>  (36) 
-7.3499999999999996

>  <m_primary>  (36) 
energy

$$$$
36:0
     RDKit          3D

 44 46  0  0  0  0  0  0  0  0999 V2000
   55.4700   30.0840   44.0130 C   0  0  0  0  0  0  0  0  0  0  0  0
   56.2540   29.2140   44.9410 C   0  0  0  0  0  0  0  0  0  0  0  0
   55.8960   27.9450   45.2400 N   0  0  0  0  0  0  0  0  0  0  0  0
   56.7960   27.4600   46.0820 N   0  0  0  0  0  0  0  0  0  0  0  0
   56.7840   26.0880   46.5800 C   0  0  0  0  0  0  0  0  0  0  0  0
   56.4350   25.1420   45.4660 C   0  0  0  0  0  0  0  0  0  0  0  0
   55.2560   24.3790   45.5240 C   0  0  0  0  0  0  0  0  0  0  0  0
   54.9540   23.4700   44.5050 C   0  0  0  0  0  0  0  0  0  0  0  0
   55.8320   23.3090   43.4270 C   0  0  0  0  0  0  0  0  0  0  0  0
   55.5390   22.4260   42.4420 F   0  0  0  0  0  0  0  0  0  0  0  0
   57.0130   24.0540   43.3710 C   0  0  0  0  0  0  0  0  0  0  0  0
   57.3180   24.9640   44.3890 C   0  0  0  0  0  0  0  0  0  0  0  0
   57.7360   28.3950   46.3110 C   0  0  0  0  0  0  0  0  0  0  0  0
   58.7410   28.2270   47.0530 O   0  0  0  0  0  0  0  0  0  0  0  0
   57.4320   29.5430   45.6050 C   0  0  0  0  0  0  0  0  0  0  0  0
   58.1980   30.8040   45.5730 C   0  0  0  0  0  0  0  0  0  0  0  0
   59.4390   30.7760   45.3510 O   0  0  0  0  0  0  0  0  0  0  0  0
   57.5370   32.0560   45.7860 N   0  0  0  0  0  0  0  0  0  0  0  0
   57.4010   33.0840   44.7610 C   0  0  0  0  0  0  0  0  0  0  0  0
   57.9410   34.4220   45.2710 C   0  0  0  0  0  0  0  0  0  0  0  0
   59.0810   34.2010   46.2290 C   0  0  0  0  0  0  0  0  0  0  0  0
   58.8600   34.2450   47.6160 C   0  0  0  0  0  0  0  0  0  0  0  0
   59.9130   34.0080   48.5050 C   0  0  0  0  0  0  0  0  0  0  0  0
   61.1900   33.7150   48.0170 C   0  0  0  0  0  0  0  0  0  0  0  0
   61.4140   33.6550   46.6380 C   0  0  0  0  0  0  0  0  0  0  0  0
   60.3640   33.8920   45.7450 C   0  0  0  0  0  0  0  0  0  0  0  0
   54.8464   30.7760   44.5981 H   0  0  0  0  0  0  0  0  0  0  0  0
   56.1604   30.6595   43.3789 H   0  0  0  0  0  0  0  0  0  0  0  0
   54.8260   29.4570   43.3789 H   0  0  0  0  0  0  0  0  0  0  0  0
   57.7789   25.8348   46.9751 H   0  0  0  0  0  0  0  0  0  0  0  0
   56.0328   25.9995   47.3787 H   0  0  0  0  0  0  0  0  0  0  0  0
   54.5681   24.4973   46.3742 H   0  0  0  0  0  0  0  0  0  0  0  0
   54.0259   22.8813   44.5508 H   0  0  0  0  0  0  0  0  0  0  0  0
   57.7041   23.9247   42.5250 H   0  0  0  0  0  0  0  0  0  0  0  0
   58.2529   25.5420   44.3454 H   0  0  0  0  0  0  0  0  0  0  0  0
   57.9670   32.7818   43.8675 H   0  0  0  0  0  0  0  0  0  0  0  0
   56.3358   33.2009   44.5126 H   0  0  0  0  0  0  0  0  0  0  0  0
   58.2962   35.0179   44.4173 H   0  0  0  0  0  0  0  0  0  0  0  0
   57.1339   34.9540   45.7959 H   0  0  0  0  0  0  0  0  0  0  0  0
   57.8548   34.4667   48.0039 H   0  0  0  0  0  0  0  0  0  0  0  0
   59.7364   34.0521   49.5898 H   0  0  0  0  0  0  0  0  0  0  0  0
   62.0181   33.5318   48.7175 H   0  0  0  0  0  0  0  0  0  0  0  0
   62.4182   33.4209   46.2548 H   0  0  0  0  0  0  0  0  0  0  0  0
   60.5427   33.8364   44.6610 H   0  0  0  0  0  0  0  0  0  0  0  0
  1  2  1  0
  2  3  1  0
  3  4  1  0
  4  5  1  0
  5  6  1  0
  6  7  2  0
  7  8  1  0
  8  9  2  0
  9 10  1  0
  9 11  1  0
 11 12  2  0
  4 13  1  0
 13 14  2  0
 13 15  1  0
 15 16  1  0
 16 17  2  0
 16 18  1  0
 18 19  1  0
 19 20  1  0
 20 21  1  0
 21 22  2  0
 22 23  1  0
 23 24  2  0
 24 25  1  0
 25 26  2  0
 15  2  2  0
 26 21  1  0
 12  6  1  0
  1 27  1  0
  1 28  1  0
  1 29  1  0
  5 30  1  0
  5 31  1  0
  7 32  1  0
  8 33  1  0
 11 34  1  0
 12 35  1  0
 19 36  1  0
 19 37  1  0
 20 38  1  0
 20 39  1  0
 22 40  1  0
 23 41  1  0
 24 42  1  0
 25 43  1  0
 26 44  1  0
M  CHG  2   3  -1  18  -1
M  END
>  <UniqueID>  (37) 
35

>  <SMILES>  (37) 
Cc1[n-]n(Cc2ccc(F)cc2)c(=O)c1C(=O)[N-]CCc1ccccc1

>  <Energy>  (37) 
71.95275776706592

>  <Genealogy>  (37) 
Cc1[n-]n(Cc2ccc(F)cc2)c(=O)c1C(=O)[N-]CCc1ccccc1 (protonated)
Cc1[n-]n(Cc2ccc(F)cc2)c(=O)c1C(=O)[N-]CCc1ccccc1 (3D coordinates assigned)
Cc1[n-]n(Cc2ccc(F)cc2)c(=O)c1C(=O)[N-]CCc1ccccc1 (optimized conformer: 71.95275776706592 kcal/mol)

>  <smiles>  (37) 
Cc1[nH]n(Cc2ccc(F)cc2)c(=O)c1C(=O)NCCc1ccccc1

>  <score_type>  (37) 
oracle

>  <origin>  (37) 
adg

>  <m_score__min__energy>  (37) 
-11.67

>  <m_primary>  (37) 
energy

$$$$
37:0
     RDKit          3D

 57 60  0  0  1  0  0  0  0  0999 V2000
   60.0230   27.1380   48.2570 C   0  0  0  0  0  0  0  0  0  0  0  0
   58.7540   26.6690   47.7170 N   0  0  0  0  0  0  0  0  0  0  0  0
   58.3080   27.1610   46.6180 C   0  0  0  0  0  0  0  0  0  0  0  0
   57.9010   28.4390   46.4850 N   0  0  0  0  0  0  0  0  0  0  0  0
   57.4420   28.9220   45.3280 C   0  0  0  0  0  0  0  0  0  0  0  0
   57.0420   30.1360   45.1530 N   0  0  0  0  0  0  0  0  0  0  0  0
   57.8870   31.1750   45.6330 C   0  0  0  0  0  0  0  0  0  0  0  0
   57.7340   32.5000   45.2780 C   0  0  0  0  0  0  0  0  0  0  0  0
   58.5890   33.4520   45.7810 C   0  0  0  0  0  0  0  0  0  0  0  0
   59.5910   33.0780   46.6350 C   0  0  0  0  0  0  0  0  0  0  0  0
   60.5630   33.9940   47.2370 C   0  0  0  0  0  0  0  0  0  0  0  0
   61.7050   33.3950   47.8270 N   0  0  0  0  0  0  0  0  0  0  0  0
   62.9470   33.7020   47.1570 C   0  0  0  0  0  0  0  0  0  0  0  0
   64.1490   33.1790   47.8790 C   0  0  0  0  0  0  0  0  0  0  0  0
   64.0070   33.1100   49.3160 N   0  0  0  0  0  0  0  0  0  0  0  0
   65.1810   32.8350   50.0720 C   0  0  0  0  0  0  0  0  0  0  0  0
   66.0330   33.8360   50.5210 C   0  0  0  0  0  0  0  0  0  0  0  0
   67.1720   33.5720   51.2540 C   0  0  0  0  0  0  0  0  0  0  0  0
   67.5100   32.2730   51.5720 C   0  0  0  0  0  0  0  0  0  0  0  0
   66.6880   31.2600   51.1430 C   0  0  0  0  0  0  0  0  0  0  0  0
   67.0240   29.8790   51.4670 C   0  0  0  0  0  0  0  0  0  0  0  0
   66.8220   29.3700   52.7750 N   0  0  0  0  0  0  0  0  0  0  0  0
   67.5050   29.0720   50.6180 O   0  0  0  0  0  0  0  0  0  0  0  0
   65.5540   31.5400   50.4120 C   0  0  0  0  0  0  0  0  0  0  0  0
   62.7730   33.2980   50.0350 C   0  0  0  0  0  0  0  0  0  0  0  0
   61.7850   33.9960   49.1680 C   0  0  0  0  0  0  0  0  0  0  0  0
   59.6910   31.7250   46.9530 C   0  0  0  0  0  0  0  0  0  0  0  0
   58.8780   30.7920   46.4800 N   0  0  0  0  0  0  0  0  0  0  0  0
   57.3750   28.1170   44.2340 N   0  0  0  0  0  0  0  0  0  0  0  0
   57.7720   26.8340   44.3260 C   0  0  0  0  0  0  0  0  0  0  0  0
   58.2550   26.3050   45.5230 C   0  0  0  0  0  0  0  0  0  0  0  0
   58.7750   24.6370   45.6520 Cl  0  0  0  0  0  0  0  0  0  0  0  0
   59.9818   27.1228   49.3561 H   0  0  0  0  0  0  0  0  0  0  0  0
   60.8341   26.4802   47.9113 H   0  0  0  0  0  0  0  0  0  0  0  0
   60.2114   28.1651   47.9113 H   0  0  0  0  0  0  0  0  0  0  0  0
   57.9510   29.0530   47.3130 H   0  0  0  0  0  0  0  0  0  0  0  0
   56.9267   32.7948   44.5915 H   0  0  0  0  0  0  0  0  0  0  0  0
   58.4684   34.5083   45.4987 H   0  0  0  0  0  0  0  0  0  0  0  0
   60.9119   34.6783   46.4495 H   0  0  0  0  0  0  0  0  0  0  0  0
   60.0299   34.4883   48.0625 H   0  0  0  0  0  0  0  0  0  0  0  0
   62.9216   33.2568   46.1514 H   0  0  0  0  0  0  0  0  0  0  0  0
   63.0376   34.7977   47.1205 H   0  0  0  0  0  0  0  0  0  0  0  0
   64.3588   32.1656   47.5062 H   0  0  0  0  0  0  0  0  0  0  0  0
   64.9646   33.8900   47.6808 H   0  0  0  0  0  0  0  0  0  0  0  0
   65.7898   34.8819   50.2825 H   0  0  0  0  0  0  0  0  0  0  0  0
   67.8135   34.4015   51.5863 H   0  0  0  0  0  0  0  0  0  0  0  0
   68.4164   32.0537   52.1554 H   0  0  0  0  0  0  0  0  0  0  0  0
   65.8310   29.1570   53.0570 H   0  0  0  0  0  0  0  0  0  0  0  0
   67.6230   29.2120   53.4410 H   0  0  0  0  0  0  0  0  0  0  0  0
   64.9180   30.7045   50.0842 H   0  0  0  0  0  0  0  0  0  0  0  0
   62.3704   32.3182   50.3317 H   0  0  0  0  0  0  0  0  0  0  0  0
   62.9640   33.9072   50.9308 H   0  0  0  0  0  0  0  0  0  0  0  0
   60.7941   33.9391   49.6421 H   0  0  0  0  0  0  0  0  0  0  0  0
   62.1123   35.0398   49.0530 H   0  0  0  0  0  0  0  0  0  0  0  0
   60.4932   31.4128   47.6379 H   0  0  0  0  0  0  0  0  0  0  0  0
   57.0170   28.4710   43.3110 H   0  0  0  0  0  0  0  0  0  0  0  0
   57.7142   26.1883   43.4374 H   0  0  0  0  0  0  0  0  0  0  0  0
  1  2  1  0
  2  3  2  0
  3  4  1  0
  4  5  1  0
  5  6  2  0
  6  7  1  0
  7  8  2  0
  8  9  1  0
  9 10  2  0
 10 11  1  0
 11 12  1  0
 12 13  1  0
 13 14  1  0
 14 15  1  0
 15 16  1  0
 16 17  2  0
 17 18  1  0
 18 19  2  0
 19 20  1  0
 20 21  1  0
 21 22  1  0
 21 23  2  0
 20 24  2  0
 15 25  1  0
 25 26  1  0
 10 27  1  0
 27 28  2  0
  5 29  1  0
 29 30  1  0
 30 31  2  0
 31 32  1  0
 31  3  1  0
 28  7  1  0
 26 12  1  0
 24 16  1  0
  1 33  1  0
  1 34  1  0
  1 35  1  0
  4 36  1  0
  8 37  1  0
  9 38  1  0
 11 39  1  0
 11 40  1  0
 13 41  1  0
 13 42  1  0
 14 43  1  0
 14 44  1  0
 17 45  1  0
 18 46  1  0
 19 47  1  0
 22 48  1  0
 22 49  1  0
 24 50  1  0
 25 51  1  0
 25 52  1  0
 26 53  1  0
 26 54  1  0
 27 55  1  0
 29 56  1  0
 30 57  1  0
M  END
>  <smiles>  (38) 
CN=c1[nH]c(=Nc2ccc(CN3CCN(c4cccc(C(N)=O)c4)CC3)cn2)[nH]cc1Cl

>  <score_type>  (38) 
oracle

>  <origin>  (38) 
adg

>  <m_score__min__energy>  (38) 
-10.02

>  <m_primary>  (38) 
energy

$$$$
38:0
     RDKit          3D

 63 66  0  0  0  0  0  0  0  0999 V2000
   57.7240   32.2060   43.2120 C   0  0  0  0  0  0  0  0  0  0  0  0
   58.2370   32.7980   44.4990 C   0  0  0  0  0  0  0  0  0  0  0  0
   58.5410   34.1690   44.5270 C   0  0  0  0  0  0  0  0  0  0  0  0
   59.0520   34.7620   45.6840 C   0  0  0  0  0  0  0  0  0  0  0  0
   59.2510   34.0050   46.8380 C   0  0  0  0  0  0  0  0  0  0  0  0
   59.7770   34.6490   48.0080 N   0  0  0  0  0  0  0  0  0  0  0  0
   60.7850   34.1250   48.8830 C   0  0  0  0  0  0  0  0  0  0  0  0
   60.6270   34.2440   50.1270 O   0  0  0  0  0  0  0  0  0  0  0  0
   61.9980   33.4470   48.3790 C   0  0  0  0  0  0  0  0  0  0  0  0
   62.6860   33.8450   47.2480 C   0  0  0  0  0  0  0  0  0  0  0  0
   63.7650   32.9940   47.1250 C   0  0  0  0  0  0  0  0  0  0  0  0
   63.7040   32.1200   48.1910 C   0  0  0  0  0  0  0  0  0  0  0  0
   62.6220   32.3890   48.9540 N   0  0  0  0  0  0  0  0  0  0  0  0
   62.3480   31.7660   50.2540 C   0  0  0  0  0  0  0  0  0  0  0  0
   61.8490   30.3280   50.0770 C   0  0  0  0  0  0  0  0  0  0  0  0
   60.8460   30.2470   48.9700 C   0  0  0  0  0  0  0  0  0  0  0  0
   59.6150   30.3100   49.2210 O   0  0  0  0  0  0  0  0  0  0  0  0
   61.2730   30.1450   47.6500 O   0  0  0  0  0  0  0  0  0  0  0  0
   58.9690   32.6310   46.8160 C   0  0  0  0  0  0  0  0  0  0  0  0
   58.4250   32.0250   45.6720 C   0  0  0  0  0  0  0  0  0  0  0  0
   58.0740   30.5950   45.7540 C   0  0  0  0  0  0  0  0  0  0  0  0
   57.0350   30.1860   45.1670 O   0  0  0  0  0  0  0  0  0  0  0  0
   58.9260   29.6650   46.4430 N   0  0  0  0  0  0  0  0  0  0  0  0
   58.8390   28.2450   46.2610 C   0  0  0  0  0  0  0  0  0  0  0  0
   60.0070   27.4730   46.2440 C   0  0  0  0  0  0  0  0  0  0  0  0
   59.9350   26.0920   46.0460 C   0  0  0  0  0  0  0  0  0  0  0  0
   58.6980   25.4730   45.8490 C   0  0  0  0  0  0  0  0  0  0  0  0
   57.5140   26.2340   45.8480 C   0  0  0  0  0  0  0  0  0  0  0  0
   56.2020   25.5840   45.6160 C   0  0  0  0  0  0  0  0  0  0  0  0
   55.1450   26.1480   46.0100 O   0  0  0  0  0  0  0  0  0  0  0  0
   56.1120   24.3040   44.9720 N   0  0  0  0  0  0  0  0  0  0  0  0
   55.7240   23.1490   45.7910 C   0  0  0  0  0  0  0  0  0  0  0  0
   55.4300   21.9120   44.9350 C   0  0  0  0  0  0  0  0  0  0  0  0
   56.3820   21.7750   43.9030 O   0  0  0  0  0  0  0  0  0  0  0  0
   56.2030   22.8220   42.9760 C   0  0  0  0  0  0  0  0  0  0  0  0
   56.6020   24.1670   43.5920 C   0  0  0  0  0  0  0  0  0  0  0  0
   57.5990   27.6250   46.0310 C   0  0  0  0  0  0  0  0  0  0  0  0
   57.0190   31.3924   43.4380 H   0  0  0  0  0  0  0  0  0  0  0  0
   57.2105   32.9849   42.6292 H   0  0  0  0  0  0  0  0  0  0  0  0
   58.5680   31.8085   42.6292 H   0  0  0  0  0  0  0  0  0  0  0  0
   58.3750   34.7819   43.6288 H   0  0  0  0  0  0  0  0  0  0  0  0
   59.2992   35.8339   45.6847 H   0  0  0  0  0  0  0  0  0  0  0  0
   62.4245   34.6770   46.5776 H   0  0  0  0  0  0  0  0  0  0  0  0
   64.5262   33.0093   46.3311 H   0  0  0  0  0  0  0  0  0  0  0  0
   64.4315   31.3195   48.3908 H   0  0  0  0  0  0  0  0  0  0  0  0
   63.2723   31.7556   50.8503 H   0  0  0  0  0  0  0  0  0  0  0  0
   61.5674   32.3484   50.7653 H   0  0  0  0  0  0  0  0  0  0  0  0
   62.7028   29.6766   49.8387 H   0  0  0  0  0  0  0  0  0  0  0  0
   61.3694   30.0032   51.0122 H   0  0  0  0  0  0  0  0  0  0  0  0
   59.1768   32.0201   47.7069 H   0  0  0  0  0  0  0  0  0  0  0  0
   59.6500   30.0260   47.1030 H   0  0  0  0  0  0  0  0  0  0  0  0
   60.9850   27.9558   46.3871 H   0  0  0  0  0  0  0  0  0  0  0  0
   60.8555   25.4898   46.0452 H   0  0  0  0  0  0  0  0  0  0  0  0
   58.6492   24.3851   45.6939 H   0  0  0  0  0  0  0  0  0  0  0  0
   56.5444   22.9140   46.4851 H   0  0  0  0  0  0  0  0  0  0  0  0
   54.8053   23.4117   46.3359 H   0  0  0  0  0  0  0  0  0  0  0  0
   55.4601   21.0169   45.5736 H   0  0  0  0  0  0  0  0  0  0  0  0
   54.4346   22.0276   44.4813 H   0  0  0  0  0  0  0  0  0  0  0  0
   56.8277   22.6310   42.0910 H   0  0  0  0  0  0  0  0  0  0  0  0
   55.1410   22.8648   42.6925 H   0  0  0  0  0  0  0  0  0  0  0  0
   57.6992   24.2457   43.5945 H   0  0  0  0  0  0  0  0  0  0  0  0
   56.1490   24.9669   42.9879 H   0  0  0  0  0  0  0  0  0  0  0  0
   56.6845   28.2352   45.9938 H   0  0  0  0  0  0  0  0  0  0  0  0
  1  2  1  0
  2  3  2  0
  3  4  1  0
  4  5  2  0
  5  6  1  0
  6  7  1  0
  7  8  2  0
  7  9  1  0
  9 10  2  0
 10 11  1  0
 11 12  2  0
 12 13  1  0
 13 14  1  0
 14 15  1  0
 15 16  1  0
 16 17  2  0
 16 18  1  0
  5 19  1  0
 19 20  2  0
 20 21  1  0
 21 22  2  0
 21 23  1  0
 23 24  1  0
 24 25  2  0
 25 26  1  0
 26 27  2  0
 27 28  1  0
 28 29  1  0
 29 30  2  0
 29 31  1  0
 31 32  1  0
 32 33  1  0
 33 34  1  0
 34 35  1  0
 35 36  1  0
 28 37  2  0
 20  2  1  0
 37 24  1  0
 13  9  1  0
 36 31  1  0
  1 38  1  0
  1 39  1  0
  1 40  1  0
  3 41  1  0
  4 42  1  0
 10 43  1  0
 11 44  1  0
 12 45  1  0
 14 46  1  0
 14 47  1  0
 15 48  1  0
 15 49  1  0
 19 50  1  0
 23 51  1  0
 25 52  1  0
 26 53  1  0
 27 54  1  0
 32 55  1  0
 32 56  1  0
 33 57  1  0
 33 58  1  0
 35 59  1  0
 35 60  1  0
 36 61  1  0
 36 62  1  0
 37 63  1  0
M  CHG  2   6  -1  18  -1
M  END
>  <UniqueID>  (39) 
36

>  <SMILES>  (39) 
Cc1ccc([N-]C(=O)c2cccn2CCC(=O)[O-])cc1C(=O)Nc1cccc(C(=O)N2CCOCC2)c1

>  <Energy>  (39) 
110.60583076918664

>  <Genealogy>  (39) 
Cc1ccc([N-]C(=O)c2cccn2CCC(=O)[O-])cc1C(=O)Nc1cccc(C(=O)N2CCOCC2)c1 (protonated)
Cc1ccc([N-]C(=O)c2cccn2CCC(=O)[O-])cc1C(=O)Nc1cccc(C(=O)N2CCOCC2)c1 (3D coordinates assigned)
Cc1ccc([N-]C(=O)c2cccn2CCC(=O)[O-])cc1C(=O)Nc1cccc(C(=O)N2CCOCC2)c1 (nonaromatic ring conformer: 110.60583076918664 kcal/mol)

>  <smiles>  (39) 
Cc1ccc(NC(=O)c2cccn2CCC(=O)O)cc1C(=O)Nc1cccc(C(=O)N2CCOCC2)c1

>  <score_type>  (39) 
oracle

>  <origin>  (39) 
adg

>  <m_score__min__energy>  (39) 
-15.210000000000001

>  <m_primary>  (39) 
energy

$$$$
39:0
     RDKit          3D

 47 50  0  0  0  0  0  0  0  0999 V2000
   58.0600   27.3440   47.1740 C   0  0  0  0  0  0  0  0  0  0  0  0
   58.1070   28.7420   46.7120 N   0  0  0  0  0  0  0  0  0  0  0  0
   58.7400   29.6920   47.4800 C   0  0  0  0  0  0  0  0  0  0  0  0
   59.3020   29.3920   48.5700 O   0  0  0  0  0  0  0  0  0  0  0  0
   58.7480   31.0020   47.0350 C   0  0  0  0  0  0  0  0  0  0  0  0
   59.3190   32.0760   47.6040 N   0  0  0  0  0  0  0  0  0  0  0  0
   59.0620   33.1090   46.7650 C   0  0  0  0  0  0  0  0  0  0  0  0
   59.5120   34.5170   47.0170 C   0  0  0  0  0  0  0  0  0  0  0  0
   60.5900   34.5370   48.0050 N   0  0  0  0  0  0  0  0  0  0  0  0
   61.8170   33.8010   47.8370 C   0  0  0  0  0  0  0  0  0  0  0  0
   62.6960   34.0010   46.7550 C   0  0  0  0  0  0  0  0  0  0  0  0
   63.7660   33.1180   46.7330 C   0  0  0  0  0  0  0  0  0  0  0  0
   63.6220   32.0850   48.0490 S   0  0  0  0  0  0  0  0  0  0  0  0
   62.2100   32.7520   48.6760 C   0  0  0  0  0  0  0  0  0  0  0  0
   61.5120   32.2350   49.8700 C   0  0  0  0  0  0  0  0  0  0  0  0
   61.8240   31.1090   50.3420 O   0  0  0  0  0  0  0  0  0  0  0  0
   60.4050   32.9430   50.4460 N   0  0  0  0  0  0  0  0  0  0  0  0
   59.3160   32.4260   50.9500 C   0  0  0  0  0  0  0  0  0  0  0  0
   58.4140   33.1800   51.7350 C   0  0  0  0  0  0  0  0  0  0  0  0
   57.2730   32.5660   52.2540 C   0  0  0  0  0  0  0  0  0  0  0  0
   57.0370   31.2160   52.0050 C   0  0  0  0  0  0  0  0  0  0  0  0
   57.9530   30.4920   51.2410 C   0  0  0  0  0  0  0  0  0  0  0  0
   59.0620   31.1010   50.7400 N   0  0  0  0  0  0  0  0  0  0  0  0
   58.3020   32.6930   45.6760 C   0  0  0  0  0  0  0  0  0  0  0  0
   58.1260   31.3340   45.8750 C   0  0  0  0  0  0  0  0  0  0  0  0
   57.4680   30.4180   45.1120 N   0  0  0  0  0  0  0  0  0  0  0  0
   56.7600   30.8450   43.8970 C   0  0  0  0  0  0  0  0  0  0  0  0
   57.4500   29.1090   45.5490 C   0  0  0  0  0  0  0  0  0  0  0  0
   56.8270   28.2350   44.8820 O   0  0  0  0  0  0  0  0  0  0  0  0
   58.0592   27.3211   48.2738 H   0  0  0  0  0  0  0  0  0  0  0  0
   57.1452   26.8637   46.7966 H   0  0  0  0  0  0  0  0  0  0  0  0
   58.9405   26.8033   46.7966 H   0  0  0  0  0  0  0  0  0  0  0  0
   59.8640   32.1050   48.4930 H   0  0  0  0  0  0  0  0  0  0  0  0
   59.8745   34.9559   46.0757 H   0  0  0  0  0  0  0  0  0  0  0  0
   58.6627   35.1001   47.4027 H   0  0  0  0  0  0  0  0  0  0  0  0
   60.3840   34.9980   48.9160 H   0  0  0  0  0  0  0  0  0  0  0  0
   62.5480   34.7847   45.9975 H   0  0  0  0  0  0  0  0  0  0  0  0
   64.5701   33.0981   45.9827 H   0  0  0  0  0  0  0  0  0  0  0  0
   58.6100   34.2437   51.9355 H   0  0  0  0  0  0  0  0  0  0  0  0
   56.5613   33.1473   52.8587 H   0  0  0  0  0  0  0  0  0  0  0  0
   56.1379   30.7257   52.4065 H   0  0  0  0  0  0  0  0  0  0  0  0
   57.7779   29.4243   51.0428 H   0  0  0  0  0  0  0  0  0  0  0  0
   59.7300   30.5300   50.1740 H   0  0  0  0  0  0  0  0  0  0  0  0
   57.9256   33.3061   44.8439 H   0  0  0  0  0  0  0  0  0  0  0  0
   55.8491   31.3943   44.1773 H   0  0  0  0  0  0  0  0  0  0  0  0
   57.4143   31.4992   43.3021 H   0  0  0  0  0  0  0  0  0  0  0  0
   56.4866   29.9610   43.3021 H   0  0  0  0  0  0  0  0  0  0  0  0
  1  2  1  0
  2  3  1  0
  3  4  2  0
  3  5  1  0
  5  6  1  0
  6  7  1  0
  7  8  1  0
  8  9  1  0
  9 10  1  0
 10 11  1  0
 11 12  2  0
 12 13  1  0
 13 14  1  0
 14 15  1  0
 15 16  2  0
 15 17  1  0
 17 18  2  3
 18 19  1  0
 19 20  2  0
 20 21  1  0
 21 22  2  0
 22 23  1  0
  7 24  2  0
 24 25  1  0
 25 26  1  0
 26 27  1  0
 26 28  1  0
 28 29  2  0
 28  2  1  0
 25  5  2  0
 14 10  2  0
 23 18  1  0
  1 30  1  0
  1 31  1  0
  1 32  1  0
  6 33  1  0
  8 34  1  0
  8 35  1  0
  9 36  1  0
 11 37  1  0
 12 38  1  0
 19 39  1  0
 20 40  1  0
 21 41  1  0
 22 42  1  0
 23 43  1  0
 24 44  1  0
 27 45  1  0
 27 46  1  0
 27 47  1  0
M  END
>  <UniqueID>  (40) 
37

>  <SMILES>  (40) 
Cn1c(=O)c2[nH]c(CNc3ccsc3C(=O)N=c3cccc[nH]3)cc2n(C)c1=O

>  <Energy>  (40) 
126.50810405162869

>  <Genealogy>  (40) 
Cn1c(=O)c2[nH]c(CNc3ccsc3C(=O)N=c3cccc[nH]3)cc2n(C)c1=O (3D coordinates assigned)
Cn1c(=O)c2[nH]c(CNc3ccsc3C(=O)N=c3cccc[nH]3)cc2n(C)c1=O (optimized conformer: 126.50810405162869 kcal/mol)

>  <smiles>  (40) 
Cn1c(=O)c2[nH]c(CNc3ccsc3C(=O)N=c3cccc[nH]3)cc2n(C)c1=O

>  <score_type>  (40) 
oracle

>  <origin>  (40) 
adg

>  <m_score__min__energy>  (40) 
-8.9000000000000004

>  <m_primary>  (40) 
energy

$$$$
40:0
     RDKit          3D

 55 58  0  0  0  0  0  0  0  0999 V2000
   57.2650   31.3170   43.5770 C   0  0  0  0  0  0  0  0  0  0  0  0
   57.8920   32.1430   44.6680 C   0  0  0  0  0  0  0  0  0  0  0  0
   58.0650   33.5230   44.4630 C   0  0  0  0  0  0  0  0  0  0  0  0
   58.6350   34.3250   45.4540 C   0  0  0  0  0  0  0  0  0  0  0  0
   59.0380   33.7640   46.6730 C   0  0  0  0  0  0  0  0  0  0  0  0
   59.6540   34.6370   47.7320 C   0  0  0  0  0  0  0  0  0  0  0  0
   61.0380   34.2380   47.9600 N   0  0  0  0  0  0  0  0  0  0  0  0
   61.4280   33.3030   48.9700 C   0  0  0  0  0  0  0  0  0  0  0  0
   61.7000   33.6980   50.1360 O   0  0  0  0  0  0  0  0  0  0  0  0
   61.4920   31.8450   48.6460 C   0  0  0  0  0  0  0  0  0  0  0  0
   60.8020   31.0690   49.6850 N   0  0  0  0  0  0  0  0  0  0  0  0
   61.3400   29.8710   50.0850 C   0  0  0  0  0  0  0  0  0  0  0  0
   60.7250   29.1090   51.0300 N   0  0  0  0  0  0  0  0  0  0  0  0
   59.5640   29.5420   51.5690 C   0  0  0  0  0  0  0  0  0  0  0  0
   58.6480   28.7570   52.7270 S   0  0  0  0  0  0  0  0  0  0  0  0
   57.4310   29.9330   52.7620 C   0  0  0  0  0  0  0  0  0  0  0  0
   56.2100   29.8020   53.5770 C   0  0  0  0  0  0  0  0  0  0  0  0
   56.2580   30.0850   54.8030 O   0  0  0  0  0  0  0  0  0  0  0  0
   54.9680   29.3620   53.0130 N   0  0  0  0  0  0  0  0  0  0  0  0
   53.8630   30.2130   52.6800 C   0  0  0  0  0  0  0  0  0  0  0  0
   53.8430   30.8470   51.4320 C   0  0  0  0  0  0  0  0  0  0  0  0
   52.7680   31.6710   51.0810 C   0  0  0  0  0  0  0  0  0  0  0  0
   51.7200   31.8830   51.9800 C   0  0  0  0  0  0  0  0  0  0  0  0
   50.6440   32.6830   51.6200 O   0  0  0  0  0  0  0  0  0  0  0  0
   51.7550   31.2870   53.2460 C   0  0  0  0  0  0  0  0  0  0  0  0
   52.8260   30.4610   53.5990 C   0  0  0  0  0  0  0  0  0  0  0  0
   57.7590   30.9790   51.8770 C   0  0  0  0  0  0  0  0  0  0  0  0
   56.9470   32.2350   51.7130 C   0  0  0  0  0  0  0  0  0  0  0  0
   58.9690   30.7280   51.1920 C   0  0  0  0  0  0  0  0  0  0  0  0
   59.6070   31.5040   50.2130 C   0  0  0  0  0  0  0  0  0  0  0  0
   59.0880   32.5820   49.8140 O   0  0  0  0  0  0  0  0  0  0  0  0
   58.9050   32.3820   46.8730 C   0  0  0  0  0  0  0  0  0  0  0  0
   58.3530   31.5590   45.8760 C   0  0  0  0  0  0  0  0  0  0  0  0
   58.1980   30.0890   46.1590 C   0  0  0  0  0  0  0  0  0  0  0  0
   56.6578   30.5171   44.0257 H   0  0  0  0  0  0  0  0  0  0  0  0
   56.6241   31.9582   42.9540 H   0  0  0  0  0  0  0  0  0  0  0  0
   58.0549   30.8721   42.9540 H   0  0  0  0  0  0  0  0  0  0  0  0
   57.7480   33.9758   43.5120 H   0  0  0  0  0  0  0  0  0  0  0  0
   58.7682   35.4024   45.2767 H   0  0  0  0  0  0  0  0  0  0  0  0
   59.6264   35.6859   47.4017 H   0  0  0  0  0  0  0  0  0  0  0  0
   59.0863   34.5271   48.6677 H   0  0  0  0  0  0  0  0  0  0  0  0
   61.0070   31.6659   47.6751 H   0  0  0  0  0  0  0  0  0  0  0  0
   62.5452   31.5310   48.6003 H   0  0  0  0  0  0  0  0  0  0  0  0
   62.2813   29.5222   49.6354 H   0  0  0  0  0  0  0  0  0  0  0  0
   54.6735   30.6972   50.7264 H   0  0  0  0  0  0  0  0  0  0  0  0
   52.7480   32.1539   50.0929 H   0  0  0  0  0  0  0  0  0  0  0  0
   50.9404   31.4685   53.9625 H   0  0  0  0  0  0  0  0  0  0  0  0
   52.8586   30.0031   54.5986 H   0  0  0  0  0  0  0  0  0  0  0  0
   56.6877   32.6360   52.7039 H   0  0  0  0  0  0  0  0  0  0  0  0
   57.5340   32.9812   51.1576 H   0  0  0  0  0  0  0  0  0  0  0  0
   56.0256   32.0060   51.1576 H   0  0  0  0  0  0  0  0  0  0  0  0
   59.2370   31.9365   47.8224 H   0  0  0  0  0  0  0  0  0  0  0  0
   58.1807   29.9248   47.2465 H   0  0  0  0  0  0  0  0  0  0  0  0
   57.2568   29.7281   45.7187 H   0  0  0  0  0  0  0  0  0  0  0  0
   59.0432   29.5397   45.7187 H   0  0  0  0  0  0  0  0  0  0  0  0
  1  2  1  0
  2  3  2  0
  3  4  1  0
  4  5  2  0
  5  6  1  0
  6  7  1  0
  7  8  1  0
  8  9  2  0
  8 10  1  0
 10 11  1  0
 11 12  1  0
 12 13  2  0
 13 14  1  0
 14 15  1  0
 15 16  1  0
 16 17  1  0
 17 18  2  0
 17 19  1  0
 19 20  1  0
 20 21  2  0
 21 22  1  0
 22 23  2  0
 23 24  1  0
 23 25  1  0
 25 26  2  0
 16 27  2  0
 27 28  1  0
 27 29  1  0
 29 30  1  0
 30 31  2  0
  5 32  1  0
 32 33  2  0
 33 34  1  0
 33  2  1  0
 30 11  1  0
 29 14  2  0
 26 20  1  0
  1 35  1  0
  1 36  1  0
  1 37  1  0
  3 38  1  0
  4 39  1  0
  6 40  1  0
  6 41  1  0
 10 42  1  0
 10 43  1  0
 12 44  1  0
 21 45  1  0
 22 46  1  0
 25 47  1  0
 26 48  1  0
 28 49  1  0
 28 50  1  0
 28 51  1  0
 32 52  1  0
 34 53  1  0
 34 54  1  0
 34 55  1  0
M  CHG  3   7  -1  19  -1  24  -1
M  END
>  <UniqueID>  (41) 
38

>  <SMILES>  (41) 
Cc1ccc(C[N-]C(=O)Cn2cnc3sc(C(=O)[N-]c4ccc([O-])cc4)c(C)c3c2=O)cc1C

>  <Energy>  (41) 
97.06077983558107

>  <Genealogy>  (41) 
Cc1ccc(C[N-]C(=O)Cn2cnc3sc(C(=O)[N-]c4ccc([O-])cc4)c(C)c3c2=O)cc1C (protonated)
Cc1ccc(C[N-]C(=O)Cn2cnc3sc(C(=O)[N-]c4ccc([O-])cc4)c(C)c3c2=O)cc1C (3D coordinates assigned)
Cc1ccc(C[N-]C(=O)Cn2cnc3sc(C(=O)[N-]c4ccc([O-])cc4)c(C)c3c2=O)cc1C (optimized conformer: 97.06077983558107 kcal/mol)

>  <smiles>  (41) 
Cc1ccc(CNC(=O)Cn2cnc3sc(C(=O)Nc4ccc(O)cc4)c(C)c3c2=O)cc1C

>  <score_type>  (41) 
oracle

>  <origin>  (41) 
adg

>  <m_score__min__energy>  (41) 
-15.050000000000001

>  <m_primary>  (41) 
energy

$$$$
41:0
     RDKit          3D

 27 28  0  0  0  0  0  0  0  0999 V2000
   58.4330   24.8700   45.2650 O   0  0  0  0  0  0  0  0  0  0  0  0
   57.3490   25.4860   45.0950 C   0  0  0  0  0  0  0  0  0  0  0  0
   57.3740   26.9010   44.8850 N   0  0  0  0  0  0  0  0  0  0  0  0
   57.6000   27.8720   45.9480 C   0  0  0  0  0  0  0  0  0  0  0  0
   57.5320   29.2610   45.3790 C   0  0  0  0  0  0  0  0  0  0  0  0
   58.6690   30.0870   45.4070 C   0  0  0  0  0  0  0  0  0  0  0  0
   58.6070   31.3910   44.9080 C   0  0  0  0  0  0  0  0  0  0  0  0
   57.4090   31.8860   44.3860 C   0  0  0  0  0  0  0  0  0  0  0  0
   56.2680   31.0800   44.3690 C   0  0  0  0  0  0  0  0  0  0  0  0
   56.3220   29.7720   44.8680 C   0  0  0  0  0  0  0  0  0  0  0  0
   55.1710   28.9920   44.8550 O   0  0  0  0  0  0  0  0  0  0  0  0
   56.0760   24.7360   45.1340 C   0  0  0  0  0  0  0  0  0  0  0  0
   54.8960   25.3430   45.6080 C   0  0  0  0  0  0  0  0  0  0  0  0
   54.8710   26.6710   46.0390 O   0  0  0  0  0  0  0  0  0  0  0  0
   53.7410   24.6290   45.6430 N   0  0  0  0  0  0  0  0  0  0  0  0
   53.6940   23.3400   45.2270 C   0  0  0  0  0  0  0  0  0  0  0  0
   52.6100   22.7030   45.2720 O   0  0  0  0  0  0  0  0  0  0  0  0
   54.8150   22.7350   44.7600 N   0  0  0  0  0  0  0  0  0  0  0  0
   56.0000   23.3960   44.7000 C   0  0  0  0  0  0  0  0  0  0  0  0
   57.3160   22.5910   44.1420 S   0  0  0  0  0  0  0  0  0  0  0  0
   56.8277   27.7546   46.7224 H   0  0  0  0  0  0  0  0  0  0  0  0
   58.5924   27.7055   46.3924 H   0  0  0  0  0  0  0  0  0  0  0  0
   59.6126   29.7050   45.8239 H   0  0  0  0  0  0  0  0  0  0  0  0
   59.5030   32.0289   44.9262 H   0  0  0  0  0  0  0  0  0  0  0  0
   57.3643   32.9106   43.9883 H   0  0  0  0  0  0  0  0  0  0  0  0
   55.3246   31.4735   43.9627 H   0  0  0  0  0  0  0  0  0  0  0  0
   55.1470   27.4440   45.4460 H   0  0  0  0  0  0  0  0  0  0  0  0
  1  2  2  0
  2  3  1  0
  3  4  1  0
  4  5  1  0
  5  6  2  0
  6  7  1  0
  7  8  2  0
  8  9  1  0
  9 10  2  0
 10 11  1  0
  2 12  1  0
 12 13  2  0
 13 14  1  0
 13 15  1  0
 15 16  1  0
 16 17  2  0
 16 18  1  0
 18 19  1  0
 19 20  2  0
 10  5  1  0
 19 12  1  0
  4 21  1  0
  4 22  1  0
  6 23  1  0
  7 24  1  0
  8 25  1  0
  9 26  1  0
 14 27  1  0
M  CHG  4   3  -1  11  -1  15  -1  18  -1
M  END
>  <UniqueID>  (42) 
39

>  <SMILES>  (42) 
O=C([N-]Cc1ccccc1[O-])c1c(O)[n-]c(=O)[n-]c1=S

>  <Energy>  (42) 
36.4450170458281

>  <Genealogy>  (42) 
O=C([N-]Cc1ccccc1[O-])c1c(O)[n-]c(=O)[n-]c1=S (protonated)
O=C([N-]Cc1ccccc1[O-])c1c(O)[n-]c(=O)[n-]c1=S (3D coordinates assigned)
O=C([N-]Cc1ccccc1[O-])c1c(O)[n-]c(=O)[n-]c1=S (optimized conformer: 36.4450170458281 kcal/mol)

>  <smiles>  (42) 
O=C(NCc1ccccc1O)c1c(O)[nH]c(=O)[nH]c1=S

>  <score_type>  (42) 
oracle

>  <origin>  (42) 
adg

>  <m_score__min__energy>  (42) 
-16.149999999999999

>  <m_primary>  (42) 
energy

$$$$
42:0
     RDKit          3D

 39 41  0  0  0  0  0  0  0  0999 V2000
   61.8950   32.5820   50.2000 O   0  0  0  0  0  0  0  0  0  0  0  0
   60.8010   32.9990   49.7400 C   0  0  0  0  0  0  0  0  0  0  0  0
   59.7040   33.3860   50.6920 C   0  0  0  0  0  0  0  0  0  0  0  0
   58.8300   32.2020   50.9780 C   0  0  0  0  0  0  0  0  0  0  0  0
   57.3300   32.3030   51.7420 S   0  0  0  0  0  0  0  0  0  0  0  0
   57.0370   30.6610   51.5820 C   0  0  0  0  0  0  0  0  0  0  0  0
   56.0000   30.0800   51.9950 O   0  0  0  0  0  0  0  0  0  0  0  0
   58.0410   30.0140   50.9530 N   0  0  0  0  0  0  0  0  0  0  0  0
   59.0420   30.8680   50.6120 C   0  0  0  0  0  0  0  0  0  0  0  0
   60.1800   30.4020   49.9550 O   0  0  0  0  0  0  0  0  0  0  0  0
   60.6840   33.2160   48.3310 N   0  0  0  0  0  0  0  0  0  0  0  0
   59.7770   32.5270   47.4630 C   0  0  0  0  0  0  0  0  0  0  0  0
   59.9700   31.1630   47.2100 C   0  0  0  0  0  0  0  0  0  0  0  0
   59.1000   30.4740   46.3590 C   0  0  0  0  0  0  0  0  0  0  0  0
   58.0160   31.1410   45.7710 C   0  0  0  0  0  0  0  0  0  0  0  0
   56.9620   30.2870   44.6510 S   0  0  0  0  0  0  0  0  0  0  0  0
   55.8610   31.2120   44.2170 O   0  0  0  0  0  0  0  0  0  0  0  0
   57.7300   29.8350   43.4390 O   0  0  0  0  0  0  0  0  0  0  0  0
   56.2660   28.9030   45.4290 N   0  0  0  0  0  0  0  0  0  0  0  0
   56.9290   27.6480   45.6440 C   0  0  0  0  0  0  0  0  0  0  0  0
   58.3300   27.5190   45.5660 C   0  0  0  0  0  0  0  0  0  0  0  0
   58.9370   26.2820   45.8050 C   0  0  0  0  0  0  0  0  0  0  0  0
   58.1560   25.1650   46.1120 C   0  0  0  0  0  0  0  0  0  0  0  0
   56.7660   25.2820   46.1730 C   0  0  0  0  0  0  0  0  0  0  0  0
   56.1520   26.5170   45.9370 C   0  0  0  0  0  0  0  0  0  0  0  0
   54.7680   26.6160   45.9910 O   0  0  0  0  0  0  0  0  0  0  0  0
   57.7950   32.4950   46.0590 C   0  0  0  0  0  0  0  0  0  0  0  0
   58.6680   33.1830   46.9050 C   0  0  0  0  0  0  0  0  0  0  0  0
   60.1479   33.7463   51.6318 H   0  0  0  0  0  0  0  0  0  0  0  0
   59.0957   34.1815   50.2369 H   0  0  0  0  0  0  0  0  0  0  0  0
   60.7230   30.9850   49.3340 H   0  0  0  0  0  0  0  0  0  0  0  0
   60.8092   30.6316   47.6825 H   0  0  0  0  0  0  0  0  0  0  0  0
   59.2665   29.4068   46.1506 H   0  0  0  0  0  0  0  0  0  0  0  0
   58.9481   28.3940   45.3164 H   0  0  0  0  0  0  0  0  0  0  0  0
   60.0317   26.1883   45.7512 H   0  0  0  0  0  0  0  0  0  0  0  0
   58.6357   24.1942   46.3055 H   0  0  0  0  0  0  0  0  0  0  0  0
   56.1515   24.4003   46.4074 H   0  0  0  0  0  0  0  0  0  0  0  0
   56.9327   33.0165   45.6181 H   0  0  0  0  0  0  0  0  0  0  0  0
   58.4859   34.2432   47.1350 H   0  0  0  0  0  0  0  0  0  0  0  0
  1  2  2  0
  2  3  1  0
  3  4  1  0
  4  5  1  0
  5  6  1  0
  6  7  2  0
  6  8  1  0
  8  9  1  0
  9 10  1  0
  2 11  1  0
 11 12  1  0
 12 13  2  0
 13 14  1  0
 14 15  2  0
 15 16  1  0
 16 17  2  0
 16 18  2  0
 16 19  1  0
 19 20  1  0
 20 21  2  0
 21 22  1  0
 22 23  2  0
 23 24  1  0
 24 25  2  0
 25 26  1  0
 15 27  1  0
 27 28  2  0
  9  4  2  0
 28 12  1  0
 25 20  1  0
  3 29  1  0
  3 30  1  0
 10 31  1  0
 13 32  1  0
 14 33  1  0
 21 34  1  0
 22 35  1  0
 23 36  1  0
 24 37  1  0
 27 38  1  0
 28 39  1  0
M  CHG  4   8  -1  11  -1  19  -1  26  -1
M  END
>  <UniqueID>  (43) 
40

>  <SMILES>  (43) 
O=C(Cc1sc(=O)[n-]c1O)[N-]c1ccc(S(=O)(=O)[N-]c2ccccc2[O-])cc1

>  <Energy>  (43) 
78.36272158897638

>  <Genealogy>  (43) 
O=C(Cc1sc(=O)[n-]c1O)[N-]c1ccc(S(=O)(=O)[N-]c2ccccc2[O-])cc1 (protonated)
O=C(Cc1sc(=O)[n-]c1O)[N-]c1ccc(S(=O)(=O)[N-]c2ccccc2[O-])cc1 (3D coordinates assigned)
O=C(Cc1sc(=O)[n-]c1O)[N-]c1ccc(S(=O)(=O)[N-]c2ccccc2[O-])cc1 (optimized conformer: 78.36272158897638 kcal/mol)

>  <smiles>  (43) 
O=C(Cc1sc(=O)[nH]c1O)Nc1ccc(S(=O)(=O)Nc2ccccc2O)cc1

>  <score_type>  (43) 
oracle

>  <origin>  (43) 
adg

>  <m_score__min__energy>  (43) 
-15.140000000000001

>  <m_primary>  (43) 
energy

$$$$
43:0
     RDKit          3D

 44 46  0  0  0  0  0  0  0  0999 V2000
   60.2360   25.5600   46.0290 C   0  0  0  0  0  0  0  0  0  0  0  0
   58.9770   26.2310   46.3520 N   0  0  0  0  0  0  0  0  0  0  0  0
   57.8040   25.9830   45.7400 C   0  0  0  0  0  0  0  0  0  0  0  0
   56.8470   26.7670   46.3350 C   0  0  0  0  0  0  0  0  0  0  0  0
   55.5020   26.7930   45.9860 O   0  0  0  0  0  0  0  0  0  0  0  0
   57.3840   27.5150   47.3170 N   0  0  0  0  0  0  0  0  0  0  0  0
   58.6890   27.1690   47.2970 C   0  0  0  0  0  0  0  0  0  0  0  0
   59.5360   27.7030   48.1330 N   0  0  0  0  0  0  0  0  0  0  0  0
   59.6670   29.0850   48.4700 C   0  0  0  0  0  0  0  0  0  0  0  0
   58.5710   29.7820   48.9920 C   0  0  0  0  0  0  0  0  0  0  0  0
   58.6800   31.1440   49.2860 C   0  0  0  0  0  0  0  0  0  0  0  0
   59.8810   31.8340   49.0420 C   0  0  0  0  0  0  0  0  0  0  0  0
   59.9970   33.2770   49.3540 C   0  0  0  0  0  0  0  0  0  0  0  0
   60.5540   33.6500   50.4240 O   0  0  0  0  0  0  0  0  0  0  0  0
   59.4810   34.2570   48.4440 N   0  0  0  0  0  0  0  0  0  0  0  0
   59.8290   34.3090   47.0290 C   0  0  0  0  0  0  0  0  0  0  0  0
   59.0680   33.2590   46.2660 C   0  0  0  0  0  0  0  0  0  0  0  0
   59.6650   32.0160   45.9980 C   0  0  0  0  0  0  0  0  0  0  0  0
   58.9550   31.0270   45.3110 C   0  0  0  0  0  0  0  0  0  0  0  0
   57.6430   31.2690   44.8820 C   0  0  0  0  0  0  0  0  0  0  0  0
   56.7460   30.0170   44.0300 S   0  0  0  0  0  0  0  0  0  0  0  0
   55.3750   29.5530   44.9740 N   0  0  0  0  0  0  0  0  0  0  0  0
   56.2860   30.5370   42.6960 O   0  0  0  0  0  0  0  0  0  0  0  0
   57.6290   28.8220   43.8030 O   0  0  0  0  0  0  0  0  0  0  0  0
   57.0420   32.5040   45.1570 C   0  0  0  0  0  0  0  0  0  0  0  0
   57.7500   33.4940   45.8450 C   0  0  0  0  0  0  0  0  0  0  0  0
   60.9690   31.1320   48.4880 C   0  0  0  0  0  0  0  0  0  0  0  0
   60.8560   29.7700   48.1950 C   0  0  0  0  0  0  0  0  0  0  0  0
   60.7537   25.2841   46.9595 H   0  0  0  0  0  0  0  0  0  0  0  0
   60.0281   24.6531   45.4423 H   0  0  0  0  0  0  0  0  0  0  0  0
   60.8730   26.2383   45.4423 H   0  0  0  0  0  0  0  0  0  0  0  0
   57.6414   25.2782   44.9113 H   0  0  0  0  0  0  0  0  0  0  0  0
   55.1450   27.5040   45.3600 H   0  0  0  0  0  0  0  0  0  0  0  0
   57.6215   29.2564   49.1713 H   0  0  0  0  0  0  0  0  0  0  0  0
   57.8194   31.6807   49.7117 H   0  0  0  0  0  0  0  0  0  0  0  0
   59.5768   35.3023   46.6294 H   0  0  0  0  0  0  0  0  0  0  0  0
   60.9072   34.1213   46.9182 H   0  0  0  0  0  0  0  0  0  0  0  0
   60.6952   31.8201   46.3300 H   0  0  0  0  0  0  0  0  0  0  0  0
   59.4279   30.0552   45.1064 H   0  0  0  0  0  0  0  0  0  0  0  0
   55.1540   28.5630   44.7230 H   0  0  0  0  0  0  0  0  0  0  0  0
   56.0092   32.6956   44.8305 H   0  0  0  0  0  0  0  0  0  0  0  0
   57.2718   34.4616   46.0573 H   0  0  0  0  0  0  0  0  0  0  0  0
   61.9131   31.6586   48.2847 H   0  0  0  0  0  0  0  0  0  0  0  0
   61.7054   29.2341   47.7463 H   0  0  0  0  0  0  0  0  0  0  0  0
  1  2  1  0
  2  3  1  0
  3  4  2  0
  4  5  1  0
  4  6  1  0
  6  7  1  0
  7  8  2  3
  8  9  1  0
  9 10  2  0
 10 11  1  0
 11 12  2  0
 12 13  1  0
 13 14  2  0
 13 15  1  0
 15 16  1  0
 16 17  1  0
 17 18  2  0
 18 19  1  0
 19 20  2  0
 20 21  1  0
 21 22  1  0
 21 23  2  0
 21 24  2  0
 20 25  1  0
 25 26  2  0
 12 27  1  0
 27 28  2  0
  7  2  1  0
 28  9  1  0
 26 17  1  0
  1 29  1  0
  1 30  1  0
  1 31  1  0
  3 32  1  0
  5 33  1  0
 10 34  1  0
 11 35  1  0
 16 36  1  0
 16 37  1  0
 18 38  1  0
 19 39  1  0
 22 40  1  0
 25 41  1  0
 26 42  1  0
 27 43  1  0
 28 44  1  0
M  CHG  3   6  -1  15  -1  22  -1
M  END
>  <UniqueID>  (44) 
41

>  <SMILES>  (44) 
Cn1cc(O)[n-]c1=Nc1ccc(C(=O)[N-]Cc2ccc(S([NH-])(=O)=O)cc2)cc1

>  <Energy>  (44) 
86.73380554774128

>  <Genealogy>  (44) 
Cn1cc(O)[n-]c1=Nc1ccc(C(=O)[N-]Cc2ccc(S([NH-])(=O)=O)cc2)cc1 (protonated)
Cn1cc(O)[n-]c1=Nc1ccc(C(=O)[N-]Cc2ccc(S([NH-])(=O)=O)cc2)cc1 (3D coordinates assigned)
Cn1cc(O)[n-]c1=Nc1ccc(C(=O)[N-]Cc2ccc(S([NH-])(=O)=O)cc2)cc1 (optimized conformer: 86.73380554774128 kcal/mol)

>  <smiles>  (44) 
Cn1cc(O)[nH]c1=Nc1ccc(C(=O)NCc2ccc(S(N)(=O)=O)cc2)cc1

>  <score_type>  (44) 
oracle

>  <origin>  (44) 
adg

>  <m_score__min__energy>  (44) 
-13.199999999999999

>  <m_primary>  (44) 
energy

$$$$
44:0
     RDKit          3D

 81 86  0  0  0  0  0  0  0  0999 V2000
   59.2060   29.3760   52.5710 C   0  0  0  0  0  0  0  0  0  0  0  0
   59.3590   30.6260   51.7420 C   0  0  0  0  0  0  0  0  0  0  0  0
   58.4980   30.8650   50.6580 C   0  0  0  0  0  0  0  0  0  0  0  0
   58.6040   32.0540   49.9220 C   0  0  0  0  0  0  0  0  0  0  0  0
   59.5870   33.0020   50.2510 C   0  0  0  0  0  0  0  0  0  0  0  0
   59.6600   34.5830   49.3950 S   0  0  0  0  0  0  0  0  0  0  0  0
   59.4360   33.8320   47.7720 C   0  0  0  0  0  0  0  0  0  0  0  0
   58.3310   34.2060   46.9900 C   0  0  0  0  0  0  0  0  0  0  0  0
   58.0100   33.5000   45.8300 C   0  0  0  0  0  0  0  0  0  0  0  0
   58.8160   32.4310   45.4080 C   0  0  0  0  0  0  0  0  0  0  0  0
   58.4520   31.6430   44.2130 C   0  0  0  0  0  0  0  0  0  0  0  0
   58.2220   32.2380   43.1250 O   0  0  0  0  0  0  0  0  0  0  0  0
   58.3850   30.2070   44.2640 N   0  0  0  0  0  0  0  0  0  0  0  0
   59.4770   29.4470   44.8810 C   0  0  0  0  0  0  0  0  0  0  0  0
   58.9300   28.1830   45.5390 C   0  0  0  0  0  0  0  0  0  0  0  0
   58.0890   27.4000   44.6180 N   0  0  0  0  0  0  0  0  0  0  0  0
   57.8500   25.9930   44.8820 C   0  0  0  0  0  0  0  0  0  0  0  0
   58.0140   25.4530   46.1800 C   0  0  0  0  0  0  0  0  0  0  0  0
   57.7580   24.0980   46.4260 C   0  0  0  0  0  0  0  0  0  0  0  0
   57.3320   23.2680   45.3940 C   0  0  0  0  0  0  0  0  0  0  0  0
   57.1650   23.7900   44.1060 C   0  0  0  0  0  0  0  0  0  0  0  0
   57.4330   25.1340   43.8480 C   0  0  0  0  0  0  0  0  0  0  0  0
   57.6260   28.0100   43.3590 C   0  0  0  0  0  0  0  0  0  0  0  0
   57.3370   29.5050   43.5140 C   0  0  0  0  0  0  0  0  0  0  0  0
   59.9750   32.1150   46.1320 C   0  0  0  0  0  0  0  0  0  0  0  0
   60.3000   32.8200   47.3030 C   0  0  0  0  0  0  0  0  0  0  0  0
   61.5020   32.4670   48.0000 N   0  0  0  0  0  0  0  0  0  0  0  0
   62.7910   32.9510   47.5920 C   0  0  0  0  0  0  0  0  0  0  0  0
   62.8880   33.8600   46.7250 O   0  0  0  0  0  0  0  0  0  0  0  0
   63.9910   32.3610   48.0950 N   0  0  0  0  0  0  0  0  0  0  0  0
   64.1950   31.9030   49.4330 C   0  0  0  0  0  0  0  0  0  0  0  0
   65.3100   32.0670   50.2550 C   0  0  0  0  0  0  0  0  0  0  0  0
   66.6020   32.7540   49.9050 C   0  0  0  0  0  0  0  0  0  0  0  0
   65.0920   31.3640   51.4000 N   0  0  0  0  0  0  0  0  0  0  0  0
   66.0760   31.1520   52.4610 C   0  0  0  0  0  0  0  0  0  0  0  0
   63.9080   30.7430   51.3110 N   0  0  0  0  0  0  0  0  0  0  0  0
   63.4060   29.7620   52.2300 C   0  0  0  0  0  0  0  0  0  0  0  0
   63.0600   30.1400   53.5340 C   0  0  0  0  0  0  0  0  0  0  0  0
   62.5860   29.1860   54.4380 C   0  0  0  0  0  0  0  0  0  0  0  0
   62.4530   27.8510   54.0450 C   0  0  0  0  0  0  0  0  0  0  0  0
   62.7980   27.4680   52.7500 C   0  0  0  0  0  0  0  0  0  0  0  0
   63.2850   28.4210   51.8410 C   0  0  0  0  0  0  0  0  0  0  0  0
   63.3660   31.0370   50.1110 C   0  0  0  0  0  0  0  0  0  0  0  0
   62.2810   30.5660   49.6820 O   0  0  0  0  0  0  0  0  0  0  0  0
   60.4870   32.7390   51.2950 C   0  0  0  0  0  0  0  0  0  0  0  0
   60.3740   31.5600   52.0390 C   0  0  0  0  0  0  0  0  0  0  0  0
   59.2381   29.6380   53.6389 H   0  0  0  0  0  0  0  0  0  0  0  0
   58.2427   28.8981   52.3395 H   0  0  0  0  0  0  0  0  0  0  0  0
   60.0256   28.6799   52.3395 H   0  0  0  0  0  0  0  0  0  0  0  0
   57.7385   30.1173   50.3857 H   0  0  0  0  0  0  0  0  0  0  0  0
   57.9159   32.2447   49.0853 H   0  0  0  0  0  0  0  0  0  0  0  0
   57.7129   35.0634   47.2948 H   0  0  0  0  0  0  0  0  0  0  0  0
   57.1226   33.7820   45.2444 H   0  0  0  0  0  0  0  0  0  0  0  0
   60.2079   29.1676   44.1079 H   0  0  0  0  0  0  0  0  0  0  0  0
   59.9618   30.0705   45.6466 H   0  0  0  0  0  0  0  0  0  0  0  0
   59.7748   27.5589   45.8657 H   0  0  0  0  0  0  0  0  0  0  0  0
   58.3061   28.4875   46.3923 H   0  0  0  0  0  0  0  0  0  0  0  0
   58.3455   26.1032   47.0030 H   0  0  0  0  0  0  0  0  0  0  0  0
   57.8942   23.6890   47.4380 H   0  0  0  0  0  0  0  0  0  0  0  0
   57.1271   22.2051   45.5895 H   0  0  0  0  0  0  0  0  0  0  0  0
   56.8200   23.1357   43.2918 H   0  0  0  0  0  0  0  0  0  0  0  0
   57.3174   25.5264   42.8269 H   0  0  0  0  0  0  0  0  0  0  0  0
   58.4046   27.8770   42.5934 H   0  0  0  0  0  0  0  0  0  0  0  0
   56.6891   27.5130   43.0670 H   0  0  0  0  0  0  0  0  0  0  0  0
   57.2588   29.9544   42.5131 H   0  0  0  0  0  0  0  0  0  0  0  0
   56.3983   29.6064   44.0784 H   0  0  0  0  0  0  0  0  0  0  0  0
   60.6350   31.3085   45.7800 H   0  0  0  0  0  0  0  0  0  0  0  0
   61.4620   31.6030   48.5900 H   0  0  0  0  0  0  0  0  0  0  0  0
   67.1299   33.0347   50.8283 H   0  0  0  0  0  0  0  0  0  0  0  0
   67.2320   32.0718   49.3154 H   0  0  0  0  0  0  0  0  0  0  0  0
   66.3887   33.6578   49.3154 H   0  0  0  0  0  0  0  0  0  0  0  0
   65.5872   31.2573   53.4408 H   0  0  0  0  0  0  0  0  0  0  0  0
   66.5013   30.1416   52.3701 H   0  0  0  0  0  0  0  0  0  0  0  0
   66.8796   31.8976   52.3701 H   0  0  0  0  0  0  0  0  0  0  0  0
   63.1617   31.1897   53.8466 H   0  0  0  0  0  0  0  0  0  0  0  0
   62.3168   29.4861   55.4615 H   0  0  0  0  0  0  0  0  0  0  0  0
   62.0761   27.1028   54.7578 H   0  0  0  0  0  0  0  0  0  0  0  0
   62.6887   26.4183   52.4398 H   0  0  0  0  0  0  0  0  0  0  0  0
   63.5714   28.1152   50.8239 H   0  0  0  0  0  0  0  0  0  0  0  0
   61.2829   33.4614   51.5287 H   0  0  0  0  0  0  0  0  0  0  0  0
   61.0794   31.3601   52.8591 H   0  0  0  0  0  0  0  0  0  0  0  0
  1  2  1  0
  2  3  2  0
  3  4  1  0
  4  5  2  0
  5  6  1  0
  6  7  1  0
  7  8  2  0
  8  9  1  0
  9 10  2  0
 10 11  1  0
 11 12  2  0
 11 13  1  0
 13 14  1  0
 14 15  1  0
 15 16  1  0
 16 17  1  0
 17 18  2  0
 18 19  1  0
 19 20  2  0
 20 21  1  0
 21 22  2  0
 16 23  1  0
 23 24  1  0
 10 25  1  0
 25 26  2  0
 26 27  1  0
 27 28  1  0
 28 29  2  0
 28 30  1  0
 30 31  1  0
 31 32  2  0
 32 33  1  0
 32 34  1  0
 34 35  1  0
 34 36  1  0
 36 37  1  0
 37 38  2  0
 38 39  1  0
 39 40  2  0
 40 41  1  0
 41 42  2  0
 36 43  1  0
 43 44  2  0
  5 45  1  0
 45 46  2  0
 46  2  1  0
 26  7  1  0
 43 31  1  0
 24 13  1  0
 42 37  1  0
 22 17  1  0
  1 47  1  0
  1 48  1  0
  1 49  1  0
  3 50  1  0
  4 51  1  0
  8 52  1  0
  9 53  1  0
 14 54  1  0
 14 55  1  0
 15 56  1  0
 15 57  1  0
 18 58  1  0
 19 59  1  0
 20 60  1  0
 21 61  1  0
 22 62  1  0
 23 63  1  0
 23 64  1  0
 24 65  1  0
 24 66  1  0
 25 67  1  0
 27 68  1  0
 33 69  1  0
 33 70  1  0
 33 71  1  0
 35 72  1  0
 35 73  1  0
 35 74  1  0
 38 75  1  0
 39 76  1  0
 40 77  1  0
 41 78  1  0
 42 79  1  0
 45 80  1  0
 46 81  1  0
M  CHG  1  30  -1
M  END
>  <UniqueID>  (45) 
42

>  <SMILES>  (45) 
Cc1ccc(Sc2ccc(C(=O)N3CCN(c4ccccc4)CC3)cc2NC(=O)[N-]c2c(C)n(C)n(-c3ccccc3)c2=O)cc1

>  <Energy>  (45) 
147.90341572827793

>  <Genealogy>  (45) 
Cc1ccc(Sc2ccc(C(=O)N3CCN(c4ccccc4)CC3)cc2NC(=O)[N-]c2c(C)n(C)n(-c3ccccc3)c2=O)cc1 (protonated)
Cc1ccc(Sc2ccc(C(=O)N3CCN(c4ccccc4)CC3)cc2NC(=O)[N-]c2c(C)n(C)n(-c3ccccc3)c2=O)cc1 (3D coordinates assigned)
Cc1ccc(Sc2ccc(C(=O)N3CCN(c4ccccc4)CC3)cc2NC(=O)[N-]c2c(C)n(C)n(-c3ccccc3)c2=O)cc1 (nonaromatic ring conformer: 147.90341572827793 kcal/mol)

>  <smiles>  (45) 
Cc1ccc(Sc2ccc(C(=O)N3CCN(c4ccccc4)CC3)cc2NC(=O)Nc2c(C)n(C)n(-c3ccccc3)c2=O)cc1

>  <score_type>  (45) 
oracle

>  <origin>  (45) 
adg

>  <m_score__min__energy>  (45) 
-10.880000000000001

>  <m_primary>  (45) 
energy

$$$$
45:0
     RDKit          3D

 77 81  0  0  0  0  0  0  0  0999 V2000
   60.6303   27.8048   47.2578 H   0  0  0  0  0  0  0  0  0  0  0  0
   60.6120   28.6730   47.9330 C   0  0  0  0  0  0  0  0  0  0  0  0
   61.1540   29.7900   47.5570 N   0  0  0  0  0  0  0  0  0  0  0  0
   60.5090   30.7470   46.7050 C   0  0  0  0  0  0  0  0  0  0  0  0
   60.0160   30.3520   45.6160 O   0  0  0  0  0  0  0  0  0  0  0  0
   60.4890   32.2280   47.0610 C   0  0  2  0  0  0  0  0  0  0  0  0
   61.5462   32.4020   47.3102 H   0  0  0  0  0  0  0  0  0  0  0  0
   59.5740   32.6380   48.2720 C   0  0  2  0  0  0  0  0  0  0  0  0
   60.1638   33.0223   49.1172 H   0  0  0  0  0  0  0  0  0  0  0  0
   58.8440   31.4900   48.9360 C   0  0  0  0  0  0  0  0  0  0  0  0
   58.2180   30.6730   48.2070 O   0  0  0  0  0  0  0  0  0  0  0  0
   58.8740   31.3420   50.3670 N   0  0  0  0  0  0  0  0  0  0  0  0
   57.8750   30.8580   51.2790 C   0  0  0  0  0  0  0  0  0  0  0  0
   56.7160   31.5870   51.6230 C   0  0  0  0  0  0  0  0  0  0  0  0
   56.5353   32.5730   51.1700 H   0  0  0  0  0  0  0  0  0  0  0  0
   55.7940   31.0610   52.5390 C   0  0  0  0  0  0  0  0  0  0  0  0
   54.8903   31.6337   52.7944 H   0  0  0  0  0  0  0  0  0  0  0  0
   56.0170   29.8050   53.1340 C   0  0  0  0  0  0  0  0  0  0  0  0
   55.1230   29.2350   54.0510 O   0  0  0  0  0  0  0  0  0  0  0  0
   54.2690   28.1320   53.7550 C   0  0  0  0  0  0  0  0  0  0  0  0
   53.9176   27.6782   54.6934 H   0  0  0  0  0  0  0  0  0  0  0  0
   53.4051   28.4833   53.1716 H   0  0  0  0  0  0  0  0  0  0  0  0
   54.8255   27.3836   53.1716 H   0  0  0  0  0  0  0  0  0  0  0  0
   57.1710   29.0870   52.7930 C   0  0  0  0  0  0  0  0  0  0  0  0
   57.3594   28.1066   53.2549 H   0  0  0  0  0  0  0  0  0  0  0  0
   58.0860   29.6060   51.8700 C   0  0  0  0  0  0  0  0  0  0  0  0
   58.9812   29.0239   51.6057 H   0  0  0  0  0  0  0  0  0  0  0  0
   58.6280   33.7090   47.6550 C   0  0  1  0  0  0  0  0  0  0  0  0
   57.7275   33.8949   48.2587 H   0  0  0  0  0  0  0  0  0  0  0  0
   59.4700   34.9730   47.3710 C   0  0  0  0  0  0  0  0  0  0  0  0
   58.8237   35.8229   47.1063 H   0  0  0  0  0  0  0  0  0  0  0  0
   60.0553   35.2987   48.2435 H   0  0  0  0  0  0  0  0  0  0  0  0
   60.3630   34.5620   46.1690 C   0  0  0  0  0  0  0  0  0  0  0  0
   60.1612   35.1980   45.2945 H   0  0  0  0  0  0  0  0  0  0  0  0
   61.4374   34.6714   46.3783 H   0  0  0  0  0  0  0  0  0  0  0  0
   59.9520   33.0990   45.8930 C   0  0  2  0  0  0  0  0  0  0  0  0
   60.2504   32.7264   44.9020 H   0  0  0  0  0  0  0  0  0  0  0  0
   58.5110   33.1840   46.2630 C   0  0  0  0  0  0  0  0  0  0  0  0
   57.3850   32.3380   45.7060 C   0  0  0  0  0  0  0  0  0  0  0  0
   57.6029   31.5398   44.9812 H   0  0  0  0  0  0  0  0  0  0  0  0
   56.5843   31.7226   46.1420 H   0  0  0  0  0  0  0  0  0  0  0  0
   57.5210   33.8090   45.2920 C   0  0  0  0  0  0  0  0  0  0  0  0
   57.8382   34.0676   44.2710 H   0  0  0  0  0  0  0  0  0  0  0  0
   56.8612   34.6890   45.3075 H   0  0  0  0  0  0  0  0  0  0  0  0
   59.9610   28.5530   49.2780 C   0  0  0  0  0  0  0  0  0  0  0  0
   59.2457   27.7178   49.2503 H   0  0  0  0  0  0  0  0  0  0  0  0
   59.4598   29.5083   49.4928 H   0  0  0  0  0  0  0  0  0  0  0  0
   60.9850   28.2930   50.4130 C   0  0  0  0  0  0  0  0  0  0  0  0
   61.9077   27.9048   49.9570 H   0  0  0  0  0  0  0  0  0  0  0  0
   60.5044   27.5831   51.1023 H   0  0  0  0  0  0  0  0  0  0  0  0
   61.3420   29.4910   51.2320 N   0  0  2  0  0  0  0  0  0  0  0  0
   60.6230   30.2080   50.9740 H   0  0  0  0  0  0  0  0  0  0  0  0
   62.6570   30.0850   50.8740 C   0  0  0  0  0  0  0  0  0  0  0  0
   63.2881   30.1091   51.7747 H   0  0  0  0  0  0  0  0  0  0  0  0
   63.0967   29.4604   50.0825 H   0  0  0  0  0  0  0  0  0  0  0  0
   62.5390   31.4950   50.3280 C   0  0  0  0  0  0  0  0  0  0  0  0
   63.1060   31.7980   49.0780 C   0  0  0  0  0  0  0  0  0  0  0  0
   63.6343   31.0150   48.5143 H   0  0  0  0  0  0  0  0  0  0  0  0
   63.0040   33.0850   48.5460 C   0  0  0  0  0  0  0  0  0  0  0  0
   63.7690   33.4750   46.8410 Br  0  0  0  0  0  0  0  0  0  0  0  0
   62.3360   34.0830   49.2590 C   0  0  0  0  0  0  0  0  0  0  0  0
   62.2540   35.0963   48.8390 H   0  0  0  0  0  0  0  0  0  0  0  0
   61.7720   33.7970   50.5040 C   0  0  0  0  0  0  0  0  0  0  0  0
   61.2528   34.5894   51.0631 H   0  0  0  0  0  0  0  0  0  0  0  0
   61.8630   32.5000   51.0500 C   0  0  0  0  0  0  0  0  0  0  0  0
   61.2880   32.1810   52.2940 O   0  0  0  0  0  0  0  0  0  0  0  0
   60.1720   32.8550   52.8670 C   0  0  0  0  0  0  0  0  0  0  0  0
   60.2419   32.8128   53.9640 H   0  0  0  0  0  0  0  0  0  0  0  0
   60.1704   33.9052   52.5398 H   0  0  0  0  0  0  0  0  0  0  0  0
   59.2417   32.3676   52.5398 H   0  0  0  0  0  0  0  0  0  0  0  0
   61.1450   29.2870   52.6960 C   0  0  0  0  0  0  0  0  0  0  0  0
   60.3107   29.9266   53.0198 H   0  0  0  0  0  0  0  0  0  0  0  0
   62.1034   29.5417   53.1720 H   0  0  0  0  0  0  0  0  0  0  0  0
   60.8300   27.8480   53.1160 C   0  0  0  0  0  0  0  0  0  0  0  0
   60.8154   27.7813   54.2139 H   0  0  0  0  0  0  0  0  0  0  0  0
   59.8468   27.5567   52.7179 H   0  0  0  0  0  0  0  0  0  0  0  0
   61.6016   27.1726   52.7179 H   0  0  0  0  0  0  0  0  0  0  0  0
  1  2  1  0
  2  3  2  0
  3  4  1  0
  4  5  2  0
  4  6  1  0
  6  7  1  1
  6  8  1  0
  8  9  1  1
  8 10  1  0
 10 11  2  0
 10 12  1  0
 12 13  1  0
 13 14  2  0
 14 15  1  0
 14 16  1  0
 16 17  1  0
 16 18  2  0
 18 19  1  0
 19 20  1  0
 20 21  1  0
 20 22  1  0
 20 23  1  0
 18 24  1  0
 24 25  1  0
 24 26  2  0
 26 27  1  0
  8 28  1  0
 28 29  1  1
 28 30  1  0
 30 31  1  0
 30 32  1  0
 30 33  1  0
 33 34  1  0
 33 35  1  0
 33 36  1  0
 36 37  1  6
 36 38  1  0
 38 39  1  0
 39 40  1  0
 39 41  1  0
 39 42  1  0
 42 43  1  0
 42 44  1  0
  2 45  1  0
 45 46  1  0
 45 47  1  0
 45 48  1  0
 48 49  1  0
 48 50  1  0
 48 51  1  0
 51 52  1  6
 51 53  1  0
 53 54  1  0
 53 55  1  0
 53 56  1  0
 56 57  2  0
 57 58  1  0
 57 59  1  0
 59 60  1  0
 59 61  2  0
 61 62  1  0
 61 63  1  0
 63 64  1  0
 63 65  2  0
 65 66  1  0
 66 67  1  0
 67 68  1  0
 67 69  1  0
 67 70  1  0
 51 71  1  0
 71 72  1  0
 71 73  1  0
 71 74  1  0
 74 75  1  0
 74 76  1  0
 74 77  1  0
 36  6  1  0
 42 38  1  0
 65 56  1  0
 26 13  1  0
 38 28  1  0
M  CHG  2  12  -1  51   1
M  END
>  <UniqueID>  (46) 
43

>  <SMILES>  (46) 
CC[N@H+](CC/C=N/C(=O)[C@@H]1C(C(=O)[N-]c2ccc(OC)cc2)C2CCC1C21CC1)Cc1cc(Br)ccc1OC

>  <Energy>  (46) 
404.86450059081994

>  <Genealogy>  (46) 
CC[NH+](CCC=NC(=O)C1C(C(=O)[N-]c2ccc(OC)cc2)C2CCC1C21CC1)Cc1cc(Br)ccc1OC (protonated)
CC[N@H+](CCC=NC(=O)[C@@H]1C(C(=O)[N-]c2ccc(OC)cc2)C2CCC1C21CC1)Cc1cc(Br)ccc1OC (chirality)
CC[N@H+](CC/C=N/C(=O)[C@@H]1C(C(=O)[N-]c2ccc(OC)cc2)C2CCC1C21CC1)Cc1cc(Br)ccc1OC (cis-trans isomerization)
CC[N@H+](CC/C=N/C(=O)[C@@H]1C(C(=O)[N-]c2ccc(OC)cc2)C2CCC1C21CC1)Cc1cc(Br)ccc1OC (3D coordinates assigned)
CC[N@H+](CC/C=N/C(=O)[C@@H]1C(C(=O)[N-]c2ccc(OC)cc2)C2CCC1C21CC1)Cc1cc(Br)ccc1OC (nonaromatic ring conformer: 404.86450059081994 kcal/mol)

>  <smiles>  (46) 
CCN(CCC=NC(=O)C1C(C(=O)Nc2ccc(OC)cc2)C2CCC1C21CC1)Cc1cc(Br)ccc1OC

>  <score_type>  (46) 
oracle

>  <origin>  (46) 
adg

>  <m_score__min__energy>  (46) 
-9.7699999999999996

>  <m_primary>  (46) 
energy

$$$$
46:0
     RDKit          3D

 62 65  0  0  0  0  0  0  0  0999 V2000
   63.1450   33.4940   48.9290 C   0  0  0  0  0  0  0  0  0  0  0  0
   62.4610   32.8510   47.7950 N   0  0  0  0  0  0  0  0  0  0  0  0
   63.3550   31.8450   47.1940 C   0  0  0  0  0  0  0  0  0  0  0  0
   62.0610   33.8720   46.8010 C   0  0  0  0  0  0  0  0  0  0  0  0
   60.6400   33.6160   46.2870 C   0  0  0  0  0  0  0  0  0  0  0  0
   60.2080   32.2660   46.6710 N   0  0  0  0  0  0  0  0  0  0  0  0
   58.7440   32.1700   46.7880 C   0  0  0  0  0  0  0  0  0  0  0  0
   58.1450   31.2890   45.7160 C   0  0  0  0  0  0  0  0  0  0  0  0
   57.7080   31.8460   44.5040 C   0  0  0  0  0  0  0  0  0  0  0  0
   57.1070   31.0390   43.5370 C   0  0  0  0  0  0  0  0  0  0  0  0
   56.9380   29.6720   43.7690 C   0  0  0  0  0  0  0  0  0  0  0  0
   57.3790   29.0930   44.9710 C   0  0  0  0  0  0  0  0  0  0  0  0
   57.1740   27.6450   45.2080 C   0  0  0  0  0  0  0  0  0  0  0  0
   58.0970   26.8430   44.9030 O   0  0  0  0  0  0  0  0  0  0  0  0
   55.9410   27.1490   45.7640 N   0  0  0  0  0  0  0  0  0  0  0  0
   55.6570   25.7600   45.9930 C   0  0  0  0  0  0  0  0  0  0  0  0
   56.5190   24.9430   46.7460 C   0  0  0  0  0  0  0  0  0  0  0  0
   56.1990   23.5880   46.9420 C   0  0  0  0  0  0  0  0  0  0  0  0
   57.0370   22.7090   47.7120 N   0  0  0  0  0  0  0  0  0  0  0  0
   56.6990   22.0430   48.7780 C   0  0  0  0  0  0  0  0  0  0  0  0
   55.5210   22.2790   49.4160 N   0  0  0  0  0  0  0  0  0  0  0  0
   55.1620   21.6010   50.5400 C   0  0  0  0  0  0  0  0  0  0  0  0
   53.8590   21.9010   51.1840 C   0  0  0  0  0  0  0  0  0  0  0  0
   52.9880   22.8430   50.6080 C   0  0  0  0  0  0  0  0  0  0  0  0
   51.7540   23.1150   51.1980 C   0  0  0  0  0  0  0  0  0  0  0  0
   51.3920   22.4440   52.3650 C   0  0  0  0  0  0  0  0  0  0  0  0
   52.2340   21.5290   52.9130 N   0  0  0  0  0  0  0  0  0  0  0  0
   53.4420   21.2440   52.3580 C   0  0  0  0  0  0  0  0  0  0  0  0
   56.0480   20.6480   51.0660 C   0  0  0  0  0  0  0  0  0  0  0  0
   57.2580   20.4260   50.4100 C   0  0  0  0  0  0  0  0  0  0  0  0
   57.5610   21.1240   49.2850 N   0  0  0  0  0  0  0  0  0  0  0  0
   54.9870   23.0970   46.4470 C   0  0  0  0  0  0  0  0  0  0  0  0
   54.1380   23.9450   45.7330 C   0  0  0  0  0  0  0  0  0  0  0  0
   53.0460   23.5130   45.2810 O   0  0  0  0  0  0  0  0  0  0  0  0
   54.4890   25.2410   45.5250 N   0  0  0  0  0  0  0  0  0  0  0  0
   57.9730   29.9140   45.9460 C   0  0  0  0  0  0  0  0  0  0  0  0
   62.7333   33.1070   49.8728 H   0  0  0  0  0  0  0  0  0  0  0  0
   64.2216   33.2733   48.8808 H   0  0  0  0  0  0  0  0  0  0  0  0
   62.9912   34.5821   48.8808 H   0  0  0  0  0  0  0  0  0  0  0  0
   63.8583   31.2786   47.9915 H   0  0  0  0  0  0  0  0  0  0  0  0
   62.7656   31.1562   46.5710 H   0  0  0  0  0  0  0  0  0  0  0  0
   64.1083   32.3494   46.5710 H   0  0  0  0  0  0  0  0  0  0  0  0
   62.0991   34.8656   47.2715 H   0  0  0  0  0  0  0  0  0  0  0  0
   62.7549   33.8203   45.9490 H   0  0  0  0  0  0  0  0  0  0  0  0
   59.9545   34.3570   46.7241 H   0  0  0  0  0  0  0  0  0  0  0  0
   60.6292   33.7027   45.1905 H   0  0  0  0  0  0  0  0  0  0  0  0
   60.6430   32.0160   47.5890 H   0  0  0  0  0  0  0  0  0  0  0  0
   58.4936   31.7499   47.7733 H   0  0  0  0  0  0  0  0  0  0  0  0
   58.3274   33.1809   46.6678 H   0  0  0  0  0  0  0  0  0  0  0  0
   57.8396   32.9218   44.3158 H   0  0  0  0  0  0  0  0  0  0  0  0
   56.7654   31.4807   42.5893 H   0  0  0  0  0  0  0  0  0  0  0  0
   56.4561   29.0441   43.0051 H   0  0  0  0  0  0  0  0  0  0  0  0
   55.1590   27.8180   45.9390 H   0  0  0  0  0  0  0  0  0  0  0  0
   57.4391   25.3619   47.1795 H   0  0  0  0  0  0  0  0  0  0  0  0
   53.2817   23.3681   49.6871 H   0  0  0  0  0  0  0  0  0  0  0  0
   51.0730   23.8518   50.7469 H   0  0  0  0  0  0  0  0  0  0  0  0
   50.4239   22.6554   52.8427 H   0  0  0  0  0  0  0  0  0  0  0  0
   54.0973   20.4962   52.8285 H   0  0  0  0  0  0  0  0  0  0  0  0
   55.7928   20.0875   51.9775 H   0  0  0  0  0  0  0  0  0  0  0  0
   57.9684   19.6844   50.8042 H   0  0  0  0  0  0  0  0  0  0  0  0
   54.7038   22.0481   46.6192 H   0  0  0  0  0  0  0  0  0  0  0  0
   58.3062   29.4752   46.8981 H   0  0  0  0  0  0  0  0  0  0  0  0
  1  2  1  0
  2  3  1  0
  2  4  1  0
  4  5  1  0
  5  6  1  0
  6  7  1  0
  7  8  1  0
  8  9  2  0
  9 10  1  0
 10 11  2  0
 11 12  1  0
 12 13  1  0
 13 14  2  0
 13 15  1  0
 15 16  1  0
 16 17  2  0
 17 18  1  0
 18 19  1  0
 19 20  2  3
 20 21  1  0
 21 22  2  0
 22 23  1  0
 23 24  2  0
 24 25  1  0
 25 26  2  0
 26 27  1  0
 27 28  2  0
 22 29  1  0
 29 30  2  0
 30 31  1  0
 18 32  2  0
 32 33  1  0
 33 34  2  0
 33 35  1  0
 12 36  2  0
 36  8  1  0
 35 16  1  0
 31 20  1  0
 28 23  1  0
  1 37  1  0
  1 38  1  0
  1 39  1  0
  3 40  1  0
  3 41  1  0
  3 42  1  0
  4 43  1  0
  4 44  1  0
  5 45  1  0
  5 46  1  0
  6 47  1  0
  7 48  1  0
  7 49  1  0
  9 50  1  0
 10 51  1  0
 11 52  1  0
 15 53  1  0
 17 54  1  0
 24 55  1  0
 25 56  1  0
 26 57  1  0
 28 58  1  0
 29 59  1  0
 30 60  1  0
 32 61  1  0
 36 62  1  0
M  CHG  2  31  -1  35  -1
M  END
>  <UniqueID>  (47) 
44

>  <SMILES>  (47) 
CN(C)CCNCc1cccc(C(=O)Nc2cc(N=c3nc(-c4cccnc4)cc[n-]3)cc(=O)[n-]2)c1

>  <Energy>  (47) 
82.03060052162228

>  <Genealogy>  (47) 
CN(C)CCNCc1cccc(C(=O)Nc2cc(N=c3nc(-c4cccnc4)cc[n-]3)cc(=O)[n-]2)c1 (protonated)
CN(C)CCNCc1cccc(C(=O)Nc2cc(N=c3nc(-c4cccnc4)cc[n-]3)cc(=O)[n-]2)c1 (3D coordinates assigned)
CN(C)CCNCc1cccc(C(=O)Nc2cc(N=c3nc(-c4cccnc4)cc[n-]3)cc(=O)[n-]2)c1 (optimized conformer: 82.03060052162228 kcal/mol)

>  <smiles>  (47) 
CN(C)CCNCc1cccc(C(=O)Nc2cc(N=c3nc(-c4cccnc4)cc[nH]3)cc(=O)[nH]2)c1

>  <score_type>  (47) 
oracle

>  <origin>  (47) 
adg

>  <m_score__min__energy>  (47) 
-11.220000000000001

>  <m_primary>  (47) 
energy

$$$$
47:0
     RDKit          3D

 45 48  0  0  0  0  0  0  0  0999 V2000
   55.1460   28.1660   45.8070 H   0  0  0  0  0  0  0  0  0  0  0  0
   55.8910   27.4830   45.8770 O   0  0  0  0  0  0  0  0  0  0  0  0
   55.6550   26.1230   46.0760 C   0  0  0  0  0  0  0  0  0  0  0  0
   54.4800   25.5930   45.6420 N   0  0  0  0  0  0  0  0  0  0  0  0
   54.1910   24.2800   45.8160 C   0  0  0  0  0  0  0  0  0  0  0  0
   53.0930   23.8190   45.4070 O   0  0  0  0  0  0  0  0  0  0  0  0
   55.0810   23.4650   46.4370 N   0  0  0  0  0  0  0  0  0  0  0  0
   56.2700   23.9390   46.8900 C   0  0  0  0  0  0  0  0  0  0  0  0
   57.0680   23.1570   47.4760 O   0  0  0  0  0  0  0  0  0  0  0  0
   56.5990   25.2940   46.7080 C   0  0  0  0  0  0  0  0  0  0  0  0
   57.8490   25.8490   47.2600 C   0  0  0  0  0  0  0  0  0  0  0  0
   58.2807   25.3385   48.1335 H   0  0  0  0  0  0  0  0  0  0  0  0
   58.5100   26.9260   46.7900 C   0  0  0  0  0  0  0  0  0  0  0  0
   59.1000   26.9440   45.5400 C   0  0  0  0  0  0  0  0  0  0  0  0
   59.1201   26.1165   44.8156 H   0  0  0  0  0  0  0  0  0  0  0  0
   59.6590   28.1940   45.3710 C   0  0  0  0  0  0  0  0  0  0  0  0
   60.3860   28.6420   44.1370 C   0  0  0  0  0  0  0  0  0  0  0  0
   61.2897   29.1989   44.4257 H   0  0  0  0  0  0  0  0  0  0  0  0
   60.6718   27.7631   43.5404 H   0  0  0  0  0  0  0  0  0  0  0  0
   59.7294   29.2924   43.5404 H   0  0  0  0  0  0  0  0  0  0  0  0
   59.4360   28.9590   46.4620 N   0  0  0  0  0  0  0  0  0  0  0  0
   59.9090   30.3090   46.6390 C   0  0  0  0  0  0  0  0  0  0  0  0
   61.2130   30.5510   47.0940 C   0  0  0  0  0  0  0  0  0  0  0  0
   61.8688   29.7078   47.3567 H   0  0  0  0  0  0  0  0  0  0  0  0
   61.6800   31.8620   47.2140 C   0  0  0  0  0  0  0  0  0  0  0  0
   62.6954   32.0493   47.5933 H   0  0  0  0  0  0  0  0  0  0  0  0
   60.8620   32.9370   46.8540 C   0  0  0  0  0  0  0  0  0  0  0  0
   61.2376   33.9667   46.9467 H   0  0  0  0  0  0  0  0  0  0  0  0
   59.5640   32.7070   46.3750 C   0  0  0  0  0  0  0  0  0  0  0  0
   58.7180   33.8360   45.9350 C   0  0  0  0  0  0  0  0  0  0  0  0
   58.8430   34.9520   46.5040 O   0  0  0  0  0  0  0  0  0  0  0  0
   57.7840   33.7150   44.8490 N   0  0  0  0  0  0  0  0  0  0  0  0
   57.4080   32.6150   44.2640 C   0  0  0  0  0  0  0  0  0  0  0  0
   56.6330   31.6980   44.8840 N   0  0  0  0  0  0  0  0  0  0  0  0
   56.4280   30.6020   44.1050 C   0  0  0  0  0  0  0  0  0  0  0  0
   55.8106   29.7531   44.4340 H   0  0  0  0  0  0  0  0  0  0  0  0
   57.0530   30.6300   42.8650 C   0  0  0  0  0  0  0  0  0  0  0  0
   57.0074   29.8410   42.0999 H   0  0  0  0  0  0  0  0  0  0  0  0
   57.8910   32.0810   42.7390 S   0  0  0  0  0  0  0  0  0  0  0  0
   59.0840   31.3920   46.2930 C   0  0  0  0  0  0  0  0  0  0  0  0
   58.0536   31.2071   45.9552 H   0  0  0  0  0  0  0  0  0  0  0  0
   58.7500   28.1930   47.3530 C   0  0  0  0  0  0  0  0  0  0  0  0
   58.4070   28.6220   48.5770 C   0  0  0  0  0  0  0  0  0  0  0  0
   58.6585   29.6456   48.8915 H   0  0  0  0  0  0  0  0  0  0  0  0
   57.8743   27.9501   49.2660 H   0  0  0  0  0  0  0  0  0  0  0  0
  1  2  1  0
  2  3  1  0
  3  4  1  0
  4  5  1  0
  5  6  2  0
  5  7  1  0
  7  8  1  0
  8  9  2  0
  8 10  1  0
 10 11  1  0
 11 12  1  0
 11 13  2  3
 13 14  1  0
 14 15  1  0
 14 16  2  0
 16 17  1  0
 17 18  1  0
 17 19  1  0
 17 20  1  0
 16 21  1  0
 21 22  1  0
 22 23  2  0
 23 24  1  0
 23 25  1  0
 25 26  1  0
 25 27  2  0
 27 28  1  0
 27 29  1  0
 29 30  1  0
 30 31  2  0
 30 32  1  0
 32 33  2  0
 33 34  1  0
 34 35  1  0
 35 36  1  0
 35 37  2  0
 37 38  1  0
 37 39  1  0
 29 40  2  0
 40 41  1  0
 21 42  1  0
 42 43  2  0
 43 44  1  0
 43 45  1  0
 10  3  2  0
 42 13  1  0
 40 22  1  0
 39 33  1  0
M  CHG  3   4  -1   7  -1  34  -1
M  END
>  <UniqueID>  (48) 
45

>  <SMILES>  (48) 
C=c1c(=Cc2c(O)[n-]c(=O)[n-]c2=O)cc(C)n1-c1cccc(C(=O)/N=c2/[n-]ccs2)c1

>  <Energy>  (48) 
138.43302697376387

>  <Genealogy>  (48) 
C=c1c(=Cc2c(O)[n-]c(=O)[n-]c2=O)cc(C)n1-c1cccc(C(=O)N=c2[n-]ccs2)c1 (protonated)
C=c1c(=Cc2c(O)[n-]c(=O)[n-]c2=O)cc(C)n1-c1cccc(C(=O)/N=c2/[n-]ccs2)c1 (cis-trans isomerization)
C=c1c(=Cc2c(O)[n-]c(=O)[n-]c2=O)cc(C)n1-c1cccc(C(=O)/N=c2/[n-]ccs2)c1 (3D coordinates assigned)
C=c1c(=Cc2c(O)[n-]c(=O)[n-]c2=O)cc(C)n1-c1cccc(C(=O)/N=c2/[n-]ccs2)c1 (optimized conformer: 138.43302697376387 kcal/mol)

>  <smiles>  (48) 
C=c1c(=Cc2c(O)[nH]c(=O)[nH]c2=O)cc(C)n1-c1cccc(C(=O)N=c2[nH]ccs2)c1

>  <score_type>  (48) 
oracle

>  <origin>  (48) 
adg

>  <m_score__min__energy>  (48) 
-14.619999999999999

>  <m_primary>  (48) 
energy

$$$$
48:0
     RDKit          3D

 50 52  0  0  1  0  0  0  0  0999 V2000
   61.9470   30.5000   46.9070 O   0  0  0  0  0  0  0  0  0  0  0  0
   60.8730   30.8180   47.4940 C   0  0  0  0  0  0  0  0  0  0  0  0
   60.3610   32.0350   47.2240 N   0  0  0  0  0  0  0  0  0  0  0  0
   59.2210   32.3920   47.8370 C   0  0  0  0  0  0  0  0  0  0  0  0
   58.7100   33.5510   47.5950 N   0  0  0  0  0  0  0  0  0  0  0  0
   57.7050   33.7980   46.5870 C   0  0  0  0  0  0  0  0  0  0  0  0
   58.3140   33.9120   45.2120 C   0  0  0  0  0  0  0  0  0  0  0  0
   57.7690   32.7820   44.3940 C   0  0  0  0  0  0  0  0  0  0  0  0
   58.0360   32.7430   43.0310 C   0  0  0  0  0  0  0  0  0  0  0  0
   57.5350   31.7030   42.2790 C   0  0  0  0  0  0  0  0  0  0  0  0
   56.7750   30.7080   42.8780 C   0  0  0  0  0  0  0  0  0  0  0  0
   56.2720   29.6640   42.1310 O   0  0  0  0  0  0  0  0  0  0  0  0
   56.5150   30.7550   44.2390 C   0  0  0  0  0  0  0  0  0  0  0  0
   55.7480   29.7340   44.7920 O   0  0  0  0  0  0  0  0  0  0  0  0
   57.0130   31.8000   45.0150 C   0  0  0  0  0  0  0  0  0  0  0  0
   58.5580   31.5810   48.7200 C   0  0  0  0  0  0  0  0  0  0  0  0
   59.1010   30.3280   48.9880 C   0  0  0  0  0  0  0  0  0  0  0  0
   58.4770   29.4450   49.8820 O   0  0  0  0  0  0  0  0  0  0  0  0
   60.2590   29.9650   48.3650 N   0  0  0  0  0  0  0  0  0  0  0  0
   60.8240   28.6770   48.6360 C   0  0  0  0  0  0  0  0  0  0  0  0
   60.8690   27.7400   47.4650 C   0  0  0  0  0  0  0  0  0  0  0  0
   59.4630   27.5320   47.0250 C   0  0  0  0  0  0  0  0  0  0  0  0
   58.5000   26.9550   47.8280 C   0  0  0  0  0  0  0  0  0  0  0  0
   57.2050   26.7930   47.3480 C   0  0  0  0  0  0  0  0  0  0  0  0
   56.8550   27.2010   46.0680 C   0  0  0  0  0  0  0  0  0  0  0  0
   55.5370   27.0220   45.6170 O   0  0  0  0  0  0  0  0  0  0  0  0
   57.8260   27.7740   45.2810 C   0  0  0  0  0  0  0  0  0  0  0  0
   57.5250   28.2000   43.9940 O   0  0  0  0  0  0  0  0  0  0  0  0
   59.1190   27.9410   45.7500 C   0  0  0  0  0  0  0  0  0  0  0  0
   60.8260   32.7050   46.5510 H   0  0  0  0  0  0  0  0  0  0  0  0
   56.9842   32.9671   46.5904 H   0  0  0  0  0  0  0  0  0  0  0  0
   57.2078   34.7504   46.8231 H   0  0  0  0  0  0  0  0  0  0  0  0
   58.0391   34.8746   44.7562 H   0  0  0  0  0  0  0  0  0  0  0  0
   59.4117   33.8634   45.2647 H   0  0  0  0  0  0  0  0  0  0  0  0
   58.6394   33.5321   42.5586 H   0  0  0  0  0  0  0  0  0  0  0  0
   57.7383   31.6610   41.1988 H   0  0  0  0  0  0  0  0  0  0  0  0
   55.9940   28.7600   42.5030 H   0  0  0  0  0  0  0  0  0  0  0  0
   55.6360   28.8270   44.3620 H   0  0  0  0  0  0  0  0  0  0  0  0
   56.8108   31.8445   46.0953 H   0  0  0  0  0  0  0  0  0  0  0  0
   57.6256   31.9100   49.2021 H   0  0  0  0  0  0  0  0  0  0  0  0
   57.4600   29.4760   49.9920 H   0  0  0  0  0  0  0  0  0  0  0  0
   61.8539   28.8254   48.9929 H   0  0  0  0  0  0  0  0  0  0  0  0
   60.1651   28.2049   49.3796 H   0  0  0  0  0  0  0  0  0  0  0  0
   61.4595   28.1821   46.6490 H   0  0  0  0  0  0  0  0  0  0  0  0
   61.3407   26.7856   47.7418 H   0  0  0  0  0  0  0  0  0  0  0  0
   58.7563   26.6241   48.8452 H   0  0  0  0  0  0  0  0  0  0  0  0
   56.4435   26.3328   47.9948 H   0  0  0  0  0  0  0  0  0  0  0  0
   55.1470   27.8260   45.1090 H   0  0  0  0  0  0  0  0  0  0  0  0
   56.6120   28.0800   43.5800 H   0  0  0  0  0  0  0  0  0  0  0  0
   59.8785   28.4031   45.1022 H   0  0  0  0  0  0  0  0  0  0  0  0
  1  2  2  0
  2  3  1  0
  3  4  1  0
  4  5  2  0
  5  6  1  0
  6  7  1  0
  7  8  1  0
  8  9  2  0
  9 10  1  0
 10 11  2  0
 11 12  1  0
 11 13  1  0
 13 14  1  0
 13 15  2  0
  4 16  1  0
 16 17  2  0
 17 18  1  0
 17 19  1  0
 19 20  1  0
 20 21  1  0
 21 22  1  0
 22 23  2  0
 23 24  1  0
 24 25  2  0
 25 26  1  0
 25 27  1  0
 27 28  1  0
 27 29  2  0
 19  2  1  0
 29 22  1  0
 15  8  1  0
  3 30  1  0
  6 31  1  0
  6 32  1  0
  7 33  1  0
  7 34  1  0
  9 35  1  0
 10 36  1  0
 12 37  1  0
 14 38  1  0
 15 39  1  0
 16 40  1  0
 18 41  1  0
 20 42  1  0
 20 43  1  0
 21 44  1  0
 21 45  1  0
 23 46  1  0
 24 47  1  0
 26 48  1  0
 28 49  1  0
 29 50  1  0
M  END
>  <smiles>  (49) 
O=c1[nH]c(=NCCc2ccc(O)c(O)c2)cc(O)n1CCc1ccc(O)c(O)c1

>  <score_type>  (49) 
oracle

>  <origin>  (49) 
adg

>  <m_score__min__energy>  (49) 
-8.5099999999999998

>  <m_primary>  (49) 
energy

$$$$
49:0
     RDKit          3D

 30 32  0  0  0  0  0  0  0  0999 V2000
   63.6672   34.7942   50.2057 H   0  0  0  0  0  0  0  0  0  0  0  0
   63.0730   34.2070   49.4900 C   0  0  0  0  0  0  0  0  0  0  0  0
   63.6710   33.6620   48.3980 N   0  0  0  0  0  0  0  0  0  0  0  0
   62.9530   32.9440   47.4960 C   0  0  0  0  0  0  0  0  0  0  0  0
   63.4527   32.5043   46.6202 H   0  0  0  0  0  0  0  0  0  0  0  0
   61.5740   32.7630   47.6810 C   0  0  0  0  0  0  0  0  0  0  0  0
   60.7840   32.0170   46.7940 O   0  0  0  0  0  0  0  0  0  0  0  0
   59.6000   32.4620   46.1860 C   0  0  0  0  0  0  0  0  0  0  0  0
   59.4230   33.8310   45.9730 C   0  0  0  0  0  0  0  0  0  0  0  0
   60.2039   34.5393   46.2869 H   0  0  0  0  0  0  0  0  0  0  0  0
   58.2910   34.2920   45.3800 N   0  0  0  0  0  0  0  0  0  0  0  0
   57.3100   33.4500   44.9580 C   0  0  0  0  0  0  0  0  0  0  0  0
   56.3981   33.8582   44.4976 H   0  0  0  0  0  0  0  0  0  0  0  0
   57.4560   32.0680   45.1070 C   0  0  0  0  0  0  0  0  0  0  0  0
   56.4100   31.2020   44.6400 N   0  0  0  0  0  0  0  0  0  0  0  0
   56.5170   29.7920   44.3980 C   0  0  0  0  0  0  0  0  0  0  0  0
   57.2220   29.3930   43.4350 O   0  0  0  0  0  0  0  0  0  0  0  0
   55.8340   28.8230   45.2060 N   0  0  0  0  0  0  0  0  0  0  0  0
   56.3240   27.6920   45.6180 C   0  0  0  0  0  0  0  0  0  0  0  0
   55.5350   26.6690   46.0080 N   0  0  0  0  0  0  0  0  0  0  0  0
   56.2640   25.5780   46.3640 C   0  0  0  0  0  0  0  0  0  0  0  0
   55.7970   24.6472   46.7184 H   0  0  0  0  0  0  0  0  0  0  0  0
   57.6430   25.7230   46.2480 C   0  0  0  0  0  0  0  0  0  0  0  0
   58.3954   24.9574   46.4884 H   0  0  0  0  0  0  0  0  0  0  0  0
   57.9590   27.2730   45.6760 S   0  0  0  0  0  0  0  0  0  0  0  0
   58.6070   31.5750   45.7410 C   0  0  0  0  0  0  0  0  0  0  0  0
   58.7312   30.4922   45.8894 H   0  0  0  0  0  0  0  0  0  0  0  0
   60.9890   33.3160   48.8220 C   0  0  0  0  0  0  0  0  0  0  0  0
   59.9146   33.1749   49.0112 H   0  0  0  0  0  0  0  0  0  0  0  0
   61.7440   34.0280   49.6990 N   0  0  0  0  0  0  0  0  0  0  0  0
  1  2  1  0
  2  3  2  0
  3  4  1  0
  4  5  1  0
  4  6  2  0
  6  7  1  0
  7  8  1  0
  8  9  2  0
  9 10  1  0
  9 11  1  0
 11 12  2  0
 12 13  1  0
 12 14  1  0
 14 15  1  0
 15 16  1  0
 16 17  2  0
 16 18  1  0
 18 19  2  0
 19 20  1  0
 20 21  1  0
 21 22  1  0
 21 23  2  0
 23 24  1  0
 23 25  1  0
 14 26  2  0
 26 27  1  0
  6 28  1  0
 28 29  1  0
 28 30  2  0
 30  2  1  0
 26  8  1  0
 25 19  1  0
M  CHG  2  15  -1  20  -1
M  END
>  <UniqueID>  (50) 
46

>  <SMILES>  (50) 
O=C(/N=c1/[n-]ccs1)[N-]c1cncc(Oc2cncnc2)c1

>  <Energy>  (50) 
80.53932784410489

>  <Genealogy>  (50) 
O=C(N=c1[n-]ccs1)[N-]c1cncc(Oc2cncnc2)c1 (protonated)
O=C(/N=c1/[n-]ccs1)[N-]c1cncc(Oc2cncnc2)c1 (cis-trans isomerization)
O=C(/N=c1/[n-]ccs1)[N-]c1cncc(Oc2cncnc2)c1 (3D coordinates assigned)
O=C(/N=c1/[n-]ccs1)[N-]c1cncc(Oc2cncnc2)c1 (optimized conformer: 80.53932784410489 kcal/mol)

>  <smiles>  (50) 
O=C(N=c1[nH]ccs1)Nc1cncc(Oc2cncnc2)c1

>  <score_type>  (50) 
oracle

>  <origin>  (50) 
adg

>  <m_score__min__energy>  (50) 
-9.3300000000000001

>  <m_primary>  (50) 
energy

$$$$
50:0
     RDKit          3D

 53 56  0  0  0  0  0  0  0  0999 V2000
   61.6383   35.2377   46.2159 H   0  0  0  0  0  0  0  0  0  0  0  0
   61.2380   34.2260   46.3780 C   0  0  0  0  0  0  0  0  0  0  0  0
   62.0930   33.2440   46.6960 C   0  0  0  0  0  0  0  0  0  0  0  0
   61.7531   32.1992   46.6422 H   0  0  0  0  0  0  0  0  0  0  0  0
   63.5100   33.5350   47.1260 C   0  0  0  0  0  0  0  0  0  0  0  0
   63.7586   34.5670   46.8377 H   0  0  0  0  0  0  0  0  0  0  0  0
   64.1614   32.8009   46.6292 H   0  0  0  0  0  0  0  0  0  0  0  0
   63.7140   33.3910   48.5850 N   0  0  0  0  0  0  0  0  0  0  0  0
   62.7570   34.1790   49.4010 C   0  0  0  0  0  0  0  0  0  0  0  0
   62.3667   35.0088   48.7935 H   0  0  0  0  0  0  0  0  0  0  0  0
   63.2875   34.5602   50.2860 H   0  0  0  0  0  0  0  0  0  0  0  0
   61.6110   33.3330   49.8650 C   0  0  0  0  0  0  0  0  0  0  0  0
   60.4350   33.7900   49.8730 O   0  0  0  0  0  0  0  0  0  0  0  0
   61.8940   32.0050   50.3220 N   0  0  0  0  0  0  0  0  0  0  0  0
   60.8220   31.0410   50.5850 C   0  0  0  0  0  0  0  0  0  0  0  0
   61.2496   30.1352   51.0396 H   0  0  0  0  0  0  0  0  0  0  0  0
   60.0902   31.4920   51.2714 H   0  0  0  0  0  0  0  0  0  0  0  0
   60.1380   30.6780   49.3060 C   0  0  0  0  0  0  0  0  0  0  0  0
   58.8030   30.5680   49.1730 N   0  0  0  0  0  0  0  0  0  0  0  0
   58.5780   30.2190   47.9190 N   0  0  0  0  0  0  0  0  0  0  0  0
   59.7820   30.1320   47.3230 C   0  0  0  0  0  0  0  0  0  0  0  0
   59.9770   29.7320   45.8950 C   0  0  0  0  0  0  0  0  0  0  0  0
   60.7427   30.3769   45.4392 H   0  0  0  0  0  0  0  0  0  0  0  0
   60.2987   28.6807   45.8595 H   0  0  0  0  0  0  0  0  0  0  0  0
   58.6870   29.8750   45.1290 C   0  0  0  0  0  0  0  0  0  0  0  0
   58.5020   31.0000   44.3050 C   0  0  0  0  0  0  0  0  0  0  0  0
   59.3011   31.7510   44.2185 H   0  0  0  0  0  0  0  0  0  0  0  0
   57.3110   31.1700   43.5960 C   0  0  0  0  0  0  0  0  0  0  0  0
   57.1784   32.0483   42.9471 H   0  0  0  0  0  0  0  0  0  0  0  0
   56.2880   30.2260   43.7100 C   0  0  0  0  0  0  0  0  0  0  0  0
   55.3525   30.3592   43.1469 H   0  0  0  0  0  0  0  0  0  0  0  0
   56.4510   29.1130   44.5380 C   0  0  0  0  0  0  0  0  0  0  0  0
   55.6404   28.3750   44.6288 H   0  0  0  0  0  0  0  0  0  0  0  0
   57.6410   28.9320   45.2530 C   0  0  0  0  0  0  0  0  0  0  0  0
   57.7810   27.5150   46.2900 Cl  0  0  0  0  0  0  0  0  0  0  0  0
   60.7980   30.4010   48.1650 N   0  0  0  0  0  0  0  0  0  0  0  0
   63.3010   31.6050   50.3410 C   0  0  0  0  0  0  0  0  0  0  0  0
   63.3706   30.5174   50.4899 H   0  0  0  0  0  0  0  0  0  0  0  0
   63.8174   32.1224   51.1630 H   0  0  0  0  0  0  0  0  0  0  0  0
   63.9610   31.9820   49.0050 C   0  0  0  0  0  0  0  0  0  0  0  0
   63.5684   31.3141   48.2242 H   0  0  0  0  0  0  0  0  0  0  0  0
   65.0470   31.8764   49.1446 H   0  0  0  0  0  0  0  0  0  0  0  0
   59.7830   34.0130   46.2350 C   0  0  0  0  0  0  0  0  0  0  0  0
   59.0150   33.3940   47.2400 C   0  0  0  0  0  0  0  0  0  0  0  0
   59.4985   33.0567   48.1687 H   0  0  0  0  0  0  0  0  0  0  0  0
   57.6400   33.2060   47.0630 C   0  0  0  0  0  0  0  0  0  0  0  0
   57.0448   32.7255   47.8535 H   0  0  0  0  0  0  0  0  0  0  0  0
   57.0220   33.6280   45.8830 C   0  0  0  0  0  0  0  0  0  0  0  0
   55.9385   33.4916   45.7509 H   0  0  0  0  0  0  0  0  0  0  0  0
   57.7790   34.2230   44.8710 C   0  0  0  0  0  0  0  0  0  0  0  0
   57.2931   34.5462   43.9386 H   0  0  0  0  0  0  0  0  0  0  0  0
   59.1550   34.4080   45.0430 C   0  0  0  0  0  0  0  0  0  0  0  0
   59.7491   34.8662   44.2386 H   0  0  0  0  0  0  0  0  0  0  0  0
  1  2  1  0
  2  3  2  0
  3  4  1  0
  3  5  1  0
  5  6  1  0
  5  7  1  0
  5  8  1  0
  8  9  1  0
  9 10  1  0
  9 11  1  0
  9 12  1  0
 12 13  2  0
 12 14  1  0
 14 15  1  0
 15 16  1  0
 15 17  1  0
 15 18  1  0
 18 19  2  0
 19 20  1  0
 20 21  1  0
 21 22  1  0
 22 23  1  0
 22 24  1  0
 22 25  1  0
 25 26  2  0
 26 27  1  0
 26 28  1  0
 28 29  1  0
 28 30  2  0
 30 31  1  0
 30 32  1  0
 32 33  1  0
 32 34  2  0
 34 35  1  0
 21 36  2  0
 14 37  1  0
 37 38  1  0
 37 39  1  0
 37 40  1  0
 40 41  1  0
 40 42  1  0
  2 43  1  0
 43 44  2  0
 44 45  1  0
 44 46  1  0
 46 47  1  0
 46 48  2  0
 48 49  1  0
 48 50  1  0
 50 51  1  0
 50 52  2  0
 52 53  1  0
 40  8  1  0
 52 43  1  0
 36 18  1  0
 34 25  1  0
M  CHG  1  20  -1
M  END
>  <UniqueID>  (51) 
47

>  <SMILES>  (51) 
O=C1CN(C/C=C/c2ccccc2)CCN1Cc1n[n-]c(Cc2ccccc2Cl)n1

>  <Energy>  (51) 
91.10205100575061

>  <Genealogy>  (51) 
O=C1CN(CC=Cc2ccccc2)CCN1Cc1n[n-]c(Cc2ccccc2Cl)n1 (protonated)
O=C1CN(C/C=C/c2ccccc2)CCN1Cc1n[n-]c(Cc2ccccc2Cl)n1 (cis-trans isomerization)
O=C1CN(C/C=C/c2ccccc2)CCN1Cc1n[n-]c(Cc2ccccc2Cl)n1 (3D coordinates assigned)
O=C1CN(C/C=C/c2ccccc2)CCN1Cc1n[n-]c(Cc2ccccc2Cl)n1 (nonaromatic ring conformer: 91.10205100575061 kcal/mol)

>  <smiles>  (51) 
O=C1CN(CC=Cc2ccccc2)CCN1Cc1n[nH]c(Cc2ccccc2Cl)n1

>  <score_type>  (51) 
oracle

>  <origin>  (51) 
adg

>  <m_score__min__energy>  (51) 
-10.99

>  <m_primary>  (51) 
energy

$$$$
51:0
     RDKit          3D

 38 39  0  0  0  0  0  0  0  0999 V2000
   54.7560   27.4660   46.3360 H   0  0  0  0  0  0  0  0  0  0  0  0
   54.7970   26.4840   46.0900 O   0  0  0  0  0  0  0  0  0  0  0  0
   56.0110   25.8030   46.0100 C   0  0  0  0  0  0  0  0  0  0  0  0
   56.0370   24.4220   45.7790 C   0  0  0  0  0  0  0  0  0  0  0  0
   55.0954   23.8674   45.6536 H   0  0  0  0  0  0  0  0  0  0  0  0
   57.2570   23.7500   45.7080 C   0  0  0  0  0  0  0  0  0  0  0  0
   57.2849   22.6655   45.5264 H   0  0  0  0  0  0  0  0  0  0  0  0
   58.4420   24.4690   45.8700 C   0  0  0  0  0  0  0  0  0  0  0  0
   59.4109   23.9513   45.8140 H   0  0  0  0  0  0  0  0  0  0  0  0
   58.4000   25.8090   46.0970 N   0  0  0  0  0  0  0  0  0  0  0  0
   57.2220   26.4950   46.1690 C   0  0  0  0  0  0  0  0  0  0  0  0
   57.2000   27.7720   46.4180 N   0  0  0  0  0  0  0  0  0  0  0  0
   56.9060   28.8270   45.4850 C   0  0  0  0  0  0  0  0  0  0  0  0
   55.7090   29.1090   45.2000 O   0  0  0  0  0  0  0  0  0  0  0  0
   57.9840   29.5660   44.8720 N   0  0  0  0  0  0  0  0  0  0  0  0
   59.3680   29.3550   45.3170 C   0  0  0  0  0  0  0  0  0  0  0  0
   60.0521   29.8763   44.6313 H   0  0  0  0  0  0  0  0  0  0  0  0
   59.5808   28.2758   45.3174 H   0  0  0  0  0  0  0  0  0  0  0  0
   59.5640   29.8970   46.7300 C   0  0  0  0  0  0  0  0  0  0  0  0
   59.2845   29.1242   47.4612 H   0  0  0  0  0  0  0  0  0  0  0  0
   60.6190   30.1733   46.8737 H   0  0  0  0  0  0  0  0  0  0  0  0
   58.9298   30.7842   46.8737 H   0  0  0  0  0  0  0  0  0  0  0  0
   57.7050   30.6170   43.8810 C   0  0  0  0  0  0  0  0  0  0  0  0
   58.6583   31.0140   43.5020 H   0  0  0  0  0  0  0  0  0  0  0  0
   57.1145   30.1758   43.0645 H   0  0  0  0  0  0  0  0  0  0  0  0
   56.8950   31.7660   44.4980 C   0  0  0  0  0  0  0  0  0  0  0  0
   56.3254   32.2680   43.7021 H   0  0  0  0  0  0  0  0  0  0  0  0
   56.2217   31.3415   45.2573 H   0  0  0  0  0  0  0  0  0  0  0  0
   57.7830   32.7740   45.1710 C   0  0  0  0  0  0  0  0  0  0  0  0
   58.4930   33.6560   44.4130 N   0  0  0  0  0  0  0  0  0  0  0  0
   59.2720   34.6210   44.9720 C   0  0  0  0  0  0  0  0  0  0  0  0
   59.8409   35.3089   44.3292 H   0  0  0  0  0  0  0  0  0  0  0  0
   59.3500   34.7390   46.3610 C   0  0  0  0  0  0  0  0  0  0  0  0
   59.9729   35.5215   46.8189 H   0  0  0  0  0  0  0  0  0  0  0  0
   58.6280   33.8520   47.1620 C   0  0  0  0  0  0  0  0  0  0  0  0
   58.6788   33.9336   48.2578 H   0  0  0  0  0  0  0  0  0  0  0  0
   57.8420   32.8620   46.5710 C   0  0  0  0  0  0  0  0  0  0  0  0
   57.2740   32.1572   47.1960 H   0  0  0  0  0  0  0  0  0  0  0  0
  1  2  1  0
  2  3  1  0
  3  4  2  0
  4  5  1  0
  4  6  1  0
  6  7  1  0
  6  8  2  0
  8  9  1  0
  8 10  1  0
 10 11  1  0
 11 12  2  0
 12 13  1  0
 13 14  2  0
 13 15  1  0
 15 16  1  0
 16 17  1  0
 16 18  1  0
 16 19  1  0
 19 20  1  0
 19 21  1  0
 19 22  1  0
 15 23  1  0
 23 24  1  0
 23 25  1  0
 23 26  1  0
 26 27  1  0
 26 28  1  0
 26 29  1  0
 29 30  2  0
 30 31  1  0
 31 32  1  0
 31 33  2  0
 33 34  1  0
 33 35  1  0
 35 36  1  0
 35 37  2  0
 37 38  1  0
 11  3  1  0
 37 29  1  0
M  CHG  1  10  -1
M  END
>  <UniqueID>  (52) 
48

>  <SMILES>  (52) 
CCN(CCc1ccccn1)C(=O)/N=c1\[n-]cccc1O

>  <Energy>  (52) 
32.00636409149723

>  <Genealogy>  (52) 
CCN(CCc1ccccn1)C(=O)N=c1[n-]cccc1O (protonated)
CCN(CCc1ccccn1)C(=O)/N=c1\[n-]cccc1O (cis-trans isomerization)
CCN(CCc1ccccn1)C(=O)/N=c1\[n-]cccc1O (3D coordinates assigned)
CCN(CCc1ccccn1)C(=O)/N=c1\[n-]cccc1O (optimized conformer: 32.00636409149723 kcal/mol)

>  <smiles>  (52) 
CCN(CCc1ccccn1)C(=O)N=c1[nH]cccc1O

>  <score_type>  (52) 
oracle

>  <origin>  (52) 
adg

>  <m_score__min__energy>  (52) 
-9.3800000000000008

>  <m_primary>  (52) 
energy

$$$$
52:0
     RDKit          3D

 41 44  0  0  0  0  0  0  0  0999 V2000
   56.7988   33.8326   44.3082 H   0  0  0  0  0  0  0  0  0  0  0  0
   57.2110   33.0250   44.9310 C   0  0  0  0  0  0  0  0  0  0  0  0
   56.7110   31.8300   44.8570 N   0  0  0  0  0  0  0  0  0  0  0  0
   57.3530   30.6860   44.2710 C   0  0  0  0  0  0  0  0  0  0  0  0
   57.1860   30.4650   43.0430 O   0  0  0  0  0  0  0  0  0  0  0  0
   58.1740   29.7120   45.0740 C   0  0  0  0  0  0  0  0  0  0  0  0
   58.5009   30.1953   46.0065 H   0  0  0  0  0  0  0  0  0  0  0  0
   59.0487   29.4071   44.4808 H   0  0  0  0  0  0  0  0  0  0  0  0
   57.3630   28.4980   45.4050 C   0  0  0  0  0  0  0  0  0  0  0  0
   57.8590   27.3910   45.9900 N   0  0  0  0  0  0  0  0  0  0  0  0
   56.7700   26.6040   46.1560 C   0  0  0  0  0  0  0  0  0  0  0  0
   56.8060   25.4260   46.7060 N   0  0  0  0  0  0  0  0  0  0  0  0
   56.1610   24.2410   46.2140 C   0  0  0  0  0  0  0  0  0  0  0  0
   55.0860   23.8220   46.7250 O   0  0  0  0  0  0  0  0  0  0  0  0
   56.7540   23.5090   45.0490 C   0  0  0  0  0  0  0  0  0  0  0  0
   56.2413   23.8193   44.1266 H   0  0  0  0  0  0  0  0  0  0  0  0
   57.8255   23.7489   44.9840 H   0  0  0  0  0  0  0  0  0  0  0  0
   56.6000   22.0650   45.2240 N   0  0  0  0  0  0  0  0  0  0  0  0
   56.2490   21.1570   44.2990 C   0  0  0  0  0  0  0  0  0  0  0  0
   55.9140   21.4560   42.9830 O   0  0  0  0  0  0  0  0  0  0  0  0
   56.2860   19.9000   44.8560 C   0  0  0  0  0  0  0  0  0  0  0  0
   56.0379   18.9633   44.3354 H   0  0  0  0  0  0  0  0  0  0  0  0
   56.6760   20.0010   46.1450 N   0  0  0  0  0  0  0  0  0  0  0  0
   56.8610   21.3290   46.3250 C   0  0  0  0  0  0  0  0  0  0  0  0
   57.2470   21.8240   47.4170 O   0  0  0  0  0  0  0  0  0  0  0  0
   55.6140   27.1520   45.7190 N   0  0  0  0  0  0  0  0  0  0  0  0
   56.0060   28.3480   45.2530 C   0  0  0  0  0  0  0  0  0  0  0  0
   55.1400   29.2870   44.7060 O   0  0  0  0  0  0  0  0  0  0  0  0
   58.3250   33.3000   45.8440 C   0  0  0  0  0  0  0  0  0  0  0  0
   59.6230   33.1620   45.4650 N   0  0  0  0  0  0  0  0  0  0  0  0
   60.2860   33.4900   46.5840 C   0  0  0  0  0  0  0  0  0  0  0  0
   61.6650   33.5210   46.7800 C   0  0  0  0  0  0  0  0  0  0  0  0
   62.3614   33.2619   45.9689 H   0  0  0  0  0  0  0  0  0  0  0  0
   62.1360   33.8960   48.0540 C   0  0  0  0  0  0  0  0  0  0  0  0
   63.2181   33.9315   48.2485 H   0  0  0  0  0  0  0  0  0  0  0  0
   61.2250   34.2270   49.0840 C   0  0  0  0  0  0  0  0  0  0  0  0
   61.6027   34.5205   50.0745 H   0  0  0  0  0  0  0  0  0  0  0  0
   59.8380   34.1830   48.8490 C   0  0  0  0  0  0  0  0  0  0  0  0
   59.1176   34.4370   49.6406 H   0  0  0  0  0  0  0  0  0  0  0  0
   59.4100   33.8060   47.5770 C   0  0  0  0  0  0  0  0  0  0  0  0
   58.1490   33.6940   47.1350 N   0  0  0  0  0  0  0  0  0  0  0  0
  1  2  1  0
  2  3  2  0
  3  4  1  0
  4  5  2  0
  4  6  1  0
  6  7  1  0
  6  8  1  0
  6  9  1  0
  9 10  1  0
 10 11  1  0
 11 12  2  3
 12 13  1  0
 13 14  2  0
 13 15  1  0
 15 16  1  0
 15 17  1  0
 15 18  1  0
 18 19  1  0
 19 20  1  0
 19 21  2  0
 21 22  1  0
 21 23  1  0
 23 24  1  0
 24 25  2  0
 11 26  1  0
 26 27  1  0
 27 28  1  0
  2 29  1  0
 29 30  2  0
 30 31  1  0
 31 32  2  0
 32 33  1  0
 32 34  1  0
 34 35  1  0
 34 36  2  0
 36 37  1  0
 36 38  1  0
 38 39  1  0
 38 40  2  0
 40 41  1  0
 27  9  2  0
 41 29  1  0
 24 18  1  0
 40 31  1  0
M  CHG  6  10  -1  20  -1  23  -1  26  -1  28  -1  41  -1
M  END
>  <UniqueID>  (53) 
49

>  <SMILES>  (53) 
O=C(Cn1c([O-])c[n-]c1=O)N=c1[n-]c([O-])c(CC(=O)/N=C/c2nc3ccccc3[n-]2)[n-]1

>  <Energy>  (53) 
138.71036788900406

>  <Genealogy>  (53) 
O=C(Cc1[n-]c(=NC(=O)Cn2c([O-])c[n-]c2=O)[n-]c1[O-])N=Cc1nc2ccccc2[n-]1 (protonated)
O=C(Cn1c([O-])c[n-]c1=O)N=c1[n-]c([O-])c(CC(=O)/N=C/c2nc3ccccc3[n-]2)[n-]1 (cis-trans isomerization)
O=C(Cn1c([O-])c[n-]c1=O)N=c1[n-]c([O-])c(CC(=O)/N=C/c2nc3ccccc3[n-]2)[n-]1 (3D coordinates assigned)
O=C(Cn1c([O-])c[n-]c1=O)N=c1[n-]c([O-])c(CC(=O)/N=C/c2nc3ccccc3[n-]2)[n-]1 (optimized conformer: 138.71036788900406 kcal/mol)

>  <smiles>  (53) 
O=C(Cc1[nH]c(=NC(=O)Cn2c(O)c[nH]c2=O)[nH]c1O)N=Cc1nc2ccccc2[nH]1

>  <score_type>  (53) 
oracle

>  <origin>  (53) 
adg

>  <m_score__min__energy>  (53) 
-20.18

>  <m_primary>  (53) 
energy

$$$$
53:0
     RDKit          3D

 70 73  0  0  0  0  0  0  0  0999 V2000
   59.9111   31.5475   51.3162 H   0  0  0  0  0  0  0  0  0  0  0  0
   60.2930   32.5780   51.2680 C   0  0  0  0  0  0  0  0  0  0  0  0
   61.7460   32.7550   51.0130 C   0  0  0  0  0  0  0  0  0  0  0  0
   62.5430   32.9060   51.9770 O   0  0  0  0  0  0  0  0  0  0  0  0
   62.2980   32.6970   49.6340 C   0  0  0  0  0  0  0  0  0  0  0  0
   62.9920   33.8140   49.1360 C   0  0  0  0  0  0  0  0  0  0  0  0
   63.1201   34.7020   49.7725 H   0  0  0  0  0  0  0  0  0  0  0  0
   63.5200   33.8100   47.8450 C   0  0  0  0  0  0  0  0  0  0  0  0
   64.0669   34.6881   47.4710 H   0  0  0  0  0  0  0  0  0  0  0  0
   63.3540   32.6930   47.0300 C   0  0  0  0  0  0  0  0  0  0  0  0
   63.7857   32.6831   46.0183 H   0  0  0  0  0  0  0  0  0  0  0  0
   62.6420   31.5870   47.4930 C   0  0  0  0  0  0  0  0  0  0  0  0
   62.5034   30.7143   46.8379 H   0  0  0  0  0  0  0  0  0  0  0  0
   62.0990   31.5780   48.7920 C   0  0  0  0  0  0  0  0  0  0  0  0
   61.3650   30.4800   49.2670 O   0  0  0  0  0  0  0  0  0  0  0  0
   60.0460   30.1300   48.8520 C   0  0  0  0  0  0  0  0  0  0  0  0
   59.3315   30.3989   49.6440 H   0  0  0  0  0  0  0  0  0  0  0  0
   59.8015   30.6750   47.9283 H   0  0  0  0  0  0  0  0  0  0  0  0
   59.9650   28.6510   48.5890 C   0  0  0  0  0  0  0  0  0  0  0  0
   60.9220   27.9160   48.9640 O   0  0  0  0  0  0  0  0  0  0  0  0
   58.8390   28.0410   47.9440 N   0  0  0  0  0  0  0  0  0  0  0  0
   58.3360   28.4220   46.6600 C   0  0  0  0  0  0  0  0  0  0  0  0
   58.2570   29.7800   46.3360 C   0  0  0  0  0  0  0  0  0  0  0  0
   58.5602   30.5371   47.0741 H   0  0  0  0  0  0  0  0  0  0  0  0
   57.7940   30.1810   45.0770 C   0  0  0  0  0  0  0  0  0  0  0  0
   57.6880   31.8980   44.7020 S   0  0  0  0  0  0  0  0  0  0  0  0
   56.2700   32.3760   44.8630 O   0  0  0  0  0  0  0  0  0  0  0  0
   58.1030   32.1050   43.2710 O   0  0  0  0  0  0  0  0  0  0  0  0
   58.7520   32.7730   45.7750 N   0  0  0  0  0  0  0  0  0  0  0  0
   59.6140   32.1880   45.8860 H   0  0  0  0  0  0  0  0  0  0  0  0
   58.1150   32.9540   47.0920 C   0  0  0  0  0  0  0  0  0  0  0  0
   57.2647   33.6440   46.9875 H   0  0  0  0  0  0  0  0  0  0  0  0
   57.7755   31.9718   47.4526 H   0  0  0  0  0  0  0  0  0  0  0  0
   59.1090   33.5330   48.1170 C   0  0  0  0  0  0  0  0  0  0  0  0
   58.5642   34.2101   48.7914 H   0  0  0  0  0  0  0  0  0  0  0  0
   59.5545   32.6872   48.6612 H   0  0  0  0  0  0  0  0  0  0  0  0
   60.2560   34.3150   47.4570 C   0  0  0  0  0  0  0  0  0  0  0  0
   60.6400   35.0580   48.1714 H   0  0  0  0  0  0  0  0  0  0  0  0
   61.0439   33.6012   47.1746 H   0  0  0  0  0  0  0  0  0  0  0  0
   59.7850   35.0370   46.1930 C   0  0  0  0  0  0  0  0  0  0  0  0
   59.0497   35.8042   46.4772 H   0  0  0  0  0  0  0  0  0  0  0  0
   60.6676   35.4845   45.7126 H   0  0  0  0  0  0  0  0  0  0  0  0
   59.1300   34.0730   45.1750 C   0  0  0  0  0  0  0  0  0  0  0  0
   58.2246   34.5502   44.7718 H   0  0  0  0  0  0  0  0  0  0  0  0
   59.8708   33.8707   44.3874 H   0  0  0  0  0  0  0  0  0  0  0  0
   57.3810   29.2150   44.1500 C   0  0  0  0  0  0  0  0  0  0  0  0
   56.9983   29.5265   43.1669 H   0  0  0  0  0  0  0  0  0  0  0  0
   57.4540   27.8570   44.4710 C   0  0  0  0  0  0  0  0  0  0  0  0
   57.1389   27.1028   43.7348 H   0  0  0  0  0  0  0  0  0  0  0  0
   57.9270   27.4510   45.7270 C   0  0  0  0  0  0  0  0  0  0  0  0
   57.9830   26.0540   46.0570 N   0  0  0  0  0  0  0  0  0  0  0  0
   59.2110   25.2990   45.7920 C   0  0  0  0  0  0  0  0  0  0  0  0
   59.6795   25.6736   44.8699 H   0  0  0  0  0  0  0  0  0  0  0  0
   59.9065   25.4244   46.6349 H   0  0  0  0  0  0  0  0  0  0  0  0
   58.8740   23.8130   45.6260 C   0  0  0  0  0  0  0  0  0  0  0  0
   58.3011   23.6749   44.6972 H   0  0  0  0  0  0  0  0  0  0  0  0
   59.8130   23.2414   45.5859 H   0  0  0  0  0  0  0  0  0  0  0  0
   58.1060   23.3460   46.7180 O   0  0  0  0  0  0  0  0  0  0  0  0
   56.8510   24.0020   46.7350 C   0  0  0  0  0  0  0  0  0  0  0  0
   56.3611   23.8695   45.7590 H   0  0  0  0  0  0  0  0  0  0  0  0
   56.2345   23.5648   47.5342 H   0  0  0  0  0  0  0  0  0  0  0  0
   57.0250   25.4940   47.0100 C   0  0  0  0  0  0  0  0  0  0  0  0
   56.0563   26.0033   46.8991 H   0  0  0  0  0  0  0  0  0  0  0  0
   57.3982   25.6382   48.0346 H   0  0  0  0  0  0  0  0  0  0  0  0
   59.4100   33.5690   51.4440 C   0  0  0  0  0  0  0  0  0  0  0  0
   59.5633   34.4982   50.8756 H   0  0  0  0  0  0  0  0  0  0  0  0
   58.2270   33.5000   52.3620 C   0  0  0  0  0  0  0  0  0  0  0  0
   58.5717   33.5201   53.4064 H   0  0  0  0  0  0  0  0  0  0  0  0
   57.5683   34.3613   52.1766 H   0  0  0  0  0  0  0  0  0  0  0  0
   57.6729   32.5680   52.1766 H   0  0  0  0  0  0  0  0  0  0  0  0
  1  2  1  0
  2  3  1  0
  3  4  2  0
  3  5  1  0
  5  6  2  0
  6  7  1  0
  6  8  1  0
  8  9  1  0
  8 10  2  0
 10 11  1  0
 10 12  1  0
 12 13  1  0
 12 14  2  0
 14 15  1  0
 15 16  1  0
 16 17  1  0
 16 18  1  0
 16 19  1  0
 19 20  2  0
 19 21  1  0
 21 22  1  0
 22 23  2  0
 23 24  1  0
 23 25  1  0
 25 26  1  0
 26 27  2  0
 26 28  2  0
 26 29  1  0
 29 30  1  0
 29 31  1  0
 31 32  1  0
 31 33  1  0
 31 34  1  0
 34 35  1  0
 34 36  1  0
 34 37  1  0
 37 38  1  0
 37 39  1  0
 37 40  1  0
 40 41  1  0
 40 42  1  0
 40 43  1  0
 43 44  1  0
 43 45  1  0
 25 46  2  0
 46 47  1  0
 46 48  1  0
 48 49  1  0
 48 50  2  0
 50 51  1  0
 51 52  1  0
 52 53  1  0
 52 54  1  0
 52 55  1  0
 55 56  1  0
 55 57  1  0
 55 58  1  0
 58 59  1  0
 59 60  1  0
 59 61  1  0
 59 62  1  0
 62 63  1  0
 62 64  1  0
  2 65  2  0
 65 66  1  0
 65 67  1  0
 67 68  1  0
 67 69  1  0
 67 70  1  0
 14  5  1  0
 50 22  1  0
 62 51  1  0
 43 29  1  0
M  CHG  2  21  -1  29   1
M  END
>  <UniqueID>  (54) 
50

>  <SMILES>  (54) 
C/C=C\C(=O)c1ccccc1OCC(=O)[N-]c1cc(S(=O)(=O)[NH+]2CCCCC2)ccc1N1CCOCC1

>  <Energy>  (54) 
91.05164706561038

>  <Genealogy>  (54) 
CC=CC(=O)c1ccccc1OCC(=O)[N-]c1cc(S(=O)(=O)[NH+]2CCCCC2)ccc1N1CCOCC1 (protonated)
C/C=C\C(=O)c1ccccc1OCC(=O)[N-]c1cc(S(=O)(=O)[NH+]2CCCCC2)ccc1N1CCOCC1 (cis-trans isomerization)
C/C=C\C(=O)c1ccccc1OCC(=O)[N-]c1cc(S(=O)(=O)[NH+]2CCCCC2)ccc1N1CCOCC1 (3D coordinates assigned)
C/C=C\C(=O)c1ccccc1OCC(=O)[N-]c1cc(S(=O)(=O)[NH+]2CCCCC2)ccc1N1CCOCC1 (nonaromatic ring conformer: 91.05164706561038 kcal/mol)

>  <smiles>  (54) 
CC=CC(=O)c1ccccc1OCC(=O)Nc1cc(S(=O)(=O)N2CCCCC2)ccc1N1CCOCC1

>  <score_type>  (54) 
oracle

>  <origin>  (54) 
adg

>  <m_score__min__energy>  (54) 
-9.0800000000000001

>  <m_primary>  (54) 
energy

$$$$
54:0
     RDKit          3D

 66 70  0  0  0  0  0  0  0  0999 V2000
   60.8640   27.9990   52.3300 O   0  0  0  0  0  0  0  0  0  0  0  0
   60.1340   28.7890   51.6750 C   0  0  0  0  0  0  0  0  0  0  0  0
   58.8410   29.1110   52.1980 N   0  0  0  0  0  0  0  0  0  0  0  0
   57.7880   30.3610   51.6210 S   0  0  0  0  0  0  0  0  0  0  0  0
   56.3630   30.0770   52.0030 O   0  0  0  0  0  0  0  0  0  0  0  0
   57.8870   30.4600   50.1260 O   0  0  0  0  0  0  0  0  0  0  0  0
   58.2810   31.8850   52.3480 C   0  0  0  0  0  0  0  0  0  0  0  0
   58.4820   31.9750   53.7340 C   0  0  0  0  0  0  0  0  0  0  0  0
   58.8720   33.1870   54.3090 C   0  0  0  0  0  0  0  0  0  0  0  0
   59.0740   34.3110   53.5010 C   0  0  0  0  0  0  0  0  0  0  0  0
   58.8930   34.2220   52.1190 C   0  0  0  0  0  0  0  0  0  0  0  0
   58.5000   33.0120   51.5410 C   0  0  0  0  0  0  0  0  0  0  0  0
   60.5960   29.2910   50.4050 N   0  0  0  0  0  0  0  0  0  0  0  0
   61.1250   28.2060   49.5600 C   0  0  0  0  0  0  0  0  0  0  0  0
   60.2060   27.8700   48.4070 C   0  0  0  0  0  0  0  0  0  0  0  0
   60.5820   26.9080   47.4540 C   0  0  0  0  0  0  0  0  0  0  0  0
   59.7390   26.6140   46.3780 C   0  0  0  0  0  0  0  0  0  0  0  0
   58.5280   27.3040   46.2130 C   0  0  0  0  0  0  0  0  0  0  0  0
   57.6580   27.0340   45.0110 C   0  0  0  0  0  0  0  0  0  0  0  0
   58.0750   27.8610   43.7870 C   0  0  0  0  0  0  0  0  0  0  0  0
   58.2010   29.2790   44.1210 N   0  0  0  0  0  0  0  0  0  0  0  0
   57.1460   30.2430   44.1770 C   0  0  0  0  0  0  0  0  0  0  0  0
   56.0060   30.0780   43.6710 O   0  0  0  0  0  0  0  0  0  0  0  0
   57.5870   31.4270   44.9060 C   0  0  0  0  0  0  0  0  0  0  0  0
   56.9060   32.5920   45.2470 C   0  0  0  0  0  0  0  0  0  0  0  0
   57.5900   33.5630   46.0000 C   0  0  0  0  0  0  0  0  0  0  0  0
   58.9390   33.3610   46.3910 C   0  0  0  0  0  0  0  0  0  0  0  0
   59.6400   34.3910   47.1940 C   0  0  0  0  0  0  0  0  0  0  0  0
   59.5820   35.5970   46.8340 O   0  0  0  0  0  0  0  0  0  0  0  0
   60.3400   34.0700   48.4070 N   0  0  0  0  0  0  0  0  0  0  0  0
   61.4840   33.4510   48.4930 C   0  0  0  0  0  0  0  0  0  0  0  0
   62.6410   34.0560   48.1000 N   0  0  0  0  0  0  0  0  0  0  0  0
   63.8480   33.4360   48.1960 C   0  0  0  0  0  0  0  0  0  0  0  0
   63.9280   32.1420   48.7110 C   0  0  0  0  0  0  0  0  0  0  0  0
   62.7610   31.5010   49.1310 C   0  0  0  0  0  0  0  0  0  0  0  0
   61.5310   32.1540   49.0270 C   0  0  0  0  0  0  0  0  0  0  0  0
   60.3690   31.5150   49.4500 O   0  0  0  0  0  0  0  0  0  0  0  0
   59.5930   32.1560   46.0450 C   0  0  0  0  0  0  0  0  0  0  0  0
   58.8890   31.2140   45.2990 C   0  0  0  0  0  0  0  0  0  0  0  0
   59.2830   29.8910   44.8280 C   0  0  0  0  0  0  0  0  0  0  0  0
   60.4010   29.3460   45.0210 O   0  0  0  0  0  0  0  0  0  0  0  0
   58.1490   28.2620   47.1680 C   0  0  0  0  0  0  0  0  0  0  0  0
   58.9750   28.5330   48.2630 C   0  0  0  0  0  0  0  0  0  0  0  0
   58.3321   31.0894   54.3690 H   0  0  0  0  0  0  0  0  0  0  0  0
   59.0202   33.2575   55.3967 H   0  0  0  0  0  0  0  0  0  0  0  0
   59.3759   35.2664   53.9549 H   0  0  0  0  0  0  0  0  0  0  0  0
   59.0600   35.1052   51.4849 H   0  0  0  0  0  0  0  0  0  0  0  0
   58.3621   32.9428   50.4519 H   0  0  0  0  0  0  0  0  0  0  0  0
   61.3770   29.9610   50.5960 H   0  0  0  0  0  0  0  0  0  0  0  0
   59.8560   29.8280   49.9040 H   0  0  0  0  0  0  0  0  0  0  0  0
   62.0995   28.5170   49.1554 H   0  0  0  0  0  0  0  0  0  0  0  0
   61.2162   27.3074   50.1878 H   0  0  0  0  0  0  0  0  0  0  0  0
   61.5439   26.3840   47.5551 H   0  0  0  0  0  0  0  0  0  0  0  0
   60.0270   25.8362   45.6555 H   0  0  0  0  0  0  0  0  0  0  0  0
   57.7293   25.9662   44.7564 H   0  0  0  0  0  0  0  0  0  0  0  0
   56.6283   27.3191   45.2724 H   0  0  0  0  0  0  0  0  0  0  0  0
   59.0437   27.4923   43.4187 H   0  0  0  0  0  0  0  0  0  0  0  0
   57.2986   27.7540   43.0152 H   0  0  0  0  0  0  0  0  0  0  0  0
   55.8625   32.7487   44.9364 H   0  0  0  0  0  0  0  0  0  0  0  0
   57.0732   34.4900   46.2893 H   0  0  0  0  0  0  0  0  0  0  0  0
   64.7607   33.9548   47.8676 H   0  0  0  0  0  0  0  0  0  0  0  0
   64.8999   31.6323   48.7854 H   0  0  0  0  0  0  0  0  0  0  0  0
   62.8104   30.4825   49.5435 H   0  0  0  0  0  0  0  0  0  0  0  0
   60.6309   31.9675   46.3570 H   0  0  0  0  0  0  0  0  0  0  0  0
   57.1974   28.8018   47.0537 H   0  0  0  0  0  0  0  0  0  0  0  0
   58.6595   29.2697   49.0165 H   0  0  0  0  0  0  0  0  0  0  0  0
  1  2  2  0
  2  3  1  0
  3  4  1  0
  4  5  2  0
  4  6  2  0
  4  7  1  0
  7  8  2  0
  8  9  1  0
  9 10  2  0
 10 11  1  0
 11 12  2  0
  2 13  1  0
 13 14  1  0
 14 15  1  0
 15 16  2  0
 16 17  1  0
 17 18  2  0
 18 19  1  0
 19 20  1  0
 20 21  1  0
 21 22  1  0
 22 23  2  0
 22 24  1  0
 24 25  2  0
 25 26  1  0
 26 27  2  0
 27 28  1  0
 28 29  2  0
 28 30  1  0
 30 31  2  3
 31 32  1  0
 32 33  1  0
 33 34  2  0
 34 35  1  0
 35 36  2  0
 36 37  1  0
 27 38  1  0
 38 39  2  0
 39 40  1  0
 40 41  2  0
 18 42  1  0
 42 43  2  0
 12  7  1  0
 43 15  1  0
 40 21  1  0
 39 24  1  0
 36 31  1  0
  8 44  1  0
  9 45  1  0
 10 46  1  0
 11 47  1  0
 12 48  1  0
 13 49  1  0
 13 50  1  0
 14 51  1  0
 14 52  1  0
 16 53  1  0
 17 54  1  0
 19 55  1  0
 19 56  1  0
 20 57  1  0
 20 58  1  0
 25 59  1  0
 26 60  1  0
 33 61  1  0
 34 62  1  0
 35 63  1  0
 38 64  1  0
 42 65  1  0
 43 66  1  0
M  CHG  4   3  -1  13   1  32  -1  37  -1
M  END
>  <UniqueID>  (55) 
51

>  <SMILES>  (55) 
O=C([N-]S(=O)(=O)c1ccccc1)[NH2+]Cc1ccc(CCN2C(=O)c3ccc(C(=O)N=c4[n-]cccc4[O-])cc3C2=O)cc1

>  <Energy>  (55) 
112.21464559742921

>  <Genealogy>  (55) 
O=C([N-]S(=O)(=O)c1ccccc1)[NH2+]Cc1ccc(CCN2C(=O)c3ccc(C(=O)N=c4[n-]cccc4[O-])cc3C2=O)cc1 (protonated)
O=C([N-]S(=O)(=O)c1ccccc1)[NH2+]Cc1ccc(CCN2C(=O)c3ccc(C(=O)N=c4[n-]cccc4[O-])cc3C2=O)cc1 (3D coordinates assigned)
O=C([N-]S(=O)(=O)c1ccccc1)[NH2+]Cc1ccc(CCN2C(=O)c3ccc(C(=O)N=c4[n-]cccc4[O-])cc3C2=O)cc1 (nonaromatic ring conformer: 112.21464559742921 kcal/mol)

>  <smiles>  (55) 
O=C(NCc1ccc(CCN2C(=O)c3ccc(C(=O)N=c4[nH]cccc4O)cc3C2=O)cc1)NS(=O)(=O)c1ccccc1

>  <score_type>  (55) 
oracle

>  <origin>  (55) 
adg

>  <m_score__min__energy>  (55) 
-15.01

>  <m_primary>  (55) 
energy

$$$$
55:0
     RDKit          3D

 35 37  0  0  0  0  0  0  0  0999 V2000
   57.3160   30.8150   44.7450 C   0  0  0  0  0  0  0  0  0  0  0  0
   57.3760   29.4630   45.4120 C   0  0  0  0  0  0  0  0  0  0  0  0
   58.5110   29.0470   46.1590 C   0  0  0  0  0  0  0  0  0  0  0  0
   59.6750   29.9250   46.4100 C   0  0  0  0  0  0  0  0  0  0  0  0
   59.6490   31.1910   46.9630 C   0  0  0  0  0  0  0  0  0  0  0  0
   60.9820   31.5330   47.0750 C   0  0  0  0  0  0  0  0  0  0  0  0
   61.5400   32.7930   47.5960 C   0  0  0  0  0  0  0  0  0  0  0  0
   62.6720   33.1620   47.1870 O   0  0  0  0  0  0  0  0  0  0  0  0
   60.8770   33.5910   48.5890 N   0  0  0  0  0  0  0  0  0  0  0  0
   59.5260   34.1410   48.5140 C   0  0  0  0  0  0  0  0  0  0  0  0
   59.0800   34.2760   47.0910 C   0  0  0  0  0  0  0  0  0  0  0  0
   59.7510   34.9540   46.0940 C   0  0  0  0  0  0  0  0  0  0  0  0
   58.9800   34.8060   44.9620 C   0  0  0  0  0  0  0  0  0  0  0  0
   57.8860   34.0540   45.3400 C   0  0  0  0  0  0  0  0  0  0  0  0
   57.9730   33.7540   46.6150 O   0  0  0  0  0  0  0  0  0  0  0  0
   61.7460   30.5300   46.6020 N   0  0  0  0  0  0  0  0  0  0  0  0
   60.9530   29.5450   46.2120 N   0  0  0  0  0  0  0  0  0  0  0  0
   58.5430   27.7490   46.6950 C   0  0  0  0  0  0  0  0  0  0  0  0
   57.4580   26.8880   46.5440 C   0  0  0  0  0  0  0  0  0  0  0  0
   56.3180   27.3080   45.8550 C   0  0  0  0  0  0  0  0  0  0  0  0
   55.2220   26.4550   45.7200 O   0  0  0  0  0  0  0  0  0  0  0  0
   56.2730   28.5890   45.2940 C   0  0  0  0  0  0  0  0  0  0  0  0
   55.1260   28.9880   44.6130 O   0  0  0  0  0  0  0  0  0  0  0  0
   57.2811   31.6016   45.5131 H   0  0  0  0  0  0  0  0  0  0  0  0
   58.2088   30.9544   44.1178 H   0  0  0  0  0  0  0  0  0  0  0  0
   56.4143   30.8747   44.1178 H   0  0  0  0  0  0  0  0  0  0  0  0
   58.7701   31.7880   47.2479 H   0  0  0  0  0  0  0  0  0  0  0  0
   58.8346   33.4706   49.0456 H   0  0  0  0  0  0  0  0  0  0  0  0
   59.5276   35.1388   48.9770 H   0  0  0  0  0  0  0  0  0  0  0  0
   60.7024   35.4987   46.1842 H   0  0  0  0  0  0  0  0  0  0  0  0
   59.1931   35.2061   43.9598 H   0  0  0  0  0  0  0  0  0  0  0  0
   57.0650   33.7517   44.6733 H   0  0  0  0  0  0  0  0  0  0  0  0
   59.4353   27.4082   47.2405 H   0  0  0  0  0  0  0  0  0  0  0  0
   57.4994   25.8742   46.9688 H   0  0  0  0  0  0  0  0  0  0  0  0
   54.4060   26.7210   45.1830 H   0  0  0  0  0  0  0  0  0  0  0  0
  1  2  1  0
  2  3  2  0
  3  4  1  0
  4  5  2  0
  5  6  1  0
  6  7  1  0
  7  8  2  0
  7  9  1  0
  9 10  1  0
 10 11  1  0
 11 12  2  0
 12 13  1  0
 13 14  2  0
 14 15  1  0
  6 16  2  0
 16 17  1  0
  3 18  1  0
 18 19  2  0
 19 20  1  0
 20 21  1  0
 20 22  2  0
 22 23  1  0
 22  2  1  0
 17  4  1  0
 15 11  1  0
  1 24  1  0
  1 25  1  0
  1 26  1  0
  5 27  1  0
 10 28  1  0
 10 29  1  0
 12 30  1  0
 13 31  1  0
 14 32  1  0
 18 33  1  0
 19 34  1  0
 21 35  1  0
M  CHG  3   9  -1  17  -1  23  -1
M  END
>  <UniqueID>  (56) 
52

>  <SMILES>  (56) 
Cc1c(-c2cc(C(=O)[N-]Cc3ccco3)n[n-]2)ccc(O)c1[O-]

>  <Energy>  (56) 
99.8086111166274

>  <Genealogy>  (56) 
Cc1c(-c2cc(C(=O)[N-]Cc3ccco3)n[n-]2)ccc(O)c1[O-] (protonated)
Cc1c(-c2cc(C(=O)[N-]Cc3ccco3)n[n-]2)ccc(O)c1[O-] (3D coordinates assigned)
Cc1c(-c2cc(C(=O)[N-]Cc3ccco3)n[n-]2)ccc(O)c1[O-] (optimized conformer: 99.8086111166274 kcal/mol)

>  <smiles>  (56) 
Cc1c(-c2cc(C(=O)NCc3ccco3)n[nH]2)ccc(O)c1O

>  <score_type>  (56) 
oracle

>  <origin>  (56) 
adg

>  <m_score__min__energy>  (56) 
-11.91

>  <m_primary>  (56) 
energy

$$$$
56:0
     RDKit          3D

 54 57  0  0  0  0  0  0  0  0999 V2000
   60.5630   30.9270   47.1680 H   0  0  0  0  0  0  0  0  0  0  0  0
   59.8600   31.2350   46.5100 O   0  0  0  0  0  0  0  0  0  0  0  0
   59.6040   32.5830   46.2390 C   0  0  0  0  0  0  0  0  0  0  0  0
   60.3020   33.5540   46.9770 C   0  0  0  0  0  0  0  0  0  0  0  0
   61.2030   33.1190   48.0070 N   0  0  0  0  0  0  0  0  0  0  0  0
   62.6320   32.1640   47.7740 S   0  0  0  0  0  0  0  0  0  0  0  0
   62.2350   30.8380   47.1900 O   0  0  0  0  0  0  0  0  0  0  0  0
   63.5600   32.8550   46.8160 O   0  0  0  0  0  0  0  0  0  0  0  0
   63.4410   31.8820   49.3340 C   0  0  0  0  0  0  0  0  0  0  0  0
   62.7493   32.1231   50.1546 H   0  0  0  0  0  0  0  0  0  0  0  0
   63.7412   30.8262   49.4058 H   0  0  0  0  0  0  0  0  0  0  0  0
   64.3325   32.5224   49.4058 H   0  0  0  0  0  0  0  0  0  0  0  0
   60.1220   34.9160   46.6760 C   0  0  0  0  0  0  0  0  0  0  0  0
   60.6681   35.6798   47.2490 H   0  0  0  0  0  0  0  0  0  0  0  0
   59.2550   35.3030   45.6550 C   0  0  0  0  0  0  0  0  0  0  0  0
   59.1301   36.3696   45.4169 H   0  0  0  0  0  0  0  0  0  0  0  0
   58.5460   34.3430   44.9350 C   0  0  0  0  0  0  0  0  0  0  0  0
   57.8654   34.6576   44.1302 H   0  0  0  0  0  0  0  0  0  0  0  0
   58.6930   32.9790   45.2280 C   0  0  0  0  0  0  0  0  0  0  0  0
   57.8730   32.0080   44.4740 C   0  0  0  0  0  0  0  0  0  0  0  0
   57.2850   30.9730   45.1360 N   0  0  0  0  0  0  0  0  0  0  0  0
   56.5570   30.0150   44.5010 C   0  0  0  0  0  0  0  0  0  0  0  0
   56.0290   29.0610   45.2140 N   0  0  0  0  0  0  0  0  0  0  0  0
   56.6670   27.7960   45.5720 C   0  0  0  0  0  0  0  0  0  0  0  0
   55.9981   27.2198   46.2281 H   0  0  0  0  0  0  0  0  0  0  0  0
   56.8720   27.2155   44.6604 H   0  0  0  0  0  0  0  0  0  0  0  0
   57.9490   28.0750   46.2870 C   0  0  0  0  0  0  0  0  0  0  0  0
   58.2850   27.6490   47.5570 C   0  0  0  0  0  0  0  0  0  0  0  0
   57.6565   27.0720   48.2513 H   0  0  0  0  0  0  0  0  0  0  0  0
   59.5760   28.0980   47.7760 C   0  0  0  0  0  0  0  0  0  0  0  0
   60.3690   27.8360   48.9940 C   0  0  0  0  0  0  0  0  0  0  0  0
   61.0020   26.7530   49.0960 O   0  0  0  0  0  0  0  0  0  0  0  0
   60.4910   28.8090   50.0400 N   0  0  0  0  0  0  0  0  0  0  0  0
   59.5520   29.8530   50.3380 C   0  0  0  0  0  0  0  0  0  0  0  0
   59.4830   30.9630   49.4870 C   0  0  0  0  0  0  0  0  0  0  0  0
   60.1312   31.0138   48.5997 H   0  0  0  0  0  0  0  0  0  0  0  0
   58.5940   32.0070   49.7600 C   0  0  0  0  0  0  0  0  0  0  0  0
   58.5360   32.8709   49.0815 H   0  0  0  0  0  0  0  0  0  0  0  0
   57.7790   31.9540   50.8940 C   0  0  0  0  0  0  0  0  0  0  0  0
   57.0754   32.7729   51.1045 H   0  0  0  0  0  0  0  0  0  0  0  0
   57.8580   30.8610   51.7600 C   0  0  0  0  0  0  0  0  0  0  0  0
   57.2207   30.8229   52.6558 H   0  0  0  0  0  0  0  0  0  0  0  0
   58.7460   29.8150   51.4900 C   0  0  0  0  0  0  0  0  0  0  0  0
   58.8143   28.9609   52.1799 H   0  0  0  0  0  0  0  0  0  0  0  0
   60.0330   28.7540   46.6910 N   0  0  0  0  0  0  0  0  0  0  0  0
   60.9830   29.1660   46.5550 H   0  0  0  0  0  0  0  0  0  0  0  0
   59.0450   28.7440   45.7770 C   0  0  0  0  0  0  0  0  0  0  0  0
   59.1015   29.1988   44.7770 H   0  0  0  0  0  0  0  0  0  0  0  0
   56.4080   30.0830   43.1010 C   0  0  0  0  0  0  0  0  0  0  0  0
   55.8172   29.3234   42.5682 H   0  0  0  0  0  0  0  0  0  0  0  0
   57.0170   31.1230   42.3970 C   0  0  0  0  0  0  0  0  0  0  0  0
   56.9114   31.1827   41.3037 H   0  0  0  0  0  0  0  0  0  0  0  0
   57.7590   32.0860   43.0790 C   0  0  0  0  0  0  0  0  0  0  0  0
   58.2510   32.9004   42.5271 H   0  0  0  0  0  0  0  0  0  0  0  0
  1  2  1  0
  2  3  1  0
  3  4  2  0
  4  5  1  0
  5  6  1  0
  6  7  2  0
  6  8  2  0
  6  9  1  0
  9 10  1  0
  9 11  1  0
  9 12  1  0
  4 13  1  0
 13 14  1  0
 13 15  2  0
 15 16  1  0
 15 17  1  0
 17 18  1  0
 17 19  2  0
 19 20  1  0
 20 21  1  0
 21 22  1  0
 22 23  2  0
 23 24  1  0
 24 25  1  0
 24 26  1  0
 24 27  1  0
 27 28  1  0
 28 29  1  0
 28 30  2  0
 30 31  1  0
 31 32  2  0
 31 33  1  0
 33 34  1  0
 34 35  2  0
 35 36  1  0
 35 37  1  0
 37 38  1  0
 37 39  2  0
 39 40  1  0
 39 41  1  0
 41 42  1  0
 41 43  2  0
 43 44  1  0
 30 45  1  0
 45 46  1  0
 45 47  1  0
 47 48  1  0
 22 49  1  0
 49 50  1  0
 49 51  2  0
 51 52  1  0
 51 53  1  0
 53 54  1  0
 19  3  1  0
 53 20  2  0
 47 27  2  0
 43 34  1  0
M  CHG  3   5  -1  21  -1  33  -1
M  END
>  <UniqueID>  (57) 
53

>  <SMILES>  (57) 
CS(=O)(=O)[N-]c1cccc(-c2ccc/c(=N\Cc3c[nH]c(C(=O)[N-]c4ccccc4)c3)[n-]2)c1O

>  <Energy>  (57) 
96.64543742302091

>  <Genealogy>  (57) 
CS(=O)(=O)[N-]c1cccc(-c2cccc(=NCc3c[nH]c(C(=O)[N-]c4ccccc4)c3)[n-]2)c1O (protonated)
CS(=O)(=O)[N-]c1cccc(-c2ccc/c(=N\Cc3c[nH]c(C(=O)[N-]c4ccccc4)c3)[n-]2)c1O (cis-trans isomerization)
CS(=O)(=O)[N-]c1cccc(-c2ccc/c(=N\Cc3c[nH]c(C(=O)[N-]c4ccccc4)c3)[n-]2)c1O (3D coordinates assigned)
CS(=O)(=O)[N-]c1cccc(-c2ccc/c(=N\Cc3c[nH]c(C(=O)[N-]c4ccccc4)c3)[n-]2)c1O (optimized conformer: 96.64543742302091 kcal/mol)

>  <smiles>  (57) 
CS(=O)(=O)Nc1cccc(-c2cccc(=NCc3c[nH]c(C(=O)Nc4ccccc4)c3)[nH]2)c1O

>  <score_type>  (57) 
oracle

>  <origin>  (57) 
adg

>  <m_score__min__energy>  (57) 
-15.25

>  <m_primary>  (57) 
energy

$$$$
57:0
     RDKit          3D

 37 39  0  0  0  0  0  0  0  0999 V2000
   59.2950   35.1450   44.9510 C   0  0  0  0  0  0  0  0  0  0  0  0
   58.5210   33.9900   45.4220 N   0  0  0  0  0  0  0  0  0  0  0  0
   58.2400   33.8400   46.8550 C   0  0  0  0  0  0  0  0  0  0  0  0
   58.0210   32.9920   44.5000 C   0  0  0  0  0  0  0  0  0  0  0  0
   57.0370   32.0560   44.8810 C   0  0  0  0  0  0  0  0  0  0  0  0
   56.5830   31.1050   43.9550 C   0  0  0  0  0  0  0  0  0  0  0  0
   55.5580   30.0770   44.3510 C   0  0  0  0  0  0  0  0  0  0  0  0
   56.2190   28.8420   44.7650 N   0  0  0  0  0  0  0  0  0  0  0  0
   57.2710   28.8220   45.7420 C   0  0  0  0  0  0  0  0  0  0  0  0
   57.5870   29.8810   46.3470 O   0  0  0  0  0  0  0  0  0  0  0  0
   58.0210   27.5750   45.9990 C   0  0  0  0  0  0  0  0  0  0  0  0
   59.4200   27.5570   46.0320 C   0  0  0  0  0  0  0  0  0  0  0  0
   59.9610   26.0080   46.4350 S   0  0  0  0  0  0  0  0  0  0  0  0
   58.4260   25.3530   46.5550 C   0  0  0  0  0  0  0  0  0  0  0  0
   58.1210   24.0680   46.8500 N   0  0  0  0  0  0  0  0  0  0  0  0
   56.8140   23.6920   46.8790 C   0  0  0  0  0  0  0  0  0  0  0  0
   55.8310   24.5960   46.5940 N   0  0  0  0  0  0  0  0  0  0  0  0
   56.1190   25.8920   46.2890 C   0  0  0  0  0  0  0  0  0  0  0  0
   55.1830   26.6800   45.9970 O   0  0  0  0  0  0  0  0  0  0  0  0
   57.4610   26.3070   46.2860 C   0  0  0  0  0  0  0  0  0  0  0  0
   57.1230   31.0930   42.6640 C   0  0  0  0  0  0  0  0  0  0  0  0
   58.0920   32.0320   42.3170 C   0  0  0  0  0  0  0  0  0  0  0  0
   58.5130   32.9460   43.2290 N   0  0  0  0  0  0  0  0  0  0  0  0
   59.6736   35.7099   45.8156 H   0  0  0  0  0  0  0  0  0  0  0  0
   60.1418   34.7953   44.3422 H   0  0  0  0  0  0  0  0  0  0  0  0
   58.6496   35.7953   44.3422 H   0  0  0  0  0  0  0  0  0  0  0  0
   59.0629   34.2793   47.4380 H   0  0  0  0  0  0  0  0  0  0  0  0
   57.3003   34.3565   47.1004 H   0  0  0  0  0  0  0  0  0  0  0  0
   58.1462   32.7718   47.1004 H   0  0  0  0  0  0  0  0  0  0  0  0
   56.6267   32.0717   45.9015 H   0  0  0  0  0  0  0  0  0  0  0  0
   54.9570   30.4656   45.1864 H   0  0  0  0  0  0  0  0  0  0  0  0
   54.9084   29.8659   43.4888 H   0  0  0  0  0  0  0  0  0  0  0  0
   55.8970   27.9420   44.3410 H   0  0  0  0  0  0  0  0  0  0  0  0
   60.0693   28.4209   45.8266 H   0  0  0  0  0  0  0  0  0  0  0  0
   56.5478   22.6554   47.1331 H   0  0  0  0  0  0  0  0  0  0  0  0
   56.7850   30.3479   41.9288 H   0  0  0  0  0  0  0  0  0  0  0  0
   58.5169   32.0331   41.3024 H   0  0  0  0  0  0  0  0  0  0  0  0
  1  2  1  0
  2  3  1  0
  2  4  1  0
  4  5  2  0
  5  6  1  0
  6  7  1  0
  7  8  1  0
  8  9  1  0
  9 10  2  0
  9 11  1  0
 11 12  2  0
 12 13  1  0
 13 14  1  0
 14 15  1  0
 15 16  1  0
 16 17  2  0
 17 18  1  0
 18 19  2  0
 18 20  1  0
  6 21  2  0
 21 22  1  0
 22 23  2  0
 23  4  1  0
 20 11  1  0
 20 14  2  0
  1 24  1  0
  1 25  1  0
  1 26  1  0
  3 27  1  0
  3 28  1  0
  3 29  1  0
  5 30  1  0
  7 31  1  0
  7 32  1  0
  8 33  1  0
 12 34  1  0
 16 35  1  0
 21 36  1  0
 22 37  1  0
M  CHG  1  15  -1
M  END
>  <UniqueID>  (58) 
54

>  <SMILES>  (58) 
CN(C)c1cc(CNC(=O)c2csc3[n-]cnc(=O)c23)ccn1

>  <Energy>  (58) 
75.79333213311291

>  <Genealogy>  (58) 
CN(C)c1cc(CNC(=O)c2csc3[n-]cnc(=O)c23)ccn1 (protonated)
CN(C)c1cc(CNC(=O)c2csc3[n-]cnc(=O)c23)ccn1 (3D coordinates assigned)
CN(C)c1cc(CNC(=O)c2csc3[n-]cnc(=O)c23)ccn1 (optimized conformer: 75.79333213311291 kcal/mol)

>  <smiles>  (58) 
CN(C)c1cc(CNC(=O)c2csc3[nH]cnc(=O)c23)ccn1

>  <score_type>  (58) 
oracle

>  <origin>  (58) 
adg

>  <m_score__min__energy>  (58) 
-9.7300000000000004

>  <m_primary>  (58) 
energy

$$$$
58:0
     RDKit          3D

 31 32  0  0  0  0  0  0  0  0999 V2000
   60.5320   31.4030   48.5650 C   0  0  0  0  0  0  0  0  0  0  0  0
   59.1720   31.6830   48.8820 O   0  0  0  0  0  0  0  0  0  0  0  0
   58.7200   32.0850   50.1470 C   0  0  0  0  0  0  0  0  0  0  0  0
   57.7560   31.3530   50.8680 C   0  0  0  0  0  0  0  0  0  0  0  0
   57.3150   31.7990   52.1240 C   0  0  0  0  0  0  0  0  0  0  0  0
   56.1970   31.0860   52.8350 C   0  0  0  0  0  0  0  0  0  0  0  0
   55.1720   30.7740   51.8970 O   0  0  0  0  0  0  0  0  0  0  0  0
   53.9900   30.1240   52.2630 C   0  0  0  0  0  0  0  0  0  0  0  0
   53.9320   28.8650   52.2950 O   0  0  0  0  0  0  0  0  0  0  0  0
   52.7600   30.9320   52.5040 C   0  0  0  0  0  0  0  0  0  0  0  0
   52.0780   31.1700   51.1930 C   0  0  0  0  0  0  0  0  0  0  0  0
   52.0330   30.2720   50.1930 N   0  0  0  0  0  0  0  0  0  0  0  0
   51.2140   30.8530   49.2890 C   0  0  0  0  0  0  0  0  0  0  0  0
   50.9230   30.3110   48.1920 O   0  0  0  0  0  0  0  0  0  0  0  0
   50.7220   32.0550   49.6600 N   0  0  0  0  0  0  0  0  0  0  0  0
   51.2710   32.2360   50.8710 C   0  0  0  0  0  0  0  0  0  0  0  0
   51.0260   33.3430   51.6730 O   0  0  0  0  0  0  0  0  0  0  0  0
   57.8350   32.9900   52.6540 C   0  0  0  0  0  0  0  0  0  0  0  0
   58.8010   33.7100   51.9500 C   0  0  0  0  0  0  0  0  0  0  0  0
   59.2410   33.2630   50.7010 C   0  0  0  0  0  0  0  0  0  0  0  0
   60.1950   33.9970   50.0060 O   0  0  0  0  0  0  0  0  0  0  0  0
   61.1082   31.2844   49.4945 H   0  0  0  0  0  0  0  0  0  0  0  0
   60.5880   30.4745   47.9778 H   0  0  0  0  0  0  0  0  0  0  0  0
   60.9502   32.2339   47.9778 H   0  0  0  0  0  0  0  0  0  0  0  0
   57.3457   30.4248   50.4435 H   0  0  0  0  0  0  0  0  0  0  0  0
   56.5794   30.1579   53.2850 H   0  0  0  0  0  0  0  0  0  0  0  0
   55.7902   31.7319   53.6271 H   0  0  0  0  0  0  0  0  0  0  0  0
   52.0846   30.3858   53.1789 H   0  0  0  0  0  0  0  0  0  0  0  0
   53.0276   31.8931   52.9673 H   0  0  0  0  0  0  0  0  0  0  0  0
   57.4797   33.3573   53.6281 H   0  0  0  0  0  0  0  0  0  0  0  0
   59.2178   34.6329   52.3797 H   0  0  0  0  0  0  0  0  0  0  0  0
  1  2  1  0
  2  3  1  0
  3  4  2  0
  4  5  1  0
  5  6  1  0
  6  7  1  0
  7  8  1  0
  8  9  2  0
  8 10  1  0
 10 11  1  0
 11 12  1  0
 12 13  1  0
 13 14  2  0
 13 15  1  0
 15 16  1  0
 16 17  1  0
  5 18  2  0
 18 19  1  0
 19 20  2  0
 20 21  1  0
 20  3  1  0
 16 11  2  0
  1 22  1  0
  1 23  1  0
  1 24  1  0
  4 25  1  0
  6 26  1  0
  6 27  1  0
 10 28  1  0
 10 29  1  0
 18 30  1  0
 19 31  1  0
M  CHG  4  12  -1  15  -1  17  -1  21  -1
M  END
>  <UniqueID>  (59) 
55

>  <SMILES>  (59) 
COc1cc(COC(=O)Cc2[n-]c(=O)[n-]c2[O-])ccc1[O-]

>  <Energy>  (59) 
55.054740176889645

>  <Genealogy>  (59) 
COc1cc(COC(=O)Cc2[n-]c(=O)[n-]c2[O-])ccc1[O-] (protonated)
COc1cc(COC(=O)Cc2[n-]c(=O)[n-]c2[O-])ccc1[O-] (3D coordinates assigned)
COc1cc(COC(=O)Cc2[n-]c(=O)[n-]c2[O-])ccc1[O-] (optimized conformer: 55.054740176889645 kcal/mol)

>  <smiles>  (59) 
COc1cc(COC(=O)Cc2[nH]c(=O)[nH]c2O)ccc1O

>  <score_type>  (59) 
oracle

>  <origin>  (59) 
adg

>  <m_score__min__energy>  (59) 
-15.35

>  <m_primary>  (59) 
energy

$$$$
59:0
     RDKit          3D

 65 69  0  0  0  0  0  0  0  0999 V2000
   58.4850   27.4310   47.6430 O   0  0  0  0  0  0  0  0  0  0  0  0
   59.1010   28.5120   47.4380 C   0  0  0  0  0  0  0  0  0  0  0  0
   60.2400   28.8390   48.2490 N   0  0  0  0  0  0  0  0  0  0  0  0
   60.4490   28.2690   49.5510 C   0  0  0  0  0  0  0  0  0  0  0  0
   60.9440   26.9590   49.6440 C   0  0  0  0  0  0  0  0  0  0  0  0
   61.1280   26.3590   50.8910 C   0  0  0  0  0  0  0  0  0  0  0  0
   60.8300   27.0630   52.0580 C   0  0  0  0  0  0  0  0  0  0  0  0
   60.3610   28.3770   51.9820 C   0  0  0  0  0  0  0  0  0  0  0  0
   60.1780   28.9980   50.7350 C   0  0  0  0  0  0  0  0  0  0  0  0
   59.7950   30.3820   50.6860 N   0  0  0  0  0  0  0  0  0  0  0  0
   60.4880   31.4210   51.4280 C   0  0  0  0  0  0  0  0  0  0  0  0
   59.7960   32.7190   51.0400 C   0  0  0  0  0  0  0  0  0  0  0  0
   58.4300   32.3130   50.4910 C   0  0  0  0  0  0  0  0  0  0  0  0
   58.5650   30.8530   50.0700 C   0  0  0  0  0  0  0  0  0  0  0  0
   58.6540   29.4160   46.3490 C   0  0  0  0  0  0  0  0  0  0  0  0
   58.4590   28.9360   45.0410 C   0  0  0  0  0  0  0  0  0  0  0  0
   58.0500   29.8000   44.0220 C   0  0  0  0  0  0  0  0  0  0  0  0
   57.8370   31.1530   44.2910 C   0  0  0  0  0  0  0  0  0  0  0  0
   58.0370   31.6520   45.5850 C   0  0  0  0  0  0  0  0  0  0  0  0
   57.7610   33.3550   45.9430 S   0  0  0  0  0  0  0  0  0  0  0  0
   57.2860   34.0390   44.6910 O   0  0  0  0  0  0  0  0  0  0  0  0
   56.6980   33.4950   46.9980 O   0  0  0  0  0  0  0  0  0  0  0  0
   59.2480   34.0870   46.4970 N   0  0  0  0  0  0  0  0  0  0  0  0
   60.4300   33.3360   45.9990 C   0  0  0  0  0  0  0  0  0  0  0  0
   61.2030   32.5990   47.1010 C   0  0  0  0  0  0  0  0  0  0  0  0
   61.5360   33.5240   48.1910 N   0  0  0  0  0  0  0  0  0  0  0  0
   62.7330   33.3390   48.9780 C   0  0  0  0  0  0  0  0  0  0  0  0
   62.9490   34.1020   50.1430 C   0  0  0  0  0  0  0  0  0  0  0  0
   64.1070   33.9220   50.9060 C   0  0  0  0  0  0  0  0  0  0  0  0
   65.0610   32.9770   50.5190 C   0  0  0  0  0  0  0  0  0  0  0  0
   64.8580   32.2110   49.3690 C   0  0  0  0  0  0  0  0  0  0  0  0
   63.7020   32.3870   48.6030 C   0  0  0  0  0  0  0  0  0  0  0  0
   60.5780   34.5820   48.5390 C   0  0  0  0  0  0  0  0  0  0  0  0
   59.1960   34.2630   47.9620 C   0  0  0  0  0  0  0  0  0  0  0  0
   58.4440   30.7850   46.6080 C   0  0  0  0  0  0  0  0  0  0  0  0
   61.0330   29.3560   47.8070 H   0  0  0  0  0  0  0  0  0  0  0  0
   61.1887   26.4012   48.7280 H   0  0  0  0  0  0  0  0  0  0  0  0
   61.5088   25.3289   50.9536 H   0  0  0  0  0  0  0  0  0  0  0  0
   60.9644   26.5833   53.0387 H   0  0  0  0  0  0  0  0  0  0  0  0
   60.1333   28.9295   52.9055 H   0  0  0  0  0  0  0  0  0  0  0  0
   60.4000   31.2458   52.5104 H   0  0  0  0  0  0  0  0  0  0  0  0
   61.5631   31.4436   51.1962 H   0  0  0  0  0  0  0  0  0  0  0  0
   59.6778   33.3682   51.9201 H   0  0  0  0  0  0  0  0  0  0  0  0
   60.3797   33.2833   50.2978 H   0  0  0  0  0  0  0  0  0  0  0  0
   57.6589   32.4171   51.2686 H   0  0  0  0  0  0  0  0  0  0  0  0
   58.1287   32.9503   49.6466 H   0  0  0  0  0  0  0  0  0  0  0  0
   57.7061   30.2681   50.4308 H   0  0  0  0  0  0  0  0  0  0  0  0
   58.5899   30.7450   48.9756 H   0  0  0  0  0  0  0  0  0  0  0  0
   58.6299   27.8723   44.8189 H   0  0  0  0  0  0  0  0  0  0  0  0
   57.8953   29.4126   43.0042 H   0  0  0  0  0  0  0  0  0  0  0  0
   57.5117   31.8285   43.4861 H   0  0  0  0  0  0  0  0  0  0  0  0
   60.0855   32.5955   45.2621 H   0  0  0  0  0  0  0  0  0  0  0  0
   61.1188   34.0742   45.5625 H   0  0  0  0  0  0  0  0  0  0  0  0
   60.5824   31.7809   47.4954 H   0  0  0  0  0  0  0  0  0  0  0  0
   62.1335   32.1933   46.6772 H   0  0  0  0  0  0  0  0  0  0  0  0
   62.2005   34.8453   50.4547 H   0  0  0  0  0  0  0  0  0  0  0  0
   64.2672   34.5250   51.8119 H   0  0  0  0  0  0  0  0  0  0  0  0
   65.9715   32.8365   51.1200 H   0  0  0  0  0  0  0  0  0  0  0  0
   65.6096   31.4674   49.0653 H   0  0  0  0  0  0  0  0  0  0  0  0
   63.5475   31.7776   47.7004 H   0  0  0  0  0  0  0  0  0  0  0  0
   60.5046   34.6584   49.6339 H   0  0  0  0  0  0  0  0  0  0  0  0
   60.9297   35.5345   48.1158 H   0  0  0  0  0  0  0  0  0  0  0  0
   58.8229   33.3352   48.4203 H   0  0  0  0  0  0  0  0  0  0  0  0
   58.5263   35.1069   48.1844 H   0  0  0  0  0  0  0  0  0  0  0  0
   58.6011   31.1772   47.6236 H   0  0  0  0  0  0  0  0  0  0  0  0
  1  2  2  0
  2  3  1  0
  3  4  1  0
  4  5  2  0
  5  6  1  0
  6  7  2  0
  7  8  1  0
  8  9  2  0
  9 10  1  0
 10 11  1  0
 11 12  1  0
 12 13  1  0
 13 14  1  0
  2 15  1  0
 15 16  2  0
 16 17  1  0
 17 18  2  0
 18 19  1  0
 19 20  1  0
 20 21  2  0
 20 22  2  0
 20 23  1  0
 23 24  1  0
 24 25  1  0
 25 26  1  0
 26 27  1  0
 27 28  2  0
 28 29  1  0
 29 30  2  0
 30 31  1  0
 31 32  2  0
 26 33  1  0
 33 34  1  0
 19 35  2  0
  9  4  1  0
 14 10  1  0
 35 15  1  0
 34 23  1  0
 32 27  1  0
  3 36  1  0
  5 37  1  0
  6 38  1  0
  7 39  1  0
  8 40  1  0
 11 41  1  0
 11 42  1  0
 12 43  1  0
 12 44  1  0
 13 45  1  0
 13 46  1  0
 14 47  1  0
 14 48  1  0
 16 49  1  0
 17 50  1  0
 18 51  1  0
 24 52  1  0
 24 53  1  0
 25 54  1  0
 25 55  1  0
 28 56  1  0
 29 57  1  0
 30 58  1  0
 31 59  1  0
 32 60  1  0
 33 61  1  0
 33 62  1  0
 34 63  1  0
 34 64  1  0
 35 65  1  0
M  END
>  <UniqueID>  (60) 
56

>  <SMILES>  (60) 
O=C(Nc1ccccc1N1CCCC1)c1cccc(S(=O)(=O)N2CCN(c3ccccc3)CC2)c1

>  <Energy>  (60) 
88.53255715927313

>  <Genealogy>  (60) 
O=C(Nc1ccccc1N1CCCC1)c1cccc(S(=O)(=O)N2CCN(c3ccccc3)CC2)c1 (3D coordinates assigned)
O=C(Nc1ccccc1N1CCCC1)c1cccc(S(=O)(=O)N2CCN(c3ccccc3)CC2)c1 (nonaromatic ring conformer: 88.53255715927313 kcal/mol)

>  <smiles>  (60) 
O=C(Nc1ccccc1N1CCCC1)c1cccc(S(=O)(=O)N2CCN(c3ccccc3)CC2)c1

>  <score_type>  (60) 
oracle

>  <origin>  (60) 
adg

>  <m_score__min__energy>  (60) 
-10.58

>  <m_primary>  (60) 
energy

$$$$
60:0
     RDKit          3D

 46 47  0  0  0  0  0  0  0  0999 V2000
   56.2860   29.3300   42.3610 C   0  0  0  0  0  0  0  0  0  0  0  0
   56.6000   30.5500   43.0200 O   0  0  0  0  0  0  0  0  0  0  0  0
   57.5580   30.6330   44.0350 C   0  0  0  0  0  0  0  0  0  0  0  0
   58.2700   31.6650   44.1510 O   0  0  0  0  0  0  0  0  0  0  0  0
   57.7330   29.4910   44.9530 C   0  0  0  0  0  0  0  0  0  0  0  0
   56.7970   28.5350   45.1020 N   0  0  0  0  0  0  0  0  0  0  0  0
   57.2580   27.6490   46.0060 C   0  0  0  0  0  0  0  0  0  0  0  0
   56.5270   26.4210   46.3700 C   0  0  0  0  0  0  0  0  0  0  0  0
   57.1090   25.5310   47.0490 O   0  0  0  0  0  0  0  0  0  0  0  0
   55.1900   26.2580   45.9960 O   0  0  0  0  0  0  0  0  0  0  0  0
   54.6450   25.0000   45.6230 C   0  0  0  0  0  0  0  0  0  0  0  0
   58.5110   28.0470   46.4590 C   0  0  0  0  0  0  0  0  0  0  0  0
   59.3300   27.4020   47.5050 C   0  0  0  0  0  0  0  0  0  0  0  0
   59.6770   28.1200   48.7700 C   0  0  0  0  0  0  0  0  0  0  0  0
   59.7830   26.2420   47.3130 O   0  0  0  0  0  0  0  0  0  0  0  0
   58.8240   29.2200   45.7790 C   0  0  0  0  0  0  0  0  0  0  0  0
   60.0240   30.1030   46.0280 C   0  0  0  0  0  0  0  0  0  0  0  0
   59.6420   31.3300   46.8200 C   0  0  0  0  0  0  0  0  0  0  0  0
   59.1390   31.2020   48.1250 C   0  0  0  0  0  0  0  0  0  0  0  0
   58.8020   32.3370   48.8750 C   0  0  0  0  0  0  0  0  0  0  0  0
   58.2280   32.1860   50.2530 C   0  0  0  0  0  0  0  0  0  0  0  0
   58.9430   33.6100   48.3040 C   0  0  0  0  0  0  0  0  0  0  0  0
   59.4410   33.7520   47.0010 C   0  0  0  0  0  0  0  0  0  0  0  0
   59.6420   35.1190   46.4150 C   0  0  0  0  0  0  0  0  0  0  0  0
   59.8130   32.6120   46.2740 C   0  0  0  0  0  0  0  0  0  0  0  0
   56.0852   28.5498   43.1100 H   0  0  0  0  0  0  0  0  0  0  0  0
   55.3951   29.4720   41.7316 H   0  0  0  0  0  0  0  0  0  0  0  0
   57.1347   29.0243   41.7316 H   0  0  0  0  0  0  0  0  0  0  0  0
   55.8860   28.4770   44.5940 H   0  0  0  0  0  0  0  0  0  0  0  0
   54.3961   24.4255   46.5275 H   0  0  0  0  0  0  0  0  0  0  0  0
   53.7343   25.1573   45.0264 H   0  0  0  0  0  0  0  0  0  0  0  0
   55.3826   24.4432   45.0264 H   0  0  0  0  0  0  0  0  0  0  0  0
   59.3803   27.5061   49.6332 H   0  0  0  0  0  0  0  0  0  0  0  0
   60.7616   28.3002   48.8037 H   0  0  0  0  0  0  0  0  0  0  0  0
   59.1443   29.0818   48.8037 H   0  0  0  0  0  0  0  0  0  0  0  0
   60.7786   29.5333   46.5902 H   0  0  0  0  0  0  0  0  0  0  0  0
   60.4271   30.4260   45.0568 H   0  0  0  0  0  0  0  0  0  0  0  0
   59.0083   30.2013   48.5627 H   0  0  0  0  0  0  0  0  0  0  0  0
   59.0089   32.3914   51.0000 H   0  0  0  0  0  0  0  0  0  0  0  0
   57.3986   32.8965   50.3846 H   0  0  0  0  0  0  0  0  0  0  0  0
   57.8556   31.1593   50.3846 H   0  0  0  0  0  0  0  0  0  0  0  0
   58.6612   34.5026   48.8818 H   0  0  0  0  0  0  0  0  0  0  0  0
   59.7500   35.8536   47.2266 H   0  0  0  0  0  0  0  0  0  0  0  0
   60.5502   35.1220   45.7944 H   0  0  0  0  0  0  0  0  0  0  0  0
   58.7731   35.3833   45.7944 H   0  0  0  0  0  0  0  0  0  0  0  0
   60.2424   32.7232   45.2674 H   0  0  0  0  0  0  0  0  0  0  0  0
  1  2  1  0
  2  3  1  0
  3  4  2  0
  3  5  1  0
  5  6  1  0
  6  7  1  0
  7  8  1  0
  8  9  2  0
  8 10  1  0
 10 11  1  0
  7 12  2  0
 12 13  1  0
 13 14  1  0
 13 15  2  0
 12 16  1  0
 16 17  1  0
 17 18  1  0
 18 19  2  0
 19 20  1  0
 20 21  1  0
 20 22  2  0
 22 23  1  0
 23 24  1  0
 23 25  2  0
 16  5  2  0
 25 18  1  0
  1 26  1  0
  1 27  1  0
  1 28  1  0
  6 29  1  0
 11 30  1  0
 11 31  1  0
 11 32  1  0
 14 33  1  0
 14 34  1  0
 14 35  1  0
 17 36  1  0
 17 37  1  0
 19 38  1  0
 21 39  1  0
 21 40  1  0
 21 41  1  0
 22 42  1  0
 24 43  1  0
 24 44  1  0
 24 45  1  0
 25 46  1  0
M  END
>  <UniqueID>  (61) 
57

>  <SMILES>  (61) 
COC(=O)c1[nH]c(C(=O)OC)c(C(C)=O)c1Cc1cc(C)cc(C)c1

>  <Energy>  (61) 
68.73378651671241

>  <Genealogy>  (61) 
COC(=O)c1[nH]c(C(=O)OC)c(C(C)=O)c1Cc1cc(C)cc(C)c1 (3D coordinates assigned)
COC(=O)c1[nH]c(C(=O)OC)c(C(C)=O)c1Cc1cc(C)cc(C)c1 (optimized conformer: 68.73378651671241 kcal/mol)

>  <smiles>  (61) 
COC(=O)c1[nH]c(C(=O)OC)c(C(C)=O)c1Cc1cc(C)cc(C)c1

>  <score_type>  (61) 
oracle

>  <origin>  (61) 
adg

>  <m_score__min__energy>  (61) 
-8.4100000000000001

>  <m_primary>  (61) 
energy

$$$$
61:0
     RDKit          3D

 45 48  0  0  0  0  0  0  0  0999 V2000
   59.2070   29.4650   48.3090 C   0  0  0  0  0  0  0  0  0  0  0  0
   59.0280   29.5920   49.7470 N   0  0  0  0  0  0  0  0  0  0  0  0
   59.7780   29.0120   50.7020 C   0  0  0  0  0  0  0  0  0  0  0  0
   59.1860   29.3370   51.9050 C   0  0  0  0  0  0  0  0  0  0  0  0
   59.6220   28.9010   53.2710 C   0  0  0  0  0  0  0  0  0  0  0  0
   58.4910   28.9670   54.2170 N   0  0  0  0  0  0  0  0  0  0  0  0
   57.4220   27.9840   53.8830 C   0  0  0  0  0  0  0  0  0  0  0  0
   56.2250   28.6270   53.1690 C   0  0  0  0  0  0  0  0  0  0  0  0
   55.5650   29.7170   54.0600 C   0  0  0  0  0  0  0  0  0  0  0  0
   56.6100   30.4220   54.9730 C   0  0  0  0  0  0  0  0  0  0  0  0
   58.0110   30.3640   54.3540 C   0  0  0  0  0  0  0  0  0  0  0  0
   54.3950   29.1280   54.8960 C   0  0  0  0  0  0  0  0  0  0  0  0
   53.0970   29.4740   54.1490 C   0  0  0  0  0  0  0  0  0  0  0  0
   53.4360   30.5620   53.2470 N   0  0  0  0  0  0  0  0  0  0  0  0
   52.4690   31.2800   52.4590 C   0  0  0  0  0  0  0  0  0  0  0  0
   51.3200   31.8800   52.9430 C   0  0  0  0  0  0  0  0  0  0  0  0
   50.6450   32.4810   51.9440 N   0  0  0  0  0  0  0  0  0  0  0  0
   51.3800   32.2590   50.8370 C   0  0  0  0  0  0  0  0  0  0  0  0
   51.0210   32.7260   49.5790 O   0  0  0  0  0  0  0  0  0  0  0  0
   52.5160   31.5240   51.1010 C   0  0  0  0  0  0  0  0  0  0  0  0
   54.8480   30.6960   53.1900 C   0  0  0  0  0  0  0  0  0  0  0  0
   55.4360   31.5230   52.4420 O   0  0  0  0  0  0  0  0  0  0  0  0
   58.0970   30.0820   51.6370 N   0  0  0  0  0  0  0  0  0  0  0  0
   58.0130   30.2190   50.3240 N   0  0  0  0  0  0  0  0  0  0  0  0
   60.0883   28.8398   48.1030 H   0  0  0  0  0  0  0  0  0  0  0  0
   58.3143   28.9971   47.8683 H   0  0  0  0  0  0  0  0  0  0  0  0
   59.3538   30.4621   47.8683 H   0  0  0  0  0  0  0  0  0  0  0  0
   60.6811   28.4018   50.5534 H   0  0  0  0  0  0  0  0  0  0  0  0
   59.9924   27.8665   53.2203 H   0  0  0  0  0  0  0  0  0  0  0  0
   60.4205   29.5713   53.6218 H   0  0  0  0  0  0  0  0  0  0  0  0
   57.8482   27.2104   53.2274 H   0  0  0  0  0  0  0  0  0  0  0  0
   57.0546   27.5598   54.8291 H   0  0  0  0  0  0  0  0  0  0  0  0
   56.5704   29.0887   52.2322 H   0  0  0  0  0  0  0  0  0  0  0  0
   55.4795   27.8453   52.9612 H   0  0  0  0  0  0  0  0  0  0  0  0
   56.3191   31.4745   55.1059 H   0  0  0  0  0  0  0  0  0  0  0  0
   56.6343   29.9026   55.9423 H   0  0  0  0  0  0  0  0  0  0  0  0
   57.9807   30.8302   53.3581 H   0  0  0  0  0  0  0  0  0  0  0  0
   58.7030   30.9015   55.0189 H   0  0  0  0  0  0  0  0  0  0  0  0
   54.5030   28.0367   54.9821 H   0  0  0  0  0  0  0  0  0  0  0  0
   54.3879   29.5455   55.9137 H   0  0  0  0  0  0  0  0  0  0  0  0
   52.7386   28.6031   53.5807 H   0  0  0  0  0  0  0  0  0  0  0  0
   52.2942   29.7604   54.8444 H   0  0  0  0  0  0  0  0  0  0  0  0
   51.0022   31.8680   53.9960 H   0  0  0  0  0  0  0  0  0  0  0  0
   53.2890   31.2029   50.3874 H   0  0  0  0  0  0  0  0  0  0  0  0
   57.4160   30.4760   52.3230 H   0  0  0  0  0  0  0  0  0  0  0  0
  1  2  1  0
  2  3  1  0
  3  4  2  0
  4  5  1  0
  5  6  1  0
  6  7  1  0
  7  8  1  0
  8  9  1  0
  9 10  1  0
 10 11  1  0
  9 12  1  0
 12 13  1  0
 13 14  1  0
 14 15  1  0
 15 16  2  0
 16 17  1  0
 17 18  1  0
 18 19  1  0
 18 20  2  0
 14 21  1  0
 21 22  2  0
  4 23  1  0
 23 24  2  0
 24  2  1  0
 11  6  1  0
 20 15  1  0
 21  9  1  0
  1 25  1  0
  1 26  1  0
  1 27  1  0
  3 28  1  0
  5 29  1  0
  5 30  1  0
  7 31  1  0
  7 32  1  0
  8 33  1  0
  8 34  1  0
 10 35  1  0
 10 36  1  0
 11 37  1  0
 11 38  1  0
 12 39  1  0
 12 40  1  0
 13 41  1  0
 13 42  1  0
 16 43  1  0
 20 44  1  0
 23 45  1  0
M  CHG  3  17  -1  19  -1  23   1
M  END
>  <UniqueID>  (62) 
58

>  <SMILES>  (62) 
Cn1cc(CN2CCC3(CC2)CCN(c2c[n-]c([O-])c2)C3=O)[nH+]n1

>  <Energy>  (62) 
126.25673808845707

>  <Genealogy>  (62) 
Cn1cc(CN2CCC3(CC2)CCN(c2c[n-]c([O-])c2)C3=O)[nH+]n1 (protonated)
Cn1cc(CN2CCC3(CC2)CCN(c2c[n-]c([O-])c2)C3=O)[nH+]n1 (3D coordinates assigned)
Cn1cc(CN2CCC3(CC2)CCN(c2c[n-]c([O-])c2)C3=O)[nH+]n1 (nonaromatic ring conformer: 126.25673808845707 kcal/mol)

>  <smiles>  (62) 
Cn1cc(CN2CCC3(CC2)CCN(c2c[nH]c(O)c2)C3=O)nn1

>  <score_type>  (62) 
oracle

>  <origin>  (62) 
adg

>  <m_score__min__energy>  (62) 
-12.19

>  <m_primary>  (62) 
energy

$$$$
62:0
     RDKit          3D

 70 72  0  0  0  0  0  0  0  0999 V2000
   63.0130   31.6960   47.4630 C   0  0  0  0  0  0  0  0  0  0  0  0
   63.5120   31.5900   48.9000 C   0  0  0  0  0  0  0  0  0  0  0  0
   62.4580   31.9580   49.8560 N   0  0  0  0  0  0  0  0  0  0  0  0
   62.3190   33.3490   50.3180 C   0  0  0  0  0  0  0  0  0  0  0  0
   62.3190   34.3540   49.1580 C   0  0  0  0  0  0  0  0  0  0  0  0
   60.9080   34.5920   48.6010 C   0  0  0  0  0  0  0  0  0  0  0  0
   60.1320   33.3500   48.6230 N   0  0  0  0  0  0  0  0  0  0  0  0
   59.3030   32.8130   47.5660 C   0  0  0  0  0  0  0  0  0  0  0  0
   58.8080   31.5090   47.7370 C   0  0  0  0  0  0  0  0  0  0  0  0
   58.1080   30.8640   46.7200 C   0  0  0  0  0  0  0  0  0  0  0  0
   57.8910   31.5070   45.5010 C   0  0  0  0  0  0  0  0  0  0  0  0
   57.2150   30.6100   44.1450 S   0  0  0  0  0  0  0  0  0  0  0  0
   55.8490   30.0850   44.4890 O   0  0  0  0  0  0  0  0  0  0  0  0
   57.1000   31.5040   42.9420 O   0  0  0  0  0  0  0  0  0  0  0  0
   58.2810   29.2950   43.7950 N   0  0  0  0  0  0  0  0  0  0  0  0
   58.4580   28.2880   44.7890 C   0  0  0  0  0  0  0  0  0  0  0  0
   59.7400   27.9730   45.2490 C   0  0  0  0  0  0  0  0  0  0  0  0
   59.9200   26.9240   46.1510 C   0  0  0  0  0  0  0  0  0  0  0  0
   58.8250   26.1620   46.5710 C   0  0  0  0  0  0  0  0  0  0  0  0
   57.5290   26.4470   46.0990 C   0  0  0  0  0  0  0  0  0  0  0  0
   56.3840   25.5860   46.4980 C   0  0  0  0  0  0  0  0  0  0  0  0
   56.5890   24.2560   47.1610 C   0  0  0  0  0  0  0  0  0  0  0  0
   55.2040   25.9720   46.2760 O   0  0  0  0  0  0  0  0  0  0  0  0
   57.3560   27.5350   45.2220 C   0  0  0  0  0  0  0  0  0  0  0  0
   58.3600   32.8110   45.3150 C   0  0  0  0  0  0  0  0  0  0  0  0
   59.0660   33.4810   46.3360 C   0  0  0  0  0  0  0  0  0  0  0  0
   59.5550   34.7790   46.1300 O   0  0  0  0  0  0  0  0  0  0  0  0
   59.2820   35.5900   44.9910 C   0  0  0  0  0  0  0  0  0  0  0  0
   61.3650   31.0400   50.0600 C   0  0  0  0  0  0  0  0  0  0  0  0
   61.4590   29.7030   49.6410 C   0  0  0  0  0  0  0  0  0  0  0  0
   60.3780   28.8480   49.8700 C   0  0  0  0  0  0  0  0  0  0  0  0
   60.4180   27.4320   49.3910 C   0  0  0  0  0  0  0  0  0  0  0  0
   59.2580   29.3290   50.4700 N   0  0  0  0  0  0  0  0  0  0  0  0
   59.1810   30.6240   50.8750 C   0  0  0  0  0  0  0  0  0  0  0  0
   57.6880   31.2290   51.6510 S   0  0  0  0  0  0  0  0  0  0  0  0
   58.3710   32.8940   51.9170 C   0  0  0  0  0  0  0  0  0  0  0  0
   60.2310   31.4630   50.6770 N   0  0  0  0  0  0  0  0  0  0  0  0
   61.9370   31.9246   47.4644 H   0  0  0  0  0  0  0  0  0  0  0  0
   63.5576   32.4985   46.9440 H   0  0  0  0  0  0  0  0  0  0  0  0
   63.1844   30.7414   46.9440 H   0  0  0  0  0  0  0  0  0  0  0  0
   63.8279   30.5545   49.0949 H   0  0  0  0  0  0  0  0  0  0  0  0
   64.3565   32.2831   49.0280 H   0  0  0  0  0  0  0  0  0  0  0  0
   61.3716   33.4452   50.8687 H   0  0  0  0  0  0  0  0  0  0  0  0
   63.1832   33.5772   50.9592 H   0  0  0  0  0  0  0  0  0  0  0  0
   62.7246   35.3111   49.5177 H   0  0  0  0  0  0  0  0  0  0  0  0
   62.9372   33.9379   48.3489 H   0  0  0  0  0  0  0  0  0  0  0  0
   60.3986   35.3482   49.2164 H   0  0  0  0  0  0  0  0  0  0  0  0
   60.9901   34.9420   47.5614 H   0  0  0  0  0  0  0  0  0  0  0  0
   60.1140   32.8540   49.5430 H   0  0  0  0  0  0  0  0  0  0  0  0
   58.9763   30.9882   48.6912 H   0  0  0  0  0  0  0  0  0  0  0  0
   57.7253   29.8450   46.8784 H   0  0  0  0  0  0  0  0  0  0  0  0
   59.0660   29.4790   43.1300 H   0  0  0  0  0  0  0  0  0  0  0  0
   60.6072   28.5525   44.8996 H   0  0  0  0  0  0  0  0  0  0  0  0
   60.9260   26.6956   46.5329 H   0  0  0  0  0  0  0  0  0  0  0  0
   58.9774   25.3321   47.2767 H   0  0  0  0  0  0  0  0  0  0  0  0
   56.5693   24.3839   48.2534 H   0  0  0  0  0  0  0  0  0  0  0  0
   55.7864   23.5676   46.8579 H   0  0  0  0  0  0  0  0  0  0  0  0
   57.5617   23.8412   46.8579 H   0  0  0  0  0  0  0  0  0  0  0  0
   56.3465   27.7974   44.8727 H   0  0  0  0  0  0  0  0  0  0  0  0
   58.1757   33.3219   44.3584 H   0  0  0  0  0  0  0  0  0  0  0  0
   58.9472   36.5846   45.3208 H   0  0  0  0  0  0  0  0  0  0  0  0
   60.1952   35.6924   44.3864 H   0  0  0  0  0  0  0  0  0  0  0  0
   58.4928   35.1193   44.3864 H   0  0  0  0  0  0  0  0  0  0  0  0
   62.3675   29.3354   49.1414 H   0  0  0  0  0  0  0  0  0  0  0  0
   60.4372   26.7527   50.2560 H   0  0  0  0  0  0  0  0  0  0  0  0
   59.5253   27.2255   48.7823 H   0  0  0  0  0  0  0  0  0  0  0  0
   61.3209   27.2762   48.7823 H   0  0  0  0  0  0  0  0  0  0  0  0
   58.4511   33.0893   52.9966 H   0  0  0  0  0  0  0  0  0  0  0  0
   59.3684   32.9589   51.4576 H   0  0  0  0  0  0  0  0  0  0  0  0
   57.7065   33.6406   51.4576 H   0  0  0  0  0  0  0  0  0  0  0  0
  1  2  1  0
  2  3  1  0
  3  4  1  0
  4  5  1  0
  5  6  1  0
  6  7  1  0
  7  8  1  0
  8  9  2  0
  9 10  1  0
 10 11  2  0
 11 12  1  0
 12 13  2  0
 12 14  2  0
 12 15  1  0
 15 16  1  0
 16 17  2  0
 17 18  1  0
 18 19  2  0
 19 20  1  0
 20 21  1  0
 21 22  1  0
 21 23  2  0
 20 24  2  0
 11 25  1  0
 25 26  2  0
 26 27  1  0
 27 28  1  0
  3 29  1  0
 29 30  2  0
 30 31  1  0
 31 32  1  0
 31 33  2  0
 33 34  1  0
 34 35  1  0
 35 36  1  0
 34 37  2  0
 26  8  1  0
 37 29  1  0
 24 16  1  0
  1 38  1  0
  1 39  1  0
  1 40  1  0
  2 41  1  0
  2 42  1  0
  4 43  1  0
  4 44  1  0
  5 45  1  0
  5 46  1  0
  6 47  1  0
  6 48  1  0
  7 49  1  0
  9 50  1  0
 10 51  1  0
 15 52  1  0
 17 53  1  0
 18 54  1  0
 19 55  1  0
 22 56  1  0
 22 57  1  0
 22 58  1  0
 24 59  1  0
 25 60  1  0
 28 61  1  0
 28 62  1  0
 28 63  1  0
 30 64  1  0
 32 65  1  0
 32 66  1  0
 32 67  1  0
 36 68  1  0
 36 69  1  0
 36 70  1  0
M  END
>  <UniqueID>  (63) 
59

>  <SMILES>  (63) 
CCN(CCCNc1ccc(S(=O)(=O)Nc2cccc(C(C)=O)c2)cc1OC)c1cc(C)nc(SC)n1

>  <Energy>  (63) 
70.86892406495014

>  <Genealogy>  (63) 
CCN(CCCNc1ccc(S(=O)(=O)Nc2cccc(C(C)=O)c2)cc1OC)c1cc(C)nc(SC)n1 (3D coordinates assigned)
CCN(CCCNc1ccc(S(=O)(=O)Nc2cccc(C(C)=O)c2)cc1OC)c1cc(C)nc(SC)n1 (optimized conformer: 70.86892406495014 kcal/mol)

>  <smiles>  (63) 
CCN(CCCNc1ccc(S(=O)(=O)Nc2cccc(C(C)=O)c2)cc1OC)c1cc(C)nc(SC)n1

>  <score_type>  (63) 
oracle

>  <origin>  (63) 
adg

>  <m_score__min__energy>  (63) 
-10.02

>  <m_primary>  (63) 
energy

$$$$
63:0
     RDKit          3D

 42 43  0  0  0  0  0  0  0  0999 V2000
   63.4830   33.4920   46.8040 C   0  0  0  0  0  0  0  0  0  0  0  0
   62.2020   32.8110   47.2710 C   0  0  0  0  0  0  0  0  0  0  0  0
   61.1680   33.8290   47.6390 C   0  0  0  0  0  0  0  0  0  0  0  0
   61.1290   34.2860   48.8140 O   0  0  0  0  0  0  0  0  0  0  0  0
   60.2640   34.3130   46.6410 N   0  0  0  0  0  0  0  0  0  0  0  0
   58.8830   34.6930   46.9170 C   0  0  0  0  0  0  0  0  0  0  0  0
   57.9030   33.7780   46.1640 C   0  0  1  0  0  0  0  0  0  0  0  0
   58.0740   33.8640   44.6440 C   0  0  0  0  0  0  0  0  0  0  0  0
   57.7310   32.4760   44.1180 C   0  0  0  0  0  0  0  0  0  0  0  0
   57.8550   31.5830   45.2580 N   0  0  0  0  0  0  0  0  0  0  0  0
   57.7600   30.1500   45.1400 C   0  0  0  0  0  0  0  0  0  0  0  0
   57.8520   29.5120   43.8900 C   0  0  0  0  0  0  0  0  0  0  0  0
   57.7550   28.1210   43.8190 C   0  0  0  0  0  0  0  0  0  0  0  0
   57.5730   27.3670   44.9850 C   0  0  0  0  0  0  0  0  0  0  0  0
   57.4310   25.8730   44.9160 C   0  0  0  0  0  0  0  0  0  0  0  0
   56.2070   25.3080   46.0850 S   0  0  0  0  0  0  0  0  0  0  0  0
   54.8140   26.3260   45.9920 N   0  0  0  0  0  0  0  0  0  0  0  0
   56.7690   25.3600   47.4780 O   0  0  0  0  0  0  0  0  0  0  0  0
   55.8100   23.8950   45.7610 O   0  0  0  0  0  0  0  0  0  0  0  0
   57.4720   28.0400   46.2100 C   0  0  0  0  0  0  0  0  0  0  0  0
   57.5700   29.3950   46.2570 N   0  0  0  0  0  0  0  0  0  0  0  0
   58.0820   32.2960   46.5050 C   0  0  0  0  0  0  0  0  0  0  0  0
   64.0718   33.8050   47.6789 H   0  0  0  0  0  0  0  0  0  0  0  0
   64.0725   32.7882   46.1980 H   0  0  0  0  0  0  0  0  0  0  0  0
   63.2293   34.3743   46.1980 H   0  0  0  0  0  0  0  0  0  0  0  0
   61.8131   32.1775   46.4602 H   0  0  0  0  0  0  0  0  0  0  0  0
   62.4283   32.1992   48.1567 H   0  0  0  0  0  0  0  0  0  0  0  0
   58.6955   34.6102   47.9977 H   0  0  0  0  0  0  0  0  0  0  0  0
   58.7284   35.7284   46.5793 H   0  0  0  0  0  0  0  0  0  0  0  0
   56.9145   34.1396   46.4834 H   0  0  0  0  0  0  0  0  0  0  0  0
   57.3902   34.6151   44.2219 H   0  0  0  0  0  0  0  0  0  0  0  0
   59.0938   34.1666   44.3640 H   0  0  0  0  0  0  0  0  0  0  0  0
   56.7034   32.4573   43.7259 H   0  0  0  0  0  0  0  0  0  0  0  0
   58.3958   32.1779   43.2939 H   0  0  0  0  0  0  0  0  0  0  0  0
   57.9993   30.1045   42.9750 H   0  0  0  0  0  0  0  0  0  0  0  0
   57.8217   27.6158   42.8442 H   0  0  0  0  0  0  0  0  0  0  0  0
   57.1218   25.5851   43.9004 H   0  0  0  0  0  0  0  0  0  0  0  0
   58.3986   25.4115   45.1625 H   0  0  0  0  0  0  0  0  0  0  0  0
   55.1470   27.3100   46.1030 H   0  0  0  0  0  0  0  0  0  0  0  0
   57.3128   27.4697   47.1370 H   0  0  0  0  0  0  0  0  0  0  0  0
   57.3502   31.9848   47.2650 H   0  0  0  0  0  0  0  0  0  0  0  0
   59.0799   32.0890   46.9190 H   0  0  0  0  0  0  0  0  0  0  0  0
  1  2  1  0
  2  3  1  0
  3  4  2  0
  3  5  1  0
  5  6  1  0
  6  7  1  0
  7  8  1  0
  8  9  1  0
  9 10  1  0
 10 11  1  0
 11 12  2  0
 12 13  1  0
 13 14  2  0
 14 15  1  0
 15 16  1  0
 16 17  1  0
 16 18  2  0
 16 19  2  0
 14 20  1  0
 20 21  2  0
 10 22  1  0
 22  7  1  0
 21 11  1  0
  1 23  1  0
  1 24  1  0
  1 25  1  0
  2 26  1  0
  2 27  1  0
  6 28  1  0
  6 29  1  0
  7 30  1  6
  8 31  1  0
  8 32  1  0
  9 33  1  0
  9 34  1  0
 12 35  1  0
 13 36  1  0
 15 37  1  0
 15 38  1  0
 17 39  1  0
 20 40  1  0
 22 41  1  0
 22 42  1  0
M  CHG  2   5  -1  17  -1
M  END
>  <UniqueID>  (64) 
60

>  <SMILES>  (64) 
CCC(=O)[N-]C[C@H]1CCN(c2ccc(CS([NH-])(=O)=O)cn2)C1

>  <Energy>  (64) 
28.902319452541647

>  <Genealogy>  (64) 
CCC(=O)[N-]CC1CCN(c2ccc(CS([NH-])(=O)=O)cn2)C1 (protonated)
CCC(=O)[N-]C[C@H]1CCN(c2ccc(CS([NH-])(=O)=O)cn2)C1 (chirality)
CCC(=O)[N-]C[C@H]1CCN(c2ccc(CS([NH-])(=O)=O)cn2)C1 (3D coordinates assigned)
CCC(=O)[N-]C[C@H]1CCN(c2ccc(CS([NH-])(=O)=O)cn2)C1 (nonaromatic ring conformer: 28.902319452541647 kcal/mol)

>  <smiles>  (64) 
CCC(=O)NCC1CCN(c2ccc(CS(N)(=O)=O)cn2)C1

>  <score_type>  (64) 
oracle

>  <origin>  (64) 
adg

>  <m_score__min__energy>  (64) 
-11.619999999999999

>  <m_primary>  (64) 
energy

$$$$
64:0
     RDKit          3D

 48 51  0  0  0  0  0  0  0  0999 V2000
   57.3429   33.3091   45.4247 H   0  0  0  0  0  0  0  0  0  0  0  0
   58.1900   33.5410   46.0870 C   0  0  0  0  0  0  0  0  0  0  0  0
   58.1680   33.1250   47.4200 C   0  0  0  0  0  0  0  0  0  0  0  0
   57.3023   32.5677   47.8073 H   0  0  0  0  0  0  0  0  0  0  0  0
   59.2450   33.4160   48.2630 C   0  0  0  0  0  0  0  0  0  0  0  0
   59.2225   33.0891   49.3130 H   0  0  0  0  0  0  0  0  0  0  0  0
   60.3570   34.1250   47.7740 C   0  0  0  0  0  0  0  0  0  0  0  0
   61.5220   34.4270   48.6820 C   0  0  0  0  0  0  0  0  0  0  0  0
   61.2519   34.1500   49.7117 H   0  0  0  0  0  0  0  0  0  0  0  0
   61.7442   35.5017   48.6068 H   0  0  0  0  0  0  0  0  0  0  0  0
   62.7550   33.6660   48.2810 C   0  0  0  0  0  0  0  0  0  0  0  0
   63.6090   34.2020   47.5260 O   0  0  0  0  0  0  0  0  0  0  0  0
   62.9020   32.2850   48.6370 N   0  0  0  0  0  0  0  0  0  0  0  0
   61.9650   31.3810   48.6030 C   0  0  0  0  0  0  0  0  0  0  0  0
   61.3970   30.9890   49.7740 N   0  0  0  0  0  0  0  0  0  0  0  0
   60.4170   30.0480   49.8370 C   0  0  0  0  0  0  0  0  0  0  0  0
   59.9070   29.6750   51.1260 N   0  0  0  0  0  0  0  0  0  0  0  0
   58.6850   30.1200   51.7280 C   0  0  0  0  0  0  0  0  0  0  0  0
   57.6320   29.4360   51.6370 O   0  0  0  0  0  0  0  0  0  0  0  0
   58.6260   31.4650   52.3810 C   0  0  0  0  0  0  0  0  0  0  0  0
   59.0828   31.1551   53.3324 H   0  0  0  0  0  0  0  0  0  0  0  0
   58.7980   32.6280   51.4140 C   0  0  0  0  0  0  0  0  0  0  0  0
   59.3447   33.5290   51.7291 H   0  0  0  0  0  0  0  0  0  0  0  0
   59.1997   32.7402   50.3961 H   0  0  0  0  0  0  0  0  0  0  0  0
   57.4290   32.3250   52.0020 C   0  0  0  0  0  0  0  0  0  0  0  0
   56.9854   33.0069   52.7424 H   0  0  0  0  0  0  0  0  0  0  0  0
   56.4303   32.1273   51.5854 H   0  0  0  0  0  0  0  0  0  0  0  0
   59.9800   29.4300   48.6550 C   0  0  0  0  0  0  0  0  0  0  0  0
   59.2264   28.6297   48.6949 H   0  0  0  0  0  0  0  0  0  0  0  0
   60.5100   29.8390   47.4230 C   0  0  0  0  0  0  0  0  0  0  0  0
   60.0930   29.2670   46.2130 O   0  0  0  0  0  0  0  0  0  0  0  0
   58.7620   29.1670   45.7810 C   0  0  0  0  0  0  0  0  0  0  0  0
   58.1870   30.2550   45.1130 C   0  0  0  0  0  0  0  0  0  0  0  0
   58.7833   31.1605   44.9273 H   0  0  0  0  0  0  0  0  0  0  0  0
   56.8590   30.1960   44.6810 C   0  0  0  0  0  0  0  0  0  0  0  0
   56.4170   31.0502   44.1472 H   0  0  0  0  0  0  0  0  0  0  0  0
   56.0910   29.0530   44.9260 C   0  0  0  0  0  0  0  0  0  0  0  0
   54.7700   28.9980   44.4970 O   0  0  0  0  0  0  0  0  0  0  0  0
   56.6510   27.9700   45.6090 C   0  0  0  0  0  0  0  0  0  0  0  0
   56.0460   27.0731   45.8076 H   0  0  0  0  0  0  0  0  0  0  0  0
   57.9800   28.0260   46.0400 C   0  0  0  0  0  0  0  0  0  0  0  0
   58.4160   27.1749   46.5836 H   0  0  0  0  0  0  0  0  0  0  0  0
   61.5100   30.8120   47.3970 C   0  0  0  0  0  0  0  0  0  0  0  0
   61.9417   31.1338   46.4378 H   0  0  0  0  0  0  0  0  0  0  0  0
   60.3670   34.5450   46.4340 C   0  0  0  0  0  0  0  0  0  0  0  0
   61.2279   35.1073   46.0431 H   0  0  0  0  0  0  0  0  0  0  0  0
   59.2880   34.2520   45.5940 C   0  0  0  0  0  0  0  0  0  0  0  0
   59.3033   34.5813   44.5445 H   0  0  0  0  0  0  0  0  0  0  0  0
  1  2  1  0
  2  3  2  0
  3  4  1  0
  3  5  1  0
  5  6  1  0
  5  7  2  0
  7  8  1  0
  8  9  1  0
  8 10  1  0
  8 11  1  0
 11 12  2  0
 11 13  1  0
 13 14  2  0
 14 15  1  0
 15 16  1  0
 16 17  1  0
 17 18  1  0
 18 19  2  0
 18 20  1  0
 20 21  1  0
 20 22  1  0
 22 23  1  0
 22 24  1  0
 22 25  1  0
 25 26  1  0
 25 27  1  0
 16 28  2  0
 28 29  1  0
 28 30  1  0
 30 31  1  0
 31 32  1  0
 32 33  2  0
 33 34  1  0
 33 35  1  0
 35 36  1  0
 35 37  2  0
 37 38  1  0
 37 39  1  0
 39 40  1  0
 39 41  2  0
 41 42  1  0
 30 43  2  0
 43 44  1  0
  7 45  1  0
 45 46  1  0
 45 47  2  0
 47 48  1  0
 47  2  1  0
 43 14  1  0
 25 20  1  0
 41 32  1  0
M  CHG  3  15  -1  17  -1  38  -1
M  END
>  <UniqueID>  (65) 
61

>  <SMILES>  (65) 
O=C(Cc1ccccc1)/N=c1\cc(Oc2ccc([O-])cc2)cc([N-]C(=O)C2CC2)[n-]1

>  <Energy>  (65) 
333.4572820195685

>  <Genealogy>  (65) 
O=C(Cc1ccccc1)N=c1cc(Oc2ccc([O-])cc2)cc([N-]C(=O)C2CC2)[n-]1 (protonated)
O=C(Cc1ccccc1)/N=c1\cc(Oc2ccc([O-])cc2)cc([N-]C(=O)C2CC2)[n-]1 (cis-trans isomerization)
O=C(Cc1ccccc1)/N=c1\cc(Oc2ccc([O-])cc2)cc([N-]C(=O)C2CC2)[n-]1 (3D coordinates assigned)
O=C(Cc1ccccc1)/N=c1\cc(Oc2ccc([O-])cc2)cc([N-]C(=O)C2CC2)[n-]1 (nonaromatic ring conformer: 333.4572820195685 kcal/mol)

>  <smiles>  (65) 
O=C(Cc1ccccc1)N=c1cc(Oc2ccc(O)cc2)cc(NC(=O)C2CC2)[nH]1

>  <score_type>  (65) 
oracle

>  <origin>  (65) 
adg

>  <m_score__min__energy>  (65) 
-13

>  <m_primary>  (65) 
energy

$$$$
65:0
     RDKit          3D

 37 39  0  0  0  0  0  0  0  0999 V2000
   60.9710   33.7090   47.5770 C   0  0  0  0  0  0  0  0  0  0  0  0
   59.6320   33.1720   47.7760 C   0  0  0  0  0  0  0  0  0  0  0  0
   59.0120   33.4180   48.8680 O   0  0  0  0  0  0  0  0  0  0  0  0
   58.9540   32.3570   46.7820 C   0  0  0  0  0  0  0  0  0  0  0  0
   58.5190   30.6640   47.0800 S   0  0  0  0  0  0  0  0  0  0  0  0
   57.7760   30.4390   45.4520 C   0  0  0  0  0  0  0  0  0  0  0  0
   57.1700   29.2890   44.8970 C   0  0  0  0  0  0  0  0  0  0  0  0
   57.1040   28.2120   45.6000 O   0  0  0  0  0  0  0  0  0  0  0  0
   57.0370   27.1300   46.3070 C   0  0  0  0  0  0  0  0  0  0  0  0
   56.6630   25.8240   45.6920 C   0  0  0  0  0  0  0  0  0  0  0  0
   55.5060   25.3980   46.0270 O   0  0  0  0  0  0  0  0  0  0  0  0
   57.4810   25.0840   44.8100 N   0  0  0  0  0  0  0  0  0  0  0  0
   57.1800   23.8560   44.2140 C   0  0  0  0  0  0  0  0  0  0  0  0
   58.0280   22.7700   44.4740 C   0  0  0  0  0  0  0  0  0  0  0  0
   57.7730   21.5230   43.9040 C   0  0  0  0  0  0  0  0  0  0  0  0
   56.7060   21.3340   43.0900 C   0  0  0  0  0  0  0  0  0  0  0  0
   55.8960   22.3620   42.8390 N   0  0  0  0  0  0  0  0  0  0  0  0
   56.1220   23.5840   43.3820 C   0  0  0  0  0  0  0  0  0  0  0  0
   56.6720   29.3780   43.6100 C   0  0  0  0  0  0  0  0  0  0  0  0
   56.8040   30.5850   42.9620 C   0  0  0  0  0  0  0  0  0  0  0  0
   57.3950   31.6860   43.5220 C   0  0  0  0  0  0  0  0  0  0  0  0
   57.9190   31.6390   44.8360 C   0  0  0  0  0  0  0  0  0  0  0  0
   58.5240   32.6200   45.5220 C   0  0  0  0  0  0  0  0  0  0  0  0
   58.7990   34.2800   44.8560 Cl  0  0  0  0  0  0  0  0  0  0  0  0
   61.4397   33.8970   48.5543 H   0  0  0  0  0  0  0  0  0  0  0  0
   61.5767   32.9842   47.0132 H   0  0  0  0  0  0  0  0  0  0  0  0
   60.9081   34.6514   47.0132 H   0  0  0  0  0  0  0  0  0  0  0  0
   58.0315   26.9893   46.7555 H   0  0  0  0  0  0  0  0  0  0  0  0
   56.1851   27.3326   46.9727 H   0  0  0  0  0  0  0  0  0  0  0  0
   58.4210   25.5260   44.5880 H   0  0  0  0  0  0  0  0  0  0  0  0
   58.8998   22.9024   45.1316 H   0  0  0  0  0  0  0  0  0  0  0  0
   58.4475   20.6808   44.1181 H   0  0  0  0  0  0  0  0  0  0  0  0
   56.5117   20.3476   42.6436 H   0  0  0  0  0  0  0  0  0  0  0  0
   55.4223   24.3986   43.1438 H   0  0  0  0  0  0  0  0  0  0  0  0
   56.1893   28.5178   43.1232 H   0  0  0  0  0  0  0  0  0  0  0  0
   56.4130   30.6700   41.9373 H   0  0  0  0  0  0  0  0  0  0  0  0
   57.4634   32.6189   42.9432 H   0  0  0  0  0  0  0  0  0  0  0  0
  1  2  1  0
  2  3  2  0
  2  4  1  0
  4  5  1  0
  5  6  1  0
  6  7  2  0
  7  8  1  0
  8  9  1  0
  9 10  1  0
 10 11  2  0
 10 12  1  0
 12 13  1  0
 13 14  2  0
 14 15  1  0
 15 16  2  0
 16 17  1  0
 17 18  2  0
  7 19  1  0
 19 20  2  0
 20 21  1  0
 21 22  2  0
 22 23  1  0
 23 24  1  0
 23  4  2  0
 22  6  1  0
 18 13  1  0
  1 25  1  0
  1 26  1  0
  1 27  1  0
  9 28  1  0
  9 29  1  0
 12 30  1  0
 14 31  1  0
 15 32  1  0
 16 33  1  0
 18 34  1  0
 19 35  1  0
 20 36  1  0
 21 37  1  0
M  END
>  <UniqueID>  (66) 
62

>  <SMILES>  (66) 
CC(=O)c1sc2c(OCC(=O)Nc3cccnc3)cccc2c1Cl

>  <Energy>  (66) 
189.2291338865496

>  <Genealogy>  (66) 
CC(=O)c1sc2c(OCC(=O)Nc3cccnc3)cccc2c1Cl (3D coordinates assigned)
CC(=O)c1sc2c(OCC(=O)Nc3cccnc3)cccc2c1Cl (optimized conformer: 189.2291338865496 kcal/mol)

>  <smiles>  (66) 
CC(=O)c1sc2c(OCC(=O)Nc3cccnc3)cccc2c1Cl

>  <score_type>  (66) 
oracle

>  <origin>  (66) 
adg

>  <m_score__min__energy>  (66) 
-8.3800000000000008

>  <m_primary>  (66) 
energy

$$$$
66:0
     RDKit          3D

 38 41  0  0  0  0  0  0  0  0999 V2000
   50.0310   32.3260   49.7440 H   0  0  0  0  0  0  0  0  0  0  0  0
   51.0330   32.3180   50.0410 N   0  0  0  0  0  0  0  0  0  0  0  0
   51.3880   32.2510   51.4220 C   0  0  0  0  0  0  0  0  0  0  0  0
   50.9160   33.1060   52.2190 O   0  0  0  0  0  0  0  0  0  0  0  0
   52.2980   31.1900   51.9150 C   0  0  0  0  0  0  0  0  0  0  0  0
   51.7780   30.0370   52.5280 C   0  0  0  0  0  0  0  0  0  0  0  0
   50.6899   29.9206   52.6399 H   0  0  0  0  0  0  0  0  0  0  0  0
   52.6350   29.0380   52.9960 C   0  0  0  0  0  0  0  0  0  0  0  0
   52.2184   28.1391   53.4740 H   0  0  0  0  0  0  0  0  0  0  0  0
   54.0170   29.1750   52.8600 C   0  0  0  0  0  0  0  0  0  0  0  0
   54.6844   28.3841   53.2330 H   0  0  0  0  0  0  0  0  0  0  0  0
   54.5610   30.3180   52.2490 C   0  0  0  0  0  0  0  0  0  0  0  0
   56.0320   30.4630   52.1020 C   0  0  0  0  0  0  0  0  0  0  0  0
   56.9070   29.4520   52.5850 C   0  0  0  0  0  0  0  0  0  0  0  0
   56.4882   28.5573   53.0689 H   0  0  0  0  0  0  0  0  0  0  0  0
   58.3020   29.5810   52.4520 C   0  0  0  0  0  0  0  0  0  0  0  0
   58.9844   28.8049   52.8288 H   0  0  0  0  0  0  0  0  0  0  0  0
   58.7870   30.7250   51.8270 C   0  0  0  0  0  0  0  0  0  0  0  0
   57.9610   31.7040   51.3630 C   0  0  0  0  0  0  0  0  0  0  0  0
   58.6770   32.7070   50.8250 N   0  0  0  0  0  0  0  0  0  0  0  0
   59.9560   32.2760   50.9800 C   0  0  0  0  0  0  0  0  0  0  0  0
   60.9680   33.0040   50.6030 N   0  0  0  0  0  0  0  0  0  0  0  0
   62.3170   32.5750   50.3710 C   0  0  0  0  0  0  0  0  0  0  0  0
   62.7020   31.4980   50.9000 O   0  0  0  0  0  0  0  0  0  0  0  0
   63.2950   33.4410   49.6130 C   0  0  0  0  0  0  0  0  0  0  0  0
   62.9000   34.3922   49.9992 H   0  0  0  0  0  0  0  0  0  0  0  0
   63.7030   32.8900   48.2540 C   0  0  0  0  0  0  0  0  0  0  0  0
   63.2729   31.9442   47.8929 H   0  0  0  0  0  0  0  0  0  0  0  0
   63.7064   33.2817   47.2261 H   0  0  0  0  0  0  0  0  0  0  0  0
   64.6980   32.8820   49.4030 C   0  0  0  0  0  0  0  0  0  0  0  0
   64.9872   31.9307   49.8736 H   0  0  0  0  0  0  0  0  0  0  0  0
   65.7183   33.2654   49.5511 H   0  0  0  0  0  0  0  0  0  0  0  0
   60.0600   31.0710   51.5990 N   0  0  0  0  0  0  0  0  0  0  0  0
   60.9090   30.5420   51.8950 H   0  0  0  0  0  0  0  0  0  0  0  0
   56.5770   31.6150   51.4800 C   0  0  0  0  0  0  0  0  0  0  0  0
   55.9246   32.4154   51.1008 H   0  0  0  0  0  0  0  0  0  0  0  0
   53.6930   31.3220   51.7800 C   0  0  0  0  0  0  0  0  0  0  0  0
   54.1099   32.2208   51.3021 H   0  0  0  0  0  0  0  0  0  0  0  0
  1  2  1  0
  2  3  1  0
  3  4  2  0
  3  5  1  0
  5  6  2  0
  6  7  1  0
  6  8  1  0
  8  9  1  0
  8 10  2  0
 10 11  1  0
 10 12  1  0
 12 13  1  0
 13 14  2  0
 14 15  1  0
 14 16  1  0
 16 17  1  0
 16 18  2  0
 18 19  1  0
 19 20  1  0
 20 21  1  0
 21 22  2  0
 22 23  1  0
 23 24  2  0
 23 25  1  0
 25 26  1  0
 25 27  1  0
 27 28  1  0
 27 29  1  0
 27 30  1  0
 30 31  1  0
 30 32  1  0
 21 33  1  0
 33 34  1  0
 19 35  2  0
 35 36  1  0
 12 37  2  0
 37 38  1  0
 37  5  1  0
 35 13  1  0
 33 18  1  0
 30 25  1  0
M  CHG  2   2  -1  20  -1
M  END
>  <UniqueID>  (67) 
63

>  <SMILES>  (67) 
[NH-]C(=O)c1cccc(-c2ccc3[nH]/c(=N\C(=O)C4CC4)[n-]c3c2)c1

>  <Energy>  (67) 
354.4852873418809

>  <Genealogy>  (67) 
[NH-]C(=O)c1cccc(-c2ccc3[nH]c(=NC(=O)C4CC4)[n-]c3c2)c1 (protonated)
[NH-]C(=O)c1cccc(-c2ccc3[nH]/c(=N\C(=O)C4CC4)[n-]c3c2)c1 (cis-trans isomerization)
[NH-]C(=O)c1cccc(-c2ccc3[nH]/c(=N\C(=O)C4CC4)[n-]c3c2)c1 (3D coordinates assigned)
[NH-]C(=O)c1cccc(-c2ccc3[nH]/c(=N\C(=O)C4CC4)[n-]c3c2)c1 (nonaromatic ring conformer: 354.4852873418809 kcal/mol)

>  <smiles>  (67) 
NC(=O)c1cccc(-c2ccc3[nH]c(=NC(=O)C4CC4)[nH]c3c2)c1

>  <score_type>  (67) 
oracle

>  <origin>  (67) 
adg

>  <m_score__min__energy>  (67) 
-11.640000000000001

>  <m_primary>  (67) 
energy

$$$$
67:0
     RDKit          3D

 47 50  0  0  0  0  0  0  0  0999 V2000
   56.2820   24.5190   44.4890 C   0  0  0  0  0  0  0  0  0  0  0  0
   55.3860   25.3470   45.7890 S   0  0  0  0  0  0  0  0  0  0  0  0
   55.8790   24.8650   47.1250 O   0  0  0  0  0  0  0  0  0  0  0  0
   53.9300   25.0030   45.6570 O   0  0  0  0  0  0  0  0  0  0  0  0
   55.5600   27.0760   45.6550 N   0  0  0  0  0  0  0  0  0  0  0  0
   56.9530   27.4680   45.4360 C   0  0  0  0  0  0  0  0  0  0  0  0
   57.0400   28.8790   44.9490 C   0  0  0  0  0  0  0  0  0  0  0  0
   56.6310   29.3320   43.7090 C   0  0  0  0  0  0  0  0  0  0  0  0
   56.9420   30.6750   43.6830 C   0  0  0  0  0  0  0  0  0  0  0  0
   57.5170   30.9510   44.9100 C   0  0  0  0  0  0  0  0  0  0  0  0
   58.0170   32.2650   45.3570 C   0  0  0  0  0  0  0  0  0  0  0  0
   57.7470   33.3770   44.5480 C   0  0  0  0  0  0  0  0  0  0  0  0
   58.2580   34.6320   44.8730 C   0  0  0  0  0  0  0  0  0  0  0  0
   59.0430   34.7970   46.0140 C   0  0  0  0  0  0  0  0  0  0  0  0
   59.3000   33.7060   46.8630 C   0  0  0  0  0  0  0  0  0  0  0  0
   60.0630   33.8570   48.0330 C   0  0  0  0  0  0  0  0  0  0  0  0
   60.5690   34.9720   48.3360 O   0  0  0  0  0  0  0  0  0  0  0  0
   60.2650   32.7660   48.8760 C   0  0  0  0  0  0  0  0  0  0  0  0
   59.6920   31.5220   48.5700 C   0  0  0  0  0  0  0  0  0  0  0  0
   59.8680   30.3930   49.4590 N   0  0  0  0  0  0  0  0  0  0  0  0
   59.7710   30.4730   50.9100 C   0  0  0  0  0  0  0  0  0  0  0  0
   59.8520   29.0390   51.4140 C   0  0  0  0  0  0  0  0  0  0  0  0
   60.4300   28.2270   50.2620 C   0  0  0  0  0  0  0  0  0  0  0  0
   60.1560   29.0400   49.0050 C   0  0  0  0  0  0  0  0  0  0  0  0
   58.9580   31.3910   47.4240 N   0  0  0  0  0  0  0  0  0  0  0  0
   58.7690   32.4290   46.5500 C   0  0  0  0  0  0  0  0  0  0  0  0
   57.5480   29.8670   45.6490 O   0  0  0  0  0  0  0  0  0  0  0  0
   57.0217   23.8355   44.9313 H   0  0  0  0  0  0  0  0  0  0  0  0
   55.5790   23.9457   43.8668 H   0  0  0  0  0  0  0  0  0  0  0  0
   56.7981   25.2649   43.8668 H   0  0  0  0  0  0  0  0  0  0  0  0
   57.5053   27.3792   46.3832 H   0  0  0  0  0  0  0  0  0  0  0  0
   57.3888   26.8056   44.6736 H   0  0  0  0  0  0  0  0  0  0  0  0
   56.1564   28.7439   42.9097 H   0  0  0  0  0  0  0  0  0  0  0  0
   56.7686   31.3807   42.8572 H   0  0  0  0  0  0  0  0  0  0  0  0
   57.1259   33.2580   43.6480 H   0  0  0  0  0  0  0  0  0  0  0  0
   58.0415   35.4958   44.2273 H   0  0  0  0  0  0  0  0  0  0  0  0
   59.4632   35.7856   46.2509 H   0  0  0  0  0  0  0  0  0  0  0  0
   60.8754   32.8802   49.7840 H   0  0  0  0  0  0  0  0  0  0  0  0
   60.6015   31.0688   51.3166 H   0  0  0  0  0  0  0  0  0  0  0  0
   58.8363   30.9595   51.2258 H   0  0  0  0  0  0  0  0  0  0  0  0
   60.5100   28.9785   52.2934 H   0  0  0  0  0  0  0  0  0  0  0  0
   58.8656   28.6612   51.7212 H   0  0  0  0  0  0  0  0  0  0  0  0
   61.5122   28.0850   50.3983 H   0  0  0  0  0  0  0  0  0  0  0  0
   59.9773   27.2262   50.2042 H   0  0  0  0  0  0  0  0  0  0  0  0
   61.0379   29.0367   48.3475 H   0  0  0  0  0  0  0  0  0  0  0  0
   59.3184   28.6211   48.4280 H   0  0  0  0  0  0  0  0  0  0  0  0
   58.5000   30.4750   47.2360 H   0  0  0  0  0  0  0  0  0  0  0  0
  1  2  1  0
  2  3  2  0
  2  4  2  0
  2  5  1  0
  5  6  1  0
  6  7  1  0
  7  8  2  0
  8  9  1  0
  9 10  2  0
 10 11  1  0
 11 12  2  0
 12 13  1  0
 13 14  2  0
 14 15  1  0
 15 16  1  0
 16 17  2  0
 16 18  1  0
 18 19  2  0
 19 20  1  0
 20 21  1  0
 21 22  1  0
 22 23  1  0
 23 24  1  0
 19 25  1  0
 25 26  1  0
 10 27  1  0
 27  7  1  0
 26 11  1  0
 26 15  2  0
 24 20  1  0
  1 28  1  0
  1 29  1  0
  1 30  1  0
  6 31  1  0
  6 32  1  0
  8 33  1  0
  9 34  1  0
 12 35  1  0
 13 36  1  0
 14 37  1  0
 18 38  1  0
 21 39  1  0
 21 40  1  0
 22 41  1  0
 22 42  1  0
 23 43  1  0
 23 44  1  0
 24 45  1  0
 24 46  1  0
 25 47  1  0
M  CHG  1   5  -1
M  END
>  <UniqueID>  (68) 
64

>  <SMILES>  (68) 
CS(=O)(=O)[N-]Cc1ccc(-c2cccc3c(=O)cc(N4CCCC4)[nH]c23)o1

>  <Energy>  (68) 
81.76121429111727

>  <Genealogy>  (68) 
CS(=O)(=O)[N-]Cc1ccc(-c2cccc3c(=O)cc(N4CCCC4)[nH]c23)o1 (protonated)
CS(=O)(=O)[N-]Cc1ccc(-c2cccc3c(=O)cc(N4CCCC4)[nH]c23)o1 (3D coordinates assigned)
CS(=O)(=O)[N-]Cc1ccc(-c2cccc3c(=O)cc(N4CCCC4)[nH]c23)o1 (nonaromatic ring conformer: 81.76121429111727 kcal/mol)

>  <smiles>  (68) 
CS(=O)(=O)NCc1ccc(-c2cccc3c(=O)cc(N4CCCC4)[nH]c23)o1

>  <score_type>  (68) 
oracle

>  <origin>  (68) 
adg

>  <m_score__min__energy>  (68) 
-11.07

>  <m_primary>  (68) 
energy

$$$$
68:0
     RDKit          3D

 42 44  0  0  0  0  0  0  0  0999 V2000
   58.5100   35.1190   51.2090 H   0  0  0  0  0  0  0  0  0  0  0  0
   59.1540   34.3490   51.3360 O   0  0  0  0  0  0  0  0  0  0  0  0
   58.9570   33.0710   50.8000 C   0  0  0  0  0  0  0  0  0  0  0  0
   59.6320   32.6450   49.6300 C   0  0  0  0  0  0  0  0  0  0  0  0
   60.5420   33.5990   48.8930 C   0  0  0  0  0  0  0  0  0  0  0  0
   61.1122   34.1968   49.6193 H   0  0  0  0  0  0  0  0  0  0  0  0
   61.2382   33.0276   48.2615 H   0  0  0  0  0  0  0  0  0  0  0  0
   59.9384   34.2674   48.2615 H   0  0  0  0  0  0  0  0  0  0  0  0
   59.4560   31.3050   49.2010 C   0  0  0  0  0  0  0  0  0  0  0  0
   60.2160   30.7020   48.0430 C   0  0  0  0  0  0  0  0  0  0  0  0
   60.9299   29.9607   48.4314 H   0  0  0  0  0  0  0  0  0  0  0  0
   60.7405   31.5123   47.5154 H   0  0  0  0  0  0  0  0  0  0  0  0
   59.3080   30.0380   47.0860 N   0  0  0  0  0  0  0  0  0  0  0  0
   58.4200   30.6730   46.2800 C   0  0  0  0  0  0  0  0  0  0  0  0
   58.1760   32.1520   46.2480 C   0  0  0  0  0  0  0  0  0  0  0  0
   58.1127   32.5355   47.2770 H   0  0  0  0  0  0  0  0  0  0  0  0
   59.0043   32.6490   45.7217 H   0  0  0  0  0  0  0  0  0  0  0  0
   57.2320   32.3566   45.7217 H   0  0  0  0  0  0  0  0  0  0  0  0
   57.7330   29.7660   45.5020 C   0  0  0  0  0  0  0  0  0  0  0  0
   56.9531   29.9969   44.7615 H   0  0  0  0  0  0  0  0  0  0  0  0
   58.2100   28.5130   45.8290 C   0  0  0  0  0  0  0  0  0  0  0  0
   57.7030   27.3820   45.3000 C   0  0  0  0  0  0  0  0  0  0  0  0
   57.6724   27.3112   44.2027 H   0  0  0  0  0  0  0  0  0  0  0  0
   57.1870   26.2340   46.0610 C   0  0  0  0  0  0  0  0  0  0  0  0
   57.9540   25.2090   46.4720 N   0  0  0  0  0  0  0  0  0  0  0  0
   57.0640   24.3460   47.0070 C   0  0  0  0  0  0  0  0  0  0  0  0
   57.4070   23.2500   47.5220 O   0  0  0  0  0  0  0  0  0  0  0  0
   55.7750   24.7440   46.9370 N   0  0  0  0  0  0  0  0  0  0  0  0
   55.8680   25.9340   46.3220 C   0  0  0  0  0  0  0  0  0  0  0  0
   54.7700   26.7130   45.9800 O   0  0  0  0  0  0  0  0  0  0  0  0
   59.2370   28.7130   46.7670 C   0  0  0  0  0  0  0  0  0  0  0  0
   60.1220   27.7890   47.1780 C   0  0  0  0  0  0  0  0  0  0  0  0
   60.8891   28.0541   47.9205 H   0  0  0  0  0  0  0  0  0  0  0  0
   60.0793   26.7676   46.7719 H   0  0  0  0  0  0  0  0  0  0  0  0
   58.5730   30.5040   49.8540 N   0  0  0  0  0  0  0  0  0  0  0  0
   57.8730   30.9120   50.9400 C   0  0  0  0  0  0  0  0  0  0  0  0
   57.0580   30.1150   51.4770 O   0  0  0  0  0  0  0  0  0  0  0  0
   58.0690   32.2010   51.4590 C   0  0  0  0  0  0  0  0  0  0  0  0
   57.3060   32.6740   52.6720 C   0  0  0  0  0  0  0  0  0  0  0  0
   57.8291   32.3497   53.5837 H   0  0  0  0  0  0  0  0  0  0  0  0
   57.2396   33.7719   52.6583 H   0  0  0  0  0  0  0  0  0  0  0  0
   56.2931   32.2452   52.6583 H   0  0  0  0  0  0  0  0  0  0  0  0
  1  2  1  0
  2  3  1  0
  3  4  1  0
  4  5  1  0
  5  6  1  0
  5  7  1  0
  5  8  1  0
  4  9  2  0
  9 10  1  0
 10 11  1  0
 10 12  1  0
 10 13  1  0
 13 14  1  0
 14 15  1  0
 15 16  1  0
 15 17  1  0
 15 18  1  0
 14 19  2  0
 19 20  1  0
 19 21  1  0
 21 22  2  0
 22 23  1  0
 22 24  1  0
 24 25  1  0
 25 26  1  0
 26 27  2  0
 26 28  1  0
 28 29  1  0
 29 30  1  0
 21 31  1  0
 31 32  2  0
 32 33  1  0
 32 34  1  0
  9 35  1  0
 35 36  1  0
 36 37  2  0
 36 38  1  0
 38 39  1  0
 39 40  1  0
 39 41  1  0
 39 42  1  0
 38  3  2  0
 31 13  1  0
 29 24  2  0
M  CHG  4  25  -1  28  -1  30  -1  35  -1
M  END
>  <UniqueID>  (69) 
65

>  <SMILES>  (69) 
C=c1/c(=C\c2[n-]c(=O)[n-]c2[O-])cc(C)n1Cc1[n-]c(=O)c(C)c(O)c1C

>  <Energy>  (69) 
119.39099195792919

>  <Genealogy>  (69) 
C=c1c(=Cc2[n-]c(=O)[n-]c2[O-])cc(C)n1Cc1[n-]c(=O)c(C)c(O)c1C (protonated)
C=c1/c(=C\c2[n-]c(=O)[n-]c2[O-])cc(C)n1Cc1[n-]c(=O)c(C)c(O)c1C (cis-trans isomerization)
C=c1/c(=C\c2[n-]c(=O)[n-]c2[O-])cc(C)n1Cc1[n-]c(=O)c(C)c(O)c1C (3D coordinates assigned)
C=c1/c(=C\c2[n-]c(=O)[n-]c2[O-])cc(C)n1Cc1[n-]c(=O)c(C)c(O)c1C (optimized conformer: 119.39099195792919 kcal/mol)

>  <smiles>  (69) 
C=c1c(=Cc2[nH]c(=O)[nH]c2O)cc(C)n1Cc1[nH]c(=O)c(C)c(O)c1C

>  <score_type>  (69) 
oracle

>  <origin>  (69) 
adg

>  <m_score__min__energy>  (69) 
-16.920000000000002

>  <m_primary>  (69) 
energy

$$$$
69:0
     RDKit          3D

 56 59  0  0  0  0  0  0  0  0999 V2000
   63.7740   33.1020   46.7280 C   0  0  0  0  0  0  0  0  0  0  0  0
   62.8370   33.8510   47.5850 N   0  0  0  0  0  0  0  0  0  0  0  0
   61.5160   34.0420   46.9290 C   0  0  0  0  0  0  0  0  0  0  0  0
   60.3440   33.4090   47.6880 C   0  0  0  0  0  0  0  0  0  0  0  0
   60.7370   32.0920   48.1910 N   0  0  0  0  0  0  0  0  0  0  0  0
   59.9400   30.9240   47.9070 C   0  0  0  0  0  0  0  0  0  0  0  0
   59.8040   29.9050   48.8640 C   0  0  0  0  0  0  0  0  0  0  0  0
   59.0480   28.7650   48.5830 C   0  0  0  0  0  0  0  0  0  0  0  0
   58.3980   28.6250   47.3450 C   0  0  0  0  0  0  0  0  0  0  0  0
   57.6690   27.4250   47.0240 N   0  0  0  0  0  0  0  0  0  0  0  0
   58.2820   26.2350   46.5130 C   0  0  0  0  0  0  0  0  0  0  0  0
   59.5130   26.0390   46.6920 O   0  0  0  0  0  0  0  0  0  0  0  0
   57.4690   25.2060   45.8230 C   0  0  0  0  0  0  0  0  0  0  0  0
   58.0540   23.9940   45.3970 C   0  0  0  0  0  0  0  0  0  0  0  0
   59.3640   23.7270   45.6360 F   0  0  0  0  0  0  0  0  0  0  0  0
   57.2770   23.0260   44.7530 C   0  0  0  0  0  0  0  0  0  0  0  0
   55.9170   23.2480   44.5310 C   0  0  0  0  0  0  0  0  0  0  0  0
   55.3250   24.4400   44.9550 C   0  0  0  0  0  0  0  0  0  0  0  0
   56.0910   25.4140   45.6010 C   0  0  0  0  0  0  0  0  0  0  0  0
   55.4890   26.5680   45.9890 F   0  0  0  0  0  0  0  0  0  0  0  0
   58.5320   29.6450   46.3830 C   0  0  0  0  0  0  0  0  0  0  0  0
   57.8950   29.5220   45.1040 N   0  0  0  0  0  0  0  0  0  0  0  0
   56.9950   30.5850   44.6550 C   0  0  0  0  0  0  0  0  0  0  0  0
   56.0630   30.0590   43.5590 C   0  0  0  0  0  0  0  0  0  0  0  0
   56.7960   29.3860   42.5500 O   0  0  0  0  0  0  0  0  0  0  0  0
   57.3940   28.2260   43.0890 C   0  0  0  0  0  0  0  0  0  0  0  0
   58.4610   28.6020   44.1170 C   0  0  0  0  0  0  0  0  0  0  0  0
   59.2920   30.7860   46.6700 C   0  0  0  0  0  0  0  0  0  0  0  0
   61.9540   31.9800   48.9990 C   0  0  0  0  0  0  0  0  0  0  0  0
   62.7680   33.2840   48.9510 C   0  0  0  0  0  0  0  0  0  0  0  0
   64.4780   32.5393   47.3587 H   0  0  0  0  0  0  0  0  0  0  0  0
   63.2108   32.4024   46.0929 H   0  0  0  0  0  0  0  0  0  0  0  0
   64.3324   33.8055   46.0929 H   0  0  0  0  0  0  0  0  0  0  0  0
   61.3272   35.1220   46.8401 H   0  0  0  0  0  0  0  0  0  0  0  0
   61.5707   33.5390   45.9523 H   0  0  0  0  0  0  0  0  0  0  0  0
   60.0641   34.0548   48.5333 H   0  0  0  0  0  0  0  0  0  0  0  0
   59.4863   33.2987   47.0082 H   0  0  0  0  0  0  0  0  0  0  0  0
   60.2967   30.0057   49.8423 H   0  0  0  0  0  0  0  0  0  0  0  0
   58.9605   27.9694   49.3376 H   0  0  0  0  0  0  0  0  0  0  0  0
   56.6460   27.3920   47.2340 H   0  0  0  0  0  0  0  0  0  0  0  0
   57.7397   22.0853   44.4199 H   0  0  0  0  0  0  0  0  0  0  0  0
   55.3111   22.4839   44.0219 H   0  0  0  0  0  0  0  0  0  0  0  0
   54.2528   24.6125   44.7799 H   0  0  0  0  0  0  0  0  0  0  0  0
   56.3934   30.9359   45.5064 H   0  0  0  0  0  0  0  0  0  0  0  0
   57.5926   31.4154   44.2509 H   0  0  0  0  0  0  0  0  0  0  0  0
   55.3405   29.3601   44.0058 H   0  0  0  0  0  0  0  0  0  0  0  0
   55.5409   30.9130   43.1028 H   0  0  0  0  0  0  0  0  0  0  0  0
   56.6213   27.6137   43.5768 H   0  0  0  0  0  0  0  0  0  0  0  0
   57.8688   27.6593   42.2745 H   0  0  0  0  0  0  0  0  0  0  0  0
   58.8147   27.6930   44.6256 H   0  0  0  0  0  0  0  0  0  0  0  0
   59.3027   29.0911   43.6049 H   0  0  0  0  0  0  0  0  0  0  0  0
   59.3819   31.5830   45.9172 H   0  0  0  0  0  0  0  0  0  0  0  0
   61.6754   31.7678   50.0418 H   0  0  0  0  0  0  0  0  0  0  0  0
   62.5716   31.1656   48.5923 H   0  0  0  0  0  0  0  0  0  0  0  0
   62.2955   34.0211   49.6169 H   0  0  0  0  0  0  0  0  0  0  0  0
   63.7943   33.0532   49.2728 H   0  0  0  0  0  0  0  0  0  0  0  0
  1  2  1  0
  2  3  1  0
  3  4  1  0
  4  5  1  0
  5  6  1  0
  6  7  2  0
  7  8  1  0
  8  9  2  0
  9 10  1  0
 10 11  1  0
 11 12  2  0
 11 13  1  0
 13 14  2  0
 14 15  1  0
 14 16  1  0
 16 17  2  0
 17 18  1  0
 18 19  2  0
 19 20  1  0
  9 21  1  0
 21 22  1  0
 22 23  1  0
 23 24  1  0
 24 25  1  0
 25 26  1  0
 26 27  1  0
 21 28  2  0
  5 29  1  0
 29 30  1  0
 30  2  1  0
 28  6  1  0
 19 13  1  0
 27 22  1  0
  1 31  1  0
  1 32  1  0
  1 33  1  0
  3 34  1  0
  3 35  1  0
  4 36  1  0
  4 37  1  0
  7 38  1  0
  8 39  1  0
 10 40  1  0
 16 41  1  0
 17 42  1  0
 18 43  1  0
 23 44  1  0
 23 45  1  0
 24 46  1  0
 24 47  1  0
 26 48  1  0
 26 49  1  0
 27 50  1  0
 27 51  1  0
 28 52  1  0
 29 53  1  0
 29 54  1  0
 30 55  1  0
 30 56  1  0
M  END
>  <UniqueID>  (70) 
66

>  <SMILES>  (70) 
CN1CCN(c2ccc(NC(=O)c3c(F)cccc3F)c(N3CCOCC3)c2)CC1

>  <Energy>  (70) 
83.74794396463643

>  <Genealogy>  (70) 
CN1CCN(c2ccc(NC(=O)c3c(F)cccc3F)c(N3CCOCC3)c2)CC1 (3D coordinates assigned)
CN1CCN(c2ccc(NC(=O)c3c(F)cccc3F)c(N3CCOCC3)c2)CC1 (nonaromatic ring conformer: 83.74794396463643 kcal/mol)

>  <smiles>  (70) 
CN1CCN(c2ccc(NC(=O)c3c(F)cccc3F)c(N3CCOCC3)c2)CC1

>  <score_type>  (70) 
oracle

>  <origin>  (70) 
adg

>  <m_score__min__energy>  (70) 
-7.9299999999999997

>  <m_primary>  (70) 
energy

$$$$
70:0
     RDKit          3D

 37 39  0  0  0  0  0  0  0  0999 V2000
   61.3770   34.6130   49.4280 N   0  0  0  0  0  0  0  0  0  0  0  0
   60.5950   34.0120   48.3920 C   0  0  0  0  0  0  0  0  0  0  0  0
   59.4820   33.2260   48.7140 C   0  0  0  0  0  0  0  0  0  0  0  0
   58.7180   32.6390   47.7010 C   0  0  0  0  0  0  0  0  0  0  0  0
   59.0580   32.8270   46.3500 C   0  0  0  0  0  0  0  0  0  0  0  0
   58.2420   32.1860   45.2950 C   0  0  0  0  0  0  0  0  0  0  0  0
   58.2050   32.5190   43.9500 C   0  0  0  0  0  0  0  0  0  0  0  0
   57.3020   31.6540   43.3720 C   0  0  0  0  0  0  0  0  0  0  0  0
   56.8480   30.8400   44.3920 C   0  0  0  0  0  0  0  0  0  0  0  0
   55.8630   29.7510   44.2450 C   0  0  0  0  0  0  0  0  0  0  0  0
   55.1640   29.7000   43.2000 O   0  0  0  0  0  0  0  0  0  0  0  0
   55.6740   28.7390   45.2450 N   0  0  0  0  0  0  0  0  0  0  0  0
   56.6290   27.7010   45.6240 C   0  0  0  0  0  0  0  0  0  0  0  0
   58.0370   28.2400   45.6540 C   0  0  0  0  0  0  0  0  0  0  0  0
   58.5620   28.7890   46.8340 C   0  0  0  0  0  0  0  0  0  0  0  0
   59.8700   29.2740   46.8470 C   0  0  0  0  0  0  0  0  0  0  0  0
   60.6400   29.1980   45.7270 N   0  0  0  0  0  0  0  0  0  0  0  0
   60.1650   28.6480   44.5780 C   0  0  0  0  0  0  0  0  0  0  0  0
   58.8600   28.1520   44.5220 C   0  0  0  0  0  0  0  0  0  0  0  0
   57.4200   31.1860   45.5210 O   0  0  0  0  0  0  0  0  0  0  0  0
   60.1780   33.6180   46.0340 C   0  0  0  0  0  0  0  0  0  0  0  0
   60.9390   34.2050   47.0480 C   0  0  0  0  0  0  0  0  0  0  0  0
   62.2400   35.1550   49.1980 H   0  0  0  0  0  0  0  0  0  0  0  0
   61.1000   34.5200   50.4300 H   0  0  0  0  0  0  0  0  0  0  0  0
   59.2077   33.0698   49.7677 H   0  0  0  0  0  0  0  0  0  0  0  0
   57.8437   32.0251   47.9632 H   0  0  0  0  0  0  0  0  0  0  0  0
   58.7789   33.3114   43.4473 H   0  0  0  0  0  0  0  0  0  0  0  0
   57.0032   31.6186   42.3139 H   0  0  0  0  0  0  0  0  0  0  0  0
   56.3687   27.3215   46.6231 H   0  0  0  0  0  0  0  0  0  0  0  0
   56.5808   26.8941   44.8779 H   0  0  0  0  0  0  0  0  0  0  0  0
   57.9455   28.8367   47.7438 H   0  0  0  0  0  0  0  0  0  0  0  0
   60.2805   29.7193   47.7653 H   0  0  0  0  0  0  0  0  0  0  0  0
   61.6180   29.5640   45.7530 H   0  0  0  0  0  0  0  0  0  0  0  0
   60.8106   28.5933   43.6890 H   0  0  0  0  0  0  0  0  0  0  0  0
   58.4806   27.6954   43.5959 H   0  0  0  0  0  0  0  0  0  0  0  0
   60.4563   33.7753   44.9815 H   0  0  0  0  0  0  0  0  0  0  0  0
   61.8125   34.8217   46.7897 H   0  0  0  0  0  0  0  0  0  0  0  0
  1  2  1  0
  2  3  2  0
  3  4  1  0
  4  5  2  0
  5  6  1  0
  6  7  2  0
  7  8  1  0
  8  9  2  0
  9 10  1  0
 10 11  2  0
 10 12  1  0
 12 13  1  0
 13 14  1  0
 14 15  2  0
 15 16  1  0
 16 17  2  0
 17 18  1  0
 18 19  2  0
  9 20  1  0
  5 21  1  0
 21 22  2  0
 22  2  1  0
 20  6  1  0
 19 14  1  0
  1 23  1  0
  1 24  1  0
  3 25  1  0
  4 26  1  0
  7 27  1  0
  8 28  1  0
 13 29  1  0
 13 30  1  0
 15 31  1  0
 16 32  1  0
 17 33  1  0
 18 34  1  0
 19 35  1  0
 21 36  1  0
 22 37  1  0
M  CHG  2  12  -1  17   1
M  END
>  <UniqueID>  (71) 
67

>  <SMILES>  (71) 
Nc1ccc(-c2ccc(C(=O)[N-]Cc3cc[nH+]cc3)o2)cc1

>  <Energy>  (71) 
63.31055865876939

>  <Genealogy>  (71) 
Nc1ccc(-c2ccc(C(=O)[N-]Cc3cc[nH+]cc3)o2)cc1 (protonated)
Nc1ccc(-c2ccc(C(=O)[N-]Cc3cc[nH+]cc3)o2)cc1 (3D coordinates assigned)
Nc1ccc(-c2ccc(C(=O)[N-]Cc3cc[nH+]cc3)o2)cc1 (optimized conformer: 63.31055865876939 kcal/mol)

>  <smiles>  (71) 
Nc1ccc(-c2ccc(C(=O)NCc3ccncc3)o2)cc1

>  <score_type>  (71) 
oracle

>  <origin>  (71) 
adg

>  <m_score__min__energy>  (71) 
-7.8700000000000001

>  <m_primary>  (71) 
energy

$$$$
71:0
     RDKit          3D

 65 68  0  0  0  0  0  0  0  0999 V2000
   66.9290   32.2800   50.5110 C   0  0  0  0  0  0  0  0  0  0  0  0
   65.4840   32.3590   50.9080 C   0  0  0  0  0  0  0  0  0  0  0  0
   65.0780   33.1960   51.9610 C   0  0  0  0  0  0  0  0  0  0  0  0
   63.7340   33.2400   52.3470 C   0  0  0  0  0  0  0  0  0  0  0  0
   62.7890   32.4400   51.6940 C   0  0  0  0  0  0  0  0  0  0  0  0
   63.1890   31.5900   50.6540 C   0  0  0  0  0  0  0  0  0  0  0  0
   62.2200   30.7580   49.9920 C   0  0  0  0  0  0  0  0  0  0  0  0
   61.4100   30.0600   49.4350 C   0  0  0  0  0  0  0  0  0  0  0  0
   60.4360   29.2260   48.7810 C   0  0  0  0  0  0  0  0  0  0  0  0
   59.1800   29.7460   48.4550 C   0  0  0  0  0  0  0  0  0  0  0  0
   58.2190   28.9350   47.8420 C   0  0  0  0  0  0  0  0  0  0  0  0
   58.5160   27.5970   47.5320 C   0  0  0  0  0  0  0  0  0  0  0  0
   57.5360   26.7300   46.9480 N   0  0  0  0  0  0  0  0  0  0  0  0
   56.8150   26.9960   45.7400 C   0  0  0  0  0  0  0  0  0  0  0  0
   55.5730   26.7830   45.6740 O   0  0  0  0  0  0  0  0  0  0  0  0
   57.5540   27.4660   44.5260 C   0  0  0  0  0  0  0  0  0  0  0  0
   57.6770   28.9640   44.5780 C   0  0  0  0  0  0  0  0  0  0  0  0
   56.5570   29.7730   44.3290 C   0  0  0  0  0  0  0  0  0  0  0  0
   56.6410   31.1610   44.4860 C   0  0  0  0  0  0  0  0  0  0  0  0
   57.8440   31.7540   44.8960 C   0  0  0  0  0  0  0  0  0  0  0  0
   57.9120   33.4870   45.1990 S   0  0  0  0  0  0  0  0  0  0  0  0
   59.1000   34.0970   44.5040 O   0  0  0  0  0  0  0  0  0  0  0  0
   56.6630   34.1420   44.6790 O   0  0  0  0  0  0  0  0  0  0  0  0
   58.0220   33.7360   46.9080 N   0  0  0  0  0  0  0  0  0  0  0  0
   59.1440   34.3810   47.5120 C   0  0  0  0  0  0  0  0  0  0  0  0
   59.5970   35.4540   47.0220 O   0  0  0  0  0  0  0  0  0  0  0  0
   59.7450   33.8030   48.7570 C   0  0  0  0  0  0  0  0  0  0  0  0
   61.1280   33.3420   48.4880 N   0  0  0  0  0  0  0  0  0  0  0  0
   61.3150   32.8190   47.1080 C   0  0  0  0  0  0  0  0  0  0  0  0
   62.4660   33.5190   46.3630 C   0  0  0  0  0  0  0  0  0  0  0  0
   63.6750   33.4800   47.0980 O   0  0  0  0  0  0  0  0  0  0  0  0
   63.5350   33.8840   48.4590 C   0  0  0  0  0  0  0  0  0  0  0  0
   62.1280   34.3590   48.8640 C   0  0  0  0  0  0  0  0  0  0  0  0
   58.9640   30.9480   45.1440 C   0  0  0  0  0  0  0  0  0  0  0  0
   58.8810   29.5610   44.9860 C   0  0  0  0  0  0  0  0  0  0  0  0
   59.7710   27.0770   47.8710 C   0  0  0  0  0  0  0  0  0  0  0  0
   60.7300   27.8860   48.4900 C   0  0  0  0  0  0  0  0  0  0  0  0
   64.5340   31.5470   50.2650 C   0  0  0  0  0  0  0  0  0  0  0  0
   67.5560   32.2457   51.4141 H   0  0  0  0  0  0  0  0  0  0  0  0
   67.0961   31.3714   49.9139 H   0  0  0  0  0  0  0  0  0  0  0  0
   67.1941   33.1650   49.9139 H   0  0  0  0  0  0  0  0  0  0  0  0
   65.8192   33.8186   52.4835 H   0  0  0  0  0  0  0  0  0  0  0  0
   63.4193   33.9045   53.1652 H   0  0  0  0  0  0  0  0  0  0  0  0
   61.7323   32.4785   51.9972 H   0  0  0  0  0  0  0  0  0  0  0  0
   58.9465   30.7968   48.6813 H   0  0  0  0  0  0  0  0  0  0  0  0
   57.2274   29.3461   47.6018 H   0  0  0  0  0  0  0  0  0  0  0  0
   58.5566   27.0140   44.5064 H   0  0  0  0  0  0  0  0  0  0  0  0
   57.0067   27.1690   43.6192 H   0  0  0  0  0  0  0  0  0  0  0  0
   55.6098   29.3141   44.0093 H   0  0  0  0  0  0  0  0  0  0  0  0
   55.7602   31.7893   44.2871 H   0  0  0  0  0  0  0  0  0  0  0  0
   59.7643   34.5724   49.5429 H   0  0  0  0  0  0  0  0  0  0  0  0
   59.1376   32.9470   49.0863 H   0  0  0  0  0  0  0  0  0  0  0  0
   61.5350   31.7428   47.1655 H   0  0  0  0  0  0  0  0  0  0  0  0
   60.3880   33.0131   46.5486 H   0  0  0  0  0  0  0  0  0  0  0  0
   62.6214   33.0163   45.3970 H   0  0  0  0  0  0  0  0  0  0  0  0
   62.1878   34.5739   46.2226 H   0  0  0  0  0  0  0  0  0  0  0  0
   63.8010   33.0279   49.0965 H   0  0  0  0  0  0  0  0  0  0  0  0
   64.1975   34.7527   48.5876 H   0  0  0  0  0  0  0  0  0  0  0  0
   62.0956   34.5178   49.9520 H   0  0  0  0  0  0  0  0  0  0  0  0
   61.8999   35.3012   48.3441 H   0  0  0  0  0  0  0  0  0  0  0  0
   59.9107   31.4079   45.4638 H   0  0  0  0  0  0  0  0  0  0  0  0
   59.7634   28.9342   45.1823 H   0  0  0  0  0  0  0  0  0  0  0  0
   60.0046   26.0252   47.6491 H   0  0  0  0  0  0  0  0  0  0  0  0
   61.7152   27.4708   48.7486 H   0  0  0  0  0  0  0  0  0  0  0  0
   64.8480   30.8749   49.4528 H   0  0  0  0  0  0  0  0  0  0  0  0
  1  2  1  0
  2  3  2  0
  3  4  1  0
  4  5  2  0
  5  6  1  0
  6  7  1  0
  7  8  3  0
  8  9  1  0
  9 10  2  0
 10 11  1  0
 11 12  2  0
 12 13  1  0
 13 14  1  0
 14 15  2  0
 14 16  1  0
 16 17  1  0
 17 18  2  0
 18 19  1  0
 19 20  2  0
 20 21  1  0
 21 22  2  0
 21 23  2  0
 21 24  1  0
 24 25  1  0
 25 26  2  0
 25 27  1  0
 27 28  1  0
 28 29  1  0
 29 30  1  0
 30 31  1  0
 31 32  1  0
 32 33  1  0
 20 34  1  0
 34 35  2  0
 12 36  1  0
 36 37  2  0
  6 38  2  0
 38  2  1  0
 37  9  1  0
 35 17  1  0
 33 28  1  0
  1 39  1  0
  1 40  1  0
  1 41  1  0
  3 42  1  0
  4 43  1  0
  5 44  1  0
 10 45  1  0
 11 46  1  0
 16 47  1  0
 16 48  1  0
 18 49  1  0
 19 50  1  0
 27 51  1  0
 27 52  1  0
 29 53  1  0
 29 54  1  0
 30 55  1  0
 30 56  1  0
 32 57  1  0
 32 58  1  0
 33 59  1  0
 33 60  1  0
 34 61  1  0
 35 62  1  0
 36 63  1  0
 37 64  1  0
 38 65  1  0
M  CHG  2  13  -1  24  -1
M  END
>  <UniqueID>  (72) 
68

>  <SMILES>  (72) 
Cc1cccc(C#Cc2ccc([N-]C(=O)Cc3ccc(S(=O)(=O)[N-]C(=O)CN4CCOCC4)cc3)cc2)c1

>  <Energy>  (72) 
82.08045533335186

>  <Genealogy>  (72) 
Cc1cccc(C#Cc2ccc([N-]C(=O)Cc3ccc(S(=O)(=O)[N-]C(=O)CN4CCOCC4)cc3)cc2)c1 (protonated)
Cc1cccc(C#Cc2ccc([N-]C(=O)Cc3ccc(S(=O)(=O)[N-]C(=O)CN4CCOCC4)cc3)cc2)c1 (3D coordinates assigned)
Cc1cccc(C#Cc2ccc([N-]C(=O)Cc3ccc(S(=O)(=O)[N-]C(=O)CN4CCOCC4)cc3)cc2)c1 (nonaromatic ring conformer: 82.08045533335186 kcal/mol)

>  <smiles>  (72) 
Cc1cccc(C#Cc2ccc(NC(=O)Cc3ccc(S(=O)(=O)NC(=O)CN4CCOCC4)cc3)cc2)c1

>  <score_type>  (72) 
oracle

>  <origin>  (72) 
adg

>  <m_score__min__energy>  (72) 
-13.529999999999999

>  <m_primary>  (72) 
energy

$$$$
72:0
     RDKit          3D

 63 66  0  0  0  0  0  0  0  0999 V2000
   58.3460   29.9460   50.0230 O   0  0  0  0  0  0  0  0  0  0  0  0
   59.0490   30.9740   49.8200 C   0  0  0  0  0  0  0  0  0  0  0  0
   59.2170   31.9440   50.8560 N   0  0  0  0  0  0  0  0  0  0  0  0
   58.5650   31.7950   52.1580 C   0  0  0  0  0  0  0  0  0  0  0  0
   57.0990   32.2400   52.1110 C   0  0  0  0  0  0  0  0  0  0  0  0
   56.1610   31.0850   52.3500 C   0  0  0  0  0  0  0  0  0  0  0  0
   56.6260   29.8970   52.9400 C   0  0  0  0  0  0  0  0  0  0  0  0
   55.7450   28.8380   53.1820 C   0  0  0  0  0  0  0  0  0  0  0  0
   54.3950   28.9580   52.8410 C   0  0  0  0  0  0  0  0  0  0  0  0
   53.9230   30.1370   52.2570 C   0  0  0  0  0  0  0  0  0  0  0  0
   54.8010   31.1980   52.0130 C   0  0  0  0  0  0  0  0  0  0  0  0
   59.6890   31.1700   48.5910 O   0  0  0  0  0  0  0  0  0  0  0  0
   60.9080   31.8440   48.4280 C   0  0  0  0  0  0  0  0  0  0  0  0
   62.0620   31.0700   48.2520 C   0  0  0  0  0  0  0  0  0  0  0  0
   63.3060   31.6770   48.0770 C   0  0  0  0  0  0  0  0  0  0  0  0
   63.4130   33.0680   48.0980 C   0  0  0  0  0  0  0  0  0  0  0  0
   62.2780   33.8540   48.3010 C   0  0  0  0  0  0  0  0  0  0  0  0
   61.0130   33.2590   48.4630 C   0  0  0  0  0  0  0  0  0  0  0  0
   59.8440   34.1180   48.7630 C   0  0  0  0  0  0  0  0  0  0  0  0
   59.7150   34.5910   49.9230 O   0  0  0  0  0  0  0  0  0  0  0  0
   58.8900   34.5030   47.7610 N   0  0  0  0  0  0  0  0  0  0  0  0
   58.5430   33.8210   46.5450 C   0  0  0  0  0  0  0  0  0  0  0  0
   58.9780   34.3690   45.3320 C   0  0  0  0  0  0  0  0  0  0  0  0
   58.6490   33.7580   44.1210 C   0  0  0  0  0  0  0  0  0  0  0  0
   57.8790   32.5950   44.1110 C   0  0  0  0  0  0  0  0  0  0  0  0
   57.4240   32.0330   45.3090 C   0  0  0  0  0  0  0  0  0  0  0  0
   56.6480   30.8290   45.2440 N   0  0  0  0  0  0  0  0  0  0  0  0
   56.3450   29.8880   43.8200 S   0  0  0  0  0  0  0  0  0  0  0  0
   54.9410   29.3580   43.8850 O   0  0  0  0  0  0  0  0  0  0  0  0
   56.4740   30.7560   42.6000 O   0  0  0  0  0  0  0  0  0  0  0  0
   57.4830   28.5150   43.7390 C   0  0  0  0  0  0  0  0  0  0  0  0
   58.3820   28.5110   44.9440 C   0  0  0  0  0  0  0  0  0  0  0  0
   59.6360   29.1420   44.8930 C   0  0  0  0  0  0  0  0  0  0  0  0
   60.4870   29.1140   46.0000 C   0  0  0  0  0  0  0  0  0  0  0  0
   60.0960   28.4480   47.1650 C   0  0  0  0  0  0  0  0  0  0  0  0
   58.8560   27.8060   47.2210 C   0  0  0  0  0  0  0  0  0  0  0  0
   58.0020   27.8320   46.1140 C   0  0  0  0  0  0  0  0  0  0  0  0
   57.7390   32.6640   46.5290 C   0  0  0  0  0  0  0  0  0  0  0  0
   59.8230   32.7720   50.6580 H   0  0  0  0  0  0  0  0  0  0  0  0
   58.6074   30.7379   52.4592 H   0  0  0  0  0  0  0  0  0  0  0  0
   59.0942   32.4321   52.8819 H   0  0  0  0  0  0  0  0  0  0  0  0
   56.9321   33.0019   52.8867 H   0  0  0  0  0  0  0  0  0  0  0  0
   56.8950   32.6476   51.1099 H   0  0  0  0  0  0  0  0  0  0  0  0
   57.6873   29.7997   53.2125 H   0  0  0  0  0  0  0  0  0  0  0  0
   56.1151   27.9095   53.6413 H   0  0  0  0  0  0  0  0  0  0  0  0
   53.7035   28.1242   53.0323 H   0  0  0  0  0  0  0  0  0  0  0  0
   52.8602   30.2304   51.9891 H   0  0  0  0  0  0  0  0  0  0  0  0
   54.4256   32.1251   51.5553 H   0  0  0  0  0  0  0  0  0  0  0  0
   61.9868   29.9726   48.2517 H   0  0  0  0  0  0  0  0  0  0  0  0
   64.2026   31.0588   47.9224 H   0  0  0  0  0  0  0  0  0  0  0  0
   64.3934   33.5457   47.9543 H   0  0  0  0  0  0  0  0  0  0  0  0
   62.3730   34.9494   48.3347 H   0  0  0  0  0  0  0  0  0  0  0  0
   59.5833   35.2875   45.3336 H   0  0  0  0  0  0  0  0  0  0  0  0
   58.9974   34.1942   43.1732 H   0  0  0  0  0  0  0  0  0  0  0  0
   57.6274   32.1157   43.1534 H   0  0  0  0  0  0  0  0  0  0  0  0
   56.9145   27.5738   43.7072 H   0  0  0  0  0  0  0  0  0  0  0  0
   58.0991   28.6137   42.8331 H   0  0  0  0  0  0  0  0  0  0  0  0
   59.9496   29.6614   43.9755 H   0  0  0  0  0  0  0  0  0  0  0  0
   61.4648   29.6160   45.9551 H   0  0  0  0  0  0  0  0  0  0  0  0
   60.7647   28.4292   48.0382 H   0  0  0  0  0  0  0  0  0  0  0  0
   58.5512   27.2793   48.1374 H   0  0  0  0  0  0  0  0  0  0  0  0
   57.0298   27.3194   46.1593 H   0  0  0  0  0  0  0  0  0  0  0  0
   57.3553   32.2512   47.4736 H   0  0  0  0  0  0  0  0  0  0  0  0
  1  2  2  0
  2  3  1  0
  3  4  1  0
  4  5  1  0
  5  6  1  0
  6  7  2  0
  7  8  1  0
  8  9  2  0
  9 10  1  0
 10 11  2  0
  2 12  1  0
 12 13  1  0
 13 14  2  0
 14 15  1  0
 15 16  2  0
 16 17  1  0
 17 18  2  0
 18 19  1  0
 19 20  2  0
 19 21  1  0
 21 22  1  0
 22 23  2  0
 23 24  1  0
 24 25  2  0
 25 26  1  0
 26 27  1  0
 27 28  1  0
 28 29  2  0
 28 30  2  0
 28 31  1  0
 31 32  1  0
 32 33  2  0
 33 34  1  0
 34 35  2  0
 35 36  1  0
 36 37  2  0
 26 38  2  0
 11  6  1  0
 18 13  1  0
 38 22  1  0
 37 32  1  0
  3 39  1  0
  4 40  1  0
  4 41  1  0
  5 42  1  0
  5 43  1  0
  7 44  1  0
  8 45  1  0
  9 46  1  0
 10 47  1  0
 11 48  1  0
 14 49  1  0
 15 50  1  0
 16 51  1  0
 17 52  1  0
 23 53  1  0
 24 54  1  0
 25 55  1  0
 31 56  1  0
 31 57  1  0
 33 58  1  0
 34 59  1  0
 35 60  1  0
 36 61  1  0
 37 62  1  0
 38 63  1  0
M  CHG  2  21  -1  27  -1
M  END
>  <UniqueID>  (73) 
69

>  <SMILES>  (73) 
O=C(NCCc1ccccc1)Oc1ccccc1C(=O)[N-]c1cccc([N-]S(=O)(=O)Cc2ccccc2)c1

>  <Energy>  (73) 
71.83291465090876

>  <Genealogy>  (73) 
O=C(NCCc1ccccc1)Oc1ccccc1C(=O)[N-]c1cccc([N-]S(=O)(=O)Cc2ccccc2)c1 (protonated)
O=C(NCCc1ccccc1)Oc1ccccc1C(=O)[N-]c1cccc([N-]S(=O)(=O)Cc2ccccc2)c1 (3D coordinates assigned)
O=C(NCCc1ccccc1)Oc1ccccc1C(=O)[N-]c1cccc([N-]S(=O)(=O)Cc2ccccc2)c1 (optimized conformer: 71.83291465090876 kcal/mol)

>  <smiles>  (73) 
O=C(NCCc1ccccc1)Oc1ccccc1C(=O)Nc1cccc(NS(=O)(=O)Cc2ccccc2)c1

>  <score_type>  (73) 
oracle

>  <origin>  (73) 
adg

>  <m_score__min__energy>  (73) 
-12.15

>  <m_primary>  (73) 
energy

$$$$
73:0
     RDKit          3D

 70 73  0  0  0  0  0  0  0  0999 V2000
   61.8300   31.7220   50.8130 C   0  0  0  0  0  0  0  0  0  0  0  0
   60.9230   32.4330   49.8370 C   0  0  0  0  0  0  0  0  0  0  0  0
   61.1190   33.8090   49.6350 C   0  0  0  0  0  0  0  0  0  0  0  0
   60.3050   34.5060   48.7500 C   0  0  0  0  0  0  0  0  0  0  0  0
   59.3030   33.8440   48.0500 C   0  0  0  0  0  0  0  0  0  0  0  0
   58.4850   34.6200   47.1620 N   0  0  0  0  0  0  0  0  0  0  0  0
   58.1360   34.2510   45.5030 S   0  0  0  0  0  0  0  0  0  0  0  0
   56.6520   34.1240   45.3080 O   0  0  0  0  0  0  0  0  0  0  0  0
   58.6820   35.3300   44.6120 O   0  0  0  0  0  0  0  0  0  0  0  0
   58.9020   32.6950   45.0850 C   0  0  0  0  0  0  0  0  0  0  0  0
   57.9510   31.8570   44.2730 C   0  0  0  0  0  0  0  0  0  0  0  0
   57.1910   30.8440   44.8860 C   0  0  0  0  0  0  0  0  0  0  0  0
   56.3480   30.0350   44.1170 C   0  0  0  0  0  0  0  0  0  0  0  0
   56.2640   30.2280   42.7330 C   0  0  0  0  0  0  0  0  0  0  0  0
   57.0240   31.2260   42.1150 C   0  0  0  0  0  0  0  0  0  0  0  0
   57.8670   32.0370   42.8800 C   0  0  0  0  0  0  0  0  0  0  0  0
   59.1080   32.4610   48.2740 C   0  0  0  0  0  0  0  0  0  0  0  0
   58.1610   31.8630   47.6920 O   0  0  0  0  0  0  0  0  0  0  0  0
   59.9220   31.7710   49.1480 N   0  0  0  0  0  0  0  0  0  0  0  0
   59.6460   30.3380   49.4090 C   0  0  0  0  0  0  0  0  0  0  0  0
   60.1610   29.4890   48.2780 C   0  0  0  0  0  0  0  0  0  0  0  0
   60.5370   28.3070   48.5100 O   0  0  0  0  0  0  0  0  0  0  0  0
   60.1890   30.0060   46.9380 N   0  0  0  0  0  0  0  0  0  0  0  0
   60.7900   29.2650   45.8350 C   0  0  0  0  0  0  0  0  0  0  0  0
   59.8490   28.2030   45.3330 C   0  0  0  0  0  0  0  0  0  0  0  0
   59.1470   28.3830   44.1280 C   0  0  0  0  0  0  0  0  0  0  0  0
   58.2650   27.3980   43.6760 C   0  0  0  0  0  0  0  0  0  0  0  0
   58.0810   26.2270   44.4130 C   0  0  0  0  0  0  0  0  0  0  0  0
   58.7850   26.0260   45.6090 C   0  0  0  0  0  0  0  0  0  0  0  0
   58.5890   24.7630   46.4100 C   0  0  0  0  0  0  0  0  0  0  0  0
   58.9680   23.5230   45.6330 C   0  0  0  0  0  0  0  0  0  0  0  0
   60.1870   23.1810   45.5700 O   0  0  0  0  0  0  0  0  0  0  0  0
   57.9650   22.7100   44.9830 N   0  0  0  0  0  0  0  0  0  0  0  0
   58.4040   21.7930   43.9140 C   0  0  0  0  0  0  0  0  0  0  0  0
   57.2400   21.1260   43.1500 C   0  0  0  0  0  0  0  0  0  0  0  0
   56.0230   21.8280   43.2830 O   0  0  0  0  0  0  0  0  0  0  0  0
   55.6590   21.8500   44.6470 C   0  0  0  0  0  0  0  0  0  0  0  0
   56.5590   22.8200   45.4050 C   0  0  0  0  0  0  0  0  0  0  0  0
   59.6600   27.0240   46.0710 C   0  0  0  0  0  0  0  0  0  0  0  0
   61.5227   31.9629   51.8414 H   0  0  0  0  0  0  0  0  0  0  0  0
   61.7599   30.6358   50.6543 H   0  0  0  0  0  0  0  0  0  0  0  0
   62.8681   32.0495   50.6543 H   0  0  0  0  0  0  0  0  0  0  0  0
   61.9177   34.3357   50.1779 H   0  0  0  0  0  0  0  0  0  0  0  0
   60.4543   35.5859   48.6029 H   0  0  0  0  0  0  0  0  0  0  0  0
   59.8137   32.8832   44.4990 H   0  0  0  0  0  0  0  0  0  0  0  0
   59.1585   32.1578   46.0100 H   0  0  0  0  0  0  0  0  0  0  0  0
   57.2599   30.6878   45.9727 H   0  0  0  0  0  0  0  0  0  0  0  0
   55.7511   29.2472   44.5997 H   0  0  0  0  0  0  0  0  0  0  0  0
   55.5984   29.5929   42.1300 H   0  0  0  0  0  0  0  0  0  0  0  0
   56.9584   31.3728   41.0268 H   0  0  0  0  0  0  0  0  0  0  0  0
   58.4670   32.8188   42.3913 H   0  0  0  0  0  0  0  0  0  0  0  0
   60.1433   30.0376   50.3430 H   0  0  0  0  0  0  0  0  0  0  0  0
   58.5589   30.1945   49.4959 H   0  0  0  0  0  0  0  0  0  0  0  0
   59.8160   30.9650   46.7540 H   0  0  0  0  0  0  0  0  0  0  0  0
   61.0196   29.9612   45.0148 H   0  0  0  0  0  0  0  0  0  0  0  0
   61.7106   28.7813   46.1936 H   0  0  0  0  0  0  0  0  0  0  0  0
   59.2925   29.3012   43.5399 H   0  0  0  0  0  0  0  0  0  0  0  0
   57.7136   27.5460   42.7358 H   0  0  0  0  0  0  0  0  0  0  0  0
   57.3807   25.4584   44.0540 H   0  0  0  0  0  0  0  0  0  0  0  0
   59.2131   24.8178   47.3142 H   0  0  0  0  0  0  0  0  0  0  0  0
   57.5208   24.6877   46.6614 H   0  0  0  0  0  0  0  0  0  0  0  0
   59.0097   22.3634   43.1945 H   0  0  0  0  0  0  0  0  0  0  0  0
   58.9746   20.9863   44.3974 H   0  0  0  0  0  0  0  0  0  0  0  0
   57.5025   21.0774   42.0829 H   0  0  0  0  0  0  0  0  0  0  0  0
   57.0927   20.1247   43.5809 H   0  0  0  0  0  0  0  0  0  0  0  0
   54.6119   22.1739   44.7406 H   0  0  0  0  0  0  0  0  0  0  0  0
   55.7735   20.8412   45.0703 H   0  0  0  0  0  0  0  0  0  0  0  0
   56.2113   23.8469   45.2187 H   0  0  0  0  0  0  0  0  0  0  0  0
   56.5041   22.5700   46.4748 H   0  0  0  0  0  0  0  0  0  0  0  0
   60.2008   26.8802   47.0180 H   0  0  0  0  0  0  0  0  0  0  0  0
  1  2  1  0
  2  3  2  0
  3  4  1  0
  4  5  2  0
  5  6  1  0
  6  7  1  0
  7  8  2  0
  7  9  2  0
  7 10  1  0
 10 11  1  0
 11 12  2  0
 12 13  1  0
 13 14  2  0
 14 15  1  0
 15 16  2  0
  5 17  1  0
 17 18  2  0
 17 19  1  0
 19 20  1  0
 20 21  1  0
 21 22  2  0
 21 23  1  0
 23 24  1  0
 24 25  1  0
 25 26  2  0
 26 27  1  0
 27 28  2  0
 28 29  1  0
 29 30  1  0
 30 31  1  0
 31 32  2  0
 31 33  1  0
 33 34  1  0
 34 35  1  0
 35 36  1  0
 36 37  1  0
 37 38  1  0
 29 39  2  0
 19  2  1  0
 39 25  1  0
 16 11  1  0
 38 33  1  0
  1 40  1  0
  1 41  1  0
  1 42  1  0
  3 43  1  0
  4 44  1  0
 10 45  1  0
 10 46  1  0
 12 47  1  0
 13 48  1  0
 14 49  1  0
 15 50  1  0
 16 51  1  0
 20 52  1  0
 20 53  1  0
 23 54  1  0
 24 55  1  0
 24 56  1  0
 26 57  1  0
 27 58  1  0
 28 59  1  0
 30 60  1  0
 30 61  1  0
 34 62  1  0
 34 63  1  0
 35 64  1  0
 35 65  1  0
 37 66  1  0
 37 67  1  0
 38 68  1  0
 38 69  1  0
 39 70  1  0
M  CHG  1   6  -1
M  END
>  <UniqueID>  (74) 
70

>  <SMILES>  (74) 
Cc1ccc([N-]S(=O)(=O)Cc2ccccc2)c(=O)n1CC(=O)NCc1cccc(CC(=O)N2CCOCC2)c1

>  <Energy>  (74) 
81.14006171845973

>  <Genealogy>  (74) 
Cc1ccc([N-]S(=O)(=O)Cc2ccccc2)c(=O)n1CC(=O)NCc1cccc(CC(=O)N2CCOCC2)c1 (protonated)
Cc1ccc([N-]S(=O)(=O)Cc2ccccc2)c(=O)n1CC(=O)NCc1cccc(CC(=O)N2CCOCC2)c1 (3D coordinates assigned)
Cc1ccc([N-]S(=O)(=O)Cc2ccccc2)c(=O)n1CC(=O)NCc1cccc(CC(=O)N2CCOCC2)c1 (nonaromatic ring conformer: 81.14006171845973 kcal/mol)

>  <smiles>  (74) 
Cc1ccc(NS(=O)(=O)Cc2ccccc2)c(=O)n1CC(=O)NCc1cccc(CC(=O)N2CCOCC2)c1

>  <score_type>  (74) 
oracle

>  <origin>  (74) 
adg

>  <m_score__min__energy>  (74) 
-12.77

>  <m_primary>  (74) 
energy

$$$$
74:0
     RDKit          3D

 54 56  0  0  0  0  0  0  0  0999 V2000
   57.4350   30.8960   44.9510 C   0  0  0  0  0  0  0  0  0  0  0  0
   57.7260   32.3300   44.5840 C   0  0  0  0  0  0  0  0  0  0  0  0
   58.0940   32.6720   43.1590 C   0  0  0  0  0  0  0  0  0  0  0  0
   57.6210   33.2740   45.5450 C   0  0  0  0  0  0  0  0  0  0  0  0
   58.6750   34.3160   45.8370 C   0  0  0  0  0  0  0  0  0  0  0  0
   58.8540   34.5580   47.3530 C   0  0  0  0  0  0  0  0  0  0  0  0
   59.5220   33.3920   48.1230 C   0  0  1  0  0  0  0  0  0  0  0  0
   60.3230   32.4810   47.1810 C   0  0  0  0  0  0  0  0  0  0  0  0
   60.4860   33.9780   49.1430 C   0  0  0  0  0  0  0  0  0  0  0  0
   60.6090   33.4700   50.3740 C   0  0  0  0  0  0  0  0  0  0  0  0
   59.7180   32.3940   50.8340 C   0  0  0  0  0  0  0  0  0  0  0  0
   59.8770   31.8050   52.0930 C   0  0  0  0  0  0  0  0  0  0  0  0
   58.9860   30.8140   52.5190 C   0  0  0  0  0  0  0  0  0  0  0  0
   57.9270   30.4060   51.6840 C   0  0  0  0  0  0  0  0  0  0  0  0
   56.9980   29.4300   52.0760 O   0  0  0  0  0  0  0  0  0  0  0  0
   56.2890   29.4250   53.2840 C   0  0  0  0  0  0  0  0  0  0  0  0
   56.8740   29.6730   54.3750 O   0  0  0  0  0  0  0  0  0  0  0  0
   54.8450   29.1260   53.2480 C   0  0  0  0  0  0  0  0  0  0  0  0
   53.8550   30.0090   53.4620 C   0  0  0  0  0  0  0  0  0  0  0  0
   52.9750   30.5760   52.4200 C   0  0  0  0  0  0  0  0  0  0  0  0
   52.9730   30.0650   51.1110 C   0  0  0  0  0  0  0  0  0  0  0  0
   52.1680   30.6490   50.1280 C   0  0  0  0  0  0  0  0  0  0  0  0
   51.3770   31.7590   50.4370 C   0  0  0  0  0  0  0  0  0  0  0  0
   50.5770   32.3350   49.4560 O   0  0  0  0  0  0  0  0  0  0  0  0
   51.3980   32.2930   51.7320 C   0  0  0  0  0  0  0  0  0  0  0  0
   50.6230   33.4060   52.0420 O   0  0  0  0  0  0  0  0  0  0  0  0
   52.2020   31.7100   52.7160 C   0  0  0  0  0  0  0  0  0  0  0  0
   57.7610   31.0210   50.4370 C   0  0  0  0  0  0  0  0  0  0  0  0
   58.6610   32.0010   50.0070 C   0  0  0  0  0  0  0  0  0  0  0  0
   58.4980   32.6090   48.7590 O   0  0  0  0  0  0  0  0  0  0  0  0
   57.4144   30.7947   46.0461 H   0  0  0  0  0  0  0  0  0  0  0  0
   56.4590   30.6024   44.5372 H   0  0  0  0  0  0  0  0  0  0  0  0
   58.2194   30.2452   44.5372 H   0  0  0  0  0  0  0  0  0  0  0  0
   58.8998   33.4208   43.1580 H   0  0  0  0  0  0  0  0  0  0  0  0
   58.4365   31.7642   42.6408 H   0  0  0  0  0  0  0  0  0  0  0  0
   57.2137   33.0800   42.6408 H   0  0  0  0  0  0  0  0  0  0  0  0
   56.7063   33.2844   46.1559 H   0  0  0  0  0  0  0  0  0  0  0  0
   59.6336   33.9774   45.4169 H   0  0  0  0  0  0  0  0  0  0  0  0
   58.3492   35.2623   45.3806 H   0  0  0  0  0  0  0  0  0  0  0  0
   59.4757   35.4558   47.4850 H   0  0  0  0  0  0  0  0  0  0  0  0
   57.8421   34.6652   47.7708 H   0  0  0  0  0  0  0  0  0  0  0  0
   60.9342   31.7858   47.7752 H   0  0  0  0  0  0  0  0  0  0  0  0
   59.6297   31.9093   46.5465 H   0  0  0  0  0  0  0  0  0  0  0  0
   60.9787   33.0954   46.5465 H   0  0  0  0  0  0  0  0  0  0  0  0
   61.1003   34.8454   48.8598 H   0  0  0  0  0  0  0  0  0  0  0  0
   61.3844   33.8608   51.0493 H   0  0  0  0  0  0  0  0  0  0  0  0
   60.7024   32.1210   52.7479 H   0  0  0  0  0  0  0  0  0  0  0  0
   59.1127   30.3518   53.5091 H   0  0  0  0  0  0  0  0  0  0  0  0
   54.5529   28.0889   53.0265 H   0  0  0  0  0  0  0  0  0  0  0  0
   53.6860   30.3365   54.4984 H   0  0  0  0  0  0  0  0  0  0  0  0
   53.6071   29.2023   50.8586 H   0  0  0  0  0  0  0  0  0  0  0  0
   52.1573   30.2339   49.1094 H   0  0  0  0  0  0  0  0  0  0  0  0
   52.2291   32.1420   53.7273 H   0  0  0  0  0  0  0  0  0  0  0  0
   56.9181   30.7316   49.7922 H   0  0  0  0  0  0  0  0  0  0  0  0
  1  2  1  0
  2  3  1  0
  2  4  2  3
  4  5  1  0
  5  6  1  0
  7  6  1  6
  7  8  1  0
  7  9  1  0
  9 10  2  0
 10 11  1  0
 11 12  2  0
 12 13  1  0
 13 14  2  0
 14 15  1  0
 15 16  1  0
 16 17  2  0
 16 18  1  0
 18 19  2  3
 19 20  1  0
 20 21  2  0
 21 22  1  0
 22 23  2  0
 23 24  1  0
 23 25  1  0
 25 26  1  0
 25 27  2  0
 14 28  1  0
 28 29  2  0
 29 30  1  0
 30  7  1  0
 29 11  1  0
 27 20  1  0
  1 31  1  0
  1 32  1  0
  1 33  1  0
  3 34  1  0
  3 35  1  0
  3 36  1  0
  4 37  1  0
  5 38  1  0
  5 39  1  0
  6 40  1  0
  6 41  1  0
  8 42  1  0
  8 43  1  0
  8 44  1  0
  9 45  1  0
 10 46  1  0
 12 47  1  0
 13 48  1  0
 18 49  1  0
 19 50  1  0
 21 51  1  0
 22 52  1  0
 27 53  1  0
 28 54  1  0
M  CHG  2  24  -1  26  -1
M  END
>  <UniqueID>  (75) 
71

>  <SMILES>  (75) 
CC(C)=CCC[C@@]1(C)C=Cc2ccc(OC(=O)C=Cc3ccc([O-])c([O-])c3)cc2O1

>  <Energy>  (75) 
64.65547477590192

>  <Genealogy>  (75) 
CC(C)=CCCC1(C)C=Cc2ccc(OC(=O)C=Cc3ccc([O-])c([O-])c3)cc2O1 (protonated)
CC(C)=CCC[C@@]1(C)C=Cc2ccc(OC(=O)C=Cc3ccc([O-])c([O-])c3)cc2O1 (chirality)
CC(C)=CCC[C@@]1(C)C=Cc2ccc(OC(=O)C=Cc3ccc([O-])c([O-])c3)cc2O1 (3D coordinates assigned)
CC(C)=CCC[C@@]1(C)C=Cc2ccc(OC(=O)C=Cc3ccc([O-])c([O-])c3)cc2O1 (nonaromatic ring conformer: 64.65547477590192 kcal/mol)

>  <smiles>  (75) 
CC(C)=CCCC1(C)C=Cc2ccc(OC(=O)C=Cc3ccc(O)c(O)c3)cc2O1

>  <score_type>  (75) 
oracle

>  <origin>  (75) 
adg

>  <m_score__min__energy>  (75) 
-18.030000000000001

>  <m_primary>  (75) 
energy

$$$$
75:0
     RDKit          3D

 53 56  0  0  0  0  0  0  0  0999 V2000
   61.5820   29.2030   50.8500 C   0  0  0  0  0  0  0  0  0  0  0  0
   61.0220   30.3690   50.0910 C   0  0  0  0  0  0  0  0  0  0  0  0
   59.7220   30.8220   50.3310 C   0  0  0  0  0  0  0  0  0  0  0  0
   59.2120   31.8900   49.6030 C   0  0  0  0  0  0  0  0  0  0  0  0
   60.0050   32.5030   48.6290 C   0  0  0  0  0  0  0  0  0  0  0  0
   59.4980   33.5510   47.9280 N   0  0  0  0  0  0  0  0  0  0  0  0
   60.2240   34.1820   46.9730 C   0  0  0  0  0  0  0  0  0  0  0  0
   59.6470   35.3660   46.2630 C   0  0  0  0  0  0  0  0  0  0  0  0
   59.0590   34.9250   45.0460 O   0  0  0  0  0  0  0  0  0  0  0  0
   57.8970   34.1500   44.9870 C   0  0  0  0  0  0  0  0  0  0  0  0
   56.7650   34.6880   45.1250 O   0  0  0  0  0  0  0  0  0  0  0  0
   58.0150   32.6960   44.7410 C   0  0  0  0  0  0  0  0  0  0  0  0
   57.3830   32.0920   43.6400 C   0  0  0  0  0  0  0  0  0  0  0  0
   57.5490   30.7220   43.3950 C   0  0  0  0  0  0  0  0  0  0  0  0
   58.3380   29.9460   44.2480 C   0  0  0  0  0  0  0  0  0  0  0  0
   58.9470   30.5300   45.3670 C   0  0  0  0  0  0  0  0  0  0  0  0
   59.7810   29.7280   46.2120 N   0  0  0  0  0  0  0  0  0  0  0  0
   59.3120   28.5900   46.9420 C   0  0  0  0  0  0  0  0  0  0  0  0
   58.6510   28.7450   48.0050 O   0  0  0  0  0  0  0  0  0  0  0  0
   59.6600   27.2130   46.4780 C   0  0  0  0  0  0  0  0  0  0  0  0
   58.4260   26.3510   46.4960 C   0  0  0  0  0  0  0  0  0  0  0  0
   58.5330   24.9600   46.6420 C   0  0  0  0  0  0  0  0  0  0  0  0
   57.3880   24.1570   46.6140 C   0  0  0  0  0  0  0  0  0  0  0  0
   56.1270   24.7330   46.4300 C   0  0  0  0  0  0  0  0  0  0  0  0
   55.0000   23.9150   46.4270 O   0  0  0  0  0  0  0  0  0  0  0  0
   56.0150   26.1240   46.2570 C   0  0  0  0  0  0  0  0  0  0  0  0
   54.7720   26.7110   46.0540 O   0  0  0  0  0  0  0  0  0  0  0  0
   57.1600   26.9260   46.2870 C   0  0  0  0  0  0  0  0  0  0  0  0
   58.7950   31.9050   45.6000 C   0  0  0  0  0  0  0  0  0  0  0  0
   61.5290   33.7610   46.7090 C   0  0  0  0  0  0  0  0  0  0  0  0
   62.0500   32.6860   47.4310 C   0  0  0  0  0  0  0  0  0  0  0  0
   63.2340   32.3110   47.1900 O   0  0  0  0  0  0  0  0  0  0  0  0
   61.2860   32.0560   48.3870 N   0  0  0  0  0  0  0  0  0  0  0  0
   61.7880   30.9950   49.0990 C   0  0  0  0  0  0  0  0  0  0  0  0
   61.4917   29.3911   51.9300 H   0  0  0  0  0  0  0  0  0  0  0  0
   61.0229   28.2925   50.5883 H   0  0  0  0  0  0  0  0  0  0  0  0
   62.6421   29.0702   50.5883 H   0  0  0  0  0  0  0  0  0  0  0  0
   59.1020   30.3328   51.0967 H   0  0  0  0  0  0  0  0  0  0  0  0
   58.1902   32.2509   49.7921 H   0  0  0  0  0  0  0  0  0  0  0  0
   58.8805   35.8390   46.8945 H   0  0  0  0  0  0  0  0  0  0  0  0
   60.4390   36.0998   46.0526 H   0  0  0  0  0  0  0  0  0  0  0  0
   56.7560   32.6968   42.9684 H   0  0  0  0  0  0  0  0  0  0  0  0
   57.0566   30.2563   42.5286 H   0  0  0  0  0  0  0  0  0  0  0  0
   58.4814   28.8752   44.0409 H   0  0  0  0  0  0  0  0  0  0  0  0
   60.0590   27.2609   45.4540 H   0  0  0  0  0  0  0  0  0  0  0  0
   60.4188   26.7813   47.1471 H   0  0  0  0  0  0  0  0  0  0  0  0
   59.5220   24.4985   46.7792 H   0  0  0  0  0  0  0  0  0  0  0  0
   57.4798   23.0678   46.7372 H   0  0  0  0  0  0  0  0  0  0  0  0
   54.0720   24.2800   46.2570 H   0  0  0  0  0  0  0  0  0  0  0  0
   57.0698   28.0132   46.1463 H   0  0  0  0  0  0  0  0  0  0  0  0
   59.2921   32.3685   46.4649 H   0  0  0  0  0  0  0  0  0  0  0  0
   62.1363   34.2681   45.9448 H   0  0  0  0  0  0  0  0  0  0  0  0
   62.8046   30.6318   48.8879 H   0  0  0  0  0  0  0  0  0  0  0  0
  1  2  1  0
  2  3  1  0
  3  4  2  0
  4  5  1  0
  5  6  2  0
  6  7  1  0
  7  8  1  0
  8  9  1  0
  9 10  1  0
 10 11  2  0
 10 12  1  0
 12 13  2  0
 13 14  1  0
 14 15  2  0
 15 16  1  0
 16 17  1  0
 17 18  1  0
 18 19  2  0
 18 20  1  0
 20 21  1  0
 21 22  2  0
 22 23  1  0
 23 24  2  0
 24 25  1  0
 24 26  1  0
 26 27  1  0
 26 28  2  0
 16 29  2  0
  7 30  2  0
 30 31  1  0
 31 32  2  0
 31 33  1  0
 33 34  1  0
 34  2  2  0
 33  5  1  0
 29 12  1  0
 28 21  1  0
  1 35  1  0
  1 36  1  0
  1 37  1  0
  3 38  1  0
  4 39  1  0
  8 40  1  0
  8 41  1  0
 13 42  1  0
 14 43  1  0
 15 44  1  0
 20 45  1  0
 20 46  1  0
 22 47  1  0
 23 48  1  0
 25 49  1  0
 28 50  1  0
 29 51  1  0
 30 52  1  0
 34 53  1  0
M  CHG  2  17  -1  27  -1
M  END
>  <UniqueID>  (76) 
72

>  <SMILES>  (76) 
Cc1ccc2nc(COC(=O)c3cccc([N-]C(=O)Cc4ccc(O)c([O-])c4)c3)cc(=O)n2c1

>  <Energy>  (76) 
58.91153268131094

>  <Genealogy>  (76) 
Cc1ccc2nc(COC(=O)c3cccc([N-]C(=O)Cc4ccc(O)c([O-])c4)c3)cc(=O)n2c1 (protonated)
Cc1ccc2nc(COC(=O)c3cccc([N-]C(=O)Cc4ccc(O)c([O-])c4)c3)cc(=O)n2c1 (3D coordinates assigned)
Cc1ccc2nc(COC(=O)c3cccc([N-]C(=O)Cc4ccc(O)c([O-])c4)c3)cc(=O)n2c1 (optimized conformer: 58.91153268131094 kcal/mol)

>  <smiles>  (76) 
Cc1ccc2nc(COC(=O)c3cccc(NC(=O)Cc4ccc(O)c(O)c4)c3)cc(=O)n2c1

>  <score_type>  (76) 
oracle

>  <origin>  (76) 
adg

>  <m_score__min__energy>  (76) 
-14.710000000000001

>  <m_primary>  (76) 
energy

$$$$
76:0
     RDKit          3D

 43 45  0  0  0  0  0  0  0  0999 V2000
   63.3870   33.4440   47.0100 C   0  0  0  0  0  0  0  0  0  0  0  0
   62.0750   33.8080   46.3620 C   0  0  0  0  0  0  0  0  0  0  0  0
   61.0050   33.0270   46.7760 O   0  0  0  0  0  0  0  0  0  0  0  0
   60.7390   32.6250   48.0470 C   0  0  0  0  0  0  0  0  0  0  0  0
   60.5660   33.6250   49.0100 C   0  0  0  0  0  0  0  0  0  0  0  0
   60.2910   33.3170   50.3290 C   0  0  0  0  0  0  0  0  0  0  0  0
   60.1960   31.9810   50.6390 C   0  0  0  0  0  0  0  0  0  0  0  0
   60.3660   31.0030   49.6900 C   0  0  0  0  0  0  0  0  0  0  0  0
   60.6480   31.3040   48.3390 C   0  0  0  0  0  0  0  0  0  0  0  0
   60.8210   30.1570   47.4500 C   0  0  0  0  0  0  0  0  0  0  0  0
   59.6530   29.4600   47.0340 N   0  0  0  0  0  0  0  0  0  0  0  0
   59.5530   28.1490   47.4120 C   0  0  0  0  0  0  0  0  0  0  0  0
   60.5450   27.5400   48.1880 O   0  0  0  0  0  0  0  0  0  0  0  0
   58.4890   27.3560   47.0610 C   0  0  0  0  0  0  0  0  0  0  0  0
   56.5360   29.6720   45.1200 C   0  0  0  0  0  0  0  0  0  0  0  0
   56.5290   27.0740   46.0220 O   0  0  0  0  0  0  0  0  0  0  0  0
   57.5420   29.1660   45.9070 C   0  0  0  0  0  0  0  0  0  0  0  0
   57.4490   27.8550   46.2930 C   0  0  0  0  0  0  0  0  0  0  0  0
   55.4990   29.1020   44.7110 N   0  0  0  0  0  0  0  0  0  0  0  0
   56.6910   30.9770   44.7350 N   0  0  0  0  0  0  0  0  0  0  0  0
   57.7270   31.7410   45.0740 C   0  0  0  0  0  0  0  0  0  0  0  0
   57.8410   33.4400   44.5190 S   0  0  0  0  0  0  0  0  0  0  0  0
   58.4750   34.3860   45.9580 C   0  0  0  0  0  0  0  0  0  0  0  0
   58.6820   31.1940   45.8460 N   0  0  0  0  0  0  0  0  0  0  0  0
   58.6490   29.9290   46.2920 C   0  0  0  0  0  0  0  0  0  0  0  0
   63.2766   33.4746   48.1040 H   0  0  0  0  0  0  0  0  0  0  0  0
   63.6807   32.4305   46.6993 H   0  0  0  0  0  0  0  0  0  0  0  0
   64.1609   34.1614   46.6993 H   0  0  0  0  0  0  0  0  0  0  0  0
   61.8502   34.8577   46.6019 H   0  0  0  0  0  0  0  0  0  0  0  0
   62.1951   33.6366   45.2821 H   0  0  0  0  0  0  0  0  0  0  0  0
   60.6508   34.6801   48.7107 H   0  0  0  0  0  0  0  0  0  0  0  0
   60.1553   34.0993   51.0903 H   0  0  0  0  0  0  0  0  0  0  0  0
   59.9777   31.6871   51.6763 H   0  0  0  0  0  0  0  0  0  0  0  0
   60.2796   29.9489   49.9923 H   0  0  0  0  0  0  0  0  0  0  0  0
   61.3285   30.5179   46.5432 H   0  0  0  0  0  0  0  0  0  0  0  0
   61.3833   29.4246   48.0479 H   0  0  0  0  0  0  0  0  0  0  0  0
   60.7690   26.5530   48.0210 H   0  0  0  0  0  0  0  0  0  0  0  0
   58.4614   26.3081   47.3945 H   0  0  0  0  0  0  0  0  0  0  0  0
   55.1580   28.1840   44.8810 H   0  0  0  0  0  0  0  0  0  0  0  0
   58.1489   33.8995   46.8891 H   0  0  0  0  0  0  0  0  0  0  0  0
   59.5741   34.4128   45.9237 H   0  0  0  0  0  0  0  0  0  0  0  0
   58.0820   35.4128   45.9237 H   0  0  0  0  0  0  0  0  0  0  0  0
   59.4860   31.8180   46.0690 H   0  0  0  0  0  0  0  0  0  0  0  0
  1  2  1  0
  2  3  1  0
  3  4  1  0
  4  5  2  0
  5  6  1  0
  6  7  2  0
  7  8  1  0
  8  9  2  0
  9 10  1  0
 10 11  1  0
 11 12  1  0
 12 13  1  0
 12 14  2  0
 14 15  1  0
 15 16  2  0
 15 17  1  0
 17 18  1  0
 18 19  2  3
 18 20  1  0
 20 21  2  0
 21 22  1  0
 22 23  1  0
 21 24  1  0
 24 25  1  0
  9  4  1  0
 25 11  1  0
 25 17  2  0
  1 26  1  0
  1 27  1  0
  1 28  1  0
  2 29  1  0
  2 30  1  0
  5 31  1  0
  6 32  1  0
  7 33  1  0
  8 34  1  0
 10 35  1  0
 10 36  1  0
 13 37  1  0
 14 38  1  0
 19 39  1  0
 23 40  1  0
 23 41  1  0
 23 42  1  0
 24 43  1  0
M  END
>  <smiles>  (77) 
CCOc1ccccc1Cn1c(O)cc(=O)c2c(=N)nc(SC)[nH]c21

>  <score_type>  (77) 
oracle

>  <origin>  (77) 
adg

>  <m_score__min__energy>  (77) 
-6.8700000000000001

>  <m_primary>  (77) 
energy

$$$$
77:0
     RDKit          3D

 55 57  0  0  1  0  0  0  0  0999 V2000
   58.0730   32.3060   42.1370 C   0  0  0  0  0  0  0  0  0  0  0  0
   57.9160   31.6130   43.2770 C   0  0  0  0  0  0  0  0  0  0  0  0
   57.6000   30.3060   43.3030 N   0  0  0  0  0  0  0  0  0  0  0  0
   57.5280   29.9430   44.5910 C   0  0  0  0  0  0  0  0  0  0  0  0
   58.8630   34.7490   46.9290 C   0  0  0  0  0  0  0  0  0  0  0  0
   58.1060   28.0210   46.0010 C   0  0  0  0  0  0  0  0  0  0  0  0
   58.8940   28.6360   46.9010 N   0  0  0  0  0  0  0  0  0  0  0  0
   59.5450   27.6680   47.5620 C   0  0  0  0  0  0  0  0  0  0  0  0
   59.1930   26.4560   47.1080 N   0  0  0  0  0  0  0  0  0  0  0  0
   58.2780   26.6450   46.1130 C   0  0  0  0  0  0  0  0  0  0  0  0
   57.6070   25.5780   45.3400 C   0  0  0  0  0  0  0  0  0  0  0  0
   58.2930   24.2600   45.6380 C   0  0  0  0  0  0  0  0  0  0  0  0
   57.7650   25.8590   43.8810 C   0  0  0  0  0  0  0  0  0  0  0  0
   56.1520   25.4390   45.7530 C   0  0  0  0  0  0  0  0  0  0  0  0
   57.8020   31.0360   45.3990 C   0  0  0  0  0  0  0  0  0  0  0  0
   57.8370   31.1140   46.7850 O   0  0  0  0  0  0  0  0  0  0  0  0
   58.0480   32.0990   44.5590 C   0  0  0  0  0  0  0  0  0  0  0  0
   58.3900   33.4680   44.9810 C   0  0  0  0  0  0  0  0  0  0  0  0
   58.8640   34.2760   44.1470 O   0  0  0  0  0  0  0  0  0  0  0  0
   58.1620   33.8270   46.3610 N   0  0  0  0  0  0  0  0  0  0  0  0
   57.2500   28.7480   45.0750 C   0  0  0  0  0  0  0  0  0  0  0  0
   60.2970   34.5710   47.2720 C   0  0  0  0  0  0  0  0  0  0  0  0
   60.5360   33.3550   48.0130 N   0  0  0  0  0  0  0  0  0  0  0  0
   59.4200   33.1280   48.8960 C   0  0  0  0  0  0  0  0  0  0  0  0
   59.4800   31.7610   49.5440 C   0  0  0  0  0  0  0  0  0  0  0  0
   59.6860   30.7520   48.6240 O   0  0  0  0  0  0  0  0  0  0  0  0
   60.8900   30.9900   47.9700 C   0  0  0  0  0  0  0  0  0  0  0  0
   60.6920   32.2330   47.1170 C   0  0  0  0  0  0  0  0  0  0  0  0
   58.3319   33.3745   42.1741 H   0  0  0  0  0  0  0  0  0  0  0  0
   57.9427   31.8050   41.1664 H   0  0  0  0  0  0  0  0  0  0  0  0
   57.4280   29.6320   42.5220 H   0  0  0  0  0  0  0  0  0  0  0  0
   58.3785   35.7069   47.1693 H   0  0  0  0  0  0  0  0  0  0  0  0
   59.0270   29.6510   47.1070 H   0  0  0  0  0  0  0  0  0  0  0  0
   60.2711   27.8444   48.3692 H   0  0  0  0  0  0  0  0  0  0  0  0
   58.3648   24.1220   46.7269 H   0  0  0  0  0  0  0  0  0  0  0  0
   57.7094   23.4360   45.2017 H   0  0  0  0  0  0  0  0  0  0  0  0
   59.3028   24.2653   45.2017 H   0  0  0  0  0  0  0  0  0  0  0  0
   58.3001   26.8107   43.7467 H   0  0  0  0  0  0  0  0  0  0  0  0
   58.3385   25.0464   43.4111 H   0  0  0  0  0  0  0  0  0  0  0  0
   56.7727   25.9268   43.4111 H   0  0  0  0  0  0  0  0  0  0  0  0
   56.0815   25.4323   46.8507 H   0  0  0  0  0  0  0  0  0  0  0  0
   55.5750   26.2861   45.3537 H   0  0  0  0  0  0  0  0  0  0  0  0
   55.7458   24.4980   45.3537 H   0  0  0  0  0  0  0  0  0  0  0  0
   58.3330   31.8390   47.2940 H   0  0  0  0  0  0  0  0  0  0  0  0
   56.3111   28.2701   44.7586 H   0  0  0  0  0  0  0  0  0  0  0  0
   60.8821   34.5388   46.3411 H   0  0  0  0  0  0  0  0  0  0  0  0
   60.5988   35.4170   47.9070 H   0  0  0  0  0  0  0  0  0  0  0  0
   59.4285   33.8955   49.6840 H   0  0  0  0  0  0  0  0  0  0  0  0
   58.4975   33.1815   48.2992 H   0  0  0  0  0  0  0  0  0  0  0  0
   60.3054   31.7504   50.2710 H   0  0  0  0  0  0  0  0  0  0  0  0
   58.5114   31.5779   50.0321 H   0  0  0  0  0  0  0  0  0  0  0  0
   61.6920   31.1587   48.7037 H   0  0  0  0  0  0  0  0  0  0  0  0
   61.1775   30.1286   47.3493 H   0  0  0  0  0  0  0  0  0  0  0  0
   61.5682   32.3880   46.4703 H   0  0  0  0  0  0  0  0  0  0  0  0
   59.8057   32.1245   46.4746 H   0  0  0  0  0  0  0  0  0  0  0  0
  1  2  2  0
  2  3  1  0
  3  4  1  0
  4  5  2  0
  5  6  1  0
  6  7  1  0
  7  8  1  0
  8  9  2  0
  9 10  1  0
 10 11  1  0
 11 12  1  0
 11 13  1  0
 11 14  1  0
  4 15  1  0
 15 16  1  0
 15 17  2  0
 17 18  1  0
 18 19  2  0
 18 20  1  0
 20 21  2  0
 21 22  1  0
 22 23  1  0
 23 24  1  0
 24 25  1  0
 25 26  1  0
 26 27  1  0
 27 28  1  0
 17  2  1  0
 28 23  1  0
 10  6  2  0
  1 29  1  0
  1 30  1  0
  3 31  1  0
  5 32  1  0
  7 33  1  0
  8 34  1  0
 12 35  1  0
 12 36  1  0
 12 37  1  0
 13 38  1  0
 13 39  1  0
 13 40  1  0
 14 41  1  0
 14 42  1  0
 14 43  1  0
 16 44  1  0
 21 45  1  0
 22 46  1  0
 22 47  1  0
 24 48  1  0
 24 49  1  0
 25 50  1  0
 25 51  1  0
 27 52  1  0
 27 53  1  0
 28 54  1  0
 28 55  1  0
M  END
>  <smiles>  (78) 
C=c1[nH]c(=Cc2[nH]cnc2C(C)(C)C)c(O)c1C(=O)N=CCN1CCOCC1

>  <score_type>  (78) 
oracle

>  <origin>  (78) 
adg

>  <m_score__min__energy>  (78) 
-9.6999999999999993

>  <m_primary>  (78) 
energy

$$$$
78:0
     RDKit          3D

 42 46  0  0  0  0  0  0  0  0999 V2000
   58.1515   26.6954   44.0171 H   0  0  0  0  0  0  0  0  0  0  0  0
   57.6470   27.0450   44.9300 C   0  0  0  0  0  0  0  0  0  0  0  0
   57.1760   26.0170   45.8800 C   0  0  0  0  0  0  0  0  0  0  0  0
   57.9300   25.0510   46.4350 N   0  0  0  0  0  0  0  0  0  0  0  0
   57.0580   24.3780   47.2160 C   0  0  0  0  0  0  0  0  0  0  0  0
   57.3950   23.3840   47.9100 O   0  0  0  0  0  0  0  0  0  0  0  0
   55.7940   24.8550   47.1940 N   0  0  0  0  0  0  0  0  0  0  0  0
   55.8870   25.8900   46.3450 C   0  0  0  0  0  0  0  0  0  0  0  0
   54.8150   26.7050   46.0010 O   0  0  0  0  0  0  0  0  0  0  0  0
   57.5100   28.3720   45.0890 C   0  0  0  0  0  0  0  0  0  0  0  0
   56.7920   29.3040   44.3310 C   0  0  0  0  0  0  0  0  0  0  0  0
   56.1977   29.0672   43.4362 H   0  0  0  0  0  0  0  0  0  0  0  0
   56.9380   30.5430   44.8640 N   0  0  0  0  0  0  0  0  0  0  0  0
   57.7180   30.4130   45.9230 N   0  0  0  0  0  0  0  0  0  0  0  0
   58.1390   31.3810   46.7710 C   0  0  0  0  0  0  0  0  0  0  0  0
   57.7750   32.6190   46.5910 N   0  0  0  0  0  0  0  0  0  0  0  0
   58.6140   33.8220   46.6960 C   0  0  1  0  0  0  0  0  0  0  0  0
   57.9046   34.6424   46.5125 H   0  0  0  0  0  0  0  0  0  0  0  0
   59.2930   33.9560   48.0580 C   0  0  0  0  0  0  0  0  0  0  0  0
   58.9214   33.1726   48.7350 H   0  0  0  0  0  0  0  0  0  0  0  0
   59.0684   34.9414   48.4922 H   0  0  0  0  0  0  0  0  0  0  0  0
   60.6830   33.8140   47.8880 O   0  0  0  0  0  0  0  0  0  0  0  0
   60.9620   34.1620   46.5540 C   0  0  0  0  0  0  0  0  0  0  0  0
   61.8336   33.5933   46.1978 H   0  0  0  0  0  0  0  0  0  0  0  0
   61.1843   35.2372   46.4862 H   0  0  0  0  0  0  0  0  0  0  0  0
   59.7530   33.8300   45.7010 C   0  0  0  0  0  0  0  0  0  0  0  0
   59.8661   32.8452   45.2242 H   0  0  0  0  0  0  0  0  0  0  0  0
   59.5992   34.5431   44.8777 H   0  0  0  0  0  0  0  0  0  0  0  0
   58.9480   31.0130   47.8070 N   0  0  0  0  0  0  0  0  0  0  0  0
   59.3190   29.7040   47.9770 C   0  0  0  0  0  0  0  0  0  0  0  0
   60.1960   29.3120   49.0980 C   0  0  0  0  0  0  0  0  0  0  0  0
   60.9200   30.2680   49.7450 N   0  0  0  0  0  0  0  0  0  0  0  0
   61.7440   29.9700   50.7850 C   0  0  0  0  0  0  0  0  0  0  0  0
   62.3114   30.7697   51.2835 H   0  0  0  0  0  0  0  0  0  0  0  0
   61.8700   28.6500   51.2200 C   0  0  0  0  0  0  0  0  0  0  0  0
   62.5364   28.4025   52.0595 H   0  0  0  0  0  0  0  0  0  0  0  0
   61.1420   27.6480   50.5790 C   0  0  0  0  0  0  0  0  0  0  0  0
   61.2302   26.6035   50.9127 H   0  0  0  0  0  0  0  0  0  0  0  0
   60.3010   27.9730   49.5130 C   0  0  0  0  0  0  0  0  0  0  0  0
   59.7251   27.1875   49.0019 H   0  0  0  0  0  0  0  0  0  0  0  0
   58.8750   28.7510   47.1050 N   0  0  0  0  0  0  0  0  0  0  0  0
   58.0750   29.1390   46.0840 C   0  0  0  0  0  0  0  0  0  0  0  0
  1  2  1  0
  2  3  1  0
  3  4  1  0
  4  5  1  0
  5  6  2  0
  5  7  1  0
  7  8  1  0
  8  9  1  0
  2 10  2  0
 10 11  1  0
 11 12  1  0
 11 13  2  0
 13 14  1  0
 14 15  1  0
 15 16  2  0
 16 17  1  0
 17 18  1  6
 17 19  1  0
 19 20  1  0
 19 21  1  0
 19 22  1  0
 22 23  1  0
 23 24  1  0
 23 25  1  0
 23 26  1  0
 26 27  1  0
 26 28  1  0
 15 29  1  0
 29 30  2  0
 30 31  1  0
 31 32  2  0
 32 33  1  0
 33 34  1  0
 33 35  2  0
 35 36  1  0
 35 37  1  0
 37 38  1  0
 37 39  2  0
 39 40  1  0
 30 41  1  0
 41 42  2  0
  8  3  2  0
 42 10  1  0
 42 14  1  0
 26 17  1  0
 39 31  1  0
M  CHG  3   4  -1   7  -1   9  -1
M  END
>  <UniqueID>  (79) 
73

>  <SMILES>  (79) 
O=c1[n-]c([O-])c(/C=c2\cnn3/c(=N/[C@@H]4CCOC4)nc(-c4ccccn4)nc23)[n-]1

>  <Energy>  (79) 
121.46946245998298

>  <Genealogy>  (79) 
O=c1[n-]c([O-])c(C=c2cnn3c(=NC4CCOC4)nc(-c4ccccn4)nc23)[n-]1 (protonated)
O=c1[n-]c([O-])c(C=c2cnn3c(=N[C@@H]4CCOC4)nc(-c4ccccn4)nc23)[n-]1 (chirality)
O=c1[n-]c([O-])c(/C=c2\cnn3/c(=N/[C@@H]4CCOC4)nc(-c4ccccn4)nc23)[n-]1 (cis-trans isomerization)
O=c1[n-]c([O-])c(/C=c2\cnn3/c(=N/[C@@H]4CCOC4)nc(-c4ccccn4)nc23)[n-]1 (3D coordinates assigned)
O=c1[n-]c([O-])c(/C=c2\cnn3/c(=N/[C@@H]4CCOC4)nc(-c4ccccn4)nc23)[n-]1 (nonaromatic ring conformer: 121.46946245998298 kcal/mol)

>  <smiles>  (79) 
O=c1[nH]c(O)c(C=c2cnn3c(=NC4CCOC4)nc(-c4ccccn4)nc23)[nH]1

>  <score_type>  (79) 
oracle

>  <origin>  (79) 
adg

>  <m_score__min__energy>  (79) 
-16.050000000000001

>  <m_primary>  (79) 
energy

$$$$
79:0
     RDKit          3D

 44 45  0  0  0  0  0  0  0  0999 V2000
   61.9751   34.8193   49.2876 H   0  0  0  0  0  0  0  0  0  0  0  0
   61.3830   34.2180   48.5820 C   0  0  0  0  0  0  0  0  0  0  0  0
   60.3050   34.7690   47.9680 N   0  0  0  0  0  0  0  0  0  0  0  0
   59.5490   34.0550   47.0990 C   0  0  0  0  0  0  0  0  0  0  0  0
   58.5470   34.6340   46.5040 N   0  0  0  0  0  0  0  0  0  0  0  0
   57.7750   34.0930   45.4200 C   0  0  0  0  0  0  0  0  0  0  0  0
   56.8910   34.8120   44.8850 O   0  0  0  0  0  0  0  0  0  0  0  0
   57.9700   32.7460   44.9650 N   0  0  0  0  0  0  0  0  0  0  0  0
   58.2750   32.0170   45.6480 H   0  0  0  0  0  0  0  0  0  0  0  0
   57.7600   32.3520   43.5730 C   0  0  0  0  0  0  0  0  0  0  0  0
   57.1840   33.1353   43.0586 H   0  0  0  0  0  0  0  0  0  0  0  0
   58.7395   32.2206   43.0901 H   0  0  0  0  0  0  0  0  0  0  0  0
   56.9910   31.0300   43.4970 C   0  0  0  0  0  0  0  0  0  0  0  0
   55.9825   31.2191   43.1006 H   0  0  0  0  0  0  0  0  0  0  0  0
   57.5325   30.3385   42.8347 H   0  0  0  0  0  0  0  0  0  0  0  0
   56.8820   30.4270   44.8310 N   0  0  0  0  0  0  0  0  0  0  0  0
   57.8540   30.2940   45.2010 H   0  0  0  0  0  0  0  0  0  0  0  0
   56.2360   29.1100   44.7750 C   0  0  0  0  0  0  0  0  0  0  0  0
   55.2363   29.1763   45.2290 H   0  0  0  0  0  0  0  0  0  0  0  0
   56.1517   28.7965   43.7240 H   0  0  0  0  0  0  0  0  0  0  0  0
   57.0580   28.0930   45.5270 C   0  0  0  0  0  0  0  0  0  0  0  0
   58.4420   28.2920   45.6650 C   0  0  0  0  0  0  0  0  0  0  0  0
   58.9101   29.1885   45.2323 H   0  0  0  0  0  0  0  0  0  0  0  0
   59.2280   27.3610   46.3470 C   0  0  0  0  0  0  0  0  0  0  0  0
   60.3106   27.5266   46.4496 H   0  0  0  0  0  0  0  0  0  0  0  0
   58.6420   26.2200   46.8990 C   0  0  0  0  0  0  0  0  0  0  0  0
   59.2631   25.4862   47.4336 H   0  0  0  0  0  0  0  0  0  0  0  0
   57.2670   26.0110   46.7720 C   0  0  0  0  0  0  0  0  0  0  0  0
   56.8080   25.1096   47.2041 H   0  0  0  0  0  0  0  0  0  0  0  0
   56.4700   26.9440   46.0970 C   0  0  0  0  0  0  0  0  0  0  0  0
   55.1010   26.7180   45.9990 O   0  0  0  0  0  0  0  0  0  0  0  0
   59.8790   32.7630   46.8330 N   0  0  0  0  0  0  0  0  0  0  0  0
   60.9380   32.1530   47.4230 C   0  0  0  0  0  0  0  0  0  0  0  0
   61.1880   30.7090   47.0960 C   0  0  0  0  0  0  0  0  0  0  0  0
   61.2876   30.1338   48.0283 H   0  0  0  0  0  0  0  0  0  0  0  0
   60.3448   30.3144   46.5100 H   0  0  0  0  0  0  0  0  0  0  0  0
   62.1148   30.6209   46.5100 H   0  0  0  0  0  0  0  0  0  0  0  0
   61.7490   32.8860   48.3240 C   0  0  0  0  0  0  0  0  0  0  0  0
   62.9560   32.3090   48.9770 C   0  0  0  0  0  0  0  0  0  0  0  0
   62.8920   31.1900   49.5510 O   0  0  0  0  0  0  0  0  0  0  0  0
   64.2830   33.0020   48.9120 C   0  0  0  0  0  0  0  0  0  0  0  0
   64.6476   33.1924   49.9322 H   0  0  0  0  0  0  0  0  0  0  0  0
   65.0035   32.3650   48.3780 H   0  0  0  0  0  0  0  0  0  0  0  0
   64.1720   33.9573   48.3780 H   0  0  0  0  0  0  0  0  0  0  0  0
  1  2  1  0
  2  3  1  0
  3  4  1  0
  4  5  2  0
  5  6  1  0
  6  7  2  0
  6  8  1  0
  8  9  1  0
  8 10  1  0
 10 11  1  0
 10 12  1  0
 10 13  1  0
 13 14  1  0
 13 15  1  0
 13 16  1  0
 16 17  1  0
 16 18  1  0
 18 19  1  0
 18 20  1  0
 18 21  1  0
 21 22  2  0
 22 23  1  0
 22 24  1  0
 24 25  1  0
 24 26  2  0
 26 27  1  0
 26 28  1  0
 28 29  1  0
 28 30  2  0
 30 31  1  0
  4 32  1  0
 32 33  2  0
 33 34  1  0
 34 35  1  0
 34 36  1  0
 34 37  1  0
 33 38  1  0
 38 39  1  0
 39 40  2  0
 39 41  1  0
 41 42  1  0
 41 43  1  0
 41 44  1  0
 38  2  2  0
 30 21  1  0
M  CHG  2   3  -1  31  -1
M  END
>  <UniqueID>  (80) 
74

>  <SMILES>  (80) 
CC(=O)c1c[n-]/c(=N/C(=O)NCCNCc2ccccc2[O-])nc1C

>  <Energy>  (80) 
41.97179363922856

>  <Genealogy>  (80) 
CC(=O)c1c[n-]c(=NC(=O)NCCNCc2ccccc2[O-])nc1C (protonated)
CC(=O)c1c[n-]/c(=N/C(=O)NCCNCc2ccccc2[O-])nc1C (cis-trans isomerization)
CC(=O)c1c[n-]/c(=N/C(=O)NCCNCc2ccccc2[O-])nc1C (3D coordinates assigned)
CC(=O)c1c[n-]/c(=N/C(=O)NCCNCc2ccccc2[O-])nc1C (optimized conformer: 41.97179363922856 kcal/mol)

>  <smiles>  (80) 
CC(=O)c1c[nH]c(=NC(=O)NCCNCc2ccccc2O)nc1C

>  <score_type>  (80) 
oracle

>  <origin>  (80) 
adg

>  <m_score__min__energy>  (80) 
-13.039999999999999

>  <m_primary>  (80) 
energy

$$$$
80:0
     RDKit          3D

 52 55  0  0  0  0  0  0  0  0999 V2000
   59.1320   28.0440   46.8270 C   0  0  0  0  0  0  0  0  0  0  0  0
   58.2960   28.5980   45.9350 C   0  0  0  0  0  0  0  0  0  0  0  0
   57.5770   27.9440   44.9180 C   0  0  0  0  0  0  0  0  0  0  0  0
   57.4010   26.6320   44.6600 C   0  0  0  0  0  0  0  0  0  0  0  0
   57.1360   25.5860   45.6670 C   0  0  0  0  0  0  0  0  0  0  0  0
   55.8820   25.4750   46.2920 C   0  0  0  0  0  0  0  0  0  0  0  0
   54.8640   26.3760   45.9970 O   0  0  0  0  0  0  0  0  0  0  0  0
   55.6570   24.4800   47.1900 N   0  0  0  0  0  0  0  0  0  0  0  0
   56.6250   23.5690   47.4810 C   0  0  0  0  0  0  0  0  0  0  0  0
   56.4020   22.6540   48.3170 O   0  0  0  0  0  0  0  0  0  0  0  0
   57.8340   23.6400   46.8670 N   0  0  0  0  0  0  0  0  0  0  0  0
   58.1070   24.6180   45.9650 C   0  0  0  0  0  0  0  0  0  0  0  0
   59.2380   24.6490   45.4100 O   0  0  0  0  0  0  0  0  0  0  0  0
   57.0050   28.9390   44.1450 C   0  0  0  0  0  0  0  0  0  0  0  0
   57.3360   30.1430   44.7310 C   0  0  0  0  0  0  0  0  0  0  0  0
   56.8990   31.4830   44.2190 C   0  0  0  0  0  0  0  0  0  0  0  0
   58.1210   29.9400   45.8130 N   0  0  0  0  0  0  0  0  0  0  0  0
   58.6790   30.9710   46.6490 C   0  0  0  0  0  0  0  0  0  0  0  0
   58.8730   30.7400   48.0190 C   0  0  0  0  0  0  0  0  0  0  0  0
   59.4110   31.7410   48.8330 C   0  0  0  0  0  0  0  0  0  0  0  0
   59.7590   32.9850   48.2870 C   0  0  0  0  0  0  0  0  0  0  0  0
   60.3420   34.0370   49.1380 C   0  0  0  0  0  0  0  0  0  0  0  0
   59.6460   34.5360   50.0600 O   0  0  0  0  0  0  0  0  0  0  0  0
   61.6720   34.5250   48.9340 N   0  0  0  0  0  0  0  0  0  0  0  0
   62.9400   33.6250   48.1600 S   0  0  0  0  0  0  0  0  0  0  0  0
   62.3320   32.6420   47.2010 O   0  0  0  0  0  0  0  0  0  0  0  0
   63.8250   34.5690   47.3960 O   0  0  0  0  0  0  0  0  0  0  0  0
   63.8680   32.7320   49.3620 C   0  0  0  0  0  0  0  0  0  0  0  0
   65.1980   33.0900   49.6160 C   0  0  0  0  0  0  0  0  0  0  0  0
   65.9600   32.3650   50.5370 C   0  0  0  0  0  0  0  0  0  0  0  0
   65.3920   31.2810   51.2140 C   0  0  0  0  0  0  0  0  0  0  0  0
   64.0630   30.9240   50.9710 C   0  0  0  0  0  0  0  0  0  0  0  0
   63.3010   31.6460   50.0460 C   0  0  0  0  0  0  0  0  0  0  0  0
   59.5430   33.2240   46.9220 C   0  0  0  0  0  0  0  0  0  0  0  0
   59.0180   32.2190   46.1060 C   0  0  0  0  0  0  0  0  0  0  0  0
   59.6341   28.6745   47.5756 H   0  0  0  0  0  0  0  0  0  0  0  0
   59.3151   26.9595   46.8094 H   0  0  0  0  0  0  0  0  0  0  0  0
   57.4600   26.3141   43.6086 H   0  0  0  0  0  0  0  0  0  0  0  0
   54.7240   24.4130   47.6590 H   0  0  0  0  0  0  0  0  0  0  0  0
   56.4014   28.7969   43.2364 H   0  0  0  0  0  0  0  0  0  0  0  0
   56.6824   32.1473   45.0686 H   0  0  0  0  0  0  0  0  0  0  0  0
   57.7009   31.9208   43.6064 H   0  0  0  0  0  0  0  0  0  0  0  0
   55.9932   31.3639   43.6064 H   0  0  0  0  0  0  0  0  0  0  0  0
   58.6007   29.7673   48.4545 H   0  0  0  0  0  0  0  0  0  0  0  0
   59.5620   31.5522   49.9061 H   0  0  0  0  0  0  0  0  0  0  0  0
   65.6450   33.9455   49.0885 H   0  0  0  0  0  0  0  0  0  0  0  0
   67.0057   32.6470   50.7291 H   0  0  0  0  0  0  0  0  0  0  0  0
   65.9915   30.7094   51.9378 H   0  0  0  0  0  0  0  0  0  0  0  0
   63.6154   30.0744   51.5075 H   0  0  0  0  0  0  0  0  0  0  0  0
   62.2557   31.3618   49.8547 H   0  0  0  0  0  0  0  0  0  0  0  0
   59.7879   34.2065   46.4923 H   0  0  0  0  0  0  0  0  0  0  0  0
   58.8698   32.4073   45.0324 H   0  0  0  0  0  0  0  0  0  0  0  0
  1  2  2  0
  2  3  1  0
  3  4  2  3
  4  5  1  0
  5  6  2  0
  6  7  1  0
  6  8  1  0
  8  9  1  0
  9 10  2  0
  9 11  1  0
 11 12  1  0
 12 13  2  0
  3 14  1  0
 14 15  2  0
 15 16  1  0
 15 17  1  0
 17 18  1  0
 18 19  2  0
 19 20  1  0
 20 21  2  0
 21 22  1  0
 22 23  2  0
 22 24  1  0
 24 25  1  0
 25 26  2  0
 25 27  2  0
 25 28  1  0
 28 29  2  0
 29 30  1  0
 30 31  2  0
 31 32  1  0
 32 33  2  0
 21 34  1  0
 34 35  2  0
 17  2  1  0
 35 18  1  0
 12  5  1  0
 33 28  1  0
  1 36  1  0
  1 37  1  0
  4 38  1  0
  8 39  1  0
 14 40  1  0
 16 41  1  0
 16 42  1  0
 16 43  1  0
 19 44  1  0
 20 45  1  0
 29 46  1  0
 30 47  1  0
 31 48  1  0
 32 49  1  0
 33 50  1  0
 34 51  1  0
 35 52  1  0
M  CHG  3   7  -1  11  -1  24  -1
M  END
>  <UniqueID>  (81) 
75

>  <SMILES>  (81) 
C=c1c(=Cc2c([O-])[nH]c(=O)[n-]c2=O)cc(C)n1-c1ccc(C(=O)[N-]S(=O)(=O)c2ccccc2)cc1

>  <Energy>  (81) 
109.63453457684788

>  <Genealogy>  (81) 
C=c1c(=Cc2c([O-])[nH]c(=O)[n-]c2=O)cc(C)n1-c1ccc(C(=O)[N-]S(=O)(=O)c2ccccc2)cc1 (protonated)
C=c1c(=Cc2c([O-])[nH]c(=O)[n-]c2=O)cc(C)n1-c1ccc(C(=O)[N-]S(=O)(=O)c2ccccc2)cc1 (3D coordinates assigned)
C=c1c(=Cc2c([O-])[nH]c(=O)[n-]c2=O)cc(C)n1-c1ccc(C(=O)[N-]S(=O)(=O)c2ccccc2)cc1 (optimized conformer: 109.63453457684788 kcal/mol)

>  <smiles>  (81) 
C=c1c(=Cc2c(O)[nH]c(=O)[nH]c2=O)cc(C)n1-c1ccc(C(=O)NS(=O)(=O)c2ccccc2)cc1

>  <score_type>  (81) 
oracle

>  <origin>  (81) 
adg

>  <m_score__min__energy>  (81) 
-16.170000000000002

>  <m_primary>  (81) 
energy

$$$$
81:0
     RDKit          3D

 13 13  0  0  0  0  0  0  0  0999 V2000
   50.8870   33.0680   51.9730 O   0  0  0  0  0  0  0  0  0  0  0  0
   51.3870   32.2800   51.1270 C   0  0  0  0  0  0  0  0  0  0  0  0
   51.0150   32.3920   49.7920 O   0  0  0  0  0  0  0  0  0  0  0  0
   52.3540   31.2560   51.5540 C   0  0  0  0  0  0  0  0  0  0  0  0
   53.6900   31.5830   51.8210 C   0  0  0  0  0  0  0  0  0  0  0  0
   54.5690   30.5790   52.2230 C   0  0  0  0  0  0  0  0  0  0  0  0
   54.0980   29.2730   52.3490 C   0  0  0  0  0  0  0  0  0  0  0  0
   54.8780   28.3510   52.7110 O   0  0  0  0  0  0  0  0  0  0  0  0
   52.7930   29.0010   52.0790 N   0  0  0  0  0  0  0  0  0  0  0  0
   51.9520   29.9630   51.6940 N   0  0  0  0  0  0  0  0  0  0  0  0
   54.0410   32.6201   51.7146 H   0  0  0  0  0  0  0  0  0  0  0  0
   55.6218   30.8142   52.4383 H   0  0  0  0  0  0  0  0  0  0  0  0
   52.4360   28.0240   52.1720 H   0  0  0  0  0  0  0  0  0  0  0  0
  1  2  2  0
  2  3  1  0
  2  4  1  0
  4  5  1  0
  5  6  2  0
  6  7  1  0
  7  8  2  0
  7  9  1  0
  9 10  1  0
 10  4  2  0
  5 11  1  0
  6 12  1  0
  9 13  1  0
M  CHG  1   3  -1
M  END
>  <UniqueID>  (82) 
76

>  <SMILES>  (82) 
O=C([O-])c1ccc(=O)[nH]n1

>  <Energy>  (82) 
12.032118879547813

>  <Genealogy>  (82) 
O=C([O-])c1ccc(=O)[nH]n1 (protonated)
O=C([O-])c1ccc(=O)[nH]n1 (3D coordinates assigned)
O=C([O-])c1ccc(=O)[nH]n1 (optimized conformer: 12.032118879547813 kcal/mol)

>  <smiles>  (82) 
O=C(O)c1ccc(=O)[nH]n1

>  <score_type>  (82) 
oracle

>  <origin>  (82) 
adg

>  <m_score__min__energy>  (82) 
-8.2100000000000009

>  <m_primary>  (82) 
energy

$$$$
82:0
     RDKit          3D

 37 39  0  0  0  0  0  0  0  0999 V2000
   55.1450   27.4870   45.3730 H   0  0  0  0  0  0  0  0  0  0  0  0
   54.9870   26.7000   45.9910 O   0  0  0  0  0  0  0  0  0  0  0  0
   56.0190   25.8330   46.3400 C   0  0  0  0  0  0  0  0  0  0  0  0
   55.8560   24.7800   47.1560 N   0  0  0  0  0  0  0  0  0  0  0  0
   57.1000   24.2590   47.2230 C   0  0  0  0  0  0  0  0  0  0  0  0
   57.3730   23.2400   47.9090 O   0  0  0  0  0  0  0  0  0  0  0  0
   58.0310   24.9220   46.5040 N   0  0  0  0  0  0  0  0  0  0  0  0
   57.3280   25.9110   45.9210 C   0  0  0  0  0  0  0  0  0  0  0  0
   57.9250   27.0010   45.1310 C   0  0  0  0  0  0  0  0  0  0  0  0
   58.2996   26.7478   44.1282 H   0  0  0  0  0  0  0  0  0  0  0  0
   58.0520   28.2810   45.5300 C   0  0  0  0  0  0  0  0  0  0  0  0
   57.7050   29.3490   44.7220 C   0  0  0  0  0  0  0  0  0  0  0  0
   57.3619   29.2958   43.6782 H   0  0  0  0  0  0  0  0  0  0  0  0
   57.8710   30.4930   45.4740 C   0  0  0  0  0  0  0  0  0  0  0  0
   57.5020   31.8700   45.0040 C   0  0  0  0  0  0  0  0  0  0  0  0
   57.3278   32.5200   45.8741 H   0  0  0  0  0  0  0  0  0  0  0  0
   58.3214   32.2820   44.3967 H   0  0  0  0  0  0  0  0  0  0  0  0
   56.5864   31.8171   44.3967 H   0  0  0  0  0  0  0  0  0  0  0  0
   58.3470   30.1880   46.7040 N   0  0  0  0  0  0  0  0  0  0  0  0
   58.6720   31.1530   47.7700 C   0  0  0  0  0  0  0  0  0  0  0  0
   57.8246   31.8428   47.8963 H   0  0  0  0  0  0  0  0  0  0  0  0
   58.8640   30.5892   48.6948 H   0  0  0  0  0  0  0  0  0  0  0  0
   59.9130   31.9560   47.4420 C   0  0  0  0  0  0  0  0  0  0  0  0
   59.7790   33.2580   46.9260 C   0  0  0  0  0  0  0  0  0  0  0  0
   58.7766   33.6864   46.7789 H   0  0  0  0  0  0  0  0  0  0  0  0
   60.9100   34.0110   46.5990 C   0  0  0  0  0  0  0  0  0  0  0  0
   60.7954   35.0321   46.2064 H   0  0  0  0  0  0  0  0  0  0  0  0
   62.1850   33.4690   46.7700 C   0  0  0  0  0  0  0  0  0  0  0  0
   63.2800   34.2040   46.4510 F   0  0  0  0  0  0  0  0  0  0  0  0
   62.3320   32.1700   47.2630 C   0  0  0  0  0  0  0  0  0  0  0  0
   63.5720   31.6420   47.4200 F   0  0  0  0  0  0  0  0  0  0  0  0
   61.2030   31.4100   47.5930 C   0  0  0  0  0  0  0  0  0  0  0  0
   61.3760   30.1490   48.0580 F   0  0  0  0  0  0  0  0  0  0  0  0
   58.4810   28.8340   46.7490 C   0  0  0  0  0  0  0  0  0  0  0  0
   59.0440   28.1800   47.7760 C   0  0  0  0  0  0  0  0  0  0  0  0
   59.3383   28.7290   48.6826 H   0  0  0  0  0  0  0  0  0  0  0  0
   59.2114   27.0947   47.7115 H   0  0  0  0  0  0  0  0  0  0  0  0
  1  2  1  0
  2  3  1  0
  3  4  1  0
  4  5  1  0
  5  6  2  0
  5  7  1  0
  7  8  1  0
  8  9  1  0
  9 10  1  0
  9 11  2  0
 11 12  1  0
 12 13  1  0
 12 14  2  0
 14 15  1  0
 15 16  1  0
 15 17  1  0
 15 18  1  0
 14 19  1  0
 19 20  1  0
 20 21  1  0
 20 22  1  0
 20 23  1  0
 23 24  2  0
 24 25  1  0
 24 26  1  0
 26 27  1  0
 26 28  2  0
 28 29  1  0
 28 30  1  0
 30 31  1  0
 30 32  2  0
 32 33  1  0
 19 34  1  0
 34 35  2  0
 35 36  1  0
 35 37  1  0
  8  3  2  0
 34 11  1  0
 32 23  1  0
M  CHG  2   4  -1   7  -1
M  END
>  <UniqueID>  (83) 
77

>  <SMILES>  (83) 
C=c1/c(=C\c2[n-]c(=O)[n-]c2O)cc(C)n1Cc1ccc(F)c(F)c1F

>  <Energy>  (83) 
108.33636490269996

>  <Genealogy>  (83) 
C=c1c(=Cc2[n-]c(=O)[n-]c2O)cc(C)n1Cc1ccc(F)c(F)c1F (protonated)
C=c1/c(=C\c2[n-]c(=O)[n-]c2O)cc(C)n1Cc1ccc(F)c(F)c1F (cis-trans isomerization)
C=c1/c(=C\c2[n-]c(=O)[n-]c2O)cc(C)n1Cc1ccc(F)c(F)c1F (3D coordinates assigned)
C=c1/c(=C\c2[n-]c(=O)[n-]c2O)cc(C)n1Cc1ccc(F)c(F)c1F (optimized conformer: 108.33636490269996 kcal/mol)

>  <smiles>  (83) 
C=c1c(=Cc2[nH]c(=O)[nH]c2O)cc(C)n1Cc1ccc(F)c(F)c1F

>  <score_type>  (83) 
oracle

>  <origin>  (83) 
adg

>  <m_score__min__energy>  (83) 
-11.890000000000001

>  <m_primary>  (83) 
energy

$$$$
83:0
     RDKit          3D

 39 41  0  0  0  0  0  0  0  0999 V2000
   58.0850   33.1420   47.6930 H   0  0  0  0  0  0  0  0  0  0  0  0
   58.8920   32.7350   48.1510 O   0  0  0  0  0  0  0  0  0  0  0  0
   60.1920   33.0030   47.7270 C   0  0  0  0  0  0  0  0  0  0  0  0
   61.2630   32.3770   48.3800 C   0  0  0  0  0  0  0  0  0  0  0  0
   61.0663   31.6346   49.1675 H   0  0  0  0  0  0  0  0  0  0  0  0
   62.5760   32.6920   48.0350 C   0  0  0  0  0  0  0  0  0  0  0  0
   63.4175   32.1990   48.5437 H   0  0  0  0  0  0  0  0  0  0  0  0
   62.8120   33.6370   47.0400 C   0  0  0  0  0  0  0  0  0  0  0  0
   63.8437   33.9085   46.7719 H   0  0  0  0  0  0  0  0  0  0  0  0
   61.7670   34.2230   46.4010 N   0  0  0  0  0  0  0  0  0  0  0  0
   60.4680   33.9280   46.6860 C   0  0  0  0  0  0  0  0  0  0  0  0
   59.5440   34.5440   45.9980 N   0  0  0  0  0  0  0  0  0  0  0  0
   58.3500   34.0120   45.4110 C   0  0  0  0  0  0  0  0  0  0  0  0
   57.2510   34.2130   45.9930 O   0  0  0  0  0  0  0  0  0  0  0  0
   58.3880   33.4220   44.0530 C   0  0  0  0  0  0  0  0  0  0  0  0
   59.0127   33.9287   43.3026 H   0  0  0  0  0  0  0  0  0  0  0  0
   57.7260   32.3220   43.6580 C   0  0  0  0  0  0  0  0  0  0  0  0
   57.1586   32.3859   42.7178 H   0  0  0  0  0  0  0  0  0  0  0  0
   57.6960   31.0340   44.3800 C   0  0  0  0  0  0  0  0  0  0  0  0
   58.6690   30.7720   45.3560 C   0  0  0  0  0  0  0  0  0  0  0  0
   59.4621   31.5092   45.5495 H   0  0  0  0  0  0  0  0  0  0  0  0
   58.6360   29.5790   46.0840 C   0  0  0  0  0  0  0  0  0  0  0  0
   59.4017   29.3820   46.8488 H   0  0  0  0  0  0  0  0  0  0  0  0
   57.6290   28.6320   45.8420 C   0  0  0  0  0  0  0  0  0  0  0  0
   57.5460   27.4350   46.6270 N   0  0  0  0  0  0  0  0  0  0  0  0
   57.2180   26.2320   46.2380 C   0  0  0  0  0  0  0  0  0  0  0  0
   58.2050   25.2950   46.1830 N   0  0  0  0  0  0  0  0  0  0  0  0
   57.9800   24.0160   45.7850 C   0  0  0  0  0  0  0  0  0  0  0  0
   58.8106   23.2954   45.7556 H   0  0  0  0  0  0  0  0  0  0  0  0
   56.6980   23.6160   45.4140 C   0  0  0  0  0  0  0  0  0  0  0  0
   56.5122   22.5860   45.0756 H   0  0  0  0  0  0  0  0  0  0  0  0
   55.6540   24.5370   45.4770 C   0  0  0  0  0  0  0  0  0  0  0  0
   54.6369   24.2318   45.1901 H   0  0  0  0  0  0  0  0  0  0  0  0
   55.8930   25.8470   45.9030 C   0  0  0  0  0  0  0  0  0  0  0  0
   54.8120   26.7120   46.0220 O   0  0  0  0  0  0  0  0  0  0  0  0
   56.6190   28.9200   44.9180 C   0  0  0  0  0  0  0  0  0  0  0  0
   55.7966   28.2057   44.7646 H   0  0  0  0  0  0  0  0  0  0  0  0
   56.6510   30.1120   44.1890 C   0  0  0  0  0  0  0  0  0  0  0  0
   55.8548   30.3303   43.4621 H   0  0  0  0  0  0  0  0  0  0  0  0
  1  2  1  0
  2  3  1  0
  3  4  2  0
  4  5  1  0
  4  6  1  0
  6  7  1  0
  6  8  2  0
  8  9  1  0
  8 10  1  0
 10 11  1  0
 11 12  2  3
 12 13  1  0
 13 14  2  0
 13 15  1  0
 15 16  1  0
 15 17  2  3
 17 18  1  0
 17 19  1  0
 19 20  2  0
 20 21  1  0
 20 22  1  0
 22 23  1  0
 22 24  2  0
 24 25  1  0
 25 26  2  0
 26 27  1  0
 27 28  1  0
 28 29  1  0
 28 30  2  0
 30 31  1  0
 30 32  1  0
 32 33  1  0
 32 34  2  0
 34 35  1  0
 24 36  1  0
 36 37  1  0
 36 38  2  0
 38 39  1  0
 11  3  1  0
 38 19  1  0
 34 26  1  0
M  CHG  3  10  -1  27  -1  35  -1
M  END
>  <UniqueID>  (84) 
78

>  <SMILES>  (84) 
O=C(C=Cc1ccc(/N=c2/[n-]cccc2[O-])cc1)N=c1[n-]cccc1O

>  <Energy>  (84) 
76.04330169408644

>  <Genealogy>  (84) 
O=C(C=Cc1ccc(N=c2[n-]cccc2[O-])cc1)N=c1[n-]cccc1O (protonated)
O=C(C=Cc1ccc(/N=c2/[n-]cccc2[O-])cc1)N=c1[n-]cccc1O (cis-trans isomerization)
O=C(C=Cc1ccc(/N=c2/[n-]cccc2[O-])cc1)N=c1[n-]cccc1O (3D coordinates assigned)
O=C(C=Cc1ccc(/N=c2/[n-]cccc2[O-])cc1)N=c1[n-]cccc1O (optimized conformer: 76.04330169408644 kcal/mol)

>  <smiles>  (84) 
O=C(C=Cc1ccc(N=c2[nH]cccc2O)cc1)N=c1[nH]cccc1O

>  <score_type>  (84) 
oracle

>  <origin>  (84) 
adg

>  <m_score__min__energy>  (84) 
-14.050000000000001

>  <m_primary>  (84) 
energy

$$$$
84:0
     RDKit          3D

 48 51  0  0  0  0  0  0  0  0999 V2000
   56.8840   33.9500   45.3700 O   0  0  0  0  0  0  0  0  0  0  0  0
   58.0970   34.0750   45.0560 C   0  0  0  0  0  0  0  0  0  0  0  0
   58.6380   33.3420   43.8670 C   0  0  0  0  0  0  0  0  0  0  0  0
   57.7570   32.2050   43.5500 N   0  0  0  0  0  0  0  0  0  0  0  0
   57.4040   31.9860   42.2460 C   0  0  0  0  0  0  0  0  0  0  0  0
   56.6490   30.8690   41.8900 C   0  0  0  0  0  0  0  0  0  0  0  0
   56.2460   29.9710   42.8740 C   0  0  0  0  0  0  0  0  0  0  0  0
   56.5870   30.2040   44.2140 C   0  0  0  0  0  0  0  0  0  0  0  0
   56.2340   29.2750   45.2510 N   0  0  0  0  0  0  0  0  0  0  0  0
   57.0300   28.1870   45.7370 C   0  0  0  0  0  0  0  0  0  0  0  0
   58.1210   28.4460   46.3090 O   0  0  0  0  0  0  0  0  0  0  0  0
   56.5690   26.7890   45.6650 C   0  0  0  0  0  0  0  0  0  0  0  0
   57.3340   25.7070   45.2740 C   0  0  0  0  0  0  0  0  0  0  0  0
   56.5050   24.6110   45.3700 C   0  0  0  0  0  0  0  0  0  0  0  0
   55.2900   25.0870   45.8160 C   0  0  0  0  0  0  0  0  0  0  0  0
   55.3600   26.3880   45.9850 O   0  0  0  0  0  0  0  0  0  0  0  0
   57.3760   31.3210   44.5300 C   0  0  0  0  0  0  0  0  0  0  0  0
   57.7360   31.5000   45.7270 O   0  0  0  0  0  0  0  0  0  0  0  0
   58.9760   34.8620   45.8650 N   0  0  0  0  0  0  0  0  0  0  0  0
   58.9010   34.8450   47.3240 C   0  0  0  0  0  0  0  0  0  0  0  0
   59.4370   33.5270   47.8410 C   0  0  0  0  0  0  0  0  0  0  0  0
   58.5540   32.7210   48.5810 C   0  0  0  0  0  0  0  0  0  0  0  0
   58.9770   31.5200   49.1440 C   0  0  0  0  0  0  0  0  0  0  0  0
   60.2950   31.1010   48.9990 C   0  0  0  0  0  0  0  0  0  0  0  0
   61.2090   31.8840   48.2820 C   0  0  0  0  0  0  0  0  0  0  0  0
   62.5400   31.4550   48.1530 C   0  0  0  0  0  0  0  0  0  0  0  0
   63.4630   32.2310   47.4560 C   0  0  0  0  0  0  0  0  0  0  0  0
   63.0720   33.4390   46.8810 C   0  0  0  0  0  0  0  0  0  0  0  0
   61.7520   33.8790   46.9960 C   0  0  0  0  0  0  0  0  0  0  0  0
   60.7930   33.1140   47.6970 C   0  0  0  0  0  0  0  0  0  0  0  0
   58.6821   34.0235   43.0047 H   0  0  0  0  0  0  0  0  0  0  0  0
   59.6488   32.9715   44.0928 H   0  0  0  0  0  0  0  0  0  0  0  0
   57.7194   32.6991   41.4701 H   0  0  0  0  0  0  0  0  0  0  0  0
   56.3738   30.6988   40.8387 H   0  0  0  0  0  0  0  0  0  0  0  0
   55.6611   29.0803   42.6010 H   0  0  0  0  0  0  0  0  0  0  0  0
   58.3860   25.7183   44.9529 H   0  0  0  0  0  0  0  0  0  0  0  0
   56.7607   23.5666   45.1377 H   0  0  0  0  0  0  0  0  0  0  0  0
   54.3978   24.4710   46.0020 H   0  0  0  0  0  0  0  0  0  0  0  0
   59.8610   35.2120   45.4350 H   0  0  0  0  0  0  0  0  0  0  0  0
   59.5024   35.6708   47.7318 H   0  0  0  0  0  0  0  0  0  0  0  0
   57.8538   34.9641   47.6389 H   0  0  0  0  0  0  0  0  0  0  0  0
   57.5116   33.0447   48.7174 H   0  0  0  0  0  0  0  0  0  0  0  0
   58.2645   30.8990   49.7068 H   0  0  0  0  0  0  0  0  0  0  0  0
   60.6210   30.1516   49.4488 H   0  0  0  0  0  0  0  0  0  0  0  0
   62.8548   30.5024   48.6042 H   0  0  0  0  0  0  0  0  0  0  0  0
   64.5041   31.8894   47.3590 H   0  0  0  0  0  0  0  0  0  0  0  0
   63.8067   34.0483   46.3342 H   0  0  0  0  0  0  0  0  0  0  0  0
   61.4550   34.8327   46.5353 H   0  0  0  0  0  0  0  0  0  0  0  0
  1  2  2  0
  2  3  1  0
  3  4  1  0
  4  5  1  0
  5  6  2  0
  6  7  1  0
  7  8  2  0
  8  9  1  0
  9 10  1  0
 10 11  2  0
 10 12  1  0
 12 13  2  0
 13 14  1  0
 14 15  2  0
 15 16  1  0
  8 17  1  0
 17 18  2  0
  2 19  1  0
 19 20  1  0
 20 21  1  0
 21 22  2  0
 22 23  1  0
 23 24  2  0
 24 25  1  0
 25 26  2  0
 26 27  1  0
 27 28  2  0
 28 29  1  0
 29 30  2  0
 17  4  1  0
 30 21  1  0
 16 12  1  0
 30 25  1  0
  3 31  1  0
  3 32  1  0
  5 33  1  0
  6 34  1  0
  7 35  1  0
 13 36  1  0
 14 37  1  0
 15 38  1  0
 19 39  1  0
 20 40  1  0
 20 41  1  0
 22 42  1  0
 23 43  1  0
 24 44  1  0
 26 45  1  0
 27 46  1  0
 28 47  1  0
 29 48  1  0
M  CHG  1   9  -1
M  END
>  <UniqueID>  (85) 
79

>  <SMILES>  (85) 
O=C(Cn1cccc([N-]C(=O)c2ccco2)c1=O)NCc1cccc2ccccc12

>  <Energy>  (85) 
83.30237957483176

>  <Genealogy>  (85) 
O=C(Cn1cccc([N-]C(=O)c2ccco2)c1=O)NCc1cccc2ccccc12 (protonated)
O=C(Cn1cccc([N-]C(=O)c2ccco2)c1=O)NCc1cccc2ccccc12 (3D coordinates assigned)
O=C(Cn1cccc([N-]C(=O)c2ccco2)c1=O)NCc1cccc2ccccc12 (optimized conformer: 83.30237957483176 kcal/mol)

>  <smiles>  (85) 
O=C(Cn1cccc(NC(=O)c2ccco2)c1=O)NCc1cccc2ccccc12

>  <score_type>  (85) 
oracle

>  <origin>  (85) 
adg

>  <m_score__min__energy>  (85) 
-11.5

>  <m_primary>  (85) 
energy

$$$$
85:0
     RDKit          3D

 51 54  0  0  0  0  0  0  0  0999 V2000
   56.7810   29.5900   43.1690 O   0  0  0  0  0  0  0  0  0  0  0  0
   57.2110   29.5710   44.3510 C   0  0  0  0  0  0  0  0  0  0  0  0
   57.9940   28.3640   44.8100 C   0  0  0  0  0  0  0  0  0  0  0  0
   57.5730   27.8870   46.1280 N   0  0  0  0  0  0  0  0  0  0  0  0
   57.2220   26.5240   46.3990 C   0  0  0  0  0  0  0  0  0  0  0  0
   58.0790   25.4890   46.7240 C   0  0  0  0  0  0  0  0  0  0  0  0
   57.2750   24.3660   46.8020 C   0  0  0  0  0  0  0  0  0  0  0  0
   57.7410   23.0870   47.0730 O   0  0  0  0  0  0  0  0  0  0  0  0
   55.9810   24.6640   46.5460 N   0  0  0  0  0  0  0  0  0  0  0  0
   54.8660   23.7530   46.5170 C   0  0  0  0  0  0  0  0  0  0  0  0
   53.7710   23.9900   45.6690 C   0  0  0  0  0  0  0  0  0  0  0  0
   52.6850   23.1070   45.6510 C   0  0  0  0  0  0  0  0  0  0  0  0
   52.6910   21.9730   46.4670 C   0  0  0  0  0  0  0  0  0  0  0  0
   51.6210   21.0860   46.4340 O   0  0  0  0  0  0  0  0  0  0  0  0
   53.7750   21.7290   47.3150 C   0  0  0  0  0  0  0  0  0  0  0  0
   54.8570   22.6150   47.3430 C   0  0  0  0  0  0  0  0  0  0  0  0
   55.9540   25.9900   46.2980 C   0  0  0  0  0  0  0  0  0  0  0  0
   54.8050   26.7100   45.9920 O   0  0  0  0  0  0  0  0  0  0  0  0
   56.9060   30.6840   45.2040 N   0  0  0  0  0  0  0  0  0  0  0  0
   57.6250   31.9200   45.3010 C   0  0  0  0  0  0  0  0  0  0  0  0
   57.7770   32.7670   44.1930 C   0  0  0  0  0  0  0  0  0  0  0  0
   58.5020   33.9540   44.3180 C   0  0  0  0  0  0  0  0  0  0  0  0
   59.0730   34.3110   45.5430 C   0  0  0  0  0  0  0  0  0  0  0  0
   59.7920   35.4990   45.6220 O   0  0  0  0  0  0  0  0  0  0  0  0
   58.9050   33.4800   46.6740 C   0  0  0  0  0  0  0  0  0  0  0  0
   59.4850   33.8220   47.9950 C   0  0  0  0  0  0  0  0  0  0  0  0
   59.2640   34.9590   48.4950 O   0  0  0  0  0  0  0  0  0  0  0  0
   60.3170   32.8820   48.6890 N   0  0  0  0  0  0  0  0  0  0  0  0
   61.7470   32.9200   48.8170 C   0  0  0  0  0  0  0  0  0  0  0  0
   62.5070   33.3260   47.7110 C   0  0  0  0  0  0  0  0  0  0  0  0
   63.9030   33.3670   47.7870 C   0  0  0  0  0  0  0  0  0  0  0  0
   64.5500   32.9820   48.9640 C   0  0  0  0  0  0  0  0  0  0  0  0
   63.8040   32.5490   50.0620 C   0  0  0  0  0  0  0  0  0  0  0  0
   62.4070   32.5120   49.9920 C   0  0  0  0  0  0  0  0  0  0  0  0
   58.1590   32.2930   46.5380 C   0  0  0  0  0  0  0  0  0  0  0  0
   57.8516   27.5534   44.0801 H   0  0  0  0  0  0  0  0  0  0  0  0
   59.0503   28.6615   44.8855 H   0  0  0  0  0  0  0  0  0  0  0  0
   57.4730   28.5870   46.8960 H   0  0  0  0  0  0  0  0  0  0  0  0
   59.1656   25.5461   46.8857 H   0  0  0  0  0  0  0  0  0  0  0  0
   53.7672   24.8747   45.0154 H   0  0  0  0  0  0  0  0  0  0  0  0
   51.8258   23.3062   44.9936 H   0  0  0  0  0  0  0  0  0  0  0  0
   53.7772   20.8389   47.9613 H   0  0  0  0  0  0  0  0  0  0  0  0
   55.7058   22.4204   48.0151 H   0  0  0  0  0  0  0  0  0  0  0  0
   57.3257   32.4965   43.2270 H   0  0  0  0  0  0  0  0  0  0  0  0
   58.6247   34.6131   43.4459 H   0  0  0  0  0  0  0  0  0  0  0  0
   62.0020   33.6142   46.7772 H   0  0  0  0  0  0  0  0  0  0  0  0
   64.4915   33.7023   46.9202 H   0  0  0  0  0  0  0  0  0  0  0  0
   65.6476   33.0200   49.0257 H   0  0  0  0  0  0  0  0  0  0  0  0
   64.3157   32.2363   50.9841 H   0  0  0  0  0  0  0  0  0  0  0  0
   61.8232   32.1635   50.8567 H   0  0  0  0  0  0  0  0  0  0  0  0
   57.9945   31.6514   47.4162 H   0  0  0  0  0  0  0  0  0  0  0  0
  1  2  2  0
  2  3  1  0
  3  4  1  0
  4  5  1  0
  5  6  1  0
  6  7  2  0
  7  8  1  0
  7  9  1  0
  9 10  1  0
 10 11  2  0
 11 12  1  0
 12 13  2  0
 13 14  1  0
 13 15  1  0
 15 16  2  0
  9 17  1  0
 17 18  1  0
  2 19  1  0
 19 20  1  0
 20 21  2  0
 21 22  1  0
 22 23  2  0
 23 24  1  0
 23 25  1  0
 25 26  1  0
 26 27  2  0
 26 28  1  0
 28 29  1  0
 29 30  2  0
 30 31  1  0
 31 32  2  0
 32 33  1  0
 33 34  2  0
 25 35  2  0
 17  5  2  0
 35 20  1  0
 16 10  1  0
 34 29  1  0
  3 36  1  0
  3 37  1  0
  4 38  1  0
  6 39  1  0
 11 40  1  0
 12 41  1  0
 15 42  1  0
 16 43  1  0
 21 44  1  0
 22 45  1  0
 30 46  1  0
 31 47  1  0
 32 48  1  0
 33 49  1  0
 34 50  1  0
 35 51  1  0
M  CHG  6   8  -1  14  -1  18  -1  19  -1  24  -1  28  -1
M  END
>  <UniqueID>  (86) 
80

>  <SMILES>  (86) 
O=C(CNc1cc([O-])n(-c2ccc([O-])cc2)c1[O-])[N-]c1ccc([O-])c(C(=O)[N-]c2ccccc2)c1

>  <Energy>  (86) 
96.42913218520114

>  <Genealogy>  (86) 
O=C(CNc1cc([O-])n(-c2ccc([O-])cc2)c1[O-])[N-]c1ccc([O-])c(C(=O)[N-]c2ccccc2)c1 (protonated)
O=C(CNc1cc([O-])n(-c2ccc([O-])cc2)c1[O-])[N-]c1ccc([O-])c(C(=O)[N-]c2ccccc2)c1 (3D coordinates assigned)
O=C(CNc1cc([O-])n(-c2ccc([O-])cc2)c1[O-])[N-]c1ccc([O-])c(C(=O)[N-]c2ccccc2)c1 (optimized conformer: 96.42913218520114 kcal/mol)

>  <smiles>  (86) 
O=C(CNc1cc(O)n(-c2ccc(O)cc2)c1O)Nc1ccc(O)c(C(=O)Nc2ccccc2)c1

>  <score_type>  (86) 
oracle

>  <origin>  (86) 
adg

>  <m_score__min__energy>  (86) 
-19.09

>  <m_primary>  (86) 
energy

$$$$
86:0
     RDKit          3D

 60 62  0  0  0  0  0  0  0  0999 V2000
   57.1850   34.2440   45.1520 C   0  0  0  0  0  0  0  0  0  0  0  0
   57.7960   33.0020   44.5070 C   0  0  0  0  0  0  0  0  0  0  0  0
   57.9890   31.9340   45.4990 N   0  0  0  0  0  0  0  0  0  0  0  0
   58.5190   32.2830   46.8260 C   0  0  0  0  0  0  0  0  0  0  0  0
   59.9520   32.7450   46.7500 C   0  0  0  0  0  0  0  0  0  0  0  0
   60.2120   33.9750   46.6720 O   0  0  0  0  0  0  0  0  0  0  0  0
   61.0350   31.8230   46.9230 N   0  0  0  0  0  0  0  0  0  0  0  0
   61.9860   31.8620   47.9950 C   0  0  0  0  0  0  0  0  0  0  0  0
   61.8450   31.0160   49.1090 C   0  0  0  0  0  0  0  0  0  0  0  0
   62.7960   31.0340   50.1330 C   0  0  0  0  0  0  0  0  0  0  0  0
   63.8950   31.8920   50.0510 C   0  0  0  0  0  0  0  0  0  0  0  0
   64.0550   32.7200   48.9350 C   0  0  0  0  0  0  0  0  0  0  0  0
   63.1140   32.6960   47.9010 C   0  0  0  0  0  0  0  0  0  0  0  0
   63.3650   33.8410   46.3860 Br  0  0  0  0  0  0  0  0  0  0  0  0
   57.7770   30.5560   45.1110 C   0  0  0  0  0  0  0  0  0  0  0  0
   56.6030   30.0920   45.0860 O   0  0  0  0  0  0  0  0  0  0  0  0
   58.9250   29.6180   44.8640 C   0  0  0  0  0  0  0  0  0  0  0  0
   59.6940   29.3920   46.0860 N   0  0  0  0  0  0  0  0  0  0  0  0
   59.2890   28.4130   47.0590 C   0  0  0  0  0  0  0  0  0  0  0  0
   58.5890   27.4320   46.6830 O   0  0  0  0  0  0  0  0  0  0  0  0
   59.6300   28.5470   48.5040 C   0  0  0  0  0  0  0  0  0  0  0  0
   60.7250   27.8730   49.0800 C   0  0  0  0  0  0  0  0  0  0  0  0
   61.0290   28.0420   50.4330 C   0  0  0  0  0  0  0  0  0  0  0  0
   60.2610   28.8930   51.2270 C   0  0  0  0  0  0  0  0  0  0  0  0
   59.1810   29.5850   50.6700 C   0  0  0  0  0  0  0  0  0  0  0  0
   58.2240   30.6860   51.6580 S   0  0  0  0  0  0  0  0  0  0  0  0
   56.7680   30.5650   51.2920 O   0  0  0  0  0  0  0  0  0  0  0  0
   58.3820   30.3100   53.1060 O   0  0  0  0  0  0  0  0  0  0  0  0
   58.7820   32.3230   51.4190 N   0  0  0  0  0  0  0  0  0  0  0  0
   60.1450   32.5010   51.9180 C   0  0  0  0  0  0  0  0  0  0  0  0
   60.7780   33.6060   51.0820 C   0  0  0  0  0  0  0  0  0  0  0  0
   59.9010   33.7330   49.8460 C   0  0  0  0  0  0  0  0  0  0  0  0
   58.8410   32.6530   49.9950 C   0  0  0  0  0  0  0  0  0  0  0  0
   58.8620   29.4030   49.3200 C   0  0  0  0  0  0  0  0  0  0  0  0
   57.2317   34.1492   46.2469 H   0  0  0  0  0  0  0  0  0  0  0  0
   57.7475   35.1352   44.8369 H   0  0  0  0  0  0  0  0  0  0  0  0
   56.1357   34.3423   44.8369 H   0  0  0  0  0  0  0  0  0  0  0  0
   57.1237   32.6402   43.7151 H   0  0  0  0  0  0  0  0  0  0  0  0
   58.7763   33.2715   44.0869 H   0  0  0  0  0  0  0  0  0  0  0  0
   57.9063   33.0904   47.2536 H   0  0  0  0  0  0  0  0  0  0  0  0
   58.4818   31.3832   47.4577 H   0  0  0  0  0  0  0  0  0  0  0  0
   60.9822   30.3368   49.1750 H   0  0  0  0  0  0  0  0  0  0  0  0
   62.6789   30.3722   51.0038 H   0  0  0  0  0  0  0  0  0  0  0  0
   64.6351   31.9166   50.8644 H   0  0  0  0  0  0  0  0  0  0  0  0
   64.9236   33.3919   48.8706 H   0  0  0  0  0  0  0  0  0  0  0  0
   58.5314   28.6558   44.5044 H   0  0  0  0  0  0  0  0  0  0  0  0
   59.5892   30.0700   44.1126 H   0  0  0  0  0  0  0  0  0  0  0  0
   60.5850   29.9250   46.2020 H   0  0  0  0  0  0  0  0  0  0  0  0
   61.3450   27.2089   48.4599 H   0  0  0  0  0  0  0  0  0  0  0  0
   61.8789   27.5008   50.8744 H   0  0  0  0  0  0  0  0  0  0  0  0
   60.5048   29.0200   52.2921 H   0  0  0  0  0  0  0  0  0  0  0  0
   60.1251   32.7924   52.9785 H   0  0  0  0  0  0  0  0  0  0  0  0
   60.7200   31.5667   51.8383 H   0  0  0  0  0  0  0  0  0  0  0  0
   60.7917   34.5523   51.6426 H   0  0  0  0  0  0  0  0  0  0  0  0
   61.8208   33.3735   50.8205 H   0  0  0  0  0  0  0  0  0  0  0  0
   59.4343   34.7282   49.8051 H   0  0  0  0  0  0  0  0  0  0  0  0
   60.4797   33.6151   48.9180 H   0  0  0  0  0  0  0  0  0  0  0  0
   57.8657   33.0277   49.6510 H   0  0  0  0  0  0  0  0  0  0  0  0
   59.0877   31.7673   49.3912 H   0  0  0  0  0  0  0  0  0  0  0  0
   58.0007   29.9347   48.8894 H   0  0  0  0  0  0  0  0  0  0  0  0
  1  2  1  0
  2  3  1  0
  3  4  1  0
  4  5  1  0
  5  6  2  0
  5  7  1  0
  7  8  1  0
  8  9  2  0
  9 10  1  0
 10 11  2  0
 11 12  1  0
 12 13  2  0
 13 14  1  0
  3 15  1  0
 15 16  2  0
 15 17  1  0
 17 18  1  0
 18 19  1  0
 19 20  2  0
 19 21  1  0
 21 22  2  0
 22 23  1  0
 23 24  2  0
 24 25  1  0
 25 26  1  0
 26 27  2  0
 26 28  2  0
 26 29  1  0
 29 30  1  0
 30 31  1  0
 31 32  1  0
 32 33  1  0
 25 34  2  0
 13  8  1  0
 34 21  1  0
 33 29  1  0
  1 35  1  0
  1 36  1  0
  1 37  1  0
  2 38  1  0
  2 39  1  0
  4 40  1  0
  4 41  1  0
  9 42  1  0
 10 43  1  0
 11 44  1  0
 12 45  1  0
 17 46  1  0
 17 47  1  0
 18 48  1  0
 22 49  1  0
 23 50  1  0
 24 51  1  0
 30 52  1  0
 30 53  1  0
 31 54  1  0
 31 55  1  0
 32 56  1  0
 32 57  1  0
 33 58  1  0
 33 59  1  0
 34 60  1  0
M  CHG  1   7  -1
M  END
>  <UniqueID>  (87) 
81

>  <SMILES>  (87) 
CCN(CC(=O)[N-]c1ccccc1Br)C(=O)CNC(=O)c1cccc(S(=O)(=O)N2CCCC2)c1

>  <Energy>  (87) 
66.01846053821853

>  <Genealogy>  (87) 
CCN(CC(=O)[N-]c1ccccc1Br)C(=O)CNC(=O)c1cccc(S(=O)(=O)N2CCCC2)c1 (protonated)
CCN(CC(=O)[N-]c1ccccc1Br)C(=O)CNC(=O)c1cccc(S(=O)(=O)N2CCCC2)c1 (3D coordinates assigned)
CCN(CC(=O)[N-]c1ccccc1Br)C(=O)CNC(=O)c1cccc(S(=O)(=O)N2CCCC2)c1 (nonaromatic ring conformer: 66.01846053821853 kcal/mol)

>  <smiles>  (87) 
CCN(CC(=O)Nc1ccccc1Br)C(=O)CNC(=O)c1cccc(S(=O)(=O)N2CCCC2)c1

>  <score_type>  (87) 
oracle

>  <origin>  (87) 
adg

>  <m_score__min__energy>  (87) 
-12.16

>  <m_primary>  (87) 
energy

$$$$
87:0
     RDKit          3D

 35 36  0  0  0  0  0  0  0  0999 V2000
   58.1540   21.0990   47.6070 H   0  0  0  0  0  0  0  0  0  0  0  0
   57.1850   21.3910   47.6400 O   0  0  0  0  0  0  0  0  0  0  0  0
   56.5620   21.9870   46.5430 C   0  0  0  0  0  0  0  0  0  0  0  0
   55.1610   22.0270   46.4730 C   0  0  0  0  0  0  0  0  0  0  0  0
   54.5600   21.6175   47.2983 H   0  0  0  0  0  0  0  0  0  0  0  0
   54.5260   22.5840   45.3610 C   0  0  0  0  0  0  0  0  0  0  0  0
   53.1380   22.6200   45.2980 O   0  0  0  0  0  0  0  0  0  0  0  0
   55.2860   23.1010   44.3090 C   0  0  0  0  0  0  0  0  0  0  0  0
   54.7852   23.5330   43.4300 H   0  0  0  0  0  0  0  0  0  0  0  0
   56.6810   23.0700   44.3720 C   0  0  0  0  0  0  0  0  0  0  0  0
   57.2739   23.4701   43.5363 H   0  0  0  0  0  0  0  0  0  0  0  0
   57.3330   22.5320   45.4940 C   0  0  0  0  0  0  0  0  0  0  0  0
   58.8130   22.5110   45.5300 C   0  0  0  0  0  0  0  0  0  0  0  0
   59.3960   21.4260   45.7940 O   0  0  0  0  0  0  0  0  0  0  0  0
   59.6430   23.7050   45.2640 C   0  0  0  0  0  0  0  0  0  0  0  0
   60.3365   23.6851   44.4104 H   0  0  0  0  0  0  0  0  0  0  0  0
   59.5860   24.8120   46.0200 C   0  0  0  0  0  0  0  0  0  0  0  0
   60.2387   24.8698   46.9036 H   0  0  0  0  0  0  0  0  0  0  0  0
   58.6940   25.9630   45.7340 C   0  0  0  0  0  0  0  0  0  0  0  0
   59.2600   27.1350   45.2140 C   0  0  0  0  0  0  0  0  0  0  0  0
   60.3425   27.1786   45.0237 H   0  0  0  0  0  0  0  0  0  0  0  0
   58.4640   28.2480   44.9350 C   0  0  0  0  0  0  0  0  0  0  0  0
   58.9259   29.1561   44.5201 H   0  0  0  0  0  0  0  0  0  0  0  0
   57.0790   28.2220   45.1780 C   0  0  0  0  0  0  0  0  0  0  0  0
   56.2640   29.4240   44.8670 C   0  0  0  0  0  0  0  0  0  0  0  0
   55.0670   29.3050   44.4860 O   0  0  0  0  0  0  0  0  0  0  0  0
   56.8280   30.6970   44.9970 O   0  0  0  0  0  0  0  0  0  0  0  0
   57.4040   31.3980   43.9020 C   0  0  0  0  0  0  0  0  0  0  0  0
   58.0595   32.1958   44.2813 H   0  0  0  0  0  0  0  0  0  0  0  0
   57.9930   30.7001   43.2888 H   0  0  0  0  0  0  0  0  0  0  0  0
   56.6051   31.8404   43.2888 H   0  0  0  0  0  0  0  0  0  0  0  0
   56.5100   27.0490   45.7210 C   0  0  0  0  0  0  0  0  0  0  0  0
   55.1480   26.9710   45.9960 O   0  0  0  0  0  0  0  0  0  0  0  0
   57.3120   25.9350   45.9970 C   0  0  0  0  0  0  0  0  0  0  0  0
   56.8572   25.0289   46.4237 H   0  0  0  0  0  0  0  0  0  0  0  0
  1  2  1  0
  2  3  1  0
  3  4  2  0
  4  5  1  0
  4  6  1  0
  6  7  1  0
  6  8  2  0
  8  9  1  0
  8 10  1  0
 10 11  1  0
 10 12  2  0
 12 13  1  0
 13 14  2  0
 13 15  1  0
 15 16  1  0
 15 17  2  0
 17 18  1  0
 17 19  1  0
 19 20  2  0
 20 21  1  0
 20 22  1  0
 22 23  1  0
 22 24  2  0
 24 25  1  0
 25 26  2  0
 25 27  1  0
 27 28  1  0
 28 29  1  0
 28 30  1  0
 28 31  1  0
 24 32  1  0
 32 33  1  0
 32 34  2  0
 34 35  1  0
 12  3  1  0
 34 19  1  0
M  CHG  2   7  -1  33  -1
M  END
>  <UniqueID>  (88) 
82

>  <SMILES>  (88) 
COC(=O)c1ccc(/C=C/C(=O)c2ccc([O-])cc2O)cc1[O-]

>  <Energy>  (88) 
43.99165446796267

>  <Genealogy>  (88) 
COC(=O)c1ccc(C=CC(=O)c2ccc([O-])cc2O)cc1[O-] (protonated)
COC(=O)c1ccc(/C=C/C(=O)c2ccc([O-])cc2O)cc1[O-] (cis-trans isomerization)
COC(=O)c1ccc(/C=C/C(=O)c2ccc([O-])cc2O)cc1[O-] (3D coordinates assigned)
COC(=O)c1ccc(/C=C/C(=O)c2ccc([O-])cc2O)cc1[O-] (optimized conformer: 43.99165446796267 kcal/mol)

>  <smiles>  (88) 
COC(=O)c1ccc(C=CC(=O)c2ccc(O)cc2O)cc1O

>  <score_type>  (88) 
oracle

>  <origin>  (88) 
adg

>  <m_score__min__energy>  (88) 
-13.289999999999999

>  <m_primary>  (88) 
energy

$$$$
88:0
     RDKit          3D

 49 51  0  0  0  0  0  0  0  0999 V2000
   55.6940   29.2280   44.8700 O   0  0  0  0  0  0  0  0  0  0  0  0
   56.8610   29.7070   44.8870 C   0  0  0  0  0  0  0  0  0  0  0  0
   57.0660   31.0690   45.2820 N   0  0  0  0  0  0  0  0  0  0  0  0
   57.3750   32.1550   44.3550 C   0  0  0  0  0  0  0  0  0  0  0  0
   57.3670   33.5110   45.0680 C   0  0  0  0  0  0  0  0  0  0  0  0
   58.4840   33.6330   46.0720 C   0  0  0  0  0  0  0  0  0  0  0  0
   59.7640   34.0400   45.6600 C   0  0  0  0  0  0  0  0  0  0  0  0
   60.7960   34.1750   46.5940 C   0  0  0  0  0  0  0  0  0  0  0  0
   60.5570   33.9040   47.9440 C   0  0  0  0  0  0  0  0  0  0  0  0
   59.2890   33.4980   48.3620 C   0  0  0  0  0  0  0  0  0  0  0  0
   58.2520   33.3640   47.4310 C   0  0  0  0  0  0  0  0  0  0  0  0
   57.9840   28.8900   44.4920 N   0  0  0  0  0  0  0  0  0  0  0  0
   59.3440   29.4500   44.4900 C   0  0  0  0  0  0  0  0  0  0  0  0
   60.2720   28.6420   45.4040 C   0  0  0  0  0  0  0  0  0  0  0  0
   59.9290   28.8580   46.8540 C   0  0  0  0  0  0  0  0  0  0  0  0
   60.4480   28.0020   47.8380 C   0  0  0  0  0  0  0  0  0  0  0  0
   60.1590   28.2440   49.1810 C   0  0  0  0  0  0  0  0  0  0  0  0
   59.3630   29.3330   49.5340 C   0  0  0  0  0  0  0  0  0  0  0  0
   58.8710   30.1720   48.5330 C   0  0  0  0  0  0  0  0  0  0  0  0
   59.1650   29.9270   47.2260 N   0  0  0  0  0  0  0  0  0  0  0  0
   57.7680   27.5120   44.0320 C   0  0  0  0  0  0  0  0  0  0  0  0
   57.5950   26.5980   45.2030 C   0  0  0  0  0  0  0  0  0  0  0  0
   58.5700   25.7610   45.7280 C   0  0  0  0  0  0  0  0  0  0  0  0
   58.1060   24.9710   46.7870 C   0  0  0  0  0  0  0  0  0  0  0  0
   56.7650   25.1770   47.0880 C   0  0  0  0  0  0  0  0  0  0  0  0
   56.1570   26.3390   46.0350 S   0  0  0  0  0  0  0  0  0  0  0  0
   58.3711   31.9837   43.9209 H   0  0  0  0  0  0  0  0  0  0  0  0
   56.6065   32.1706   43.5681 H   0  0  0  0  0  0  0  0  0  0  0  0
   57.4775   34.3069   44.3167 H   0  0  0  0  0  0  0  0  0  0  0  0
   56.4143   33.6017   45.6103 H   0  0  0  0  0  0  0  0  0  0  0  0
   59.9553   34.2534   44.5980 H   0  0  0  0  0  0  0  0  0  0  0  0
   61.7961   34.4946   46.2660 H   0  0  0  0  0  0  0  0  0  0  0  0
   61.3693   34.0108   48.6780 H   0  0  0  0  0  0  0  0  0  0  0  0
   59.1039   33.2829   49.4248 H   0  0  0  0  0  0  0  0  0  0  0  0
   57.2528   33.0472   47.7647 H   0  0  0  0  0  0  0  0  0  0  0  0
   59.7407   29.4277   43.4643 H   0  0  0  0  0  0  0  0  0  0  0  0
   59.2979   30.4838   44.8630 H   0  0  0  0  0  0  0  0  0  0  0  0
   60.1687   27.5730   45.1660 H   0  0  0  0  0  0  0  0  0  0  0  0
   61.3059   28.9779   45.2363 H   0  0  0  0  0  0  0  0  0  0  0  0
   61.0779   27.1467   47.5522 H   0  0  0  0  0  0  0  0  0  0  0  0
   60.5581   27.5774   49.9597 H   0  0  0  0  0  0  0  0  0  0  0  0
   59.1253   29.5288   50.5900 H   0  0  0  0  0  0  0  0  0  0  0  0
   58.2432   31.0346   48.8008 H   0  0  0  0  0  0  0  0  0  0  0  0
   58.7940   30.5800   46.4980 H   0  0  0  0  0  0  0  0  0  0  0  0
   56.8644   27.4754   43.4058 H   0  0  0  0  0  0  0  0  0  0  0  0
   58.6423   27.1869   43.4489 H   0  0  0  0  0  0  0  0  0  0  0  0
   59.6024   25.7222   45.3504 H   0  0  0  0  0  0  0  0  0  0  0  0
   58.7422   24.2557   47.3289 H   0  0  0  0  0  0  0  0  0  0  0  0
   56.1976   24.6668   47.8803 H   0  0  0  0  0  0  0  0  0  0  0  0
  1  2  2  0
  2  3  1  0
  3  4  1  0
  4  5  1  0
  5  6  1  0
  6  7  2  0
  7  8  1  0
  8  9  2  0
  9 10  1  0
 10 11  2  0
  2 12  1  0
 12 13  1  0
 13 14  1  0
 14 15  1  0
 15 16  2  0
 16 17  1  0
 17 18  2  0
 18 19  1  0
 19 20  2  0
 12 21  1  0
 21 22  1  0
 22 23  2  0
 23 24  1  0
 24 25  2  0
 25 26  1  0
 11  6  1  0
 20 15  1  0
 26 22  1  0
  4 27  1  0
  4 28  1  0
  5 29  1  0
  5 30  1  0
  7 31  1  0
  8 32  1  0
  9 33  1  0
 10 34  1  0
 11 35  1  0
 13 36  1  0
 13 37  1  0
 14 38  1  0
 14 39  1  0
 16 40  1  0
 17 41  1  0
 18 42  1  0
 19 43  1  0
 20 44  1  0
 21 45  1  0
 21 46  1  0
 23 47  1  0
 24 48  1  0
 25 49  1  0
M  CHG  2   3  -1  20   1
M  END
>  <UniqueID>  (89) 
83

>  <SMILES>  (89) 
O=C([N-]CCc1ccccc1)N(CCc1cccc[nH+]1)Cc1cccs1

>  <Energy>  (89) 
63.749624511198355

>  <Genealogy>  (89) 
O=C([N-]CCc1ccccc1)N(CCc1cccc[nH+]1)Cc1cccs1 (protonated)
O=C([N-]CCc1ccccc1)N(CCc1cccc[nH+]1)Cc1cccs1 (3D coordinates assigned)
O=C([N-]CCc1ccccc1)N(CCc1cccc[nH+]1)Cc1cccs1 (optimized conformer: 63.749624511198355 kcal/mol)

>  <smiles>  (89) 
O=C(NCCc1ccccc1)N(CCc1ccccn1)Cc1cccs1

>  <score_type>  (89) 
oracle

>  <origin>  (89) 
adg

>  <m_score__min__energy>  (89) 
-7.8600000000000003

>  <m_primary>  (89) 
energy

$$$$
89:0
     RDKit          3D

 56 58  0  0  0  0  0  0  0  0999 V2000
   64.7070   31.2040   50.9060 C   0  0  0  0  0  0  0  0  0  0  0  0
   64.8400   32.1890   49.7830 C   0  0  0  0  0  0  0  0  0  0  0  0
   65.9380   32.7920   49.6440 O   0  0  0  0  0  0  0  0  0  0  0  0
   63.7200   32.4670   48.8440 C   0  0  0  0  0  0  0  0  0  0  0  0
   63.9160   33.2340   47.6780 C   0  0  0  0  0  0  0  0  0  0  0  0
   62.8530   33.4850   46.8060 C   0  0  0  0  0  0  0  0  0  0  0  0
   61.5830   32.9770   47.0800 C   0  0  0  0  0  0  0  0  0  0  0  0
   61.3640   32.2120   48.2360 C   0  0  0  0  0  0  0  0  0  0  0  0
   59.9990   31.6490   48.5350 C   0  0  0  0  0  0  0  0  0  0  0  0
   59.7540   30.4330   47.7320 N   0  0  0  0  0  0  0  0  0  0  0  0
   60.4950   29.2530   48.2480 C   0  0  0  0  0  0  0  0  0  0  0  0
   59.6850   27.9360   48.2590 C   0  0  0  0  0  0  0  0  0  0  0  0
   59.2860   27.3800   46.8730 C   0  0  0  0  0  0  0  0  0  0  0  0
   58.8990   28.4350   45.9150 N   0  0  0  0  0  0  0  0  0  0  0  0
   57.5620   28.4950   45.3710 C   0  0  0  0  0  0  0  0  0  0  0  0
   56.6760   27.7100   45.8080 O   0  0  0  0  0  0  0  0  0  0  0  0
   57.1910   29.4680   44.2790 C   0  0  0  0  0  0  0  0  0  0  0  0
   56.8090   30.7190   44.8210 O   0  0  0  0  0  0  0  0  0  0  0  0
   57.3090   31.7730   44.0240 C   0  0  0  0  0  0  0  0  0  0  0  0
   57.9090   32.8160   44.9210 C   0  0  0  0  0  0  0  0  0  0  0  0
   58.7820   33.7850   44.3990 C   0  0  0  0  0  0  0  0  0  0  0  0
   59.3100   34.7780   45.2310 C   0  0  0  0  0  0  0  0  0  0  0  0
   58.9590   34.8190   46.5830 C   0  0  0  0  0  0  0  0  0  0  0  0
   58.0770   33.8690   47.1060 C   0  0  0  0  0  0  0  0  0  0  0  0
   57.5480   32.8730   46.2770 C   0  0  0  0  0  0  0  0  0  0  0  0
   59.8800   29.4280   45.4330 C   0  0  0  0  0  0  0  0  0  0  0  0
   59.9460   30.7050   46.2910 C   0  0  0  0  0  0  0  0  0  0  0  0
   62.4340   31.9600   49.1100 C   0  0  0  0  0  0  0  0  0  0  0  0
   64.7784   31.7328   51.8679 H   0  0  0  0  0  0  0  0  0  0  0  0
   63.7325   30.6985   50.8369 H   0  0  0  0  0  0  0  0  0  0  0  0
   65.5126   30.4582   50.8369 H   0  0  0  0  0  0  0  0  0  0  0  0
   64.9138   33.6384   47.4524 H   0  0  0  0  0  0  0  0  0  0  0  0
   63.0185   34.0858   45.8996 H   0  0  0  0  0  0  0  0  0  0  0  0
   60.7513   33.1765   46.3883 H   0  0  0  0  0  0  0  0  0  0  0  0
   59.9380   31.3956   49.6037 H   0  0  0  0  0  0  0  0  0  0  0  0
   59.2394   32.4028   48.2803 H   0  0  0  0  0  0  0  0  0  0  0  0
   61.3836   29.1036   47.6170 H   0  0  0  0  0  0  0  0  0  0  0  0
   60.7415   29.4750   49.2968 H   0  0  0  0  0  0  0  0  0  0  0  0
   60.2907   27.1715   48.7677 H   0  0  0  0  0  0  0  0  0  0  0  0
   58.7397   28.1710   48.7700 H   0  0  0  0  0  0  0  0  0  0  0  0
   60.1417   26.8271   46.4581 H   0  0  0  0  0  0  0  0  0  0  0  0
   58.4090   26.7324   47.0195 H   0  0  0  0  0  0  0  0  0  0  0  0
   58.0573   29.6126   43.6167 H   0  0  0  0  0  0  0  0  0  0  0  0
   56.3401   29.0556   43.7169 H   0  0  0  0  0  0  0  0  0  0  0  0
   58.0791   31.3861   43.3404 H   0  0  0  0  0  0  0  0  0  0  0  0
   56.4928   32.2137   43.4328 H   0  0  0  0  0  0  0  0  0  0  0  0
   59.0513   33.7629   43.3327 H   0  0  0  0  0  0  0  0  0  0  0  0
   60.0025   35.5276   44.8204 H   0  0  0  0  0  0  0  0  0  0  0  0
   59.3770   35.5993   47.2360 H   0  0  0  0  0  0  0  0  0  0  0  0
   57.7985   33.9042   48.1696 H   0  0  0  0  0  0  0  0  0  0  0  0
   56.8470   32.1322   46.6891 H   0  0  0  0  0  0  0  0  0  0  0  0
   60.8753   28.9595   45.4316 H   0  0  0  0  0  0  0  0  0  0  0  0
   59.5570   29.7347   44.4272 H   0  0  0  0  0  0  0  0  0  0  0  0
   60.9308   31.1741   46.1493 H   0  0  0  0  0  0  0  0  0  0  0  0
   59.1303   31.3674   45.9656 H   0  0  0  0  0  0  0  0  0  0  0  0
   62.2648   31.3581   50.0150 H   0  0  0  0  0  0  0  0  0  0  0  0
  1  2  1  0
  2  3  2  0
  2  4  1  0
  4  5  2  0
  5  6  1  0
  6  7  2  0
  7  8  1  0
  8  9  1  0
  9 10  1  0
 10 11  1  0
 11 12  1  0
 12 13  1  0
 13 14  1  0
 14 15  1  0
 15 16  2  0
 15 17  1  0
 17 18  1  0
 18 19  1  0
 19 20  1  0
 20 21  2  0
 21 22  1  0
 22 23  2  0
 23 24  1  0
 24 25  2  0
 14 26  1  0
 26 27  1  0
  8 28  2  0
 28  4  1  0
 27 10  1  0
 25 20  1  0
  1 29  1  0
  1 30  1  0
  1 31  1  0
  5 32  1  0
  6 33  1  0
  7 34  1  0
  9 35  1  0
  9 36  1  0
 11 37  1  0
 11 38  1  0
 12 39  1  0
 12 40  1  0
 13 41  1  0
 13 42  1  0
 17 43  1  0
 17 44  1  0
 19 45  1  0
 19 46  1  0
 21 47  1  0
 22 48  1  0
 23 49  1  0
 24 50  1  0
 25 51  1  0
 26 52  1  0
 26 53  1  0
 27 54  1  0
 27 55  1  0
 28 56  1  0
M  END
>  <UniqueID>  (90) 
84

>  <SMILES>  (90) 
CC(=O)c1cccc(CN2CCCN(C(=O)COCc3ccccc3)CC2)c1

>  <Energy>  (90) 
73.32663474711053

>  <Genealogy>  (90) 
CC(=O)c1cccc(CN2CCCN(C(=O)COCc3ccccc3)CC2)c1 (3D coordinates assigned)
CC(=O)c1cccc(CN2CCCN(C(=O)COCc3ccccc3)CC2)c1 (nonaromatic ring conformer: 73.32663474711053 kcal/mol)

>  <smiles>  (90) 
CC(=O)c1cccc(CN2CCCN(C(=O)COCc3ccccc3)CC2)c1

>  <score_type>  (90) 
oracle

>  <origin>  (90) 
adg

>  <m_score__min__energy>  (90) 
-6.7599999999999998

>  <m_primary>  (90) 
energy

$$$$
90:0
     RDKit          3D

 45 48  0  0  0  0  0  0  0  0999 V2000
   59.6990   35.6200   46.7300 O   0  0  0  0  0  0  0  0  0  0  0  0
   59.1630   34.6290   46.1680 C   0  0  0  0  0  0  0  0  0  0  0  0
   59.0700   34.5110   44.8220 N   0  0  0  0  0  0  0  0  0  0  0  0
   58.4440   33.3540   44.4920 C   0  0  0  0  0  0  0  0  0  0  0  0
   58.1820   32.9440   43.1840 C   0  0  0  0  0  0  0  0  0  0  0  0
   57.5140   31.7260   42.9780 C   0  0  0  0  0  0  0  0  0  0  0  0
   57.1180   30.9280   44.0750 C   0  0  0  0  0  0  0  0  0  0  0  0
   56.2740   29.4100   43.7810 S   0  0  0  0  0  0  0  0  0  0  0  0
   56.9650   28.6070   42.7130 O   0  0  0  0  0  0  0  0  0  0  0  0
   54.8800   29.7140   43.3120 O   0  0  0  0  0  0  0  0  0  0  0  0
   56.1850   28.4870   45.2470 N   0  0  0  0  0  0  0  0  0  0  0  0
   57.2210   27.6470   45.7750 C   0  0  0  0  0  0  0  0  0  0  0  0
   58.4080   28.1710   46.3170 C   0  0  0  0  0  0  0  0  0  0  0  0
   59.3960   27.3140   46.8070 C   0  0  0  0  0  0  0  0  0  0  0  0
   59.2130   25.9310   46.7640 C   0  0  0  0  0  0  0  0  0  0  0  0
   58.0300   25.3960   46.2350 C   0  0  0  0  0  0  0  0  0  0  0  0
   57.7810   23.6520   46.1730 S   0  0  0  0  0  0  0  0  0  0  0  0
   57.4040   23.1710   47.5470 O   0  0  0  0  0  0  0  0  0  0  0  0
   59.0510   22.9660   45.7520 O   0  0  0  0  0  0  0  0  0  0  0  0
   56.5030   23.2640   45.0450 N   0  0  0  0  0  0  0  0  0  0  0  0
   56.1230   21.8320   45.1470 C   0  0  0  0  0  0  0  0  0  0  0  0
   56.6560   21.0070   43.9620 C   0  0  0  0  0  0  0  0  0  0  0  0
   56.1780   21.4730   42.7100 O   0  0  0  0  0  0  0  0  0  0  0  0
   56.0780   22.8910   42.6260 C   0  0  0  0  0  0  0  0  0  0  0  0
   56.9060   23.6540   43.6750 C   0  0  0  0  0  0  0  0  0  0  0  0
   57.0400   26.2580   45.7430 C   0  0  0  0  0  0  0  0  0  0  0  0
   57.3940   31.3520   45.3880 C   0  0  0  0  0  0  0  0  0  0  0  0
   58.0510   32.5670   45.5650 C   0  0  0  0  0  0  0  0  0  0  0  0
   58.4850   33.3230   47.0020 S   0  0  0  0  0  0  0  0  0  0  0  0
   58.4930   33.5636   42.3300 H   0  0  0  0  0  0  0  0  0  0  0  0
   57.2970   31.3900   41.9533 H   0  0  0  0  0  0  0  0  0  0  0  0
   58.5590   29.2599   46.3552 H   0  0  0  0  0  0  0  0  0  0  0  0
   60.3225   27.7309   47.2287 H   0  0  0  0  0  0  0  0  0  0  0  0
   59.9973   25.2605   47.1453 H   0  0  0  0  0  0  0  0  0  0  0  0
   55.6740   23.8420   45.3170 H   0  0  0  0  0  0  0  0  0  0  0  0
   56.5359   21.4208   46.0800 H   0  0  0  0  0  0  0  0  0  0  0  0
   55.0248   21.7708   45.1363 H   0  0  0  0  0  0  0  0  0  0  0  0
   57.7546   21.0615   43.9614 H   0  0  0  0  0  0  0  0  0  0  0  0
   56.2994   19.9743   44.0897 H   0  0  0  0  0  0  0  0  0  0  0  0
   56.4198   23.2007   41.6274 H   0  0  0  0  0  0  0  0  0  0  0  0
   55.0242   23.1415   42.8177 H   0  0  0  0  0  0  0  0  0  0  0  0
   57.9717   23.4218   43.5323 H   0  0  0  0  0  0  0  0  0  0  0  0
   56.7298   24.7324   43.5482 H   0  0  0  0  0  0  0  0  0  0  0  0
   56.1114   25.8395   45.3275 H   0  0  0  0  0  0  0  0  0  0  0  0
   57.0984   30.7394   46.2525 H   0  0  0  0  0  0  0  0  0  0  0  0
  1  2  2  0
  2  3  1  0
  3  4  1  0
  4  5  2  0
  5  6  1  0
  6  7  2  0
  7  8  1  0
  8  9  2  0
  8 10  2  0
  8 11  1  0
 11 12  1  0
 12 13  2  0
 13 14  1  0
 14 15  2  0
 15 16  1  0
 16 17  1  0
 17 18  2  0
 17 19  2  0
 17 20  1  0
 20 21  1  0
 21 22  1  0
 22 23  1  0
 23 24  1  0
 24 25  1  0
 16 26  2  0
  7 27  1  0
 27 28  2  0
 28 29  1  0
 29  2  1  0
 28  4  1  0
 26 12  1  0
 25 20  1  0
  5 30  1  0
  6 31  1  0
 13 32  1  0
 14 33  1  0
 15 34  1  0
 20 35  1  0
 21 36  1  0
 21 37  1  0
 22 38  1  0
 22 39  1  0
 24 40  1  0
 24 41  1  0
 25 42  1  0
 25 43  1  0
 26 44  1  0
 27 45  1  0
M  CHG  3   3  -1  11  -1  20   1
M  END
>  <UniqueID>  (91) 
85

>  <SMILES>  (91) 
O=c1[n-]c2ccc(S(=O)(=O)[N-]c3cccc(S(=O)(=O)[NH+]4CCOCC4)c3)cc2s1

>  <Energy>  (91) 
99.27907205712191

>  <Genealogy>  (91) 
O=c1[n-]c2ccc(S(=O)(=O)[N-]c3cccc(S(=O)(=O)[NH+]4CCOCC4)c3)cc2s1 (protonated)
O=c1[n-]c2ccc(S(=O)(=O)[N-]c3cccc(S(=O)(=O)[NH+]4CCOCC4)c3)cc2s1 (3D coordinates assigned)
O=c1[n-]c2ccc(S(=O)(=O)[N-]c3cccc(S(=O)(=O)[NH+]4CCOCC4)c3)cc2s1 (nonaromatic ring conformer: 99.27907205712191 kcal/mol)

>  <smiles>  (91) 
O=c1[nH]c2ccc(S(=O)(=O)Nc3cccc(S(=O)(=O)N4CCOCC4)c3)cc2s1

>  <score_type>  (91) 
oracle

>  <origin>  (91) 
adg

>  <m_score__min__energy>  (91) 
-10.609999999999999

>  <m_primary>  (91) 
energy

$$$$
91:0
     RDKit          3D

 39 41  0  0  0  0  0  0  0  0999 V2000
   56.8789   31.2806   41.8437 H   0  0  0  0  0  0  0  0  0  0  0  0
   57.1330   31.1350   42.9040 C   0  0  0  0  0  0  0  0  0  0  0  0
   57.6180   32.2060   43.6580 C   0  0  0  0  0  0  0  0  0  0  0  0
   57.7380   33.1959   43.1935 H   0  0  0  0  0  0  0  0  0  0  0  0
   57.9510   32.0200   45.0030 C   0  0  0  0  0  0  0  0  0  0  0  0
   58.4310   33.0580   45.7320 F   0  0  0  0  0  0  0  0  0  0  0  0
   57.7900   30.7640   45.5970 C   0  0  0  0  0  0  0  0  0  0  0  0
   58.0641   30.6190   46.6524 H   0  0  0  0  0  0  0  0  0  0  0  0
   57.2800   29.6860   44.8530 C   0  0  0  0  0  0  0  0  0  0  0  0
   57.1430   28.3550   45.4880 C   0  0  0  0  0  0  0  0  0  0  0  0
   55.9310   27.7410   45.4350 N   0  0  0  0  0  0  0  0  0  0  0  0
   55.7180   26.5220   46.0000 C   0  0  0  0  0  0  0  0  0  0  0  0
   54.5510   25.9520   45.9420 N   0  0  0  0  0  0  0  0  0  0  0  0
   54.2900   24.6330   45.3650 C   0  0  0  0  0  0  0  0  0  0  0  0
   53.3365   24.6629   44.8173 H   0  0  0  0  0  0  0  0  0  0  0  0
   55.1180   24.3786   44.6870 H   0  0  0  0  0  0  0  0  0  0  0  0
   54.2070   23.5580   46.4570 C   0  0  0  0  0  0  0  0  0  0  0  0
   53.7898   24.0062   47.3708 H   0  0  0  0  0  0  0  0  0  0  0  0
   53.5624   22.7432   46.0955 H   0  0  0  0  0  0  0  0  0  0  0  0
   55.5290   23.0050   46.7570 N   0  0  0  0  0  0  0  0  0  0  0  0
   56.4790   22.7050   45.9130 C   0  0  0  0  0  0  0  0  0  0  0  0
   56.3020   21.7590   44.8800 C   0  0  0  0  0  0  0  0  0  0  0  0
   55.3381   21.2424   44.7613 H   0  0  0  0  0  0  0  0  0  0  0  0
   57.3580   21.4840   44.0110 C   0  0  0  0  0  0  0  0  0  0  0  0
   57.2276   20.7505   43.2017 H   0  0  0  0  0  0  0  0  0  0  0  0
   58.5770   22.1380   44.1680 C   0  0  0  0  0  0  0  0  0  0  0  0
   59.4137   21.9257   43.4861 H   0  0  0  0  0  0  0  0  0  0  0  0
   58.7260   23.0660   45.2000 C   0  0  0  0  0  0  0  0  0  0  0  0
   59.6847   23.5885   45.3335 H   0  0  0  0  0  0  0  0  0  0  0  0
   57.6890   23.3260   46.0410 N   0  0  0  0  0  0  0  0  0  0  0  0
   57.8320   24.0270   46.8040 H   0  0  0  0  0  0  0  0  0  0  0  0
   56.7380   25.8880   46.6300 N   0  0  0  0  0  0  0  0  0  0  0  0
   57.9750   26.4420   46.7030 C   0  0  0  0  0  0  0  0  0  0  0  0
   58.8990   25.8140   47.2890 O   0  0  0  0  0  0  0  0  0  0  0  0
   58.2170   27.6980   46.1270 C   0  0  0  0  0  0  0  0  0  0  0  0
   59.5520   28.2540   46.1410 C   0  0  0  0  0  0  0  0  0  0  0  0
   60.6220   28.6980   46.1520 N   0  0  0  0  0  0  0  0  0  0  0  0
   56.9700   29.8790   43.4940 C   0  0  0  0  0  0  0  0  0  0  0  0
   56.5973   29.0365   42.8929 H   0  0  0  0  0  0  0  0  0  0  0  0
  1  2  1  0
  2  3  2  0
  3  4  1  0
  3  5  1  0
  5  6  1  0
  5  7  2  0
  7  8  1  0
  7  9  1  0
  9 10  1  0
 10 11  1  0
 11 12  1  0
 12 13  2  3
 13 14  1  0
 14 15  1  0
 14 16  1  0
 14 17  1  0
 17 18  1  0
 17 19  1  0
 17 20  1  0
 20 21  2  0
 21 22  1  0
 22 23  1  0
 22 24  2  0
 24 25  1  0
 24 26  1  0
 26 27  1  0
 26 28  2  0
 28 29  1  0
 28 30  1  0
 30 31  1  0
 12 32  1  0
 32 33  1  0
 33 34  2  0
 33 35  1  0
 35 36  1  0
 36 37  3  0
  9 38  2  0
 38 39  1  0
 38  2  1  0
 35 10  2  0
 30 21  1  0
M  CHG  2  11  -1  32  -1
M  END
>  <UniqueID>  (92) 
86

>  <SMILES>  (92) 
N#Cc1c(-c2cccc(F)c2)[n-]c(=NCC/N=c2\cccc[nH]2)[n-]c1=O

>  <Energy>  (92) 
50.588055880794265

>  <Genealogy>  (92) 
N#Cc1c(-c2cccc(F)c2)[n-]c(=NCCN=c2cccc[nH]2)[n-]c1=O (protonated)
N#Cc1c(-c2cccc(F)c2)[n-]c(=NCC/N=c2\cccc[nH]2)[n-]c1=O (cis-trans isomerization)
N#Cc1c(-c2cccc(F)c2)[n-]c(=NCC/N=c2\cccc[nH]2)[n-]c1=O (3D coordinates assigned)
N#Cc1c(-c2cccc(F)c2)[n-]c(=NCC/N=c2\cccc[nH]2)[n-]c1=O (optimized conformer: 50.588055880794265 kcal/mol)

>  <smiles>  (92) 
N#Cc1c(-c2cccc(F)c2)[nH]c(=NCCN=c2cccc[nH]2)[nH]c1=O

>  <score_type>  (92) 
oracle

>  <origin>  (92) 
adg

>  <m_score__min__energy>  (92) 
-10.710000000000001

>  <m_primary>  (92) 
energy

$$$$
92:0
     RDKit          3D

 24 25  0  0  0  0  0  0  0  0999 V2000
   58.8220   28.4260   45.2930 O   0  0  0  0  0  0  0  0  0  0  0  0
   57.5760   28.4150   45.4880 C   0  0  0  0  0  0  0  0  0  0  0  0
   56.8420   29.6510   45.5130 N   0  0  0  0  0  0  0  0  0  0  0  0
   57.3580   30.9010   45.0260 C   0  0  0  0  0  0  0  0  0  0  0  0
   57.7660   31.8840   45.9430 C   0  0  0  0  0  0  0  0  0  0  0  0
   58.2500   33.1160   45.4940 C   0  0  0  0  0  0  0  0  0  0  0  0
   58.3180   33.3830   44.1250 C   0  0  0  0  0  0  0  0  0  0  0  0
   57.8950   32.4220   43.2030 C   0  0  0  0  0  0  0  0  0  0  0  0
   57.4090   31.1880   43.6490 C   0  0  0  0  0  0  0  0  0  0  0  0
   56.8840   27.1300   45.7280 C   0  0  0  0  0  0  0  0  0  0  0  0
   57.5990   25.9370   45.8990 C   0  0  0  0  0  0  0  0  0  0  0  0
   56.9050   24.7490   46.1170 C   0  0  0  0  0  0  0  0  0  0  0  0
   55.5120   24.7740   46.1600 C   0  0  0  0  0  0  0  0  0  0  0  0
   54.8600   23.7160   46.3560 O   0  0  0  0  0  0  0  0  0  0  0  0
   54.8600   25.9520   45.9870 N   0  0  0  0  0  0  0  0  0  0  0  0
   55.5230   27.0910   45.7770 N   0  0  0  0  0  0  0  0  0  0  0  0
   55.9140   29.6650   45.9960 H   0  0  0  0  0  0  0  0  0  0  0  0
   57.7041   31.6826   47.0226 H   0  0  0  0  0  0  0  0  0  0  0  0
   58.5774   33.8755   46.2192 H   0  0  0  0  0  0  0  0  0  0  0  0
   58.7048   34.3504   43.7722 H   0  0  0  0  0  0  0  0  0  0  0  0
   57.9441   32.6359   42.1251 H   0  0  0  0  0  0  0  0  0  0  0  0
   57.0653   30.4390   42.9204 H   0  0  0  0  0  0  0  0  0  0  0  0
   58.6984   25.9386   45.8614 H   0  0  0  0  0  0  0  0  0  0  0  0
   57.4495   23.8030   46.2535 H   0  0  0  0  0  0  0  0  0  0  0  0
  1  2  2  0
  2  3  1  0
  3  4  1  0
  4  5  2  0
  5  6  1  0
  6  7  2  0
  7  8  1  0
  8  9  2  0
  2 10  1  0
 10 11  1  0
 11 12  2  0
 12 13  1  0
 13 14  2  0
 13 15  1  0
 15 16  1  0
  9  4  1  0
 16 10  2  0
  3 17  1  0
  5 18  1  0
  6 19  1  0
  7 20  1  0
  8 21  1  0
  9 22  1  0
 11 23  1  0
 12 24  1  0
M  CHG  1  15  -1
M  END
>  <UniqueID>  (93) 
87

>  <SMILES>  (93) 
O=C(Nc1ccccc1)c1ccc(=O)[n-]n1

>  <Energy>  (93) 
30.050202995333482

>  <Genealogy>  (93) 
O=C(Nc1ccccc1)c1ccc(=O)[n-]n1 (protonated)
O=C(Nc1ccccc1)c1ccc(=O)[n-]n1 (3D coordinates assigned)
O=C(Nc1ccccc1)c1ccc(=O)[n-]n1 (optimized conformer: 30.050202995333482 kcal/mol)

>  <smiles>  (93) 
O=C(Nc1ccccc1)c1ccc(=O)[nH]n1

>  <score_type>  (93) 
oracle

>  <origin>  (93) 
adg

>  <m_score__min__energy>  (93) 
-8.6300000000000008

>  <m_primary>  (93) 
energy

$$$$
93:0
     RDKit          3D

 47 49  0  0  0  0  0  0  0  0999 V2000
   56.4140   32.0630   45.1490 O   0  0  0  0  0  0  0  0  0  0  0  0
   57.1200   31.3980   44.3160 C   0  0  0  0  0  0  0  0  0  0  0  0
   56.4710   30.3100   43.5990 C   0  0  0  0  0  0  0  0  0  0  0  0
   55.9250   29.2830   44.3600 O   0  0  0  0  0  0  0  0  0  0  0  0
   56.5900   28.4520   45.2340 C   0  0  0  0  0  0  0  0  0  0  0  0
   56.0630   27.3830   45.6360 O   0  0  0  0  0  0  0  0  0  0  0  0
   57.9280   28.8680   45.6710 C   0  0  0  0  0  0  0  0  0  0  0  0
   59.0670   28.5800   44.9490 C   0  0  0  0  0  0  0  0  0  0  0  0
   60.3290   28.9690   45.3580 C   0  0  0  0  0  0  0  0  0  0  0  0
   60.3950   29.6760   46.5500 C   0  0  0  0  0  0  0  0  0  0  0  0
   61.5160   30.0700   46.9940 O   0  0  0  0  0  0  0  0  0  0  0  0
   59.2780   29.9590   47.2600 N   0  0  0  0  0  0  0  0  0  0  0  0
   58.0920   29.5630   46.8260 N   0  0  0  0  0  0  0  0  0  0  0  0
   58.4710   31.8050   44.1820 N   0  0  0  0  0  0  0  0  0  0  0  0
   58.8900   32.9070   44.9970 C   0  0  0  0  0  0  0  0  0  0  0  0
   58.8530   34.2010   44.4740 C   0  0  0  0  0  0  0  0  0  0  0  0
   59.2590   35.2820   45.2570 C   0  0  0  0  0  0  0  0  0  0  0  0
   59.6900   35.0440   46.5450 C   0  0  0  0  0  0  0  0  0  0  0  0
   59.7410   33.7860   47.0950 C   0  0  0  0  0  0  0  0  0  0  0  0
   60.2990   33.5990   48.7210 S   0  0  0  0  0  0  0  0  0  0  0  0
   59.6180   34.6280   49.5770 O   0  0  0  0  0  0  0  0  0  0  0  0
   59.9680   32.2470   49.2910 O   0  0  0  0  0  0  0  0  0  0  0  0
   62.0180   33.8800   48.8240 N   0  0  0  0  0  0  0  0  0  0  0  0
   62.5880   32.8280   49.6470 C   0  0  0  0  0  0  0  0  0  0  0  0
   64.0310   32.6130   49.2970 C   0  0  0  0  0  0  0  0  0  0  0  0
   64.1180   32.0090   48.0440 O   0  0  0  0  0  0  0  0  0  0  0  0
   63.0630   32.4030   47.1970 C   0  0  0  0  0  0  0  0  0  0  0  0
   62.6340   33.8310   47.5320 C   0  0  0  0  0  0  0  0  0  0  0  0
   59.3320   32.7240   46.2940 C   0  0  0  0  0  0  0  0  0  0  0  0
   55.6577   30.7468   43.0009 H   0  0  0  0  0  0  0  0  0  0  0  0
   57.2749   29.8349   43.0176 H   0  0  0  0  0  0  0  0  0  0  0  0
   58.9673   28.0176   44.0089 H   0  0  0  0  0  0  0  0  0  0  0  0
   61.2292   28.7316   44.7720 H   0  0  0  0  0  0  0  0  0  0  0  0
   59.3890   30.4970   48.1570 H   0  0  0  0  0  0  0  0  0  0  0  0
   59.0930   31.3150   43.5170 H   0  0  0  0  0  0  0  0  0  0  0  0
   58.5037   34.3682   43.4444 H   0  0  0  0  0  0  0  0  0  0  0  0
   59.2357   36.3054   44.8543 H   0  0  0  0  0  0  0  0  0  0  0  0
   60.0071   35.8994   47.1595 H   0  0  0  0  0  0  0  0  0  0  0  0
   62.5109   33.1147   50.7062 H   0  0  0  0  0  0  0  0  0  0  0  0
   62.0345   31.8947   49.4664 H   0  0  0  0  0  0  0  0  0  0  0  0
   64.5515   33.5818   49.2744 H   0  0  0  0  0  0  0  0  0  0  0  0
   64.4994   31.9638   50.0514 H   0  0  0  0  0  0  0  0  0  0  0  0
   63.3993   32.3590   46.1506 H   0  0  0  0  0  0  0  0  0  0  0  0
   62.2093   31.7246   47.3416 H   0  0  0  0  0  0  0  0  0  0  0  0
   63.5184   34.4850   47.5277 H   0  0  0  0  0  0  0  0  0  0  0  0
   61.9077   34.1701   46.7787 H   0  0  0  0  0  0  0  0  0  0  0  0
   59.3614   31.7048   46.7067 H   0  0  0  0  0  0  0  0  0  0  0  0
  1  2  2  0
  2  3  1  0
  3  4  1  0
  4  5  1  0
  5  6  2  0
  5  7  1  0
  7  8  1  0
  8  9  2  0
  9 10  1  0
 10 11  2  0
 10 12  1  0
 12 13  1  0
  2 14  1  0
 14 15  1  0
 15 16  2  0
 16 17  1  0
 17 18  2  0
 18 19  1  0
 19 20  1  0
 20 21  2  0
 20 22  2  0
 20 23  1  0
 23 24  1  0
 24 25  1  0
 25 26  1  0
 26 27  1  0
 27 28  1  0
 19 29  2  0
 13  7  2  0
 29 15  1  0
 28 23  1  0
  3 30  1  0
  3 31  1  0
  8 32  1  0
  9 33  1  0
 12 34  1  0
 14 35  1  0
 16 36  1  0
 17 37  1  0
 18 38  1  0
 24 39  1  0
 24 40  1  0
 25 41  1  0
 25 42  1  0
 27 43  1  0
 27 44  1  0
 28 45  1  0
 28 46  1  0
 29 47  1  0
M  END
>  <smiles>  (94) 
O=C(COC(=O)c1ccc(=O)[nH]n1)Nc1cccc(S(=O)(=O)N2CCOCC2)c1

>  <score_type>  (94) 
oracle

>  <origin>  (94) 
adg

>  <m_score__min__energy>  (94) 
-9.3599999999999994

>  <m_primary>  (94) 
energy

$$$$
94:0
     RDKit          3D

 58 62  0  0  1  0  0  0  0  0999 V2000
   59.6220   28.6690   48.0170 C   0  0  0  0  0  0  0  0  0  0  0  0
   58.4150   29.1900   47.5310 O   0  0  0  0  0  0  0  0  0  0  0  0
   58.3270   30.3660   46.7950 C   0  0  0  0  0  0  0  0  0  0  0  0
   58.9490   31.5480   47.2270 C   0  0  0  0  0  0  0  0  0  0  0  0
   58.8160   32.6540   46.4530 C   0  0  0  0  0  0  0  0  0  0  0  0
   59.4060   33.8300   46.8300 C   0  0  0  0  0  0  0  0  0  0  0  0
   60.0580   33.9370   47.8590 N   0  0  0  0  0  0  0  0  0  0  0  0
   61.3160   33.5850   48.2220 C   0  0  0  0  0  0  0  0  0  0  0  0
   62.2310   33.0610   47.2710 C   0  0  0  0  0  0  0  0  0  0  0  0
   63.5250   32.8040   47.5730 C   0  0  0  0  0  0  0  0  0  0  0  0
   64.0220   33.0500   48.8590 C   0  0  0  0  0  0  0  0  0  0  0  0
   65.2350   32.8620   49.3210 N   0  0  0  0  0  0  0  0  0  0  0  0
   65.6900   33.0500   50.3750 C   0  0  0  0  0  0  0  0  0  0  0  0
   66.9450   32.9520   51.1780 C   0  0  0  0  0  0  0  0  0  0  0  0
   64.1290   33.7320   51.2720 S   0  0  0  0  0  0  0  0  0  0  0  0
   63.1350   33.5530   49.7630 C   0  0  0  0  0  0  0  0  0  0  0  0
   61.8040   33.8390   49.5310 C   0  0  0  0  0  0  0  0  0  0  0  0
   59.2580   34.9280   46.0370 N   0  0  0  0  0  0  0  0  0  0  0  0
   58.5650   34.9320   44.8930 C   0  0  0  0  0  0  0  0  0  0  0  0
   57.9850   33.7790   44.5200 N   0  0  0  0  0  0  0  0  0  0  0  0
   58.1080   32.6550   45.2870 C   0  0  0  0  0  0  0  0  0  0  0  0
   57.4960   31.5220   44.8490 C   0  0  0  0  0  0  0  0  0  0  0  0
   57.6150   30.3870   45.6130 C   0  0  0  0  0  0  0  0  0  0  0  0
   57.0450   29.1950   45.2640 O   0  0  0  0  0  0  0  0  0  0  0  0
   57.5260   28.3140   44.3500 C   0  0  0  0  0  0  0  0  0  0  0  0
   58.7250   27.4950   44.6840 C   0  0  0  0  0  0  0  0  0  0  0  0
   58.3700   26.2610   45.5020 C   0  0  0  0  0  0  0  0  0  0  0  0
   57.3400   25.4720   44.8910 N   0  0  0  0  0  0  0  0  0  0  0  0
   57.3770   24.7890   43.6190 C   0  0  0  0  0  0  0  0  0  0  0  0
   56.4810   23.5840   43.8010 C   0  0  0  0  0  0  0  0  0  0  0  0
   55.3800   24.1190   44.6550 C   0  0  0  0  0  0  0  0  0  0  0  0
   56.0440   25.1950   45.4280 C   0  0  0  0  0  0  0  0  0  0  0  0
   55.5970   25.8310   46.4350 O   0  0  0  0  0  0  0  0  0  0  0  0
   59.6076   28.6752   49.1169 H   0  0  0  0  0  0  0  0  0  0  0  0
   59.7469   27.6368   47.6578 H   0  0  0  0  0  0  0  0  0  0  0  0
   60.4588   29.2861   47.6578 H   0  0  0  0  0  0  0  0  0  0  0  0
   59.5258   31.5764   48.1632 H   0  0  0  0  0  0  0  0  0  0  0  0
   61.8748   32.8563   46.2506 H   0  0  0  0  0  0  0  0  0  0  0  0
   64.1937   32.3975   46.7999 H   0  0  0  0  0  0  0  0  0  0  0  0
   66.6971   32.9714   52.2495 H   0  0  0  0  0  0  0  0  0  0  0  0
   67.4613   32.0108   50.9380 H   0  0  0  0  0  0  0  0  0  0  0  0
   67.6011   33.8016   50.9380 H   0  0  0  0  0  0  0  0  0  0  0  0
   61.1542   34.2435   50.3210 H   0  0  0  0  0  0  0  0  0  0  0  0
   59.7030   35.8470   46.3050 H   0  0  0  0  0  0  0  0  0  0  0  0
   58.4737   35.8424   44.2824 H   0  0  0  0  0  0  0  0  0  0  0  0
   56.9225   31.5150   43.9103 H   0  0  0  0  0  0  0  0  0  0  0  0
   56.7110   27.6111   44.1227 H   0  0  0  0  0  0  0  0  0  0  0  0
   57.8720   28.9569   43.5272 H   0  0  0  0  0  0  0  0  0  0  0  0
   59.2059   27.1733   43.7484 H   0  0  0  0  0  0  0  0  0  0  0  0
   59.4009   28.1175   45.2887 H   0  0  0  0  0  0  0  0  0  0  0  0
   59.2712   25.6399   45.6118 H   0  0  0  0  0  0  0  0  0  0  0  0
   57.9928   26.6044   46.4765 H   0  0  0  0  0  0  0  0  0  0  0  0
   56.9940   25.4393   42.8188 H   0  0  0  0  0  0  0  0  0  0  0  0
   58.3997   24.5059   43.3294 H   0  0  0  0  0  0  0  0  0  0  0  0
   56.0955   23.2269   42.8346 H   0  0  0  0  0  0  0  0  0  0  0  0
   56.9969   22.7198   44.2450 H   0  0  0  0  0  0  0  0  0  0  0  0
   54.5631   24.5225   44.0386 H   0  0  0  0  0  0  0  0  0  0  0  0
   54.9171   23.3518   45.2931 H   0  0  0  0  0  0  0  0  0  0  0  0
  1  2  1  0
  2  3  1  0
  3  4  2  0
  4  5  1  0
  5  6  1  0
  6  7  2  0
  7  8  1  0
  8  9  2  0
  9 10  1  0
 10 11  2  0
 11 12  1  0
 12 13  2  0
 13 14  1  0
 13 15  1  0
 15 16  1  0
 16 17  2  0
  6 18  1  0
 18 19  1  0
 19 20  2  0
 20 21  1  0
 21 22  1  0
 22 23  2  0
 23 24  1  0
 24 25  1  0
 25 26  1  0
 26 27  1  0
 27 28  1  0
 28 29  1  0
 29 30  1  0
 30 31  1  0
 31 32  1  0
 32 33  2  0
 23  3  1  0
 32 28  1  0
 21  5  2  0
 17  8  1  0
 16 11  1  0
  1 34  1  0
  1 35  1  0
  1 36  1  0
  4 37  1  0
  9 38  1  0
 10 39  1  0
 14 40  1  0
 14 41  1  0
 14 42  1  0
 17 43  1  0
 18 44  1  0
 19 45  1  0
 22 46  1  0
 25 47  1  0
 25 48  1  0
 26 49  1  0
 26 50  1  0
 27 51  1  0
 27 52  1  0
 29 53  1  0
 29 54  1  0
 30 55  1  0
 30 56  1  0
 31 57  1  0
 31 58  1  0
M  END
>  <smiles>  (95) 
COc1cc2c(=Nc3ccc4nc(C)sc4c3)[nH]cnc2cc1OCCCN1CCCC1=O

>  <score_type>  (95) 
oracle

>  <origin>  (95) 
adg

>  <m_score__min__energy>  (95) 
-9.3200000000000003

>  <m_primary>  (95) 
energy

$$$$
95:0
     RDKit          3D

 59 62  0  0  0  0  0  0  0  0999 V2000
   59.5620   32.7640   49.2920 C   0  0  0  0  0  0  0  0  0  0  0  0
   58.9240   31.5910   49.8940 N   0  0  0  0  0  0  0  0  0  0  0  0
   59.3800   30.3900   49.2340 C   0  0  0  0  0  0  0  0  0  0  0  0
   59.3020   30.3340   47.8750 N   0  0  0  0  0  0  0  0  0  0  0  0
   59.6210   29.2150   47.1810 C   0  0  0  0  0  0  0  0  0  0  0  0
   59.4890   29.2150   45.8860 N   0  0  0  0  0  0  0  0  0  0  0  0
   58.3400   29.6430   45.1320 C   0  0  0  0  0  0  0  0  0  0  0  0
   57.1080   28.9580   45.1840 C   0  0  0  0  0  0  0  0  0  0  0  0
   56.0240   29.3980   44.4160 C   0  0  0  0  0  0  0  0  0  0  0  0
   56.1630   30.5070   43.5780 C   0  0  0  0  0  0  0  0  0  0  0  0
   57.3910   31.1710   43.4980 C   0  0  0  0  0  0  0  0  0  0  0  0
   58.4780   30.7340   44.2630 C   0  0  0  0  0  0  0  0  0  0  0  0
   60.0130   28.1010   47.8510 N   0  0  0  0  0  0  0  0  0  0  0  0
   60.1160   28.0860   49.2020 C   0  0  0  0  0  0  0  0  0  0  0  0
   60.5130   27.0360   49.7740 O   0  0  0  0  0  0  0  0  0  0  0  0
   59.7980   29.2380   49.9490 C   0  0  0  0  0  0  0  0  0  0  0  0
   59.9170   29.2180   51.4270 C   0  0  0  0  0  0  0  0  0  0  0  0
   61.0560   29.2850   51.9650 O   0  0  0  0  0  0  0  0  0  0  0  0
   58.7050   29.0310   52.2990 C   0  0  0  0  0  0  0  0  0  0  0  0
   58.6870   30.0320   53.3840 N   0  0  0  0  0  0  0  0  0  0  0  0
   59.7630   31.0260   53.2910 C   0  0  0  0  0  0  0  0  0  0  0  0
   59.2640   32.2960   53.9750 C   0  0  0  0  0  0  0  0  0  0  0  0
   57.7970   32.0460   54.2970 C   0  0  0  0  0  0  0  0  0  0  0  0
   57.4300   30.7900   53.5130 C   0  0  1  0  0  0  0  0  0  0  0  0
   56.8060   31.1570   52.1800 C   0  0  0  0  0  0  0  0  0  0  0  0
   57.2200   32.1640   51.5430 O   0  0  0  0  0  0  0  0  0  0  0  0
   55.7940   30.3050   51.6270 N   0  0  0  0  0  0  0  0  0  0  0  0
   54.4070   30.2570   51.9930 C   0  0  0  0  0  0  0  0  0  0  0  0
   53.8730   29.2200   52.7780 C   0  0  0  0  0  0  0  0  0  0  0  0
   52.5110   29.2030   53.0890 C   0  0  0  0  0  0  0  0  0  0  0  0
   51.6640   30.2050   52.6050 C   0  0  0  0  0  0  0  0  0  0  0  0
   52.1730   31.2370   51.7960 C   0  0  0  0  0  0  0  0  0  0  0  0
   51.2780   32.2910   51.2630 C   0  0  0  0  0  0  0  0  0  0  0  0
   51.3850   32.6770   50.0690 O   0  0  0  0  0  0  0  0  0  0  0  0
   50.3110   32.8720   52.0760 O   0  0  0  0  0  0  0  0  0  0  0  0
   53.5470   31.2500   51.4900 C   0  0  0  0  0  0  0  0  0  0  0  0
   59.9254   33.4321   50.0867 H   0  0  0  0  0  0  0  0  0  0  0  0
   60.4089   32.4413   48.6686 H   0  0  0  0  0  0  0  0  0  0  0  0
   58.8309   33.2996   48.6686 H   0  0  0  0  0  0  0  0  0  0  0  0
   59.1940   31.5450   50.9050 H   0  0  0  0  0  0  0  0  0  0  0  0
   57.8890   31.7050   49.8520 H   0  0  0  0  0  0  0  0  0  0  0  0
   56.9989   28.0748   45.8305 H   0  0  0  0  0  0  0  0  0  0  0  0
   55.0608   28.8697   44.4723 H   0  0  0  0  0  0  0  0  0  0  0  0
   55.3076   30.8575   42.9818 H   0  0  0  0  0  0  0  0  0  0  0  0
   57.5028   32.0392   42.8319 H   0  0  0  0  0  0  0  0  0  0  0  0
   59.4463   31.2496   44.1820 H   0  0  0  0  0  0  0  0  0  0  0  0
   57.7981   29.1447   51.6870 H   0  0  0  0  0  0  0  0  0  0  0  0
   58.7396   28.0257   52.7441 H   0  0  0  0  0  0  0  0  0  0  0  0
   60.6649   30.6538   53.7989 H   0  0  0  0  0  0  0  0  0  0  0  0
   60.0221   31.2241   52.2405 H   0  0  0  0  0  0  0  0  0  0  0  0
   59.8323   32.4822   54.8982 H   0  0  0  0  0  0  0  0  0  0  0  0
   59.3921   33.1789   53.3315 H   0  0  0  0  0  0  0  0  0  0  0  0
   57.6604   31.8820   55.3761 H   0  0  0  0  0  0  0  0  0  0  0  0
   57.1624   32.9027   54.0261 H   0  0  0  0  0  0  0  0  0  0  0  0
   56.6694   30.1759   54.0173 H   0  0  0  0  0  0  0  0  0  0  0  0
   54.5298   28.4192   53.1486 H   0  0  0  0  0  0  0  0  0  0  0  0
   52.1030   28.3977   53.7175 H   0  0  0  0  0  0  0  0  0  0  0  0
   50.5937   30.1860   52.8584 H   0  0  0  0  0  0  0  0  0  0  0  0
   53.9532   32.0467   50.8495 H   0  0  0  0  0  0  0  0  0  0  0  0
  1  2  1  0
  2  3  1  0
  3  4  1  0
  4  5  1  0
  5  6  2  3
  6  7  1  0
  7  8  2  0
  8  9  1  0
  9 10  2  0
 10 11  1  0
 11 12  2  0
  5 13  1  0
 13 14  1  0
 14 15  2  0
 14 16  1  0
 16 17  1  0
 17 18  2  0
 17 19  1  0
 19 20  1  0
 20 21  1  0
 21 22  1  0
 22 23  1  0
 23 24  1  0
 24 25  1  0
 25 26  2  0
 25 27  1  0
 27 28  1  0
 28 29  2  0
 29 30  1  0
 30 31  2  0
 31 32  1  0
 32 33  1  0
 33 34  2  0
 33 35  1  0
 32 36  2  0
 16  3  2  0
 24 20  1  0
 36 28  1  0
 12  7  1  0
  1 37  1  0
  1 38  1  0
  1 39  1  0
  2 40  1  0
  2 41  1  0
  8 42  1  0
  9 43  1  0
 10 44  1  0
 11 45  1  0
 12 46  1  0
 19 47  1  0
 19 48  1  0
 21 49  1  0
 21 50  1  0
 22 51  1  0
 22 52  1  0
 23 53  1  0
 23 54  1  0
 24 55  1  1
 29 56  1  0
 30 57  1  0
 31 58  1  0
 36 59  1  0
M  CHG  5   2   1   4  -1  13  -1  27  -1  35  -1
M  END
>  <UniqueID>  (96) 
88

>  <SMILES>  (96) 
C[NH2+]c1[n-]c(=Nc2ccccc2)[n-]c(=O)c1C(=O)CN1CCC[C@H]1C(=O)[N-]c1cccc(C(=O)[O-])c1

>  <Energy>  (96) 
87.41709849583748

>  <Genealogy>  (96) 
C[NH2+]c1[n-]c(=Nc2ccccc2)[n-]c(=O)c1C(=O)CN1CCCC1C(=O)[N-]c1cccc(C(=O)[O-])c1 (protonated)
C[NH2+]c1[n-]c(=Nc2ccccc2)[n-]c(=O)c1C(=O)CN1CCC[C@H]1C(=O)[N-]c1cccc(C(=O)[O-])c1 (chirality)
C[NH2+]c1[n-]c(=Nc2ccccc2)[n-]c(=O)c1C(=O)CN1CCC[C@H]1C(=O)[N-]c1cccc(C(=O)[O-])c1 (3D coordinates assigned)
C[NH2+]c1[n-]c(=Nc2ccccc2)[n-]c(=O)c1C(=O)CN1CCC[C@H]1C(=O)[N-]c1cccc(C(=O)[O-])c1 (nonaromatic ring conformer: 87.41709849583748 kcal/mol)

>  <smiles>  (96) 
CNc1[nH]c(=Nc2ccccc2)[nH]c(=O)c1C(=O)CN1CCCC1C(=O)Nc1cccc(C(=O)O)c1

>  <score_type>  (96) 
oracle

>  <origin>  (96) 
adg

>  <m_score__min__energy>  (96) 
-13.369999999999999

>  <m_primary>  (96) 
energy

$$$$
96:0
     RDKit          3D

 44 45  0  0  1  0  0  0  0  0999 V2000
   58.4790   27.7770   43.4050 C   0  0  0  0  0  0  0  0  0  0  0  0
   57.3000   28.5920   43.4080 O   0  0  0  0  0  0  0  0  0  0  0  0
   57.2930   29.6840   44.2820 C   0  0  0  0  0  0  0  0  0  0  0  0
   56.2120   29.9010   44.8640 O   0  0  0  0  0  0  0  0  0  0  0  0
   60.3360   28.5200   45.9640 C   0  0  0  0  0  0  0  0  0  0  0  0
   59.8810   28.0480   47.2510 C   0  0  0  0  0  0  0  0  0  0  0  0
   60.4490   29.8200   45.7410 C   0  0  0  0  0  0  0  0  0  0  0  0
   59.5220   26.7980   47.4220 C   0  0  0  0  0  0  0  0  0  0  0  0
   58.5200   30.4290   44.4130 C   0  0  0  0  0  0  0  0  0  0  0  0
   59.2230   30.5610   45.5140 C   0  0  0  0  0  0  0  0  0  0  0  0
   58.3300   26.1740   46.9020 C   0  0  2  0  0  0  0  0  0  0  0  0
   58.3510   25.8320   45.5500 O   0  0  0  0  0  0  0  0  0  0  0  0
   57.0470   25.6040   45.1700 C   0  0  1  0  0  0  0  0  0  0  0  0
   56.8170   24.2690   44.6720 N   0  0  0  0  0  0  0  0  0  0  0  0
   56.4520   23.2560   45.5150 C   0  0  0  0  0  0  0  0  0  0  0  0
   56.2600   22.0320   44.9270 C   0  0  0  0  0  0  0  0  0  0  0  0
   55.8930   20.9620   45.6890 F   0  0  0  0  0  0  0  0  0  0  0  0
   56.9710   24.0490   43.3490 C   0  0  0  0  0  0  0  0  0  0  0  0
   56.2400   20.6650   43.0140 N   0  0  0  0  0  0  0  0  0  0  0  0
   56.7790   22.8400   42.7900 N   0  0  0  0  0  0  0  0  0  0  0  0
   56.4150   21.8000   43.5810 C   0  0  0  0  0  0  0  0  0  0  0  0
   57.3070   24.9830   42.5830 O   0  0  0  0  0  0  0  0  0  0  0  0
   56.1400   25.9410   46.3340 C   0  0  2  0  0  0  0  0  0  0  0  0
   54.9580   26.5310   45.8810 O   0  0  0  0  0  0  0  0  0  0  0  0
   57.0330   26.9280   47.0690 C   0  0  2  0  0  0  0  0  0  0  0  0
   56.9590   28.0830   46.2900 O   0  0  0  0  0  0  0  0  0  0  0  0
   58.7824   27.5673   44.4413 H   0  0  0  0  0  0  0  0  0  0  0  0
   58.2690   26.8303   42.8857 H   0  0  0  0  0  0  0  0  0  0  0  0
   59.2904   28.3079   42.8857 H   0  0  0  0  0  0  0  0  0  0  0  0
   60.5881   27.8008   45.1708 H   0  0  0  0  0  0  0  0  0  0  0  0
   59.8349   28.7465   48.0995 H   0  0  0  0  0  0  0  0  0  0  0  0
   61.4303   30.3168   45.7284 H   0  0  0  0  0  0  0  0  0  0  0  0
   60.1945   26.1648   48.0193 H   0  0  0  0  0  0  0  0  0  0  0  0
   58.9008   30.9310   43.5114 H   0  0  0  0  0  0  0  0  0  0  0  0
   58.8705   31.2565   46.2899 H   0  0  0  0  0  0  0  0  0  0  0  0
   58.3531   25.2838   47.5477 H   0  0  0  0  0  0  0  0  0  0  0  0
   56.8174   26.2587   44.3164 H   0  0  0  0  0  0  0  0  0  0  0  0
   56.3208   23.4129   46.5958 H   0  0  0  0  0  0  0  0  0  0  0  0
   56.8810   19.8790   43.3230 H   0  0  0  0  0  0  0  0  0  0  0  0
   56.9050   22.7110   41.7800 H   0  0  0  0  0  0  0  0  0  0  0  0
   55.7996   25.0915   46.9443 H   0  0  0  0  0  0  0  0  0  0  0  0
   55.1490   27.4810   45.6060 H   0  0  0  0  0  0  0  0  0  0  0  0
   56.8350   27.2181   48.1114 H   0  0  0  0  0  0  0  0  0  0  0  0
   56.7140   27.7580   45.3660 H   0  0  0  0  0  0  0  0  0  0  0  0
  1  2  1  0
  2  3  1  0
  3  4  2  0
  3  5  1  0
  5  6  2  0
  6  7  1  0
  7  8  2  0
  8  9  1  0
  9 10  2  0
 10 11  1  0
 11 12  1  0
 12 13  1  0
 13 14  1  0
 14 15  1  0
 15 16  2  0
 16 17  1  0
 16 18  1  0
 18 19  2  3
 18 20  1  0
 20 21  1  0
 21 22  2  0
 13 23  1  0
 23 24  1  0
 23 25  1  0
 25 26  1  0
 25 11  1  0
 21 14  1  0
  1 27  1  0
  1 28  1  0
  1 29  1  0
  5 30  1  0
  6 31  1  0
  7 32  1  0
  8 33  1  0
  9 34  1  0
 10 35  1  0
 11 36  1  1
 13 37  1  6
 15 38  1  0
 19 39  1  0
 20 40  1  0
 23 41  1  1
 24 42  1  0
 25 43  1  1
 26 44  1  0
M  END
>  <smiles>  (97) 
COC(=O)C=CC=CC=CC1OC(n2cc(F)c(=N)[nH]c2=O)C(O)C1O

>  <score_type>  (97) 
oracle

>  <origin>  (97) 
adg

>  <m_score__min__energy>  (97) 
-7.2300000000000004

>  <m_primary>  (97) 
energy

$$$$
97:0
     RDKit          3D

 54 56  0  0  0  0  0  0  0  0999 V2000
   60.1040   34.2680   48.7160 C   0  0  0  0  0  0  0  0  0  0  0  0
   59.1750   33.3110   48.2130 O   0  0  0  0  0  0  0  0  0  0  0  0
   58.7210   33.2640   46.8850 C   0  0  0  0  0  0  0  0  0  0  0  0
   59.2580   34.1760   45.9660 C   0  0  0  0  0  0  0  0  0  0  0  0
   58.8340   34.1760   44.6350 C   0  0  0  0  0  0  0  0  0  0  0  0
   57.8550   33.2690   44.2130 C   0  0  0  0  0  0  0  0  0  0  0  0
   57.2900   32.3620   45.1210 C   0  0  0  0  0  0  0  0  0  0  0  0
   56.2500   31.4800   44.6700 N   0  0  0  0  0  0  0  0  0  0  0  0
   56.3000   30.0410   44.6290 C   0  0  0  0  0  0  0  0  0  0  0  0
   55.2370   29.3930   44.8260 O   0  0  0  0  0  0  0  0  0  0  0  0
   57.5880   29.2810   44.4210 C   0  0  0  0  0  0  0  0  0  0  0  0
   57.7410   28.2090   45.4300 N   0  0  0  0  0  0  0  0  0  0  0  0
   58.6960   28.6190   46.4770 C   0  0  0  0  0  0  0  0  0  0  0  0
   58.6860   27.5890   47.6110 C   0  0  0  0  0  0  0  0  0  0  0  0
   58.9340   26.1400   47.1030 C   0  0  0  0  0  0  0  0  0  0  0  0
   57.8110   25.1890   47.5640 C   0  0  0  0  0  0  0  0  0  0  0  0
   56.5150   25.6970   47.1210 N   0  0  0  0  0  0  0  0  0  0  0  0
   55.7620   25.1550   46.0270 C   0  0  0  0  0  0  0  0  0  0  0  0
   54.6890   25.7190   45.6930 O   0  0  0  0  0  0  0  0  0  0  0  0
   56.2610   24.0210   45.2230 C   0  0  0  0  0  0  0  0  0  0  0  0
   56.1530   24.0960   43.8240 C   0  0  0  0  0  0  0  0  0  0  0  0
   56.6230   23.0520   43.0180 C   0  0  0  0  0  0  0  0  0  0  0  0
   57.2020   21.9210   43.6040 C   0  0  0  0  0  0  0  0  0  0  0  0
   57.2960   21.8230   44.9940 C   0  0  0  0  0  0  0  0  0  0  0  0
   56.8110   22.8550   45.8130 C   0  0  0  0  0  0  0  0  0  0  0  0
   56.8710   22.6770   47.2000 O   0  0  0  0  0  0  0  0  0  0  0  0
   59.1400   26.0850   45.5700 C   0  0  0  0  0  0  0  0  0  0  0  0
   58.0780   26.8970   44.8020 C   0  0  0  0  0  0  0  0  0  0  0  0
   57.7360   32.3490   46.4560 C   0  0  0  0  0  0  0  0  0  0  0  0
   60.0881   34.2516   49.8158 H   0  0  0  0  0  0  0  0  0  0  0  0
   61.1149   34.0199   48.3602 H   0  0  0  0  0  0  0  0  0  0  0  0
   59.8260   35.2711   48.3602 H   0  0  0  0  0  0  0  0  0  0  0  0
   60.0198   34.8978   46.2957 H   0  0  0  0  0  0  0  0  0  0  0  0
   59.2693   34.8885   43.9188 H   0  0  0  0  0  0  0  0  0  0  0  0
   57.5270   33.2677   43.1631 H   0  0  0  0  0  0  0  0  0  0  0  0
   57.5823   28.8316   43.4170 H   0  0  0  0  0  0  0  0  0  0  0  0
   58.4291   29.9823   44.5249 H   0  0  0  0  0  0  0  0  0  0  0  0
   59.7066   28.6810   46.0472 H   0  0  0  0  0  0  0  0  0  0  0  0
   58.4045   29.6028   46.8735 H   0  0  0  0  0  0  0  0  0  0  0  0
   59.4753   27.8500   48.3314 H   0  0  0  0  0  0  0  0  0  0  0  0
   57.6893   27.6138   48.0757 H   0  0  0  0  0  0  0  0  0  0  0  0
   59.8735   25.7922   47.5573 H   0  0  0  0  0  0  0  0  0  0  0  0
   57.9783   24.1911   47.1325 H   0  0  0  0  0  0  0  0  0  0  0  0
   57.8186   25.1258   48.6622 H   0  0  0  0  0  0  0  0  0  0  0  0
   55.6958   24.9816   43.3585 H   0  0  0  0  0  0  0  0  0  0  0  0
   56.5370   23.1210   41.9235 H   0  0  0  0  0  0  0  0  0  0  0  0
   57.5837   21.1079   42.9690 H   0  0  0  0  0  0  0  0  0  0  0  0
   57.7527   20.9321   45.4497 H   0  0  0  0  0  0  0  0  0  0  0  0
   56.6110   23.3980   47.8650 H   0  0  0  0  0  0  0  0  0  0  0  0
   60.1343   26.4914   45.3329 H   0  0  0  0  0  0  0  0  0  0  0  0
   59.0475   25.0343   45.2579 H   0  0  0  0  0  0  0  0  0  0  0  0
   58.4563   27.0872   43.7867 H   0  0  0  0  0  0  0  0  0  0  0  0
   57.1559   26.2972   44.8068 H   0  0  0  0  0  0  0  0  0  0  0  0
   57.3153   31.6231   47.1674 H   0  0  0  0  0  0  0  0  0  0  0  0
  1  2  1  0
  2  3  1  0
  3  4  2  0
  4  5  1  0
  5  6  2  0
  6  7  1  0
  7  8  1  0
  8  9  1  0
  9 10  2  0
  9 11  1  0
 11 12  1  0
 12 13  1  0
 13 14  1  0
 14 15  1  0
 15 16  1  0
 16 17  1  0
 17 18  1  0
 18 19  2  0
 18 20  1  0
 20 21  2  0
 21 22  1  0
 22 23  2  0
 23 24  1  0
 24 25  2  0
 25 26  1  0
 15 27  1  0
 27 28  1  0
  7 29  2  0
 29  3  1  0
 28 12  1  0
 25 20  1  0
  1 30  1  0
  1 31  1  0
  1 32  1  0
  4 33  1  0
  5 34  1  0
  6 35  1  0
 11 36  1  0
 11 37  1  0
 13 38  1  0
 13 39  1  0
 14 40  1  0
 14 41  1  0
 15 42  1  0
 16 43  1  0
 16 44  1  0
 21 45  1  0
 22 46  1  0
 23 47  1  0
 24 48  1  0
 26 49  1  0
 27 50  1  0
 27 51  1  0
 28 52  1  0
 28 53  1  0
 29 54  1  0
M  CHG  2   8  -1  17  -1
M  END
>  <UniqueID>  (98) 
89

>  <SMILES>  (98) 
COc1cccc([N-]C(=O)CN2CCC(C[N-]C(=O)c3ccccc3O)CC2)c1

>  <Energy>  (98) 
68.0270690522741

>  <Genealogy>  (98) 
COc1cccc([N-]C(=O)CN2CCC(C[N-]C(=O)c3ccccc3O)CC2)c1 (protonated)
COc1cccc([N-]C(=O)CN2CCC(C[N-]C(=O)c3ccccc3O)CC2)c1 (3D coordinates assigned)
COc1cccc([N-]C(=O)CN2CCC(C[N-]C(=O)c3ccccc3O)CC2)c1 (nonaromatic ring conformer: 68.0270690522741 kcal/mol)

>  <smiles>  (98) 
COc1cccc(NC(=O)CN2CCC(CNC(=O)c3ccccc3O)CC2)c1

>  <score_type>  (98) 
oracle

>  <origin>  (98) 
adg

>  <m_score__min__energy>  (98) 
-11.99

>  <m_primary>  (98) 
energy

$$$$
98:0
     RDKit          3D

 56 59  0  0  0  0  0  0  0  0999 V2000
   55.2900   24.8060   45.9820 C   0  0  0  0  0  0  0  0  0  0  0  0
   56.4400   23.9690   45.4910 C   0  0  0  0  0  0  0  0  0  0  0  0
   56.2340   23.0380   44.4570 C   0  0  0  0  0  0  0  0  0  0  0  0
   57.2900   22.2400   44.0020 C   0  0  0  0  0  0  0  0  0  0  0  0
   57.0200   21.0840   42.7100 Cl  0  0  0  0  0  0  0  0  0  0  0  0
   58.5580   22.3590   44.5790 C   0  0  0  0  0  0  0  0  0  0  0  0
   58.7760   23.2870   45.5980 C   0  0  0  0  0  0  0  0  0  0  0  0
   57.7340   24.1090   46.0450 C   0  0  0  0  0  0  0  0  0  0  0  0
   57.9980   25.0410   47.0560 O   0  0  0  0  0  0  0  0  0  0  0  0
   58.3480   26.3810   46.8260 C   0  0  0  0  0  0  0  0  0  0  0  0
   59.5240   26.9480   47.3420 C   0  0  0  0  0  0  0  0  0  0  0  0
   59.8360   28.2880   47.0910 C   0  0  0  0  0  0  0  0  0  0  0  0
   58.9730   29.0970   46.3160 C   0  0  0  0  0  0  0  0  0  0  0  0
   59.2440   30.4600   46.0060 C   0  0  0  0  0  0  0  0  0  0  0  0
   60.5650   31.0950   46.4070 C   0  0  0  0  0  0  0  0  0  0  0  0
   58.2320   31.2210   45.3510 C   0  0  0  0  0  0  0  0  0  0  0  0
   58.3150   32.7340   45.1800 C   0  0  0  0  0  0  0  0  0  0  0  0
   57.9840   33.4290   46.3850 O   0  0  0  0  0  0  0  0  0  0  0  0
   58.7980   33.5300   47.5240 C   0  0  0  0  0  0  0  0  0  0  0  0
   59.8950   34.4070   47.6000 C   0  0  0  0  0  0  0  0  0  0  0  0
   60.6750   34.4580   48.7570 C   0  0  0  0  0  0  0  0  0  0  0  0
   60.3770   33.6350   49.8450 C   0  0  0  0  0  0  0  0  0  0  0  0
   59.2850   32.7500   49.7890 C   0  0  0  0  0  0  0  0  0  0  0  0
   58.9420   31.8890   50.8890 N   0  0  0  0  0  0  0  0  0  0  0  0
   58.6550   30.1840   50.7480 S   0  0  0  0  0  0  0  0  0  0  0  0
   60.0470   29.2790   51.3960 C   0  0  0  0  0  0  0  0  0  0  0  0
   58.4950   29.8380   49.2950 O   0  0  0  0  0  0  0  0  0  0  0  0
   57.3950   29.8060   51.4760 O   0  0  0  0  0  0  0  0  0  0  0  0
   58.5000   32.7160   48.6250 C   0  0  0  0  0  0  0  0  0  0  0  0
   57.0450   30.5590   44.9670 C   0  0  0  0  0  0  0  0  0  0  0  0
   56.1110   31.1900   44.4030 O   0  0  0  0  0  0  0  0  0  0  0  0
   56.8780   29.2670   45.2020 O   0  0  0  0  0  0  0  0  0  0  0  0
   57.7650   28.5290   45.8490 C   0  0  0  0  0  0  0  0  0  0  0  0
   57.4760   27.1800   46.0860 C   0  0  0  0  0  0  0  0  0  0  0  0
   55.2834   24.8108   47.0820 H   0  0  0  0  0  0  0  0  0  0  0  0
   55.4015   25.8357   45.6115 H   0  0  0  0  0  0  0  0  0  0  0  0
   54.3444   24.3834   45.6115 H   0  0  0  0  0  0  0  0  0  0  0  0
   55.2371   22.9365   44.0033 H   0  0  0  0  0  0  0  0  0  0  0  0
   59.3834   21.7213   44.2298 H   0  0  0  0  0  0  0  0  0  0  0  0
   59.7735   23.3735   46.0535 H   0  0  0  0  0  0  0  0  0  0  0  0
   60.2055   26.3335   47.9486 H   0  0  0  0  0  0  0  0  0  0  0  0
   60.7623   28.7171   47.5007 H   0  0  0  0  0  0  0  0  0  0  0  0
   60.6371   31.1297   47.5041 H   0  0  0  0  0  0  0  0  0  0  0  0
   61.3962   30.4980   46.0036 H   0  0  0  0  0  0  0  0  0  0  0  0
   60.6180   32.1170   46.0036 H   0  0  0  0  0  0  0  0  0  0  0  0
   59.3404   33.0023   44.8857 H   0  0  0  0  0  0  0  0  0  0  0  0
   57.5890   33.0286   44.4079 H   0  0  0  0  0  0  0  0  0  0  0  0
   60.1392   35.0548   46.7452 H   0  0  0  0  0  0  0  0  0  0  0  0
   61.5284   35.1499   48.8117 H   0  0  0  0  0  0  0  0  0  0  0  0
   60.9996   33.6790   50.7508 H   0  0  0  0  0  0  0  0  0  0  0  0
   58.7360   32.3200   51.8170 H   0  0  0  0  0  0  0  0  0  0  0  0
   60.0172   29.2983   52.4954 H   0  0  0  0  0  0  0  0  0  0  0  0
   60.0019   28.2371   51.0463 H   0  0  0  0  0  0  0  0  0  0  0  0
   60.9810   29.7430   51.0463 H   0  0  0  0  0  0  0  0  0  0  0  0
   57.6352   32.0379   48.5767 H   0  0  0  0  0  0  0  0  0  0  0  0
   56.5495   26.7444   45.6836 H   0  0  0  0  0  0  0  0  0  0  0  0
  1  2  1  0
  2  3  2  0
  3  4  1  0
  4  5  1  0
  4  6  2  0
  6  7  1  0
  7  8  2  0
  8  9  1  0
  9 10  1  0
 10 11  2  0
 11 12  1  0
 12 13  2  0
 13 14  1  0
 14 15  1  0
 14 16  2  0
 16 17  1  0
 17 18  1  0
 18 19  1  0
 19 20  2  0
 20 21  1  0
 21 22  2  0
 22 23  1  0
 23 24  1  0
 24 25  1  0
 25 26  1  0
 25 27  2  0
 25 28  2  0
 23 29  2  0
 16 30  1  0
 30 31  2  0
 30 32  1  0
 32 33  1  0
 33 34  2  0
  8  2  1  0
 34 10  1  0
 33 13  1  0
 29 19  1  0
  1 35  1  0
  1 36  1  0
  1 37  1  0
  3 38  1  0
  6 39  1  0
  7 40  1  0
 11 41  1  0
 12 42  1  0
 15 43  1  0
 15 44  1  0
 15 45  1  0
 17 46  1  0
 17 47  1  0
 20 48  1  0
 21 49  1  0
 22 50  1  0
 24 51  1  0
 26 52  1  0
 26 53  1  0
 26 54  1  0
 29 55  1  0
 34 56  1  0
M  END
>  <UniqueID>  (99) 
90

>  <SMILES>  (99) 
Cc1cc(Cl)ccc1Oc1ccc2c(C)c(COc3cccc(NS(C)(=O)=O)c3)c(=O)oc2c1

>  <Energy>  (99) 
81.02045510735505

>  <Genealogy>  (99) 
Cc1cc(Cl)ccc1Oc1ccc2c(C)c(COc3cccc(NS(C)(=O)=O)c3)c(=O)oc2c1 (3D coordinates assigned)
Cc1cc(Cl)ccc1Oc1ccc2c(C)c(COc3cccc(NS(C)(=O)=O)c3)c(=O)oc2c1 (optimized conformer: 81.02045510735505 kcal/mol)

>  <smiles>  (99) 
Cc1cc(Cl)ccc1Oc1ccc2c(C)c(COc3cccc(NS(C)(=O)=O)c3)c(=O)oc2c1

>  <score_type>  (99) 
oracle

>  <origin>  (99) 
adg

>  <m_score__min__energy>  (99) 
-9.9499999999999993

>  <m_primary>  (99) 
energy

$$$$
