0:0
     RDKit          3D

 74 78  0  0  0  0  0  0  0  0999 V2000
   57.8150   32.3050   41.9870 C   0  0  0  0  0  0  0  0  0  0  0  0
   56.9780   31.0790   42.3500 C   0  0  0  0  0  0  0  0  0  0  0  0
   56.8460   30.8730   43.8720 C   0  0  0  0  0  0  0  0  0  0  0  0
   58.1880   30.6490   44.5910 C   0  0  0  0  0  0  0  0  0  0  0  0
   58.4180   29.2110   44.9870 C   0  0  0  0  0  0  0  0  0  0  0  0
   57.6280   28.1960   44.5770 N   0  0  0  0  0  0  0  0  0  0  0  0
   58.1560   27.0830   45.0600 N   0  0  0  0  0  0  0  0  0  0  0  0
   57.5930   25.7800   44.8280 C   0  0  0  0  0  0  0  0  0  0  0  0
   57.4300   25.3160   43.5110 C   0  0  0  0  0  0  0  0  0  0  0  0
   56.8530   24.0670   43.2690 C   0  0  0  0  0  0  0  0  0  0  0  0
   56.4230   23.2750   44.3360 C   0  0  0  0  0  0  0  0  0  0  0  0
   56.5690   23.7300   45.6540 C   0  0  0  0  0  0  0  0  0  0  0  0
   56.0040   22.7500   47.0030 S   0  0  0  0  0  0  0  0  0  0  0  0
   57.3520   22.2740   47.9740 N   0  0  0  0  0  0  0  0  0  0  0  0
   55.0360   23.5380   47.8410 O   0  0  0  0  0  0  0  0  0  0  0  0
   55.3020   21.5270   46.4820 O   0  0  0  0  0  0  0  0  0  0  0  0
   57.1390   24.9870   45.8950 C   0  0  0  0  0  0  0  0  0  0  0  0
   59.2790   27.4170   45.7340 C   0  0  0  0  0  0  0  0  0  0  0  0
   60.3590   26.3410   46.3530 S   0  0  0  0  0  0  0  0  0  0  0  0
   59.4760   28.7530   45.7000 N   0  0  0  0  0  0  0  0  0  0  0  0
   60.6320   29.4990   46.2140 C   0  0  0  0  0  0  0  0  0  0  0  0
   60.4860   29.7750   47.6890 C   0  0  0  0  0  0  0  0  0  0  0  0
   59.3670   29.3080   48.3970 C   0  0  0  0  0  0  0  0  0  0  0  0
   59.2620   29.5190   49.7740 C   0  0  0  0  0  0  0  0  0  0  0  0
   60.2750   30.2010   50.4610 C   0  0  0  0  0  0  0  0  0  0  0  0
   60.1780   30.3980   51.9170 C   0  0  0  0  0  0  0  0  0  0  0  0
   61.2270   29.9370   52.7280 C   0  0  0  0  0  0  0  0  0  0  0  0
   61.1830   30.1200   54.1120 C   0  0  0  0  0  0  0  0  0  0  0  0
   60.0920   30.7630   54.6960 C   0  0  0  0  0  0  0  0  0  0  0  0
   59.0380   31.2220   53.9010 C   0  0  0  0  0  0  0  0  0  0  0  0
   59.0640   31.0410   52.5090 C   0  0  0  0  0  0  0  0  0  0  0  0
   57.7070   31.6360   51.5390 S   0  0  0  0  0  0  0  0  0  0  0  0
   56.7730   30.4950   51.2470 O   0  0  0  0  0  0  0  0  0  0  0  0
   56.9530   32.6860   52.3060 O   0  0  0  0  0  0  0  0  0  0  0  0
   58.3230   32.3300   50.0720 N   0  0  0  0  0  0  0  0  0  0  0  0
   59.2800   33.3950   49.9780 C   0  0  0  0  0  0  0  0  0  0  0  0
   59.3560   34.2260   50.9230 O   0  0  0  0  0  0  0  0  0  0  0  0
   60.1980   33.5360   48.8320 C   0  0  0  0  0  0  0  0  0  0  0  0
   61.5570   33.7950   49.0770 C   0  0  0  0  0  0  0  0  0  0  0  0
   62.4590   33.9000   48.0150 C   0  0  0  0  0  0  0  0  0  0  0  0
   62.0110   33.7660   46.6990 C   0  0  0  0  0  0  0  0  0  0  0  0
   60.6540   33.5530   46.4410 C   0  0  0  0  0  0  0  0  0  0  0  0
   59.7410   33.4500   47.4970 C   0  0  0  0  0  0  0  0  0  0  0  0
   58.0290   33.3020   47.1130 Cl  0  0  0  0  0  0  0  0  0  0  0  0
   61.3870   30.6830   49.7580 C   0  0  0  0  0  0  0  0  0  0  0  0
   61.4980   30.4620   48.3820 C   0  0  0  0  0  0  0  0  0  0  0  0
   58.1547   32.8026   42.9073 H   0  0  0  0  0  0  0  0  0  0  0  0
   58.6881   31.9910   41.3962 H   0  0  0  0  0  0  0  0  0  0  0  0
   57.2046   33.0038   41.3962 H   0  0  0  0  0  0  0  0  0  0  0  0
   55.9715   31.2023   41.9237 H   0  0  0  0  0  0  0  0  0  0  0  0
   57.4903   30.1960   41.9402 H   0  0  0  0  0  0  0  0  0  0  0  0
   56.3678   31.7655   44.3019 H   0  0  0  0  0  0  0  0  0  0  0  0
   56.2492   29.9608   44.0196 H   0  0  0  0  0  0  0  0  0  0  0  0
   59.0010   30.9607   43.9188 H   0  0  0  0  0  0  0  0  0  0  0  0
   58.1660   31.2432   45.5164 H   0  0  0  0  0  0  0  0  0  0  0  0
   57.7585   25.9397   42.6666 H   0  0  0  0  0  0  0  0  0  0  0  0
   56.7371   23.7066   42.2362 H   0  0  0  0  0  0  0  0  0  0  0  0
   55.9688   22.2921   44.1418 H   0  0  0  0  0  0  0  0  0  0  0  0
   57.3840   21.2300   47.9590 H   0  0  0  0  0  0  0  0  0  0  0  0
   57.2317   25.3556   46.9272 H   0  0  0  0  0  0  0  0  0  0  0  0
   61.5444   28.9076   46.0475 H   0  0  0  0  0  0  0  0  0  0  0  0
   60.6927   30.4601   45.6825 H   0  0  0  0  0  0  0  0  0  0  0  0
   58.5677   28.7724   47.8639 H   0  0  0  0  0  0  0  0  0  0  0  0
   58.3819   29.1488   50.3202 H   0  0  0  0  0  0  0  0  0  0  0  0
   62.0887   29.4286   52.2708 H   0  0  0  0  0  0  0  0  0  0  0  0
   62.0089   29.7569   54.7413 H   0  0  0  0  0  0  0  0  0  0  0  0
   60.0608   30.9094   55.7858 H   0  0  0  0  0  0  0  0  0  0  0  0
   58.1816   31.7289   54.3696 H   0  0  0  0  0  0  0  0  0  0  0  0
   61.9130   33.9158   50.1108 H   0  0  0  0  0  0  0  0  0  0  0  0
   63.5239   34.0886   48.2159 H   0  0  0  0  0  0  0  0  0  0  0  0
   62.7262   33.8281   45.8655 H   0  0  0  0  0  0  0  0  0  0  0  0
   60.3016   33.4658   45.4026 H   0  0  0  0  0  0  0  0  0  0  0  0
   62.1746   31.2367   50.2900 H   0  0  0  0  0  0  0  0  0  0  0  0
   62.3819   30.8276   47.8387 H   0  0  0  0  0  0  0  0  0  0  0  0
  1  2  1  0
  2  3  1  0
  3  4  1  0
  4  5  1  0
  5  6  2  0
  6  7  1  0
  7  8  1  0
  8  9  2  0
  9 10  1  0
 10 11  2  0
 11 12  1  0
 12 13  1  0
 13 14  1  0
 13 15  2  0
 13 16  2  0
 12 17  2  0
  7 18  1  0
 18 19  2  0
 18 20  1  0
 20 21  1  0
 21 22  1  0
 22 23  2  0
 23 24  1  0
 24 25  2  0
 25 26  1  0
 26 27  2  0
 27 28  1  0
 28 29  2  0
 29 30  1  0
 30 31  2  0
 31 32  1  0
 32 33  2  0
 32 34  2  0
 32 35  1  0
 35 36  1  0
 36 37  2  0
 36 38  1  0
 38 39  2  0
 39 40  1  0
 40 41  2  0
 41 42  1  0
 42 43  2  0
 43 44  1  0
 25 45  1  0
 45 46  2  0
 20  5  1  0
 46 22  1  0
 17  8  1  0
 31 26  1  0
 43 38  1  0
  1 47  1  0
  1 48  1  0
  1 49  1  0
  2 50  1  0
  2 51  1  0
  3 52  1  0
  3 53  1  0
  4 54  1  0
  4 55  1  0
  9 56  1  0
 10 57  1  0
 11 58  1  0
 14 59  1  0
 17 60  1  0
 21 61  1  0
 21 62  1  0
 23 63  1  0
 24 64  1  0
 27 65  1  0
 28 66  1  0
 29 67  1  0
 30 68  1  0
 39 69  1  0
 40 70  1  0
 41 71  1  0
 42 72  1  0
 45 73  1  0
 46 74  1  0
M  CHG  2  14  -1  35  -1
M  END
>  <UniqueID>  (1) 
1

>  <SMILES>  (1) 
CCCCc1nn(-c2cccc(S([NH-])(=O)=O)c2)c(=S)n1Cc1ccc(-c2ccccc2S(=O)(=O)[N-]C(=O)c2ccccc2Cl)cc1

>  <Energy>  (1) 
132.725261299784

>  <Genealogy>  (1) 
CCCCc1nn(-c2cccc(S([NH-])(=O)=O)c2)c(=S)n1Cc1ccc(-c2ccccc2S(=O)(=O)[N-]C(=O)c2ccccc2Cl)cc1 (protonated)
CCCCc1nn(-c2cccc(S([NH-])(=O)=O)c2)c(=S)n1Cc1ccc(-c2ccccc2S(=O)(=O)[N-]C(=O)c2ccccc2Cl)cc1 (3D coordinates assigned)
CCCCc1nn(-c2cccc(S([NH-])(=O)=O)c2)c(=S)n1Cc1ccc(-c2ccccc2S(=O)(=O)[N-]C(=O)c2ccccc2Cl)cc1 (optimized conformer: 132.725261299784 kcal/mol)

>  <smiles>  (1) 
CCCCc1nn(-c2cccc(S(N)(=O)=O)c2)c(=S)n1Cc1ccc(-c2ccccc2S(=O)(=O)NC(=O)c2ccccc2Cl)cc1

>  <score_type>  (1) 
oracle

>  <origin>  (1) 
adg

>  <m_score__min__energy>  (1) 
-13.859999999999999

>  <m_primary>  (1) 
energy

$$$$
1:0
     RDKit          3D

 37 39  0  0  0  0  0  0  0  0999 V2000
   55.6250   30.4790   44.4590 O   0  0  0  0  0  0  0  0  0  0  0  0
   56.6340   29.8680   44.8980 C   0  0  0  0  0  0  0  0  0  0  0  0
   56.9700   28.5080   44.3450 C   0  0  0  0  0  0  0  0  0  0  0  0
   57.4190   27.5480   45.4210 C   0  0  0  0  0  0  0  0  0  0  0  0
   58.7850   27.4570   45.7480 C   0  0  0  0  0  0  0  0  0  0  0  0
   59.2200   26.5700   46.7360 C   0  0  0  0  0  0  0  0  0  0  0  0
   58.3010   25.7550   47.4000 C   0  0  0  0  0  0  0  0  0  0  0  0
   56.9460   25.8190   47.0710 C   0  0  0  0  0  0  0  0  0  0  0  0
   56.5010   26.7030   46.0820 C   0  0  0  0  0  0  0  0  0  0  0  0
   55.1450   26.7380   45.7690 O   0  0  0  0  0  0  0  0  0  0  0  0
   57.3860   30.4520   45.9680 N   0  0  0  0  0  0  0  0  0  0  0  0
   58.0420   31.7230   45.9070 C   0  0  0  0  0  0  0  0  0  0  0  0
   57.7560   32.6030   44.8510 C   0  0  0  0  0  0  0  0  0  0  0  0
   58.3360   33.8720   44.8130 C   0  0  0  0  0  0  0  0  0  0  0  0
   59.1860   34.2830   45.8410 C   0  0  0  0  0  0  0  0  0  0  0  0
   59.4520   33.4280   46.9130 C   0  0  0  0  0  0  0  0  0  0  0  0
   58.8790   32.1440   46.9610 C   0  0  0  0  0  0  0  0  0  0  0  0
   59.1790   31.2700   48.0640 N   0  0  0  0  0  0  0  0  0  0  0  0
   58.5280   31.1980   49.2400 C   0  0  0  0  0  0  0  0  0  0  0  0
   59.1220   30.1990   49.9820 C   0  0  0  0  0  0  0  0  0  0  0  0
   58.7270   29.7940   51.2960 N   0  0  0  0  0  0  0  0  0  0  0  0
   59.5900   29.5300   52.1570 O   0  0  0  0  0  0  0  0  0  0  0  0
   57.3950   29.6940   51.6200 O   0  0  0  0  0  0  0  0  0  0  0  0
   60.1380   29.6340   49.2960 N   0  0  0  0  0  0  0  0  0  0  0  0
   60.1340   30.3150   48.1320 C   0  0  0  0  0  0  0  0  0  0  0  0
   60.9590   30.0880   47.2080 O   0  0  0  0  0  0  0  0  0  0  0  0
   56.0769   28.0955   43.8528 H   0  0  0  0  0  0  0  0  0  0  0  0
   57.8002   28.6291   43.6336 H   0  0  0  0  0  0  0  0  0  0  0  0
   59.5155   28.0890   45.2218 H   0  0  0  0  0  0  0  0  0  0  0  0
   60.2885   26.5136   46.9912 H   0  0  0  0  0  0  0  0  0  0  0  0
   58.6449   25.0625   48.1824 H   0  0  0  0  0  0  0  0  0  0  0  0
   56.2249   25.1716   47.5915 H   0  0  0  0  0  0  0  0  0  0  0  0
   57.0710   32.2906   44.0491 H   0  0  0  0  0  0  0  0  0  0  0  0
   58.1231   34.5487   43.9723 H   0  0  0  0  0  0  0  0  0  0  0  0
   59.6468   35.2812   45.8069 H   0  0  0  0  0  0  0  0  0  0  0  0
   60.1143   33.7610   47.7256 H   0  0  0  0  0  0  0  0  0  0  0  0
   57.6776   31.8220   49.5521 H   0  0  0  0  0  0  0  0  0  0  0  0
  1  2  2  0
  2  3  1  0
  3  4  1  0
  4  5  2  0
  5  6  1  0
  6  7  2  0
  7  8  1  0
  8  9  2  0
  9 10  1  0
  2 11  1  0
 11 12  1  0
 12 13  2  0
 13 14  1  0
 14 15  2  0
 15 16  1  0
 16 17  2  0
 17 18  1  0
 18 19  1  0
 19 20  2  0
 20 21  1  0
 21 22  2  0
 21 23  1  0
 20 24  1  0
 24 25  1  0
 25 26  2  0
  9  4  1  0
 17 12  1  0
 25 18  1  0
  3 27  1  0
  3 28  1  0
  5 29  1  0
  6 30  1  0
  7 31  1  0
  8 32  1  0
 13 33  1  0
 14 34  1  0
 15 35  1  0
 16 36  1  0
 19 37  1  0
M  CHG  5  10  -1  11  -1  21   1  23  -1  24  -1
M  END
>  <UniqueID>  (2) 
2

>  <SMILES>  (2) 
O=C(Cc1ccccc1[O-])[N-]c1ccccc1-n1cc([N+](=O)[O-])[n-]c1=O

>  <Energy>  (2) 
81.49145916837966

>  <Genealogy>  (2) 
O=C(Cc1ccccc1[O-])[N-]c1ccccc1-n1cc([N+](=O)[O-])[n-]c1=O (protonated)
O=C(Cc1ccccc1[O-])[N-]c1ccccc1-n1cc([N+](=O)[O-])[n-]c1=O (3D coordinates assigned)
O=C(Cc1ccccc1[O-])[N-]c1ccccc1-n1cc([N+](=O)[O-])[n-]c1=O (optimized conformer: 81.49145916837966 kcal/mol)

>  <smiles>  (2) 
O=C(Cc1ccccc1O)Nc1ccccc1-n1cc([N+](=O)[O-])[nH]c1=O

>  <score_type>  (2) 
oracle

>  <origin>  (2) 
adg

>  <m_score__min__energy>  (2) 
-13.779999999999999

>  <m_primary>  (2) 
energy

$$$$
2:0
     RDKit          3D

 38 40  0  0  0  0  0  0  0  0999 V2000
   62.4220   33.4340   52.8920 N   0  0  0  0  0  0  0  0  0  0  0  0
   61.9660   33.5380   51.8330 C   0  0  0  0  0  0  0  0  0  0  0  0
   61.3970   33.6680   50.5100 C   0  0  0  0  0  0  0  0  0  0  0  0
   60.0850   33.2370   50.2160 C   0  0  0  0  0  0  0  0  0  0  0  0
   59.1680   32.6940   51.2460 C   0  0  0  0  0  0  0  0  0  0  0  0
   58.9790   33.3940   52.4470 C   0  0  0  0  0  0  0  0  0  0  0  0
   58.1400   32.8820   53.4390 C   0  0  0  0  0  0  0  0  0  0  0  0
   57.4910   31.6580   53.2500 C   0  0  0  0  0  0  0  0  0  0  0  0
   56.6560   31.1630   54.2460 O   0  0  0  0  0  0  0  0  0  0  0  0
   57.6890   30.9370   52.0610 C   0  0  0  0  0  0  0  0  0  0  0  0
   57.0640   29.7080   51.8510 O   0  0  0  0  0  0  0  0  0  0  0  0
   58.5300   31.4540   51.0680 C   0  0  0  0  0  0  0  0  0  0  0  0
   59.6390   33.3060   48.9330 N   0  0  0  0  0  0  0  0  0  0  0  0
   60.4070   33.8070   47.9320 C   0  0  0  0  0  0  0  0  0  0  0  0
   59.9200   33.8470   46.5820 N   0  0  0  0  0  0  0  0  0  0  0  0
   59.1650   32.7900   45.9660 C   0  0  0  0  0  0  0  0  0  0  0  0
   59.3120   31.4510   46.3710 C   0  0  0  0  0  0  0  0  0  0  0  0
   58.5540   30.4440   45.7700 C   0  0  0  0  0  0  0  0  0  0  0  0
   57.6320   30.7600   44.7620 C   0  0  0  0  0  0  0  0  0  0  0  0
   56.6680   29.4910   44.0160 S   0  0  0  0  0  0  0  0  0  0  0  0
   55.1520   29.3590   44.8370 N   0  0  0  0  0  0  0  0  0  0  0  0
   57.4000   28.1800   44.0990 O   0  0  0  0  0  0  0  0  0  0  0  0
   56.4250   29.8170   42.5700 O   0  0  0  0  0  0  0  0  0  0  0  0
   57.4600   32.0970   44.3790 C   0  0  0  0  0  0  0  0  0  0  0  0
   58.2180   33.1050   44.9810 C   0  0  0  0  0  0  0  0  0  0  0  0
   61.6690   34.2280   48.2010 N   0  0  0  0  0  0  0  0  0  0  0  0
   62.1790   34.1710   49.4580 C   0  0  0  0  0  0  0  0  0  0  0  0
   63.3580   34.5660   49.6640 O   0  0  0  0  0  0  0  0  0  0  0  0
   59.4949   34.3521   52.6083 H   0  0  0  0  0  0  0  0  0  0  0  0
   57.9891   33.4438   54.3726 H   0  0  0  0  0  0  0  0  0  0  0  0
   56.4640   29.2850   52.5470 H   0  0  0  0  0  0  0  0  0  0  0  0
   58.6929   30.8851   50.1408 H   0  0  0  0  0  0  0  0  0  0  0  0
   60.2140   34.6560   45.9870 H   0  0  0  0  0  0  0  0  0  0  0  0
   60.0283   31.1957   47.1658 H   0  0  0  0  0  0  0  0  0  0  0  0
   58.6807   29.3988   46.0886 H   0  0  0  0  0  0  0  0  0  0  0  0
   55.2890   28.6840   45.6220 H   0  0  0  0  0  0  0  0  0  0  0  0
   56.7255   32.3541   43.6015 H   0  0  0  0  0  0  0  0  0  0  0  0
   58.0707   34.1527   44.6801 H   0  0  0  0  0  0  0  0  0  0  0  0
  1  2  3  0
  2  3  1  0
  3  4  2  0
  4  5  1  0
  5  6  2  0
  6  7  1  0
  7  8  2  0
  8  9  1  0
  8 10  1  0
 10 11  1  0
 10 12  2  0
  4 13  1  0
 13 14  1  0
 14 15  1  0
 15 16  1  0
 16 17  2  0
 17 18  1  0
 18 19  2  0
 19 20  1  0
 20 21  1  0
 20 22  2  0
 20 23  2  0
 19 24  1  0
 24 25  2  0
 14 26  2  0
 26 27  1  0
 27 28  2  0
 27  3  1  0
 12  5  1  0
 25 16  1  0
  6 29  1  0
  7 30  1  0
 11 31  1  0
 12 32  1  0
 15 33  1  0
 17 34  1  0
 18 35  1  0
 21 36  1  0
 24 37  1  0
 25 38  1  0
M  CHG  3   9  -1  13  -1  21  -1
M  END
>  <UniqueID>  (3) 
3

>  <SMILES>  (3) 
N#Cc1c(-c2ccc([O-])c(O)c2)[n-]c(Nc2ccc(S([NH-])(=O)=O)cc2)nc1=O

>  <Energy>  (3) 
52.23455546671534

>  <Genealogy>  (3) 
N#Cc1c(-c2ccc([O-])c(O)c2)[n-]c(Nc2ccc(S([NH-])(=O)=O)cc2)nc1=O (protonated)
N#Cc1c(-c2ccc([O-])c(O)c2)[n-]c(Nc2ccc(S([NH-])(=O)=O)cc2)nc1=O (3D coordinates assigned)
N#Cc1c(-c2ccc([O-])c(O)c2)[n-]c(Nc2ccc(S([NH-])(=O)=O)cc2)nc1=O (optimized conformer: 52.23455546671534 kcal/mol)

>  <smiles>  (3) 
N#Cc1c(-c2ccc(O)c(O)c2)[nH]c(Nc2ccc(S(N)(=O)=O)cc2)nc1=O

>  <score_type>  (3) 
oracle

>  <origin>  (3) 
adg

>  <m_score__min__energy>  (3) 
-12.98

>  <m_primary>  (3) 
energy

$$$$
3:0
     RDKit          3D

 50 53  0  0  0  0  0  0  0  0999 V2000
   54.5410   29.3280   45.3400 H   0  0  0  0  0  0  0  0  0  0  0  0
   55.0980   29.6210   44.5070 N   0  0  0  0  0  0  0  0  0  0  0  0
   56.5230   29.6090   44.5370 C   0  0  0  0  0  0  0  0  0  0  0  0
   57.1690   30.0900   43.5690 O   0  0  0  0  0  0  0  0  0  0  0  0
   57.2420   29.0370   45.6870 C   0  0  0  0  0  0  0  0  0  0  0  0
   58.3240   29.5870   46.3450 C   0  0  0  0  0  0  0  0  0  0  0  0
   58.7999   30.5496   46.1064 H   0  0  0  0  0  0  0  0  0  0  0  0
   58.7000   28.7430   47.3320 N   0  0  0  0  0  0  0  0  0  0  0  0
   59.8700   28.8950   48.2080 C   0  0  1  0  0  0  0  0  0  0  0  0
   60.7570   27.6360   48.2610 C   0  0  0  0  0  0  0  0  0  0  0  0
   60.4463   27.0144   49.1137 H   0  0  0  0  0  0  0  0  0  0  0  0
   61.8043   27.9536   48.3721 H   0  0  0  0  0  0  0  0  0  0  0  0
   60.6400   26.8490   47.0280 C   0  0  0  0  0  0  0  0  0  0  0  0
   60.5480   26.2280   46.0550 N   0  0  0  0  0  0  0  0  0  0  0  0
   60.6180   30.2200   48.0170 C   0  0  0  0  0  0  0  0  0  0  0  0
   61.7045   30.0965   47.8971 H   0  0  0  0  0  0  0  0  0  0  0  0
   60.3927   30.8356   47.1337 H   0  0  0  0  0  0  0  0  0  0  0  0
   60.2280   30.7130   49.3450 N   0  0  1  0  0  0  0  0  0  0  0  0
   61.0380   30.8410   49.9950 H   0  0  0  0  0  0  0  0  0  0  0  0
   59.1570   32.0950   49.2700 S   0  0  0  0  0  0  0  0  0  0  0  0
   57.7940   31.7030   49.7710 O   0  0  0  0  0  0  0  0  0  0  0  0
   59.7150   33.1820   50.1450 O   0  0  0  0  0  0  0  0  0  0  0  0
   59.0090   32.7140   47.6170 C   0  0  0  0  0  0  0  0  0  0  0  0
   57.7800   32.6290   46.9410 C   0  0  0  0  0  0  0  0  0  0  0  0
   56.9121   32.1748   47.4414 H   0  0  0  0  0  0  0  0  0  0  0  0
   57.6520   33.1170   45.6380 C   0  0  0  0  0  0  0  0  0  0  0  0
   56.6843   33.0494   45.1194 H   0  0  0  0  0  0  0  0  0  0  0  0
   58.7490   33.6900   44.9930 C   0  0  0  0  0  0  0  0  0  0  0  0
   58.6454   34.0765   43.9684 H   0  0  0  0  0  0  0  0  0  0  0  0
   59.9780   33.7720   45.6500 C   0  0  0  0  0  0  0  0  0  0  0  0
   60.8421   34.2213   45.1386 H   0  0  0  0  0  0  0  0  0  0  0  0
   60.1180   33.2860   46.9560 C   0  0  0  0  0  0  0  0  0  0  0  0
   61.7000   33.4050   47.7200 Cl  0  0  0  0  0  0  0  0  0  0  0  0
   59.5070   29.4570   49.5880 C   0  0  0  0  0  0  0  0  0  0  0  0
   59.9186   28.8699   50.4222 H   0  0  0  0  0  0  0  0  0  0  0  0
   58.4482   29.5001   49.8829 H   0  0  0  0  0  0  0  0  0  0  0  0
   57.9320   27.6620   47.3140 N   0  0  0  0  0  0  0  0  0  0  0  0
   57.0240   27.8340   46.3350 C   0  0  0  0  0  0  0  0  0  0  0  0
   56.1170   26.9610   46.0050 N   0  0  0  0  0  0  0  0  0  0  0  0
   56.3450   25.5910   45.6340 C   0  0  0  0  0  0  0  0  0  0  0  0
   55.3540   24.5990   45.7760 C   0  0  0  0  0  0  0  0  0  0  0  0
   54.3748   24.8593   46.2043 H   0  0  0  0  0  0  0  0  0  0  0  0
   55.6120   23.2850   45.3740 C   0  0  0  0  0  0  0  0  0  0  0  0
   54.8402   22.5113   45.4996 H   0  0  0  0  0  0  0  0  0  0  0  0
   56.8480   22.9520   44.8130 C   0  0  0  0  0  0  0  0  0  0  0  0
   57.0522   21.9155   44.5064 H   0  0  0  0  0  0  0  0  0  0  0  0
   57.8240   23.9370   44.6420 C   0  0  0  0  0  0  0  0  0  0  0  0
   58.7936   23.6773   44.1920 H   0  0  0  0  0  0  0  0  0  0  0  0
   57.5700   25.2520   45.0420 C   0  0  0  0  0  0  0  0  0  0  0  0
   58.3366   26.0264   44.8913 H   0  0  0  0  0  0  0  0  0  0  0  0
  1  2  1  0
  2  3  1  0
  3  4  2  0
  3  5  1  0
  5  6  2  0
  6  7  1  0
  6  8  1  0
  8  9  1  0
  9 10  1  6
 10 11  1  0
 10 12  1  0
 10 13  1  0
 13 14  3  0
  9 15  1  0
 15 16  1  0
 15 17  1  0
 15 18  1  0
 18 19  1  6
 18 20  1  0
 20 21  2  0
 20 22  2  0
 20 23  1  0
 23 24  2  0
 24 25  1  0
 24 26  1  0
 26 27  1  0
 26 28  2  0
 28 29  1  0
 28 30  1  0
 30 31  1  0
 30 32  2  0
 32 33  1  0
 18 34  1  0
 34 35  1  0
 34 36  1  0
  8 37  1  0
 37 38  1  0
 38 39  2  0
 39 40  1  0
 40 41  2  0
 41 42  1  0
 41 43  1  0
 43 44  1  0
 43 45  2  0
 45 46  1  0
 45 47  1  0
 47 48  1  0
 47 49  2  0
 49 50  1  0
 38  5  1  0
 49 40  1  0
 34  9  1  0
 32 23  1  0
M  CHG  3   2  -1  18   1  37  -1
M  END
>  <UniqueID>  (4) 
4

>  <SMILES>  (4) 
N#CCC1(n2cc(C([NH-])=O)/c(=N/c3ccccc3)[n-]2)C[NH+](S(=O)(=O)c2ccccc2Cl)C1

>  <Energy>  (4) 
161.3582239641337

>  <Genealogy>  (4) 
N#CCC1(n2cc(C([NH-])=O)c(=Nc3ccccc3)[n-]2)C[NH+](S(=O)(=O)c2ccccc2Cl)C1 (protonated)
N#CCC1(n2cc(C([NH-])=O)/c(=N/c3ccccc3)[n-]2)C[NH+](S(=O)(=O)c2ccccc2Cl)C1 (cis-trans isomerization)
N#CCC1(n2cc(C([NH-])=O)/c(=N/c3ccccc3)[n-]2)C[NH+](S(=O)(=O)c2ccccc2Cl)C1 (3D coordinates assigned)
N#CCC1(n2cc(C([NH-])=O)/c(=N/c3ccccc3)[n-]2)C[NH+](S(=O)(=O)c2ccccc2Cl)C1 (nonaromatic ring conformer: 161.3582239641337 kcal/mol)

>  <smiles>  (4) 
N#CCC1(n2cc(C(N)=O)c(=Nc3ccccc3)[nH]2)CN(S(=O)(=O)c2ccccc2Cl)C1

>  <score_type>  (4) 
oracle

>  <origin>  (4) 
adg

>  <m_score__min__energy>  (4) 
-11.960000000000001

>  <m_primary>  (4) 
energy

$$$$
4:0
     RDKit          3D

 58 61  0  0  1  0  0  0  0  0999 V2000
   57.7850   34.1310   46.5260 N   0  0  0  0  0  0  0  0  0  0  0  0
   58.3990   33.7920   45.4340 C   0  0  0  0  0  0  0  0  0  0  0  0
   59.5580   34.5700   45.1110 N   0  0  0  0  0  0  0  0  0  0  0  0
   57.9610   32.7000   44.5800 C   0  0  0  0  0  0  0  0  0  0  0  0
   58.0940   32.7130   43.2060 C   0  0  0  0  0  0  0  0  0  0  0  0
   57.6520   31.6360   42.4690 C   0  0  0  0  0  0  0  0  0  0  0  0
   57.0680   30.5180   43.0410 C   0  0  0  0  0  0  0  0  0  0  0  0
   56.9330   30.5040   44.4290 C   0  0  0  0  0  0  0  0  0  0  0  0
   56.3690   29.4490   45.1140 O   0  0  0  0  0  0  0  0  0  0  0  0
   57.0550   28.4180   45.7150 C   0  0  0  0  0  0  0  0  0  0  0  0
   58.1540   28.7750   46.5070 C   0  0  0  0  0  0  0  0  0  0  0  0
   58.9080   27.8140   47.1520 C   0  0  0  0  0  0  0  0  0  0  0  0
   59.9260   28.1550   47.8850 N   0  0  0  0  0  0  0  0  0  0  0  0
   60.2130   29.5570   47.9060 C   0  0  0  0  0  0  0  0  0  0  0  0
   59.6410   30.3780   48.8560 C   0  0  0  0  0  0  0  0  0  0  0  0
   59.9720   31.7160   48.8030 C   0  0  0  0  0  0  0  0  0  0  0  0
   60.8470   32.1980   47.8260 C   0  0  0  0  0  0  0  0  0  0  0  0
   61.2610   33.9100   47.7710 S   0  0  0  0  0  0  0  0  0  0  0  0
   59.8610   34.8910   47.9360 N   0  0  0  0  0  0  0  0  0  0  0  0
   62.2280   34.2140   48.8580 O   0  0  0  0  0  0  0  0  0  0  0  0
   61.9390   34.2390   46.4550 O   0  0  0  0  0  0  0  0  0  0  0  0
   61.4120   31.3650   46.8830 C   0  0  0  0  0  0  0  0  0  0  0  0
   61.0800   30.0180   46.9350 C   0  0  0  0  0  0  0  0  0  0  0  0
   58.5380   26.5270   46.9840 N   0  0  0  0  0  0  0  0  0  0  0  0
   57.4700   26.1860   46.2140 C   0  0  0  0  0  0  0  0  0  0  0  0
   57.1900   24.8290   46.1180 O   0  0  0  0  0  0  0  0  0  0  0  0
   55.9410   24.2670   46.1070 C   0  0  0  0  0  0  0  0  0  0  0  0
   55.1060   24.4440   45.0080 C   0  0  0  0  0  0  0  0  0  0  0  0
   53.8540   23.8830   44.9930 C   0  0  0  0  0  0  0  0  0  0  0  0
   53.4010   23.1350   46.0600 C   0  0  0  0  0  0  0  0  0  0  0  0
   52.0690   22.5420   46.0330 C   0  0  0  0  0  0  0  0  0  0  0  0
   51.3640   22.3000   47.2300 N   0  0  0  0  0  0  0  0  0  0  0  0
   51.5850   22.2590   44.8910 O   0  0  0  0  0  0  0  0  0  0  0  0
   54.2310   22.9610   47.1460 C   0  0  0  0  0  0  0  0  0  0  0  0
   55.5110   23.5160   47.2000 C   0  0  0  0  0  0  0  0  0  0  0  0
   56.7330   27.1180   45.5840 N   0  0  0  0  0  0  0  0  0  0  0  0
   57.3770   31.5910   45.1910 C   0  0  0  0  0  0  0  0  0  0  0  0
   58.0040   35.0600   46.9220 H   0  0  0  0  0  0  0  0  0  0  0  0
   59.5510   35.3730   44.4660 H   0  0  0  0  0  0  0  0  0  0  0  0
   60.4440   34.2620   45.5860 H   0  0  0  0  0  0  0  0  0  0  0  0
   58.5502   33.5781   42.7025 H   0  0  0  0  0  0  0  0  0  0  0  0
   57.7684   31.6655   41.3756 H   0  0  0  0  0  0  0  0  0  0  0  0
   56.7242   29.6742   42.4247 H   0  0  0  0  0  0  0  0  0  0  0  0
   58.4205   29.8366   46.6169 H   0  0  0  0  0  0  0  0  0  0  0  0
   58.9537   29.9843   49.6193 H   0  0  0  0  0  0  0  0  0  0  0  0
   59.5421   32.4118   49.5385 H   0  0  0  0  0  0  0  0  0  0  0  0
   59.6090   35.2580   46.9890 H   0  0  0  0  0  0  0  0  0  0  0  0
   59.0910   34.2980   48.2610 H   0  0  0  0  0  0  0  0  0  0  0  0
   62.1003   31.7536   46.1180 H   0  0  0  0  0  0  0  0  0  0  0  0
   61.5077   29.3177   46.2025 H   0  0  0  0  0  0  0  0  0  0  0  0
   55.4512   25.0362   44.1477 H   0  0  0  0  0  0  0  0  0  0  0  0
   53.2030   24.0316   44.1189 H   0  0  0  0  0  0  0  0  0  0  0  0
   51.8600   22.0160   48.1110 H   0  0  0  0  0  0  0  0  0  0  0  0
   50.3230   22.3860   47.3230 H   0  0  0  0  0  0  0  0  0  0  0  0
   53.8733   22.3651   47.9986 H   0  0  0  0  0  0  0  0  0  0  0  0
   56.1589   23.3656   48.0762 H   0  0  0  0  0  0  0  0  0  0  0  0
   55.9200   26.8520   44.9970 H   0  0  0  0  0  0  0  0  0  0  0  0
   57.2638   31.5701   46.2850 H   0  0  0  0  0  0  0  0  0  0  0  0
  1  2  2  3
  2  3  1  0
  2  4  1  0
  4  5  2  0
  5  6  1  0
  6  7  2  0
  7  8  1  0
  8  9  1  0
  9 10  1  0
 10 11  2  0
 11 12  1  0
 12 13  2  0
 13 14  1  0
 14 15  2  0
 15 16  1  0
 16 17  2  0
 17 18  1  0
 18 19  1  0
 18 20  2  0
 18 21  2  0
 17 22  1  0
 22 23  2  0
 12 24  1  0
 24 25  2  0
 25 26  1  0
 26 27  1  0
 27 28  2  0
 28 29  1  0
 29 30  2  0
 30 31  1  0
 31 32  1  0
 31 33  2  0
 30 34  1  0
 34 35  2  0
 25 36  1  0
  8 37  2  0
 37  4  1  0
 36 10  1  0
 23 14  1  0
 35 27  1  0
  1 38  1  0
  3 39  1  0
  3 40  1  0
  5 41  1  0
  6 42  1  0
  7 43  1  0
 11 44  1  0
 15 45  1  0
 16 46  1  0
 19 47  1  0
 19 48  1  0
 22 49  1  0
 23 50  1  0
 28 51  1  0
 29 52  1  0
 32 53  1  0
 32 54  1  0
 34 55  1  0
 35 56  1  0
 36 57  1  0
 37 58  1  0
M  END
>  <smiles>  (5) 
N=C(N)c1cccc(Oc2cc(=Nc3ccc(S(N)(=O)=O)cc3)nc(Oc3ccc(C(N)=O)cc3)[nH]2)c1

>  <score_type>  (5) 
oracle

>  <origin>  (5) 
adg

>  <m_score__min__energy>  (5) 
-10.48

>  <m_primary>  (5) 
energy

$$$$
5:0
     RDKit          3D

 51 53  0  0  0  0  0  0  0  0999 V2000
   64.0670   33.4770   48.0490 C   0  0  0  0  0  0  0  0  0  0  0  0
   63.7140   32.6950   49.2450 N   0  0  0  0  0  0  0  0  0  0  0  0
   62.3970   32.4860   49.5500 C   0  0  0  0  0  0  0  0  0  0  0  0
   62.0350   31.7340   50.6800 C   0  0  0  0  0  0  0  0  0  0  0  0
   60.6660   31.5090   51.0400 N   0  0  0  0  0  0  0  0  0  0  0  0
   59.6660   30.9020   50.2120 C   0  0  0  0  0  0  0  0  0  0  0  0
   58.8600   30.0610   50.6970 O   0  0  0  0  0  0  0  0  0  0  0  0
   59.5000   31.3710   48.7950 C   0  0  1  0  0  0  0  0  0  0  0  0
   59.4610   32.9120   48.7320 C   0  0  0  0  0  0  0  0  0  0  0  0
   59.0170   33.4110   47.3810 C   0  0  0  0  0  0  0  0  0  0  0  0
   59.9610   33.8950   46.4600 C   0  0  0  0  0  0  0  0  0  0  0  0
   59.5460   34.3840   45.2180 C   0  0  0  0  0  0  0  0  0  0  0  0
   58.1870   34.4000   44.8890 C   0  0  0  0  0  0  0  0  0  0  0  0
   57.2410   33.9270   45.8030 C   0  0  0  0  0  0  0  0  0  0  0  0
   57.6520   33.4350   47.0450 C   0  0  0  0  0  0  0  0  0  0  0  0
   60.6140   30.8500   48.0050 N   0  0  0  0  0  0  0  0  0  0  0  0
   60.4760   30.2510   46.7100 C   0  0  0  0  0  0  0  0  0  0  0  0
   61.5000   30.0570   45.9960 O   0  0  0  0  0  0  0  0  0  0  0  0
   59.1390   29.8570   46.2120 C   0  0  0  0  0  0  0  0  0  0  0  0
   58.3120   30.7940   45.5680 C   0  0  0  0  0  0  0  0  0  0  0  0
   57.0480   30.4230   45.1070 C   0  0  0  0  0  0  0  0  0  0  0  0
   56.5880   29.1140   45.2820 C   0  0  0  0  0  0  0  0  0  0  0  0
   55.3240   28.7680   44.8160 O   0  0  0  0  0  0  0  0  0  0  0  0
   57.4010   28.1650   45.9210 C   0  0  0  0  0  0  0  0  0  0  0  0
   56.8230   26.5160   46.1520 S   0  0  0  0  0  0  0  0  0  0  0  0
   55.0960   26.5100   46.1790 N   0  0  0  0  0  0  0  0  0  0  0  0
   57.3120   25.6520   45.0240 O   0  0  0  0  0  0  0  0  0  0  0  0
   57.3350   25.9550   47.4500 O   0  0  0  0  0  0  0  0  0  0  0  0
   58.6710   28.5410   46.3840 C   0  0  0  0  0  0  0  0  0  0  0  0
   63.0420   31.2370   51.5110 C   0  0  0  0  0  0  0  0  0  0  0  0
   64.3780   31.4490   51.1870 C   0  0  0  0  0  0  0  0  0  0  0  0
   64.7050   32.1810   50.0420 C   0  0  0  0  0  0  0  0  0  0  0  0
   65.9210   32.3640   49.7550 O   0  0  0  0  0  0  0  0  0  0  0  0
   64.5016   34.4399   48.3556 H   0  0  0  0  0  0  0  0  0  0  0  0
   64.8002   32.9183   47.4488 H   0  0  0  0  0  0  0  0  0  0  0  0
   63.1630   33.6573   47.4488 H   0  0  0  0  0  0  0  0  0  0  0  0
   61.6141   32.9107   48.9044 H   0  0  0  0  0  0  0  0  0  0  0  0
   58.5478   31.0000   48.3880 H   0  0  0  0  0  0  0  0  0  0  0  0
   58.7596   33.2809   49.4949 H   0  0  0  0  0  0  0  0  0  0  0  0
   60.4796   33.2853   48.9140 H   0  0  0  0  0  0  0  0  0  0  0  0
   61.0305   33.8891   46.7171 H   0  0  0  0  0  0  0  0  0  0  0  0
   60.2897   34.7568   44.4983 H   0  0  0  0  0  0  0  0  0  0  0  0
   57.8624   34.7848   43.9110 H   0  0  0  0  0  0  0  0  0  0  0  0
   56.1719   33.9420   45.5445 H   0  0  0  0  0  0  0  0  0  0  0  0
   56.9046   33.0651   47.7624 H   0  0  0  0  0  0  0  0  0  0  0  0
   58.6636   31.8266   45.4265 H   0  0  0  0  0  0  0  0  0  0  0  0
   56.4101   31.1642   44.6033 H   0  0  0  0  0  0  0  0  0  0  0  0
   54.7750   26.7150   45.2070 H   0  0  0  0  0  0  0  0  0  0  0  0
   59.3081   27.7987   46.8871 H   0  0  0  0  0  0  0  0  0  0  0  0
   62.7785   30.6783   52.4212 H   0  0  0  0  0  0  0  0  0  0  0  0
   65.1735   31.0425   51.8289 H   0  0  0  0  0  0  0  0  0  0  0  0
  1  2  1  0
  2  3  1  0
  3  4  2  0
  4  5  1  0
  5  6  1  0
  6  7  2  0
  6  8  1  0
  8  9  1  0
  9 10  1  0
 10 11  2  0
 11 12  1  0
 12 13  2  0
 13 14  1  0
 14 15  2  0
  8 16  1  0
 16 17  1  0
 17 18  2  0
 17 19  1  0
 19 20  2  0
 20 21  1  0
 21 22  2  0
 22 23  1  0
 22 24  1  0
 24 25  1  0
 25 26  1  0
 25 27  2  0
 25 28  2  0
 24 29  2  0
  4 30  1  0
 30 31  2  0
 31 32  1  0
 32 33  2  0
 32  2  1  0
 15 10  1  0
 29 19  1  0
  1 34  1  0
  1 35  1  0
  1 36  1  0
  3 37  1  0
  8 38  1  6
  9 39  1  0
  9 40  1  0
 11 41  1  0
 12 42  1  0
 13 43  1  0
 14 44  1  0
 15 45  1  0
 20 46  1  0
 21 47  1  0
 26 48  1  0
 29 49  1  0
 30 50  1  0
 31 51  1  0
M  CHG  4   5  -1  16  -1  23  -1  26  -1
M  END
>  <UniqueID>  (6) 
5

>  <SMILES>  (6) 
Cn1cc([N-]C(=O)[C@@H](Cc2ccccc2)[N-]C(=O)c2ccc([O-])c(S([NH-])(=O)=O)c2)ccc1=O

>  <Energy>  (6) 
56.0170278102135

>  <Genealogy>  (6) 
Cn1cc([N-]C(=O)C(Cc2ccccc2)[N-]C(=O)c2ccc([O-])c(S([NH-])(=O)=O)c2)ccc1=O (protonated)
Cn1cc([N-]C(=O)[C@@H](Cc2ccccc2)[N-]C(=O)c2ccc([O-])c(S([NH-])(=O)=O)c2)ccc1=O (chirality)
Cn1cc([N-]C(=O)[C@@H](Cc2ccccc2)[N-]C(=O)c2ccc([O-])c(S([NH-])(=O)=O)c2)ccc1=O (3D coordinates assigned)
Cn1cc([N-]C(=O)[C@@H](Cc2ccccc2)[N-]C(=O)c2ccc([O-])c(S([NH-])(=O)=O)c2)ccc1=O (optimized conformer: 56.0170278102135 kcal/mol)

>  <smiles>  (6) 
Cn1cc(NC(=O)C(Cc2ccccc2)NC(=O)c2ccc(O)c(S(N)(=O)=O)c2)ccc1=O

>  <score_type>  (6) 
oracle

>  <origin>  (6) 
adg

>  <m_score__min__energy>  (6) 
-16.899999999999999

>  <m_primary>  (6) 
energy

$$$$
6:0
     RDKit          3D

 38 39  0  0  0  0  0  0  0  0999 V2000
   54.3360   22.1160   46.9650 C   0  0  0  0  0  0  0  0  0  0  0  0
   53.9700   22.3100   45.6040 O   0  0  0  0  0  0  0  0  0  0  0  0
   54.6340   23.2030   44.7600 C   0  0  0  0  0  0  0  0  0  0  0  0
   53.9770   23.9350   43.9700 O   0  0  0  0  0  0  0  0  0  0  0  0
   56.1100   23.2900   44.8020 C   0  0  0  0  0  0  0  0  0  0  0  0
   56.9940   22.6500   43.9430 C   0  0  0  0  0  0  0  0  0  0  0  0
   56.6460   21.7560   42.7960 C   0  0  0  0  0  0  0  0  0  0  0  0
   58.2640   22.9460   44.2840 N   0  0  0  0  0  0  0  0  0  0  0  0
   58.1260   23.7660   45.3450 C   0  0  0  0  0  0  0  0  0  0  0  0
   59.1140   24.2540   45.9580 O   0  0  0  0  0  0  0  0  0  0  0  0
   56.8400   24.0170   45.6810 N   0  0  0  0  0  0  0  0  0  0  0  0
   56.3890   24.8980   46.7710 C   0  0  0  0  0  0  0  0  0  0  0  0
   55.9020   26.2370   46.2760 C   0  0  0  0  0  0  0  0  0  0  0  0
   54.8170   26.2830   45.6240 O   0  0  0  0  0  0  0  0  0  0  0  0
   56.6220   27.4560   46.4880 N   0  0  0  0  0  0  0  0  0  0  0  0
   57.8150   27.8660   45.8070 C   0  0  0  0  0  0  0  0  0  0  0  0
   59.0030   27.1350   45.9720 C   0  0  0  0  0  0  0  0  0  0  0  0
   60.1680   27.5170   45.3110 C   0  0  0  0  0  0  0  0  0  0  0  0
   60.1630   28.6430   44.4870 C   0  0  0  0  0  0  0  0  0  0  0  0
   58.9950   29.3920   44.3290 C   0  0  0  0  0  0  0  0  0  0  0  0
   57.8080   29.0190   44.9850 C   0  0  0  0  0  0  0  0  0  0  0  0
   56.5760   29.8270   44.8000 C   0  0  0  0  0  0  0  0  0  0  0  0
   55.2880   29.2090   44.7280 N   0  0  0  0  0  0  0  0  0  0  0  0
   56.6530   31.0810   44.7000 O   0  0  0  0  0  0  0  0  0  0  0  0
   53.5537   22.5307   47.6177 H   0  0  0  0  0  0  0  0  0  0  0  0
   54.4480   21.0401   47.1648 H   0  0  0  0  0  0  0  0  0  0  0  0
   55.2893   22.6272   47.1648 H   0  0  0  0  0  0  0  0  0  0  0  0
   56.2721   20.7955   43.1801 H   0  0  0  0  0  0  0  0  0  0  0  0
   55.8680   22.2332   42.1821 H   0  0  0  0  0  0  0  0  0  0  0  0
   57.5419   21.5816   42.1821 H   0  0  0  0  0  0  0  0  0  0  0  0
   55.5670   24.4013   47.3072 H   0  0  0  0  0  0  0  0  0  0  0  0
   57.2522   25.0814   47.4276 H   0  0  0  0  0  0  0  0  0  0  0  0
   59.0134   26.2529   46.6291 H   0  0  0  0  0  0  0  0  0  0  0  0
   61.0907   26.9318   45.4384 H   0  0  0  0  0  0  0  0  0  0  0  0
   61.0815   28.9415   43.9605 H   0  0  0  0  0  0  0  0  0  0  0  0
   59.0034   30.2834   43.6845 H   0  0  0  0  0  0  0  0  0  0  0  0
   55.1570   28.1910   44.9320 H   0  0  0  0  0  0  0  0  0  0  0  0
   54.4360   29.7920   44.5650 H   0  0  0  0  0  0  0  0  0  0  0  0
  1  2  1  0
  2  3  1  0
  3  4  2  0
  3  5  1  0
  5  6  2  0
  6  7  1  0
  6  8  1  0
  8  9  1  0
  9 10  2  0
  9 11  1  0
 11 12  1  0
 12 13  1  0
 13 14  2  0
 13 15  1  0
 15 16  1  0
 16 17  2  0
 17 18  1  0
 18 19  2  0
 19 20  1  0
 20 21  2  0
 21 22  1  0
 22 23  1  0
 22 24  2  0
 11  5  1  0
 21 16  1  0
  1 25  1  0
  1 26  1  0
  1 27  1  0
  7 28  1  0
  7 29  1  0
  7 30  1  0
 12 31  1  0
 12 32  1  0
 17 33  1  0
 18 34  1  0
 19 35  1  0
 20 36  1  0
 23 37  1  0
 23 38  1  0
M  CHG  2   8  -1  15  -1
M  END
>  <UniqueID>  (7) 
6

>  <SMILES>  (7) 
COC(=O)c1c(C)[n-]c(=O)n1CC(=O)[N-]c1ccccc1C(N)=O

>  <Energy>  (7) 
72.53385820156782

>  <Genealogy>  (7) 
COC(=O)c1c(C)[n-]c(=O)n1CC(=O)[N-]c1ccccc1C(N)=O (protonated)
COC(=O)c1c(C)[n-]c(=O)n1CC(=O)[N-]c1ccccc1C(N)=O (3D coordinates assigned)
COC(=O)c1c(C)[n-]c(=O)n1CC(=O)[N-]c1ccccc1C(N)=O (optimized conformer: 72.53385820156782 kcal/mol)

>  <smiles>  (7) 
COC(=O)c1c(C)[nH]c(=O)n1CC(=O)Nc1ccccc1C(N)=O

>  <score_type>  (7) 
oracle

>  <origin>  (7) 
adg

>  <m_score__min__energy>  (7) 
-10.94

>  <m_primary>  (7) 
energy

$$$$
7:0
     RDKit          3D

 40 42  0  0  1  0  0  0  0  0999 V2000
   63.8270   33.0940   46.7380 C   0  0  0  0  0  0  0  0  0  0  0  0
   62.8440   33.4100   47.8350 C   0  0  0  0  0  0  0  0  0  0  0  0
   63.3090   33.5260   49.1350 C   0  0  0  0  0  0  0  0  0  0  0  0
   62.4080   33.8190   50.1650 C   0  0  0  0  0  0  0  0  0  0  0  0
   58.9060   30.0730   45.4900 C   0  0  0  0  0  0  0  0  0  0  0  0
   57.6950   30.3570   44.8950 C   0  0  0  0  0  0  0  0  0  0  0  0
   59.2060   34.0460   48.2410 N   0  0  0  0  0  0  0  0  0  0  0  0
   58.7950   33.9640   47.0400 C   0  0  0  0  0  0  0  0  0  0  0  0
   58.9990   34.9220   46.1210 N   0  0  0  0  0  0  0  0  0  0  0  0
   58.5570   34.8110   44.8700 C   0  0  0  0  0  0  0  0  0  0  0  0
   57.8610   33.6560   44.5110 C   0  0  0  0  0  0  0  0  0  0  0  0
   57.6370   32.6460   45.4480 C   0  0  0  0  0  0  0  0  0  0  0  0
   56.9920   31.5710   45.1290 N   0  0  0  0  0  0  0  0  0  0  0  0
   60.5790   33.8770   48.5680 C   0  0  0  0  0  0  0  0  0  0  0  0
   61.0720   33.9860   49.8530 C   0  0  0  0  0  0  0  0  0  0  0  0
   59.5730   28.8790   45.2450 C   0  0  0  0  0  0  0  0  0  0  0  0
   59.0030   27.9560   44.3810 C   0  0  0  0  0  0  0  0  0  0  0  0
   57.7770   28.2280   43.7700 C   0  0  0  0  0  0  0  0  0  0  0  0
   57.1520   29.4150   44.0370 C   0  0  0  0  0  0  0  0  0  0  0  0
   55.8560   29.7100   43.3950 C   0  0  0  0  0  0  0  0  0  0  0  0
   58.1180   32.8410   46.6920 N   0  0  0  0  0  0  0  0  0  0  0  0
   61.5030   33.5830   47.5660 C   0  0  0  0  0  0  0  0  0  0  0  0
   64.7852   32.7860   47.1818 H   0  0  0  0  0  0  0  0  0  0  0  0
   63.4319   32.2776   46.1156 H   0  0  0  0  0  0  0  0  0  0  0  0
   63.9816   33.9877   46.1156 H   0  0  0  0  0  0  0  0  0  0  0  0
   64.3779   33.3889   49.3558 H   0  0  0  0  0  0  0  0  0  0  0  0
   62.7567   33.9146   51.2039 H   0  0  0  0  0  0  0  0  0  0  0  0
   59.3543   30.8085   46.1742 H   0  0  0  0  0  0  0  0  0  0  0  0
   59.5170   35.7620   46.4210 H   0  0  0  0  0  0  0  0  0  0  0  0
   58.7363   35.6110   44.1366 H   0  0  0  0  0  0  0  0  0  0  0  0
   57.4865   33.5408   43.4831 H   0  0  0  0  0  0  0  0  0  0  0  0
   60.3685   34.2166   50.6666 H   0  0  0  0  0  0  0  0  0  0  0  0
   60.5383   28.6691   45.7289 H   0  0  0  0  0  0  0  0  0  0  0  0
   59.5185   27.0061   44.1762 H   0  0  0  0  0  0  0  0  0  0  0  0
   57.3209   27.4987   43.0844 H   0  0  0  0  0  0  0  0  0  0  0  0
   55.0943   29.8834   44.1694 H   0  0  0  0  0  0  0  0  0  0  0  0
   55.9533   30.6090   42.7686 H   0  0  0  0  0  0  0  0  0  0  0  0
   55.5546   28.8575   42.7686 H   0  0  0  0  0  0  0  0  0  0  0  0
   57.9520   32.0900   47.3920 H   0  0  0  0  0  0  0  0  0  0  0  0
   61.1509   33.4861   46.5284 H   0  0  0  0  0  0  0  0  0  0  0  0
  1  2  1  0
  2  3  2  0
  3  4  1  0
  4  5  2  0
  5  6  1  0
  6  7  1  0
  7  8  2  0
  8  9  1  0
  9 10  1  0
 10 11  2  0
 11 12  1  0
 12 13  2  0
 13 14  1  0
 14 15  2  0
 15 16  1  0
 16 17  2  0
 17 18  1  0
 18 19  2  0
 19 20  1  0
 12 21  1  0
  6 22  2  0
 22  2  1  0
 21  8  1  0
 19 14  1  0
  1 23  1  0
  1 24  1  0
  1 25  1  0
  3 26  1  0
  4 27  1  0
  5 28  1  0
  9 29  1  0
 10 30  1  0
 11 31  1  0
 15 32  1  0
 16 33  1  0
 17 34  1  0
 18 35  1  0
 20 36  1  0
 20 37  1  0
 20 38  1  0
 21 39  1  0
 22 40  1  0
M  END
>  <smiles>  (8) 
Cc1cccc(N=c2[nH]ccc(=Nc3ccccc3C)[nH]2)c1

>  <score_type>  (8) 
oracle

>  <origin>  (8) 
adg

>  <m_score__min__energy>  (8) 
-8.0800000000000001

>  <m_primary>  (8) 
energy

$$$$
8:0
     RDKit          3D

 46 48  0  0  0  0  0  0  0  0999 V2000
   58.1130   21.7100   43.8370 C   0  0  0  0  0  0  0  0  0  0  0  0
   57.2080   22.7560   44.4260 C   0  0  0  0  0  0  0  0  0  0  0  0
   57.5950   23.4890   45.5540 C   0  0  0  0  0  0  0  0  0  0  0  0
   56.7700   24.4380   46.0880 N   0  0  0  0  0  0  0  0  0  0  0  0
   57.2270   25.2090   47.2560 C   0  0  0  0  0  0  0  0  0  0  0  0
   58.0230   26.4070   46.8100 C   0  0  0  0  0  0  0  0  0  0  0  0
   59.1860   26.7830   47.4980 C   0  0  0  0  0  0  0  0  0  0  0  0
   59.8980   27.9180   47.1060 C   0  0  0  0  0  0  0  0  0  0  0  0
   59.4500   28.6950   46.0340 C   0  0  0  0  0  0  0  0  0  0  0  0
   58.2780   28.3390   45.3420 C   0  0  0  0  0  0  0  0  0  0  0  0
   57.7650   29.1010   44.2380 N   0  0  0  0  0  0  0  0  0  0  0  0
   56.3120   30.0520   44.1820 S   0  0  0  0  0  0  0  0  0  0  0  0
   55.1820   29.3520   44.8810 O   0  0  0  0  0  0  0  0  0  0  0  0
   55.9280   30.2280   42.7410 O   0  0  0  0  0  0  0  0  0  0  0  0
   56.5850   31.6260   44.8710 N   0  0  0  0  0  0  0  0  0  0  0  0
   57.8070   32.2170   44.3250 C   0  0  0  0  0  0  0  0  0  0  0  0
   58.3920   33.1770   45.3220 C   0  0  0  0  0  0  0  0  0  0  0  0
   59.0670   34.3270   44.8800 C   0  0  0  0  0  0  0  0  0  0  0  0
   59.6430   35.2040   45.8050 C   0  0  0  0  0  0  0  0  0  0  0  0
   59.5600   34.9320   47.1740 C   0  0  0  0  0  0  0  0  0  0  0  0
   58.9020   33.7810   47.6210 C   0  0  0  0  0  0  0  0  0  0  0  0
   58.3240   32.9020   46.6990 C   0  0  0  0  0  0  0  0  0  0  0  0
   57.5750   27.1930   45.7370 C   0  0  0  0  0  0  0  0  0  0  0  0
   55.5550   24.6890   45.5030 C   0  0  0  0  0  0  0  0  0  0  0  0
   54.7830   25.5710   45.9690 O   0  0  0  0  0  0  0  0  0  0  0  0
   55.1650   23.9860   44.4090 N   0  0  0  0  0  0  0  0  0  0  0  0
   55.9550   23.0300   43.8620 C   0  0  0  0  0  0  0  0  0  0  0  0
   55.5530   22.3980   42.8490 O   0  0  0  0  0  0  0  0  0  0  0  0
   58.5996   21.1476   44.6475 H   0  0  0  0  0  0  0  0  0  0  0  0
   57.5216   21.0209   43.2163 H   0  0  0  0  0  0  0  0  0  0  0  0
   58.8800   22.1962   43.2163 H   0  0  0  0  0  0  0  0  0  0  0  0
   58.5750   23.2986   46.0159 H   0  0  0  0  0  0  0  0  0  0  0  0
   56.3533   25.5475   47.8323 H   0  0  0  0  0  0  0  0  0  0  0  0
   57.8646   24.5675   47.8820 H   0  0  0  0  0  0  0  0  0  0  0  0
   59.5382   26.1817   48.3491 H   0  0  0  0  0  0  0  0  0  0  0  0
   60.8151   28.2019   47.6429 H   0  0  0  0  0  0  0  0  0  0  0  0
   60.0159   29.5881   45.7303 H   0  0  0  0  0  0  0  0  0  0  0  0
   55.7760   32.2230   44.5820 H   0  0  0  0  0  0  0  0  0  0  0  0
   58.5355   31.4207   44.1127 H   0  0  0  0  0  0  0  0  0  0  0  0
   57.5687   32.7555   43.3959 H   0  0  0  0  0  0  0  0  0  0  0  0
   59.1428   34.5384   43.8032 H   0  0  0  0  0  0  0  0  0  0  0  0
   60.1618   36.1086   45.4550 H   0  0  0  0  0  0  0  0  0  0  0  0
   60.0124   35.6235   47.9001 H   0  0  0  0  0  0  0  0  0  0  0  0
   58.8392   33.5671   48.6982 H   0  0  0  0  0  0  0  0  0  0  0  0
   57.8149   31.9932   47.0524 H   0  0  0  0  0  0  0  0  0  0  0  0
   56.6597   26.9055   45.1989 H   0  0  0  0  0  0  0  0  0  0  0  0
  1  2  1  0
  2  3  2  0
  3  4  1  0
  4  5  1  0
  5  6  1  0
  6  7  2  0
  7  8  1  0
  8  9  2  0
  9 10  1  0
 10 11  1  0
 11 12  1  0
 12 13  2  0
 12 14  2  0
 12 15  1  0
 15 16  1  0
 16 17  1  0
 17 18  2  0
 18 19  1  0
 19 20  2  0
 20 21  1  0
 21 22  2  0
 10 23  2  0
  4 24  1  0
 24 25  2  0
 24 26  1  0
 26 27  1  0
 27 28  2  0
 27  2  1  0
 23  6  1  0
 22 17  1  0
  1 29  1  0
  1 30  1  0
  1 31  1  0
  3 32  1  0
  5 33  1  0
  5 34  1  0
  7 35  1  0
  8 36  1  0
  9 37  1  0
 15 38  1  0
 16 39  1  0
 16 40  1  0
 18 41  1  0
 19 42  1  0
 20 43  1  0
 21 44  1  0
 22 45  1  0
 23 46  1  0
M  CHG  2  11  -1  26  -1
M  END
>  <UniqueID>  (9) 
7

>  <SMILES>  (9) 
Cc1cn(Cc2cccc([N-]S(=O)(=O)NCc3ccccc3)c2)c(=O)[n-]c1=O

>  <Energy>  (9) 
50.37736300824942

>  <Genealogy>  (9) 
Cc1cn(Cc2cccc([N-]S(=O)(=O)NCc3ccccc3)c2)c(=O)[n-]c1=O (protonated)
Cc1cn(Cc2cccc([N-]S(=O)(=O)NCc3ccccc3)c2)c(=O)[n-]c1=O (3D coordinates assigned)
Cc1cn(Cc2cccc([N-]S(=O)(=O)NCc3ccccc3)c2)c(=O)[n-]c1=O (optimized conformer: 50.37736300824942 kcal/mol)

>  <smiles>  (9) 
Cc1cn(Cc2cccc(NS(=O)(=O)NCc3ccccc3)c2)c(=O)[nH]c1=O

>  <score_type>  (9) 
oracle

>  <origin>  (9) 
adg

>  <m_score__min__energy>  (9) 
-13.210000000000001

>  <m_primary>  (9) 
energy

$$$$
9:0
     RDKit          3D

 35 36  0  0  0  0  0  0  0  0999 V2000
   58.9120   31.0000   49.1610 C   0  0  0  0  0  0  0  0  0  0  0  0
   59.3000   32.1860   48.4770 O   0  0  0  0  0  0  0  0  0  0  0  0
   60.5870   32.4320   47.9710 C   0  0  0  0  0  0  0  0  0  0  0  0
   61.6230   31.4840   48.0930 C   0  0  0  0  0  0  0  0  0  0  0  0
   62.8870   31.7450   47.5630 C   0  0  0  0  0  0  0  0  0  0  0  0
   63.1360   32.9490   46.9050 C   0  0  0  0  0  0  0  0  0  0  0  0
   62.1210   33.8970   46.7750 C   0  0  0  0  0  0  0  0  0  0  0  0
   60.8450   33.6540   47.3120 C   0  0  0  0  0  0  0  0  0  0  0  0
   59.7490   34.6760   47.1040 C   0  0  0  0  0  0  0  0  0  0  0  0
   59.1400   34.5830   45.6980 C   0  0  0  0  0  0  0  0  0  0  0  0
   58.1560   33.4540   45.5990 C   0  0  0  0  0  0  0  0  0  0  0  0
   56.9770   33.6290   46.0110 O   0  0  0  0  0  0  0  0  0  0  0  0
   58.5900   32.1650   45.1360 N   0  0  0  0  0  0  0  0  0  0  0  0
   57.7700   30.9850   45.1680 C   0  0  0  0  0  0  0  0  0  0  0  0
   58.1650   29.8960   45.9560 C   0  0  0  0  0  0  0  0  0  0  0  0
   57.3750   28.7440   45.9870 C   0  0  0  0  0  0  0  0  0  0  0  0
   56.2400   28.6750   45.2420 N   0  0  0  0  0  0  0  0  0  0  0  0
   55.8430   29.7070   44.4510 C   0  0  0  0  0  0  0  0  0  0  0  0
   54.7920   29.6000   43.7670 O   0  0  0  0  0  0  0  0  0  0  0  0
   56.6030   30.8800   44.3930 C   0  0  0  0  0  0  0  0  0  0  0  0
   58.9670   31.1682   50.2467 H   0  0  0  0  0  0  0  0  0  0  0  0
   57.8809   30.7368   48.8825 H   0  0  0  0  0  0  0  0  0  0  0  0
   59.5881   30.1782   48.8825 H   0  0  0  0  0  0  0  0  0  0  0  0
   61.4336   30.5316   48.6098 H   0  0  0  0  0  0  0  0  0  0  0  0
   63.6891   30.9991   47.6645 H   0  0  0  0  0  0  0  0  0  0  0  0
   64.1336   33.1513   46.4881 H   0  0  0  0  0  0  0  0  0  0  0  0
   62.3207   34.8418   46.2483 H   0  0  0  0  0  0  0  0  0  0  0  0
   58.9564   34.5039   47.8471 H   0  0  0  0  0  0  0  0  0  0  0  0
   60.1897   35.6772   47.2194 H   0  0  0  0  0  0  0  0  0  0  0  0
   58.6249   35.5274   45.4683 H   0  0  0  0  0  0  0  0  0  0  0  0
   59.9531   34.3963   44.9811 H   0  0  0  0  0  0  0  0  0  0  0  0
   59.6080   32.0400   44.9370 H   0  0  0  0  0  0  0  0  0  0  0  0
   59.0915   29.9476   46.5467 H   0  0  0  0  0  0  0  0  0  0  0  0
   57.6720   27.8914   46.6153 H   0  0  0  0  0  0  0  0  0  0  0  0
   56.2896   31.7128   43.7463 H   0  0  0  0  0  0  0  0  0  0  0  0
  1  2  1  0
  2  3  1  0
  3  4  2  0
  4  5  1  0
  5  6  2  0
  6  7  1  0
  7  8  2  0
  8  9  1  0
  9 10  1  0
 10 11  1  0
 11 12  2  0
 11 13  1  0
 13 14  1  0
 14 15  1  0
 15 16  2  0
 16 17  1  0
 17 18  1  0
 18 19  2  0
 18 20  1  0
  8  3  1  0
 20 14  2  0
  1 21  1  0
  1 22  1  0
  1 23  1  0
  4 24  1  0
  5 25  1  0
  6 26  1  0
  7 27  1  0
  9 28  1  0
  9 29  1  0
 10 30  1  0
 10 31  1  0
 13 32  1  0
 15 33  1  0
 16 34  1  0
 20 35  1  0
M  CHG  1  17  -1
M  END
>  <UniqueID>  (10) 
8

>  <SMILES>  (10) 
COc1ccccc1CCC(=O)Nc1cc[n-]c(=O)c1

>  <Energy>  (10) 
33.605626792875626

>  <Genealogy>  (10) 
COc1ccccc1CCC(=O)Nc1cc[n-]c(=O)c1 (protonated)
COc1ccccc1CCC(=O)Nc1cc[n-]c(=O)c1 (3D coordinates assigned)
COc1ccccc1CCC(=O)Nc1cc[n-]c(=O)c1 (optimized conformer: 33.605626792875626 kcal/mol)

>  <smiles>  (10) 
COc1ccccc1CCC(=O)Nc1cc[nH]c(=O)c1

>  <score_type>  (10) 
oracle

>  <origin>  (10) 
adg

>  <m_score__min__energy>  (10) 
-8.3300000000000001

>  <m_primary>  (10) 
energy

$$$$
10:0
     RDKit          3D

 54 56  0  0  0  0  0  0  0  0999 V2000
   60.7360   28.6370   46.5070 N   0  0  0  0  0  0  0  0  0  0  0  0
   60.3020   27.0130   46.9120 S   0  0  0  0  0  0  0  0  0  0  0  0
   61.1430   26.0580   46.1130 O   0  0  0  0  0  0  0  0  0  0  0  0
   60.5580   26.7720   48.3740 O   0  0  0  0  0  0  0  0  0  0  0  0
   58.5940   26.7540   46.5580 C   0  0  0  0  0  0  0  0  0  0  0  0
   57.9850   25.5290   46.8580 C   0  0  0  0  0  0  0  0  0  0  0  0
   56.6410   25.3190   46.5410 C   0  0  0  0  0  0  0  0  0  0  0  0
   55.8950   26.3300   45.9290 C   0  0  0  0  0  0  0  0  0  0  0  0
   56.4920   27.5700   45.6370 C   0  0  0  0  0  0  0  0  0  0  0  0
   55.7760   28.6300   44.9840 N   0  0  0  0  0  0  0  0  0  0  0  0
   56.3230   29.6220   44.1050 C   0  0  0  0  0  0  0  0  0  0  0  0
   56.1580   29.5450   42.8580 O   0  0  0  0  0  0  0  0  0  0  0  0
   57.0480   30.7940   44.6760 C   0  0  0  0  0  0  0  0  0  0  0  0
   58.2690   30.3530   45.2600 O   0  0  0  0  0  0  0  0  0  0  0  0
   58.7240   30.8060   46.5040 C   0  0  0  0  0  0  0  0  0  0  0  0
   58.7430   30.0140   47.4840 O   0  0  0  0  0  0  0  0  0  0  0  0
   59.1550   32.2240   46.6520 C   0  0  0  0  0  0  0  0  0  0  0  0
   58.1770   33.2330   46.5190 C   0  0  0  0  0  0  0  0  0  0  0  0
   58.5090   34.5810   46.6640 C   0  0  0  0  0  0  0  0  0  0  0  0
   59.8240   34.9510   46.9330 C   0  0  0  0  0  0  0  0  0  0  0  0
   60.8120   33.9730   47.0590 C   0  0  0  0  0  0  0  0  0  0  0  0
   60.4980   32.6120   46.9220 C   0  0  0  0  0  0  0  0  0  0  0  0
   61.8440   31.4290   47.1380 S   0  0  0  0  0  0  0  0  0  0  0  0
   61.8030   31.4610   48.9680 C   0  0  0  0  0  0  0  0  0  0  0  0
   60.7120   30.5900   49.5330 C   0  0  0  0  0  0  0  0  0  0  0  0
   60.8380   29.3340   49.5080 O   0  0  0  0  0  0  0  0  0  0  0  0
   59.5660   31.1730   50.1840 N   0  0  0  0  0  0  0  0  0  0  0  0
   59.4040   32.5960   50.4370 C   0  0  0  0  0  0  0  0  0  0  0  0
   58.2260   32.7050   51.4020 C   0  0  0  0  0  0  0  0  0  0  0  0
   57.4740   31.3820   51.2800 C   0  0  0  0  0  0  0  0  0  0  0  0
   58.4960   30.3760   50.7610 C   0  0  0  0  0  0  0  0  0  0  0  0
   57.8480   27.7640   45.9360 C   0  0  0  0  0  0  0  0  0  0  0  0
   59.9490   29.0310   45.9440 H   0  0  0  0  0  0  0  0  0  0  0  0
   60.7640   29.1780   47.4000 H   0  0  0  0  0  0  0  0  0  0  0  0
   58.5659   24.7312   47.3439 H   0  0  0  0  0  0  0  0  0  0  0  0
   56.1677   24.3538   46.7740 H   0  0  0  0  0  0  0  0  0  0  0  0
   54.8390   26.1559   45.6751 H   0  0  0  0  0  0  0  0  0  0  0  0
   57.2636   31.5179   43.8763 H   0  0  0  0  0  0  0  0  0  0  0  0
   56.4244   31.2744   45.4444 H   0  0  0  0  0  0  0  0  0  0  0  0
   57.1366   32.9526   46.2976 H   0  0  0  0  0  0  0  0  0  0  0  0
   57.7306   35.3520   46.5656 H   0  0  0  0  0  0  0  0  0  0  0  0
   60.0843   36.0137   47.0462 H   0  0  0  0  0  0  0  0  0  0  0  0
   61.8495   34.2727   47.2682 H   0  0  0  0  0  0  0  0  0  0  0  0
   62.7717   31.1058   49.3493 H   0  0  0  0  0  0  0  0  0  0  0  0
   61.6017   32.4962   49.2810 H   0  0  0  0  0  0  0  0  0  0  0  0
   60.3146   33.0119   50.8929 H   0  0  0  0  0  0  0  0  0  0  0  0
   59.2257   33.1587   49.5088 H   0  0  0  0  0  0  0  0  0  0  0  0
   58.5849   32.8495   52.4317 H   0  0  0  0  0  0  0  0  0  0  0  0
   57.5815   33.5639   51.1634 H   0  0  0  0  0  0  0  0  0  0  0  0
   57.0892   31.0671   52.2612 H   0  0  0  0  0  0  0  0  0  0  0  0
   56.6079   31.4665   50.6071 H   0  0  0  0  0  0  0  0  0  0  0  0
   58.8793   29.7570   51.5856 H   0  0  0  0  0  0  0  0  0  0  0  0
   58.0549   29.6893   50.0235 H   0  0  0  0  0  0  0  0  0  0  0  0
   58.3310   28.7185   45.6798 H   0  0  0  0  0  0  0  0  0  0  0  0
  1  2  1  0
  2  3  2  0
  2  4  2  0
  2  5  1  0
  5  6  2  0
  6  7  1  0
  7  8  2  0
  8  9  1  0
  9 10  1  0
 10 11  1  0
 11 12  2  0
 11 13  1  0
 13 14  1  0
 14 15  1  0
 15 16  2  0
 15 17  1  0
 17 18  2  0
 18 19  1  0
 19 20  2  0
 20 21  1  0
 21 22  2  0
 22 23  1  0
 23 24  1  0
 24 25  1  0
 25 26  2  0
 25 27  1  0
 27 28  1  0
 28 29  1  0
 29 30  1  0
 30 31  1  0
  9 32  2  0
 32  5  1  0
 22 17  1  0
 31 27  1  0
  1 33  1  0
  1 34  1  0
  6 35  1  0
  7 36  1  0
  8 37  1  0
 13 38  1  0
 13 39  1  0
 18 40  1  0
 19 41  1  0
 20 42  1  0
 21 43  1  0
 24 44  1  0
 24 45  1  0
 28 46  1  0
 28 47  1  0
 29 48  1  0
 29 49  1  0
 30 50  1  0
 30 51  1  0
 31 52  1  0
 31 53  1  0
 32 54  1  0
M  CHG  1  10  -1
M  END
>  <UniqueID>  (11) 
9

>  <SMILES>  (11) 
NS(=O)(=O)c1cccc([N-]C(=O)COC(=O)c2ccccc2SCC(=O)N2CCCC2)c1

>  <Energy>  (11) 
53.69777215637258

>  <Genealogy>  (11) 
NS(=O)(=O)c1cccc([N-]C(=O)COC(=O)c2ccccc2SCC(=O)N2CCCC2)c1 (protonated)
NS(=O)(=O)c1cccc([N-]C(=O)COC(=O)c2ccccc2SCC(=O)N2CCCC2)c1 (3D coordinates assigned)
NS(=O)(=O)c1cccc([N-]C(=O)COC(=O)c2ccccc2SCC(=O)N2CCCC2)c1 (nonaromatic ring conformer: 53.69777215637258 kcal/mol)

>  <smiles>  (11) 
NS(=O)(=O)c1cccc(NC(=O)COC(=O)c2ccccc2SCC(=O)N2CCCC2)c1

>  <score_type>  (11) 
oracle

>  <origin>  (11) 
adg

>  <m_score__min__energy>  (11) 
-10.470000000000001

>  <m_primary>  (11) 
energy

$$$$
11:0
     RDKit          3D

 44 46  0  0  0  0  0  0  0  0999 V2000
   56.7550   30.6630   43.5950 C   0  0  0  0  0  0  0  0  0  0  0  0
   57.4300   30.3710   44.8150 O   0  0  0  0  0  0  0  0  0  0  0  0
   57.7010   29.0780   45.2930 C   0  0  0  0  0  0  0  0  0  0  0  0
   56.6710   28.1580   45.5560 C   0  0  0  0  0  0  0  0  0  0  0  0
   56.9500   26.8530   46.0050 C   0  0  0  0  0  0  0  0  0  0  0  0
   55.8160   25.9220   46.2640 C   0  0  0  0  0  0  0  0  0  0  0  0
   54.5040   26.1970   45.7780 N   0  0  0  0  0  0  0  0  0  0  0  0
   56.0030   24.8700   46.9350 O   0  0  0  0  0  0  0  0  0  0  0  0
   58.2980   26.4660   46.1940 C   0  0  0  0  0  0  0  0  0  0  0  0
   58.5900   25.1710   46.6540 O   0  0  0  0  0  0  0  0  0  0  0  0
   58.7440   24.0250   45.8220 C   0  0  0  0  0  0  0  0  0  0  0  0
   59.3250   27.3890   45.9260 C   0  0  0  0  0  0  0  0  0  0  0  0
   59.0390   28.6970   45.5040 C   0  0  0  0  0  0  0  0  0  0  0  0
   60.1740   29.6650   45.2450 C   0  0  0  0  0  0  0  0  0  0  0  0
   60.3520   30.6440   46.3830 C   0  0  0  0  0  0  0  0  0  0  0  0
   61.1710   30.2840   47.4070 N   0  0  0  0  0  0  0  0  0  0  0  0
   61.3790   31.0690   48.4610 N   0  0  0  0  0  0  0  0  0  0  0  0
   60.7710   32.2720   48.5800 C   0  0  0  0  0  0  0  0  0  0  0  0
   61.0020   32.9840   49.5940 O   0  0  0  0  0  0  0  0  0  0  0  0
   59.8920   32.7110   47.5790 C   0  0  0  0  0  0  0  0  0  0  0  0
   59.7010   31.9020   46.4290 C   0  0  0  0  0  0  0  0  0  0  0  0
   58.7550   32.2820   45.3960 N   0  0  0  0  0  0  0  0  0  0  0  0
   58.4820   33.7250   45.3510 C   0  0  0  0  0  0  0  0  0  0  0  0
   58.0770   34.2400   46.7270 C   0  0  0  0  0  0  0  0  0  0  0  0
   59.2400   34.0700   47.6990 C   0  0  0  0  0  0  0  0  0  0  0  0
   55.7661   31.0908   43.8164 H   0  0  0  0  0  0  0  0  0  0  0  0
   57.3454   31.3862   43.0133 H   0  0  0  0  0  0  0  0  0  0  0  0
   56.6323   29.7375   43.0133 H   0  0  0  0  0  0  0  0  0  0  0  0
   55.6249   28.4642   45.4079 H   0  0  0  0  0  0  0  0  0  0  0  0
   53.8040   26.6970   46.3710 H   0  0  0  0  0  0  0  0  0  0  0  0
   58.8643   23.1297   46.4497 H   0  0  0  0  0  0  0  0  0  0  0  0
   57.8532   23.9106   45.1869 H   0  0  0  0  0  0  0  0  0  0  0  0
   59.6334   24.1498   45.1869 H   0  0  0  0  0  0  0  0  0  0  0  0
   60.3734   27.0797   46.0496 H   0  0  0  0  0  0  0  0  0  0  0  0
   61.1058   29.0944   45.1180 H   0  0  0  0  0  0  0  0  0  0  0  0
   59.9324   30.2380   44.3376 H   0  0  0  0  0  0  0  0  0  0  0  0
   57.8580   31.7640   45.5560 H   0  0  0  0  0  0  0  0  0  0  0  0
   59.1300   32.0200   44.4590 H   0  0  0  0  0  0  0  0  0  0  0  0
   59.3880   34.2537   45.0199 H   0  0  0  0  0  0  0  0  0  0  0  0
   57.6556   33.9067   44.6482 H   0  0  0  0  0  0  0  0  0  0  0  0
   57.8119   35.3052   46.6559 H   0  0  0  0  0  0  0  0  0  0  0  0
   57.2102   33.6686   47.0906 H   0  0  0  0  0  0  0  0  0  0  0  0
   59.9931   34.8438   47.4889 H   0  0  0  0  0  0  0  0  0  0  0  0
   58.8425   34.1644   48.7203 H   0  0  0  0  0  0  0  0  0  0  0  0
  1  2  1  0
  2  3  1  0
  3  4  2  0
  4  5  1  0
  5  6  1  0
  6  7  1  0
  6  8  2  0
  5  9  2  0
  9 10  1  0
 10 11  1  0
  9 12  1  0
 12 13  2  0
 13 14  1  0
 14 15  1  0
 15 16  2  0
 16 17  1  0
 17 18  1  0
 18 19  2  0
 18 20  1  0
 20 21  2  0
 21 22  1  0
 22 23  1  0
 23 24  1  0
 24 25  1  0
 13  3  1  0
 21 15  1  0
 25 20  1  0
  1 26  1  0
  1 27  1  0
  1 28  1  0
  4 29  1  0
  7 30  1  0
 11 31  1  0
 11 32  1  0
 11 33  1  0
 12 34  1  0
 14 35  1  0
 14 36  1  0
 22 37  1  0
 22 38  1  0
 23 39  1  0
 23 40  1  0
 24 41  1  0
 24 42  1  0
 25 43  1  0
 25 44  1  0
M  CHG  3   7  -1  17  -1  22   1
M  END
>  <UniqueID>  (12) 
10

>  <SMILES>  (12) 
COc1cc(C([NH-])=O)c(OC)cc1Cc1n[n-]c(=O)c2c1[NH2+]CCC2

>  <Energy>  (12) 
53.13178839696431

>  <Genealogy>  (12) 
COc1cc(C([NH-])=O)c(OC)cc1Cc1n[n-]c(=O)c2c1[NH2+]CCC2 (protonated)
COc1cc(C([NH-])=O)c(OC)cc1Cc1n[n-]c(=O)c2c1[NH2+]CCC2 (3D coordinates assigned)
COc1cc(C([NH-])=O)c(OC)cc1Cc1n[n-]c(=O)c2c1[NH2+]CCC2 (nonaromatic ring conformer: 53.13178839696431 kcal/mol)

>  <smiles>  (12) 
COc1cc(C(N)=O)c(OC)cc1Cc1n[nH]c(=O)c2c1NCCC2

>  <score_type>  (12) 
oracle

>  <origin>  (12) 
adg

>  <m_score__min__energy>  (12) 
-9.8599999999999994

>  <m_primary>  (12) 
energy

$$$$
12:0
     RDKit          3D

 43 45  0  0  0  0  0  0  0  0999 V2000
   57.0350   34.1420   45.2490 C   0  0  0  0  0  0  0  0  0  0  0  0
   58.2430   33.8360   46.0840 C   0  0  0  0  0  0  0  0  0  0  0  0
   59.3910   34.6350   45.9860 C   0  0  0  0  0  0  0  0  0  0  0  0
   60.5260   34.3260   46.7380 C   0  0  0  0  0  0  0  0  0  0  0  0
   60.5320   33.2100   47.5790 C   0  0  0  0  0  0  0  0  0  0  0  0
   59.3980   32.3810   47.6670 C   0  0  0  0  0  0  0  0  0  0  0  0
   59.3770   31.2110   48.5050 N   0  0  0  0  0  0  0  0  0  0  0  0
   60.2910   29.7720   48.1790 S   0  0  0  0  0  0  0  0  0  0  0  0
   60.7720   29.1860   49.4760 O   0  0  0  0  0  0  0  0  0  0  0  0
   61.4790   30.1290   47.3300 O   0  0  0  0  0  0  0  0  0  0  0  0
   59.2790   28.5840   47.3620 C   0  0  0  0  0  0  0  0  0  0  0  0
   59.6020   27.2220   47.4160 C   0  0  0  0  0  0  0  0  0  0  0  0
   58.7980   26.2870   46.7600 C   0  0  0  0  0  0  0  0  0  0  0  0
   57.6770   26.7050   46.0380 C   0  0  0  0  0  0  0  0  0  0  0  0
   57.3550   28.0720   45.9620 C   0  0  0  0  0  0  0  0  0  0  0  0
   56.2060   28.5470   45.2460 N   0  0  0  0  0  0  0  0  0  0  0  0
   56.1430   29.6980   44.3940 C   0  0  0  0  0  0  0  0  0  0  0  0
   55.1550   30.4790   44.4420 O   0  0  0  0  0  0  0  0  0  0  0  0
   57.2900   29.9980   43.4640 C   0  0  0  0  0  0  0  0  0  0  0  0
   56.9870   31.0780   42.4240 C   0  0  0  0  0  0  0  0  0  0  0  0
   58.0810   31.9560   43.0130 C   0  0  0  0  0  0  0  0  0  0  0  0
   58.3740   30.8960   44.0640 C   0  0  0  0  0  0  0  0  0  0  0  0
   58.1470   29.0020   46.6480 C   0  0  0  0  0  0  0  0  0  0  0  0
   58.2560   32.7050   46.9150 C   0  0  0  0  0  0  0  0  0  0  0  0
   56.1801   34.3586   45.9065 H   0  0  0  0  0  0  0  0  0  0  0  0
   57.2401   35.0166   44.6141 H   0  0  0  0  0  0  0  0  0  0  0  0
   56.7990   33.2753   44.6141 H   0  0  0  0  0  0  0  0  0  0  0  0
   59.3974   35.5069   45.3154 H   0  0  0  0  0  0  0  0  0  0  0  0
   61.4195   34.9638   46.6682 H   0  0  0  0  0  0  0  0  0  0  0  0
   61.4271   32.9784   48.1749 H   0  0  0  0  0  0  0  0  0  0  0  0
   58.7010   31.1710   49.3010 H   0  0  0  0  0  0  0  0  0  0  0  0
   60.4888   26.8888   47.9750 H   0  0  0  0  0  0  0  0  0  0  0  0
   59.0483   25.2171   46.8119 H   0  0  0  0  0  0  0  0  0  0  0  0
   57.0449   25.9632   45.5279 H   0  0  0  0  0  0  0  0  0  0  0  0
   57.5260   28.9692   43.1542 H   0  0  0  0  0  0  0  0  0  0  0  0
   57.1727   30.7657   41.3857 H   0  0  0  0  0  0  0  0  0  0  0  0
   55.9645   31.4667   42.3080 H   0  0  0  0  0  0  0  0  0  0  0  0
   58.9183   32.1499   42.3265 H   0  0  0  0  0  0  0  0  0  0  0  0
   57.8598   32.9904   43.3149 H   0  0  0  0  0  0  0  0  0  0  0  0
   59.3885   30.4748   44.0059 H   0  0  0  0  0  0  0  0  0  0  0  0
   58.3540   31.1530   45.1334 H   0  0  0  0  0  0  0  0  0  0  0  0
   57.8786   30.0685   46.6263 H   0  0  0  0  0  0  0  0  0  0  0  0
   57.3631   32.0657   46.9783 H   0  0  0  0  0  0  0  0  0  0  0  0
  1  2  1  0
  2  3  2  0
  3  4  1  0
  4  5  2  0
  5  6  1  0
  6  7  1  0
  7  8  1  0
  8  9  2  0
  8 10  2  0
  8 11  1  0
 11 12  2  0
 12 13  1  0
 13 14  2  0
 14 15  1  0
 15 16  1  0
 16 17  1  0
 17 18  2  0
 17 19  1  0
 19 20  1  0
 20 21  1  0
 21 22  1  0
 15 23  2  0
  6 24  2  0
 24  2  1  0
 23 11  1  0
 22 19  1  0
  1 25  1  0
  1 26  1  0
  1 27  1  0
  3 28  1  0
  4 29  1  0
  5 30  1  0
  7 31  1  0
 12 32  1  0
 13 33  1  0
 14 34  1  0
 19 35  1  0
 20 36  1  0
 20 37  1  0
 21 38  1  0
 21 39  1  0
 22 40  1  0
 22 41  1  0
 23 42  1  0
 24 43  1  0
M  CHG  1  16  -1
M  END
>  <UniqueID>  (13) 
11

>  <SMILES>  (13) 
Cc1cccc(NS(=O)(=O)c2cccc([N-]C(=O)C3CCC3)c2)c1

>  <Energy>  (13) 
109.28049410300785

>  <Genealogy>  (13) 
Cc1cccc(NS(=O)(=O)c2cccc([N-]C(=O)C3CCC3)c2)c1 (protonated)
Cc1cccc(NS(=O)(=O)c2cccc([N-]C(=O)C3CCC3)c2)c1 (3D coordinates assigned)
Cc1cccc(NS(=O)(=O)c2cccc([N-]C(=O)C3CCC3)c2)c1 (nonaromatic ring conformer: 109.28049410300785 kcal/mol)

>  <smiles>  (13) 
Cc1cccc(NS(=O)(=O)c2cccc(NC(=O)C3CCC3)c2)c1

>  <score_type>  (13) 
oracle

>  <origin>  (13) 
adg

>  <m_score__min__energy>  (13) 
-11.050000000000001

>  <m_primary>  (13) 
energy

$$$$
13:0
     RDKit          3D

 42 45  0  0  0  0  0  0  0  0999 V2000
   50.9320   24.2210   44.1070 C   0  0  0  0  0  0  0  0  0  0  0  0
   51.3350   23.3570   45.2630 C   0  0  0  0  0  0  0  0  0  0  0  0
   50.6150   23.3440   46.2950 O   0  0  0  0  0  0  0  0  0  0  0  0
   52.5380   22.5760   45.2490 N   0  0  0  0  0  0  0  0  0  0  0  0
   53.8790   23.0660   45.3950 C   0  0  0  0  0  0  0  0  0  0  0  0
   54.9420   22.1600   45.3060 C   0  0  0  0  0  0  0  0  0  0  0  0
   56.2650   22.6010   45.4170 C   0  0  0  0  0  0  0  0  0  0  0  0
   56.5370   23.9630   45.5980 C   0  0  0  0  0  0  0  0  0  0  0  0
   57.8520   24.4330   45.7120 C   0  0  0  0  0  0  0  0  0  0  0  0
   58.0910   25.8030   45.8810 C   0  0  0  0  0  0  0  0  0  0  0  0
   59.3950   26.3030   46.0030 C   0  0  0  0  0  0  0  0  0  0  0  0
   59.6060   27.6750   46.1660 C   0  0  0  0  0  0  0  0  0  0  0  0
   58.5240   28.5640   46.1930 C   0  0  0  0  0  0  0  0  0  0  0  0
   58.7830   29.9640   46.3700 N   0  0  0  0  0  0  0  0  0  0  0  0
   58.0600   31.0430   45.7580 C   0  0  0  0  0  0  0  0  0  0  0  0
   56.9970   30.7790   45.1380 O   0  0  0  0  0  0  0  0  0  0  0  0
   58.5000   32.4530   45.8790 C   0  0  0  0  0  0  0  0  0  0  0  0
   58.9530   32.9460   47.1160 C   0  0  0  0  0  0  0  0  0  0  0  0
   59.3700   34.2760   47.2380 C   0  0  0  0  0  0  0  0  0  0  0  0
   59.3480   35.1220   46.1250 C   0  0  0  0  0  0  0  0  0  0  0  0
   58.9150   34.6380   44.8890 C   0  0  0  0  0  0  0  0  0  0  0  0
   58.4970   33.3090   44.7630 C   0  0  0  0  0  0  0  0  0  0  0  0
   57.2130   28.0630   46.0970 C   0  0  0  0  0  0  0  0  0  0  0  0
   56.9940   26.6900   45.9310 C   0  0  0  0  0  0  0  0  0  0  0  0
   55.7260   26.2130   45.8220 N   0  0  0  0  0  0  0  0  0  0  0  0
   55.4700   24.8870   45.6610 C   0  0  0  0  0  0  0  0  0  0  0  0
   54.1500   24.4370   45.5480 C   0  0  0  0  0  0  0  0  0  0  0  0
   50.4952   25.1575   44.4840 H   0  0  0  0  0  0  0  0  0  0  0  0
   51.8164   24.4495   43.4942 H   0  0  0  0  0  0  0  0  0  0  0  0
   50.1885   23.6902   43.4942 H   0  0  0  0  0  0  0  0  0  0  0  0
   54.7353   21.0913   45.1473 H   0  0  0  0  0  0  0  0  0  0  0  0
   57.0920   21.8778   45.3621 H   0  0  0  0  0  0  0  0  0  0  0  0
   58.6950   23.7277   45.6689 H   0  0  0  0  0  0  0  0  0  0  0  0
   60.2527   25.6151   45.9704 H   0  0  0  0  0  0  0  0  0  0  0  0
   60.6308   28.0600   46.2740 H   0  0  0  0  0  0  0  0  0  0  0  0
   58.9796   32.2820   47.9926 H   0  0  0  0  0  0  0  0  0  0  0  0
   59.7155   34.6565   48.2106 H   0  0  0  0  0  0  0  0  0  0  0  0
   59.6718   36.1687   46.2231 H   0  0  0  0  0  0  0  0  0  0  0  0
   58.9025   35.3029   44.0128 H   0  0  0  0  0  0  0  0  0  0  0  0
   58.1639   32.9311   43.7851 H   0  0  0  0  0  0  0  0  0  0  0  0
   56.3573   28.7520   46.1525 H   0  0  0  0  0  0  0  0  0  0  0  0
   53.3207   25.1590   45.5790 H   0  0  0  0  0  0  0  0  0  0  0  0
  1  2  1  0
  2  3  2  0
  2  4  1  0
  4  5  1  0
  5  6  2  0
  6  7  1  0
  7  8  2  0
  8  9  1  0
  9 10  2  0
 10 11  1  0
 11 12  2  0
 12 13  1  0
 13 14  1  0
 14 15  1  0
 15 16  2  0
 15 17  1  0
 17 18  2  0
 18 19  1  0
 19 20  2  0
 20 21  1  0
 21 22  2  0
 13 23  2  0
 23 24  1  0
 24 25  2  0
 25 26  1  0
 26 27  2  0
 27  5  1  0
 26  8  1  0
 24 10  1  0
 22 17  1  0
  1 28  1  0
  1 29  1  0
  1 30  1  0
  6 31  1  0
  7 32  1  0
  9 33  1  0
 11 34  1  0
 12 35  1  0
 18 36  1  0
 19 37  1  0
 20 38  1  0
 21 39  1  0
 22 40  1  0
 23 41  1  0
 27 42  1  0
M  CHG  2   4  -1  14  -1
M  END
>  <UniqueID>  (14) 
12

>  <SMILES>  (14) 
CC(=O)[N-]c1ccc2cc3ccc([N-]C(=O)c4ccccc4)cc3nc2c1

>  <Energy>  (14) 
62.3509716199292

>  <Genealogy>  (14) 
CC(=O)[N-]c1ccc2cc3ccc([N-]C(=O)c4ccccc4)cc3nc2c1 (protonated)
CC(=O)[N-]c1ccc2cc3ccc([N-]C(=O)c4ccccc4)cc3nc2c1 (3D coordinates assigned)
CC(=O)[N-]c1ccc2cc3ccc([N-]C(=O)c4ccccc4)cc3nc2c1 (optimized conformer: 62.3509716199292 kcal/mol)

>  <smiles>  (14) 
CC(=O)Nc1ccc2cc3ccc(NC(=O)c4ccccc4)cc3nc2c1

>  <score_type>  (14) 
oracle

>  <origin>  (14) 
adg

>  <m_score__min__energy>  (14) 
-11.27

>  <m_primary>  (14) 
energy

$$$$
14:0
     RDKit          3D

 48 50  0  0  0  0  0  0  0  0999 V2000
   57.5650   33.5980   47.3020 N   0  0  0  0  0  0  0  0  0  0  0  0
   57.9610   34.0820   45.6870 S   0  0  0  0  0  0  0  0  0  0  0  0
   56.7640   34.6970   45.0180 O   0  0  0  0  0  0  0  0  0  0  0  0
   59.0610   35.1030   45.7480 O   0  0  0  0  0  0  0  0  0  0  0  0
   58.5110   32.7170   44.7660 N   0  0  0  0  0  0  0  0  0  0  0  0
   57.6650   31.7000   44.2060 C   0  0  0  0  0  0  0  0  0  0  0  0
   57.4990   31.6500   42.8180 C   0  0  0  0  0  0  0  0  0  0  0  0
   56.7190   30.6480   42.2360 C   0  0  0  0  0  0  0  0  0  0  0  0
   56.1010   29.6830   43.0370 C   0  0  0  0  0  0  0  0  0  0  0  0
   56.2370   29.7310   44.4270 C   0  0  0  0  0  0  0  0  0  0  0  0
   55.6510   28.6930   45.2250 N   0  0  0  0  0  0  0  0  0  0  0  0
   56.3110   27.4670   45.5580 C   0  0  0  0  0  0  0  0  0  0  0  0
   55.7080   26.5780   46.2180 O   0  0  0  0  0  0  0  0  0  0  0  0
   57.7460   27.2760   45.1880 C   0  0  0  0  0  0  0  0  0  0  0  0
   58.6160   27.9740   46.1990 C   0  0  0  0  0  0  0  0  0  0  0  0
   59.3480   29.1160   45.8350 C   0  0  0  0  0  0  0  0  0  0  0  0
   60.1930   29.7410   46.7600 C   0  0  0  0  0  0  0  0  0  0  0  0
   60.3230   29.2230   48.0640 C   0  0  0  0  0  0  0  0  0  0  0  0
   61.1340   29.8220   49.0410 O   0  0  0  0  0  0  0  0  0  0  0  0
   61.0900   31.1970   49.4270 C   0  0  0  0  0  0  0  0  0  0  0  0
   61.7520   32.0650   48.3910 C   0  0  0  0  0  0  0  0  0  0  0  0
   60.9840   32.9050   47.5650 C   0  0  0  0  0  0  0  0  0  0  0  0
   61.6100   33.7430   46.6370 C   0  0  0  0  0  0  0  0  0  0  0  0
   63.0040   33.7570   46.5340 C   0  0  0  0  0  0  0  0  0  0  0  0
   63.7750   32.9320   47.3590 C   0  0  0  0  0  0  0  0  0  0  0  0
   63.1530   32.0900   48.2860 C   0  0  0  0  0  0  0  0  0  0  0  0
   59.6110   28.0690   48.4130 C   0  0  0  0  0  0  0  0  0  0  0  0
   58.7680   27.4450   47.4900 C   0  0  0  0  0  0  0  0  0  0  0  0
   57.0180   30.7450   45.0100 C   0  0  0  0  0  0  0  0  0  0  0  0
   56.5680   33.8610   47.4690 H   0  0  0  0  0  0  0  0  0  0  0  0
   57.6200   32.5560   47.3600 H   0  0  0  0  0  0  0  0  0  0  0  0
   57.9853   32.4038   42.1814 H   0  0  0  0  0  0  0  0  0  0  0  0
   56.5906   30.6181   41.1439 H   0  0  0  0  0  0  0  0  0  0  0  0
   55.5059   28.8835   42.5716 H   0  0  0  0  0  0  0  0  0  0  0  0
   57.9833   26.2019   45.1778 H   0  0  0  0  0  0  0  0  0  0  0  0
   57.9291   27.6986   44.1890 H   0  0  0  0  0  0  0  0  0  0  0  0
   59.2569   29.5220   44.8167 H   0  0  0  0  0  0  0  0  0  0  0  0
   60.7571   30.6391   46.4679 H   0  0  0  0  0  0  0  0  0  0  0  0
   60.0404   31.5065   49.5394 H   0  0  0  0  0  0  0  0  0  0  0  0
   61.6278   31.3129   50.3796 H   0  0  0  0  0  0  0  0  0  0  0  0
   59.8872   32.9028   47.6492 H   0  0  0  0  0  0  0  0  0  0  0  0
   61.0047   34.3921   45.9872 H   0  0  0  0  0  0  0  0  0  0  0  0
   63.4947   34.4172   45.8037 H   0  0  0  0  0  0  0  0  0  0  0  0
   64.8720   32.9455   47.2786 H   0  0  0  0  0  0  0  0  0  0  0  0
   63.7627   31.4447   48.9355 H   0  0  0  0  0  0  0  0  0  0  0  0
   59.7164   27.6494   49.4243 H   0  0  0  0  0  0  0  0  0  0  0  0
   58.2208   26.5348   47.7765 H   0  0  0  0  0  0  0  0  0  0  0  0
   57.1235   30.7913   46.1039 H   0  0  0  0  0  0  0  0  0  0  0  0
  1  2  1  0
  2  3  2  0
  2  4  2  0
  2  5  1  0
  5  6  1  0
  6  7  2  0
  7  8  1  0
  8  9  2  0
  9 10  1  0
 10 11  1  0
 11 12  1  0
 12 13  2  0
 12 14  1  0
 14 15  1  0
 15 16  2  0
 16 17  1  0
 17 18  2  0
 18 19  1  0
 19 20  1  0
 20 21  1  0
 21 22  2  0
 22 23  1  0
 23 24  2  0
 24 25  1  0
 25 26  2  0
 18 27  1  0
 27 28  2  0
 10 29  2  0
 29  6  1  0
 28 15  1  0
 26 21  1  0
  1 30  1  0
  1 31  1  0
  7 32  1  0
  8 33  1  0
  9 34  1  0
 14 35  1  0
 14 36  1  0
 16 37  1  0
 17 38  1  0
 20 39  1  0
 20 40  1  0
 22 41  1  0
 23 42  1  0
 24 43  1  0
 25 44  1  0
 26 45  1  0
 27 46  1  0
 28 47  1  0
 29 48  1  0
M  CHG  2   5  -1  11  -1
M  END
>  <UniqueID>  (15) 
13

>  <SMILES>  (15) 
NS(=O)(=O)[N-]c1cccc([N-]C(=O)Cc2ccc(OCc3ccccc3)cc2)c1

>  <Energy>  (15) 
49.59648441194306

>  <Genealogy>  (15) 
NS(=O)(=O)[N-]c1cccc([N-]C(=O)Cc2ccc(OCc3ccccc3)cc2)c1 (protonated)
NS(=O)(=O)[N-]c1cccc([N-]C(=O)Cc2ccc(OCc3ccccc3)cc2)c1 (3D coordinates assigned)
NS(=O)(=O)[N-]c1cccc([N-]C(=O)Cc2ccc(OCc3ccccc3)cc2)c1 (optimized conformer: 49.59648441194306 kcal/mol)

>  <smiles>  (15) 
NS(=O)(=O)Nc1cccc(NC(=O)Cc2ccc(OCc3ccccc3)cc2)c1

>  <score_type>  (15) 
oracle

>  <origin>  (15) 
adg

>  <m_score__min__energy>  (15) 
-12.81

>  <m_primary>  (15) 
energy

$$$$
15:0
     RDKit          3D

 56 59  0  0  1  0  0  0  0  0999 V2000
   59.5420   34.9430   45.5440 C   0  0  0  0  0  0  0  0  0  0  0  0
   58.5260   34.1240   46.2120 C   0  0  0  0  0  0  0  0  0  0  0  0
   58.5240   34.0480   47.4570 O   0  0  0  0  0  0  0  0  0  0  0  0
   57.5470   33.4220   45.4210 N   0  0  0  0  0  0  0  0  0  0  0  0
   57.5910   32.1440   45.3100 C   0  0  0  0  0  0  0  0  0  0  0  0
   57.2350   31.4700   44.2110 N   0  0  0  0  0  0  0  0  0  0  0  0
   58.4260   28.0540   47.0060 C   0  0  0  0  0  0  0  0  0  0  0  0
   56.9060   29.6170   42.9840 N   0  0  0  0  0  0  0  0  0  0  0  0
   57.7060   29.3630   45.1850 C   0  0  0  0  0  0  0  0  0  0  0  0
   57.7180   28.0670   45.0180 C   0  0  0  0  0  0  0  0  0  0  0  0
   58.2200   27.0460   46.2730 C   0  0  0  0  0  0  0  0  0  0  0  0
   57.9940   25.9370   45.4630 C   0  0  0  0  0  0  0  0  0  0  0  0
   57.4630   24.9440   46.2660 O   0  0  0  0  0  0  0  0  0  0  0  0
   58.0930   25.4280   44.2030 N   0  0  0  0  0  0  0  0  0  0  0  0
   57.6350   24.0560   44.0270 C   0  0  0  0  0  0  0  0  0  0  0  0
   58.3750   22.9950   44.4990 C   0  0  0  0  0  0  0  0  0  0  0  0
   57.8840   21.7050   44.2920 C   0  0  0  0  0  0  0  0  0  0  0  0
   56.6730   21.5150   43.6220 C   0  0  0  0  0  0  0  0  0  0  0  0
   55.9400   22.5870   43.1520 C   0  0  0  0  0  0  0  0  0  0  0  0
   56.4230   23.8900   43.3560 C   0  0  0  0  0  0  0  0  0  0  0  0
   57.2630   30.1470   44.0730 C   0  0  0  0  0  0  0  0  0  0  0  0
   58.8840   27.3760   48.1860 O   0  0  0  0  0  0  0  0  0  0  0  0
   58.4620   29.3080   47.3030 N   0  0  0  0  0  0  0  0  0  0  0  0
   58.8770   29.8690   48.5440 C   0  0  0  0  0  0  0  0  0  0  0  0
   59.9200   30.9150   48.4200 C   0  0  0  0  0  0  0  0  0  0  0  0
   59.6530   32.0680   48.9030 O   0  0  0  0  0  0  0  0  0  0  0  0
   61.1740   30.7570   47.8230 N   0  0  0  0  0  0  0  0  0  0  0  0
   62.1000   31.8320   47.7630 C   0  0  0  0  0  0  0  0  0  0  0  0
   61.8450   32.7910   46.7670 C   0  0  0  0  0  0  0  0  0  0  0  0
   62.6890   33.8800   46.6240 C   0  0  0  0  0  0  0  0  0  0  0  0
   63.7940   34.0410   47.4560 C   0  0  0  0  0  0  0  0  0  0  0  0
   64.0070   33.0560   48.4360 C   0  0  0  0  0  0  0  0  0  0  0  0
   63.1820   31.9760   48.5900 C   0  0  0  0  0  0  0  0  0  0  0  0
   58.0530   30.1240   46.2750 C   0  0  0  0  0  0  0  0  0  0  0  0
   58.0110   31.4310   46.3640 N   0  0  0  0  0  0  0  0  0  0  0  0
   60.1640   35.4444   46.3001 H   0  0  0  0  0  0  0  0  0  0  0  0
   60.1758   34.3003   44.9153 H   0  0  0  0  0  0  0  0  0  0  0  0
   59.0485   35.6988   44.9153 H   0  0  0  0  0  0  0  0  0  0  0  0
   56.9090   32.0290   43.3960 H   0  0  0  0  0  0  0  0  0  0  0  0
   57.4470   29.2540   42.2100 H   0  0  0  0  0  0  0  0  0  0  0  0
   57.4003   27.6366   44.0569 H   0  0  0  0  0  0  0  0  0  0  0  0
   58.4890   25.9630   43.4280 H   0  0  0  0  0  0  0  0  0  0  0  0
   59.3271   23.1596   45.0248 H   0  0  0  0  0  0  0  0  0  0  0  0
   58.4516   20.8364   44.6571 H   0  0  0  0  0  0  0  0  0  0  0  0
   56.2965   20.4933   43.4660 H   0  0  0  0  0  0  0  0  0  0  0  0
   54.9891   22.4223   42.6241 H   0  0  0  0  0  0  0  0  0  0  0  0
   55.8575   24.7614   42.9943 H   0  0  0  0  0  0  0  0  0  0  0  0
   57.9978   30.3148   49.0321 H   0  0  0  0  0  0  0  0  0  0  0  0
   59.3197   29.0493   49.1289 H   0  0  0  0  0  0  0  0  0  0  0  0
   61.4850   29.8560   47.4070 H   0  0  0  0  0  0  0  0  0  0  0  0
   60.9762   32.6766   46.1020 H   0  0  0  0  0  0  0  0  0  0  0  0
   62.4837   34.6272   45.8432 H   0  0  0  0  0  0  0  0  0  0  0  0
   64.4709   34.9017   47.3509 H   0  0  0  0  0  0  0  0  0  0  0  0
   64.8729   33.1580   49.1067 H   0  0  0  0  0  0  0  0  0  0  0  0
   63.3859   31.2293   49.3716 H   0  0  0  0  0  0  0  0  0  0  0  0
   58.3080   31.9130   47.2330 H   0  0  0  0  0  0  0  0  0  0  0  0
  1  2  1  0
  2  3  2  0
  2  4  1  0
  4  5  2  0
  5  6  1  0
  6  7  1  0
  7  8  2  3
  7  9  1  0
  9 10  1  0
 10 11  2  0
 11 12  1  0
 12 13  2  0
 12 14  1  0
 14 15  1  0
 15 16  2  0
 16 17  1  0
 17 18  2  0
 18 19  1  0
 19 20  2  0
 11 21  1  0
 21 22  2  0
 21 23  1  0
 23 24  1  0
 24 25  1  0
 25 26  2  0
 25 27  1  0
 27 28  1  0
 28 29  2  0
 29 30  1  0
 30 31  2  0
 31 32  1  0
 32 33  2  0
 23 34  1  0
 34 35  1  0
 35  5  1  0
 34  9  2  0
 20 15  1  0
 33 28  1  0
  1 36  1  0
  1 37  1  0
  1 38  1  0
  6 39  1  0
  8 40  1  0
 10 41  1  0
 14 42  1  0
 16 43  1  0
 17 44  1  0
 18 45  1  0
 19 46  1  0
 20 47  1  0
 24 48  1  0
 24 49  1  0
 27 50  1  0
 29 51  1  0
 30 52  1  0
 31 53  1  0
 32 54  1  0
 33 55  1  0
 35 56  1  0
M  END
>  <smiles>  (16) 
CC(=O)N=c1[nH]c(=N)c2cc(C(=O)Nc3ccccc3)c(=O)n(CC(=O)Nc3ccccc3)c2[nH]1

>  <score_type>  (16) 
oracle

>  <origin>  (16) 
adg

>  <m_score__min__energy>  (16) 
-8.1799999999999997

>  <m_primary>  (16) 
energy

$$$$
16:0
     RDKit          3D

 44 46  0  0  0  0  0  0  0  0999 V2000
   58.9130   29.0600   48.5460 H   0  0  0  0  0  0  0  0  0  0  0  0
   58.5560   29.9940   48.8500 N   0  0  0  0  0  0  0  0  0  0  0  0
   59.1880   31.0850   48.5600 C   0  0  0  0  0  0  0  0  0  0  0  0
   58.5590   32.0870   47.8900 N   0  0  0  0  0  0  0  0  0  0  0  0
   59.2290   33.2260   47.5860 C   0  0  0  0  0  0  0  0  0  0  0  0
   58.4130   34.5400   46.6860 S   0  0  0  0  0  0  0  0  0  0  0  0
   57.0760   33.4750   46.0470 C   0  0  0  0  0  0  0  0  0  0  0  0
   56.5788   32.9694   46.8879 H   0  0  0  0  0  0  0  0  0  0  0  0
   56.3478   34.0945   45.5030 H   0  0  0  0  0  0  0  0  0  0  0  0
   57.6420   32.4520   45.1190 C   0  0  0  0  0  0  0  0  0  0  0  0
   58.7600   32.6510   44.5730 O   0  0  0  0  0  0  0  0  0  0  0  0
   56.8930   31.2630   44.8450 N   0  0  0  0  0  0  0  0  0  0  0  0
   57.4230   29.9340   44.7460 C   0  0  0  0  0  0  0  0  0  0  0  0
   57.1840   29.1200   43.6240 C   0  0  0  0  0  0  0  0  0  0  0  0
   56.5397   29.4833   42.8098 H   0  0  0  0  0  0  0  0  0  0  0  0
   57.7640   27.8490   43.5410 C   0  0  0  0  0  0  0  0  0  0  0  0
   57.5738   27.2156   42.6620 H   0  0  0  0  0  0  0  0  0  0  0  0
   58.5850   27.3820   44.5730 C   0  0  0  0  0  0  0  0  0  0  0  0
   59.0342   26.3801   44.5070 H   0  0  0  0  0  0  0  0  0  0  0  0
   58.8360   28.1900   45.6920 C   0  0  0  0  0  0  0  0  0  0  0  0
   59.8910   27.6270   46.9830 S   0  0  0  0  0  0  0  0  0  0  0  0
   59.0650   26.9540   48.0450 O   0  0  0  0  0  0  0  0  0  0  0  0
   60.8870   26.6390   46.4430 O   0  0  0  0  0  0  0  0  0  0  0  0
   60.7350   28.9760   47.6640 N   0  0  0  0  0  0  0  0  0  0  0  0
   60.3230   29.8390   47.2420 H   0  0  0  0  0  0  0  0  0  0  0  0
   60.5030   29.0010   48.6810 H   0  0  0  0  0  0  0  0  0  0  0  0
   58.2640   29.4680   45.7660 C   0  0  0  0  0  0  0  0  0  0  0  0
   58.4772   30.1110   46.6327 H   0  0  0  0  0  0  0  0  0  0  0  0
   60.5250   33.3700   47.9580 N   0  0  0  0  0  0  0  0  0  0  0  0
   61.1600   32.3750   48.6290 C   0  0  0  0  0  0  0  0  0  0  0  0
   62.5300   32.5320   49.0230 N   0  0  0  0  0  0  0  0  0  0  0  0
   63.5870   32.9430   48.1130 C   0  0  0  0  0  0  0  0  0  0  0  0
   63.7542   32.1732   47.3453 H   0  0  0  0  0  0  0  0  0  0  0  0
   63.3313   33.8730   47.5840 H   0  0  0  0  0  0  0  0  0  0  0  0
   64.8290   33.1090   48.9800 C   0  0  0  0  0  0  0  0  0  0  0  0
   65.7012   32.6522   48.4894 H   0  0  0  0  0  0  0  0  0  0  0  0
   65.0657   34.1705   49.1449 H   0  0  0  0  0  0  0  0  0  0  0  0
   64.5250   32.3940   50.2940 C   0  0  0  0  0  0  0  0  0  0  0  0
   64.9803   31.3927   50.2986 H   0  0  0  0  0  0  0  0  0  0  0  0
   64.9345   32.9420   51.1554 H   0  0  0  0  0  0  0  0  0  0  0  0
   63.0070   32.2860   50.3710 C   0  0  0  0  0  0  0  0  0  0  0  0
   62.7099   31.2813   50.7062 H   0  0  0  0  0  0  0  0  0  0  0  0
   62.5837   33.0029   51.0900 H   0  0  0  0  0  0  0  0  0  0  0  0
   60.4860   31.2310   48.9250 N   0  0  0  0  0  0  0  0  0  0  0  0
  1  2  1  0
  2  3  2  0
  3  4  1  0
  4  5  2  0
  5  6  1  0
  6  7  1  0
  7  8  1  0
  7  9  1  0
  7 10  1  0
 10 11  2  0
 10 12  1  0
 12 13  1  0
 13 14  2  0
 14 15  1  0
 14 16  1  0
 16 17  1  0
 16 18  2  0
 18 19  1  0
 18 20  1  0
 20 21  1  0
 21 22  2  0
 21 23  2  0
 21 24  1  0
 24 25  1  0
 24 26  1  0
 20 27  2  0
 27 28  1  0
  5 29  1  0
 29 30  2  0
 30 31  1  0
 31 32  1  0
 32 33  1  0
 32 34  1  0
 32 35  1  0
 35 36  1  0
 35 37  1  0
 35 38  1  0
 38 39  1  0
 38 40  1  0
 38 41  1  0
 41 42  1  0
 41 43  1  0
 30 44  1  0
 44  3  1  0
 27 13  1  0
 41 31  1  0
M  CHG  2  12  -1  44  -1
M  END
>  <UniqueID>  (17) 
14

>  <SMILES>  (17) 
[H]/N=c1\nc(SCC(=O)[N-]c2cccc(S(N)(=O)=O)c2)nc(N2CCCC2)[n-]1

>  <Energy>  (17) 
41.60498516172584

>  <Genealogy>  (17) 
N=c1nc(SCC(=O)[N-]c2cccc(S(N)(=O)=O)c2)nc(N2CCCC2)[n-]1 (protonated)
[H]/N=c1\nc(SCC(=O)[N-]c2cccc(S(N)(=O)=O)c2)nc(N2CCCC2)[n-]1 (cis-trans isomerization)
[H]/N=c1\nc(SCC(=O)[N-]c2cccc(S(N)(=O)=O)c2)nc(N2CCCC2)[n-]1 (3D coordinates assigned)
[H]/N=c1\nc(SCC(=O)[N-]c2cccc(S(N)(=O)=O)c2)nc(N2CCCC2)[n-]1 (nonaromatic ring conformer: 41.60498516172584 kcal/mol)

>  <smiles>  (17) 
N=c1nc(SCC(=O)Nc2cccc(S(N)(=O)=O)c2)nc(N2CCCC2)[nH]1

>  <score_type>  (17) 
oracle

>  <origin>  (17) 
adg

>  <m_score__min__energy>  (17) 
-12.300000000000001

>  <m_primary>  (17) 
energy

$$$$
17:0
     RDKit          3D

 80 85  0  0  0  0  0  0  0  0999 V2000
   56.8450   28.2770   45.3020 C   0  0  0  0  0  0  0  0  0  0  0  0
   56.1560   29.4850   44.9620 O   0  0  0  0  0  0  0  0  0  0  0  0
   56.7060   30.4610   44.1120 C   0  0  0  0  0  0  0  0  0  0  0  0
   56.4890   30.4120   42.7160 C   0  0  0  0  0  0  0  0  0  0  0  0
   57.0630   31.3630   41.8730 C   0  0  0  0  0  0  0  0  0  0  0  0
   57.8260   32.3970   42.4030 C   0  0  0  0  0  0  0  0  0  0  0  0
   58.0320   32.4710   43.7780 C   0  0  0  0  0  0  0  0  0  0  0  0
   57.4860   31.5160   44.6480 C   0  0  0  0  0  0  0  0  0  0  0  0
   57.8620   31.6350   46.0310 N   0  0  0  0  0  0  0  0  0  0  0  0
   58.2290   32.7810   46.8110 C   0  0  0  0  0  0  0  0  0  0  0  0
   57.3830   33.6780   47.0840 O   0  0  0  0  0  0  0  0  0  0  0  0
   59.6760   32.9340   47.2070 C   0  0  1  0  0  0  0  0  0  0  0  0
   60.1000   34.3680   47.4230 C   0  0  0  0  0  0  0  0  0  0  0  0
   59.2900   35.5330   46.9340 C   0  0  0  0  0  0  0  0  0  0  0  0
   61.2310   34.5970   48.0180 N   0  0  0  0  0  0  0  0  0  0  0  0
   62.0570   33.5650   48.5790 C   0  0  0  0  0  0  0  0  0  0  0  0
   63.4710   33.9430   48.9230 C   0  0  0  0  0  0  0  0  0  0  0  0
   61.5330   32.3190   48.8170 C   0  0  0  0  0  0  0  0  0  0  0  0
   62.3020   31.2640   49.5430 C   0  0  0  0  0  0  0  0  0  0  0  0
   63.5290   31.0840   49.2780 O   0  0  0  0  0  0  0  0  0  0  0  0
   61.6680   30.4760   50.5670 N   0  0  0  0  0  0  0  0  0  0  0  0
   62.2280   29.2750   51.1280 C   0  0  0  0  0  0  0  0  0  0  0  0
   63.5100   29.3090   51.7010 C   0  0  0  0  0  0  0  0  0  0  0  0
   64.0920   28.1510   52.2300 C   0  0  0  0  0  0  0  0  0  0  0  0
   63.3940   26.9400   52.2120 C   0  0  0  0  0  0  0  0  0  0  0  0
   64.1290   25.4690   52.8210 Cl  0  0  0  0  0  0  0  0  0  0  0  0
   62.1000   26.9020   51.6730 C   0  0  0  0  0  0  0  0  0  0  0  0
   61.5120   28.0590   51.1460 C   0  0  0  0  0  0  0  0  0  0  0  0
   60.0620   32.0990   48.4600 C   0  0  2  0  0  0  0  0  0  0  0  0
   59.6380   30.6260   48.3310 C   0  0  0  0  0  0  0  0  0  0  0  0
   60.1500   29.8950   47.2350 C   0  0  0  0  0  0  0  0  0  0  0  0
   59.8480   28.5410   47.0660 C   0  0  0  0  0  0  0  0  0  0  0  0
   60.3710   27.7990   45.9970 C   0  0  0  0  0  0  0  0  0  0  0  0
   60.0510   26.4420   45.8680 C   0  0  0  0  0  0  0  0  0  0  0  0
   59.2050   25.8260   46.7980 C   0  0  0  0  0  0  0  0  0  0  0  0
   58.6790   26.5580   47.8640 C   0  0  0  0  0  0  0  0  0  0  0  0
   59.0010   27.9160   48.0040 C   0  0  0  0  0  0  0  0  0  0  0  0
   58.5160   28.6240   49.0530 N   0  0  0  0  0  0  0  0  0  0  0  0
   58.8030   29.9410   49.2570 C   0  0  0  0  0  0  0  0  0  0  0  0
   58.3410   30.5460   50.4790 N   0  0  0  0  0  0  0  0  0  0  0  0
   58.8570   30.0630   51.7690 C   0  0  0  0  0  0  0  0  0  0  0  0
   59.0280   31.2020   52.7890 C   0  0  0  0  0  0  0  0  0  0  0  0
   59.6520   32.4300   52.1090 C   0  0  0  0  0  0  0  0  0  0  0  0
   58.8180   32.9370   50.9100 C   0  0  0  0  0  0  0  0  0  0  0  0
   57.7930   31.9080   50.4030 C   0  0  0  0  0  0  0  0  0  0  0  0
   56.8994   28.1816   46.3965 H   0  0  0  0  0  0  0  0  0  0  0  0
   56.3023   27.4157   44.8854 H   0  0  0  0  0  0  0  0  0  0  0  0
   57.8626   28.3056   44.8854 H   0  0  0  0  0  0  0  0  0  0  0  0
   55.8609   29.6155   42.2903 H   0  0  0  0  0  0  0  0  0  0  0  0
   56.9116   31.2947   40.7856 H   0  0  0  0  0  0  0  0  0  0  0  0
   58.2659   33.1547   41.7379 H   0  0  0  0  0  0  0  0  0  0  0  0
   58.6344   33.2941   44.1898 H   0  0  0  0  0  0  0  0  0  0  0  0
   60.2218   32.5404   46.3368 H   0  0  0  0  0  0  0  0  0  0  0  0
   58.8992   36.0951   47.7950 H   0  0  0  0  0  0  0  0  0  0  0  0
   59.9260   36.1916   46.3243 H   0  0  0  0  0  0  0  0  0  0  0  0
   58.4511   35.1662   46.3243 H   0  0  0  0  0  0  0  0  0  0  0  0
   63.5866   33.9739   50.0165 H   0  0  0  0  0  0  0  0  0  0  0  0
   64.1624   33.1981   48.5021 H   0  0  0  0  0  0  0  0  0  0  0  0
   63.6985   34.9335   48.5021 H   0  0  0  0  0  0  0  0  0  0  0  0
   60.8660   30.9200   51.0680 H   0  0  0  0  0  0  0  0  0  0  0  0
   64.0642   30.2586   51.7345 H   0  0  0  0  0  0  0  0  0  0  0  0
   65.1028   28.1942   52.6617 H   0  0  0  0  0  0  0  0  0  0  0  0
   61.5413   25.9545   51.6640 H   0  0  0  0  0  0  0  0  0  0  0  0
   60.4885   28.0196   50.7448 H   0  0  0  0  0  0  0  0  0  0  0  0
   59.4862   32.4629   49.3237 H   0  0  0  0  0  0  0  0  0  0  0  0
   60.7970   30.4003   46.5028 H   0  0  0  0  0  0  0  0  0  0  0  0
   61.0311   28.2820   45.2615 H   0  0  0  0  0  0  0  0  0  0  0  0
   60.4657   25.8580   45.0332 H   0  0  0  0  0  0  0  0  0  0  0  0
   58.9537   24.7607   46.6883 H   0  0  0  0  0  0  0  0  0  0  0  0
   58.0138   26.0711   48.5923 H   0  0  0  0  0  0  0  0  0  0  0  0
   58.1526   29.3238   52.1781 H   0  0  0  0  0  0  0  0  0  0  0  0
   59.8467   29.6169   51.5915 H   0  0  0  0  0  0  0  0  0  0  0  0
   58.0442   31.4739   53.1992 H   0  0  0  0  0  0  0  0  0  0  0  0
   59.6906   30.8634   53.5992 H   0  0  0  0  0  0  0  0  0  0  0  0
   59.7318   33.2396   52.8494 H   0  0  0  0  0  0  0  0  0  0  0  0
   60.6384   32.1312   51.7246 H   0  0  0  0  0  0  0  0  0  0  0  0
   58.2783   33.8443   51.2189 H   0  0  0  0  0  0  0  0  0  0  0  0
   59.5189   33.1322   50.0850 H   0  0  0  0  0  0  0  0  0  0  0  0
   56.8858   31.9670   51.0223 H   0  0  0  0  0  0  0  0  0  0  0  0
   57.5547   32.1347   49.3533 H   0  0  0  0  0  0  0  0  0  0  0  0
  1  2  1  0
  2  3  1  0
  3  4  2  0
  4  5  1  0
  5  6  2  0
  6  7  1  0
  7  8  2  0
  8  9  1  0
  9 10  1  0
 10 11  2  0
 10 12  1  0
 12 13  1  0
 13 14  1  0
 13 15  2  0
 15 16  1  0
 16 17  1  0
 16 18  2  0
 18 19  1  0
 19 20  2  0
 19 21  1  0
 21 22  1  0
 22 23  2  0
 23 24  1  0
 24 25  2  0
 25 26  1  0
 25 27  1  0
 27 28  2  0
 18 29  1  0
 29 30  1  0
 30 31  2  0
 31 32  1  0
 32 33  2  0
 33 34  1  0
 34 35  2  0
 35 36  1  0
 36 37  2  0
 37 38  1  0
 38 39  2  0
 39 40  1  0
 40 41  1  0
 41 42  1  0
 42 43  1  0
 43 44  1  0
 44 45  1  0
  8  3  1  0
 29 12  1  0
 39 30  1  0
 45 40  1  0
 28 22  1  0
 37 32  1  0
  1 46  1  0
  1 47  1  0
  1 48  1  0
  4 49  1  0
  5 50  1  0
  6 51  1  0
  7 52  1  0
 12 53  1  6
 14 54  1  0
 14 55  1  0
 14 56  1  0
 17 57  1  0
 17 58  1  0
 17 59  1  0
 21 60  1  0
 23 61  1  0
 24 62  1  0
 27 63  1  0
 28 64  1  0
 29 65  1  1
 31 66  1  0
 33 67  1  0
 34 68  1  0
 35 69  1  0
 36 70  1  0
 41 71  1  0
 41 72  1  0
 42 73  1  0
 42 74  1  0
 43 75  1  0
 43 76  1  0
 44 77  1  0
 44 78  1  0
 45 79  1  0
 45 80  1  0
M  CHG  1   9  -1
M  END
>  <UniqueID>  (18) 
15

>  <SMILES>  (18) 
COc1ccccc1[N-]C(=O)[C@H]1C(C)=NC(C)=C(C(=O)Nc2ccc(Cl)cc2)[C@@H]1c1cc2ccccc2nc1N1CCCCC1

>  <Energy>  (18) 
118.61162403969732

>  <Genealogy>  (18) 
COc1ccccc1[N-]C(=O)C1C(C)=NC(C)=C(C(=O)Nc2ccc(Cl)cc2)C1c1cc2ccccc2nc1N1CCCCC1 (protonated)
COc1ccccc1[N-]C(=O)[C@H]1C(C)=NC(C)=C(C(=O)Nc2ccc(Cl)cc2)[C@@H]1c1cc2ccccc2nc1N1CCCCC1 (chirality)
COc1ccccc1[N-]C(=O)[C@H]1C(C)=NC(C)=C(C(=O)Nc2ccc(Cl)cc2)[C@@H]1c1cc2ccccc2nc1N1CCCCC1 (3D coordinates assigned)
COc1ccccc1[N-]C(=O)[C@H]1C(C)=NC(C)=C(C(=O)Nc2ccc(Cl)cc2)[C@@H]1c1cc2ccccc2nc1N1CCCCC1 (nonaromatic ring conformer: 118.61162403969732 kcal/mol)

>  <smiles>  (18) 
COc1ccccc1NC(=O)C1C(C)=NC(C)=C(C(=O)Nc2ccc(Cl)cc2)C1c1cc2ccccc2nc1N1CCCCC1

>  <score_type>  (18) 
oracle

>  <origin>  (18) 
adg

>  <m_score__min__energy>  (18) 
-11.369999999999999

>  <m_primary>  (18) 
energy

$$$$
18:0
     RDKit          3D

 29 30  0  0  0  0  0  0  0  0999 V2000
   55.1550   29.4000   44.8530 N   0  0  0  0  0  0  0  0  0  0  0  0
   56.7430   29.3930   44.1720 S   0  0  0  0  0  0  0  0  0  0  0  0
   57.5100   28.2140   44.7000 O   0  0  0  0  0  0  0  0  0  0  0  0
   56.6470   29.2750   42.6760 O   0  0  0  0  0  0  0  0  0  0  0  0
   57.5720   30.8860   44.6010 C   0  0  0  0  0  0  0  0  0  0  0  0
   57.4360   32.0220   43.7970 C   0  0  0  0  0  0  0  0  0  0  0  0
   58.0790   33.2110   44.1440 C   0  0  0  0  0  0  0  0  0  0  0  0
   58.8600   33.2830   45.3080 C   0  0  0  0  0  0  0  0  0  0  0  0
   59.0170   32.1360   46.1200 C   0  0  0  0  0  0  0  0  0  0  0  0
   58.3520   30.9490   45.7630 C   0  0  0  0  0  0  0  0  0  0  0  0
   59.8370   32.1700   47.3990 C   0  0  0  0  0  0  0  0  0  0  0  0
   59.3960   33.2050   48.4730 C   0  0  0  0  0  0  0  0  0  0  0  0
   59.7730   34.5980   48.1710 N   0  0  0  0  0  0  0  0  0  0  0  0
   59.0800   35.1440   46.9850 C   0  0  0  0  0  0  0  0  0  0  0  0
   59.5760   34.5630   45.6490 C   0  0  0  0  0  0  0  0  0  0  0  0
   55.1480   28.6830   45.6130 H   0  0  0  0  0  0  0  0  0  0  0  0
   56.8195   31.9782   42.8870 H   0  0  0  0  0  0  0  0  0  0  0  0
   57.9731   34.0973   43.5012 H   0  0  0  0  0  0  0  0  0  0  0  0
   58.4455   30.0598   46.4037 H   0  0  0  0  0  0  0  0  0  0  0  0
   59.7867   31.1707   47.8560 H   0  0  0  0  0  0  0  0  0  0  0  0
   60.8471   32.4785   47.0917 H   0  0  0  0  0  0  0  0  0  0  0  0
   58.3010   33.1580   48.5662 H   0  0  0  0  0  0  0  0  0  0  0  0
   59.9189   32.9338   49.4020 H   0  0  0  0  0  0  0  0  0  0  0  0
   60.8100   34.6940   48.0720 H   0  0  0  0  0  0  0  0  0  0  0  0
   59.4990   35.1900   48.9890 H   0  0  0  0  0  0  0  0  0  0  0  0
   58.0062   34.9251   47.0803 H   0  0  0  0  0  0  0  0  0  0  0  0
   59.2911   36.2233   46.9612 H   0  0  0  0  0  0  0  0  0  0  0  0
   59.3961   35.2976   44.8503 H   0  0  0  0  0  0  0  0  0  0  0  0
   60.6500   34.3448   45.7434 H   0  0  0  0  0  0  0  0  0  0  0  0
  1  2  1  0
  2  3  2  0
  2  4  2  0
  2  5  1  0
  5  6  2  0
  6  7  1  0
  7  8  2  0
  8  9  1  0
  9 10  2  0
  9 11  1  0
 11 12  1  0
 12 13  1  0
 13 14  1  0
 14 15  1  0
 10  5  1  0
 15  8  1  0
  1 16  1  0
  6 17  1  0
  7 18  1  0
 10 19  1  0
 11 20  1  0
 11 21  1  0
 12 22  1  0
 12 23  1  0
 13 24  1  0
 13 25  1  0
 14 26  1  0
 14 27  1  0
 15 28  1  0
 15 29  1  0
M  CHG  2   1  -1  13   1
M  END
>  <UniqueID>  (19) 
16

>  <SMILES>  (19) 
[NH-]S(=O)(=O)c1ccc2c(c1)CC[NH2+]CC2

>  <Energy>  (19) 
38.781180364341004

>  <Genealogy>  (19) 
[NH-]S(=O)(=O)c1ccc2c(c1)CC[NH2+]CC2 (protonated)
[NH-]S(=O)(=O)c1ccc2c(c1)CC[NH2+]CC2 (3D coordinates assigned)
[NH-]S(=O)(=O)c1ccc2c(c1)CC[NH2+]CC2 (nonaromatic ring conformer: 38.781180364341004 kcal/mol)

>  <smiles>  (19) 
NS(=O)(=O)c1ccc2c(c1)CCNCC2

>  <score_type>  (19) 
oracle

>  <origin>  (19) 
adg

>  <m_score__min__energy>  (19) 
-6.5800000000000001

>  <m_primary>  (19) 
energy

$$$$
19:0
     RDKit          3D

 49 51  0  0  0  0  0  0  0  0999 V2000
   59.0490   33.4770   45.2440 C   0  0  0  0  0  0  0  0  0  0  0  0
   57.7690   32.3750   44.6830 S   0  0  0  0  0  0  0  0  0  0  0  0
   56.4480   32.8000   45.2590 O   0  0  0  0  0  0  0  0  0  0  0  0
   57.6820   32.4260   43.1830 O   0  0  0  0  0  0  0  0  0  0  0  0
   58.1500   30.7390   45.2040 C   0  0  0  0  0  0  0  0  0  0  0  0
   58.6110   30.5040   46.5070 C   0  0  0  0  0  0  0  0  0  0  0  0
   58.8600   29.1980   46.9390 C   0  0  0  0  0  0  0  0  0  0  0  0
   58.6450   28.1170   46.0750 C   0  0  0  0  0  0  0  0  0  0  0  0
   58.8460   26.4700   46.6680 S   0  0  0  0  0  0  0  0  0  0  0  0
   59.7550   26.4960   47.8640 O   0  0  0  0  0  0  0  0  0  0  0  0
   59.4520   25.5930   45.6080 O   0  0  0  0  0  0  0  0  0  0  0  0
   57.3050   25.8130   47.1290 N   0  0  0  0  0  0  0  0  0  0  0  0
   56.5030   24.9850   46.2650 C   0  0  0  0  0  0  0  0  0  0  0  0
   56.9400   23.7080   45.8650 C   0  0  0  0  0  0  0  0  0  0  0  0
   56.1740   22.9310   44.9880 C   0  0  0  0  0  0  0  0  0  0  0  0
   56.7610   21.3530   44.4630 S   0  0  0  0  0  0  0  0  0  0  0  0
   58.2640   21.3840   44.4000 O   0  0  0  0  0  0  0  0  0  0  0  0
   56.2520   21.0850   43.0740 O   0  0  0  0  0  0  0  0  0  0  0  0
   56.2480   20.0560   45.5220 N   0  0  0  0  0  0  0  0  0  0  0  0
   55.2850   20.5060   46.5490 C   0  0  0  0  0  0  0  0  0  0  0  0
   55.9330   20.7150   47.9280 C   0  0  0  0  0  0  0  0  0  0  0  0
   57.2890   21.0660   47.7890 O   0  0  0  0  0  0  0  0  0  0  0  0
   58.0200   19.9540   47.3130 C   0  0  0  0  0  0  0  0  0  0  0  0
   57.3820   19.2890   46.0710 C   0  0  0  0  0  0  0  0  0  0  0  0
   54.9460   23.4170   44.5260 C   0  0  0  0  0  0  0  0  0  0  0  0
   54.4870   24.6690   44.9400 C   0  0  0  0  0  0  0  0  0  0  0  0
   55.2590   25.4540   45.8020 C   0  0  0  0  0  0  0  0  0  0  0  0
   54.7860   26.7020   46.1870 O   0  0  0  0  0  0  0  0  0  0  0  0
   58.2000   28.3530   44.7660 C   0  0  0  0  0  0  0  0  0  0  0  0
   57.9500   29.6580   44.3350 C   0  0  0  0  0  0  0  0  0  0  0  0
   59.0650   33.4907   46.3438 H   0  0  0  0  0  0  0  0  0  0  0  0
   60.0226   33.1300   44.8675 H   0  0  0  0  0  0  0  0  0  0  0  0
   58.8506   34.4913   44.8675 H   0  0  0  0  0  0  0  0  0  0  0  0
   58.7772   31.3493   47.1910 H   0  0  0  0  0  0  0  0  0  0  0  0
   59.2260   29.0189   47.9608 H   0  0  0  0  0  0  0  0  0  0  0  0
   56.9150   26.1320   48.0430 H   0  0  0  0  0  0  0  0  0  0  0  0
   57.8946   23.3161   46.2461 H   0  0  0  0  0  0  0  0  0  0  0  0
   54.8423   21.4583   46.2215 H   0  0  0  0  0  0  0  0  0  0  0  0
   54.5262   19.7170   46.6575 H   0  0  0  0  0  0  0  0  0  0  0  0
   55.4034   21.5203   48.4582 H   0  0  0  0  0  0  0  0  0  0  0  0
   55.8657   19.7765   48.4979 H   0  0  0  0  0  0  0  0  0  0  0  0
   59.0332   20.2899   47.0474 H   0  0  0  0  0  0  0  0  0  0  0  0
   58.0298   19.2024   48.1162 H   0  0  0  0  0  0  0  0  0  0  0  0
   58.1513   19.1946   45.2905 H   0  0  0  0  0  0  0  0  0  0  0  0
   56.9932   18.3097   46.3868 H   0  0  0  0  0  0  0  0  0  0  0  0
   54.3409   22.8115   43.8352 H   0  0  0  0  0  0  0  0  0  0  0  0
   53.5135   25.0395   44.5864 H   0  0  0  0  0  0  0  0  0  0  0  0
   58.0476   27.5088   44.0774 H   0  0  0  0  0  0  0  0  0  0  0  0
   57.5948   29.8378   43.3096 H   0  0  0  0  0  0  0  0  0  0  0  0
  1  2  1  0
  2  3  2  0
  2  4  2  0
  2  5  1  0
  5  6  2  0
  6  7  1  0
  7  8  2  0
  8  9  1  0
  9 10  2  0
  9 11  2  0
  9 12  1  0
 12 13  1  0
 13 14  2  0
 14 15  1  0
 15 16  1  0
 16 17  2  0
 16 18  2  0
 16 19  1  0
 19 20  1  0
 20 21  1  0
 21 22  1  0
 22 23  1  0
 23 24  1  0
 15 25  2  0
 25 26  1  0
 26 27  2  0
 27 28  1  0
  8 29  1  0
 29 30  2  0
 30  5  1  0
 27 13  1  0
 24 19  1  0
  1 31  1  0
  1 32  1  0
  1 33  1  0
  6 34  1  0
  7 35  1  0
 12 36  1  0
 14 37  1  0
 20 38  1  0
 20 39  1  0
 21 40  1  0
 21 41  1  0
 23 42  1  0
 23 43  1  0
 24 44  1  0
 24 45  1  0
 25 46  1  0
 26 47  1  0
 29 48  1  0
 30 49  1  0
M  CHG  1  28  -1
M  END
>  <UniqueID>  (20) 
17

>  <SMILES>  (20) 
CS(=O)(=O)c1ccc(S(=O)(=O)Nc2cc(S(=O)(=O)N3CCOCC3)ccc2[O-])cc1

>  <Energy>  (20) 
60.06423265874586

>  <Genealogy>  (20) 
CS(=O)(=O)c1ccc(S(=O)(=O)Nc2cc(S(=O)(=O)N3CCOCC3)ccc2[O-])cc1 (protonated)
CS(=O)(=O)c1ccc(S(=O)(=O)Nc2cc(S(=O)(=O)N3CCOCC3)ccc2[O-])cc1 (3D coordinates assigned)
CS(=O)(=O)c1ccc(S(=O)(=O)Nc2cc(S(=O)(=O)N3CCOCC3)ccc2[O-])cc1 (nonaromatic ring conformer: 60.06423265874586 kcal/mol)

>  <smiles>  (20) 
CS(=O)(=O)c1ccc(S(=O)(=O)Nc2cc(S(=O)(=O)N3CCOCC3)ccc2O)cc1

>  <score_type>  (20) 
oracle

>  <origin>  (20) 
adg

>  <m_score__min__energy>  (20) 
-12.02

>  <m_primary>  (20) 
energy

$$$$
20:0
     RDKit          3D

 50 52  0  0  0  0  0  0  0  0999 V2000
   62.6990   34.1790   49.6160 C   0  0  0  0  0  0  0  0  0  0  0  0
   63.8120   33.8340   48.7180 N   0  0  0  0  0  0  0  0  0  0  0  0
   64.7780   32.9510   49.3930 C   0  0  0  0  0  0  0  0  0  0  0  0
   63.3440   33.2740   47.4310 C   0  0  0  0  0  0  0  0  0  0  0  0
   62.3900   32.1220   47.5940 C   0  0  0  0  0  0  0  0  0  0  0  0
   62.4150   31.2640   48.6320 N   0  0  0  0  0  0  0  0  0  0  0  0
   61.3720   30.4620   48.3300 C   0  0  0  0  0  0  0  0  0  0  0  0
   60.9790   29.2710   49.1470 C   0  0  0  0  0  0  0  0  0  0  0  0
   59.5380   28.8470   48.8440 C   0  0  0  0  0  0  0  0  0  0  0  0
   59.4620   28.1000   47.6290 O   0  0  0  0  0  0  0  0  0  0  0  0
   58.7290   28.4690   46.4890 C   0  0  0  0  0  0  0  0  0  0  0  0
   58.4320   27.5690   45.4500 C   0  0  0  0  0  0  0  0  0  0  0  0
   57.6990   27.9930   44.3400 C   0  0  0  0  0  0  0  0  0  0  0  0
   57.2460   29.3140   44.2560 C   0  0  0  0  0  0  0  0  0  0  0  0
   56.3180   29.8190   42.8540 Cl  0  0  0  0  0  0  0  0  0  0  0  0
   57.5190   30.2180   45.2930 C   0  0  0  0  0  0  0  0  0  0  0  0
   57.0550   31.5390   45.1910 O   0  0  0  0  0  0  0  0  0  0  0  0
   57.8030   32.6850   45.4950 C   0  0  0  0  0  0  0  0  0  0  0  0
   58.0870   33.6650   44.5270 C   0  0  0  0  0  0  0  0  0  0  0  0
   58.8400   34.7920   44.8660 C   0  0  0  0  0  0  0  0  0  0  0  0
   59.3290   34.9430   46.1660 C   0  0  0  0  0  0  0  0  0  0  0  0
   59.0830   33.9530   47.1320 C   0  0  0  0  0  0  0  0  0  0  0  0
   59.5840   34.1270   48.5370 C   0  0  0  0  0  0  0  0  0  0  0  0
   59.7780   32.8680   49.1170 O   0  0  0  0  0  0  0  0  0  0  0  0
   58.3150   32.8300   46.7900 C   0  0  0  0  0  0  0  0  0  0  0  0
   58.2850   29.7920   46.3940 C   0  0  0  0  0  0  0  0  0  0  0  0
   60.7690   30.8050   47.1760 N   0  0  0  0  0  0  0  0  0  0  0  0
   61.4260   31.8420   46.7540 O   0  0  0  0  0  0  0  0  0  0  0  0
   63.0263   34.0776   50.6613 H   0  0  0  0  0  0  0  0  0  0  0  0
   62.3852   35.2166   49.4291 H   0  0  0  0  0  0  0  0  0  0  0  0
   61.8533   33.5008   49.4291 H   0  0  0  0  0  0  0  0  0  0  0  0
   64.6676   33.0519   50.4828 H   0  0  0  0  0  0  0  0  0  0  0  0
   64.5880   31.9078   49.1002 H   0  0  0  0  0  0  0  0  0  0  0  0
   65.7999   33.2337   49.1002 H   0  0  0  0  0  0  0  0  0  0  0  0
   62.8360   34.0708   46.8679 H   0  0  0  0  0  0  0  0  0  0  0  0
   64.2290   32.8912   46.9017 H   0  0  0  0  0  0  0  0  0  0  0  0
   61.6560   28.4359   48.9139 H   0  0  0  0  0  0  0  0  0  0  0  0
   61.0485   29.5386   50.2117 H   0  0  0  0  0  0  0  0  0  0  0  0
   59.1660   28.2247   49.6712 H   0  0  0  0  0  0  0  0  0  0  0  0
   58.9250   29.7537   48.7334 H   0  0  0  0  0  0  0  0  0  0  0  0
   58.7786   26.5269   45.5121 H   0  0  0  0  0  0  0  0  0  0  0  0
   57.4766   27.2852   43.5278 H   0  0  0  0  0  0  0  0  0  0  0  0
   57.7148   33.5437   43.4990 H   0  0  0  0  0  0  0  0  0  0  0  0
   59.0482   35.5616   44.1082 H   0  0  0  0  0  0  0  0  0  0  0  0
   59.9080   35.8391   46.4338 H   0  0  0  0  0  0  0  0  0  0  0  0
   60.5372   34.6758   48.5221 H   0  0  0  0  0  0  0  0  0  0  0  0
   58.8466   34.6941   49.1241 H   0  0  0  0  0  0  0  0  0  0  0  0
   60.5010   32.4330   48.5980 H   0  0  0  0  0  0  0  0  0  0  0  0
   58.1133   32.0567   47.5458 H   0  0  0  0  0  0  0  0  0  0  0  0
   58.5377   30.5083   47.1897 H   0  0  0  0  0  0  0  0  0  0  0  0
  1  2  1  0
  2  3  1  0
  2  4  1  0
  4  5  1  0
  5  6  2  0
  6  7  1  0
  7  8  1  0
  8  9  1  0
  9 10  1  0
 10 11  1  0
 11 12  2  0
 12 13  1  0
 13 14  2  0
 14 15  1  0
 14 16  1  0
 16 17  1  0
 17 18  1  0
 18 19  2  0
 19 20  1  0
 20 21  2  0
 21 22  1  0
 22 23  1  0
 23 24  1  0
 22 25  2  0
 16 26  2  0
  7 27  2  0
 27 28  1  0
 28  5  1  0
 26 11  1  0
 25 18  1  0
  1 29  1  0
  1 30  1  0
  1 31  1  0
  3 32  1  0
  3 33  1  0
  3 34  1  0
  4 35  1  0
  4 36  1  0
  8 37  1  0
  8 38  1  0
  9 39  1  0
  9 40  1  0
 12 41  1  0
 13 42  1  0
 19 43  1  0
 20 44  1  0
 21 45  1  0
 23 46  1  0
 23 47  1  0
 24 48  1  0
 25 49  1  0
 26 50  1  0
M  END
>  <UniqueID>  (21) 
18

>  <SMILES>  (21) 
CN(C)Cc1nc(CCOc2ccc(Cl)c(Oc3cccc(CO)c3)c2)no1

>  <Energy>  (21) 
88.14160724258869

>  <Genealogy>  (21) 
CN(C)Cc1nc(CCOc2ccc(Cl)c(Oc3cccc(CO)c3)c2)no1 (3D coordinates assigned)
CN(C)Cc1nc(CCOc2ccc(Cl)c(Oc3cccc(CO)c3)c2)no1 (optimized conformer: 88.14160724258869 kcal/mol)

>  <smiles>  (21) 
CN(C)Cc1nc(CCOc2ccc(Cl)c(Oc3cccc(CO)c3)c2)no1

>  <score_type>  (21) 
oracle

>  <origin>  (21) 
adg

>  <m_score__min__energy>  (21) 
-8.9800000000000004

>  <m_primary>  (21) 
energy

$$$$
21:0
     RDKit          3D

 53 55  0  0  0  0  0  0  0  0999 V2000
   55.2110   26.7070   46.0110 N   0  0  0  0  0  0  0  0  0  0  0  0
   56.8960   27.0270   45.8020 S   0  0  0  0  0  0  0  0  0  0  0  0
   57.6160   26.7970   47.1000 O   0  0  0  0  0  0  0  0  0  0  0  0
   57.4570   26.0940   44.7660 O   0  0  0  0  0  0  0  0  0  0  0  0
   57.1160   28.6940   45.2810 C   0  0  0  0  0  0  0  0  0  0  0  0
   58.2770   29.3920   45.6370 C   0  0  0  0  0  0  0  0  0  0  0  0
   58.4770   30.6990   45.1850 C   0  0  0  0  0  0  0  0  0  0  0  0
   57.5170   31.3250   44.3750 C   0  0  0  0  0  0  0  0  0  0  0  0
   57.7480   32.7240   43.8580 C   0  0  0  0  0  0  0  0  0  0  0  0
   57.3450   33.7950   44.8800 C   0  0  0  0  0  0  0  0  0  0  0  0
   58.2740   33.8110   46.0170 N   0  0  0  0  0  0  0  0  0  0  0  0
   59.6590   33.9250   45.5440 C   0  0  0  0  0  0  0  0  0  0  0  0
   60.6040   33.9550   46.7140 C   0  0  0  0  0  0  0  0  0  0  0  0
   61.9440   33.5740   46.5660 C   0  0  0  0  0  0  0  0  0  0  0  0
   62.7970   33.5720   47.6700 C   0  0  0  0  0  0  0  0  0  0  0  0
   62.2940   33.9280   48.9280 C   0  0  0  0  0  0  0  0  0  0  0  0
   63.1640   33.8500   50.1520 C   0  0  0  0  0  0  0  0  0  0  0  0
   62.5720   33.0440   51.1590 O   0  0  0  0  0  0  0  0  0  0  0  0
   62.5840   31.6700   50.8080 C   0  0  0  0  0  0  0  0  0  0  0  0
   61.3020   31.2870   50.1160 C   0  0  0  0  0  0  0  0  0  0  0  0
   60.0630   31.7180   50.6200 C   0  0  0  0  0  0  0  0  0  0  0  0
   58.8840   31.4380   49.9220 C   0  0  0  0  0  0  0  0  0  0  0  0
   58.9330   30.7200   48.7240 C   0  0  0  0  0  0  0  0  0  0  0  0
   60.1590   30.2710   48.2280 C   0  0  0  0  0  0  0  0  0  0  0  0
   61.3400   30.5510   48.9200 C   0  0  0  0  0  0  0  0  0  0  0  0
   60.9910   34.3020   49.0510 N   0  0  0  0  0  0  0  0  0  0  0  0
   60.1460   34.3280   47.9860 C   0  0  0  0  0  0  0  0  0  0  0  0
   56.3520   30.6240   44.0240 C   0  0  0  0  0  0  0  0  0  0  0  0
   56.1560   29.3140   44.4710 C   0  0  0  0  0  0  0  0  0  0  0  0
   54.7780   26.7170   45.0600 H   0  0  0  0  0  0  0  0  0  0  0  0
   59.0333   28.9101   46.2740 H   0  0  0  0  0  0  0  0  0  0  0  0
   59.3924   31.2405   45.4658 H   0  0  0  0  0  0  0  0  0  0  0  0
   58.8161   32.8428   43.6233 H   0  0  0  0  0  0  0  0  0  0  0  0
   57.1231   32.8601   42.9630 H   0  0  0  0  0  0  0  0  0  0  0  0
   57.3563   34.7807   44.3919 H   0  0  0  0  0  0  0  0  0  0  0  0
   56.3368   33.5624   45.2535 H   0  0  0  0  0  0  0  0  0  0  0  0
   58.1820   32.8920   46.5130 H   0  0  0  0  0  0  0  0  0  0  0  0
   59.8977   33.0616   44.9056 H   0  0  0  0  0  0  0  0  0  0  0  0
   59.7677   34.8567   44.9694 H   0  0  0  0  0  0  0  0  0  0  0  0
   62.3242   33.2759   45.5778 H   0  0  0  0  0  0  0  0  0  0  0  0
   63.8548   33.2934   47.5537 H   0  0  0  0  0  0  0  0  0  0  0  0
   64.1360   33.4172   49.8729 H   0  0  0  0  0  0  0  0  0  0  0  0
   63.2893   34.8668   50.5524 H   0  0  0  0  0  0  0  0  0  0  0  0
   63.4306   31.4770   50.1327 H   0  0  0  0  0  0  0  0  0  0  0  0
   62.6838   31.0711   51.7253 H   0  0  0  0  0  0  0  0  0  0  0  0
   60.0204   32.2772   51.5663 H   0  0  0  0  0  0  0  0  0  0  0  0
   57.9169   31.7833   50.3164 H   0  0  0  0  0  0  0  0  0  0  0  0
   58.0056   30.5084   48.1715 H   0  0  0  0  0  0  0  0  0  0  0  0
   60.1948   29.6960   47.2910 H   0  0  0  0  0  0  0  0  0  0  0  0
   62.3032   30.1938   48.5268 H   0  0  0  0  0  0  0  0  0  0  0  0
   59.1007   34.6423   48.1224 H   0  0  0  0  0  0  0  0  0  0  0  0
   55.5904   31.1077   43.3947 H   0  0  0  0  0  0  0  0  0  0  0  0
   55.2446   28.7681   44.1856 H   0  0  0  0  0  0  0  0  0  0  0  0
  1  2  1  0
  2  3  2  0
  2  4  2  0
  2  5  1  0
  5  6  2  0
  6  7  1  0
  7  8  2  0
  8  9  1  0
  9 10  1  0
 10 11  1  0
 11 12  1  0
 12 13  1  0
 13 14  2  0
 14 15  1  0
 15 16  2  0
 16 17  1  0
 17 18  1  0
 18 19  1  0
 19 20  1  0
 20 21  2  0
 21 22  1  0
 22 23  2  0
 23 24  1  0
 24 25  2  0
 16 26  1  0
 26 27  2  0
  8 28  1  0
 28 29  2  0
 29  5  1  0
 27 13  1  0
 25 20  1  0
  1 30  1  0
  6 31  1  0
  7 32  1  0
  9 33  1  0
  9 34  1  0
 10 35  1  0
 10 36  1  0
 11 37  1  0
 12 38  1  0
 12 39  1  0
 14 40  1  0
 15 41  1  0
 17 42  1  0
 17 43  1  0
 19 44  1  0
 19 45  1  0
 21 46  1  0
 22 47  1  0
 23 48  1  0
 24 49  1  0
 25 50  1  0
 27 51  1  0
 28 52  1  0
 29 53  1  0
M  CHG  1   1  -1
M  END
>  <UniqueID>  (22) 
19

>  <SMILES>  (22) 
[NH-]S(=O)(=O)c1ccc(CCNCc2ccc(COCc3ccccc3)nc2)cc1

>  <Energy>  (22) 
47.71373268323675

>  <Genealogy>  (22) 
[NH-]S(=O)(=O)c1ccc(CCNCc2ccc(COCc3ccccc3)nc2)cc1 (protonated)
[NH-]S(=O)(=O)c1ccc(CCNCc2ccc(COCc3ccccc3)nc2)cc1 (3D coordinates assigned)
[NH-]S(=O)(=O)c1ccc(CCNCc2ccc(COCc3ccccc3)nc2)cc1 (optimized conformer: 47.71373268323675 kcal/mol)

>  <smiles>  (22) 
NS(=O)(=O)c1ccc(CCNCc2ccc(COCc3ccccc3)nc2)cc1

>  <score_type>  (22) 
oracle

>  <origin>  (22) 
adg

>  <m_score__min__energy>  (22) 
-11.25

>  <m_primary>  (22) 
energy

$$$$
22:0
     RDKit          3D

 56 59  0  0  0  0  0  0  0  0999 V2000
   56.7520   24.6100   47.6420 C   0  0  0  0  0  0  0  0  0  0  0  0
   56.0390   25.4370   46.7260 O   0  0  0  0  0  0  0  0  0  0  0  0
   56.6400   26.2060   45.7150 C   0  0  0  0  0  0  0  0  0  0  0  0
   56.4360   27.5990   45.6180 C   0  0  0  0  0  0  0  0  0  0  0  0
   57.1010   28.3490   44.6350 C   0  0  0  0  0  0  0  0  0  0  0  0
   56.9950   30.1100   44.6690 S   0  0  0  0  0  0  0  0  0  0  0  0
   57.8100   30.7000   43.5480 O   0  0  0  0  0  0  0  0  0  0  0  0
   55.5580   30.5120   44.4890 O   0  0  0  0  0  0  0  0  0  0  0  0
   57.5740   30.7290   46.1850 N   0  0  0  0  0  0  0  0  0  0  0  0
   58.5720   31.7500   46.2700 C   0  0  0  0  0  0  0  0  0  0  0  0
   58.3870   33.0930   45.9870 C   0  0  0  0  0  0  0  0  0  0  0  0
   57.1750   33.7050   45.3450 C   0  0  0  0  0  0  0  0  0  0  0  0
   59.4820   33.7760   46.4030 N   0  0  0  0  0  0  0  0  0  0  0  0
   59.6770   35.2240   46.2710 C   0  0  0  0  0  0  0  0  0  0  0  0
   60.3340   32.9190   46.9750 N   0  0  0  0  0  0  0  0  0  0  0  0
   61.5310   33.2600   47.7050 C   0  0  0  0  0  0  0  0  0  0  0  0
   62.7910   32.8940   47.2060 C   0  0  0  0  0  0  0  0  0  0  0  0
   63.9510   33.1780   47.9390 C   0  0  0  0  0  0  0  0  0  0  0  0
   63.8620   33.8260   49.1780 C   0  0  0  0  0  0  0  0  0  0  0  0
   62.6130   34.1810   49.6900 C   0  0  0  0  0  0  0  0  0  0  0  0
   61.4500   33.8880   48.9630 C   0  0  0  0  0  0  0  0  0  0  0  0
   59.8040   31.6800   46.8830 C   0  0  0  0  0  0  0  0  0  0  0  0
   60.3550   30.6330   47.3200 O   0  0  0  0  0  0  0  0  0  0  0  0
   57.9280   27.7000   43.7050 C   0  0  0  0  0  0  0  0  0  0  0  0
   58.1200   26.3170   43.7800 C   0  0  0  0  0  0  0  0  0  0  0  0
   57.4930   25.5680   44.7910 C   0  0  0  0  0  0  0  0  0  0  0  0
   57.7060   24.1500   44.8680 N   0  0  0  0  0  0  0  0  0  0  0  0
   58.9450   23.5400   45.3370 C   0  0  0  0  0  0  0  0  0  0  0  0
   59.1300   22.1810   44.6180 C   0  0  0  0  0  0  0  0  0  0  0  0
   57.7710   21.6300   44.1570 C   0  0  0  0  0  0  0  0  0  0  0  0
   56.7160   23.0380   44.0290 S   0  0  0  0  0  0  0  0  0  0  0  0
   55.4050   22.8150   44.7310 O   0  0  0  0  0  0  0  0  0  0  0  0
   56.5150   23.4530   42.6000 O   0  0  0  0  0  0  0  0  0  0  0  0
   56.5002   24.9021   48.6722 H   0  0  0  0  0  0  0  0  0  0  0  0
   56.4728   23.5584   47.4804 H   0  0  0  0  0  0  0  0  0  0  0  0
   57.8333   24.7313   47.4804 H   0  0  0  0  0  0  0  0  0  0  0  0
   55.7512   28.1007   46.3175 H   0  0  0  0  0  0  0  0  0  0  0  0
   56.4834   34.0542   46.1258 H   0  0  0  0  0  0  0  0  0  0  0  0
   57.4818   34.5562   44.7195 H   0  0  0  0  0  0  0  0  0  0  0  0
   56.6721   32.9528   44.7195 H   0  0  0  0  0  0  0  0  0  0  0  0
   59.7382   35.6784   47.2709 H   0  0  0  0  0  0  0  0  0  0  0  0
   60.6096   35.4198   45.7216 H   0  0  0  0  0  0  0  0  0  0  0  0
   58.8294   35.6595   45.7216 H   0  0  0  0  0  0  0  0  0  0  0  0
   62.8681   32.3821   46.2354 H   0  0  0  0  0  0  0  0  0  0  0  0
   64.9352   32.8911   47.5401 H   0  0  0  0  0  0  0  0  0  0  0  0
   64.7754   34.0547   49.7466 H   0  0  0  0  0  0  0  0  0  0  0  0
   62.5409   34.6900   50.6625 H   0  0  0  0  0  0  0  0  0  0  0  0
   60.4662   34.1509   49.3789 H   0  0  0  0  0  0  0  0  0  0  0  0
   58.4264   28.2809   42.9150 H   0  0  0  0  0  0  0  0  0  0  0  0
   58.7644   25.8129   43.0447 H   0  0  0  0  0  0  0  0  0  0  0  0
   59.7938   24.2002   45.1055 H   0  0  0  0  0  0  0  0  0  0  0  0
   58.8995   23.3861   46.4252 H   0  0  0  0  0  0  0  0  0  0  0  0
   59.7809   22.3198   43.7422 H   0  0  0  0  0  0  0  0  0  0  0  0
   59.5864   21.4658   45.3182 H   0  0  0  0  0  0  0  0  0  0  0  0
   57.8684   21.1317   43.1812 H   0  0  0  0  0  0  0  0  0  0  0  0
   57.3728   20.8820   44.8584 H   0  0  0  0  0  0  0  0  0  0  0  0
  1  2  1  0
  2  3  1  0
  3  4  2  0
  4  5  1  0
  5  6  1  0
  6  7  2  0
  6  8  2  0
  6  9  1  0
  9 10  1  0
 10 11  2  0
 11 12  1  0
 11 13  1  0
 13 14  1  0
 13 15  1  0
 15 16  1  0
 16 17  2  0
 17 18  1  0
 18 19  2  0
 19 20  1  0
 20 21  2  0
 15 22  1  0
 22 23  2  0
  5 24  2  0
 24 25  1  0
 25 26  2  0
 26 27  1  0
 27 28  1  0
 28 29  1  0
 29 30  1  0
 30 31  1  0
 31 32  2  0
 31 33  2  0
 26  3  1  0
 31 27  1  0
 22 10  1  0
 21 16  1  0
  1 34  1  0
  1 35  1  0
  1 36  1  0
  4 37  1  0
 12 38  1  0
 12 39  1  0
 12 40  1  0
 14 41  1  0
 14 42  1  0
 14 43  1  0
 17 44  1  0
 18 45  1  0
 19 46  1  0
 20 47  1  0
 21 48  1  0
 24 49  1  0
 25 50  1  0
 28 51  1  0
 28 52  1  0
 29 53  1  0
 29 54  1  0
 30 55  1  0
 30 56  1  0
M  CHG  1   9  -1
M  END
>  <UniqueID>  (23) 
20

>  <SMILES>  (23) 
COc1cc(S(=O)(=O)[N-]c2c(C)n(C)n(-c3ccccc3)c2=O)ccc1N1CCCS1(=O)=O

>  <Energy>  (23) 
115.81719215841379

>  <Genealogy>  (23) 
COc1cc(S(=O)(=O)[N-]c2c(C)n(C)n(-c3ccccc3)c2=O)ccc1N1CCCS1(=O)=O (protonated)
COc1cc(S(=O)(=O)[N-]c2c(C)n(C)n(-c3ccccc3)c2=O)ccc1N1CCCS1(=O)=O (3D coordinates assigned)
COc1cc(S(=O)(=O)[N-]c2c(C)n(C)n(-c3ccccc3)c2=O)ccc1N1CCCS1(=O)=O (nonaromatic ring conformer: 115.81719215841379 kcal/mol)

>  <smiles>  (23) 
COc1cc(S(=O)(=O)Nc2c(C)n(C)n(-c3ccccc3)c2=O)ccc1N1CCCS1(=O)=O

>  <score_type>  (23) 
oracle

>  <origin>  (23) 
adg

>  <m_score__min__energy>  (23) 
-11.51

>  <m_primary>  (23) 
energy

$$$$
23:0
     RDKit          3D

 41 42  0  0  0  0  0  0  0  0999 V2000
   57.4300   33.5040   44.8640 C   0  0  0  0  0  0  0  0  0  0  0  0
   56.7540   32.2240   45.0910 N   0  0  0  0  0  0  0  0  0  0  0  0
   57.3830   31.1300   44.3360 C   0  0  0  0  0  0  0  0  0  0  0  0
   57.7560   29.9620   45.2260 C   0  0  0  0  0  0  0  0  0  0  0  0
   57.3900   28.6610   44.8420 C   0  0  0  0  0  0  0  0  0  0  0  0
   57.6860   27.5570   45.6610 C   0  0  0  0  0  0  0  0  0  0  0  0
   57.3180   26.2160   45.2930 N   0  0  0  0  0  0  0  0  0  0  0  0
   55.9330   25.3760   45.9180 S   0  0  0  0  0  0  0  0  0  0  0  0
   55.4890   24.0320   44.8370 C   0  0  0  0  0  0  0  0  0  0  0  0
   56.2210   24.8630   47.3010 O   0  0  0  0  0  0  0  0  0  0  0  0
   54.7760   26.3330   45.9880 O   0  0  0  0  0  0  0  0  0  0  0  0
   58.3760   27.7700   46.8620 C   0  0  0  0  0  0  0  0  0  0  0  0
   58.7390   29.0580   47.2560 C   0  0  0  0  0  0  0  0  0  0  0  0
   58.4150   30.1650   46.4550 C   0  0  0  0  0  0  0  0  0  0  0  0
   58.7760   31.4660   46.8430 O   0  0  0  0  0  0  0  0  0  0  0  0
   60.0890   31.9440   46.9560 C   0  0  0  0  0  0  0  0  0  0  0  0
   61.0940   31.0570   47.3580 C   0  0  0  0  0  0  0  0  0  0  0  0
   62.4180   31.4910   47.4670 C   0  0  0  0  0  0  0  0  0  0  0  0
   62.7540   32.8170   47.1620 C   0  0  0  0  0  0  0  0  0  0  0  0
   64.1090   33.2610   47.2720 N   0  0  0  0  0  0  0  0  0  0  0  0
   61.7540   33.7040   46.7410 C   0  0  0  0  0  0  0  0  0  0  0  0
   60.4280   33.2700   46.6340 C   0  0  0  0  0  0  0  0  0  0  0  0
   57.6742   33.9664   45.8318 H   0  0  0  0  0  0  0  0  0  0  0  0
   58.3558   33.3338   44.2949 H   0  0  0  0  0  0  0  0  0  0  0  0
   56.7675   34.1727   44.2949 H   0  0  0  0  0  0  0  0  0  0  0  0
   56.7870   32.0070   46.1150 H   0  0  0  0  0  0  0  0  0  0  0  0
   56.6786   30.7791   43.5674 H   0  0  0  0  0  0  0  0  0  0  0  0
   58.3072   31.5191   43.8838 H   0  0  0  0  0  0  0  0  0  0  0  0
   56.8650   28.5040   43.8882 H   0  0  0  0  0  0  0  0  0  0  0  0
   57.9700   25.6620   44.6920 H   0  0  0  0  0  0  0  0  0  0  0  0
   55.2001   23.1576   45.4387 H   0  0  0  0  0  0  0  0  0  0  0  0
   54.6435   24.3359   44.2023 H   0  0  0  0  0  0  0  0  0  0  0  0
   56.3491   23.7724   44.2023 H   0  0  0  0  0  0  0  0  0  0  0  0
   58.6341   26.9125   47.5008 H   0  0  0  0  0  0  0  0  0  0  0  0
   59.2827   29.2075   48.2005 H   0  0  0  0  0  0  0  0  0  0  0  0
   60.8404   30.0120   47.5896 H   0  0  0  0  0  0  0  0  0  0  0  0
   63.1995   30.7891   47.7935 H   0  0  0  0  0  0  0  0  0  0  0  0
   64.8750   32.7720   46.7560 H   0  0  0  0  0  0  0  0  0  0  0  0
   64.3570   34.0810   47.8700 H   0  0  0  0  0  0  0  0  0  0  0  0
   62.0122   34.7443   46.4940 H   0  0  0  0  0  0  0  0  0  0  0  0
   59.6481   33.9687   46.2968 H   0  0  0  0  0  0  0  0  0  0  0  0
  1  2  1  0
  2  3  1  0
  3  4  1  0
  4  5  2  0
  5  6  1  0
  6  7  1  0
  7  8  1  0
  8  9  1  0
  8 10  2  0
  8 11  2  0
  6 12  2  0
 12 13  1  0
 13 14  2  0
 14 15  1  0
 15 16  1  0
 16 17  2  0
 17 18  1  0
 18 19  2  0
 19 20  1  0
 19 21  1  0
 21 22  2  0
 14  4  1  0
 22 16  1  0
  1 23  1  0
  1 24  1  0
  1 25  1  0
  2 26  1  0
  3 27  1  0
  3 28  1  0
  5 29  1  0
  7 30  1  0
  9 31  1  0
  9 32  1  0
  9 33  1  0
 12 34  1  0
 13 35  1  0
 17 36  1  0
 18 37  1  0
 20 38  1  0
 20 39  1  0
 21 40  1  0
 22 41  1  0
M  END
>  <UniqueID>  (24) 
21

>  <SMILES>  (24) 
CNCc1cc(NS(C)(=O)=O)ccc1Oc1ccc(N)cc1

>  <Energy>  (24) 
43.90377884727006

>  <Genealogy>  (24) 
CNCc1cc(NS(C)(=O)=O)ccc1Oc1ccc(N)cc1 (3D coordinates assigned)
CNCc1cc(NS(C)(=O)=O)ccc1Oc1ccc(N)cc1 (optimized conformer: 43.90377884727006 kcal/mol)

>  <smiles>  (24) 
CNCc1cc(NS(C)(=O)=O)ccc1Oc1ccc(N)cc1

>  <score_type>  (24) 
oracle

>  <origin>  (24) 
adg

>  <m_score__min__energy>  (24) 
-7.0899999999999999

>  <m_primary>  (24) 
energy

$$$$
24:0
     RDKit          3D

 60 63  0  0  0  0  0  0  0  0999 V2000
   66.2870   32.4170   50.1840 C   0  0  0  0  0  0  0  0  0  0  0  0
   65.4950   33.3110   49.4070 O   0  0  0  0  0  0  0  0  0  0  0  0
   64.2450   32.9840   48.8650 C   0  0  0  0  0  0  0  0  0  0  0  0
   63.8080   33.4730   47.6190 C   0  0  0  0  0  0  0  0  0  0  0  0
   62.5450   33.1320   47.1310 C   0  0  0  0  0  0  0  0  0  0  0  0
   61.7080   32.2790   47.8650 C   0  0  0  0  0  0  0  0  0  0  0  0
   60.3970   31.9800   47.3660 N   0  0  0  0  0  0  0  0  0  0  0  0
   59.4780   30.5860   47.8390 S   0  0  0  0  0  0  0  0  0  0  0  0
   60.4460   29.5230   48.2680 O   0  0  0  0  0  0  0  0  0  0  0  0
   58.5760   30.8880   48.9980 O   0  0  0  0  0  0  0  0  0  0  0  0
   58.5080   30.0100   46.4730 C   0  0  0  0  0  0  0  0  0  0  0  0
   58.2990   28.6250   46.3130 C   0  0  0  0  0  0  0  0  0  0  0  0
   57.5340   28.1350   45.2400 C   0  0  0  0  0  0  0  0  0  0  0  0
   57.2470   26.7420   45.0620 N   0  0  0  0  0  0  0  0  0  0  0  0
   56.1940   25.9550   45.6380 C   0  0  0  0  0  0  0  0  0  0  0  0
   55.1530   26.5100   46.1010 O   0  0  0  0  0  0  0  0  0  0  0  0
   56.3690   24.4850   45.7510 C   0  0  0  0  0  0  0  0  0  0  0  0
   56.1320   23.8330   46.9770 C   0  0  0  0  0  0  0  0  0  0  0  0
   56.2620   22.4490   47.0780 C   0  0  0  0  0  0  0  0  0  0  0  0
   56.6260   21.6950   45.9620 C   0  0  0  0  0  0  0  0  0  0  0  0
   56.8540   22.3230   44.7300 C   0  0  0  0  0  0  0  0  0  0  0  0
   57.2740   21.5160   43.5380 C   0  0  0  0  0  0  0  0  0  0  0  0
   56.7430   23.7160   44.6340 C   0  0  0  0  0  0  0  0  0  0  0  0
   56.9620   29.0360   44.3420 C   0  0  0  0  0  0  0  0  0  0  0  0
   57.1600   30.4040   44.4870 C   0  0  0  0  0  0  0  0  0  0  0  0
   57.9250   30.9060   45.5460 C   0  0  0  0  0  0  0  0  0  0  0  0
   58.0470   32.3310   45.6770 N   0  0  0  0  0  0  0  0  0  0  0  0
   58.8760   33.0140   44.6690 C   0  0  0  0  0  0  0  0  0  0  0  0
   59.2510   34.4550   45.0690 C   0  0  0  0  0  0  0  0  0  0  0  0
   59.4470   34.5630   46.4590 O   0  0  0  0  0  0  0  0  0  0  0  0
   58.2070   34.3680   47.1080 C   0  0  0  0  0  0  0  0  0  0  0  0
   57.7750   32.9040   47.0050 C   0  0  0  0  0  0  0  0  0  0  0  0
   62.1450   31.7960   49.1070 C   0  0  0  0  0  0  0  0  0  0  0  0
   63.4030   32.1460   49.6000 C   0  0  0  0  0  0  0  0  0  0  0  0
   66.1158   32.6103   51.2533 H   0  0  0  0  0  0  0  0  0  0  0  0
   66.0060   31.3797   49.9493 H   0  0  0  0  0  0  0  0  0  0  0  0
   67.3506   32.5709   49.9493 H   0  0  0  0  0  0  0  0  0  0  0  0
   64.4650   34.1271   47.0270 H   0  0  0  0  0  0  0  0  0  0  0  0
   62.2046   33.5346   46.1656 H   0  0  0  0  0  0  0  0  0  0  0  0
   60.0910   32.4470   46.4820 H   0  0  0  0  0  0  0  0  0  0  0  0
   58.7387   27.9209   47.0347 H   0  0  0  0  0  0  0  0  0  0  0  0
   55.8423   24.4203   47.8608 H   0  0  0  0  0  0  0  0  0  0  0  0
   56.0770   21.9497   48.0405 H   0  0  0  0  0  0  0  0  0  0  0  0
   56.7344   20.6038   46.0494 H   0  0  0  0  0  0  0  0  0  0  0  0
   57.7573   20.5874   43.8757 H   0  0  0  0  0  0  0  0  0  0  0  0
   56.3897   21.2697   42.9319 H   0  0  0  0  0  0  0  0  0  0  0  0
   57.9831   22.0990   42.9319 H   0  0  0  0  0  0  0  0  0  0  0  0
   56.9504   24.2138   43.6753 H   0  0  0  0  0  0  0  0  0  0  0  0
   56.3479   28.6600   43.5105 H   0  0  0  0  0  0  0  0  0  0  0  0
   56.7110   31.0990   43.7622 H   0  0  0  0  0  0  0  0  0  0  0  0
   59.8022   32.4375   44.5287 H   0  0  0  0  0  0  0  0  0  0  0  0
   58.2838   33.0743   43.7439 H   0  0  0  0  0  0  0  0  0  0  0  0
   60.1792   34.7407   44.5525 H   0  0  0  0  0  0  0  0  0  0  0  0
   58.4255   35.1225   44.7808 H   0  0  0  0  0  0  0  0  0  0  0  0
   58.3059   34.6429   48.1685 H   0  0  0  0  0  0  0  0  0  0  0  0
   57.4476   34.9989   46.6230 H   0  0  0  0  0  0  0  0  0  0  0  0
   58.3217   32.3204   47.7603 H   0  0  0  0  0  0  0  0  0  0  0  0
   56.6886   32.8623   47.1722 H   0  0  0  0  0  0  0  0  0  0  0  0
   61.4915   31.1365   49.6969 H   0  0  0  0  0  0  0  0  0  0  0  0
   63.7340   31.7589   50.5750 H   0  0  0  0  0  0  0  0  0  0  0  0
  1  2  1  0
  2  3  1  0
  3  4  2  0
  4  5  1  0
  5  6  2  0
  6  7  1  0
  7  8  1  0
  8  9  2  0
  8 10  2  0
  8 11  1  0
 11 12  2  0
 12 13  1  0
 13 14  1  0
 14 15  1  0
 15 16  2  0
 15 17  1  0
 17 18  2  0
 18 19  1  0
 19 20  2  0
 20 21  1  0
 21 22  1  0
 21 23  2  0
 13 24  2  0
 24 25  1  0
 25 26  2  0
 26 27  1  0
 27 28  1  0
 28 29  1  0
 29 30  1  0
 30 31  1  0
 31 32  1  0
  6 33  1  0
 33 34  2  0
 34  3  1  0
 26 11  1  0
 32 27  1  0
 23 17  1  0
  1 35  1  0
  1 36  1  0
  1 37  1  0
  4 38  1  0
  5 39  1  0
  7 40  1  0
 12 41  1  0
 18 42  1  0
 19 43  1  0
 20 44  1  0
 22 45  1  0
 22 46  1  0
 22 47  1  0
 23 48  1  0
 24 49  1  0
 25 50  1  0
 28 51  1  0
 28 52  1  0
 29 53  1  0
 29 54  1  0
 31 55  1  0
 31 56  1  0
 32 57  1  0
 32 58  1  0
 33 59  1  0
 34 60  1  0
M  CHG  1  14  -1
M  END
>  <UniqueID>  (25) 
22

>  <SMILES>  (25) 
COc1ccc(NS(=O)(=O)c2cc([N-]C(=O)c3cccc(C)c3)ccc2N2CCOCC2)cc1

>  <Energy>  (25) 
82.09021565954073

>  <Genealogy>  (25) 
COc1ccc(NS(=O)(=O)c2cc([N-]C(=O)c3cccc(C)c3)ccc2N2CCOCC2)cc1 (protonated)
COc1ccc(NS(=O)(=O)c2cc([N-]C(=O)c3cccc(C)c3)ccc2N2CCOCC2)cc1 (3D coordinates assigned)
COc1ccc(NS(=O)(=O)c2cc([N-]C(=O)c3cccc(C)c3)ccc2N2CCOCC2)cc1 (nonaromatic ring conformer: 82.09021565954073 kcal/mol)

>  <smiles>  (25) 
COc1ccc(NS(=O)(=O)c2cc(NC(=O)c3cccc(C)c3)ccc2N2CCOCC2)cc1

>  <score_type>  (25) 
oracle

>  <origin>  (25) 
adg

>  <m_score__min__energy>  (25) 
-10.26

>  <m_primary>  (25) 
energy

$$$$
25:0
     RDKit          3D

 47 49  0  0  0  0  0  0  0  0999 V2000
   60.9390   30.8080   47.7380 C   0  0  0  0  0  0  0  0  0  0  0  0
   60.3080   29.6360   48.4360 C   0  0  0  0  0  0  0  0  0  0  0  0
   60.4200   28.5020   47.6390 O   0  0  0  0  0  0  0  0  0  0  0  0
   59.3960   27.6450   47.3150 C   0  0  0  0  0  0  0  0  0  0  0  0
   59.2080   26.3930   47.8430 C   0  0  0  0  0  0  0  0  0  0  0  0
   58.1460   25.5790   47.4670 C   0  0  0  0  0  0  0  0  0  0  0  0
   57.2220   26.0000   46.5340 C   0  0  0  0  0  0  0  0  0  0  0  0
   55.8750   25.0210   46.0260 S   0  0  0  0  0  0  0  0  0  0  0  0
   54.6910   25.9720   45.8750 O   0  0  0  0  0  0  0  0  0  0  0  0
   55.4180   24.0720   47.1230 O   0  0  0  0  0  0  0  0  0  0  0  0
   56.0670   24.2750   44.5160 N   0  0  0  0  0  0  0  0  0  0  0  0
   57.3900   24.2510   43.9960 C   0  0  0  0  0  0  0  0  0  0  0  0
   58.4220   23.6170   44.8920 C   0  0  0  0  0  0  0  0  0  0  0  0
   57.6550   22.1130   45.5680 S   0  0  0  0  0  0  0  0  0  0  0  0
   56.2020   21.8140   44.5070 C   0  0  0  0  0  0  0  0  0  0  0  0
   55.3400   23.0530   44.4620 C   0  0  0  0  0  0  0  0  0  0  0  0
   57.4150   27.2640   46.0020 C   0  0  0  0  0  0  0  0  0  0  0  0
   58.4650   28.0810   46.3680 C   0  0  0  0  0  0  0  0  0  0  0  0
   58.6130   29.3680   45.7900 N   0  0  0  0  0  0  0  0  0  0  0  0
   57.5310   30.1180   45.2540 C   0  0  0  0  0  0  0  0  0  0  0  0
   56.3420   29.7140   45.2390 O   0  0  0  0  0  0  0  0  0  0  0  0
   57.8150   31.4370   44.6850 C   0  0  0  0  0  0  0  0  0  0  0  0
   57.8030   32.6540   45.3380 C   0  0  0  0  0  0  0  0  0  0  0  0
   58.1270   33.6590   44.4410 C   0  0  0  0  0  0  0  0  0  0  0  0
   58.2090   34.9010   44.6980 O   0  0  0  0  0  0  0  0  0  0  0  0
   58.3270   33.0320   43.2670 N   0  0  0  0  0  0  0  0  0  0  0  0
   58.1450   31.7260   43.4080 N   0  0  0  0  0  0  0  0  0  0  0  0
   61.3213   31.5180   48.4862 H   0  0  0  0  0  0  0  0  0  0  0  0
   61.7696   30.4561   47.1085 H   0  0  0  0  0  0  0  0  0  0  0  0
   60.1880   31.3077   47.1085 H   0  0  0  0  0  0  0  0  0  0  0  0
   60.8196   29.4619   49.3941 H   0  0  0  0  0  0  0  0  0  0  0  0
   59.2447   29.8497   48.6194 H   0  0  0  0  0  0  0  0  0  0  0  0
   59.9233   26.0199   48.5907 H   0  0  0  0  0  0  0  0  0  0  0  0
   58.0409   24.5826   47.9211 H   0  0  0  0  0  0  0  0  0  0  0  0
   57.3728   23.6921   43.0487 H   0  0  0  0  0  0  0  0  0  0  0  0
   57.6912   25.3027   43.8815 H   0  0  0  0  0  0  0  0  0  0  0  0
   59.3216   23.3591   44.3140 H   0  0  0  0  0  0  0  0  0  0  0  0
   58.7315   24.3034   45.6939 H   0  0  0  0  0  0  0  0  0  0  0  0
   56.5375   21.5650   43.4894 H   0  0  0  0  0  0  0  0  0  0  0  0
   55.6168   20.9783   44.9183 H   0  0  0  0  0  0  0  0  0  0  0  0
   54.7625   23.0369   43.5260 H   0  0  0  0  0  0  0  0  0  0  0  0
   54.7029   23.0259   45.3583 H   0  0  0  0  0  0  0  0  0  0  0  0
   56.6986   27.6335   45.2535 H   0  0  0  0  0  0  0  0  0  0  0  0
   59.5750   29.7710   45.7660 H   0  0  0  0  0  0  0  0  0  0  0  0
   57.5724   32.8021   46.4033 H   0  0  0  0  0  0  0  0  0  0  0  0
   58.5890   33.5370   42.3900 H   0  0  0  0  0  0  0  0  0  0  0  0
   58.2470   31.0370   42.6250 H   0  0  0  0  0  0  0  0  0  0  0  0
  1  2  1  0
  2  3  1  0
  3  4  1  0
  4  5  2  0
  5  6  1  0
  6  7  2  0
  7  8  1  0
  8  9  2  0
  8 10  2  0
  8 11  1  0
 11 12  1  0
 12 13  1  0
 13 14  1  0
 14 15  1  0
 15 16  1  0
  7 17  1  0
 17 18  2  0
 18 19  1  0
 19 20  1  0
 20 21  2  0
 20 22  1  0
 22 23  2  0
 23 24  1  0
 24 25  2  0
 24 26  1  0
 26 27  1  0
 18  4  1  0
 27 22  1  0
 16 11  1  0
  1 28  1  0
  1 29  1  0
  1 30  1  0
  2 31  1  0
  2 32  1  0
  5 33  1  0
  6 34  1  0
 12 35  1  0
 12 36  1  0
 13 37  1  0
 13 38  1  0
 15 39  1  0
 15 40  1  0
 16 41  1  0
 16 42  1  0
 17 43  1  0
 19 44  1  0
 23 45  1  0
 26 46  1  0
 27 47  1  0
M  END
>  <smiles>  (26) 
CCOc1ccc(S(=O)(=O)N2CCSCC2)cc1NC(=O)c1cc(=O)[nH][nH]1

>  <score_type>  (26) 
oracle

>  <origin>  (26) 
adg

>  <m_score__min__energy>  (26) 
-7.8099999999999996

>  <m_primary>  (26) 
energy

$$$$
26:0
     RDKit          3D

 56 60  0  0  1  0  0  0  0  0999 V2000
   59.9940   24.7460   45.9940 C   0  0  0  0  0  0  0  0  0  0  0  0
   59.2160   26.0330   46.1880 C   0  0  0  0  0  0  0  0  0  0  0  0
   59.8050   27.2020   46.5180 C   0  0  0  0  0  0  0  0  0  0  0  0
   59.0540   28.2980   46.6740 C   0  0  0  0  0  0  0  0  0  0  0  0
   59.4200   29.6670   47.0230 C   0  0  0  0  0  0  0  0  0  0  0  0
   60.4220   29.9060   47.9380 C   0  0  0  0  0  0  0  0  0  0  0  0
   60.6920   31.2540   48.2000 C   0  0  0  0  0  0  0  0  0  0  0  0
   61.6230   31.5080   49.0490 N   0  0  0  0  0  0  0  0  0  0  0  0
   62.9880   31.7950   48.6780 C   0  0  0  0  0  0  0  0  0  0  0  0
   63.2090   33.2530   48.2630 C   0  0  0  0  0  0  0  0  0  0  0  0
   63.2200   32.1840   47.2350 C   0  0  0  0  0  0  0  0  0  0  0  0
   59.9880   32.2300   47.5700 N   0  0  0  0  0  0  0  0  0  0  0  0
   60.1230   33.5430   47.7090 N   0  0  0  0  0  0  0  0  0  0  0  0
   59.2180   34.1430   46.8910 C   0  0  0  0  0  0  0  0  0  0  0  0
   58.5070   33.1620   46.2330 C   0  0  0  0  0  0  0  0  0  0  0  0
   57.5330   33.2640   45.3480 C   0  0  0  0  0  0  0  0  0  0  0  0
   57.5180   32.5770   44.0740 C   0  0  0  0  0  0  0  0  0  0  0  0
   58.0490   32.9610   42.8880 N   0  0  0  0  0  0  0  0  0  0  0  0
   57.7910   31.9990   41.9660 C   0  0  0  0  0  0  0  0  0  0  0  0
   58.1080   31.9650   40.7500 O   0  0  0  0  0  0  0  0  0  0  0  0
   57.0950   31.0190   42.5940 N   0  0  0  0  0  0  0  0  0  0  0  0
   56.9110   31.3430   43.8900 C   0  0  0  0  0  0  0  0  0  0  0  0
   56.2470   30.5950   44.8560 O   0  0  0  0  0  0  0  0  0  0  0  0
   59.0150   31.9610   46.6810 C   0  0  0  0  0  0  0  0  0  0  0  0
   58.7380   30.6500   46.4140 N   0  0  0  0  0  0  0  0  0  0  0  0
   57.3980   27.7270   46.3500 S   0  0  0  0  0  0  0  0  0  0  0  0
   57.8570   26.0490   46.0300 C   0  0  0  0  0  0  0  0  0  0  0  0
   56.8340   25.1050   45.6980 C   0  0  0  0  0  0  0  0  0  0  0  0
   55.7150   25.2070   46.3320 O   0  0  0  0  0  0  0  0  0  0  0  0
   56.8850   24.0650   44.7600 N   0  0  0  0  0  0  0  0  0  0  0  0
   55.7170   23.2110   44.5780 C   0  0  0  0  0  0  0  0  0  0  0  0
   55.6220   22.9640   43.0780 C   0  0  0  0  0  0  0  0  0  0  0  0
   55.9140   21.8830   45.2860 C   0  0  0  0  0  0  0  0  0  0  0  0
   60.2508   24.3212   46.9757 H   0  0  0  0  0  0  0  0  0  0  0  0
   59.3792   24.0269   45.4328 H   0  0  0  0  0  0  0  0  0  0  0  0
   60.9164   24.9562   45.4328 H   0  0  0  0  0  0  0  0  0  0  0  0
   60.8949   27.2530   46.6577 H   0  0  0  0  0  0  0  0  0  0  0  0
   60.9733   29.0912   48.4301 H   0  0  0  0  0  0  0  0  0  0  0  0
   63.4504   31.0744   49.3686 H   0  0  0  0  0  0  0  0  0  0  0  0
   62.3743   33.9683   48.3030 H   0  0  0  0  0  0  0  0  0  0  0  0
   63.9064   34.0489   48.5634 H   0  0  0  0  0  0  0  0  0  0  0  0
   62.3945   32.1141   46.5114 H   0  0  0  0  0  0  0  0  0  0  0  0
   63.9343   31.8704   46.4595 H   0  0  0  0  0  0  0  0  0  0  0  0
   59.0769   35.2276   46.7739 H   0  0  0  0  0  0  0  0  0  0  0  0
   56.6788   33.9119   45.5942 H   0  0  0  0  0  0  0  0  0  0  0  0
   58.5700   33.8450   42.7080 H   0  0  0  0  0  0  0  0  0  0  0  0
   56.7290   30.1170   42.1810 H   0  0  0  0  0  0  0  0  0  0  0  0
   56.6370   30.5200   45.7930 H   0  0  0  0  0  0  0  0  0  0  0  0
   57.7160   23.8990   44.2080 H   0  0  0  0  0  0  0  0  0  0  0  0
   54.8115   23.6818   44.9884 H   0  0  0  0  0  0  0  0  0  0  0  0
   55.2325   21.9513   42.8971 H   0  0  0  0  0  0  0  0  0  0  0  0
   54.9442   23.7036   42.6268 H   0  0  0  0  0  0  0  0  0  0  0  0
   56.6207   23.0588   42.6268 H   0  0  0  0  0  0  0  0  0  0  0  0
   55.8906   22.0407   46.3744 H   0  0  0  0  0  0  0  0  0  0  0  0
   55.1087   21.1911   44.9984 H   0  0  0  0  0  0  0  0  0  0  0  0
   56.8855   21.4547   44.9984 H   0  0  0  0  0  0  0  0  0  0  0  0
  1  2  1  0
  2  3  1  0
  3  4  2  0
  4  5  1  0
  5  6  2  0
  6  7  1  0
  7  8  2  0
  8  9  1  0
  9 10  1  0
 10 11  1  0
  7 12  1  0
 12 13  1  0
 13 14  2  0
 14 15  1  0
 15 16  2  0
 16 17  1  0
 17 18  1  0
 18 19  1  0
 19 20  2  0
 19 21  1  0
 21 22  1  0
 22 23  1  0
 15 24  1  0
 24 25  2  0
  4 26  1  0
 26 27  1  0
 27 28  1  0
 28 29  2  0
 28 30  1  0
 30 31  1  0
 31 32  1  0
 31 33  1  0
 27  2  2  0
 25  5  1  0
 11  9  1  0
 24 12  1  0
 22 17  2  0
  1 34  1  0
  1 35  1  0
  1 36  1  0
  3 37  1  0
  6 38  1  0
  9 39  1  0
 10 40  1  0
 10 41  1  0
 11 42  1  0
 11 43  1  0
 14 44  1  0
 16 45  1  0
 18 46  1  0
 21 47  1  0
 23 48  1  0
 30 49  1  0
 31 50  1  0
 32 51  1  0
 32 52  1  0
 32 53  1  0
 33 54  1  0
 33 55  1  0
 33 56  1  0
M  END
>  <smiles>  (27) 
Cc1cc(-c2cc(=NC3CC3)n3ncc(=Cc4[nH]c(=O)[nH]c4O)c3n2)sc1C(=O)NC(C)C

>  <score_type>  (27) 
oracle

>  <origin>  (27) 
adg

>  <m_score__min__energy>  (27) 
-9.5600000000000005

>  <m_primary>  (27) 
energy

$$$$
27:0
     RDKit          3D

 56 59  0  0  0  0  0  0  0  0999 V2000
   59.6800   35.3100   46.3890 C   0  0  0  0  0  0  0  0  0  0  0  0
   60.4110   33.9690   46.3680 C   0  0  0  0  0  0  0  0  0  0  0  0
   61.3600   33.8480   47.5460 C   0  0  0  0  0  0  0  0  0  0  0  0
   62.7720   33.8070   47.3630 C   0  0  0  0  0  0  0  0  0  0  0  0
   63.4090   33.8450   45.9970 C   0  0  0  0  0  0  0  0  0  0  0  0
   63.6100   33.6460   48.4800 C   0  0  0  0  0  0  0  0  0  0  0  0
   63.0750   33.5680   49.7650 C   0  0  0  0  0  0  0  0  0  0  0  0
   61.6990   33.6350   49.9540 C   0  0  0  0  0  0  0  0  0  0  0  0
   60.8380   33.7770   48.8580 C   0  0  0  0  0  0  0  0  0  0  0  0
   59.4270   33.8640   49.0890 N   0  0  0  0  0  0  0  0  0  0  0  0
   58.5400   32.7440   48.9190 C   0  0  0  0  0  0  0  0  0  0  0  0
   57.8750   32.6300   47.8540 O   0  0  0  0  0  0  0  0  0  0  0  0
   58.4960   31.6660   49.9210 C   0  0  0  0  0  0  0  0  0  0  0  0
   57.5500   31.7390   50.9500 C   0  0  0  0  0  0  0  0  0  0  0  0
   57.4880   30.7400   51.9260 C   0  0  0  0  0  0  0  0  0  0  0  0
   58.3500   29.6410   51.8600 C   0  0  0  0  0  0  0  0  0  0  0  0
   59.2870   29.5450   50.8250 C   0  0  0  0  0  0  0  0  0  0  0  0
   59.3940   30.5730   49.8670 C   0  0  0  0  0  0  0  0  0  0  0  0
   60.3580   30.5000   48.8040 N   0  0  0  0  0  0  0  0  0  0  0  0
   60.0650   30.2520   47.4240 C   0  0  0  0  0  0  0  0  0  0  0  0
   60.4390   31.0760   46.5450 O   0  0  0  0  0  0  0  0  0  0  0  0
   59.2950   29.0480   47.0320 C   0  0  0  0  0  0  0  0  0  0  0  0
   58.3790   29.1040   45.9660 C   0  0  0  0  0  0  0  0  0  0  0  0
   57.6200   27.9760   45.6280 C   0  0  0  0  0  0  0  0  0  0  0  0
   57.7660   26.7720   46.3400 C   0  0  0  0  0  0  0  0  0  0  0  0
   56.9550   25.6270   46.0130 N   0  0  0  0  0  0  0  0  0  0  0  0
   55.6080   25.5910   45.8740 C   0  0  0  0  0  0  0  0  0  0  0  0
   54.7780   26.6970   46.0070 O   0  0  0  0  0  0  0  0  0  0  0  0
   55.1730   24.3220   45.5480 C   0  0  0  0  0  0  0  0  0  0  0  0
   56.3100   23.5360   45.4790 C   0  0  0  0  0  0  0  0  0  0  0  0
   57.3790   24.3680   45.7740 C   0  0  0  0  0  0  0  0  0  0  0  0
   58.7120   23.9640   45.8340 O   0  0  0  0  0  0  0  0  0  0  0  0
   58.6940   26.7160   47.3880 C   0  0  0  0  0  0  0  0  0  0  0  0
   59.4480   27.8400   47.7360 C   0  0  0  0  0  0  0  0  0  0  0  0
   59.5113   35.6194   47.4310 H   0  0  0  0  0  0  0  0  0  0  0  0
   60.2897   36.0680   45.8755 H   0  0  0  0  0  0  0  0  0  0  0  0
   58.7125   35.2083   45.8755 H   0  0  0  0  0  0  0  0  0  0  0  0
   59.6719   33.1557   46.4165 H   0  0  0  0  0  0  0  0  0  0  0  0
   60.9960   33.9034   45.4388 H   0  0  0  0  0  0  0  0  0  0  0  0
   64.5019   33.9102   46.1037 H   0  0  0  0  0  0  0  0  0  0  0  0
   63.1484   32.9297   45.4453 H   0  0  0  0  0  0  0  0  0  0  0  0
   63.0415   34.7228   45.4453 H   0  0  0  0  0  0  0  0  0  0  0  0
   64.6990   33.5809   48.3388 H   0  0  0  0  0  0  0  0  0  0  0  0
   63.7429   33.4532   50.6314 H   0  0  0  0  0  0  0  0  0  0  0  0
   61.2837   33.5761   50.9709 H   0  0  0  0  0  0  0  0  0  0  0  0
   56.8512   32.5875   50.9910 H   0  0  0  0  0  0  0  0  0  0  0  0
   56.7601   30.8186   52.7470 H   0  0  0  0  0  0  0  0  0  0  0  0
   58.2915   28.8506   52.6228 H   0  0  0  0  0  0  0  0  0  0  0  0
   59.9423   28.6640   50.7590 H   0  0  0  0  0  0  0  0  0  0  0  0
   58.2582   30.0368   45.3957 H   0  0  0  0  0  0  0  0  0  0  0  0
   56.9020   28.0327   44.7966 H   0  0  0  0  0  0  0  0  0  0  0  0
   54.1347   24.0011   45.3778 H   0  0  0  0  0  0  0  0  0  0  0  0
   56.3563   22.4637   45.2379 H   0  0  0  0  0  0  0  0  0  0  0  0
   59.4070   24.3710   45.2210 H   0  0  0  0  0  0  0  0  0  0  0  0
   58.8308   25.7764   47.9434 H   0  0  0  0  0  0  0  0  0  0  0  0
   60.1665   27.7795   48.5667 H   0  0  0  0  0  0  0  0  0  0  0  0
  1  2  1  0
  2  3  1  0
  3  4  2  0
  4  5  1  0
  4  6  1  0
  6  7  2  0
  7  8  1  0
  8  9  2  0
  9 10  1  0
 10 11  1  0
 11 12  2  0
 11 13  1  0
 13 14  2  0
 14 15  1  0
 15 16  2  0
 16 17  1  0
 17 18  2  0
 18 19  1  0
 19 20  1  0
 20 21  2  0
 20 22  1  0
 22 23  2  0
 23 24  1  0
 24 25  2  0
 25 26  1  0
 26 27  1  0
 27 28  1  0
 27 29  2  0
 29 30  1  0
 30 31  2  0
 31 32  1  0
 25 33  1  0
 33 34  2  0
  9  3  1  0
 18 13  1  0
 34 22  1  0
 31 26  1  0
  1 35  1  0
  1 36  1  0
  1 37  1  0
  2 38  1  0
  2 39  1  0
  5 40  1  0
  5 41  1  0
  5 42  1  0
  6 43  1  0
  7 44  1  0
  8 45  1  0
 14 46  1  0
 15 47  1  0
 16 48  1  0
 17 49  1  0
 23 50  1  0
 24 51  1  0
 29 52  1  0
 30 53  1  0
 32 54  1  0
 33 55  1  0
 34 56  1  0
M  CHG  3  10  -1  19  -1  28  -1
M  END
>  <UniqueID>  (28) 
23

>  <SMILES>  (28) 
CCc1c(C)cccc1[N-]C(=O)c1ccccc1[N-]C(=O)c1ccc(-n2c([O-])ccc2O)cc1

>  <Energy>  (28) 
109.8018653967252

>  <Genealogy>  (28) 
CCc1c(C)cccc1[N-]C(=O)c1ccccc1[N-]C(=O)c1ccc(-n2c([O-])ccc2O)cc1 (protonated)
CCc1c(C)cccc1[N-]C(=O)c1ccccc1[N-]C(=O)c1ccc(-n2c([O-])ccc2O)cc1 (3D coordinates assigned)
CCc1c(C)cccc1[N-]C(=O)c1ccccc1[N-]C(=O)c1ccc(-n2c([O-])ccc2O)cc1 (optimized conformer: 109.8018653967252 kcal/mol)

>  <smiles>  (28) 
CCc1c(C)cccc1NC(=O)c1ccccc1NC(=O)c1ccc(-n2c(O)ccc2O)cc1

>  <score_type>  (28) 
oracle

>  <origin>  (28) 
adg

>  <m_score__min__energy>  (28) 
-14.15

>  <m_primary>  (28) 
energy

$$$$
28:0
     RDKit          3D

 49 52  0  0  0  0  0  0  0  0999 V2000
   56.6490   30.8390   43.1020 C   0  0  0  0  0  0  0  0  0  0  0  0
   57.3280   29.9150   44.0630 C   0  0  0  0  0  0  0  0  0  0  0  0
   57.1230   28.5680   43.9580 N   0  0  0  0  0  0  0  0  0  0  0  0
   57.6920   27.6760   44.7880 N   0  0  0  0  0  0  0  0  0  0  0  0
   57.4200   26.2510   44.5660 C   0  0  0  0  0  0  0  0  0  0  0  0
   56.5150   25.6890   45.6360 C   0  0  0  0  0  0  0  0  0  0  0  0
   55.5190   26.3690   46.0110 O   0  0  0  0  0  0  0  0  0  0  0  0
   56.7510   24.3860   46.2170 N   0  0  0  0  0  0  0  0  0  0  0  0
   57.9210   23.5870   45.8230 C   0  0  0  0  0  0  0  0  0  0  0  0
   57.6870   22.1020   46.1170 C   0  0  0  0  0  0  0  0  0  0  0  0
   57.2490   21.9140   47.4460 O   0  0  0  0  0  0  0  0  0  0  0  0
   55.9730   22.4990   47.6070 C   0  0  0  0  0  0  0  0  0  0  0  0
   56.0510   24.0210   47.4580 C   0  0  0  0  0  0  0  0  0  0  0  0
   58.5370   28.0930   45.7890 C   0  0  0  0  0  0  0  0  0  0  0  0
   59.0930   27.2710   46.5680 O   0  0  0  0  0  0  0  0  0  0  0  0
   58.7700   29.4550   45.9170 C   0  0  0  0  0  0  0  0  0  0  0  0
   59.5420   30.0890   46.8150 N   0  0  0  0  0  0  0  0  0  0  0  0
   59.4620   31.3920   46.5720 N   0  0  0  0  0  0  0  0  0  0  0  0
   60.1280   32.3830   47.3720 C   0  0  0  0  0  0  0  0  0  0  0  0
   61.5150   32.5790   47.2620 C   0  0  0  0  0  0  0  0  0  0  0  0
   62.1500   33.5640   48.0250 C   0  0  0  0  0  0  0  0  0  0  0  0
   61.4040   34.3660   48.8940 C   0  0  0  0  0  0  0  0  0  0  0  0
   60.0220   34.1880   48.9950 C   0  0  0  0  0  0  0  0  0  0  0  0
   59.3840   33.2050   48.2330 C   0  0  0  0  0  0  0  0  0  0  0  0
   58.6540   31.5990   45.4940 C   0  0  0  0  0  0  0  0  0  0  0  0
   58.3670   32.9330   44.8660 C   0  0  0  0  0  0  0  0  0  0  0  0
   58.1880   30.3560   45.0740 C   0  0  0  0  0  0  0  0  0  0  0  0
   56.0881   31.6023   43.6613 H   0  0  0  0  0  0  0  0  0  0  0  0
   57.4036   31.3289   42.4691 H   0  0  0  0  0  0  0  0  0  0  0  0
   55.9561   30.2652   42.4691 H   0  0  0  0  0  0  0  0  0  0  0  0
   56.9352   26.1277   43.5863 H   0  0  0  0  0  0  0  0  0  0  0  0
   58.3755   25.7070   44.6003 H   0  0  0  0  0  0  0  0  0  0  0  0
   58.1012   23.7177   44.7458 H   0  0  0  0  0  0  0  0  0  0  0  0
   58.7929   23.9285   46.4003 H   0  0  0  0  0  0  0  0  0  0  0  0
   56.9223   21.7146   45.4277 H   0  0  0  0  0  0  0  0  0  0  0  0
   58.6362   21.5631   45.9804 H   0  0  0  0  0  0  0  0  0  0  0  0
   55.2923   22.0960   46.8426 H   0  0  0  0  0  0  0  0  0  0  0  0
   55.6004   22.2616   48.6143 H   0  0  0  0  0  0  0  0  0  0  0  0
   55.0319   24.4342   47.4328 H   0  0  0  0  0  0  0  0  0  0  0  0
   56.6081   24.4322   48.3127 H   0  0  0  0  0  0  0  0  0  0  0  0
   60.0890   29.6520   47.5900 H   0  0  0  0  0  0  0  0  0  0  0  0
   62.1036   31.9553   46.5731 H   0  0  0  0  0  0  0  0  0  0  0  0
   63.2373   33.7079   47.9414 H   0  0  0  0  0  0  0  0  0  0  0  0
   61.9050   35.1368   49.4979 H   0  0  0  0  0  0  0  0  0  0  0  0
   59.4349   34.8225   49.6753 H   0  0  0  0  0  0  0  0  0  0  0  0
   58.2943   33.0750   48.3084 H   0  0  0  0  0  0  0  0  0  0  0  0
   58.2057   33.6825   45.6548 H   0  0  0  0  0  0  0  0  0  0  0  0
   59.2206   33.2356   44.2417 H   0  0  0  0  0  0  0  0  0  0  0  0
   57.4645   32.8578   44.2417 H   0  0  0  0  0  0  0  0  0  0  0  0
  1  2  1  0
  2  3  2  0
  3  4  1  0
  4  5  1  0
  5  6  1  0
  6  7  2  0
  6  8  1  0
  8  9  1  0
  9 10  1  0
 10 11  1  0
 11 12  1  0
 12 13  1  0
  4 14  1  0
 14 15  2  0
 14 16  1  0
 16 17  2  0
 17 18  1  0
 18 19  1  0
 19 20  2  0
 20 21  1  0
 21 22  2  0
 22 23  1  0
 23 24  2  0
 18 25  1  0
 25 26  1  0
 25 27  2  0
 27  2  1  0
 13  8  1  0
 27 16  1  0
 24 19  1  0
  1 28  1  0
  1 29  1  0
  1 30  1  0
  5 31  1  0
  5 32  1  0
  9 33  1  0
  9 34  1  0
 10 35  1  0
 10 36  1  0
 12 37  1  0
 12 38  1  0
 13 39  1  0
 13 40  1  0
 17 41  1  0
 20 42  1  0
 21 43  1  0
 22 44  1  0
 23 45  1  0
 24 46  1  0
 26 47  1  0
 26 48  1  0
 26 49  1  0
M  CHG  1  17   1
M  END
>  <UniqueID>  (29) 
24

>  <SMILES>  (29) 
Cc1nn(CC(=O)N2CCOCC2)c(=O)c2[nH+]n(-c3ccccc3)c(C)c12

>  <Energy>  (29) 
101.78409942331797

>  <Genealogy>  (29) 
Cc1nn(CC(=O)N2CCOCC2)c(=O)c2[nH+]n(-c3ccccc3)c(C)c12 (protonated)
Cc1nn(CC(=O)N2CCOCC2)c(=O)c2[nH+]n(-c3ccccc3)c(C)c12 (3D coordinates assigned)
Cc1nn(CC(=O)N2CCOCC2)c(=O)c2[nH+]n(-c3ccccc3)c(C)c12 (nonaromatic ring conformer: 101.78409942331797 kcal/mol)

>  <smiles>  (29) 
Cc1nn(CC(=O)N2CCOCC2)c(=O)c2nn(-c3ccccc3)c(C)c12

>  <score_type>  (29) 
oracle

>  <origin>  (29) 
adg

>  <m_score__min__energy>  (29) 
-7.2800000000000002

>  <m_primary>  (29) 
energy

$$$$
29:0
     RDKit          3D

 59 62  0  0  0  0  0  0  0  0999 V2000
   60.3360   34.6040   49.3730 N   0  0  0  0  0  0  0  0  0  0  0  0
   61.2820   34.0270   48.7180 C   0  0  0  0  0  0  0  0  0  0  0  0
   62.3500   33.6140   49.4420 N   0  0  0  0  0  0  0  0  0  0  0  0
   63.3750   33.0030   48.8200 C   0  0  0  0  0  0  0  0  0  0  0  0
   63.3770   32.7840   47.4900 N   0  0  0  0  0  0  0  0  0  0  0  0
   62.3080   33.1980   46.7750 C   0  0  0  0  0  0  0  0  0  0  0  0
   61.2230   33.8300   47.3360 C   0  0  0  0  0  0  0  0  0  0  0  0
   59.8280   34.3590   46.4450 S   0  0  0  0  0  0  0  0  0  0  0  0
   59.6330   35.8420   46.7200 O   0  0  0  0  0  0  0  0  0  0  0  0
   60.0380   34.2580   44.9610 O   0  0  0  0  0  0  0  0  0  0  0  0
   58.4530   33.4920   46.9680 N   0  0  0  0  0  0  0  0  0  0  0  0
   58.2940   32.1450   46.5240 C   0  0  0  0  0  0  0  0  0  0  0  0
   57.7530   31.8510   45.2920 C   0  0  0  0  0  0  0  0  0  0  0  0
   57.5900   30.5670   44.8140 C   0  0  0  0  0  0  0  0  0  0  0  0
   57.9850   29.5100   45.6050 C   0  0  0  0  0  0  0  0  0  0  0  0
   57.8460   28.1140   45.1730 C   0  0  0  0  0  0  0  0  0  0  0  0
   58.2090   27.7790   43.8660 C   0  0  0  0  0  0  0  0  0  0  0  0
   58.0980   26.4780   43.4060 C   0  0  0  0  0  0  0  0  0  0  0  0
   57.6180   25.4700   44.2490 C   0  0  0  0  0  0  0  0  0  0  0  0
   57.5340   24.1630   43.7050 N   0  0  0  0  0  0  0  0  0  0  0  0
   58.1220   23.0590   44.3510 C   0  0  0  0  0  0  0  0  0  0  0  0
   58.7530   23.1570   45.4400 O   0  0  0  0  0  0  0  0  0  0  0  0
   58.0000   21.7280   43.7350 C   0  0  0  0  0  0  0  0  0  0  0  0
   56.5420   21.3110   43.5870 C   0  0  0  0  0  0  0  0  0  0  0  0
   55.9360   22.1900   42.5960 N   0  0  0  0  0  0  0  0  0  0  0  0
   57.2670   25.8080   45.5220 C   0  0  0  0  0  0  0  0  0  0  0  0
   57.3780   27.1180   45.9890 C   0  0  0  0  0  0  0  0  0  0  0  0
   58.5270   29.7870   46.8420 C   0  0  0  0  0  0  0  0  0  0  0  0
   58.6850   31.0930   47.3100 C   0  0  0  0  0  0  0  0  0  0  0  0
   59.2440   31.2270   48.6450 C   0  0  0  0  0  0  0  0  0  0  0  0
   60.4370   30.6630   49.0400 C   0  0  0  0  0  0  0  0  0  0  0  0
   60.9420   30.7920   50.3240 C   0  0  0  0  0  0  0  0  0  0  0  0
   60.2130   31.5130   51.2260 C   0  0  0  0  0  0  0  0  0  0  0  0
   59.0160   32.1000   50.8930 C   0  0  0  0  0  0  0  0  0  0  0  0
   58.5480   31.9470   49.6020 C   0  0  0  0  0  0  0  0  0  0  0  0
   59.7100   35.2830   48.9240 H   0  0  0  0  0  0  0  0  0  0  0  0
   64.2384   32.6718   49.4157 H   0  0  0  0  0  0  0  0  0  0  0  0
   64.1990   32.3070   47.0730 H   0  0  0  0  0  0  0  0  0  0  0  0
   62.3053   33.0206   45.6894 H   0  0  0  0  0  0  0  0  0  0  0  0
   57.7790   33.9680   47.5990 H   0  0  0  0  0  0  0  0  0  0  0  0
   57.4328   32.6871   44.6530 H   0  0  0  0  0  0  0  0  0  0  0  0
   57.1529   30.3904   43.8201 H   0  0  0  0  0  0  0  0  0  0  0  0
   58.5888   28.5611   43.1921 H   0  0  0  0  0  0  0  0  0  0  0  0
   58.3885   26.2358   42.3731 H   0  0  0  0  0  0  0  0  0  0  0  0
   57.0190   24.0290   42.7970 H   0  0  0  0  0  0  0  0  0  0  0  0
   58.4677   21.7509   42.7397 H   0  0  0  0  0  0  0  0  0  0  0  0
   58.5022   20.9989   44.3879 H   0  0  0  0  0  0  0  0  0  0  0  0
   56.4823   20.2659   43.2492 H   0  0  0  0  0  0  0  0  0  0  0  0
   56.0158   21.3900   44.5497 H   0  0  0  0  0  0  0  0  0  0  0  0
   56.6330   22.5190   41.8880 H   0  0  0  0  0  0  0  0  0  0  0  0
   55.6700   23.0640   43.1330 H   0  0  0  0  0  0  0  0  0  0  0  0
   56.8866   25.0282   46.1982 H   0  0  0  0  0  0  0  0  0  0  0  0
   57.0867   27.3536   47.0232 H   0  0  0  0  0  0  0  0  0  0  0  0
   58.8457   28.9510   47.4819 H   0  0  0  0  0  0  0  0  0  0  0  0
   61.0144   30.0846   48.3037 H   0  0  0  0  0  0  0  0  0  0  0  0
   61.8987   30.3288   50.6074 H   0  0  0  0  0  0  0  0  0  0  0  0
   60.5958   31.6274   52.2509 H   0  0  0  0  0  0  0  0  0  0  0  0
   58.4449   32.6770   51.6353 H   0  0  0  0  0  0  0  0  0  0  0  0
   57.5907   32.4126   49.3249 H   0  0  0  0  0  0  0  0  0  0  0  0
  1  2  2  3
  2  3  1  0
  3  4  2  0
  4  5  1  0
  5  6  1  0
  6  7  2  0
  7  8  1  0
  8  9  2  0
  8 10  2  0
  8 11  1  0
 11 12  1  0
 12 13  2  0
 13 14  1  0
 14 15  2  0
 15 16  1  0
 16 17  2  0
 17 18  1  0
 18 19  2  0
 19 20  1  0
 20 21  1  0
 21 22  2  0
 21 23  1  0
 23 24  1  0
 24 25  1  0
 19 26  1  0
 26 27  2  0
 15 28  1  0
 28 29  2  0
 29 30  1  0
 30 31  2  0
 31 32  1  0
 32 33  2  0
 33 34  1  0
 34 35  2  0
  7  2  1  0
 29 12  1  0
 35 30  1  0
 27 16  1  0
  1 36  1  0
  4 37  1  0
  5 38  1  0
  6 39  1  0
 11 40  1  0
 13 41  1  0
 14 42  1  0
 17 43  1  0
 18 44  1  0
 20 45  1  0
 23 46  1  0
 23 47  1  0
 24 48  1  0
 24 49  1  0
 25 50  1  0
 25 51  1  0
 26 52  1  0
 27 53  1  0
 28 54  1  0
 31 55  1  0
 32 56  1  0
 33 57  1  0
 34 58  1  0
 35 59  1  0
M  END
>  <smiles>  (30) 
N=c1nc[nH]cc1S(=O)(=O)Nc1ccc(-c2ccc(NC(=O)CCN)cc2)cc1-c1ccccc1

>  <score_type>  (30) 
oracle

>  <origin>  (30) 
adg

>  <m_score__min__energy>  (30) 
-9.5800000000000001

>  <m_primary>  (30) 
energy

$$$$
30:0
     RDKit          3D

 45 47  0  0  0  0  0  0  0  0999 V2000
   51.2246   20.7831   45.3903 H   0  0  0  0  0  0  0  0  0  0  0  0
   52.0140   21.3040   45.9520 C   0  0  0  0  0  0  0  0  0  0  0  0
   52.4250   22.5380   45.5590 N   0  0  0  0  0  0  0  0  0  0  0  0
   53.4040   23.2250   46.2130 C   0  0  0  0  0  0  0  0  0  0  0  0
   53.7220   24.4110   45.7740 N   0  0  0  0  0  0  0  0  0  0  0  0
   55.0290   24.9960   45.6460 C   0  0  0  0  0  0  0  0  0  0  0  0
   55.2100   26.2090   45.9450 O   0  0  0  0  0  0  0  0  0  0  0  0
   56.1930   24.1550   45.2680 C   0  0  0  0  0  0  0  0  0  0  0  0
   56.0910   23.3120   44.1430 C   0  0  0  0  0  0  0  0  0  0  0  0
   55.1574   23.2917   43.5616 H   0  0  0  0  0  0  0  0  0  0  0  0
   57.1620   22.5020   43.7580 C   0  0  0  0  0  0  0  0  0  0  0  0
   57.0678   21.8478   42.8787 H   0  0  0  0  0  0  0  0  0  0  0  0
   58.3500   22.5220   44.4870 C   0  0  0  0  0  0  0  0  0  0  0  0
   59.1959   21.8909   44.1768 H   0  0  0  0  0  0  0  0  0  0  0  0
   58.4670   23.3420   45.6100 C   0  0  0  0  0  0  0  0  0  0  0  0
   59.4091   23.3576   46.1776 H   0  0  0  0  0  0  0  0  0  0  0  0
   57.3910   24.1490   46.0230 C   0  0  0  0  0  0  0  0  0  0  0  0
   57.5110   24.9690   47.1980 N   0  0  0  0  0  0  0  0  0  0  0  0
   58.4260   26.0580   47.3760 C   0  0  0  0  0  0  0  0  0  0  0  0
   59.2610   25.9930   48.3170 O   0  0  0  0  0  0  0  0  0  0  0  0
   58.4510   27.2200   46.4570 C   0  0  0  0  0  0  0  0  0  0  0  0
   58.5040   28.5260   46.9710 C   0  0  0  0  0  0  0  0  0  0  0  0
   58.5141   28.6837   48.0596 H   0  0  0  0  0  0  0  0  0  0  0  0
   58.5440   29.6280   46.1100 C   0  0  0  0  0  0  0  0  0  0  0  0
   58.5772   30.6457   46.5262 H   0  0  0  0  0  0  0  0  0  0  0  0
   58.5420   29.4430   44.7140 C   0  0  0  0  0  0  0  0  0  0  0  0
   58.5840   30.5520   43.7980 N   0  0  0  0  0  0  0  0  0  0  0  0
   59.2650   30.5280   43.0060 H   0  0  0  0  0  0  0  0  0  0  0  0
   57.6000   31.9740   43.9440 S   0  0  0  0  0  0  0  0  0  0  0  0
   56.2730   31.6180   44.5550 O   0  0  0  0  0  0  0  0  0  0  0  0
   57.3910   32.5920   42.5900 O   0  0  0  0  0  0  0  0  0  0  0  0
   58.4210   33.1480   44.9990 C   0  0  0  0  0  0  0  0  0  0  0  0
   58.2378   32.8860   46.0515 H   0  0  0  0  0  0  0  0  0  0  0  0
   59.5024   33.1272   44.7989 H   0  0  0  0  0  0  0  0  0  0  0  0
   58.0304   34.1567   44.7989 H   0  0  0  0  0  0  0  0  0  0  0  0
   58.4980   28.1370   44.2040 C   0  0  0  0  0  0  0  0  0  0  0  0
   58.4926   27.9777   43.1156 H   0  0  0  0  0  0  0  0  0  0  0  0
   58.4610   27.0360   45.0640 C   0  0  0  0  0  0  0  0  0  0  0  0
   58.4395   26.0182   44.6474 H   0  0  0  0  0  0  0  0  0  0  0  0
   53.9940   22.6460   47.3580 C   0  0  0  0  0  0  0  0  0  0  0  0
   54.7701   23.1891   47.9173 H   0  0  0  0  0  0  0  0  0  0  0  0
   53.5830   21.3770   47.7740 C   0  0  0  0  0  0  0  0  0  0  0  0
   54.0417   20.9139   48.6601 H   0  0  0  0  0  0  0  0  0  0  0  0
   52.5920   20.6970   47.0670 C   0  0  0  0  0  0  0  0  0  0  0  0
   52.2700   19.6943   47.3846 H   0  0  0  0  0  0  0  0  0  0  0  0
  1  2  1  0
  2  3  1  0
  3  4  1  0
  4  5  2  0
  5  6  1  0
  6  7  2  0
  6  8  1  0
  8  9  2  0
  9 10  1  0
  9 11  1  0
 11 12  1  0
 11 13  2  0
 13 14  1  0
 13 15  1  0
 15 16  1  0
 15 17  2  0
 17 18  1  0
 18 19  1  0
 19 20  2  0
 19 21  1  0
 21 22  2  0
 22 23  1  0
 22 24  1  0
 24 25  1  0
 24 26  2  0
 26 27  1  0
 27 28  1  0
 27 29  1  0
 29 30  2  0
 29 31  2  0
 29 32  1  0
 32 33  1  0
 32 34  1  0
 32 35  1  0
 26 36  1  0
 36 37  1  0
 36 38  2  0
 38 39  1  0
  4 40  1  0
 40 41  1  0
 40 42  2  0
 42 43  1  0
 42 44  1  0
 44 45  1  0
 44  2  2  0
 17  8  1  0
 38 21  1  0
M  CHG  2   3  -1  18  -1
M  END
>  <UniqueID>  (31) 
25

>  <SMILES>  (31) 
CS(=O)(=O)Nc1ccc(C(=O)[N-]c2ccccc2C(=O)/N=c2\cccc[n-]2)cc1

>  <Energy>  (31) 
65.02187298749531

>  <Genealogy>  (31) 
CS(=O)(=O)Nc1ccc(C(=O)[N-]c2ccccc2C(=O)N=c2cccc[n-]2)cc1 (protonated)
CS(=O)(=O)Nc1ccc(C(=O)[N-]c2ccccc2C(=O)/N=c2\cccc[n-]2)cc1 (cis-trans isomerization)
CS(=O)(=O)Nc1ccc(C(=O)[N-]c2ccccc2C(=O)/N=c2\cccc[n-]2)cc1 (3D coordinates assigned)
CS(=O)(=O)Nc1ccc(C(=O)[N-]c2ccccc2C(=O)/N=c2\cccc[n-]2)cc1 (optimized conformer: 65.02187298749531 kcal/mol)

>  <smiles>  (31) 
CS(=O)(=O)Nc1ccc(C(=O)Nc2ccccc2C(=O)N=c2cccc[nH]2)cc1

>  <score_type>  (31) 
oracle

>  <origin>  (31) 
adg

>  <m_score__min__energy>  (31) 
-12.369999999999999

>  <m_primary>  (31) 
energy

$$$$
31:0
     RDKit          3D

 51 53  0  0  0  0  0  0  0  0999 V2000
   59.3050   33.0830   50.7290 C   0  0  0  0  0  0  0  0  0  0  0  0
   59.2900   34.1670   49.8070 O   0  0  0  0  0  0  0  0  0  0  0  0
   59.5890   34.0510   48.4410 C   0  0  0  0  0  0  0  0  0  0  0  0
   60.9330   34.0800   48.0530 C   0  0  0  0  0  0  0  0  0  0  0  0
   61.2970   33.9650   46.7080 C   0  0  0  0  0  0  0  0  0  0  0  0
   62.6600   34.0130   46.3790 O   0  0  0  0  0  0  0  0  0  0  0  0
   63.6590   33.1890   46.9730 C   0  0  0  0  0  0  0  0  0  0  0  0
   60.2940   33.8120   45.7340 C   0  0  0  0  0  0  0  0  0  0  0  0
   58.9360   33.8070   46.1010 C   0  0  0  0  0  0  0  0  0  0  0  0
   57.8760   33.6780   45.0720 C   0  0  0  0  0  0  0  0  0  0  0  0
   57.0530   34.6170   44.9110 O   0  0  0  0  0  0  0  0  0  0  0  0
   57.7240   32.4910   44.2800 N   0  0  0  0  0  0  0  0  0  0  0  0
   57.7110   31.1420   44.7710 C   0  0  0  0  0  0  0  0  0  0  0  0
   58.7530   30.6360   45.5680 C   0  0  0  0  0  0  0  0  0  0  0  0
   58.7030   29.3220   46.0410 C   0  0  0  0  0  0  0  0  0  0  0  0
   57.6240   28.4920   45.7060 C   0  0  0  0  0  0  0  0  0  0  0  0
   57.5710   26.8220   46.2650 S   0  0  0  0  0  0  0  0  0  0  0  0
   58.3240   25.9240   45.3240 O   0  0  0  0  0  0  0  0  0  0  0  0
   58.2120   26.7430   47.6210 O   0  0  0  0  0  0  0  0  0  0  0  0
   55.9240   26.2870   46.3800 N   0  0  0  0  0  0  0  0  0  0  0  0
   55.4220   25.3340   45.6560 C   0  0  0  0  0  0  0  0  0  0  0  0
   54.0780   25.1390   45.6470 N   0  0  0  0  0  0  0  0  0  0  0  0
   53.5120   24.1600   44.8910 C   0  0  0  0  0  0  0  0  0  0  0  0
   52.0250   23.9990   44.8760 C   0  0  0  0  0  0  0  0  0  0  0  0
   54.3220   23.3520   44.0870 C   0  0  0  0  0  0  0  0  0  0  0  0
   55.7050   23.5520   44.1180 C   0  0  0  0  0  0  0  0  0  0  0  0
   56.6150   22.7430   43.2490 C   0  0  0  0  0  0  0  0  0  0  0  0
   56.2210   24.5410   44.8920 N   0  0  0  0  0  0  0  0  0  0  0  0
   56.6030   28.9850   44.8830 C   0  0  0  0  0  0  0  0  0  0  0  0
   56.6500   30.3010   44.4160 C   0  0  0  0  0  0  0  0  0  0  0  0
   58.5920   33.9100   47.4590 C   0  0  0  0  0  0  0  0  0  0  0  0
   59.2996   33.4755   51.7566 H   0  0  0  0  0  0  0  0  0  0  0  0
   58.4155   32.4554   50.5715 H   0  0  0  0  0  0  0  0  0  0  0  0
   60.2116   32.4802   50.5715 H   0  0  0  0  0  0  0  0  0  0  0  0
   61.7152   34.1950   48.8178 H   0  0  0  0  0  0  0  0  0  0  0  0
   63.5825   33.2521   48.0685 H   0  0  0  0  0  0  0  0  0  0  0  0
   63.5114   32.1465   46.6545 H   0  0  0  0  0  0  0  0  0  0  0  0
   64.6544   33.5322   46.6545 H   0  0  0  0  0  0  0  0  0  0  0  0
   60.5737   33.6953   44.6766 H   0  0  0  0  0  0  0  0  0  0  0  0
   59.6107   31.2769   45.8201 H   0  0  0  0  0  0  0  0  0  0  0  0
   59.5130   28.9376   46.6783 H   0  0  0  0  0  0  0  0  0  0  0  0
   51.6501   23.9584   45.9094 H   0  0  0  0  0  0  0  0  0  0  0  0
   51.5690   24.8530   44.3538 H   0  0  0  0  0  0  0  0  0  0  0  0
   51.7623   23.0672   44.3538 H   0  0  0  0  0  0  0  0  0  0  0  0
   53.8805   22.5761   43.4443 H   0  0  0  0  0  0  0  0  0  0  0  0
   57.2883   22.1444   43.8802 H   0  0  0  0  0  0  0  0  0  0  0  0
   56.0162   22.0736   42.6139 H   0  0  0  0  0  0  0  0  0  0  0  0
   57.2097   23.4161   42.6139 H   0  0  0  0  0  0  0  0  0  0  0  0
   55.7616   28.3339   44.6036 H   0  0  0  0  0  0  0  0  0  0  0  0
   55.8478   30.6787   43.7650 H   0  0  0  0  0  0  0  0  0  0  0  0
   57.5336   33.8801   47.7571 H   0  0  0  0  0  0  0  0  0  0  0  0
  1  2  1  0
  2  3  1  0
  3  4  2  0
  4  5  1  0
  5  6  1  0
  6  7  1  0
  5  8  2  0
  8  9  1  0
  9 10  1  0
 10 11  2  0
 10 12  1  0
 12 13  1  0
 13 14  2  0
 14 15  1  0
 15 16  2  0
 16 17  1  0
 17 18  2  0
 17 19  2  0
 17 20  1  0
 20 21  2  3
 21 22  1  0
 22 23  2  0
 23 24  1  0
 23 25  1  0
 25 26  2  0
 26 27  1  0
 26 28  1  0
 16 29  1  0
 29 30  2  0
  9 31  2  0
 31  3  1  0
 30 13  1  0
 28 21  1  0
  1 32  1  0
  1 33  1  0
  1 34  1  0
  4 35  1  0
  7 36  1  0
  7 37  1  0
  7 38  1  0
  8 39  1  0
 14 40  1  0
 15 41  1  0
 24 42  1  0
 24 43  1  0
 24 44  1  0
 25 45  1  0
 27 46  1  0
 27 47  1  0
 27 48  1  0
 29 49  1  0
 30 50  1  0
 31 51  1  0
M  CHG  2  12  -1  28  -1
M  END
>  <UniqueID>  (32) 
26

>  <SMILES>  (32) 
COc1cc(OC)cc(C(=O)[N-]c2ccc(S(=O)(=O)N=c3nc(C)cc(C)[n-]3)cc2)c1

>  <Energy>  (32) 
58.856300602138724

>  <Genealogy>  (32) 
COc1cc(OC)cc(C(=O)[N-]c2ccc(S(=O)(=O)N=c3nc(C)cc(C)[n-]3)cc2)c1 (protonated)
COc1cc(OC)cc(C(=O)[N-]c2ccc(S(=O)(=O)N=c3nc(C)cc(C)[n-]3)cc2)c1 (3D coordinates assigned)
COc1cc(OC)cc(C(=O)[N-]c2ccc(S(=O)(=O)N=c3nc(C)cc(C)[n-]3)cc2)c1 (optimized conformer: 58.856300602138724 kcal/mol)

>  <smiles>  (32) 
COc1cc(OC)cc(C(=O)Nc2ccc(S(=O)(=O)N=c3nc(C)cc(C)[nH]3)cc2)c1

>  <score_type>  (32) 
oracle

>  <origin>  (32) 
adg

>  <m_score__min__energy>  (32) 
-11.550000000000001

>  <m_primary>  (32) 
energy

$$$$
32:0
     RDKit          3D

 54 58  0  0  0  0  0  0  0  0999 V2000
   60.3000   27.4890   47.3330 C   0  0  0  0  0  0  0  0  0  0  0  0
   59.4110   27.7510   46.1330 C   0  0  0  0  0  0  0  0  0  0  0  0
   59.2470   29.0750   45.6330 C   0  0  0  0  0  0  0  0  0  0  0  0
   59.7570   30.2630   46.3580 C   0  0  0  0  0  0  0  0  0  0  0  0
   59.1940   31.5290   46.3570 C   0  0  0  0  0  0  0  0  0  0  0  0
   59.9900   32.3030   47.1730 C   0  0  0  0  0  0  0  0  0  0  0  0
   60.9890   31.4580   47.6280 C   0  0  0  0  0  0  0  0  0  0  0  0
   62.0770   31.8080   48.5080 N   0  0  0  0  0  0  0  0  0  0  0  0
   63.1740   32.6700   48.0370 C   0  0  0  0  0  0  0  0  0  0  0  0
   63.7560   33.4930   49.1910 C   0  0  0  0  0  0  0  0  0  0  0  0
   64.0040   32.6210   50.3410 N   0  0  0  0  0  0  0  0  0  0  0  0
   65.3450   32.2250   50.6860 C   0  0  0  0  0  0  0  0  0  0  0  0
   65.6040   31.0010   50.8510 O   0  0  0  0  0  0  0  0  0  0  0  0
   66.4220   33.2270   50.8630 C   0  0  0  0  0  0  0  0  0  0  0  0
   66.2700   34.2930   51.7680 C   0  0  0  0  0  0  0  0  0  0  0  0
   67.2950   35.2280   51.9390 C   0  0  0  0  0  0  0  0  0  0  0  0
   68.4830   35.1050   51.2150 C   0  0  0  0  0  0  0  0  0  0  0  0
   68.6500   34.0450   50.3220 C   0  0  0  0  0  0  0  0  0  0  0  0
   67.6280   33.1060   50.1480 C   0  0  0  0  0  0  0  0  0  0  0  0
   62.8550   31.8700   50.8480 C   0  0  0  0  0  0  0  0  0  0  0  0
   62.2810   31.0060   49.7250 C   0  0  0  0  0  0  0  0  0  0  0  0
   60.8220   30.2550   47.1290 O   0  0  0  0  0  0  0  0  0  0  0  0
   58.5380   29.2800   44.4400 C   0  0  0  0  0  0  0  0  0  0  0  0
   57.9530   28.2170   43.7610 C   0  0  0  0  0  0  0  0  0  0  0  0
   58.0280   26.9210   44.2770 C   0  0  0  0  0  0  0  0  0  0  0  0
   57.4050   25.8940   43.6250 N   0  0  0  0  0  0  0  0  0  0  0  0
   57.4310   24.6240   44.1070 C   0  0  0  0  0  0  0  0  0  0  0  0
   58.0930   24.3380   45.2970 C   0  0  0  0  0  0  0  0  0  0  0  0
   58.7440   25.3600   45.9850 C   0  0  0  0  0  0  0  0  0  0  0  0
   58.7420   26.6780   45.4790 C   0  0  0  0  0  0  0  0  0  0  0  0
   59.7277   27.6577   48.2571 H   0  0  0  0  0  0  0  0  0  0  0  0
   60.6547   26.4481   47.3062 H   0  0  0  0  0  0  0  0  0  0  0  0
   61.1625   28.1711   47.3062 H   0  0  0  0  0  0  0  0  0  0  0  0
   58.2932   31.8512   45.8142 H   0  0  0  0  0  0  0  0  0  0  0  0
   59.8596   33.3686   47.4129 H   0  0  0  0  0  0  0  0  0  0  0  0
   63.9674   32.0409   47.6072 H   0  0  0  0  0  0  0  0  0  0  0  0
   62.7777   33.3602   47.2777 H   0  0  0  0  0  0  0  0  0  0  0  0
   64.7019   33.9543   48.8709 H   0  0  0  0  0  0  0  0  0  0  0  0
   63.0407   34.2785   49.4761 H   0  0  0  0  0  0  0  0  0  0  0  0
   65.3386   34.3915   52.3449 H   0  0  0  0  0  0  0  0  0  0  0  0
   67.1657   36.0618   52.6448 H   0  0  0  0  0  0  0  0  0  0  0  0
   69.2872   35.8435   51.3484 H   0  0  0  0  0  0  0  0  0  0  0  0
   69.5871   33.9480   49.7541 H   0  0  0  0  0  0  0  0  0  0  0  0
   67.7677   32.2686   49.4486 H   0  0  0  0  0  0  0  0  0  0  0  0
   63.1752   31.2258   51.6802 H   0  0  0  0  0  0  0  0  0  0  0  0
   62.0852   32.5703   51.2045 H   0  0  0  0  0  0  0  0  0  0  0  0
   62.9813   30.1868   49.5050 H   0  0  0  0  0  0  0  0  0  0  0  0
   61.3113   30.6004   50.0495 H   0  0  0  0  0  0  0  0  0  0  0  0
   58.4433   30.2984   44.0351 H   0  0  0  0  0  0  0  0  0  0  0  0
   57.4278   28.3977   42.8115 H   0  0  0  0  0  0  0  0  0  0  0  0
   56.8860   26.0730   42.7360 H   0  0  0  0  0  0  0  0  0  0  0  0
   56.9264   23.8181   43.5539 H   0  0  0  0  0  0  0  0  0  0  0  0
   58.1024   23.3115   45.6922 H   0  0  0  0  0  0  0  0  0  0  0  0
   59.2632   25.1383   46.9291 H   0  0  0  0  0  0  0  0  0  0  0  0
  1  2  1  0
  2  3  2  0
  3  4  1  0
  4  5  2  0
  5  6  1  0
  6  7  2  0
  7  8  1  0
  8  9  1  0
  9 10  1  0
 10 11  1  0
 11 12  1  0
 12 13  2  0
 12 14  1  0
 14 15  2  0
 15 16  1  0
 16 17  2  0
 17 18  1  0
 18 19  2  0
 11 20  1  0
 20 21  1  0
  7 22  1  0
  3 23  1  0
 23 24  2  0
 24 25  1  0
 25 26  2  0
 26 27  1  0
 27 28  2  0
 28 29  1  0
 29 30  2  0
 30  2  1  0
 22  4  1  0
 30 25  1  0
 21  8  1  0
 19 14  1  0
  1 31  1  0
  1 32  1  0
  1 33  1  0
  5 34  1  0
  6 35  1  0
  9 36  1  0
  9 37  1  0
 10 38  1  0
 10 39  1  0
 15 40  1  0
 16 41  1  0
 17 42  1  0
 18 43  1  0
 19 44  1  0
 20 45  1  0
 20 46  1  0
 21 47  1  0
 21 48  1  0
 23 49  1  0
 24 50  1  0
 26 51  1  0
 27 52  1  0
 28 53  1  0
 29 54  1  0
M  CHG  1  26   1
M  END
>  <UniqueID>  (33) 
27

>  <SMILES>  (33) 
Cc1c(-c2ccc(N3CCN(C(=O)c4ccccc4)CC3)o2)ccc2[nH+]cccc12

>  <Energy>  (33) 
102.82177549113693

>  <Genealogy>  (33) 
Cc1c(-c2ccc(N3CCN(C(=O)c4ccccc4)CC3)o2)ccc2[nH+]cccc12 (protonated)
Cc1c(-c2ccc(N3CCN(C(=O)c4ccccc4)CC3)o2)ccc2[nH+]cccc12 (3D coordinates assigned)
Cc1c(-c2ccc(N3CCN(C(=O)c4ccccc4)CC3)o2)ccc2[nH+]cccc12 (nonaromatic ring conformer: 102.82177549113693 kcal/mol)

>  <smiles>  (33) 
Cc1c(-c2ccc(N3CCN(C(=O)c4ccccc4)CC3)o2)ccc2ncccc12

>  <score_type>  (33) 
oracle

>  <origin>  (33) 
adg

>  <m_score__min__energy>  (33) 
-7.0700000000000003

>  <m_primary>  (33) 
energy

$$$$
33:0
     RDKit          3D

 47 49  0  0  0  0  0  0  0  0999 V2000
   56.4710   22.4520   48.6330 C   0  0  0  0  0  0  0  0  0  0  0  0
   57.3730   22.1130   47.5880 O   0  0  0  0  0  0  0  0  0  0  0  0
   57.2050   22.3840   46.2180 C   0  0  0  0  0  0  0  0  0  0  0  0
   57.5470   21.3560   45.3310 C   0  0  0  0  0  0  0  0  0  0  0  0
   57.4210   21.5250   43.9540 C   0  0  0  0  0  0  0  0  0  0  0  0
   56.9470   22.7270   43.4410 C   0  0  0  0  0  0  0  0  0  0  0  0
   56.6140   23.7710   44.3030 C   0  0  0  0  0  0  0  0  0  0  0  0
   56.7310   23.6160   45.6950 C   0  0  0  0  0  0  0  0  0  0  0  0
   56.2760   24.6590   46.5630 N   0  0  0  0  0  0  0  0  0  0  0  0
   56.0020   26.0070   46.1690 C   0  0  0  0  0  0  0  0  0  0  0  0
   54.8030   26.3510   45.9960 O   0  0  0  0  0  0  0  0  0  0  0  0
   57.0810   27.0160   46.0430 C   0  0  0  0  0  0  0  0  0  0  0  0
   58.3060   26.8500   46.7120 C   0  0  0  0  0  0  0  0  0  0  0  0
   59.2670   27.8650   46.6940 C   0  0  0  0  0  0  0  0  0  0  0  0
   59.0330   29.0550   45.9860 C   0  0  0  0  0  0  0  0  0  0  0  0
   60.0290   30.1910   46.0320 C   0  0  0  0  0  0  0  0  0  0  0  0
   60.5540   30.4250   47.3860 N   0  0  0  0  0  0  0  0  0  0  0  0
   60.2190   32.0400   47.9380 S   0  0  0  0  0  0  0  0  0  0  0  0
   61.5120   32.7720   48.1580 O   0  0  0  0  0  0  0  0  0  0  0  0
   59.4860   31.9690   49.2450 O   0  0  0  0  0  0  0  0  0  0  0  0
   59.2190   32.9030   46.7780 C   0  0  0  0  0  0  0  0  0  0  0  0
   59.7960   33.8880   45.9660 C   0  0  0  0  0  0  0  0  0  0  0  0
   59.0160   34.5740   45.0320 C   0  0  0  0  0  0  0  0  0  0  0  0
   57.6560   34.2780   44.9060 C   0  0  0  0  0  0  0  0  0  0  0  0
   57.0750   33.2950   45.7130 C   0  0  0  0  0  0  0  0  0  0  0  0
   57.8530   32.6070   46.6470 C   0  0  0  0  0  0  0  0  0  0  0  0
   57.8240   29.2090   45.2930 C   0  0  0  0  0  0  0  0  0  0  0  0
   56.8550   28.2020   45.3240 C   0  0  0  0  0  0  0  0  0  0  0  0
   56.9520   22.2712   49.6056 H   0  0  0  0  0  0  0  0  0  0  0  0
   56.1975   23.5143   48.5510 H   0  0  0  0  0  0  0  0  0  0  0  0
   55.5655   21.8328   48.5510 H   0  0  0  0  0  0  0  0  0  0  0  0
   57.9208   20.4005   45.7275 H   0  0  0  0  0  0  0  0  0  0  0  0
   57.6967   20.7070   43.2722 H   0  0  0  0  0  0  0  0  0  0  0  0
   56.8346   22.8545   42.3542 H   0  0  0  0  0  0  0  0  0  0  0  0
   56.2562   24.7255   43.8895 H   0  0  0  0  0  0  0  0  0  0  0  0
   58.5099   25.9146   47.2537 H   0  0  0  0  0  0  0  0  0  0  0  0
   60.2134   27.7306   47.2384 H   0  0  0  0  0  0  0  0  0  0  0  0
   60.8695   29.9505   45.3644 H   0  0  0  0  0  0  0  0  0  0  0  0
   59.5079   31.1056   45.7127 H   0  0  0  0  0  0  0  0  0  0  0  0
   60.1430   29.7530   48.0720 H   0  0  0  0  0  0  0  0  0  0  0  0
   60.8664   34.1219   46.0642 H   0  0  0  0  0  0  0  0  0  0  0  0
   59.4721   35.3469   44.3959 H   0  0  0  0  0  0  0  0  0  0  0  0
   57.0419   34.8190   44.1711 H   0  0  0  0  0  0  0  0  0  0  0  0
   56.0044   33.0633   45.6122 H   0  0  0  0  0  0  0  0  0  0  0  0
   57.3951   31.8328   47.2802 H   0  0  0  0  0  0  0  0  0  0  0  0
   57.6365   30.1294   44.7205 H   0  0  0  0  0  0  0  0  0  0  0  0
   55.9081   28.3390   44.7813 H   0  0  0  0  0  0  0  0  0  0  0  0
  1  2  1  0
  2  3  1  0
  3  4  2  0
  4  5  1  0
  5  6  2  0
  6  7  1  0
  7  8  2  0
  8  9  1  0
  9 10  1  0
 10 11  2  0
 10 12  1  0
 12 13  2  0
 13 14  1  0
 14 15  2  0
 15 16  1  0
 16 17  1  0
 17 18  1  0
 18 19  2  0
 18 20  2  0
 18 21  1  0
 21 22  2  0
 22 23  1  0
 23 24  2  0
 24 25  1  0
 25 26  2  0
 15 27  1  0
 27 28  2  0
  8  3  1  0
 28 12  1  0
 26 21  1  0
  1 29  1  0
  1 30  1  0
  1 31  1  0
  4 32  1  0
  5 33  1  0
  6 34  1  0
  7 35  1  0
 13 36  1  0
 14 37  1  0
 16 38  1  0
 16 39  1  0
 17 40  1  0
 22 41  1  0
 23 42  1  0
 24 43  1  0
 25 44  1  0
 26 45  1  0
 27 46  1  0
 28 47  1  0
M  CHG  1   9  -1
M  END
>  <UniqueID>  (34) 
28

>  <SMILES>  (34) 
COc1ccccc1[N-]C(=O)c1ccc(CNS(=O)(=O)c2ccccc2)cc1

>  <Energy>  (34) 
56.0704762970502

>  <Genealogy>  (34) 
COc1ccccc1[N-]C(=O)c1ccc(CNS(=O)(=O)c2ccccc2)cc1 (protonated)
COc1ccccc1[N-]C(=O)c1ccc(CNS(=O)(=O)c2ccccc2)cc1 (3D coordinates assigned)
COc1ccccc1[N-]C(=O)c1ccc(CNS(=O)(=O)c2ccccc2)cc1 (optimized conformer: 56.0704762970502 kcal/mol)

>  <smiles>  (34) 
COc1ccccc1NC(=O)c1ccc(CNS(=O)(=O)c2ccccc2)cc1

>  <score_type>  (34) 
oracle

>  <origin>  (34) 
adg

>  <m_score__min__energy>  (34) 
-12.01

>  <m_primary>  (34) 
energy

$$$$
34:0
     RDKit          3D

 55 58  0  0  1  0  0  0  0  0999 V2000
   59.6970   35.9640   46.6480 N   0  0  0  0  0  0  0  0  0  0  0  0
   60.0300   34.5540   46.6440 C   0  0  0  0  0  0  0  0  0  0  0  0
   61.0910   34.2850   47.2270 O   0  0  0  0  0  0  0  0  0  0  0  0
   59.1050   33.6710   45.9810 C   0  0  0  0  0  0  0  0  0  0  0  0
   58.2990   34.1890   44.9610 C   0  0  0  0  0  0  0  0  0  0  0  0
   57.3800   33.4430   44.2700 C   0  0  0  0  0  0  0  0  0  0  0  0
   57.2180   32.1110   44.5690 C   0  0  0  0  0  0  0  0  0  0  0  0
   58.0120   31.5990   45.5740 C   0  0  0  0  0  0  0  0  0  0  0  0
   57.8560   30.2710   45.8750 C   0  0  0  0  0  0  0  0  0  0  0  0
   56.9960   29.5480   45.2370 N   0  0  0  0  0  0  0  0  0  0  0  0
   57.1690   28.1490   45.0420 C   0  0  0  0  0  0  0  0  0  0  0  0
   56.6920   27.2750   45.9790 C   0  0  0  0  0  0  0  0  0  0  0  0
   56.8530   25.8920   45.8060 C   0  0  0  0  0  0  0  0  0  0  0  0
   57.4720   25.3330   44.7350 C   0  0  0  0  0  0  0  0  0  0  0  0
   57.8400   23.9820   44.4730 C   0  0  0  0  0  0  0  0  0  0  0  0
   57.1580   22.8880   44.6400 C   0  0  0  0  0  0  0  0  0  0  0  0
   56.4300   22.1540   43.6460 C   0  0  0  0  0  0  0  0  0  0  0  0
   55.8740   22.5380   42.6180 O   0  0  0  0  0  0  0  0  0  0  0  0
   56.3260   20.7580   43.8680 O   0  0  0  0  0  0  0  0  0  0  0  0
   57.9520   26.2700   43.7840 C   0  0  0  0  0  0  0  0  0  0  0  0
   57.8000   27.6100   43.9410 C   0  0  0  0  0  0  0  0  0  0  0  0
   58.5990   29.7380   46.8270 N   0  0  0  0  0  0  0  0  0  0  0  0
   59.5400   30.4460   47.5520 C   0  0  0  0  0  0  0  0  0  0  0  0
   60.2150   29.6820   48.5680 C   0  0  0  0  0  0  0  0  0  0  0  0
   61.3420   30.1610   49.3690 C   0  0  0  0  0  0  0  0  0  0  0  0
   62.1750   31.2430   48.8290 C   0  0  0  0  0  0  0  0  0  0  0  0
   62.7000   31.3600   47.5860 C   0  0  0  0  0  0  0  0  0  0  0  0
   63.5050   32.4140   47.1830 C   0  0  0  0  0  0  0  0  0  0  0  0
   63.8160   33.4260   48.0610 C   0  0  0  0  0  0  0  0  0  0  0  0
   63.2910   33.3370   49.3500 C   0  0  0  0  0  0  0  0  0  0  0  0
   62.4920   32.2800   49.7300 C   0  0  0  0  0  0  0  0  0  0  0  0
   59.6550   31.7310   47.2230 N   0  0  0  0  0  0  0  0  0  0  0  0
   58.9370   32.3390   46.2730 C   0  0  0  0  0  0  0  0  0  0  0  0
   60.3360   36.6480   46.1760 H   0  0  0  0  0  0  0  0  0  0  0  0
   58.8170   36.2590   47.1260 H   0  0  0  0  0  0  0  0  0  0  0  0
   58.4089   35.2519   44.6998 H   0  0  0  0  0  0  0  0  0  0  0  0
   56.7740   33.9086   43.4788 H   0  0  0  0  0  0  0  0  0  0  0  0
   56.4905   31.4839   44.0328 H   0  0  0  0  0  0  0  0  0  0  0  0
   56.1792   27.6583   46.8735 H   0  0  0  0  0  0  0  0  0  0  0  0
   56.4549   25.2224   46.5826 H   0  0  0  0  0  0  0  0  0  0  0  0
   58.8536   23.8437   44.0686 H   0  0  0  0  0  0  0  0  0  0  0  0
   57.1369   22.4783   45.6606 H   0  0  0  0  0  0  0  0  0  0  0  0
   57.1950   20.2020   43.7580 H   0  0  0  0  0  0  0  0  0  0  0  0
   58.4664   25.8970   42.8861 H   0  0  0  0  0  0  0  0  0  0  0  0
   58.1920   28.2858   43.1667 H   0  0  0  0  0  0  0  0  0  0  0  0
   59.4357   29.4064   49.2938 H   0  0  0  0  0  0  0  0  0  0  0  0
   60.7202   28.9283   47.9462 H   0  0  0  0  0  0  0  0  0  0  0  0
   60.9328   30.5135   50.3273 H   0  0  0  0  0  0  0  0  0  0  0  0
   62.0218   29.2978   49.4210 H   0  0  0  0  0  0  0  0  0  0  0  0
   62.4741   30.5718   46.8527 H   0  0  0  0  0  0  0  0  0  0  0  0
   63.8972   32.4412   46.1556 H   0  0  0  0  0  0  0  0  0  0  0  0
   64.4526   34.2707   47.7590 H   0  0  0  0  0  0  0  0  0  0  0  0
   63.5196   34.1278   50.0796 H   0  0  0  0  0  0  0  0  0  0  0  0
   62.0944   32.2450   50.7550 H   0  0  0  0  0  0  0  0  0  0  0  0
   60.3380   32.2930   47.7460 H   0  0  0  0  0  0  0  0  0  0  0  0
  1  2  1  0
  2  3  2  0
  2  4  1  0
  4  5  2  0
  5  6  1  0
  6  7  2  0
  7  8  1  0
  8  9  1  0
  9 10  2  0
 10 11  1  0
 11 12  2  0
 12 13  1  0
 13 14  2  0
 14 15  1  0
 15 16  2  0
 16 17  1  0
 17 18  2  0
 17 19  1  0
 14 20  1  0
 20 21  2  0
  9 22  1  0
 22 23  2  0
 23 24  1  0
 24 25  1  0
 25 26  1  0
 26 27  2  0
 27 28  1  0
 28 29  2  0
 29 30  1  0
 30 31  2  0
 23 32  1  0
 32 33  1  0
 33  4  1  0
 33  8  2  0
 21 11  1  0
 31 26  1  0
  1 34  1  0
  1 35  1  0
  5 36  1  0
  6 37  1  0
  7 38  1  0
 12 39  1  0
 13 40  1  0
 15 41  1  0
 16 42  1  0
 19 43  1  0
 20 44  1  0
 21 45  1  0
 24 46  1  0
 24 47  1  0
 25 48  1  0
 25 49  1  0
 27 50  1  0
 28 51  1  0
 29 52  1  0
 30 53  1  0
 31 54  1  0
 32 55  1  0
M  END
>  <smiles>  (35) 
NC(=O)c1cccc2c(=Nc3ccc(C=CC(=O)O)cc3)nc(CCc3ccccc3)[nH]c12

>  <score_type>  (35) 
oracle

>  <origin>  (35) 
adg

>  <m_score__min__energy>  (35) 
-10.31

>  <m_primary>  (35) 
energy

$$$$
35:0
     RDKit          3D

 47 50  0  0  0  0  0  0  0  0999 V2000
   57.6710   29.8810   51.2270 O   0  0  0  0  0  0  0  0  0  0  0  0
   58.7120   30.0570   50.5350 C   0  0  0  0  0  0  0  0  0  0  0  0
   59.2390   28.9740   49.7610 N   0  0  0  0  0  0  0  0  0  0  0  0
   59.4340   29.0160   48.3410 C   0  0  0  0  0  0  0  0  0  0  0  0
   58.5290   28.3260   47.5250 C   0  0  0  0  0  0  0  0  0  0  0  0
   58.6440   28.3860   46.1340 C   0  0  0  0  0  0  0  0  0  0  0  0
   59.6710   29.1280   45.5480 C   0  0  0  0  0  0  0  0  0  0  0  0
   60.6010   29.7910   46.3520 C   0  0  0  0  0  0  0  0  0  0  0  0
   60.5180   29.7130   47.7480 C   0  0  0  0  0  0  0  0  0  0  0  0
   61.5200   30.3390   48.5040 O   0  0  0  0  0  0  0  0  0  0  0  0
   62.2050   31.5050   48.1280 C   0  0  0  0  0  0  0  0  0  0  0  0
   63.4420   31.8640   48.6980 C   0  0  0  0  0  0  0  0  0  0  0  0
   64.0700   33.0560   48.3220 C   0  0  0  0  0  0  0  0  0  0  0  0
   63.4800   33.8880   47.3680 C   0  0  0  0  0  0  0  0  0  0  0  0
   62.2670   33.5240   46.7770 C   0  0  0  0  0  0  0  0  0  0  0  0
   61.6360   32.3340   47.1500 C   0  0  0  0  0  0  0  0  0  0  0  0
   59.3660   31.3840   50.4950 C   0  0  0  0  0  0  0  0  0  0  0  0
   58.9580   32.3480   49.5590 C   0  0  0  0  0  0  0  0  0  0  0  0
   59.6360   33.5740   49.4770 C   0  0  0  0  0  0  0  0  0  0  0  0
   59.2680   34.5660   48.5550 O   0  0  0  0  0  0  0  0  0  0  0  0
   58.9150   34.3390   47.2170 C   0  0  0  0  0  0  0  0  0  0  0  0
   59.5430   35.0180   46.1550 C   0  0  0  0  0  0  0  0  0  0  0  0
   59.1520   34.7750   44.8350 C   0  0  0  0  0  0  0  0  0  0  0  0
   58.1250   33.8670   44.5650 C   0  0  0  0  0  0  0  0  0  0  0  0
   57.4850   33.2050   45.6150 C   0  0  0  0  0  0  0  0  0  0  0  0
   57.8740   33.4450   46.9370 C   0  0  0  0  0  0  0  0  0  0  0  0
   60.6810   33.8330   50.3640 C   0  0  0  0  0  0  0  0  0  0  0  0
   61.0620   32.8590   51.2860 C   0  0  0  0  0  0  0  0  0  0  0  0
   60.4120   31.6650   51.3310 N   0  0  0  0  0  0  0  0  0  0  0  0
   57.7228   27.7333   47.9819 H   0  0  0  0  0  0  0  0  0  0  0  0
   57.9243   27.8478   45.4996 H   0  0  0  0  0  0  0  0  0  0  0  0
   59.7479   29.1906   44.4525 H   0  0  0  0  0  0  0  0  0  0  0  0
   61.4049   30.3790   45.8852 H   0  0  0  0  0  0  0  0  0  0  0  0
   63.9155   31.2052   49.4408 H   0  0  0  0  0  0  0  0  0  0  0  0
   65.0301   33.3385   48.7785 H   0  0  0  0  0  0  0  0  0  0  0  0
   63.9702   34.8302   47.0817 H   0  0  0  0  0  0  0  0  0  0  0  0
   61.8085   34.1746   46.0177 H   0  0  0  0  0  0  0  0  0  0  0  0
   60.6873   32.0458   46.6737 H   0  0  0  0  0  0  0  0  0  0  0  0
   58.1084   32.1425   48.8912 H   0  0  0  0  0  0  0  0  0  0  0  0
   60.3440   35.7421   46.3649 H   0  0  0  0  0  0  0  0  0  0  0  0
   59.6534   35.2992   44.0081 H   0  0  0  0  0  0  0  0  0  0  0  0
   57.8207   33.6736   43.5258 H   0  0  0  0  0  0  0  0  0  0  0  0
   56.6735   32.4936   45.4020 H   0  0  0  0  0  0  0  0  0  0  0  0
   57.3596   32.9288   47.7610 H   0  0  0  0  0  0  0  0  0  0  0  0
   61.2021   34.8013   50.3362 H   0  0  0  0  0  0  0  0  0  0  0  0
   61.8920   33.0570   51.9802 H   0  0  0  0  0  0  0  0  0  0  0  0
   60.7380   30.9580   52.0280 H   0  0  0  0  0  0  0  0  0  0  0  0
  1  2  2  0
  2  3  1  0
  3  4  1  0
  4  5  2  0
  5  6  1  0
  6  7  2  0
  7  8  1  0
  8  9  2  0
  9 10  1  0
 10 11  1  0
 11 12  2  0
 12 13  1  0
 13 14  2  0
 14 15  1  0
 15 16  2  0
  2 17  1  0
 17 18  2  0
 18 19  1  0
 19 20  1  0
 20 21  1  0
 21 22  2  0
 22 23  1  0
 23 24  2  0
 24 25  1  0
 25 26  2  0
 19 27  2  0
 27 28  1  0
 28 29  2  0
  9  4  1  0
 16 11  1  0
 29 17  1  0
 26 21  1  0
  5 30  1  0
  6 31  1  0
  7 32  1  0
  8 33  1  0
 12 34  1  0
 13 35  1  0
 14 36  1  0
 15 37  1  0
 16 38  1  0
 18 39  1  0
 22 40  1  0
 23 41  1  0
 24 42  1  0
 25 43  1  0
 26 44  1  0
 27 45  1  0
 28 46  1  0
 29 47  1  0
M  CHG  2   3  -1  29   1
M  END
>  <UniqueID>  (36) 
29

>  <SMILES>  (36) 
O=C([N-]c1ccccc1Oc1ccccc1)c1cc(Oc2ccccc2)cc[nH+]1

>  <Energy>  (36) 
68.71907348810379

>  <Genealogy>  (36) 
O=C([N-]c1ccccc1Oc1ccccc1)c1cc(Oc2ccccc2)cc[nH+]1 (protonated)
O=C([N-]c1ccccc1Oc1ccccc1)c1cc(Oc2ccccc2)cc[nH+]1 (3D coordinates assigned)
O=C([N-]c1ccccc1Oc1ccccc1)c1cc(Oc2ccccc2)cc[nH+]1 (optimized conformer: 68.71907348810379 kcal/mol)

>  <smiles>  (36) 
O=C(Nc1ccccc1Oc1ccccc1)c1cc(Oc2ccccc2)ccn1

>  <score_type>  (36) 
oracle

>  <origin>  (36) 
adg

>  <m_score__min__energy>  (36) 
-8.9000000000000004

>  <m_primary>  (36) 
energy

$$$$
36:0
     RDKit          3D

 59 62  0  0  0  0  0  0  0  0999 V2000
   60.3530   29.9340   49.0520 O   0  0  0  0  0  0  0  0  0  0  0  0
   59.7600   30.1120   47.9530 C   0  0  0  0  0  0  0  0  0  0  0  0
   58.4360   29.4540   47.7180 C   0  0  0  0  0  0  0  0  0  0  0  0
   58.4170   28.7750   46.4200 N   0  0  0  0  0  0  0  0  0  0  0  0
   57.8130   29.4220   45.2920 C   0  0  0  0  0  0  0  0  0  0  0  0
   58.5430   30.3480   44.5330 C   0  0  0  0  0  0  0  0  0  0  0  0
   57.9420   31.0050   43.4560 C   0  0  0  0  0  0  0  0  0  0  0  0
   56.6110   30.7360   43.1270 C   0  0  0  0  0  0  0  0  0  0  0  0
   55.8800   29.8070   43.8760 C   0  0  0  0  0  0  0  0  0  0  0  0
   56.4790   29.1510   44.9560 C   0  0  0  0  0  0  0  0  0  0  0  0
   59.3020   27.2990   46.1670 S   0  0  0  0  0  0  0  0  0  0  0  0
   59.7830   26.7520   47.4830 O   0  0  0  0  0  0  0  0  0  0  0  0
   60.5020   27.5640   45.3010 O   0  0  0  0  0  0  0  0  0  0  0  0
   58.2670   26.1070   45.3840 C   0  0  0  0  0  0  0  0  0  0  0  0
   57.6040   25.1310   46.1390 C   0  0  0  0  0  0  0  0  0  0  0  0
   56.8100   24.1710   45.5060 C   0  0  0  0  0  0  0  0  0  0  0  0
   56.6480   24.1850   44.1100 C   0  0  0  0  0  0  0  0  0  0  0  0
   55.8210   23.2060   43.4540 N   0  0  0  0  0  0  0  0  0  0  0  0
   56.3190   22.1570   42.9950 O   0  0  0  0  0  0  0  0  0  0  0  0
   54.4670   23.4090   43.3240 O   0  0  0  0  0  0  0  0  0  0  0  0
   57.3060   25.1750   43.3600 C   0  0  0  0  0  0  0  0  0  0  0  0
   58.1170   26.1210   43.9920 C   0  0  0  0  0  0  0  0  0  0  0  0
   60.3680   30.9030   46.9210 N   0  0  0  0  0  0  0  0  0  0  0  0
   61.4390   31.8280   47.1740 C   0  0  0  0  0  0  0  0  0  0  0  0
   62.7320   31.3500   47.4600 C   0  0  0  0  0  0  0  0  0  0  0  0
   63.7670   32.2360   47.7630 C   0  0  0  0  0  0  0  0  0  0  0  0
   63.5240   33.6100   47.7960 C   0  0  0  0  0  0  0  0  0  0  0  0
   62.2450   34.0990   47.5240 C   0  0  0  0  0  0  0  0  0  0  0  0
   61.1930   33.2190   47.2190 C   0  0  0  0  0  0  0  0  0  0  0  0
   59.8990   33.7580   46.8920 N   0  0  0  0  0  0  0  0  0  0  0  0
   58.7900   33.6500   47.8440 C   0  0  0  0  0  0  0  0  0  0  0  0
   57.4910   33.2320   47.1240 C   0  0  0  0  0  0  0  0  0  0  0  0
   57.7010   32.9600   45.7490 O   0  0  0  0  0  0  0  0  0  0  0  0
   58.2270   34.1070   45.1130 C   0  0  0  0  0  0  0  0  0  0  0  0
   59.6640   34.3800   45.5840 C   0  0  0  0  0  0  0  0  0  0  0  0
   58.2531   28.7168   48.5136 H   0  0  0  0  0  0  0  0  0  0  0  0
   57.6521   30.2257   47.7244 H   0  0  0  0  0  0  0  0  0  0  0  0
   59.5926   30.5580   44.7863 H   0  0  0  0  0  0  0  0  0  0  0  0
   58.5172   31.7344   42.8669 H   0  0  0  0  0  0  0  0  0  0  0  0
   56.1380   31.2541   42.2798 H   0  0  0  0  0  0  0  0  0  0  0  0
   54.8332   29.5926   43.6149 H   0  0  0  0  0  0  0  0  0  0  0  0
   55.9025   28.4210   45.5431 H   0  0  0  0  0  0  0  0  0  0  0  0
   57.7087   25.1202   47.2339 H   0  0  0  0  0  0  0  0  0  0  0  0
   56.3074   23.3977   46.1055 H   0  0  0  0  0  0  0  0  0  0  0  0
   57.1815   25.2052   42.2675 H   0  0  0  0  0  0  0  0  0  0  0  0
   58.6404   26.8807   43.3929 H   0  0  0  0  0  0  0  0  0  0  0  0
   60.0220   30.7940   45.9410 H   0  0  0  0  0  0  0  0  0  0  0  0
   62.9284   30.2678   47.4445 H   0  0  0  0  0  0  0  0  0  0  0  0
   64.7752   31.8510   47.9760 H   0  0  0  0  0  0  0  0  0  0  0  0
   64.3400   34.3074   48.0363 H   0  0  0  0  0  0  0  0  0  0  0  0
   62.0592   35.1829   47.5487 H   0  0  0  0  0  0  0  0  0  0  0  0
   59.0396   32.8959   48.6049 H   0  0  0  0  0  0  0  0  0  0  0  0
   58.6325   34.6311   48.3158 H   0  0  0  0  0  0  0  0  0  0  0  0
   57.0946   32.3267   47.6070 H   0  0  0  0  0  0  0  0  0  0  0  0
   56.7819   34.0698   47.1965 H   0  0  0  0  0  0  0  0  0  0  0  0
   58.2282   33.9475   44.0246 H   0  0  0  0  0  0  0  0  0  0  0  0
   57.6001   34.9730   45.3718 H   0  0  0  0  0  0  0  0  0  0  0  0
   60.3711   33.9630   44.8518 H   0  0  0  0  0  0  0  0  0  0  0  0
   59.8105   35.4665   45.6734 H   0  0  0  0  0  0  0  0  0  0  0  0
  1  2  2  0
  2  3  1  0
  3  4  1  0
  4  5  1  0
  5  6  2  0
  6  7  1  0
  7  8  2  0
  8  9  1  0
  9 10  2  0
  4 11  1  0
 11 12  2  0
 11 13  2  0
 11 14  1  0
 14 15  2  0
 15 16  1  0
 16 17  2  0
 17 18  1  0
 18 19  2  0
 18 20  1  0
 17 21  1  0
 21 22  2  0
  2 23  1  0
 23 24  1  0
 24 25  2  0
 25 26  1  0
 26 27  2  0
 27 28  1  0
 28 29  2  0
 29 30  1  0
 30 31  1  0
 31 32  1  0
 32 33  1  0
 33 34  1  0
 34 35  1  0
 10  5  1  0
 22 14  1  0
 29 24  1  0
 35 30  1  0
  3 36  1  0
  3 37  1  0
  6 38  1  0
  7 39  1  0
  8 40  1  0
  9 41  1  0
 10 42  1  0
 15 43  1  0
 16 44  1  0
 21 45  1  0
 22 46  1  0
 23 47  1  0
 25 48  1  0
 26 49  1  0
 27 50  1  0
 28 51  1  0
 31 52  1  0
 31 53  1  0
 32 54  1  0
 32 55  1  0
 34 56  1  0
 34 57  1  0
 35 58  1  0
 35 59  1  0
M  CHG  2  18   1  20  -1
M  END
>  <UniqueID>  (37) 
30

>  <SMILES>  (37) 
O=C(CN(c1ccccc1)S(=O)(=O)c1ccc([N+](=O)[O-])cc1)Nc1ccccc1N1CCOCC1

>  <Energy>  (37) 
78.8682734975357

>  <Genealogy>  (37) 
O=C(CN(c1ccccc1)S(=O)(=O)c1ccc([N+](=O)[O-])cc1)Nc1ccccc1N1CCOCC1 (3D coordinates assigned)
O=C(CN(c1ccccc1)S(=O)(=O)c1ccc([N+](=O)[O-])cc1)Nc1ccccc1N1CCOCC1 (nonaromatic ring conformer: 78.8682734975357 kcal/mol)

>  <smiles>  (37) 
O=C(CN(c1ccccc1)S(=O)(=O)c1ccc([N+](=O)[O-])cc1)Nc1ccccc1N1CCOCC1

>  <score_type>  (37) 
oracle

>  <origin>  (37) 
adg

>  <m_score__min__energy>  (37) 
-9.6400000000000006

>  <m_primary>  (37) 
energy

$$$$
37:0
     RDKit          3D

 51 54  0  0  0  0  0  0  0  0999 V2000
   56.9515   20.6636   43.3113 H   0  0  0  0  0  0  0  0  0  0  0  0
   57.1950   21.6650   43.6960 C   0  0  0  0  0  0  0  0  0  0  0  0
   56.4360   22.7330   43.3380 N   0  0  0  0  0  0  0  0  0  0  0  0
   56.6970   23.9860   43.8000 C   0  0  0  0  0  0  0  0  0  0  0  0
   56.0606   24.8275   43.4888 H   0  0  0  0  0  0  0  0  0  0  0  0
   57.7770   24.2110   44.6740 C   0  0  0  0  0  0  0  0  0  0  0  0
   58.0960   25.5680   45.1880 C   0  0  0  0  0  0  0  0  0  0  0  0
   58.7270   25.6930   46.3870 N   0  0  0  0  0  0  0  0  0  0  0  0
   59.0200   26.9070   46.9150 C   0  0  0  0  0  0  0  0  0  0  0  0
   59.6300   26.9720   48.0610 N   0  0  0  0  0  0  0  0  0  0  0  0
   60.0320   28.1800   48.7170 C   0  0  0  0  0  0  0  0  0  0  0  0
   60.9150   28.1210   49.6150 O   0  0  0  0  0  0  0  0  0  0  0  0
   59.3600   29.4200   48.4410 N   0  0  0  0  0  0  0  0  0  0  0  0
   58.4710   29.3850   47.8970 H   0  0  0  0  0  0  0  0  0  0  0  0
   59.7680   30.6760   49.0010 C   0  0  0  0  0  0  0  0  0  0  0  0
   60.9660   30.8540   49.3550 O   0  0  0  0  0  0  0  0  0  0  0  0
   58.7790   31.7930   49.1620 C   0  0  0  0  0  0  0  0  0  0  0  0
   58.9553   32.2913   50.1267 H   0  0  0  0  0  0  0  0  0  0  0  0
   57.7655   31.3672   49.1230 H   0  0  0  0  0  0  0  0  0  0  0  0
   58.9120   32.8100   48.0510 C   0  0  0  0  0  0  0  0  0  0  0  0
   57.8520   32.9180   47.1310 C   0  0  0  0  0  0  0  0  0  0  0  0
   56.9568   32.2913   47.2575 H   0  0  0  0  0  0  0  0  0  0  0  0
   57.9230   33.8100   46.0610 C   0  0  0  0  0  0  0  0  0  0  0  0
   57.0914   33.8742   45.3438 H   0  0  0  0  0  0  0  0  0  0  0  0
   59.0440   34.6190   45.8990 C   0  0  0  0  0  0  0  0  0  0  0  0
   59.1014   35.3144   45.0486 H   0  0  0  0  0  0  0  0  0  0  0  0
   60.0950   34.5490   46.8140 C   0  0  0  0  0  0  0  0  0  0  0  0
   60.9711   35.2019   46.6868 H   0  0  0  0  0  0  0  0  0  0  0  0
   60.0470   33.6540   47.8960 C   0  0  0  0  0  0  0  0  0  0  0  0
   61.1600   33.6230   48.8020 N   0  0  0  0  0  0  0  0  0  0  0  0
   61.6020   34.4790   49.1980 H   0  0  0  0  0  0  0  0  0  0  0  0
   61.5850   32.7110   49.0810 H   0  0  0  0  0  0  0  0  0  0  0  0
   58.7090   28.0340   46.2200 N   0  0  0  0  0  0  0  0  0  0  0  0
   58.0930   27.9830   45.0080 C   0  0  0  0  0  0  0  0  0  0  0  0
   57.8220   29.2550   44.2800 C   0  0  0  0  0  0  0  0  0  0  0  0
   58.5850   30.4040   44.5680 C   0  0  0  0  0  0  0  0  0  0  0  0
   59.3493   30.3670   45.3582 H   0  0  0  0  0  0  0  0  0  0  0  0
   58.3790   31.5910   43.8580 C   0  0  0  0  0  0  0  0  0  0  0  0
   58.9873   32.4786   44.0865 H   0  0  0  0  0  0  0  0  0  0  0  0
   57.4050   31.6540   42.8610 C   0  0  0  0  0  0  0  0  0  0  0  0
   57.2376   32.5931   42.3131 H   0  0  0  0  0  0  0  0  0  0  0  0
   56.6440   30.5250   42.5600 C   0  0  0  0  0  0  0  0  0  0  0  0
   55.8761   30.5749   41.7740 H   0  0  0  0  0  0  0  0  0  0  0  0
   56.8540   29.3300   43.2540 C   0  0  0  0  0  0  0  0  0  0  0  0
   56.2601   28.4399   42.9989 H   0  0  0  0  0  0  0  0  0  0  0  0
   57.7470   26.7280   44.4790 C   0  0  0  0  0  0  0  0  0  0  0  0
   57.2097   26.6556   43.5219 H   0  0  0  0  0  0  0  0  0  0  0  0
   58.5760   23.1130   45.0370 C   0  0  0  0  0  0  0  0  0  0  0  0
   59.4360   23.2599   45.7070 H   0  0  0  0  0  0  0  0  0  0  0  0
   58.2840   21.8380   44.5520 C   0  0  0  0  0  0  0  0  0  0  0  0
   58.9056   20.9777   44.8412 H   0  0  0  0  0  0  0  0  0  0  0  0
  1  2  1  0
  2  3  2  0
  3  4  1  0
  4  5  1  0
  4  6  2  0
  6  7  1  0
  7  8  1  0
  8  9  1  0
  9 10  2  0
 10 11  1  0
 11 12  2  0
 11 13  1  0
 13 14  1  0
 13 15  1  0
 15 16  2  0
 15 17  1  0
 17 18  1  0
 17 19  1  0
 17 20  1  0
 20 21  2  0
 21 22  1  0
 21 23  1  0
 23 24  1  0
 23 25  2  0
 25 26  1  0
 25 27  1  0
 27 28  1  0
 27 29  2  0
 29 30  1  0
 30 31  1  0
 30 32  1  0
  9 33  1  0
 33 34  2  0
 34 35  1  0
 35 36  2  0
 36 37  1  0
 36 38  1  0
 38 39  1  0
 38 40  2  0
 40 41  1  0
 40 42  1  0
 42 43  1  0
 42 44  2  0
 44 45  1  0
 34 46  1  0
 46 47  1  0
  6 48  1  0
 48 49  1  0
 48 50  2  0
 50 51  1  0
 50  2  1  0
 46  7  2  0
 29 20  1  0
 44 35  1  0
M  CHG  1   8  -1
M  END
>  <UniqueID>  (38) 
31

>  <SMILES>  (38) 
Nc1ccccc1CC(=O)NC(=O)/N=c1\nc(-c2ccccc2)cc(-c2cccnc2)[n-]1

>  <Energy>  (38) 
68.2904081876107

>  <Genealogy>  (38) 
Nc1ccccc1CC(=O)NC(=O)N=c1nc(-c2ccccc2)cc(-c2cccnc2)[n-]1 (protonated)
Nc1ccccc1CC(=O)NC(=O)/N=c1\nc(-c2ccccc2)cc(-c2cccnc2)[n-]1 (cis-trans isomerization)
Nc1ccccc1CC(=O)NC(=O)/N=c1\nc(-c2ccccc2)cc(-c2cccnc2)[n-]1 (3D coordinates assigned)
Nc1ccccc1CC(=O)NC(=O)/N=c1\nc(-c2ccccc2)cc(-c2cccnc2)[n-]1 (optimized conformer: 68.2904081876107 kcal/mol)

>  <smiles>  (38) 
Nc1ccccc1CC(=O)NC(=O)N=c1nc(-c2ccccc2)cc(-c2cccnc2)[nH]1

>  <score_type>  (38) 
oracle

>  <origin>  (38) 
adg

>  <m_score__min__energy>  (38) 
-9.7899999999999991

>  <m_primary>  (38) 
energy

$$$$
38:0
     RDKit          3D

 44 46  0  0  0  0  0  0  0  0999 V2000
   57.3990   31.8790   44.2250 C   0  0  0  0  0  0  0  0  0  0  0  0
   57.0910   30.9010   45.2140 O   0  0  0  0  0  0  0  0  0  0  0  0
   57.9070   29.8030   45.5290 C   0  0  0  0  0  0  0  0  0  0  0  0
   57.4400   28.4760   45.4450 C   0  0  0  0  0  0  0  0  0  0  0  0
   58.2830   27.4100   45.7620 C   0  0  0  0  0  0  0  0  0  0  0  0
   59.5980   27.6520   46.1590 C   0  0  0  0  0  0  0  0  0  0  0  0
   60.0720   28.9610   46.2470 C   0  0  0  0  0  0  0  0  0  0  0  0
   59.2280   30.0470   45.9450 C   0  0  0  0  0  0  0  0  0  0  0  0
   59.6800   31.4050   46.0480 N   0  0  0  0  0  0  0  0  0  0  0  0
   60.3200   32.1350   47.4860 S   0  0  0  0  0  0  0  0  0  0  0  0
   60.2570   33.6310   47.3530 O   0  0  0  0  0  0  0  0  0  0  0  0
   61.7550   31.7230   47.6620 O   0  0  0  0  0  0  0  0  0  0  0  0
   59.3430   31.6450   48.8650 C   0  0  0  0  0  0  0  0  0  0  0  0
   58.5360   32.5910   49.5110 C   0  0  0  0  0  0  0  0  0  0  0  0
   57.6780   32.1990   50.5420 C   0  0  0  0  0  0  0  0  0  0  0  0
   57.5990   30.8490   50.9220 C   0  0  0  0  0  0  0  0  0  0  0  0
   56.6220   30.4230   51.9480 C   0  0  0  0  0  0  0  0  0  0  0  0
   56.7490   29.2960   52.4960 O   0  0  0  0  0  0  0  0  0  0  0  0
   55.5120   31.2520   52.3210 N   0  0  0  0  0  0  0  0  0  0  0  0
   54.1250   30.9370   52.1180 C   0  0  0  0  0  0  0  0  0  0  0  0
   53.2770   31.9370   51.6250 C   0  0  0  0  0  0  0  0  0  0  0  0
   51.9160   31.6800   51.4310 C   0  0  0  0  0  0  0  0  0  0  0  0
   51.0790   32.6850   50.9600 O   0  0  0  0  0  0  0  0  0  0  0  0
   51.3970   30.4140   51.7120 C   0  0  0  0  0  0  0  0  0  0  0  0
   52.2390   29.3990   52.1720 C   0  0  0  0  0  0  0  0  0  0  0  0
   53.6070   29.6460   52.3640 C   0  0  0  0  0  0  0  0  0  0  0  0
   54.4450   28.6100   52.7730 O   0  0  0  0  0  0  0  0  0  0  0  0
   58.4390   29.9100   50.2990 C   0  0  0  0  0  0  0  0  0  0  0  0
   59.3060   30.3070   49.2780 C   0  0  0  0  0  0  0  0  0  0  0  0
   57.6945   32.8175   44.7169 H   0  0  0  0  0  0  0  0  0  0  0  0
   58.2268   31.5176   43.5972 H   0  0  0  0  0  0  0  0  0  0  0  0
   56.5135   32.0571   43.5972 H   0  0  0  0  0  0  0  0  0  0  0  0
   56.4052   28.2794   45.1278 H   0  0  0  0  0  0  0  0  0  0  0  0
   57.9098   26.3772   45.6987 H   0  0  0  0  0  0  0  0  0  0  0  0
   60.2621   26.8097   46.4030 H   0  0  0  0  0  0  0  0  0  0  0  0
   61.1119   29.1461   46.5543 H   0  0  0  0  0  0  0  0  0  0  0  0
   58.5781   33.6468   49.2052 H   0  0  0  0  0  0  0  0  0  0  0  0
   57.0622   32.9504   51.0579 H   0  0  0  0  0  0  0  0  0  0  0  0
   53.6843   32.9312   51.3888 H   0  0  0  0  0  0  0  0  0  0  0  0
   50.3242   30.2162   51.5709 H   0  0  0  0  0  0  0  0  0  0  0  0
   51.8278   28.4012   52.3848 H   0  0  0  0  0  0  0  0  0  0  0  0
   55.3620   28.7910   53.1640 H   0  0  0  0  0  0  0  0  0  0  0  0
   58.4136   28.8572   50.6169 H   0  0  0  0  0  0  0  0  0  0  0  0
   59.9618   29.5664   48.7968 H   0  0  0  0  0  0  0  0  0  0  0  0
  1  2  1  0
  2  3  1  0
  3  4  2  0
  4  5  1  0
  5  6  2  0
  6  7  1  0
  7  8  2  0
  8  9  1  0
  9 10  1  0
 10 11  2  0
 10 12  2  0
 10 13  1  0
 13 14  2  0
 14 15  1  0
 15 16  2  0
 16 17  1  0
 17 18  2  0
 17 19  1  0
 19 20  1  0
 20 21  2  0
 21 22  1  0
 22 23  1  0
 22 24  2  0
 24 25  1  0
 25 26  2  0
 26 27  1  0
 16 28  1  0
 28 29  2  0
  8  3  1  0
 29 13  1  0
 26 20  1  0
  1 30  1  0
  1 31  1  0
  1 32  1  0
  4 33  1  0
  5 34  1  0
  6 35  1  0
  7 36  1  0
 14 37  1  0
 15 38  1  0
 21 39  1  0
 24 40  1  0
 25 41  1  0
 27 42  1  0
 28 43  1  0
 29 44  1  0
M  CHG  3   9  -1  19  -1  23  -1
M  END
>  <UniqueID>  (39) 
32

>  <SMILES>  (39) 
COc1ccccc1[N-]S(=O)(=O)c1ccc(C(=O)[N-]c2cc([O-])ccc2O)cc1

>  <Energy>  (39) 
56.64474104423765

>  <Genealogy>  (39) 
COc1ccccc1[N-]S(=O)(=O)c1ccc(C(=O)[N-]c2cc([O-])ccc2O)cc1 (protonated)
COc1ccccc1[N-]S(=O)(=O)c1ccc(C(=O)[N-]c2cc([O-])ccc2O)cc1 (3D coordinates assigned)
COc1ccccc1[N-]S(=O)(=O)c1ccc(C(=O)[N-]c2cc([O-])ccc2O)cc1 (optimized conformer: 56.64474104423765 kcal/mol)

>  <smiles>  (39) 
COc1ccccc1NS(=O)(=O)c1ccc(C(=O)Nc2cc(O)ccc2O)cc1

>  <score_type>  (39) 
oracle

>  <origin>  (39) 
adg

>  <m_score__min__energy>  (39) 
-14.359999999999999

>  <m_primary>  (39) 
energy

$$$$
39:0
     RDKit          3D

 41 43  0  0  0  0  0  0  0  0999 V2000
   63.4910   34.2430   45.9910 O   0  0  0  0  0  0  0  0  0  0  0  0
   62.8400   33.4800   46.7530 C   0  0  0  0  0  0  0  0  0  0  0  0
   63.4900   32.4040   47.3470 O   0  0  0  0  0  0  0  0  0  0  0  0
   61.4030   33.7240   47.0130 C   0  0  0  0  0  0  0  0  0  0  0  0
   60.9760   34.2500   48.2450 C   0  0  0  0  0  0  0  0  0  0  0  0
   59.6180   34.4730   48.4860 C   0  0  0  0  0  0  0  0  0  0  0  0
   58.6730   34.1770   47.5020 C   0  0  0  0  0  0  0  0  0  0  0  0
   59.0830   33.6580   46.2680 C   0  0  0  0  0  0  0  0  0  0  0  0
   57.9030   33.3170   45.0040 S   0  0  0  0  0  0  0  0  0  0  0  0
   56.8370   34.3760   45.0360 O   0  0  0  0  0  0  0  0  0  0  0  0
   58.5550   33.3170   43.6500 O   0  0  0  0  0  0  0  0  0  0  0  0
   57.1790   31.7680   45.2860 N   0  0  0  0  0  0  0  0  0  0  0  0
   57.9080   30.5620   45.5530 C   0  0  0  0  0  0  0  0  0  0  0  0
   58.6650   30.3930   46.7250 C   0  0  0  0  0  0  0  0  0  0  0  0
   59.3270   29.1870   46.9690 C   0  0  0  0  0  0  0  0  0  0  0  0
   59.2350   28.1270   46.0530 C   0  0  0  0  0  0  0  0  0  0  0  0
   59.9020   26.8310   46.3250 C   0  0  0  0  0  0  0  0  0  0  0  0
   61.1510   26.7410   46.2020 O   0  0  0  0  0  0  0  0  0  0  0  0
   59.1690   25.6810   46.7720 N   0  0  0  0  0  0  0  0  0  0  0  0
   57.9050   25.2350   46.2590 C   0  0  0  0  0  0  0  0  0  0  0  0
   57.8410   24.0080   45.5860 C   0  0  0  0  0  0  0  0  0  0  0  0
   56.6230   23.5450   45.0760 C   0  0  0  0  0  0  0  0  0  0  0  0
   55.4640   24.3150   45.2210 C   0  0  0  0  0  0  0  0  0  0  0  0
   55.5260   25.5540   45.8650 C   0  0  0  0  0  0  0  0  0  0  0  0
   54.3790   26.3280   45.9910 O   0  0  0  0  0  0  0  0  0  0  0  0
   56.7420   26.0180   46.3780 C   0  0  0  0  0  0  0  0  0  0  0  0
   58.5120   28.3130   44.8630 C   0  0  0  0  0  0  0  0  0  0  0  0
   57.8540   29.5220   44.6190 C   0  0  0  0  0  0  0  0  0  0  0  0
   60.4450   33.4310   46.0270 C   0  0  0  0  0  0  0  0  0  0  0  0
   61.7156   34.4874   49.0239 H   0  0  0  0  0  0  0  0  0  0  0  0
   59.2926   34.8828   49.4535 H   0  0  0  0  0  0  0  0  0  0  0  0
   57.6045   34.3518   47.6965 H   0  0  0  0  0  0  0  0  0  0  0  0
   58.7366   31.2140   47.4536 H   0  0  0  0  0  0  0  0  0  0  0  0
   59.9243   29.0672   47.8849 H   0  0  0  0  0  0  0  0  0  0  0  0
   58.7525   23.4057   45.4579 H   0  0  0  0  0  0  0  0  0  0  0  0
   56.5767   22.5744   44.5604 H   0  0  0  0  0  0  0  0  0  0  0  0
   54.5050   23.9458   44.8286 H   0  0  0  0  0  0  0  0  0  0  0  0
   56.7891   26.9978   46.8758 H   0  0  0  0  0  0  0  0  0  0  0  0
   58.4634   27.5036   44.1197 H   0  0  0  0  0  0  0  0  0  0  0  0
   57.2891   29.6567   43.6848 H   0  0  0  0  0  0  0  0  0  0  0  0
   60.7667   33.0203   45.0586 H   0  0  0  0  0  0  0  0  0  0  0  0
  1  2  2  0
  2  3  1  0
  2  4  1  0
  4  5  2  0
  5  6  1  0
  6  7  2  0
  7  8  1  0
  8  9  1  0
  9 10  2  0
  9 11  2  0
  9 12  1  0
 12 13  1  0
 13 14  2  0
 14 15  1  0
 15 16  2  0
 16 17  1  0
 17 18  2  0
 17 19  1  0
 19 20  1  0
 20 21  2  0
 21 22  1  0
 22 23  2  0
 23 24  1  0
 24 25  1  0
 24 26  2  0
 16 27  1  0
 27 28  2  0
  8 29  2  0
 29  4  1  0
 28 13  1  0
 26 20  1  0
  5 30  1  0
  6 31  1  0
  7 32  1  0
 14 33  1  0
 15 34  1  0
 21 35  1  0
 22 36  1  0
 23 37  1  0
 26 38  1  0
 27 39  1  0
 28 40  1  0
 29 41  1  0
M  CHG  4   3  -1  12  -1  19  -1  25  -1
M  END
>  <UniqueID>  (40) 
33

>  <SMILES>  (40) 
O=C([O-])c1cccc(S(=O)(=O)[N-]c2ccc(C(=O)[N-]c3cccc([O-])c3)cc2)c1

>  <Energy>  (40) 
53.120266716090754

>  <Genealogy>  (40) 
O=C([O-])c1cccc(S(=O)(=O)[N-]c2ccc(C(=O)[N-]c3cccc([O-])c3)cc2)c1 (protonated)
O=C([O-])c1cccc(S(=O)(=O)[N-]c2ccc(C(=O)[N-]c3cccc([O-])c3)cc2)c1 (3D coordinates assigned)
O=C([O-])c1cccc(S(=O)(=O)[N-]c2ccc(C(=O)[N-]c3cccc([O-])c3)cc2)c1 (optimized conformer: 53.120266716090754 kcal/mol)

>  <smiles>  (40) 
O=C(O)c1cccc(S(=O)(=O)Nc2ccc(C(=O)Nc3cccc(O)c3)cc2)c1

>  <score_type>  (40) 
oracle

>  <origin>  (40) 
adg

>  <m_score__min__energy>  (40) 
-17.52

>  <m_primary>  (40) 
energy

$$$$
40:0
     RDKit          3D

 42 43  0  0  0  0  0  0  0  0999 V2000
   62.0050   33.6040   46.8300 C   0  0  0  0  0  0  0  0  0  0  0  0
   61.3910   33.1340   48.0790 N   0  0  0  0  0  0  0  0  0  0  0  0
   62.0560   33.7520   49.2330 C   0  0  0  0  0  0  0  0  0  0  0  0
   59.6910   33.5340   48.0880 S   0  0  0  0  0  0  0  0  0  0  0  0
   58.9810   32.6690   49.0920 O   0  0  0  0  0  0  0  0  0  0  0  0
   59.5170   34.9680   48.5060 O   0  0  0  0  0  0  0  0  0  0  0  0
   58.9600   33.3000   46.4970 C   0  0  0  0  0  0  0  0  0  0  0  0
   59.4280   34.0230   45.3920 C   0  0  0  0  0  0  0  0  0  0  0  0
   58.8580   33.8270   44.1340 C   0  0  0  0  0  0  0  0  0  0  0  0
   57.8090   32.9190   43.9730 C   0  0  0  0  0  0  0  0  0  0  0  0
   57.3080   32.2130   45.0740 C   0  0  0  0  0  0  0  0  0  0  0  0
   56.2370   31.2810   44.8670 N   0  0  0  0  0  0  0  0  0  0  0  0
   56.2680   30.1300   44.0130 C   0  0  0  0  0  0  0  0  0  0  0  0
   55.2230   29.7200   43.4420 O   0  0  0  0  0  0  0  0  0  0  0  0
   57.5610   29.4140   43.7920 C   0  0  0  0  0  0  0  0  0  0  0  0
   57.7850   28.1590   45.0400 S   0  0  0  0  0  0  0  0  0  0  0  0
   56.4410   27.7750   45.5950 O   0  0  0  0  0  0  0  0  0  0  0  0
   58.4280   26.9440   44.4340 O   0  0  0  0  0  0  0  0  0  0  0  0
   58.8160   28.7810   46.3260 C   0  0  0  0  0  0  0  0  0  0  0  0
   58.6070   28.4010   47.6600 C   0  0  0  0  0  0  0  0  0  0  0  0
   59.4370   28.8960   48.6710 C   0  0  0  0  0  0  0  0  0  0  0  0
   60.4810   29.7720   48.3550 C   0  0  0  0  0  0  0  0  0  0  0  0
   61.5200   30.3950   49.6230 Cl  0  0  0  0  0  0  0  0  0  0  0  0
   60.6940   30.1510   47.0260 C   0  0  0  0  0  0  0  0  0  0  0  0
   59.8670   29.6560   46.0140 C   0  0  0  0  0  0  0  0  0  0  0  0
   57.9050   32.3900   46.3350 C   0  0  0  0  0  0  0  0  0  0  0  0
   62.8585   34.2573   47.0642 H   0  0  0  0  0  0  0  0  0  0  0  0
   62.3541   32.7401   46.2453 H   0  0  0  0  0  0  0  0  0  0  0  0
   61.2622   34.1665   46.2453 H   0  0  0  0  0  0  0  0  0  0  0  0
   61.6250   33.3514   50.1624 H   0  0  0  0  0  0  0  0  0  0  0  0
   63.1320   33.5259   49.2006 H   0  0  0  0  0  0  0  0  0  0  0  0
   61.9092   34.8417   49.2006 H   0  0  0  0  0  0  0  0  0  0  0  0
   60.2468   34.7469   45.5167 H   0  0  0  0  0  0  0  0  0  0  0  0
   59.2355   34.3888   43.2669 H   0  0  0  0  0  0  0  0  0  0  0  0
   57.3738   32.7574   42.9757 H   0  0  0  0  0  0  0  0  0  0  0  0
   57.5507   28.9419   42.7985 H   0  0  0  0  0  0  0  0  0  0  0  0
   58.3885   30.1361   43.8536 H   0  0  0  0  0  0  0  0  0  0  0  0
   57.7877   27.7115   47.9117 H   0  0  0  0  0  0  0  0  0  0  0  0
   59.2687   28.5962   49.7159 H   0  0  0  0  0  0  0  0  0  0  0  0
   61.5142   30.8402   46.7765 H   0  0  0  0  0  0  0  0  0  0  0  0
   60.0408   29.9535   44.9694 H   0  0  0  0  0  0  0  0  0  0  0  0
   57.5429   31.8122   47.1981 H   0  0  0  0  0  0  0  0  0  0  0  0
  1  2  1  0
  2  3  1  0
  2  4  1  0
  4  5  2  0
  4  6  2  0
  4  7  1  0
  7  8  2  0
  8  9  1  0
  9 10  2  0
 10 11  1  0
 11 12  1  0
 12 13  1  0
 13 14  2  0
 13 15  1  0
 15 16  1  0
 16 17  2  0
 16 18  2  0
 16 19  1  0
 19 20  2  0
 20 21  1  0
 21 22  2  0
 22 23  1  0
 22 24  1  0
 24 25  2  0
 11 26  2  0
 26  7  1  0
 25 19  1  0
  1 27  1  0
  1 28  1  0
  1 29  1  0
  3 30  1  0
  3 31  1  0
  3 32  1  0
  8 33  1  0
  9 34  1  0
 10 35  1  0
 15 36  1  0
 15 37  1  0
 20 38  1  0
 21 39  1  0
 24 40  1  0
 25 41  1  0
 26 42  1  0
M  CHG  1  12  -1
M  END
>  <UniqueID>  (41) 
34

>  <SMILES>  (41) 
CN(C)S(=O)(=O)c1cccc([N-]C(=O)CS(=O)(=O)c2ccc(Cl)cc2)c1

>  <Energy>  (41) 
39.05351032132067

>  <Genealogy>  (41) 
CN(C)S(=O)(=O)c1cccc([N-]C(=O)CS(=O)(=O)c2ccc(Cl)cc2)c1 (protonated)
CN(C)S(=O)(=O)c1cccc([N-]C(=O)CS(=O)(=O)c2ccc(Cl)cc2)c1 (3D coordinates assigned)
CN(C)S(=O)(=O)c1cccc([N-]C(=O)CS(=O)(=O)c2ccc(Cl)cc2)c1 (optimized conformer: 39.05351032132067 kcal/mol)

>  <smiles>  (41) 
CN(C)S(=O)(=O)c1cccc(NC(=O)CS(=O)(=O)c2ccc(Cl)cc2)c1

>  <score_type>  (41) 
oracle

>  <origin>  (41) 
adg

>  <m_score__min__energy>  (41) 
-10.73

>  <m_primary>  (41) 
energy

$$$$
41:0
     RDKit          3D

 46 49  0  0  0  0  0  0  0  0999 V2000
   55.4510   28.0850   44.5500 H   0  0  0  0  0  0  0  0  0  0  0  0
   56.2140   28.2230   45.2510 N   0  0  0  0  0  0  0  0  0  0  0  0
   56.8040   29.3630   45.4180 C   0  0  0  0  0  0  0  0  0  0  0  0
   56.3820   30.4480   44.7160 N   0  0  0  0  0  0  0  0  0  0  0  0
   56.9780   31.6600   44.8600 C   0  0  0  0  0  0  0  0  0  0  0  0
   56.6165   32.5257   44.2856 H   0  0  0  0  0  0  0  0  0  0  0  0
   58.0580   31.8020   45.7460 C   0  0  0  0  0  0  0  0  0  0  0  0
   58.7290   33.1060   45.9570 C   0  0  0  0  0  0  0  0  0  0  0  0
   59.4350   33.4040   47.1420 C   0  0  0  0  0  0  0  0  0  0  0  0
   59.5090   32.4570   48.1720 O   0  0  0  0  0  0  0  0  0  0  0  0
   59.0750   32.6540   49.4920 C   0  0  0  0  0  0  0  0  0  0  0  0
   59.8830   33.4030   50.3540 C   0  0  0  0  0  0  0  0  0  0  0  0
   60.8273   33.8303   49.9855 H   0  0  0  0  0  0  0  0  0  0  0  0
   59.4970   33.6110   51.6800 C   0  0  0  0  0  0  0  0  0  0  0  0
   60.1358   34.2050   52.3502 H   0  0  0  0  0  0  0  0  0  0  0  0
   58.3020   33.0670   52.1580 C   0  0  0  0  0  0  0  0  0  0  0  0
   58.0041   33.2321   53.2039 H   0  0  0  0  0  0  0  0  0  0  0  0
   57.4790   32.3090   51.3060 C   0  0  0  0  0  0  0  0  0  0  0  0
   56.2650   31.7030   51.7850 N   0  0  0  0  0  0  0  0  0  0  0  0
   55.4940   32.3320   52.1040 H   0  0  0  0  0  0  0  0  0  0  0  0
   56.0950   30.2890   51.9710 C   0  0  0  0  0  0  0  0  0  0  0  0
   57.1000   29.5410   52.0980 O   0  0  0  0  0  0  0  0  0  0  0  0
   54.7890   29.7220   52.1180 N   0  0  0  0  0  0  0  0  0  0  0  0
   53.5710   30.4540   52.3150 C   0  0  0  0  0  0  0  0  0  0  0  0
   52.9080   30.4670   53.5560 C   0  0  0  0  0  0  0  0  0  0  0  0
   53.3110   29.8875   54.3997 H   0  0  0  0  0  0  0  0  0  0  0  0
   51.7380   31.2150   53.7190 C   0  0  0  0  0  0  0  0  0  0  0  0
   51.2161   31.2134   54.6873 H   0  0  0  0  0  0  0  0  0  0  0  0
   51.2300   31.9650   52.6540 C   0  0  0  0  0  0  0  0  0  0  0  0
   50.3050   32.5464   52.7817 H   0  0  0  0  0  0  0  0  0  0  0  0
   51.8990   31.9750   51.4270 C   0  0  0  0  0  0  0  0  0  0  0  0
   51.4130   32.7110   50.3960 F   0  0  0  0  0  0  0  0  0  0  0  0
   53.0700   31.2290   51.2610 C   0  0  0  0  0  0  0  0  0  0  0  0
   53.6006   31.2508   50.2977 H   0  0  0  0  0  0  0  0  0  0  0  0
   57.8850   32.0870   49.9810 C   0  0  0  0  0  0  0  0  0  0  0  0
   57.2663   31.4635   49.3188 H   0  0  0  0  0  0  0  0  0  0  0  0
   60.0550   34.6120   47.2690 N   0  0  0  0  0  0  0  0  0  0  0  0
   59.9920   35.5640   46.3030 C   0  0  0  0  0  0  0  0  0  0  0  0
   60.5081   36.5251   46.4443 H   0  0  0  0  0  0  0  0  0  0  0  0
   59.2750   35.3250   45.1340 C   0  0  0  0  0  0  0  0  0  0  0  0
   59.2099   36.0976   44.3537 H   0  0  0  0  0  0  0  0  0  0  0  0
   58.6400   34.0950   44.9630 C   0  0  0  0  0  0  0  0  0  0  0  0
   58.0665   33.8982   44.0452 H   0  0  0  0  0  0  0  0  0  0  0  0
   58.4650   30.7160   46.4600 N   0  0  0  0  0  0  0  0  0  0  0  0
   57.8700   29.5030   46.3150 C   0  0  0  0  0  0  0  0  0  0  0  0
   58.2226   28.6388   46.8971 H   0  0  0  0  0  0  0  0  0  0  0  0
  1  2  1  0
  2  3  2  0
  3  4  1  0
  4  5  1  0
  5  6  1  0
  5  7  2  0
  7  8  1  0
  8  9  1  0
  9 10  1  0
 10 11  1  0
 11 12  2  0
 12 13  1  0
 12 14  1  0
 14 15  1  0
 14 16  2  0
 16 17  1  0
 16 18  1  0
 18 19  1  0
 19 20  1  0
 19 21  1  0
 21 22  2  0
 21 23  1  0
 23 24  1  0
 24 25  2  0
 25 26  1  0
 25 27  1  0
 27 28  1  0
 27 29  2  0
 29 30  1  0
 29 31  1  0
 31 32  1  0
 31 33  2  0
 33 34  1  0
 18 35  2  0
 35 36  1  0
  9 37  2  0
 37 38  1  0
 38 39  1  0
 38 40  2  0
 40 41  1  0
 40 42  1  0
 42 43  1  0
  7 44  1  0
 44 45  2  0
 45 46  1  0
 45  3  1  0
 42  8  2  0
 35 11  1  0
 33 24  1  0
M  CHG  2   4  -1  23  -1
M  END
>  <UniqueID>  (42) 
35

>  <SMILES>  (42) 
[H]/N=c1\cnc(-c2cccnc2Oc2cccc(NC(=O)[N-]c3cccc(F)c3)c2)c[n-]1

>  <Energy>  (42) 
71.06927820146116

>  <Genealogy>  (42) 
N=c1cnc(-c2cccnc2Oc2cccc(NC(=O)[N-]c3cccc(F)c3)c2)c[n-]1 (protonated)
[H]/N=c1\cnc(-c2cccnc2Oc2cccc(NC(=O)[N-]c3cccc(F)c3)c2)c[n-]1 (cis-trans isomerization)
[H]/N=c1\cnc(-c2cccnc2Oc2cccc(NC(=O)[N-]c3cccc(F)c3)c2)c[n-]1 (3D coordinates assigned)
[H]/N=c1\cnc(-c2cccnc2Oc2cccc(NC(=O)[N-]c3cccc(F)c3)c2)c[n-]1 (optimized conformer: 71.06927820146116 kcal/mol)

>  <smiles>  (42) 
N=c1cnc(-c2cccnc2Oc2cccc(NC(=O)Nc3cccc(F)c3)c2)c[nH]1

>  <score_type>  (42) 
oracle

>  <origin>  (42) 
adg

>  <m_score__min__energy>  (42) 
-12.17

>  <m_primary>  (42) 
energy

$$$$
42:0
     RDKit          3D

 41 43  0  0  0  0  0  0  0  0999 V2000
   63.7763   32.3066   48.2776 H   0  0  0  0  0  0  0  0  0  0  0  0
   62.9060   31.6350   48.3180 C   0  0  0  0  0  0  0  0  0  0  0  0
   62.2360   31.2900   47.1440 C   0  0  0  0  0  0  0  0  0  0  0  0
   62.5801   31.6889   46.1783 H   0  0  0  0  0  0  0  0  0  0  0  0
   61.1290   30.4390   47.1920 C   0  0  0  0  0  0  0  0  0  0  0  0
   60.6071   30.1690   46.2621 H   0  0  0  0  0  0  0  0  0  0  0  0
   60.6770   29.9250   48.4210 C   0  0  0  0  0  0  0  0  0  0  0  0
   59.4700   29.0180   48.4520 C   0  0  0  0  0  0  0  0  0  0  0  0
   58.5849   29.6052   48.7381 H   0  0  0  0  0  0  0  0  0  0  0  0
   59.6502   28.2161   49.1831 H   0  0  0  0  0  0  0  0  0  0  0  0
   59.2410   28.4140   47.1410 N   0  0  0  0  0  0  0  0  0  0  0  0
   58.4450   28.8810   46.2260 C   0  0  0  0  0  0  0  0  0  0  0  0
   57.1360   28.5550   46.1790 N   0  0  0  0  0  0  0  0  0  0  0  0
   56.5110   29.1600   45.1340 C   0  0  0  0  0  0  0  0  0  0  0  0
   55.1610   28.9620   44.8760 O   0  0  0  0  0  0  0  0  0  0  0  0
   57.3200   29.9790   44.3510 C   0  0  0  0  0  0  0  0  0  0  0  0
   56.9040   30.7150   43.1150 C   0  0  0  0  0  0  0  0  0  0  0  0
   55.8132   30.8565   43.1277 H   0  0  0  0  0  0  0  0  0  0  0  0
   57.1996   30.1266   42.2339 H   0  0  0  0  0  0  0  0  0  0  0  0
   57.5770   32.0590   43.0510 C   0  0  0  0  0  0  0  0  0  0  0  0
   58.3110   32.3350   42.0660 O   0  0  0  0  0  0  0  0  0  0  0  0
   57.3580   33.0630   44.0510 N   0  0  0  0  0  0  0  0  0  0  0  0
   58.1860   33.3140   45.1960 C   0  0  0  0  0  0  0  0  0  0  0  0
   59.2740   34.1980   45.1370 C   0  0  0  0  0  0  0  0  0  0  0  0
   59.5239   34.6978   44.1895 H   0  0  0  0  0  0  0  0  0  0  0  0
   60.0400   34.4450   46.2770 C   0  0  0  0  0  0  0  0  0  0  0  0
   60.8997   35.1287   46.2193 H   0  0  0  0  0  0  0  0  0  0  0  0
   59.7230   33.8300   47.4920 C   0  0  0  0  0  0  0  0  0  0  0  0
   60.8170   34.2130   49.0200 Br  0  0  0  0  0  0  0  0  0  0  0  0
   58.6150   32.9610   47.5700 C   0  0  0  0  0  0  0  0  0  0  0  0
   58.2450   32.2990   48.8690 C   0  0  0  0  0  0  0  0  0  0  0  0
   58.5918   32.9194   49.7085 H   0  0  0  0  0  0  0  0  0  0  0  0
   57.1523   32.1849   48.9242 H   0  0  0  0  0  0  0  0  0  0  0  0
   58.7203   31.3085   48.9242 H   0  0  0  0  0  0  0  0  0  0  0  0
   57.8480   32.7190   46.4170 C   0  0  0  0  0  0  0  0  0  0  0  0
   56.9729   32.0550   46.4750 H   0  0  0  0  0  0  0  0  0  0  0  0
   58.8840   29.9260   44.9720 S   0  0  0  0  0  0  0  0  0  0  0  0
   61.3630   30.2750   49.6050 C   0  0  0  0  0  0  0  0  0  0  0  0
   60.8660   29.6590   51.1790 Cl  0  0  0  0  0  0  0  0  0  0  0  0
   62.4720   31.1280   49.5440 C   0  0  0  0  0  0  0  0  0  0  0  0
   63.0041   31.4000   50.4675 H   0  0  0  0  0  0  0  0  0  0  0  0
  1  2  1  0
  2  3  2  0
  3  4  1  0
  3  5  1  0
  5  6  1  0
  5  7  2  0
  7  8  1  0
  8  9  1  0
  8 10  1  0
  8 11  1  0
 11 12  2  0
 12 13  1  0
 13 14  1  0
 14 15  1  0
 14 16  2  0
 16 17  1  0
 17 18  1  0
 17 19  1  0
 17 20  1  0
 20 21  2  0
 20 22  1  0
 22 23  1  0
 23 24  2  0
 24 25  1  0
 24 26  1  0
 26 27  1  0
 26 28  2  0
 28 29  1  0
 28 30  1  0
 30 31  1  0
 31 32  1  0
 31 33  1  0
 31 34  1  0
 30 35  2  0
 35 36  1  0
 16 37  1  0
  7 38  1  0
 38 39  1  0
 38 40  2  0
 40 41  1  0
 40  2  1  0
 37 12  1  0
 35 23  1  0
M  CHG  3  13  -1  15  -1  22  -1
M  END
>  <UniqueID>  (43) 
36

>  <SMILES>  (43) 
Cc1cc([N-]C(=O)Cc2s/c(=N\Cc3ccccc3Cl)[n-]c2[O-])ccc1Br

>  <Energy>  (43) 
78.38629659347265

>  <Genealogy>  (43) 
Cc1cc([N-]C(=O)Cc2sc(=NCc3ccccc3Cl)[n-]c2[O-])ccc1Br (protonated)
Cc1cc([N-]C(=O)Cc2s/c(=N\Cc3ccccc3Cl)[n-]c2[O-])ccc1Br (cis-trans isomerization)
Cc1cc([N-]C(=O)Cc2s/c(=N\Cc3ccccc3Cl)[n-]c2[O-])ccc1Br (3D coordinates assigned)
Cc1cc([N-]C(=O)Cc2s/c(=N\Cc3ccccc3Cl)[n-]c2[O-])ccc1Br (optimized conformer: 78.38629659347265 kcal/mol)

>  <smiles>  (43) 
Cc1cc(NC(=O)Cc2sc(=NCc3ccccc3Cl)[nH]c2O)ccc1Br

>  <score_type>  (43) 
oracle

>  <origin>  (43) 
adg

>  <m_score__min__energy>  (43) 
-15.44

>  <m_primary>  (43) 
energy

$$$$
43:0
     RDKit          3D

 45 47  0  0  0  0  0  0  0  0999 V2000
   62.1370   30.5100   50.1740 C   0  0  0  0  0  0  0  0  0  0  0  0
   61.9150   30.5790   48.7690 O   0  0  0  0  0  0  0  0  0  0  0  0
   60.7840   30.0630   48.1190 C   0  0  0  0  0  0  0  0  0  0  0  0
   60.7860   30.0110   46.7220 C   0  0  0  0  0  0  0  0  0  0  0  0
   59.6830   29.5060   46.0260 C   0  0  0  0  0  0  0  0  0  0  0  0
   58.5530   29.0400   46.7220 C   0  0  0  0  0  0  0  0  0  0  0  0
   57.3830   28.5010   45.9880 C   0  0  0  0  0  0  0  0  0  0  0  0
   57.0860   27.2800   46.0890 O   0  0  0  0  0  0  0  0  0  0  0  0
   56.5590   29.3800   45.2080 N   0  0  0  0  0  0  0  0  0  0  0  0
   57.0070   30.4800   44.4020 C   0  0  0  0  0  0  0  0  0  0  0  0
   57.6020   31.6220   44.9670 C   0  0  0  0  0  0  0  0  0  0  0  0
   58.0120   32.6960   44.1550 C   0  0  0  0  0  0  0  0  0  0  0  0
   58.6420   33.8960   44.7540 C   0  0  0  0  0  0  0  0  0  0  0  0
   58.0200   34.9930   44.7720 O   0  0  0  0  0  0  0  0  0  0  0  0
   59.9490   33.8110   45.3360 N   0  0  0  0  0  0  0  0  0  0  0  0
   60.1940   33.6990   46.7430 C   0  0  0  0  0  0  0  0  0  0  0  0
   59.0950   33.5150   47.5910 C   0  0  0  0  0  0  0  0  0  0  0  0
   59.2700   33.4400   48.9720 C   0  0  0  0  0  0  0  0  0  0  0  0
   60.5470   33.5440   49.5200 C   0  0  0  0  0  0  0  0  0  0  0  0
   61.6640   33.6940   48.6910 C   0  0  0  0  0  0  0  0  0  0  0  0
   63.2470   33.8240   49.4520 Cl  0  0  0  0  0  0  0  0  0  0  0  0
   61.5040   33.7360   47.2870 C   0  0  0  0  0  0  0  0  0  0  0  0
   62.7180   33.8220   46.3940 C   0  0  0  0  0  0  0  0  0  0  0  0
   57.8030   32.6170   42.7660 C   0  0  0  0  0  0  0  0  0  0  0  0
   57.1880   31.4960   42.2060 C   0  0  0  0  0  0  0  0  0  0  0  0
   56.7850   30.4340   43.0190 C   0  0  0  0  0  0  0  0  0  0  0  0
   56.1860   29.3540   42.4600 F   0  0  0  0  0  0  0  0  0  0  0  0
   58.5540   29.0910   48.1280 C   0  0  0  0  0  0  0  0  0  0  0  0
   59.6560   29.5970   48.8210 C   0  0  0  0  0  0  0  0  0  0  0  0
   61.2171   30.7959   50.7050 H   0  0  0  0  0  0  0  0  0  0  0  0
   62.4161   29.4827   50.4511 H   0  0  0  0  0  0  0  0  0  0  0  0
   62.9493   31.1981   50.4511 H   0  0  0  0  0  0  0  0  0  0  0  0
   61.6636   30.3707   46.1648 H   0  0  0  0  0  0  0  0  0  0  0  0
   59.6993   29.4730   44.9266 H   0  0  0  0  0  0  0  0  0  0  0  0
   57.7486   31.6765   46.0558 H   0  0  0  0  0  0  0  0  0  0  0  0
   58.0850   33.4289   47.1638 H   0  0  0  0  0  0  0  0  0  0  0  0
   58.3995   33.2986   49.6295 H   0  0  0  0  0  0  0  0  0  0  0  0
   60.6777   33.5079   50.6116 H   0  0  0  0  0  0  0  0  0  0  0  0
   63.6249   33.8862   47.0132 H   0  0  0  0  0  0  0  0  0  0  0  0
   62.7704   32.9253   45.7590 H   0  0  0  0  0  0  0  0  0  0  0  0
   62.6434   34.7171   45.7590 H   0  0  0  0  0  0  0  0  0  0  0  0
   58.1264   33.4441   42.1169 H   0  0  0  0  0  0  0  0  0  0  0  0
   57.0200   31.4487   41.1199 H   0  0  0  0  0  0  0  0  0  0  0  0
   57.6785   28.7289   48.6868 H   0  0  0  0  0  0  0  0  0  0  0  0
   59.6426   29.6316   49.9204 H   0  0  0  0  0  0  0  0  0  0  0  0
  1  2  1  0
  2  3  1  0
  3  4  2  0
  4  5  1  0
  5  6  2  0
  6  7  1  0
  7  8  2  0
  7  9  1  0
  9 10  1  0
 10 11  2  0
 11 12  1  0
 12 13  1  0
 13 14  2  0
 13 15  1  0
 15 16  1  0
 16 17  2  0
 17 18  1  0
 18 19  2  0
 19 20  1  0
 20 21  1  0
 20 22  2  0
 22 23  1  0
 12 24  2  0
 24 25  1  0
 25 26  2  0
 26 27  1  0
  6 28  1  0
 28 29  2  0
 29  3  1  0
 26 10  1  0
 22 16  1  0
  1 30  1  0
  1 31  1  0
  1 32  1  0
  4 33  1  0
  5 34  1  0
 11 35  1  0
 17 36  1  0
 18 37  1  0
 19 38  1  0
 23 39  1  0
 23 40  1  0
 23 41  1  0
 24 42  1  0
 25 43  1  0
 28 44  1  0
 29 45  1  0
M  CHG  2   9  -1  15  -1
M  END
>  <UniqueID>  (44) 
37

>  <SMILES>  (44) 
COc1ccc(C(=O)[N-]c2cc(C(=O)[N-]c3cccc(Cl)c3C)ccc2F)cc1

>  <Energy>  (44) 
61.00604061130065

>  <Genealogy>  (44) 
COc1ccc(C(=O)[N-]c2cc(C(=O)[N-]c3cccc(Cl)c3C)ccc2F)cc1 (protonated)
COc1ccc(C(=O)[N-]c2cc(C(=O)[N-]c3cccc(Cl)c3C)ccc2F)cc1 (3D coordinates assigned)
COc1ccc(C(=O)[N-]c2cc(C(=O)[N-]c3cccc(Cl)c3C)ccc2F)cc1 (optimized conformer: 61.00604061130065 kcal/mol)

>  <smiles>  (44) 
COc1ccc(C(=O)Nc2cc(C(=O)Nc3cccc(Cl)c3C)ccc2F)cc1

>  <score_type>  (44) 
oracle

>  <origin>  (44) 
adg

>  <m_score__min__energy>  (44) 
-11.369999999999999

>  <m_primary>  (44) 
energy

$$$$
44:0
     RDKit          3D

 47 50  0  0  0  0  0  0  0  0999 V2000
   61.0160   28.7600   44.8260 C   0  0  0  0  0  0  0  0  0  0  0  0
   60.0920   29.5840   45.5290 O   0  0  0  0  0  0  0  0  0  0  0  0
   58.8290   29.9600   45.0450 C   0  0  0  0  0  0  0  0  0  0  0  0
   58.5150   31.3050   44.7570 C   0  0  0  0  0  0  0  0  0  0  0  0
   57.2440   31.6500   44.2910 C   0  0  0  0  0  0  0  0  0  0  0  0
   56.2710   30.6660   44.1120 C   0  0  0  0  0  0  0  0  0  0  0  0
   56.5680   29.3310   44.3910 C   0  0  0  0  0  0  0  0  0  0  0  0
   57.8470   28.9650   44.8440 C   0  0  0  0  0  0  0  0  0  0  0  0
   58.1370   27.5240   45.1580 C   0  0  0  0  0  0  0  0  0  0  0  0
   58.0790   27.3170   46.6030 N   0  0  0  0  0  0  0  0  0  0  0  0
   59.2130   27.3690   47.4790 C   0  0  0  0  0  0  0  0  0  0  0  0
   59.9100   26.3320   47.6360 O   0  0  0  0  0  0  0  0  0  0  0  0
   59.5350   28.5790   48.2570 C   0  0  0  0  0  0  0  0  0  0  0  0
   60.6690   28.5970   49.0820 C   0  0  0  0  0  0  0  0  0  0  0  0
   60.8950   29.6780   49.9400 C   0  0  0  0  0  0  0  0  0  0  0  0
   59.9890   30.7440   49.9840 C   0  0  0  0  0  0  0  0  0  0  0  0
   60.1280   31.7310   51.0120 N   0  0  0  0  0  0  0  0  0  0  0  0
   60.5310   33.3890   50.6900 S   0  0  0  0  0  0  0  0  0  0  0  0
   59.2950   34.2340   50.8090 O   0  0  0  0  0  0  0  0  0  0  0  0
   61.5470   33.8470   51.7000 O   0  0  0  0  0  0  0  0  0  0  0  0
   61.1750   33.5490   49.0490 C   0  0  0  0  0  0  0  0  0  0  0  0
   62.5440   33.3440   48.8030 C   0  0  0  0  0  0  0  0  0  0  0  0
   63.0540   33.3780   47.4950 C   0  0  0  0  0  0  0  0  0  0  0  0
   62.2080   33.6120   46.4050 C   0  0  0  0  0  0  0  0  0  0  0  0
   60.8490   33.8250   46.6330 C   0  0  0  0  0  0  0  0  0  0  0  0
   59.9650   34.0490   45.6270 N   0  0  0  0  0  0  0  0  0  0  0  0
   58.5700   34.2120   46.4980 S   0  0  0  0  0  0  0  0  0  0  0  0
   58.9920   34.0190   48.0850 N   0  0  0  0  0  0  0  0  0  0  0  0
   60.3270   33.8050   47.9580 C   0  0  0  0  0  0  0  0  0  0  0  0
   58.9130   30.7730   49.0820 C   0  0  0  0  0  0  0  0  0  0  0  0
   58.6880   29.6960   48.2240 C   0  0  0  0  0  0  0  0  0  0  0  0
   61.6362   28.2070   45.5468 H   0  0  0  0  0  0  0  0  0  0  0  0
   60.4651   28.0479   44.1940 H   0  0  0  0  0  0  0  0  0  0  0  0
   61.6606   29.3885   44.1940 H   0  0  0  0  0  0  0  0  0  0  0  0
   59.2755   32.0867   44.9002 H   0  0  0  0  0  0  0  0  0  0  0  0
   57.0095   32.7006   44.0645 H   0  0  0  0  0  0  0  0  0  0  0  0
   55.2694   30.9425   43.7509 H   0  0  0  0  0  0  0  0  0  0  0  0
   55.7954   28.5598   44.2553 H   0  0  0  0  0  0  0  0  0  0  0  0
   57.3895   26.8843   44.6661 H   0  0  0  0  0  0  0  0  0  0  0  0
   59.1412   27.2648   44.7914 H   0  0  0  0  0  0  0  0  0  0  0  0
   61.3817   27.7596   49.0542 H   0  0  0  0  0  0  0  0  0  0  0  0
   61.7878   29.6906   50.5825 H   0  0  0  0  0  0  0  0  0  0  0  0
   63.2246   33.1545   49.6462 H   0  0  0  0  0  0  0  0  0  0  0  0
   64.1292   33.2191   47.3255 H   0  0  0  0  0  0  0  0  0  0  0  0
   62.6101   33.6277   45.3812 H   0  0  0  0  0  0  0  0  0  0  0  0
   58.2459   31.6471   49.0518 H   0  0  0  0  0  0  0  0  0  0  0  0
   57.8436   29.7232   47.5195 H   0  0  0  0  0  0  0  0  0  0  0  0
  1  2  1  0
  2  3  1  0
  3  4  2  0
  4  5  1  0
  5  6  2  0
  6  7  1  0
  7  8  2  0
  8  9  1  0
  9 10  1  0
 10 11  1  0
 11 12  2  0
 11 13  1  0
 13 14  2  0
 14 15  1  0
 15 16  2  0
 16 17  1  0
 17 18  1  0
 18 19  2  0
 18 20  2  0
 18 21  1  0
 21 22  2  0
 22 23  1  0
 23 24  2  0
 24 25  1  0
 25 26  2  0
 26 27  1  0
 27 28  1  0
 28 29  2  0
 16 30  1  0
 30 31  2  0
  8  3  1  0
 31 13  1  0
 29 21  1  0
 29 25  1  0
  1 32  1  0
  1 33  1  0
  1 34  1  0
  4 35  1  0
  5 36  1  0
  6 37  1  0
  7 38  1  0
  9 39  1  0
  9 40  1  0
 14 41  1  0
 15 42  1  0
 22 43  1  0
 23 44  1  0
 24 45  1  0
 30 46  1  0
 31 47  1  0
M  CHG  2  10  -1  17  -1
M  END
>  <UniqueID>  (45) 
38

>  <SMILES>  (45) 
COc1ccccc1C[N-]C(=O)c1ccc([N-]S(=O)(=O)c2cccc3nsnc23)cc1

>  <Energy>  (45) 
95.39458742794419

>  <Genealogy>  (45) 
COc1ccccc1C[N-]C(=O)c1ccc([N-]S(=O)(=O)c2cccc3nsnc23)cc1 (protonated)
COc1ccccc1C[N-]C(=O)c1ccc([N-]S(=O)(=O)c2cccc3nsnc23)cc1 (3D coordinates assigned)
COc1ccccc1C[N-]C(=O)c1ccc([N-]S(=O)(=O)c2cccc3nsnc23)cc1 (optimized conformer: 95.39458742794419 kcal/mol)

>  <smiles>  (45) 
COc1ccccc1CNC(=O)c1ccc(NS(=O)(=O)c2cccc3nsnc23)cc1

>  <score_type>  (45) 
oracle

>  <origin>  (45) 
adg

>  <m_score__min__energy>  (45) 
-11.720000000000001

>  <m_primary>  (45) 
energy

$$$$
45:0
     RDKit          3D

 50 52  0  0  0  0  0  0  0  0999 V2000
   57.0030   21.3830   43.2620 C   0  0  0  0  0  0  0  0  0  0  0  0
   56.0000   22.2380   43.8010 O   0  0  0  0  0  0  0  0  0  0  0  0
   56.2370   23.5410   44.2620 C   0  0  0  0  0  0  0  0  0  0  0  0
   57.3180   24.3190   43.8050 C   0  0  0  0  0  0  0  0  0  0  0  0
   57.5200   25.6080   44.3080 C   0  0  0  0  0  0  0  0  0  0  0  0
   56.6510   26.1420   45.2670 C   0  0  0  0  0  0  0  0  0  0  0  0
   56.8870   27.4730   45.7410 N   0  0  0  0  0  0  0  0  0  0  0  0
   56.7250   28.9120   44.7900 S   0  0  0  0  0  0  0  0  0  0  0  0
   57.0290   28.5680   43.3580 O   0  0  0  0  0  0  0  0  0  0  0  0
   55.3180   29.4290   44.8900 O   0  0  0  0  0  0  0  0  0  0  0  0
   57.8380   30.1870   45.3190 C   0  0  0  0  0  0  0  0  0  0  0  0
   57.3940   31.5160   45.2490 C   0  0  0  0  0  0  0  0  0  0  0  0
   58.2210   32.5610   45.6500 C   0  0  0  0  0  0  0  0  0  0  0  0
   59.4990   32.2780   46.1220 C   0  0  0  0  0  0  0  0  0  0  0  0
   59.9220   30.9900   46.1980 N   0  0  0  0  0  0  0  0  0  0  0  0
   59.1370   29.9410   45.8270 C   0  0  0  0  0  0  0  0  0  0  0  0
   59.8380   28.2930   45.9900 S   0  0  0  0  0  0  0  0  0  0  0  0
   59.2010   27.9970   47.6740 C   0  0  0  0  0  0  0  0  0  0  0  0
   60.1400   28.5530   48.6950 C   0  0  0  0  0  0  0  0  0  0  0  0
   60.4930   27.8360   49.6710 O   0  0  0  0  0  0  0  0  0  0  0  0
   60.6190   29.8980   48.5700 N   0  0  0  0  0  0  0  0  0  0  0  0
   61.5490   30.4860   49.5320 C   0  0  0  0  0  0  0  0  0  0  0  0
   62.2400   31.6770   48.9270 C   0  0  0  0  0  0  0  0  0  0  0  0
   62.8730   31.5750   47.6780 C   0  0  0  0  0  0  0  0  0  0  0  0
   63.4750   32.6950   47.0970 C   0  0  0  0  0  0  0  0  0  0  0  0
   63.4430   33.9270   47.7550 C   0  0  0  0  0  0  0  0  0  0  0  0
   62.8050   34.0410   48.9940 C   0  0  0  0  0  0  0  0  0  0  0  0
   62.1960   32.9220   49.5760 C   0  0  0  0  0  0  0  0  0  0  0  0
   55.5700   25.3660   45.7210 C   0  0  0  0  0  0  0  0  0  0  0  0
   55.3690   24.0770   45.2200 C   0  0  0  0  0  0  0  0  0  0  0  0
   57.5600   20.9082   44.0831 H   0  0  0  0  0  0  0  0  0  0  0  0
   56.5292   20.6067   42.6432 H   0  0  0  0  0  0  0  0  0  0  0  0
   57.6946   21.9737   42.6432 H   0  0  0  0  0  0  0  0  0  0  0  0
   58.0060   23.9114   43.0497 H   0  0  0  0  0  0  0  0  0  0  0  0
   58.3688   26.2074   43.9472 H   0  0  0  0  0  0  0  0  0  0  0  0
   56.3832   31.7340   44.8738 H   0  0  0  0  0  0  0  0  0  0  0  0
   57.8676   33.6012   45.5943 H   0  0  0  0  0  0  0  0  0  0  0  0
   60.1653   33.0961   46.4330 H   0  0  0  0  0  0  0  0  0  0  0  0
   58.2206   28.4842   47.7808 H   0  0  0  0  0  0  0  0  0  0  0  0
   59.1054   26.9127   47.8323 H   0  0  0  0  0  0  0  0  0  0  0  0
   60.3310   30.4520   47.7330 H   0  0  0  0  0  0  0  0  0  0  0  0
   60.9933   30.8042   50.4264 H   0  0  0  0  0  0  0  0  0  0  0  0
   62.3041   29.7345   49.8059 H   0  0  0  0  0  0  0  0  0  0  0  0
   62.8954   30.6083   47.1536 H   0  0  0  0  0  0  0  0  0  0  0  0
   63.9743   32.6062   46.1209 H   0  0  0  0  0  0  0  0  0  0  0  0
   63.9196   34.8071   47.2985 H   0  0  0  0  0  0  0  0  0  0  0  0
   62.7813   35.0109   49.5124 H   0  0  0  0  0  0  0  0  0  0  0  0
   61.6820   33.0184   50.5437 H   0  0  0  0  0  0  0  0  0  0  0  0
   54.8798   25.7751   46.4735 H   0  0  0  0  0  0  0  0  0  0  0  0
   54.5204   23.4780   45.5821 H   0  0  0  0  0  0  0  0  0  0  0  0
  1  2  1  0
  2  3  1  0
  3  4  2  0
  4  5  1  0
  5  6  2  0
  6  7  1  0
  7  8  1  0
  8  9  2  0
  8 10  2  0
  8 11  1  0
 11 12  2  0
 12 13  1  0
 13 14  2  0
 14 15  1  0
 15 16  2  0
 16 17  1  0
 17 18  1  0
 18 19  1  0
 19 20  2  0
 19 21  1  0
 21 22  1  0
 22 23  1  0
 23 24  2  0
 24 25  1  0
 25 26  2  0
 26 27  1  0
 27 28  2  0
  6 29  1  0
 29 30  2  0
 30  3  1  0
 16 11  1  0
 28 23  1  0
  1 31  1  0
  1 32  1  0
  1 33  1  0
  4 34  1  0
  5 35  1  0
 12 36  1  0
 13 37  1  0
 14 38  1  0
 18 39  1  0
 18 40  1  0
 21 41  1  0
 22 42  1  0
 22 43  1  0
 24 44  1  0
 25 45  1  0
 26 46  1  0
 27 47  1  0
 28 48  1  0
 29 49  1  0
 30 50  1  0
M  CHG  1   7  -1
M  END
>  <UniqueID>  (46) 
39

>  <SMILES>  (46) 
COc1ccc([N-]S(=O)(=O)c2cccnc2SCC(=O)NCc2ccccc2)cc1

>  <Energy>  (46) 
48.37087792850143

>  <Genealogy>  (46) 
COc1ccc([N-]S(=O)(=O)c2cccnc2SCC(=O)NCc2ccccc2)cc1 (protonated)
COc1ccc([N-]S(=O)(=O)c2cccnc2SCC(=O)NCc2ccccc2)cc1 (3D coordinates assigned)
COc1ccc([N-]S(=O)(=O)c2cccnc2SCC(=O)NCc2ccccc2)cc1 (optimized conformer: 48.37087792850143 kcal/mol)

>  <smiles>  (46) 
COc1ccc(NS(=O)(=O)c2cccnc2SCC(=O)NCc2ccccc2)cc1

>  <score_type>  (46) 
oracle

>  <origin>  (46) 
adg

>  <m_score__min__energy>  (46) 
-10.470000000000001

>  <m_primary>  (46) 
energy

$$$$
46:0
     RDKit          3D

 53 57  0  0  0  0  0  0  0  0999 V2000
   57.9235   21.8090   44.3997 H   0  0  0  0  0  0  0  0  0  0  0  0
   57.9820   22.8970   44.5510 C   0  0  0  0  0  0  0  0  0  0  0  0
   57.3190   23.7620   43.6750 C   0  0  0  0  0  0  0  0  0  0  0  0
   56.7408   23.3540   42.8329 H   0  0  0  0  0  0  0  0  0  0  0  0
   57.3900   25.1440   43.8680 C   0  0  0  0  0  0  0  0  0  0  0  0
   56.8709   25.8205   43.1731 H   0  0  0  0  0  0  0  0  0  0  0  0
   58.1210   25.6750   44.9450 C   0  0  0  0  0  0  0  0  0  0  0  0
   58.2030   27.1460   45.1350 C   0  0  0  0  0  0  0  0  0  0  0  0
   59.2910   27.7400   45.8070 C   0  0  0  0  0  0  0  0  0  0  0  0
   60.2060   27.0080   46.2790 O   0  0  0  0  0  0  0  0  0  0  0  0
   59.3470   29.1040   45.9630 N   0  0  0  0  0  0  0  0  0  0  0  0
   60.4860   29.7150   46.6810 C   0  0  0  0  0  0  0  0  0  0  0  0
   61.3615   29.0543   46.5979 H   0  0  0  0  0  0  0  0  0  0  0  0
   60.7031   30.6949   46.2308 H   0  0  0  0  0  0  0  0  0  0  0  0
   60.1530   29.9140   48.1370 C   0  0  0  0  0  0  0  0  0  0  0  0
   59.2490   30.9170   48.5290 C   0  0  0  0  0  0  0  0  0  0  0  0
   58.7991   31.5751   47.7710 H   0  0  0  0  0  0  0  0  0  0  0  0
   58.9190   31.0820   49.8780 C   0  0  0  0  0  0  0  0  0  0  0  0
   58.2133   31.8706   50.1781 H   0  0  0  0  0  0  0  0  0  0  0  0
   59.4840   30.2470   50.8450 C   0  0  0  0  0  0  0  0  0  0  0  0
   59.2224   30.3772   51.9055 H   0  0  0  0  0  0  0  0  0  0  0  0
   60.3820   29.2460   50.4640 C   0  0  0  0  0  0  0  0  0  0  0  0
   60.8276   28.5892   51.2256 H   0  0  0  0  0  0  0  0  0  0  0  0
   60.7150   29.0780   49.1160 C   0  0  0  0  0  0  0  0  0  0  0  0
   61.4205   28.2873   48.8210 H   0  0  0  0  0  0  0  0  0  0  0  0
   58.3260   29.8860   45.4790 C   0  0  0  0  0  0  0  0  0  0  0  0
   58.3480   31.2410   45.6250 N   0  0  0  0  0  0  0  0  0  0  0  0
   57.3490   32.0290   45.1420 C   0  0  0  0  0  0  0  0  0  0  0  0
   57.3850   33.3210   45.2830 N   0  0  0  0  0  0  0  0  0  0  0  0
   58.5720   34.1580   45.1030 C   0  0  0  0  0  0  0  0  0  0  0  0
   59.1312   33.8027   44.2249 H   0  0  0  0  0  0  0  0  0  0  0  0
   58.2450   35.1986   44.9610 H   0  0  0  0  0  0  0  0  0  0  0  0
   59.4700   34.1020   46.3130 C   0  0  0  0  0  0  0  0  0  0  0  0
   60.8410   33.8290   46.1690 C   0  0  0  0  0  0  0  0  0  0  0  0
   61.2627   33.6540   45.1682 H   0  0  0  0  0  0  0  0  0  0  0  0
   61.6710   33.7790   47.2930 C   0  0  0  0  0  0  0  0  0  0  0  0
   62.7452   33.5742   47.1741 H   0  0  0  0  0  0  0  0  0  0  0  0
   61.1370   33.9890   48.5680 C   0  0  0  0  0  0  0  0  0  0  0  0
   61.7915   33.9527   49.4513 H   0  0  0  0  0  0  0  0  0  0  0  0
   59.7720   34.2450   48.7200 C   0  0  0  0  0  0  0  0  0  0  0  0
   59.3521   34.4059   49.7239 H   0  0  0  0  0  0  0  0  0  0  0  0
   58.9390   34.2970   47.5990 C   0  0  0  0  0  0  0  0  0  0  0  0
   57.8635   34.4913   47.7241 H   0  0  0  0  0  0  0  0  0  0  0  0
   56.2980   31.4620   44.4970 N   0  0  0  0  0  0  0  0  0  0  0  0
   56.2170   30.1190   44.3240 C   0  0  0  0  0  0  0  0  0  0  0  0
   55.2230   29.6330   43.7210 O   0  0  0  0  0  0  0  0  0  0  0  0
   57.2370   29.2890   44.8160 C   0  0  0  0  0  0  0  0  0  0  0  0
   57.2000   27.9370   44.6630 N   0  0  0  0  0  0  0  0  0  0  0  0
   56.3990   27.4940   44.1570 H   0  0  0  0  0  0  0  0  0  0  0  0
   58.7920   24.7970   45.8160 C   0  0  0  0  0  0  0  0  0  0  0  0
   59.3768   25.2000   46.6560 H   0  0  0  0  0  0  0  0  0  0  0  0
   58.7190   23.4160   45.6190 C   0  0  0  0  0  0  0  0  0  0  0  0
   59.2429   22.7353   46.3062 H   0  0  0  0  0  0  0  0  0  0  0  0
  1  2  1  0
  2  3  2  0
  3  4  1  0
  3  5  1  0
  5  6  1  0
  5  7  2  0
  7  8  1  0
  8  9  1  0
  9 10  2  0
  9 11  1  0
 11 12  1  0
 12 13  1  0
 12 14  1  0
 12 15  1  0
 15 16  2  0
 16 17  1  0
 16 18  1  0
 18 19  1  0
 18 20  2  0
 20 21  1  0
 20 22  1  0
 22 23  1  0
 22 24  2  0
 24 25  1  0
 11 26  1  0
 26 27  1  0
 27 28  1  0
 28 29  2  0
 29 30  1  0
 30 31  1  0
 30 32  1  0
 30 33  1  0
 33 34  2  0
 34 35  1  0
 34 36  1  0
 36 37  1  0
 36 38  2  0
 38 39  1  0
 38 40  1  0
 40 41  1  0
 40 42  2  0
 42 43  1  0
 28 44  1  0
 44 45  1  0
 45 46  2  0
 45 47  1  0
 47 48  1  0
 48 49  1  0
  7 50  1  0
 50 51  1  0
 50 52  2  0
 52 53  1  0
 52  2  1  0
 48  8  2  0
 24 15  1  0
 47 26  2  0
 42 33  1  0
M  CHG  3  27  -1  44  -1  48   1
M  END
>  <UniqueID>  (47) 
40

>  <SMILES>  (47) 
O=c1[n-]/c(=N/Cc2ccccc2)[n-]c2c1[nH+]c(-c1ccccc1)c(=O)n2Cc1ccccc1

>  <Energy>  (47) 
72.32030355579245

>  <Genealogy>  (47) 
O=c1[n-]c(=NCc2ccccc2)[n-]c2c1[nH+]c(-c1ccccc1)c(=O)n2Cc1ccccc1 (protonated)
O=c1[n-]/c(=N/Cc2ccccc2)[n-]c2c1[nH+]c(-c1ccccc1)c(=O)n2Cc1ccccc1 (cis-trans isomerization)
O=c1[n-]/c(=N/Cc2ccccc2)[n-]c2c1[nH+]c(-c1ccccc1)c(=O)n2Cc1ccccc1 (3D coordinates assigned)
O=c1[n-]/c(=N/Cc2ccccc2)[n-]c2c1[nH+]c(-c1ccccc1)c(=O)n2Cc1ccccc1 (optimized conformer: 72.32030355579245 kcal/mol)

>  <smiles>  (47) 
O=c1[nH]c(=NCc2ccccc2)[nH]c2c1nc(-c1ccccc1)c(=O)n2Cc1ccccc1

>  <score_type>  (47) 
oracle

>  <origin>  (47) 
adg

>  <m_score__min__energy>  (47) 
-10.210000000000001

>  <m_primary>  (47) 
energy

$$$$
47:0
     RDKit          3D

 40 42  0  0  0  0  0  0  0  0999 V2000
   58.4470   31.3150   43.4390 O   0  0  0  0  0  0  0  0  0  0  0  0
   57.6880   30.9830   44.3880 C   0  0  0  0  0  0  0  0  0  0  0  0
   56.7530   31.9450   44.8920 N   0  0  0  0  0  0  0  0  0  0  0  0
   57.0180   33.3720   45.0280 C   0  0  0  0  0  0  0  0  0  0  0  0
   58.1840   33.5740   45.9510 C   0  0  0  0  0  0  0  0  0  0  0  0
   59.2910   34.3350   45.5370 C   0  0  0  0  0  0  0  0  0  0  0  0
   60.3610   34.5520   46.4100 C   0  0  0  0  0  0  0  0  0  0  0  0
   60.3300   34.0210   47.7030 C   0  0  0  0  0  0  0  0  0  0  0  0
   59.2260   33.2770   48.1260 C   0  0  0  0  0  0  0  0  0  0  0  0
   58.1520   33.0580   47.2580 C   0  0  0  0  0  0  0  0  0  0  0  0
   57.8170   29.6320   44.9680 C   0  0  0  0  0  0  0  0  0  0  0  0
   57.6690   28.5030   44.1480 C   0  0  0  0  0  0  0  0  0  0  0  0
   57.7740   27.2180   44.6880 C   0  0  0  0  0  0  0  0  0  0  0  0
   58.0230   27.0440   46.0580 C   0  0  0  0  0  0  0  0  0  0  0  0
   58.1010   25.6620   46.6510 C   0  0  0  0  0  0  0  0  0  0  0  0
   57.5130   24.6770   45.7280 N   0  0  0  0  0  0  0  0  0  0  0  0
   58.3200   23.7330   45.1570 C   0  0  0  0  0  0  0  0  0  0  0  0
   57.7890   22.7690   44.3030 C   0  0  0  0  0  0  0  0  0  0  0  0
   58.5930   21.8340   43.7350 F   0  0  0  0  0  0  0  0  0  0  0  0
   56.4200   22.7840   44.0510 C   0  0  0  0  0  0  0  0  0  0  0  0
   55.9030   21.9290   43.2850 O   0  0  0  0  0  0  0  0  0  0  0  0
   55.6390   23.7260   44.6370 N   0  0  0  0  0  0  0  0  0  0  0  0
   56.1650   24.6630   45.4690 C   0  0  0  0  0  0  0  0  0  0  0  0
   55.3970   25.5140   45.9930 O   0  0  0  0  0  0  0  0  0  0  0  0
   58.1400   28.1730   46.8840 C   0  0  0  0  0  0  0  0  0  0  0  0
   58.0350   29.4570   46.3430 C   0  0  0  0  0  0  0  0  0  0  0  0
   57.2523   33.7979   44.0413 H   0  0  0  0  0  0  0  0  0  0  0  0
   56.1303   33.8741   45.4402 H   0  0  0  0  0  0  0  0  0  0  0  0
   59.3154   34.7610   44.5231 H   0  0  0  0  0  0  0  0  0  0  0  0
   61.2288   35.1415   46.0791 H   0  0  0  0  0  0  0  0  0  0  0  0
   61.1749   34.1891   48.3871 H   0  0  0  0  0  0  0  0  0  0  0  0
   59.2015   32.8624   49.1446 H   0  0  0  0  0  0  0  0  0  0  0  0
   57.2800   32.4805   47.5988 H   0  0  0  0  0  0  0  0  0  0  0  0
   57.4691   28.6299   43.0738 H   0  0  0  0  0  0  0  0  0  0  0  0
   57.6609   26.3392   44.0361 H   0  0  0  0  0  0  0  0  0  0  0  0
   59.1546   25.4043   46.8339 H   0  0  0  0  0  0  0  0  0  0  0  0
   57.5400   25.6459   47.5970 H   0  0  0  0  0  0  0  0  0  0  0  0
   59.3984   23.7346   45.3738 H   0  0  0  0  0  0  0  0  0  0  0  0
   58.3152   28.0462   47.9625 H   0  0  0  0  0  0  0  0  0  0  0  0
   58.1237   30.3357   46.9988 H   0  0  0  0  0  0  0  0  0  0  0  0
  1  2  2  0
  2  3  1  0
  3  4  1  0
  4  5  1  0
  5  6  2  0
  6  7  1  0
  7  8  2  0
  8  9  1  0
  9 10  2  0
  2 11  1  0
 11 12  2  0
 12 13  1  0
 13 14  2  0
 14 15  1  0
 15 16  1  0
 16 17  1  0
 17 18  2  0
 18 19  1  0
 18 20  1  0
 20 21  2  0
 20 22  1  0
 22 23  1  0
 23 24  2  0
 14 25  1  0
 25 26  2  0
 10  5  1  0
 26 11  1  0
 23 16  1  0
  4 27  1  0
  4 28  1  0
  6 29  1  0
  7 30  1  0
  8 31  1  0
  9 32  1  0
 10 33  1  0
 12 34  1  0
 13 35  1  0
 15 36  1  0
 15 37  1  0
 17 38  1  0
 25 39  1  0
 26 40  1  0
M  CHG  2   3  -1  22  -1
M  END
>  <UniqueID>  (48) 
41

>  <SMILES>  (48) 
O=C([N-]Cc1ccccc1)c1ccc(Cn2cc(F)c(=O)[n-]c2=O)cc1

>  <Energy>  (48) 
48.126702165536365

>  <Genealogy>  (48) 
O=C([N-]Cc1ccccc1)c1ccc(Cn2cc(F)c(=O)[n-]c2=O)cc1 (protonated)
O=C([N-]Cc1ccccc1)c1ccc(Cn2cc(F)c(=O)[n-]c2=O)cc1 (3D coordinates assigned)
O=C([N-]Cc1ccccc1)c1ccc(Cn2cc(F)c(=O)[n-]c2=O)cc1 (optimized conformer: 48.126702165536365 kcal/mol)

>  <smiles>  (48) 
O=C(NCc1ccccc1)c1ccc(Cn2cc(F)c(=O)[nH]c2=O)cc1

>  <score_type>  (48) 
oracle

>  <origin>  (48) 
adg

>  <m_score__min__energy>  (48) 
-11.1

>  <m_primary>  (48) 
energy

$$$$
48:0
     RDKit          3D

 66 69  0  0  0  0  0  0  0  0999 V2000
   61.4643   26.8683   46.8121 H   0  0  0  0  0  0  0  0  0  0  0  0
   60.4980   26.8450   46.2870 C   0  0  0  0  0  0  0  0  0  0  0  0
   59.7370   25.7500   46.1020 N   0  0  0  0  0  0  0  0  0  0  0  0
   58.6380   26.1000   45.4440 N   0  0  0  0  0  0  0  0  0  0  0  0
   57.5930   25.1270   45.0390 C   0  0  0  0  0  0  0  0  0  0  0  0
   56.2500   25.4770   45.7170 C   0  0  0  0  0  0  0  0  0  0  0  0
   56.3717   25.4453   46.8098 H   0  0  0  0  0  0  0  0  0  0  0  0
   55.9374   26.4866   45.4120 H   0  0  0  0  0  0  0  0  0  0  0  0
   55.4844   24.7484   45.4120 H   0  0  0  0  0  0  0  0  0  0  0  0
   57.3920   25.1710   43.5110 C   0  0  0  0  0  0  0  0  0  0  0  0
   56.3402   25.4012   43.2860 H   0  0  0  0  0  0  0  0  0  0  0  0
   58.0383   25.9489   43.0784 H   0  0  0  0  0  0  0  0  0  0  0  0
   57.6542   24.1942   43.0784 H   0  0  0  0  0  0  0  0  0  0  0  0
   57.9860   23.7020   45.4840 C   0  0  0  0  0  0  0  0  0  0  0  0
   57.9999   23.6517   46.5828 H   0  0  0  0  0  0  0  0  0  0  0  0
   57.2533   22.9806   45.0932 H   0  0  0  0  0  0  0  0  0  0  0  0
   58.9849   23.4582   45.0932 H   0  0  0  0  0  0  0  0  0  0  0  0
   58.6800   27.4380   45.2170 C   0  0  0  0  0  0  0  0  0  0  0  0
   57.4010   28.4200   44.5110 Cl  0  0  0  0  0  0  0  0  0  0  0  0
   59.8730   27.9340   45.7130 C   0  0  0  0  0  0  0  0  0  0  0  0
   60.4030   29.3490   45.6470 C   0  0  0  0  0  0  0  0  0  0  0  0
   61.4986   29.3041   45.5590 H   0  0  0  0  0  0  0  0  0  0  0  0
   59.9270   29.8265   44.7778 H   0  0  0  0  0  0  0  0  0  0  0  0
   60.0630   30.1790   46.8330 N   0  0  1  0  0  0  0  0  0  0  0  0
   60.0000   31.1610   46.4670 H   0  0  0  0  0  0  0  0  0  0  0  0
   58.7190   29.8710   47.4040 C   0  0  0  0  0  0  0  0  0  0  0  0
   58.1349   29.3209   46.6516 H   0  0  0  0  0  0  0  0  0  0  0  0
   58.2442   30.8272   47.6691 H   0  0  0  0  0  0  0  0  0  0  0  0
   58.7970   29.0210   48.6840 C   0  0  0  0  0  0  0  0  0  0  0  0
   59.2616   28.0538   48.4418 H   0  0  0  0  0  0  0  0  0  0  0  0
   57.7749   28.8829   49.0664 H   0  0  0  0  0  0  0  0  0  0  0  0
   59.6340   29.7180   49.7850 C   0  0  2  0  0  0  0  0  0  0  0  0
   60.1847   28.9264   50.3143 H   0  0  0  0  0  0  0  0  0  0  0  0
   58.7630   30.4190   50.7390 N   0  0  0  0  0  0  0  0  0  0  0  0
   57.4940   30.1020   50.9530 N   0  0  0  0  0  0  0  0  0  0  0  0
   56.9980   30.9650   51.8620 C   0  0  0  0  0  0  0  0  0  0  0  0
   55.9685   30.9519   52.2492 H   0  0  0  0  0  0  0  0  0  0  0  0
   57.9760   31.8700   52.2360 C   0  0  0  0  0  0  0  0  0  0  0  0
   57.8937   32.6984   52.9551 H   0  0  0  0  0  0  0  0  0  0  0  0
   59.0830   31.4900   51.4940 C   0  0  0  0  0  0  0  0  0  0  0  0
   60.2620   32.0490   51.4740 N   0  0  0  0  0  0  0  0  0  0  0  0
   60.6170   33.3800   51.0660 C   0  0  0  0  0  0  0  0  0  0  0  0
   61.6940   33.9200   51.4410 O   0  0  0  0  0  0  0  0  0  0  0  0
   59.6450   34.1500   50.2180 C   0  0  0  0  0  0  0  0  0  0  0  0
   58.6255   33.8068   50.4480 H   0  0  0  0  0  0  0  0  0  0  0  0
   59.7702   35.2184   50.4478 H   0  0  0  0  0  0  0  0  0  0  0  0
   59.8990   33.9620   48.7440 C   0  0  0  0  0  0  0  0  0  0  0  0
   61.2100   33.9990   48.2440 C   0  0  0  0  0  0  0  0  0  0  0  0
   62.0526   34.1773   48.9283 H   0  0  0  0  0  0  0  0  0  0  0  0
   61.4490   33.8100   46.8790 C   0  0  0  0  0  0  0  0  0  0  0  0
   62.4792   33.8353   46.4942 H   0  0  0  0  0  0  0  0  0  0  0  0
   60.3830   33.5890   46.0020 C   0  0  0  0  0  0  0  0  0  0  0  0
   60.5791   33.4222   44.9326 H   0  0  0  0  0  0  0  0  0  0  0  0
   59.0590   33.5790   46.4820 C   0  0  0  0  0  0  0  0  0  0  0  0
   57.8980   33.2980   45.5620 C   0  0  0  0  0  0  0  0  0  0  0  0
   56.7030   33.7380   46.1080 F   0  0  0  0  0  0  0  0  0  0  0  0
   58.1050   33.9430   44.3550 F   0  0  0  0  0  0  0  0  0  0  0  0
   57.7980   31.9360   45.3330 F   0  0  0  0  0  0  0  0  0  0  0  0
   58.8290   33.7550   47.8570 C   0  0  0  0  0  0  0  0  0  0  0  0
   57.7994   33.7305   48.2435 H   0  0  0  0  0  0  0  0  0  0  0  0
   60.6730   30.6970   49.1980 C   0  0  0  0  0  0  0  0  0  0  0  0
   61.5287   30.7735   49.8850 H   0  0  0  0  0  0  0  0  0  0  0  0
   60.2040   31.6838   49.0705 H   0  0  0  0  0  0  0  0  0  0  0  0
   61.1620   30.1960   47.8340 C   0  0  0  0  0  0  0  0  0  0  0  0
   61.5567   29.1757   47.9487 H   0  0  0  0  0  0  0  0  0  0  0  0
   61.9445   30.8809   47.4754 H   0  0  0  0  0  0  0  0  0  0  0  0
  1  2  1  0
  2  3  2  0
  3  4  1  0
  4  5  1  0
  5  6  1  0
  6  7  1  0
  6  8  1  0
  6  9  1  0
  5 10  1  0
 10 11  1  0
 10 12  1  0
 10 13  1  0
  5 14  1  0
 14 15  1  0
 14 16  1  0
 14 17  1  0
  4 18  1  0
 18 19  1  0
 18 20  2  0
 20 21  1  0
 21 22  1  0
 21 23  1  0
 21 24  1  0
 24 25  1  1
 24 26  1  0
 26 27  1  0
 26 28  1  0
 26 29  1  0
 29 30  1  0
 29 31  1  0
 29 32  1  0
 32 33  1  6
 32 34  1  0
 34 35  1  0
 35 36  1  0
 36 37  1  0
 36 38  2  0
 38 39  1  0
 38 40  1  0
 40 41  2  0
 41 42  1  0
 42 43  2  0
 42 44  1  0
 44 45  1  0
 44 46  1  0
 44 47  1  0
 47 48  2  0
 48 49  1  0
 48 50  1  0
 50 51  1  0
 50 52  2  0
 52 53  1  0
 52 54  1  0
 54 55  1  0
 55 56  1  0
 55 57  1  0
 55 58  1  0
 54 59  2  0
 59 60  1  0
 32 61  1  0
 61 62  1  0
 61 63  1  0
 61 64  1  0
 64 65  1  0
 64 66  1  0
 20  2  1  0
 64 24  1  0
 40 34  1  0
 59 47  1  0
M  CHG  2  24   1  35  -1
M  END
>  <UniqueID>  (49) 
42

>  <SMILES>  (49) 
CC(C)(C)n1ncc(C[NH+]2CCC(n3[n-]cc/c3=N\C(=O)Cc3cccc(C(F)(F)F)c3)CC2)c1Cl

>  <Energy>  (49) 
144.07565126397574

>  <Genealogy>  (49) 
CC(C)(C)n1ncc(C[NH+]2CCC(n3[n-]ccc3=NC(=O)Cc3cccc(C(F)(F)F)c3)CC2)c1Cl (protonated)
CC(C)(C)n1ncc(C[NH+]2CCC(n3[n-]cc/c3=N\C(=O)Cc3cccc(C(F)(F)F)c3)CC2)c1Cl (cis-trans isomerization)
CC(C)(C)n1ncc(C[NH+]2CCC(n3[n-]cc/c3=N\C(=O)Cc3cccc(C(F)(F)F)c3)CC2)c1Cl (3D coordinates assigned)
CC(C)(C)n1ncc(C[NH+]2CCC(n3[n-]cc/c3=N\C(=O)Cc3cccc(C(F)(F)F)c3)CC2)c1Cl (nonaromatic ring conformer: 144.07565126397574 kcal/mol)

>  <smiles>  (49) 
CC(C)(C)n1ncc(CN2CCC(n3[nH]ccc3=NC(=O)Cc3cccc(C(F)(F)F)c3)CC2)c1Cl

>  <score_type>  (49) 
oracle

>  <origin>  (49) 
adg

>  <m_score__min__energy>  (49) 
-8.5500000000000007

>  <m_primary>  (49) 
energy

$$$$
49:0
     RDKit          3D

 50 53  0  0  0  0  0  0  0  0999 V2000
   64.1390   33.0340   46.8300 N   0  0  0  0  0  0  0  0  0  0  0  0
   64.0710   33.3470   48.2210 C   0  0  0  0  0  0  0  0  0  0  0  0
   65.0520   33.0870   48.9670 O   0  0  0  0  0  0  0  0  0  0  0  0
   62.8220   33.9250   48.8120 C   0  0  0  0  0  0  0  0  0  0  0  0
   61.7040   33.0000   48.6170 N   0  0  0  0  0  0  0  0  0  0  0  0
   61.6190   31.7530   49.1440 C   0  0  0  0  0  0  0  0  0  0  0  0
   60.4700   31.1200   48.6900 C   0  0  0  0  0  0  0  0  0  0  0  0
   59.9710   29.4410   49.0780 S   0  0  0  0  0  0  0  0  0  0  0  0
   59.4330   29.1310   47.3960 C   0  0  0  0  0  0  0  0  0  0  0  0
   60.2930   29.3770   46.3230 C   0  0  0  0  0  0  0  0  0  0  0  0
   59.8680   29.1290   45.0140 C   0  0  0  0  0  0  0  0  0  0  0  0
   58.5780   28.6440   44.7770 C   0  0  0  0  0  0  0  0  0  0  0  0
   57.7030   28.4060   45.8440 C   0  0  0  0  0  0  0  0  0  0  0  0
   56.4130   27.8380   45.5670 N   0  0  0  0  0  0  0  0  0  0  0  0
   55.9100   26.5880   46.0620 C   0  0  0  0  0  0  0  0  0  0  0  0
   54.6850   26.3160   45.9880 O   0  0  0  0  0  0  0  0  0  0  0  0
   56.7940   25.6560   46.6880 N   0  0  0  0  0  0  0  0  0  0  0  0
   57.3120   24.4910   46.0420 C   0  0  0  0  0  0  0  0  0  0  0  0
   56.4480   23.4640   45.6210 C   0  0  0  0  0  0  0  0  0  0  0  0
   56.9710   22.3050   45.0340 C   0  0  0  0  0  0  0  0  0  0  0  0
   58.3490   22.1730   44.8500 C   0  0  0  0  0  0  0  0  0  0  0  0
   59.2130   23.1940   45.2630 C   0  0  0  0  0  0  0  0  0  0  0  0
   58.7030   24.3480   45.8660 C   0  0  0  0  0  0  0  0  0  0  0  0
   59.8070   25.6230   46.3620 Cl  0  0  0  0  0  0  0  0  0  0  0  0
   58.1460   28.6340   47.1610 C   0  0  0  0  0  0  0  0  0  0  0  0
   59.8420   32.0170   47.8500 C   0  0  0  0  0  0  0  0  0  0  0  0
   58.6750   31.9000   47.0980 C   0  0  0  0  0  0  0  0  0  0  0  0
   58.2920   32.9890   46.2800 C   0  0  0  0  0  0  0  0  0  0  0  0
   57.1000   32.9110   45.4760 N   0  0  0  0  0  0  0  0  0  0  0  0
   56.4130   33.9310   45.2540 O   0  0  0  0  0  0  0  0  0  0  0  0
   56.6880   31.7040   44.9590 O   0  0  0  0  0  0  0  0  0  0  0  0
   59.0990   34.1590   46.2560 C   0  0  0  0  0  0  0  0  0  0  0  0
   60.2720   34.2450   47.0270 C   0  0  0  0  0  0  0  0  0  0  0  0
   60.6200   33.1490   47.8190 C   0  0  0  0  0  0  0  0  0  0  0  0
   63.3120   33.1620   46.2080 H   0  0  0  0  0  0  0  0  0  0  0  0
   65.0270   32.6750   46.4140 H   0  0  0  0  0  0  0  0  0  0  0  0
   62.9722   34.0938   49.8885 H   0  0  0  0  0  0  0  0  0  0  0  0
   62.5937   34.8790   48.3142 H   0  0  0  0  0  0  0  0  0  0  0  0
   62.3537   31.3081   49.8312 H   0  0  0  0  0  0  0  0  0  0  0  0
   61.3052   29.7660   46.5079 H   0  0  0  0  0  0  0  0  0  0  0  0
   60.5488   29.3155   44.1703 H   0  0  0  0  0  0  0  0  0  0  0  0
   58.2486   28.4482   43.7459 H   0  0  0  0  0  0  0  0  0  0  0  0
   55.3612   23.5712   45.7528 H   0  0  0  0  0  0  0  0  0  0  0  0
   56.2950   21.4971   44.7173 H   0  0  0  0  0  0  0  0  0  0  0  0
   58.7560   21.2656   44.3799 H   0  0  0  0  0  0  0  0  0  0  0  0
   60.2975   23.0881   45.1126 H   0  0  0  0  0  0  0  0  0  0  0  0
   57.4779   28.4206   48.0084 H   0  0  0  0  0  0  0  0  0  0  0  0
   58.0669   30.9843   47.1392 H   0  0  0  0  0  0  0  0  0  0  0  0
   58.8016   35.0096   45.6251 H   0  0  0  0  0  0  0  0  0  0  0  0
   60.8974   35.1497   47.0067 H   0  0  0  0  0  0  0  0  0  0  0  0
  1  2  1  0
  2  3  2  0
  2  4  1  0
  4  5  1  0
  5  6  1  0
  6  7  2  0
  7  8  1  0
  8  9  1  0
  9 10  2  0
 10 11  1  0
 11 12  2  0
 12 13  1  0
 13 14  1  0
 14 15  1  0
 15 16  2  0
 15 17  1  0
 17 18  1  0
 18 19  2  0
 19 20  1  0
 20 21  2  0
 21 22  1  0
 22 23  2  0
 23 24  1  0
 13 25  2  0
  7 26  1  0
 26 27  2  0
 27 28  1  0
 28 29  1  0
 29 30  2  0
 29 31  1  0
 28 32  2  0
 32 33  1  0
 33 34  2  0
 34  5  1  0
 25  9  1  0
 34 26  1  0
 23 18  1  0
  1 35  1  0
  1 36  1  0
  4 37  1  0
  4 38  1  0
  6 39  1  0
 10 40  1  0
 11 41  1  0
 12 42  1  0
 19 43  1  0
 20 44  1  0
 21 45  1  0
 22 46  1  0
 25 47  1  0
 27 48  1  0
 32 49  1  0
 33 50  1  0
M  CHG  4  14  -1  17  -1  29   1  31  -1
M  END
>  <UniqueID>  (50) 
43

>  <SMILES>  (50) 
NC(=O)Cn1cc(Sc2cccc([N-]C(=O)[N-]c3ccccc3Cl)c2)c2cc([N+](=O)[O-])ccc21

>  <Energy>  (50) 
89.93470807909817

>  <Genealogy>  (50) 
NC(=O)Cn1cc(Sc2cccc([N-]C(=O)[N-]c3ccccc3Cl)c2)c2cc([N+](=O)[O-])ccc21 (protonated)
NC(=O)Cn1cc(Sc2cccc([N-]C(=O)[N-]c3ccccc3Cl)c2)c2cc([N+](=O)[O-])ccc21 (3D coordinates assigned)
NC(=O)Cn1cc(Sc2cccc([N-]C(=O)[N-]c3ccccc3Cl)c2)c2cc([N+](=O)[O-])ccc21 (optimized conformer: 89.93470807909817 kcal/mol)

>  <smiles>  (50) 
NC(=O)Cn1cc(Sc2cccc(NC(=O)Nc3ccccc3Cl)c2)c2cc([N+](=O)[O-])ccc21

>  <score_type>  (50) 
oracle

>  <origin>  (50) 
adg

>  <m_score__min__energy>  (50) 
-14.039999999999999

>  <m_primary>  (50) 
energy

$$$$
50:0
     RDKit          3D

 29 30  0  0  0  0  0  0  0  0999 V2000
   55.4850   29.9650   44.2770 C   0  0  0  0  0  0  0  0  0  0  0  0
   56.7880   29.2720   44.6170 C   0  0  0  0  0  0  0  0  0  0  0  0
   56.7540   28.0250   45.2770 C   0  0  0  0  0  0  0  0  0  0  0  0
   55.5440   27.4210   45.6100 O   0  0  0  0  0  0  0  0  0  0  0  0
   57.9490   27.3830   45.6070 C   0  0  0  0  0  0  0  0  0  0  0  0
   57.9310   26.2670   46.1930 O   0  0  0  0  0  0  0  0  0  0  0  0
   59.1630   27.9780   45.2870 C   0  0  0  0  0  0  0  0  0  0  0  0
   59.1730   29.2120   44.6440 C   0  0  0  0  0  0  0  0  0  0  0  0
   58.0060   29.8500   44.3140 N   0  0  0  0  0  0  0  0  0  0  0  0
   58.1060   31.1700   43.6550 C   0  0  0  0  0  0  0  0  0  0  0  0
   58.3250   32.2680   44.6650 C   0  0  0  0  0  0  0  0  0  0  0  0
   58.8430   33.5100   44.2640 C   0  0  0  0  0  0  0  0  0  0  0  0
   59.0330   34.5330   45.1980 C   0  0  0  0  0  0  0  0  0  0  0  0
   58.6970   34.3310   46.5400 C   0  0  0  0  0  0  0  0  0  0  0  0
   58.8910   35.3590   47.4600 O   0  0  0  0  0  0  0  0  0  0  0  0
   58.1640   33.1000   46.9450 C   0  0  0  0  0  0  0  0  0  0  0  0
   57.9740   32.0760   46.0130 C   0  0  0  0  0  0  0  0  0  0  0  0
   54.9640   30.2421   45.2053 H   0  0  0  0  0  0  0  0  0  0  0  0
   55.6941   30.8711   43.6894 H   0  0  0  0  0  0  0  0  0  0  0  0
   54.8506   29.2851   43.6894 H   0  0  0  0  0  0  0  0  0  0  0  0
   60.1092   27.4773   45.5400 H   0  0  0  0  0  0  0  0  0  0  0  0
   60.1352   29.6839   44.3961 H   0  0  0  0  0  0  0  0  0  0  0  0
   58.9509   31.1564   42.9507 H   0  0  0  0  0  0  0  0  0  0  0  0
   57.1626   31.3672   43.1248 H   0  0  0  0  0  0  0  0  0  0  0  0
   59.1010   33.6792   43.2082 H   0  0  0  0  0  0  0  0  0  0  0  0
   59.4480   35.4995   44.8760 H   0  0  0  0  0  0  0  0  0  0  0  0
   59.1560   36.2910   47.1630 H   0  0  0  0  0  0  0  0  0  0  0  0
   57.8944   32.9392   47.9993 H   0  0  0  0  0  0  0  0  0  0  0  0
   57.5476   31.1147   46.3357 H   0  0  0  0  0  0  0  0  0  0  0  0
  1  2  1  0
  2  3  2  0
  3  4  1  0
  3  5  1  0
  5  6  2  0
  5  7  1  0
  7  8  2  0
  8  9  1  0
  9 10  1  0
 10 11  1  0
 11 12  2  0
 12 13  1  0
 13 14  2  0
 14 15  1  0
 14 16  1  0
 16 17  2  0
  9  2  1  0
 17 11  1  0
  1 18  1  0
  1 19  1  0
  1 20  1  0
  7 21  1  0
  8 22  1  0
 10 23  1  0
 10 24  1  0
 12 25  1  0
 13 26  1  0
 15 27  1  0
 16 28  1  0
 17 29  1  0
M  CHG  1   4  -1
M  END
>  <UniqueID>  (51) 
44

>  <SMILES>  (51) 
Cc1c([O-])c(=O)ccn1Cc1ccc(O)cc1

>  <Energy>  (51) 
33.67209713972236

>  <Genealogy>  (51) 
Cc1c([O-])c(=O)ccn1Cc1ccc(O)cc1 (protonated)
Cc1c([O-])c(=O)ccn1Cc1ccc(O)cc1 (3D coordinates assigned)
Cc1c([O-])c(=O)ccn1Cc1ccc(O)cc1 (optimized conformer: 33.67209713972236 kcal/mol)

>  <smiles>  (51) 
Cc1c(O)c(=O)ccn1Cc1ccc(O)cc1

>  <score_type>  (51) 
oracle

>  <origin>  (51) 
adg

>  <m_score__min__energy>  (51) 
-9.4700000000000006

>  <m_primary>  (51) 
energy

$$$$
51:0
     RDKit          3D

 38 40  0  0  0  0  0  0  0  0999 V2000
   54.3900   26.0460   45.9780 N   0  0  0  0  0  0  0  0  0  0  0  0
   54.2350   24.3660   45.6040 S   0  0  0  0  0  0  0  0  0  0  0  0
   53.2370   24.1920   44.4930 O   0  0  0  0  0  0  0  0  0  0  0  0
   53.7430   23.6240   46.8150 O   0  0  0  0  0  0  0  0  0  0  0  0
   55.7990   23.7280   45.1080 C   0  0  0  0  0  0  0  0  0  0  0  0
   55.8830   22.8160   44.0470 C   0  0  0  0  0  0  0  0  0  0  0  0
   57.1290   22.3380   43.6320 C   0  0  0  0  0  0  0  0  0  0  0  0
   58.2940   22.7630   44.2760 C   0  0  0  0  0  0  0  0  0  0  0  0
   58.2230   23.6590   45.3500 C   0  0  0  0  0  0  0  0  0  0  0  0
   59.4440   24.0870   45.9700 N   0  0  0  0  0  0  0  0  0  0  0  0
   59.7620   25.4220   46.3840 C   0  0  0  0  0  0  0  0  0  0  0  0
   60.8380   25.9710   46.0230 O   0  0  0  0  0  0  0  0  0  0  0  0
   58.7560   26.2080   47.1640 C   0  0  0  0  0  0  0  0  0  0  0  0
   58.7530   27.6080   46.7420 N   0  0  0  0  0  0  0  0  0  0  0  0
   57.6210   28.1790   46.0670 C   0  0  0  0  0  0  0  0  0  0  0  0
   56.6710   27.4330   45.7020 O   0  0  0  0  0  0  0  0  0  0  0  0
   57.5670   29.6270   45.7520 C   0  0  0  0  0  0  0  0  0  0  0  0
   56.6440   30.0980   44.7950 C   0  0  0  0  0  0  0  0  0  0  0  0
   56.5790   31.4210   44.4860 N   0  0  0  0  0  0  0  0  0  0  0  0
   57.4060   32.2910   45.1100 C   0  0  0  0  0  0  0  0  0  0  0  0
   57.4610   33.9480   44.8590 S   0  0  0  0  0  0  0  0  0  0  0  0
   58.6870   34.1660   46.0050 C   0  0  0  0  0  0  0  0  0  0  0  0
   59.0130   32.9250   46.5510 C   0  0  0  0  0  0  0  0  0  0  0  0
   58.2930   31.8860   46.0430 N   0  0  0  0  0  0  0  0  0  0  0  0
   58.3960   30.5740   46.3970 C   0  0  0  0  0  0  0  0  0  0  0  0
   59.1990   30.2240   47.3040 O   0  0  0  0  0  0  0  0  0  0  0  0
   56.9690   24.1580   45.7490 C   0  0  0  0  0  0  0  0  0  0  0  0
   54.8050   26.5080   45.1380 H   0  0  0  0  0  0  0  0  0  0  0  0
   54.9675   22.4762   43.5406 H   0  0  0  0  0  0  0  0  0  0  0  0
   57.1928   21.6255   42.7964 H   0  0  0  0  0  0  0  0  0  0  0  0
   59.2725   22.3917   43.9374 H   0  0  0  0  0  0  0  0  0  0  0  0
   57.7565   25.7792   46.9993 H   0  0  0  0  0  0  0  0  0  0  0  0
   59.0208   26.1610   48.2306 H   0  0  0  0  0  0  0  0  0  0  0  0
   59.6150   28.1840   46.8680 H   0  0  0  0  0  0  0  0  0  0  0  0
   55.9699   29.3881   44.2934 H   0  0  0  0  0  0  0  0  0  0  0  0
   59.1498   35.1269   46.2744 H   0  0  0  0  0  0  0  0  0  0  0  0
   59.7844   32.7962   47.3246 H   0  0  0  0  0  0  0  0  0  0  0  0
   56.9067   24.8894   46.5683 H   0  0  0  0  0  0  0  0  0  0  0  0
  1  2  1  0
  2  3  2  0
  2  4  2  0
  2  5  1  0
  5  6  2  0
  6  7  1  0
  7  8  2  0
  8  9  1  0
  9 10  1  0
 10 11  1  0
 11 12  2  0
 11 13  1  0
 13 14  1  0
 14 15  1  0
 15 16  2  0
 15 17  1  0
 17 18  2  0
 18 19  1  0
 19 20  2  0
 20 21  1  0
 21 22  1  0
 22 23  2  0
 23 24  1  0
 24 25  1  0
 25 26  2  0
  9 27  2  0
 27  5  1  0
 25 17  1  0
 24 20  1  0
  1 28  1  0
  6 29  1  0
  7 30  1  0
  8 31  1  0
 13 32  1  0
 13 33  1  0
 14 34  1  0
 18 35  1  0
 22 36  1  0
 23 37  1  0
 27 38  1  0
M  CHG  2   1  -1  10  -1
M  END
>  <UniqueID>  (52) 
45

>  <SMILES>  (52) 
[NH-]S(=O)(=O)c1cccc([N-]C(=O)CNC(=O)c2cnc3sccn3c2=O)c1

>  <Energy>  (52) 
80.49758769608519

>  <Genealogy>  (52) 
[NH-]S(=O)(=O)c1cccc([N-]C(=O)CNC(=O)c2cnc3sccn3c2=O)c1 (protonated)
[NH-]S(=O)(=O)c1cccc([N-]C(=O)CNC(=O)c2cnc3sccn3c2=O)c1 (3D coordinates assigned)
[NH-]S(=O)(=O)c1cccc([N-]C(=O)CNC(=O)c2cnc3sccn3c2=O)c1 (optimized conformer: 80.49758769608519 kcal/mol)

>  <smiles>  (52) 
NS(=O)(=O)c1cccc(NC(=O)CNC(=O)c2cnc3sccn3c2=O)c1

>  <score_type>  (52) 
oracle

>  <origin>  (52) 
adg

>  <m_score__min__energy>  (52) 
-12.34

>  <m_primary>  (52) 
energy

$$$$
52:0
     RDKit          3D

 53 56  0  0  0  0  0  0  0  0999 V2000
   59.4880   28.7860   48.3590 O   0  0  0  0  0  0  0  0  0  0  0  0
   59.3220   29.5720   47.3870 C   0  0  0  0  0  0  0  0  0  0  0  0
   60.1030   30.7680   47.2940 N   0  0  0  0  0  0  0  0  0  0  0  0
   61.5220   30.8310   47.6280 C   0  0  0  0  0  0  0  0  0  0  0  0
   61.9570   32.2830   47.9330 C   0  0  0  0  0  0  0  0  0  0  0  0
   60.8950   33.1280   48.5290 N   0  0  0  0  0  0  0  0  0  0  0  0
   60.6400   34.3710   47.7640 C   0  0  0  0  0  0  0  0  0  0  0  0
   59.3970   34.1930   46.9370 C   0  0  0  0  0  0  0  0  0  0  0  0
   58.2610   33.5660   47.4790 C   0  0  0  0  0  0  0  0  0  0  0  0
   57.0910   33.4560   46.7210 C   0  0  0  0  0  0  0  0  0  0  0  0
   57.0450   33.9740   45.4230 C   0  0  0  0  0  0  0  0  0  0  0  0
   58.1690   34.6030   44.8800 C   0  0  0  0  0  0  0  0  0  0  0  0
   59.3400   34.7130   45.6320 C   0  0  0  0  0  0  0  0  0  0  0  0
   61.0510   33.3460   49.9820 C   0  0  0  0  0  0  0  0  0  0  0  0
   59.7630   33.0280   50.6940 C   0  0  0  0  0  0  0  0  0  0  0  0
   58.9810   31.9260   50.3150 C   0  0  0  0  0  0  0  0  0  0  0  0
   57.8040   31.6460   51.0150 C   0  0  0  0  0  0  0  0  0  0  0  0
   57.4200   32.4370   52.0550 N   0  0  0  0  0  0  0  0  0  0  0  0
   58.1650   33.5080   52.4450 C   0  0  0  0  0  0  0  0  0  0  0  0
   59.3500   33.8210   51.7740 C   0  0  0  0  0  0  0  0  0  0  0  0
   58.3420   29.2310   46.3390 C   0  0  0  0  0  0  0  0  0  0  0  0
   57.6030   28.0510   46.2790 C   0  0  0  0  0  0  0  0  0  0  0  0
   56.8470   28.0190   45.1610 N   0  0  0  0  0  0  0  0  0  0  0  0
   57.1040   29.1620   44.5050 C   0  0  0  0  0  0  0  0  0  0  0  0
   56.5810   29.5570   43.2730 C   0  0  0  0  0  0  0  0  0  0  0  0
   57.0050   30.7860   42.7400 C   0  0  0  0  0  0  0  0  0  0  0  0
   57.9320   31.5870   43.4410 C   0  0  0  0  0  0  0  0  0  0  0  0
   58.4470   31.1650   44.6800 C   0  0  0  0  0  0  0  0  0  0  0  0
   58.0090   29.9380   45.1900 C   0  0  0  0  0  0  0  0  0  0  0  0
   61.7111   30.2057   48.5130 H   0  0  0  0  0  0  0  0  0  0  0  0
   62.1007   30.4661   46.7666 H   0  0  0  0  0  0  0  0  0  0  0  0
   62.8034   32.2484   48.6347 H   0  0  0  0  0  0  0  0  0  0  0  0
   62.2185   32.7416   46.9680 H   0  0  0  0  0  0  0  0  0  0  0  0
   60.5017   35.2107   48.4610 H   0  0  0  0  0  0  0  0  0  0  0  0
   61.4956   34.5836   47.1062 H   0  0  0  0  0  0  0  0  0  0  0  0
   58.2928   33.1612   48.5013 H   0  0  0  0  0  0  0  0  0  0  0  0
   56.2055   32.9612   47.1465 H   0  0  0  0  0  0  0  0  0  0  0  0
   56.1235   33.8864   44.8287 H   0  0  0  0  0  0  0  0  0  0  0  0
   58.1308   35.0116   43.8594 H   0  0  0  0  0  0  0  0  0  0  0  0
   60.2224   35.2089   45.2014 H   0  0  0  0  0  0  0  0  0  0  0  0
   61.8490   32.6926   50.3643 H   0  0  0  0  0  0  0  0  0  0  0  0
   61.3114   34.3994   50.1621 H   0  0  0  0  0  0  0  0  0  0  0  0
   59.2916   31.2882   49.4744 H   0  0  0  0  0  0  0  0  0  0  0  0
   57.1857   30.7837   50.7248 H   0  0  0  0  0  0  0  0  0  0  0  0
   56.5370   32.2170   52.5670 H   0  0  0  0  0  0  0  0  0  0  0  0
   57.8331   34.1284   53.2905 H   0  0  0  0  0  0  0  0  0  0  0  0
   59.9546   34.6836   52.0909 H   0  0  0  0  0  0  0  0  0  0  0  0
   57.6317   27.2553   47.0380 H   0  0  0  0  0  0  0  0  0  0  0  0
   56.2120   27.2460   44.8590 H   0  0  0  0  0  0  0  0  0  0  0  0
   55.8586   28.9253   42.7353 H   0  0  0  0  0  0  0  0  0  0  0  0
   56.6121   31.1260   41.7705 H   0  0  0  0  0  0  0  0  0  0  0  0
   58.2541   32.5487   43.0151 H   0  0  0  0  0  0  0  0  0  0  0  0
   59.1724   31.7812   45.2315 H   0  0  0  0  0  0  0  0  0  0  0  0
  1  2  2  0
  2  3  1  0
  3  4  1  0
  4  5  1  0
  5  6  1  0
  6  7  1  0
  7  8  1  0
  8  9  2  0
  9 10  1  0
 10 11  2  0
 11 12  1  0
 12 13  2  0
  6 14  1  0
 14 15  1  0
 15 16  2  0
 16 17  1  0
 17 18  2  0
 18 19  1  0
 19 20  2  0
  2 21  1  0
 21 22  2  0
 22 23  1  0
 23 24  1  0
 24 25  2  0
 25 26  1  0
 26 27  2  0
 27 28  1  0
 28 29  2  0
 13  8  1  0
 20 15  1  0
 29 21  1  0
 29 24  1  0
  4 30  1  0
  4 31  1  0
  5 32  1  0
  5 33  1  0
  7 34  1  0
  7 35  1  0
  9 36  1  0
 10 37  1  0
 11 38  1  0
 12 39  1  0
 13 40  1  0
 14 41  1  0
 14 42  1  0
 16 43  1  0
 17 44  1  0
 18 45  1  0
 19 46  1  0
 20 47  1  0
 22 48  1  0
 23 49  1  0
 25 50  1  0
 26 51  1  0
 27 52  1  0
 28 53  1  0
M  CHG  2   3  -1  18   1
M  END
>  <UniqueID>  (53) 
46

>  <SMILES>  (53) 
O=C([N-]CCN(Cc1ccccc1)Cc1cc[nH+]cc1)c1c[nH]c2ccccc12

>  <Energy>  (53) 
92.0195740270088

>  <Genealogy>  (53) 
O=C([N-]CCN(Cc1ccccc1)Cc1cc[nH+]cc1)c1c[nH]c2ccccc12 (protonated)
O=C([N-]CCN(Cc1ccccc1)Cc1cc[nH+]cc1)c1c[nH]c2ccccc12 (3D coordinates assigned)
O=C([N-]CCN(Cc1ccccc1)Cc1cc[nH+]cc1)c1c[nH]c2ccccc12 (optimized conformer: 92.0195740270088 kcal/mol)

>  <smiles>  (53) 
O=C(NCCN(Cc1ccccc1)Cc1ccncc1)c1c[nH]c2ccccc12

>  <score_type>  (53) 
oracle

>  <origin>  (53) 
adg

>  <m_score__min__energy>  (53) 
-9.4199999999999999

>  <m_primary>  (53) 
energy

$$$$
53:0
     RDKit          3D

 46 47  0  0  0  0  0  0  0  0999 V2000
   56.2110   23.9630   46.5780 H   0  0  0  0  0  0  0  0  0  0  0  0
   55.4720   24.6690   46.3630 N   0  0  0  0  0  0  0  0  0  0  0  0
   54.5530   24.4640   45.4760 C   0  0  0  0  0  0  0  0  0  0  0  0
   54.4246   25.1919   44.6613 H   0  0  0  0  0  0  0  0  0  0  0  0
   53.6740   23.2840   45.5260 C   0  0  0  0  0  0  0  0  0  0  0  0
   52.6560   23.2590   44.7870 O   0  0  0  0  0  0  0  0  0  0  0  0
   53.9220   22.1750   46.3990 N   0  0  0  0  0  0  0  0  0  0  0  0
   53.6870   22.1550   47.8420 C   0  0  0  0  0  0  0  0  0  0  0  0
   53.6488   23.1898   48.2132 H   0  0  0  0  0  0  0  0  0  0  0  0
   52.7347   21.6381   48.0315 H   0  0  0  0  0  0  0  0  0  0  0  0
   54.8020   21.4010   48.5780 C   0  0  0  0  0  0  0  0  0  0  0  0
   54.4918   21.2491   49.6224 H   0  0  0  0  0  0  0  0  0  0  0  0
   54.9563   20.4474   48.0519 H   0  0  0  0  0  0  0  0  0  0  0  0
   56.1380   22.1490   48.5700 C   0  0  0  0  0  0  0  0  0  0  0  0
   55.9798   23.1719   48.1977 H   0  0  0  0  0  0  0  0  0  0  0  0
   56.5386   22.1806   49.5940 H   0  0  0  0  0  0  0  0  0  0  0  0
   57.0720   21.4780   47.7240 O   0  0  0  0  0  0  0  0  0  0  0  0
   56.9820   21.4170   46.3230 C   0  0  0  0  0  0  0  0  0  0  0  0
   56.2950   20.3760   45.6660 C   0  0  0  0  0  0  0  0  0  0  0  0
   55.7580   19.6176   46.2546 H   0  0  0  0  0  0  0  0  0  0  0  0
   56.2930   20.3030   44.2710 C   0  0  0  0  0  0  0  0  0  0  0  0
   55.7509   19.4906   43.7649 H   0  0  0  0  0  0  0  0  0  0  0  0
   56.9770   21.2580   43.5180 C   0  0  0  0  0  0  0  0  0  0  0  0
   56.9876   21.1875   42.4203 H   0  0  0  0  0  0  0  0  0  0  0  0
   57.6480   22.3030   44.1560 C   0  0  0  0  0  0  0  0  0  0  0  0
   58.1947   23.0479   43.5592 H   0  0  0  0  0  0  0  0  0  0  0  0
   57.6280   22.4070   45.5530 C   0  0  0  0  0  0  0  0  0  0  0  0
   58.3050   23.5080   46.1730 N   0  0  0  0  0  0  0  0  0  0  0  0
   59.6700   23.8440   45.9140 C   0  0  0  0  0  0  0  0  0  0  0  0
   60.4800   22.9260   45.6210 O   0  0  0  0  0  0  0  0  0  0  0  0
   60.0980   25.2110   46.0000 N   0  0  0  0  0  0  0  0  0  0  0  0
   59.3540   26.3980   45.6870 C   0  0  0  0  0  0  0  0  0  0  0  0
   58.2150   26.2710   44.8820 C   0  0  0  0  0  0  0  0  0  0  0  0
   57.9238   25.2806   44.5021 H   0  0  0  0  0  0  0  0  0  0  0  0
   57.4450   27.3910   44.5570 C   0  0  0  0  0  0  0  0  0  0  0  0
   56.5460   27.2765   43.9336 H   0  0  0  0  0  0  0  0  0  0  0  0
   57.8150   28.6590   45.0230 C   0  0  0  0  0  0  0  0  0  0  0  0
   56.8510   30.0720   44.6060 S   0  0  0  0  0  0  0  0  0  0  0  0
   57.2800   31.2460   45.4420 O   0  0  0  0  0  0  0  0  0  0  0  0
   57.0500   30.4140   43.1560 O   0  0  0  0  0  0  0  0  0  0  0  0
   55.1800   29.7370   44.8940 N   0  0  0  0  0  0  0  0  0  0  0  0
   55.1410   28.9580   45.5900 H   0  0  0  0  0  0  0  0  0  0  0  0
   58.9770   28.7990   45.7930 C   0  0  0  0  0  0  0  0  0  0  0  0
   59.2856   29.7957   46.1415 H   0  0  0  0  0  0  0  0  0  0  0  0
   59.7470   27.6780   46.1210 C   0  0  0  0  0  0  0  0  0  0  0  0
   60.6621   27.7972   46.7197 H   0  0  0  0  0  0  0  0  0  0  0  0
  1  2  1  0
  2  3  2  0
  3  4  1  0
  3  5  1  0
  5  6  2  0
  5  7  1  0
  7  8  1  0
  8  9  1  0
  8 10  1  0
  8 11  1  0
 11 12  1  0
 11 13  1  0
 11 14  1  0
 14 15  1  0
 14 16  1  0
 14 17  1  0
 17 18  1  0
 18 19  2  0
 19 20  1  0
 19 21  1  0
 21 22  1  0
 21 23  2  0
 23 24  1  0
 23 25  1  0
 25 26  1  0
 25 27  2  0
 27 28  1  0
 28 29  1  0
 29 30  2  0
 29 31  1  0
 31 32  1  0
 32 33  2  0
 33 34  1  0
 33 35  1  0
 35 36  1  0
 35 37  2  0
 37 38  1  0
 38 39  2  0
 38 40  2  0
 38 41  1  0
 41 42  1  0
 37 43  1  0
 43 44  1  0
 43 45  2  0
 45 46  1  0
 27 18  1  0
 45 32  1  0
M  CHG  4   7  -1  28  -1  31  -1  41  -1
M  END
>  <UniqueID>  (54) 
47

>  <SMILES>  (54) 
[H]/N=C\C(=O)[N-]CCCOc1ccccc1[N-]C(=O)[N-]c1ccc(S([NH-])(=O)=O)cc1

>  <Energy>  (54) 
51.30150882704964

>  <Genealogy>  (54) 
N=CC(=O)[N-]CCCOc1ccccc1[N-]C(=O)[N-]c1ccc(S([NH-])(=O)=O)cc1 (protonated)
[H]/N=C\C(=O)[N-]CCCOc1ccccc1[N-]C(=O)[N-]c1ccc(S([NH-])(=O)=O)cc1 (cis-trans isomerization)
[H]/N=C\C(=O)[N-]CCCOc1ccccc1[N-]C(=O)[N-]c1ccc(S([NH-])(=O)=O)cc1 (3D coordinates assigned)
[H]/N=C\C(=O)[N-]CCCOc1ccccc1[N-]C(=O)[N-]c1ccc(S([NH-])(=O)=O)cc1 (optimized conformer: 51.30150882704964 kcal/mol)

>  <smiles>  (54) 
N=CC(=O)NCCCOc1ccccc1NC(=O)Nc1ccc(S(N)(=O)=O)cc1

>  <score_type>  (54) 
oracle

>  <origin>  (54) 
adg

>  <m_score__min__energy>  (54) 
-14.029999999999999

>  <m_primary>  (54) 
energy

$$$$
54:0
     RDKit          3D

 45 46  0  0  0  0  0  0  0  0999 V2000
   56.3825   34.6213   45.8133 H   0  0  0  0  0  0  0  0  0  0  0  0
   57.1640   33.8480   45.8480 C   0  0  0  0  0  0  0  0  0  0  0  0
   56.8400   32.5480   45.6310 N   0  0  0  0  0  0  0  0  0  0  0  0
   57.7720   31.5530   45.6740 C   0  0  0  0  0  0  0  0  0  0  0  0
   57.4320   30.3170   45.4650 N   0  0  0  0  0  0  0  0  0  0  0  0
   56.7020   29.7440   43.9990 S   0  0  0  0  0  0  0  0  0  0  0  0
   57.3860   28.4740   43.5790 O   0  0  0  0  0  0  0  0  0  0  0  0
   55.2450   29.4600   44.2320 O   0  0  0  0  0  0  0  0  0  0  0  0
   56.8910   30.9560   42.7100 C   0  0  0  0  0  0  0  0  0  0  0  0
   57.0457   31.9481   43.1593 H   0  0  0  0  0  0  0  0  0  0  0  0
   57.7595   30.6962   42.0869 H   0  0  0  0  0  0  0  0  0  0  0  0
   55.9846   30.9730   42.0869 H   0  0  0  0  0  0  0  0  0  0  0  0
   59.1100   31.8650   45.9630 C   0  0  0  0  0  0  0  0  0  0  0  0
   60.0620   30.8360   46.0210 O   0  0  0  0  0  0  0  0  0  0  0  0
   60.0360   29.7910   46.9560 C   0  0  0  0  0  0  0  0  0  0  0  0
   60.6340   29.9930   48.2050 C   0  0  0  0  0  0  0  0  0  0  0  0
   61.1125   30.9568   48.4336 H   0  0  0  0  0  0  0  0  0  0  0  0
   60.6260   28.9770   49.1620 C   0  0  0  0  0  0  0  0  0  0  0  0
   61.0923   29.1443   50.1441 H   0  0  0  0  0  0  0  0  0  0  0  0
   60.0270   27.7480   48.8750 C   0  0  0  0  0  0  0  0  0  0  0  0
   60.0193   26.9547   49.6370 H   0  0  0  0  0  0  0  0  0  0  0  0
   59.4360   27.5160   47.6260 C   0  0  0  0  0  0  0  0  0  0  0  0
   58.8660   26.2520   47.3980 O   0  0  0  0  0  0  0  0  0  0  0  0
   57.4700   25.9390   47.3300 C   0  0  0  0  0  0  0  0  0  0  0  0
   56.9219   26.6214   47.9963 H   0  0  0  0  0  0  0  0  0  0  0  0
   57.3456   24.8902   47.6374 H   0  0  0  0  0  0  0  0  0  0  0  0
   56.9030   26.0820   45.8950 C   0  0  0  0  0  0  0  0  0  0  0  0
   56.3830   27.4470   45.7350 N   0  0  0  0  0  0  0  0  0  0  0  0
   57.1780   28.1280   45.7230 H   0  0  0  0  0  0  0  0  0  0  0  0
   55.9000   27.5290   44.8110 H   0  0  0  0  0  0  0  0  0  0  0  0
   58.0310   25.8620   44.8680 C   0  0  0  0  0  0  0  0  0  0  0  0
   58.9776   25.6774   45.3970 H   0  0  0  0  0  0  0  0  0  0  0  0
   57.7883   24.9943   44.2370 H   0  0  0  0  0  0  0  0  0  0  0  0
   58.1321   26.7573   44.2370 H   0  0  0  0  0  0  0  0  0  0  0  0
   55.7720   25.0650   45.6400 C   0  0  0  0  0  0  0  0  0  0  0  0
   55.3756   24.7086   46.6022 H   0  0  0  0  0  0  0  0  0  0  0  0
   54.9663   25.5484   45.0680 H   0  0  0  0  0  0  0  0  0  0  0  0
   56.1674   24.2127   45.0680 H   0  0  0  0  0  0  0  0  0  0  0  0
   59.4500   28.5450   46.6620 C   0  0  0  0  0  0  0  0  0  0  0  0
   58.9999   28.3730   45.6732 H   0  0  0  0  0  0  0  0  0  0  0  0
   59.4690   33.2140   46.1640 C   0  0  0  0  0  0  0  0  0  0  0  0
   60.8430   33.5960   46.3730 C   0  0  0  0  0  0  0  0  0  0  0  0
   61.9460   33.9040   46.5400 N   0  0  0  0  0  0  0  0  0  0  0  0
   58.4860   34.2060   46.1150 C   0  0  0  0  0  0  0  0  0  0  0  0
   58.7520   35.2597   46.2854 H   0  0  0  0  0  0  0  0  0  0  0  0
  1  2  1  0
  2  3  1  0
  3  4  1  0
  4  5  2  0
  5  6  1  0
  6  7  2  0
  6  8  2  0
  6  9  1  0
  9 10  1  0
  9 11  1  0
  9 12  1  0
  4 13  1  0
 13 14  1  0
 14 15  1  0
 15 16  2  0
 16 17  1  0
 16 18  1  0
 18 19  1  0
 18 20  2  0
 20 21  1  0
 20 22  1  0
 22 23  1  0
 23 24  1  0
 24 25  1  0
 24 26  1  0
 24 27  1  0
 27 28  1  0
 28 29  1  0
 28 30  1  0
 27 31  1  0
 31 32  1  0
 31 33  1  0
 31 34  1  0
 27 35  1  0
 35 36  1  0
 35 37  1  0
 35 38  1  0
 22 39  2  0
 39 40  1  0
 13 41  2  0
 41 42  1  0
 42 43  3  0
 41 44  1  0
 44 45  1  0
 44  2  2  0
 39 15  1  0
M  CHG  1   3  -1
M  END
>  <UniqueID>  (55) 
48

>  <SMILES>  (55) 
CC(C)(N)COc1cccc(Oc2c(C#N)cc[n-]/c2=N\S(C)(=O)=O)c1

>  <Energy>  (55) 
48.60570573152992

>  <Genealogy>  (55) 
CC(C)(N)COc1cccc(Oc2c(C#N)cc[n-]c2=NS(C)(=O)=O)c1 (protonated)
CC(C)(N)COc1cccc(Oc2c(C#N)cc[n-]/c2=N\S(C)(=O)=O)c1 (cis-trans isomerization)
CC(C)(N)COc1cccc(Oc2c(C#N)cc[n-]/c2=N\S(C)(=O)=O)c1 (3D coordinates assigned)
CC(C)(N)COc1cccc(Oc2c(C#N)cc[n-]/c2=N\S(C)(=O)=O)c1 (optimized conformer: 48.60570573152992 kcal/mol)

>  <smiles>  (55) 
CC(C)(N)COc1cccc(Oc2c(C#N)cc[nH]c2=NS(C)(=O)=O)c1

>  <score_type>  (55) 
oracle

>  <origin>  (55) 
adg

>  <m_score__min__energy>  (55) 
-9.25

>  <m_primary>  (55) 
energy

$$$$
55:0
     RDKit          3D

 46 49  0  0  0  0  0  0  0  0999 V2000
   58.2550   31.1700   53.6650 C   0  0  0  0  0  0  0  0  0  0  0  0
   57.9070   31.6710   51.9920 S   0  0  0  0  0  0  0  0  0  0  0  0
   56.8500   32.7370   52.0230 O   0  0  0  0  0  0  0  0  0  0  0  0
   57.3940   30.5070   51.1910 O   0  0  0  0  0  0  0  0  0  0  0  0
   59.3360   32.3210   51.2510 N   0  0  0  0  0  0  0  0  0  0  0  0
   59.3690   32.9630   49.9640 C   0  0  0  0  0  0  0  0  0  0  0  0
   60.2840   33.9910   49.6630 C   0  0  0  0  0  0  0  0  0  0  0  0
   60.2860   34.5930   48.4010 C   0  0  0  0  0  0  0  0  0  0  0  0
   59.3890   34.1650   47.4150 C   0  0  0  0  0  0  0  0  0  0  0  0
   58.4730   33.1430   47.7030 C   0  0  0  0  0  0  0  0  0  0  0  0
   58.4630   32.5490   48.9730 C   0  0  0  0  0  0  0  0  0  0  0  0
   57.4990   32.7330   46.6370 C   0  0  0  0  0  0  0  0  0  0  0  0
   58.1700   32.7260   45.3270 N   0  0  0  0  0  0  0  0  0  0  0  0
   57.8220   31.7320   44.3480 C   0  0  0  0  0  0  0  0  0  0  0  0
   57.3990   32.1000   43.2200 O   0  0  0  0  0  0  0  0  0  0  0  0
   57.9800   30.2860   44.6320 C   0  0  0  0  0  0  0  0  0  0  0  0
   59.2330   29.6600   44.4900 C   0  0  0  0  0  0  0  0  0  0  0  0
   59.3780   28.2940   44.7490 C   0  0  0  0  0  0  0  0  0  0  0  0
   58.2740   27.5380   45.1530 C   0  0  0  0  0  0  0  0  0  0  0  0
   57.0180   28.1460   45.2760 C   0  0  0  0  0  0  0  0  0  0  0  0
   56.8690   29.5110   45.0120 C   0  0  0  0  0  0  0  0  0  0  0  0
   55.8870   27.3490   45.6280 N   0  0  0  0  0  0  0  0  0  0  0  0
   56.0560   25.9700   45.9560 C   0  0  0  0  0  0  0  0  0  0  0  0
   55.0460   25.2500   46.1750 O   0  0  0  0  0  0  0  0  0  0  0  0
   57.4380   25.4010   46.1180 C   0  0  0  0  0  0  0  0  0  0  0  0
   58.4150   26.1670   45.4060 O   0  0  0  0  0  0  0  0  0  0  0  0
   59.1270   33.7820   44.9490 C   0  0  0  0  0  0  0  0  0  0  0  0
   59.3370   34.8240   46.0630 C   0  0  0  0  0  0  0  0  0  0  0  0
   57.7708   31.8671   54.3647 H   0  0  0  0  0  0  0  0  0  0  0  0
   57.8669   30.1543   53.8319 H   0  0  0  0  0  0  0  0  0  0  0  0
   59.3422   31.1791   53.8319 H   0  0  0  0  0  0  0  0  0  0  0  0
   60.2360   32.1700   51.7610 H   0  0  0  0  0  0  0  0  0  0  0  0
   61.0026   34.3227   50.4269 H   0  0  0  0  0  0  0  0  0  0  0  0
   60.9946   35.4054   48.1822 H   0  0  0  0  0  0  0  0  0  0  0  0
   57.7390   31.7513   49.1957 H   0  0  0  0  0  0  0  0  0  0  0  0
   57.1182   31.7250   46.8580 H   0  0  0  0  0  0  0  0  0  0  0  0
   56.6628   33.4473   46.6138 H   0  0  0  0  0  0  0  0  0  0  0  0
   60.1050   30.2506   44.1727 H   0  0  0  0  0  0  0  0  0  0  0  0
   60.3611   27.8140   44.6348 H   0  0  0  0  0  0  0  0  0  0  0  0
   55.8786   29.9811   45.1018 H   0  0  0  0  0  0  0  0  0  0  0  0
   57.6984   25.3970   47.1867 H   0  0  0  0  0  0  0  0  0  0  0  0
   57.4379   24.3806   45.7073 H   0  0  0  0  0  0  0  0  0  0  0  0
   60.0952   33.3130   44.7195 H   0  0  0  0  0  0  0  0  0  0  0  0
   58.7116   34.3086   44.0772 H   0  0  0  0  0  0  0  0  0  0  0  0
   60.2837   35.3550   45.8850 H   0  0  0  0  0  0  0  0  0  0  0  0
   58.4918   35.5278   46.0484 H   0  0  0  0  0  0  0  0  0  0  0  0
  1  2  1  0
  2  3  2  0
  2  4  2  0
  2  5  1  0
  5  6  1  0
  6  7  2  0
  7  8  1  0
  8  9  2  0
  9 10  1  0
 10 11  2  0
 10 12  1  0
 12 13  1  0
 13 14  1  0
 14 15  2  0
 14 16  1  0
 16 17  2  0
 17 18  1  0
 18 19  2  0
 19 20  1  0
 20 21  2  0
 20 22  1  0
 22 23  1  0
 23 24  2  0
 23 25  1  0
 25 26  1  0
 13 27  1  0
 27 28  1  0
 11  6  1  0
 21 16  1  0
 28  9  1  0
 26 19  1  0
  1 29  1  0
  1 30  1  0
  1 31  1  0
  5 32  1  0
  7 33  1  0
  8 34  1  0
 11 35  1  0
 12 36  1  0
 12 37  1  0
 17 38  1  0
 18 39  1  0
 21 40  1  0
 25 41  1  0
 25 42  1  0
 27 43  1  0
 27 44  1  0
 28 45  1  0
 28 46  1  0
M  CHG  1  22  -1
M  END
>  <UniqueID>  (56) 
49

>  <SMILES>  (56) 
CS(=O)(=O)Nc1ccc2c(c1)CN(C(=O)c1ccc3c(c1)[N-]C(=O)CO3)CC2

>  <Energy>  (56) 
57.58713792032761

>  <Genealogy>  (56) 
CS(=O)(=O)Nc1ccc2c(c1)CN(C(=O)c1ccc3c(c1)[N-]C(=O)CO3)CC2 (protonated)
CS(=O)(=O)Nc1ccc2c(c1)CN(C(=O)c1ccc3c(c1)[N-]C(=O)CO3)CC2 (3D coordinates assigned)
CS(=O)(=O)Nc1ccc2c(c1)CN(C(=O)c1ccc3c(c1)[N-]C(=O)CO3)CC2 (nonaromatic ring conformer: 57.58713792032761 kcal/mol)

>  <smiles>  (56) 
CS(=O)(=O)Nc1ccc2c(c1)CN(C(=O)c1ccc3c(c1)NC(=O)CO3)CC2

>  <score_type>  (56) 
oracle

>  <origin>  (56) 
adg

>  <m_score__min__energy>  (56) 
-11.27

>  <m_primary>  (56) 
energy

$$$$
56:0
     RDKit          3D

 49 51  0  0  0  0  0  0  0  0999 V2000
   60.7420   26.7160   48.3770 C   0  0  0  0  0  0  0  0  0  0  0  0
   59.2660   27.0600   48.1250 C   0  0  0  0  0  0  0  0  0  0  0  0
   59.0720   28.5850   48.0650 C   0  0  0  0  0  0  0  0  0  0  0  0
   58.7020   26.3060   46.8860 C   0  0  1  0  0  0  0  0  0  0  0  0
   57.5790   25.4450   47.2490 N   0  0  0  0  0  0  0  0  0  0  0  0
   56.5660   25.0090   46.3350 C   0  0  0  0  0  0  0  0  0  0  0  0
   55.4280   25.5530   46.3520 O   0  0  0  0  0  0  0  0  0  0  0  0
   56.8560   23.9240   45.3670 C   0  0  0  0  0  0  0  0  0  0  0  0
   57.9640   23.0770   45.5570 C   0  0  0  0  0  0  0  0  0  0  0  0
   58.2360   22.0520   44.6450 C   0  0  0  0  0  0  0  0  0  0  0  0
   57.4040   21.8550   43.5430 C   0  0  0  0  0  0  0  0  0  0  0  0
   56.2970   22.6850   43.3470 C   0  0  0  0  0  0  0  0  0  0  0  0
   55.4910   22.4930   42.2750 F   0  0  0  0  0  0  0  0  0  0  0  0
   56.0250   23.7170   44.2500 C   0  0  0  0  0  0  0  0  0  0  0  0
   58.2690   27.2070   45.7610 C   0  0  0  0  0  0  0  0  0  0  0  0
   57.2540   28.0980   45.8340 N   0  0  0  0  0  0  0  0  0  0  0  0
   57.0290   28.7230   44.6450 C   0  0  0  0  0  0  0  0  0  0  0  0
   55.9810   29.7550   44.4530 C   0  0  0  0  0  0  0  0  0  0  0  0
   54.8100   29.3860   44.1680 O   0  0  0  0  0  0  0  0  0  0  0  0
   56.2380   31.1630   44.5460 N   0  0  0  0  0  0  0  0  0  0  0  0
   57.4090   31.8570   44.0320 C   0  0  0  0  0  0  0  0  0  0  0  0
   58.0430   32.6520   45.1360 C   0  0  0  0  0  0  0  0  0  0  0  0
   57.9950   32.1990   46.4660 C   0  0  0  0  0  0  0  0  0  0  0  0
   58.5730   32.9560   47.4880 C   0  0  0  0  0  0  0  0  0  0  0  0
   59.1910   34.1760   47.1950 C   0  0  0  0  0  0  0  0  0  0  0  0
   59.7480   34.9100   48.1900 F   0  0  0  0  0  0  0  0  0  0  0  0
   59.2310   34.6390   45.8770 C   0  0  0  0  0  0  0  0  0  0  0  0
   58.6550   33.8840   44.8500 C   0  0  0  0  0  0  0  0  0  0  0  0
   57.8510   28.2980   43.6010 C   0  0  0  0  0  0  0  0  0  0  0  0
   58.8910   27.1250   44.2020 S   0  0  0  0  0  0  0  0  0  0  0  0
   60.9286   26.6725   49.4602 H   0  0  0  0  0  0  0  0  0  0  0  0
   60.9732   25.7399   47.9256 H   0  0  0  0  0  0  0  0  0  0  0  0
   61.3810   27.4893   47.9256 H   0  0  0  0  0  0  0  0  0  0  0  0
   58.6676   26.7016   48.9756 H   0  0  0  0  0  0  0  0  0  0  0  0
   59.0207   28.9886   49.0870 H   0  0  0  0  0  0  0  0  0  0  0  0
   59.9193   29.0417   47.5325 H   0  0  0  0  0  0  0  0  0  0  0  0
   58.1373   28.8151   47.5325 H   0  0  0  0  0  0  0  0  0  0  0  0
   59.5482   25.7038   46.5237 H   0  0  0  0  0  0  0  0  0  0  0  0
   58.6200   23.2221   46.4280 H   0  0  0  0  0  0  0  0  0  0  0  0
   59.1084   21.3995   44.7973 H   0  0  0  0  0  0  0  0  0  0  0  0
   57.6191   21.0467   42.8286 H   0  0  0  0  0  0  0  0  0  0  0  0
   55.1561   24.3714   44.0865 H   0  0  0  0  0  0  0  0  0  0  0  0
   58.1316   31.1221   43.6475 H   0  0  0  0  0  0  0  0  0  0  0  0
   57.1072   32.5337   43.2190 H   0  0  0  0  0  0  0  0  0  0  0  0
   57.5007   31.2453   46.7027 H   0  0  0  0  0  0  0  0  0  0  0  0
   58.5420   32.5917   48.5255 H   0  0  0  0  0  0  0  0  0  0  0  0
   59.7163   35.5989   45.6468 H   0  0  0  0  0  0  0  0  0  0  0  0
   58.6812   34.2560   43.8151 H   0  0  0  0  0  0  0  0  0  0  0  0
   57.8227   28.6669   42.5651 H   0  0  0  0  0  0  0  0  0  0  0  0
  1  2  1  0
  2  3  1  0
  2  4  1  0
  4  5  1  0
  5  6  1  0
  6  7  2  0
  6  8  1  0
  8  9  2  0
  9 10  1  0
 10 11  2  0
 11 12  1  0
 12 13  1  0
 12 14  2  0
  4 15  1  0
 15 16  2  0
 16 17  1  0
 17 18  1  0
 18 19  2  0
 18 20  1  0
 20 21  1  0
 21 22  1  0
 22 23  2  0
 23 24  1  0
 24 25  2  0
 25 26  1  0
 25 27  1  0
 27 28  2  0
 17 29  2  0
 29 30  1  0
 14  8  1  0
 30 15  1  0
 28 22  1  0
  1 31  1  0
  1 32  1  0
  1 33  1  0
  2 34  1  0
  3 35  1  0
  3 36  1  0
  3 37  1  0
  4 38  1  6
  9 39  1  0
 10 40  1  0
 11 41  1  0
 14 42  1  0
 21 43  1  0
 21 44  1  0
 23 45  1  0
 24 46  1  0
 27 47  1  0
 28 48  1  0
 29 49  1  0
M  CHG  2   5  -1  20  -1
M  END
>  <UniqueID>  (57) 
50

>  <SMILES>  (57) 
CC(C)[C@@H]([N-]C(=O)c1cccc(F)c1)c1nc(C(=O)[N-]Cc2ccc(F)cc2)cs1

>  <Energy>  (57) 
75.12046738395368

>  <Genealogy>  (57) 
CC(C)C([N-]C(=O)c1cccc(F)c1)c1nc(C(=O)[N-]Cc2ccc(F)cc2)cs1 (protonated)
CC(C)[C@@H]([N-]C(=O)c1cccc(F)c1)c1nc(C(=O)[N-]Cc2ccc(F)cc2)cs1 (chirality)
CC(C)[C@@H]([N-]C(=O)c1cccc(F)c1)c1nc(C(=O)[N-]Cc2ccc(F)cc2)cs1 (3D coordinates assigned)
CC(C)[C@@H]([N-]C(=O)c1cccc(F)c1)c1nc(C(=O)[N-]Cc2ccc(F)cc2)cs1 (optimized conformer: 75.12046738395368 kcal/mol)

>  <smiles>  (57) 
CC(C)C(NC(=O)c1cccc(F)c1)c1nc(C(=O)NCc2ccc(F)cc2)cs1

>  <score_type>  (57) 
oracle

>  <origin>  (57) 
adg

>  <m_score__min__energy>  (57) 
-12.380000000000001

>  <m_primary>  (57) 
energy

$$$$
57:0
     RDKit          3D

 64 65  0  0  0  0  0  0  0  0999 V2000
   59.7590   34.3770   45.6120 O   0  0  0  0  0  0  0  0  0  0  0  0
   58.8350   34.1430   46.4360 C   0  0  0  0  0  0  0  0  0  0  0  0
   57.4550   33.8000   45.9460 C   0  0  0  0  0  0  0  0  0  0  0  0
   57.4620   33.2460   44.5120 C   0  0  0  0  0  0  0  0  0  0  0  0
   57.2710   31.7190   44.4210 C   0  0  0  0  0  0  0  0  0  0  0  0
   58.5760   30.9080   44.4420 C   0  0  0  0  0  0  0  0  0  0  0  0
   58.9700   30.4530   45.8570 C   0  0  0  0  0  0  0  0  0  0  0  0
   59.7990   29.1620   45.8170 C   0  0  0  0  0  0  0  0  0  0  0  0
   59.1110   28.0930   44.9610 C   0  0  0  0  0  0  0  0  0  0  0  0
   57.7570   27.7370   45.5110 C   0  0  0  0  0  0  0  0  0  0  0  0
   57.6250   26.9680   46.6030 C   0  0  0  0  0  0  0  0  0  0  0  0
   57.1020   25.5510   46.5140 C   0  0  2  0  0  0  0  0  0  0  0  0
   58.1200   24.6330   45.8940 C   0  0  0  0  0  0  0  0  0  0  0  0
   59.3530   24.8960   45.9260 O   0  0  0  0  0  0  0  0  0  0  0  0
   57.6810   23.4630   45.2780 O   0  0  0  0  0  0  0  0  0  0  0  0
   56.3790   22.9400   45.5420 C   0  0  2  0  0  0  0  0  0  0  0  0
   56.0860   21.7890   44.5720 C   0  0  0  0  0  0  0  0  0  0  0  0
   56.2920   22.2040   43.2470 O   0  0  0  0  0  0  0  0  0  0  0  0
   55.2820   24.0470   45.4670 C   0  0  1  0  0  0  0  0  0  0  0  0
   54.2630   23.7720   46.3970 O   0  0  0  0  0  0  0  0  0  0  0  0
   55.8310   25.4990   45.6400 C   0  0  1  0  0  0  0  0  0  0  0  0
   54.8460   26.3390   46.1880 O   0  0  0  0  0  0  0  0  0  0  0  0
   59.1100   34.2180   47.8380 N   0  0  0  0  0  0  0  0  0  0  0  0
   59.0720   33.2060   48.6560 C   0  0  0  0  0  0  0  0  0  0  0  0
   60.0610   32.0670   48.6190 C   0  0  0  0  0  0  0  0  0  0  0  0
   61.4660   32.5680   48.3960 C   0  0  0  0  0  0  0  0  0  0  0  0
   62.2820   32.9040   49.4900 C   0  0  0  0  0  0  0  0  0  0  0  0
   63.5930   33.3450   49.2830 C   0  0  0  0  0  0  0  0  0  0  0  0
   64.0950   33.4640   47.9840 C   0  0  0  0  0  0  0  0  0  0  0  0
   63.2850   33.1470   46.8900 C   0  0  0  0  0  0  0  0  0  0  0  0
   61.9740   32.7060   47.0930 C   0  0  0  0  0  0  0  0  0  0  0  0
   57.0209   33.0424   46.6151 H   0  0  0  0  0  0  0  0  0  0  0  0
   56.8604   34.7255   45.9446 H   0  0  0  0  0  0  0  0  0  0  0  0
   56.6477   33.7290   43.9521 H   0  0  0  0  0  0  0  0  0  0  0  0
   58.4560   33.4646   44.0947 H   0  0  0  0  0  0  0  0  0  0  0  0
   56.6546   31.3990   45.2740 H   0  0  0  0  0  0  0  0  0  0  0  0
   56.7974   31.5218   43.4479 H   0  0  0  0  0  0  0  0  0  0  0  0
   58.4470   30.0175   43.8093 H   0  0  0  0  0  0  0  0  0  0  0  0
   59.3785   31.5606   44.0677 H   0  0  0  0  0  0  0  0  0  0  0  0
   59.5639   31.2455   46.3359 H   0  0  0  0  0  0  0  0  0  0  0  0
   58.0501   30.2574   46.4276 H   0  0  0  0  0  0  0  0  0  0  0  0
   60.7883   29.3830   45.3898 H   0  0  0  0  0  0  0  0  0  0  0  0
   59.8990   28.7781   46.8430 H   0  0  0  0  0  0  0  0  0  0  0  0
   58.9917   28.4767   43.9370 H   0  0  0  0  0  0  0  0  0  0  0  0
   59.7365   27.1882   44.9685 H   0  0  0  0  0  0  0  0  0  0  0  0
   56.8553   28.1152   45.0072 H   0  0  0  0  0  0  0  0  0  0  0  0
   57.9034   27.3773   47.5853 H   0  0  0  0  0  0  0  0  0  0  0  0
   56.8801   25.2243   47.5406 H   0  0  0  0  0  0  0  0  0  0  0  0
   56.3578   22.5532   46.5715 H   0  0  0  0  0  0  0  0  0  0  0  0
   56.7559   20.9459   44.7965 H   0  0  0  0  0  0  0  0  0  0  0  0
   55.0373   21.4791   44.6909 H   0  0  0  0  0  0  0  0  0  0  0  0
   56.9890   22.9100   43.2760 H   0  0  0  0  0  0  0  0  0  0  0  0
   54.8713   24.0163   44.4470 H   0  0  0  0  0  0  0  0  0  0  0  0
   54.3670   24.4100   47.1510 H   0  0  0  0  0  0  0  0  0  0  0  0
   56.1029   25.8538   44.6349 H   0  0  0  0  0  0  0  0  0  0  0  0
   54.0530   25.7690   46.3710 H   0  0  0  0  0  0  0  0  0  0  0  0
   58.2762   33.1798   49.4149 H   0  0  0  0  0  0  0  0  0  0  0  0
   60.0210   31.5266   49.5762 H   0  0  0  0  0  0  0  0  0  0  0  0
   59.7932   31.4017   47.7849 H   0  0  0  0  0  0  0  0  0  0  0  0
   61.8878   32.8197   50.5135 H   0  0  0  0  0  0  0  0  0  0  0  0
   64.2297   33.5985   50.1434 H   0  0  0  0  0  0  0  0  0  0  0  0
   65.1276   33.8071   47.8227 H   0  0  0  0  0  0  0  0  0  0  0  0
   63.6796   33.2446   45.8679 H   0  0  0  0  0  0  0  0  0  0  0  0
   61.3372   32.4659   46.2288 H   0  0  0  0  0  0  0  0  0  0  0  0
  1  2  2  0
  2  3  1  0
  3  4  1  0
  4  5  1  0
  5  6  1  0
  6  7  1  0
  7  8  1  0
  8  9  1  0
  9 10  1  0
 10 11  2  3
 11 12  1  0
 12 13  1  0
 13 14  2  0
 13 15  1  0
 15 16  1  0
 16 17  1  0
 17 18  1  0
 16 19  1  0
 19 20  1  0
 19 21  1  0
 21 22  1  0
  2 23  1  0
 23 24  2  3
 24 25  1  0
 25 26  1  0
 26 27  2  0
 27 28  1  0
 28 29  2  0
 29 30  1  0
 30 31  2  0
 21 12  1  0
 31 26  1  0
  3 32  1  0
  3 33  1  0
  4 34  1  0
  4 35  1  0
  5 36  1  0
  5 37  1  0
  6 38  1  0
  6 39  1  0
  7 40  1  0
  7 41  1  0
  8 42  1  0
  8 43  1  0
  9 44  1  0
  9 45  1  0
 10 46  1  0
 11 47  1  0
 12 48  1  1
 16 49  1  1
 17 50  1  0
 17 51  1  0
 18 52  1  0
 19 53  1  6
 20 54  1  0
 21 55  1  6
 22 56  1  0
 24 57  1  0
 25 58  1  0
 25 59  1  0
 27 60  1  0
 28 61  1  0
 29 62  1  0
 30 63  1  0
 31 64  1  0
M  END
>  <UniqueID>  (58) 
51

>  <SMILES>  (58) 
O=C(CCCCCCCC=C[C@@H]1C(=O)O[C@H](CO)C(O)C1O)N=CCc1ccccc1

>  <Energy>  (58) 
60.15148679799528

>  <Genealogy>  (58) 
O=C(CCCCCCCC=C[C@@H]1C(=O)O[C@H](CO)C(O)C1O)N=CCc1ccccc1 (chirality)
O=C(CCCCCCCC=C[C@@H]1C(=O)O[C@H](CO)C(O)C1O)N=CCc1ccccc1 (3D coordinates assigned)
O=C(CCCCCCCC=C[C@@H]1C(=O)O[C@H](CO)C(O)C1O)N=CCc1ccccc1 (nonaromatic ring conformer: 60.15148679799528 kcal/mol)

>  <smiles>  (58) 
O=C(CCCCCCCC=CC1C(=O)OC(CO)C(O)C1O)N=CCc1ccccc1

>  <score_type>  (58) 
oracle

>  <origin>  (58) 
adg

>  <m_score__min__energy>  (58) 
-8.8300000000000001

>  <m_primary>  (58) 
energy

$$$$
58:0
     RDKit          3D

 67 70  0  0  0  0  0  0  0  0999 V2000
   58.1260   32.6650   49.0570 N   0  0  0  0  0  0  0  0  0  0  0  0
   58.4800   32.9920   47.7070 C   0  0  0  0  0  0  0  0  0  0  0  0
   57.7640   32.3880   46.6640 C   0  0  0  0  0  0  0  0  0  0  0  0
   58.0610   32.6690   45.3250 C   0  0  0  0  0  0  0  0  0  0  0  0
   57.2920   32.0230   44.2420 C   0  0  0  0  0  0  0  0  0  0  0  0
   57.4740   32.3870   43.0500 O   0  0  0  0  0  0  0  0  0  0  0  0
   56.3130   31.0170   44.5190 N   0  0  0  0  0  0  0  0  0  0  0  0
   56.3850   29.6500   44.0080 C   0  0  0  0  0  0  0  0  0  0  0  0
   56.5690   28.6590   45.1590 C   0  0  0  0  0  0  0  0  0  0  0  0
   58.0230   28.3220   45.3530 C   0  0  0  0  0  0  0  0  0  0  0  0
   58.3900   27.1210   45.9830 C   0  0  0  0  0  0  0  0  0  0  0  0
   59.7390   26.7780   46.1160 C   0  0  0  0  0  0  0  0  0  0  0  0
   60.7300   27.6240   45.6110 C   0  0  0  0  0  0  0  0  0  0  0  0
   60.3730   28.8170   44.9740 C   0  0  0  0  0  0  0  0  0  0  0  0
   59.0250   29.1660   44.8430 C   0  0  0  0  0  0  0  0  0  0  0  0
   59.0660   33.5970   45.0260 C   0  0  0  0  0  0  0  0  0  0  0  0
   59.7920   34.2030   46.0520 C   0  0  0  0  0  0  0  0  0  0  0  0
   59.5220   33.9080   47.4040 C   0  0  0  0  0  0  0  0  0  0  0  0
   60.3050   34.5480   48.4420 N   0  0  0  0  0  0  0  0  0  0  0  0
   61.6270   33.9550   48.5750 C   0  0  0  0  0  0  0  0  0  0  0  0
   62.4340   33.8400   47.4200 C   0  0  0  0  0  0  0  0  0  0  0  0
   63.7310   33.3450   47.4900 C   0  0  0  0  0  0  0  0  0  0  0  0
   64.2730   32.9900   48.7170 C   0  0  0  0  0  0  0  0  0  0  0  0
   63.5240   33.1350   49.8820 C   0  0  0  0  0  0  0  0  0  0  0  0
   62.1880   33.6040   49.8470 C   0  0  0  0  0  0  0  0  0  0  0  0
   61.4180   33.8390   51.1540 C   0  0  0  0  0  0  0  0  0  0  0  0
   59.9530   33.7070   51.0660 N   0  0  0  0  0  0  0  0  0  0  0  0
   59.4000   32.6810   51.9670 C   0  0  0  0  0  0  0  0  0  0  0  0
   60.2770   31.4250   51.9450 C   0  0  0  0  0  0  0  0  0  0  0  0
   60.1400   30.7060   50.6300 C   0  0  0  0  0  0  0  0  0  0  0  0
   61.2170   30.6720   49.7250 C   0  0  0  0  0  0  0  0  0  0  0  0
   61.0990   29.9760   48.5180 C   0  0  0  0  0  0  0  0  0  0  0  0
   59.9150   29.3030   48.2100 C   0  0  0  0  0  0  0  0  0  0  0  0
   58.8450   29.3210   49.1100 C   0  0  0  0  0  0  0  0  0  0  0  0
   58.9570   30.0150   50.3180 C   0  0  0  0  0  0  0  0  0  0  0  0
   57.1450   32.6800   49.3980 H   0  0  0  0  0  0  0  0  0  0  0  0
   58.8640   32.4120   49.7500 H   0  0  0  0  0  0  0  0  0  0  0  0
   56.9552   31.6814   46.9017 H   0  0  0  0  0  0  0  0  0  0  0  0
   55.4539   29.4140   43.4720 H   0  0  0  0  0  0  0  0  0  0  0  0
   57.2447   29.5688   43.3265 H   0  0  0  0  0  0  0  0  0  0  0  0
   56.1766   29.1056   46.0845 H   0  0  0  0  0  0  0  0  0  0  0  0
   56.0243   27.7347   44.9163 H   0  0  0  0  0  0  0  0  0  0  0  0
   57.6127   26.4476   46.3733 H   0  0  0  0  0  0  0  0  0  0  0  0
   60.0205   25.8410   46.6188 H   0  0  0  0  0  0  0  0  0  0  0  0
   61.7907   27.3518   45.7144 H   0  0  0  0  0  0  0  0  0  0  0  0
   61.1536   29.4817   44.5755 H   0  0  0  0  0  0  0  0  0  0  0  0
   58.7479   30.1038   44.3393 H   0  0  0  0  0  0  0  0  0  0  0  0
   59.2841   33.8494   43.9778 H   0  0  0  0  0  0  0  0  0  0  0  0
   60.5867   34.9214   45.8023 H   0  0  0  0  0  0  0  0  0  0  0  0
   60.4420   35.5630   48.2240 H   0  0  0  0  0  0  0  0  0  0  0  0
   59.7390   34.5230   49.3130 H   0  0  0  0  0  0  0  0  0  0  0  0
   62.0271   34.1486   46.4457 H   0  0  0  0  0  0  0  0  0  0  0  0
   64.3278   33.2347   46.5726 H   0  0  0  0  0  0  0  0  0  0  0  0
   65.2974   32.5928   48.7696 H   0  0  0  0  0  0  0  0  0  0  0  0
   63.9797   32.8798   50.8501 H   0  0  0  0  0  0  0  0  0  0  0  0
   61.7790   33.1101   51.8945 H   0  0  0  0  0  0  0  0  0  0  0  0
   61.6083   34.8868   51.4294 H   0  0  0  0  0  0  0  0  0  0  0  0
   59.4790   34.6290   51.1960 H   0  0  0  0  0  0  0  0  0  0  0  0
   59.3630   33.0797   52.9915 H   0  0  0  0  0  0  0  0  0  0  0  0
   58.3874   32.4161   51.6287 H   0  0  0  0  0  0  0  0  0  0  0  0
   61.3280   31.7154   52.0904 H   0  0  0  0  0  0  0  0  0  0  0  0
   59.9528   30.7520   52.7525 H   0  0  0  0  0  0  0  0  0  0  0  0
   62.1542   31.1943   49.9677 H   0  0  0  0  0  0  0  0  0  0  0  0
   61.9405   29.9586   47.8098 H   0  0  0  0  0  0  0  0  0  0  0  0
   59.8239   28.7583   47.2587 H   0  0  0  0  0  0  0  0  0  0  0  0
   57.9138   28.7882   48.8669 H   0  0  0  0  0  0  0  0  0  0  0  0
   58.1160   30.0203   51.0270 H   0  0  0  0  0  0  0  0  0  0  0  0
  1  2  1  0
  2  3  2  0
  3  4  1  0
  4  5  1  0
  5  6  2  0
  5  7  1  0
  7  8  1  0
  8  9  1  0
  9 10  1  0
 10 11  2  0
 11 12  1  0
 12 13  2  0
 13 14  1  0
 14 15  2  0
  4 16  2  0
 16 17  1  0
 17 18  2  0
 18 19  1  0
 19 20  1  0
 20 21  2  0
 21 22  1  0
 22 23  2  0
 23 24  1  0
 24 25  2  0
 25 26  1  0
 26 27  1  0
 27 28  1  0
 28 29  1  0
 29 30  1  0
 30 31  2  0
 31 32  1  0
 32 33  2  0
 33 34  1  0
 34 35  2  0
 18  2  1  0
 25 20  1  0
 35 30  1  0
 15 10  1  0
  1 36  1  0
  1 37  1  0
  3 38  1  0
  8 39  1  0
  8 40  1  0
  9 41  1  0
  9 42  1  0
 11 43  1  0
 12 44  1  0
 13 45  1  0
 14 46  1  0
 15 47  1  0
 16 48  1  0
 17 49  1  0
 19 50  1  0
 19 51  1  0
 21 52  1  0
 22 53  1  0
 23 54  1  0
 24 55  1  0
 26 56  1  0
 26 57  1  0
 27 58  1  0
 28 59  1  0
 28 60  1  0
 29 61  1  0
 29 62  1  0
 31 63  1  0
 32 64  1  0
 33 65  1  0
 34 66  1  0
 35 67  1  0
M  CHG  2   7  -1  19   1
M  END
>  <UniqueID>  (59) 
52

>  <SMILES>  (59) 
Nc1cc(C(=O)[N-]CCc2ccccc2)ccc1[NH2+]c1ccccc1CNCCc1ccccc1

>  <Energy>  (59) 
81.92899995610281

>  <Genealogy>  (59) 
Nc1cc(C(=O)[N-]CCc2ccccc2)ccc1[NH2+]c1ccccc1CNCCc1ccccc1 (protonated)
Nc1cc(C(=O)[N-]CCc2ccccc2)ccc1[NH2+]c1ccccc1CNCCc1ccccc1 (3D coordinates assigned)
Nc1cc(C(=O)[N-]CCc2ccccc2)ccc1[NH2+]c1ccccc1CNCCc1ccccc1 (optimized conformer: 81.92899995610281 kcal/mol)

>  <smiles>  (59) 
Nc1cc(C(=O)NCCc2ccccc2)ccc1Nc1ccccc1CNCCc1ccccc1

>  <score_type>  (59) 
oracle

>  <origin>  (59) 
adg

>  <m_score__min__energy>  (59) 
-8.3900000000000006

>  <m_primary>  (59) 
energy

$$$$
59:0
     RDKit          3D

 40 42  0  0  0  0  0  0  0  0999 V2000
   59.0303   28.2512   43.5164 H   0  0  0  0  0  0  0  0  0  0  0  0
   58.2130   27.9010   44.1640 C   0  0  0  0  0  0  0  0  0  0  0  0
   58.1320   26.4060   44.9330 S   0  0  0  0  0  0  0  0  0  0  0  0
   56.6440   26.7330   45.6320 C   0  0  0  0  0  0  0  0  0  0  0  0
   56.0050   25.8910   46.3890 N   0  0  0  0  0  0  0  0  0  0  0  0
   54.9110   25.0550   45.9860 C   0  0  0  0  0  0  0  0  0  0  0  0
   53.8180   25.5570   45.6060 O   0  0  0  0  0  0  0  0  0  0  0  0
   55.1020   23.6360   45.9680 N   0  0  0  0  0  0  0  0  0  0  0  0
   55.9870   22.9020   45.1080 C   0  0  0  0  0  0  0  0  0  0  0  0
   57.0770   22.1660   45.6100 C   0  0  0  0  0  0  0  0  0  0  0  0
   57.2600   22.1271   46.6940 H   0  0  0  0  0  0  0  0  0  0  0  0
   57.9280   21.4840   44.7340 C   0  0  0  0  0  0  0  0  0  0  0  0
   58.7720   20.9009   45.1312 H   0  0  0  0  0  0  0  0  0  0  0  0
   57.7080   21.5420   43.3550 C   0  0  0  0  0  0  0  0  0  0  0  0
   58.3742   20.9995   42.6680 H   0  0  0  0  0  0  0  0  0  0  0  0
   56.6420   22.2890   42.8500 C   0  0  0  0  0  0  0  0  0  0  0  0
   56.4725   22.3398   41.7643 H   0  0  0  0  0  0  0  0  0  0  0  0
   55.7890   22.9730   43.7230 C   0  0  0  0  0  0  0  0  0  0  0  0
   54.9580   23.5701   43.3194 H   0  0  0  0  0  0  0  0  0  0  0  0
   56.1870   27.9610   45.3010 N   0  0  0  0  0  0  0  0  0  0  0  0
   57.0610   28.6190   44.4920 C   0  0  0  0  0  0  0  0  0  0  0  0
   56.7280   29.9770   43.9260 C   0  0  1  0  0  0  0  0  0  0  0  0
   56.3352   29.8410   42.9076 H   0  0  0  0  0  0  0  0  0  0  0  0
   55.6950   30.6240   44.7380 N   0  0  0  0  0  0  0  0  0  0  0  0
   55.5910   30.0870   45.6300 H   0  0  0  0  0  0  0  0  0  0  0  0
   54.7750   30.5750   44.2430 H   0  0  0  0  0  0  0  0  0  0  0  0
   57.9880   30.8620   43.8190 C   0  0  0  0  0  0  0  0  0  0  0  0
   58.8800   30.2301   43.9414 H   0  0  0  0  0  0  0  0  0  0  0  0
   57.9851   31.3487   42.8325 H   0  0  0  0  0  0  0  0  0  0  0  0
   58.0000   31.9380   44.8780 C   0  0  0  0  0  0  0  0  0  0  0  0
   57.4700   33.2090   44.6000 C   0  0  0  0  0  0  0  0  0  0  0  0
   57.0078   33.4083   43.6219 H   0  0  0  0  0  0  0  0  0  0  0  0
   57.5280   34.2210   45.5620 C   0  0  0  0  0  0  0  0  0  0  0  0
   57.1067   35.2128   45.3411 H   0  0  0  0  0  0  0  0  0  0  0  0
   58.1200   33.9760   46.8040 C   0  0  0  0  0  0  0  0  0  0  0  0
   58.1628   34.7737   47.5602 H   0  0  0  0  0  0  0  0  0  0  0  0
   58.6580   32.7160   47.0850 C   0  0  0  0  0  0  0  0  0  0  0  0
   59.1265   32.5240   48.0615 H   0  0  0  0  0  0  0  0  0  0  0  0
   58.6010   31.7000   46.1260 C   0  0  0  0  0  0  0  0  0  0  0  0
   59.0280   30.7111   46.3491 H   0  0  0  0  0  0  0  0  0  0  0  0
  1  2  1  0
  2  3  1  0
  3  4  1  0
  4  5  2  0
  5  6  1  0
  6  7  2  0
  6  8  1  0
  8  9  1  0
  9 10  2  0
 10 11  1  0
 10 12  1  0
 12 13  1  0
 12 14  2  0
 14 15  1  0
 14 16  1  0
 16 17  1  0
 16 18  2  0
 18 19  1  0
  4 20  1  0
 20 21  1  0
 21 22  1  0
 22 23  1  6
 22 24  1  0
 24 25  1  0
 24 26  1  0
 22 27  1  0
 27 28  1  0
 27 29  1  0
 27 30  1  0
 30 31  2  0
 31 32  1  0
 31 33  1  0
 33 34  1  0
 33 35  2  0
 35 36  1  0
 35 37  1  0
 37 38  1  0
 37 39  2  0
 39 40  1  0
 21  2  2  0
 39 30  1  0
 18  9  1  0
M  CHG  2   8  -1  20  -1
M  END
>  <UniqueID>  (60) 
53

>  <SMILES>  (60) 
N[C@@H](Cc1ccccc1)c1cs/c(=N/C(=O)[N-]c2ccccc2)[n-]1

>  <Energy>  (60) 
73.70343562607383

>  <Genealogy>  (60) 
NC(Cc1ccccc1)c1csc(=NC(=O)[N-]c2ccccc2)[n-]1 (protonated)
N[C@@H](Cc1ccccc1)c1csc(=NC(=O)[N-]c2ccccc2)[n-]1 (chirality)
N[C@@H](Cc1ccccc1)c1cs/c(=N/C(=O)[N-]c2ccccc2)[n-]1 (cis-trans isomerization)
N[C@@H](Cc1ccccc1)c1cs/c(=N/C(=O)[N-]c2ccccc2)[n-]1 (3D coordinates assigned)
N[C@@H](Cc1ccccc1)c1cs/c(=N/C(=O)[N-]c2ccccc2)[n-]1 (optimized conformer: 73.70343562607383 kcal/mol)

>  <smiles>  (60) 
NC(Cc1ccccc1)c1csc(=NC(=O)Nc2ccccc2)[nH]1

>  <score_type>  (60) 
oracle

>  <origin>  (60) 
adg

>  <m_score__min__energy>  (60) 
-11.130000000000001

>  <m_primary>  (60) 
energy

$$$$
60:0
     RDKit          3D

 61 65  0  0  0  0  0  0  0  0999 V2000
   61.2567   28.2754   45.3312 H   0  0  0  0  0  0  0  0  0  0  0  0
   60.5600   29.0910   45.5750 C   0  0  0  0  0  0  0  0  0  0  0  0
   59.8990   29.6700   44.5620 C   0  0  0  0  0  0  0  0  0  0  0  0
   60.4775   30.1230   43.7434 H   0  0  0  0  0  0  0  0  0  0  0  0
   58.4210   29.7230   44.5030 C   0  0  0  0  0  0  0  0  0  0  0  0
   57.7020   28.6510   45.0570 C   0  0  0  0  0  0  0  0  0  0  0  0
   58.2439   27.8014   45.4980 H   0  0  0  0  0  0  0  0  0  0  0  0
   56.3070   28.6540   45.0530 C   0  0  0  0  0  0  0  0  0  0  0  0
   55.7547   27.8161   45.5035 H   0  0  0  0  0  0  0  0  0  0  0  0
   55.6120   29.7170   44.4790 C   0  0  0  0  0  0  0  0  0  0  0  0
   54.5120   29.7211   44.4860 H   0  0  0  0  0  0  0  0  0  0  0  0
   56.3090   30.7770   43.8950 C   0  0  0  0  0  0  0  0  0  0  0  0
   55.7541   31.6109   43.4403 H   0  0  0  0  0  0  0  0  0  0  0  0
   57.7200   30.7860   43.8840 C   0  0  0  0  0  0  0  0  0  0  0  0
   58.4410   31.8110   43.2480 O   0  0  0  0  0  0  0  0  0  0  0  0
   58.1380   32.3340   41.9580 C   0  0  0  0  0  0  0  0  0  0  0  0
   57.5892   33.2812   42.0660 H   0  0  0  0  0  0  0  0  0  0  0  0
   59.0725   32.5126   41.4060 H   0  0  0  0  0  0  0  0  0  0  0  0
   57.5183   31.6121   41.4060 H   0  0  0  0  0  0  0  0  0  0  0  0
   60.4180   29.4720   46.9970 C   0  0  0  0  0  0  0  0  0  0  0  0
   61.4480   30.0890   47.5740 O   0  0  0  0  0  0  0  0  0  0  0  0
   61.4330   30.5000   48.8380 C   0  0  0  0  0  0  0  0  0  0  0  0
   62.3203   30.9939   49.2609 H   0  0  0  0  0  0  0  0  0  0  0  0
   60.3030   30.3110   49.6330 C   0  0  0  0  0  0  0  0  0  0  0  0
   60.3060   30.7810   50.9540 O   0  0  0  0  0  0  0  0  0  0  0  0
   59.1470   30.9580   51.7230 C   0  0  0  0  0  0  0  0  0  0  0  0
   58.6850   29.8830   52.4930 C   0  0  0  0  0  0  0  0  0  0  0  0
   59.2306   28.9279   52.4810 H   0  0  0  0  0  0  0  0  0  0  0  0
   57.5360   30.0160   53.2760 C   0  0  0  0  0  0  0  0  0  0  0  0
   57.1674   29.1603   53.8608 H   0  0  0  0  0  0  0  0  0  0  0  0
   56.8550   31.2340   53.3170 C   0  0  0  0  0  0  0  0  0  0  0  0
   55.9494   31.3364   53.9329 H   0  0  0  0  0  0  0  0  0  0  0  0
   57.3220   32.3230   52.5770 C   0  0  0  0  0  0  0  0  0  0  0  0
   56.7964   33.2877   52.6332 H   0  0  0  0  0  0  0  0  0  0  0  0
   58.4580   32.1940   51.7620 C   0  0  0  0  0  0  0  0  0  0  0  0
   59.0090   33.3860   51.0870 C   0  0  0  0  0  0  0  0  0  0  0  0
   59.2150   34.4160   51.7860 O   0  0  0  0  0  0  0  0  0  0  0  0
   59.3580   33.3850   49.6820 N   0  0  0  0  0  0  0  0  0  0  0  0
   58.4460   32.7230   48.7290 C   0  0  0  0  0  0  0  0  0  0  0  0
   57.4176   32.7907   49.1136 H   0  0  0  0  0  0  0  0  0  0  0  0
   58.7592   31.6736   48.6261 H   0  0  0  0  0  0  0  0  0  0  0  0
   58.5020   33.3660   47.3690 C   0  0  0  0  0  0  0  0  0  0  0  0
   57.3720   33.3920   46.5370 C   0  0  0  0  0  0  0  0  0  0  0  0
   56.4198   32.9704   46.8913 H   0  0  0  0  0  0  0  0  0  0  0  0
   57.4540   33.9530   45.2580 C   0  0  0  0  0  0  0  0  0  0  0  0
   56.5642   33.9807   44.6119 H   0  0  0  0  0  0  0  0  0  0  0  0
   58.6650   34.4780   44.8010 C   0  0  0  0  0  0  0  0  0  0  0  0
   58.7260   34.9252   43.7979 H   0  0  0  0  0  0  0  0  0  0  0  0
   59.7990   34.4360   45.6160 C   0  0  0  0  0  0  0  0  0  0  0  0
   60.7547   34.8385   45.2490 H   0  0  0  0  0  0  0  0  0  0  0  0
   59.7200   33.8810   46.9020 C   0  0  0  0  0  0  0  0  0  0  0  0
   60.9410   33.7350   47.7600 C   0  0  0  0  0  0  0  0  0  0  0  0
   61.7085   34.4447   47.4175 H   0  0  0  0  0  0  0  0  0  0  0  0
   61.3074   32.7013   47.6757 H   0  0  0  0  0  0  0  0  0  0  0  0
   60.6150   34.0200   49.2320 C   0  0  0  0  0  0  0  0  0  0  0  0
   60.5249   35.1081   49.3661 H   0  0  0  0  0  0  0  0  0  0  0  0
   61.4307   33.5962   49.8362 H   0  0  0  0  0  0  0  0  0  0  0  0
   59.2030   29.6400   49.0770 C   0  0  0  0  0  0  0  0  0  0  0  0
   58.1830   29.3870   49.7720 O   0  0  0  0  0  0  0  0  0  0  0  0
   59.2500   29.2310   47.7450 C   0  0  0  0  0  0  0  0  0  0  0  0
   58.3869   28.7273   47.2852 H   0  0  0  0  0  0  0  0  0  0  0  0
  1  2  1  0
  2  3  2  0
  3  4  1  0
  3  5  1  0
  5  6  2  0
  6  7  1  0
  6  8  1  0
  8  9  1  0
  8 10  2  0
 10 11  1  0
 10 12  1  0
 12 13  1  0
 12 14  2  0
 14 15  1  0
 15 16  1  0
 16 17  1  0
 16 18  1  0
 16 19  1  0
  2 20  1  0
 20 21  1  0
 21 22  1  0
 22 23  1  0
 22 24  2  0
 24 25  1  0
 25 26  1  0
 26 27  2  0
 27 28  1  0
 27 29  1  0
 29 30  1  0
 29 31  2  0
 31 32  1  0
 31 33  1  0
 33 34  1  0
 33 35  2  0
 35 36  1  0
 36 37  2  0
 36 38  1  0
 38 39  1  0
 39 40  1  0
 39 41  1  0
 39 42  1  0
 42 43  2  0
 43 44  1  0
 43 45  1  0
 45 46  1  0
 45 47  2  0
 47 48  1  0
 47 49  1  0
 49 50  1  0
 49 51  2  0
 51 52  1  0
 52 53  1  0
 52 54  1  0
 52 55  1  0
 55 56  1  0
 55 57  1  0
 24 58  1  0
 58 59  2  0
 58 60  1  0
 60 61  1  0
 14  5  1  0
 60 20  2  0
 35 26  1  0
 55 38  1  0
 51 42  1  0
M  END
>  <UniqueID>  (61) 
54

>  <SMILES>  (61) 
COc1ccccc1/C=C/c1cc(=O)c(Oc2ccccc2C(=O)N2CCc3ccccc3C2)co1

>  <Energy>  (61) 
88.00159150827079

>  <Genealogy>  (61) 
COc1ccccc1/C=C/c1cc(=O)c(Oc2ccccc2C(=O)N2CCc3ccccc3C2)co1 (cis-trans isomerization)
COc1ccccc1/C=C/c1cc(=O)c(Oc2ccccc2C(=O)N2CCc3ccccc3C2)co1 (3D coordinates assigned)
COc1ccccc1/C=C/c1cc(=O)c(Oc2ccccc2C(=O)N2CCc3ccccc3C2)co1 (nonaromatic ring conformer: 88.00159150827079 kcal/mol)

>  <smiles>  (61) 
COc1ccccc1C=Cc1cc(=O)c(Oc2ccccc2C(=O)N2CCc3ccccc3C2)co1

>  <score_type>  (61) 
oracle

>  <origin>  (61) 
adg

>  <m_score__min__energy>  (61) 
-9.4000000000000004

>  <m_primary>  (61) 
energy

$$$$
61:0
     RDKit          3D

 43 46  0  0  0  0  0  0  0  0999 V2000
   58.1830   28.0840   44.1230 C   0  0  0  0  0  0  0  0  0  0  0  0
   58.2130   29.5050   44.6030 C   0  0  0  0  0  0  0  0  0  0  0  0
   57.3940   30.4710   44.0000 C   0  0  0  0  0  0  0  0  0  0  0  0
   57.3920   31.7870   44.4710 C   0  0  0  0  0  0  0  0  0  0  0  0
   58.2060   32.1570   45.5550 C   0  0  0  0  0  0  0  0  0  0  0  0
   58.2010   33.5480   46.0670 C   0  0  0  0  0  0  0  0  0  0  0  0
   57.1540   34.2410   45.9520 O   0  0  0  0  0  0  0  0  0  0  0  0
   59.3630   34.1240   46.6950 N   0  0  0  0  0  0  0  0  0  0  0  0
   59.3310   34.4920   48.1200 C   0  0  0  0  0  0  0  0  0  0  0  0
   60.2900   33.5920   48.9130 C   0  0  0  0  0  0  0  0  0  0  0  0
   61.5550   33.4600   48.1900 N   0  0  0  0  0  0  0  0  0  0  0  0
   61.7340   33.6630   46.8730 C   0  0  0  0  0  0  0  0  0  0  0  0
   62.9990   33.3990   46.4890 N   0  0  0  0  0  0  0  0  0  0  0  0
   63.6270   32.9920   47.5820 N   0  0  0  0  0  0  0  0  0  0  0  0
   62.7530   33.0100   48.6060 C   0  0  0  0  0  0  0  0  0  0  0  0
   63.1050   32.6630   50.0210 C   0  0  0  0  0  0  0  0  0  0  0  0
   64.5190   32.9260   50.2580 N   0  0  0  0  0  0  0  0  0  0  0  0
   65.0240   33.7230   51.2200 C   0  0  0  0  0  0  0  0  0  0  0  0
   66.3990   33.6570   51.1550 C   0  0  0  0  0  0  0  0  0  0  0  0
   66.6620   32.7810   50.1200 C   0  0  0  0  0  0  0  0  0  0  0  0
   65.5020   32.3430   49.5920 N   0  0  0  0  0  0  0  0  0  0  0  0
   60.6510   34.1870   45.9830 C   0  0  0  0  0  0  0  0  0  0  0  0
   58.9990   31.1780   46.1770 C   0  0  0  0  0  0  0  0  0  0  0  0
   59.0010   29.8620   45.7060 C   0  0  0  0  0  0  0  0  0  0  0  0
   58.1687   27.4049   44.9883 H   0  0  0  0  0  0  0  0  0  0  0  0
   57.2812   27.9215   43.5144 H   0  0  0  0  0  0  0  0  0  0  0  0
   59.0771   27.8836   43.5144 H   0  0  0  0  0  0  0  0  0  0  0  0
   56.7505   30.1917   43.1527 H   0  0  0  0  0  0  0  0  0  0  0  0
   56.7487   32.5383   43.9897 H   0  0  0  0  0  0  0  0  0  0  0  0
   59.6389   35.5420   48.2327 H   0  0  0  0  0  0  0  0  0  0  0  0
   58.3090   34.3612   48.5053 H   0  0  0  0  0  0  0  0  0  0  0  0
   60.4783   34.0389   49.9003 H   0  0  0  0  0  0  0  0  0  0  0  0
   59.8365   32.5976   49.0375 H   0  0  0  0  0  0  0  0  0  0  0  0
   64.6340   32.7150   47.6200 H   0  0  0  0  0  0  0  0  0  0  0  0
   62.5001   33.2734   50.7077 H   0  0  0  0  0  0  0  0  0  0  0  0
   62.9005   31.5962   50.1944 H   0  0  0  0  0  0  0  0  0  0  0  0
   64.4399   34.3225   51.9337 H   0  0  0  0  0  0  0  0  0  0  0  0
   67.1269   34.1856   51.7881 H   0  0  0  0  0  0  0  0  0  0  0  0
   67.6652   32.4859   49.7788 H   0  0  0  0  0  0  0  0  0  0  0  0
   60.8705   35.2303   45.7122 H   0  0  0  0  0  0  0  0  0  0  0  0
   60.5973   33.5768   45.0693 H   0  0  0  0  0  0  0  0  0  0  0  0
   59.6231   31.4493   47.0413 H   0  0  0  0  0  0  0  0  0  0  0  0
   59.6235   29.1033   46.2029 H   0  0  0  0  0  0  0  0  0  0  0  0
  1  2  1  0
  2  3  2  0
  3  4  1  0
  4  5  2  0
  5  6  1  0
  6  7  2  0
  6  8  1  0
  8  9  1  0
  9 10  1  0
 10 11  1  0
 11 12  1  0
 12 13  2  0
 13 14  1  0
 14 15  2  0
 15 16  1  0
 16 17  1  0
 17 18  1  0
 18 19  2  0
 19 20  1  0
 20 21  2  0
 12 22  1  0
  5 23  1  0
 23 24  2  0
 24  2  1  0
 22  8  1  0
 15 11  1  0
 21 17  1  0
  1 25  1  0
  1 26  1  0
  1 27  1  0
  3 28  1  0
  4 29  1  0
  9 30  1  0
  9 31  1  0
 10 32  1  0
 10 33  1  0
 14 34  1  0
 16 35  1  0
 16 36  1  0
 18 37  1  0
 19 38  1  0
 20 39  1  0
 22 40  1  0
 22 41  1  0
 23 42  1  0
 24 43  1  0
M  CHG  1  14   1
M  END
>  <UniqueID>  (62) 
55

>  <SMILES>  (62) 
Cc1ccc(C(=O)N2CCn3c(n[nH+]c3Cn3cccn3)C2)cc1

>  <Energy>  (62) 
114.67125917572554

>  <Genealogy>  (62) 
Cc1ccc(C(=O)N2CCn3c(n[nH+]c3Cn3cccn3)C2)cc1 (protonated)
Cc1ccc(C(=O)N2CCn3c(n[nH+]c3Cn3cccn3)C2)cc1 (3D coordinates assigned)
Cc1ccc(C(=O)N2CCn3c(n[nH+]c3Cn3cccn3)C2)cc1 (nonaromatic ring conformer: 114.67125917572554 kcal/mol)

>  <smiles>  (62) 
Cc1ccc(C(=O)N2CCn3c(nnc3Cn3cccn3)C2)cc1

>  <score_type>  (62) 
oracle

>  <origin>  (62) 
adg

>  <m_score__min__energy>  (62) 
-6.6399999999999997

>  <m_primary>  (62) 
energy

$$$$
62:0
     RDKit          3D

 41 43  0  0  0  0  0  0  0  0999 V2000
   58.6480   30.8010   52.7150 O   0  0  0  0  0  0  0  0  0  0  0  0
   57.6290   30.9570   51.9900 C   0  0  0  0  0  0  0  0  0  0  0  0
   56.2650   30.8560   52.5960 C   0  0  0  0  0  0  0  0  0  0  0  0
   55.2320   31.0380   51.5750 N   0  0  0  0  0  0  0  0  0  0  0  0
   53.8310   30.8170   51.8220 C   0  0  0  0  0  0  0  0  0  0  0  0
   53.3430   29.5720   52.2680 C   0  0  0  0  0  0  0  0  0  0  0  0
   51.9760   29.3900   52.4980 C   0  0  0  0  0  0  0  0  0  0  0  0
   51.0820   30.4430   52.2880 C   0  0  0  0  0  0  0  0  0  0  0  0
   51.5540   31.6820   51.8450 C   0  0  0  0  0  0  0  0  0  0  0  0
   50.6650   32.7290   51.6360 O   0  0  0  0  0  0  0  0  0  0  0  0
   52.9210   31.8680   51.6150 C   0  0  0  0  0  0  0  0  0  0  0  0
   57.7570   31.3340   50.6140 N   0  0  0  0  0  0  0  0  0  0  0  0
   58.7310   30.8530   49.6750 C   0  0  0  0  0  0  0  0  0  0  0  0
   58.8870   29.4800   49.4120 C   0  0  0  0  0  0  0  0  0  0  0  0
   59.8250   29.0420   48.4730 C   0  0  0  0  0  0  0  0  0  0  0  0
   60.6070   29.9680   47.7800 C   0  0  0  0  0  0  0  0  0  0  0  0
   60.4450   31.3340   48.0170 C   0  0  0  0  0  0  0  0  0  0  0  0
   59.5030   31.7830   48.9530 C   0  0  0  0  0  0  0  0  0  0  0  0
   59.3210   33.5500   49.2290 S   0  0  0  0  0  0  0  0  0  0  0  0
   58.8590   33.8710   47.5250 C   0  0  0  0  0  0  0  0  0  0  0  0
   57.7180   33.2670   46.9810 C   0  0  0  0  0  0  0  0  0  0  0  0
   57.3610   33.5160   45.6510 C   0  0  0  0  0  0  0  0  0  0  0  0
   58.1390   34.3720   44.8660 C   0  0  0  0  0  0  0  0  0  0  0  0
   59.2730   34.9820   45.4110 C   0  0  0  0  0  0  0  0  0  0  0  0
   59.6330   34.7350   46.7390 C   0  0  0  0  0  0  0  0  0  0  0  0
   56.1468   29.8642   53.0568 H   0  0  0  0  0  0  0  0  0  0  0  0
   56.1554   31.6443   53.3553 H   0  0  0  0  0  0  0  0  0  0  0  0
   55.5200   31.3370   50.6140 H   0  0  0  0  0  0  0  0  0  0  0  0
   54.0416   28.7391   52.4360 H   0  0  0  0  0  0  0  0  0  0  0  0
   51.6033   28.4151   52.8453 H   0  0  0  0  0  0  0  0  0  0  0  0
   50.0072   30.2971   52.4712 H   0  0  0  0  0  0  0  0  0  0  0  0
   53.2873   32.8458   51.2689 H   0  0  0  0  0  0  0  0  0  0  0  0
   58.2671   28.7467   49.9486 H   0  0  0  0  0  0  0  0  0  0  0  0
   59.9473   27.9661   48.2797 H   0  0  0  0  0  0  0  0  0  0  0  0
   61.3506   29.6212   47.0474 H   0  0  0  0  0  0  0  0  0  0  0  0
   61.0595   32.0617   47.4666 H   0  0  0  0  0  0  0  0  0  0  0  0
   57.1026   32.5969   47.5994 H   0  0  0  0  0  0  0  0  0  0  0  0
   56.4676   33.0378   45.2230 H   0  0  0  0  0  0  0  0  0  0  0  0
   57.8592   34.5656   43.8200 H   0  0  0  0  0  0  0  0  0  0  0  0
   59.8831   35.6576   44.7935 H   0  0  0  0  0  0  0  0  0  0  0  0
   60.5235   35.2187   47.1668 H   0  0  0  0  0  0  0  0  0  0  0  0
  1  2  2  0
  2  3  1  0
  3  4  1  0
  4  5  1  0
  5  6  2  0
  6  7  1  0
  7  8  2  0
  8  9  1  0
  9 10  1  0
  9 11  2  0
  2 12  1  0
 12 13  1  0
 13 14  2  0
 14 15  1  0
 15 16  2  0
 16 17  1  0
 17 18  2  0
 18 19  1  0
 19 20  1  0
 20 21  2  0
 21 22  1  0
 22 23  2  0
 23 24  1  0
 24 25  2  0
 11  5  1  0
 18 13  1  0
 25 20  1  0
  3 26  1  0
  3 27  1  0
  4 28  1  0
  6 29  1  0
  7 30  1  0
  8 31  1  0
 11 32  1  0
 14 33  1  0
 15 34  1  0
 16 35  1  0
 17 36  1  0
 21 37  1  0
 22 38  1  0
 23 39  1  0
 24 40  1  0
 25 41  1  0
M  CHG  2  10  -1  12  -1
M  END
>  <UniqueID>  (63) 
56

>  <SMILES>  (63) 
O=C(CNc1cccc([O-])c1)[N-]c1ccccc1Sc1ccccc1

>  <Energy>  (63) 
41.30839658579995

>  <Genealogy>  (63) 
O=C(CNc1cccc([O-])c1)[N-]c1ccccc1Sc1ccccc1 (protonated)
O=C(CNc1cccc([O-])c1)[N-]c1ccccc1Sc1ccccc1 (3D coordinates assigned)
O=C(CNc1cccc([O-])c1)[N-]c1ccccc1Sc1ccccc1 (optimized conformer: 41.30839658579995 kcal/mol)

>  <smiles>  (63) 
O=C(CNc1cccc(O)c1)Nc1ccccc1Sc1ccccc1

>  <score_type>  (63) 
oracle

>  <origin>  (63) 
adg

>  <m_score__min__energy>  (63) 
-13.609999999999999

>  <m_primary>  (63) 
energy

$$$$
63:0
     RDKit          3D

 51 54  0  0  0  0  0  0  0  0999 V2000
   55.8340   28.9610   44.9460 O   0  0  0  0  0  0  0  0  0  0  0  0
   56.6800   28.0560   45.1820 C   0  0  0  0  0  0  0  0  0  0  0  0
   58.0060   28.0670   44.4740 C   0  0  0  0  0  0  0  0  0  0  0  0
   58.6020   29.4130   44.3790 N   0  0  0  0  0  0  0  0  0  0  0  0
   59.8080   29.5850   45.2050 C   0  0  0  0  0  0  0  0  0  0  0  0
   59.4620   29.8780   46.6450 C   0  0  0  0  0  0  0  0  0  0  0  0
   58.8120   28.9130   47.4200 C   0  0  0  0  0  0  0  0  0  0  0  0
   58.5400   29.1570   48.7630 C   0  0  0  0  0  0  0  0  0  0  0  0
   58.9050   30.3810   49.3550 C   0  0  0  0  0  0  0  0  0  0  0  0
   58.6740   30.6250   50.7140 C   0  0  0  0  0  0  0  0  0  0  0  0
   58.1200   29.7510   51.4380 O   0  0  0  0  0  0  0  0  0  0  0  0
   59.0580   31.8050   51.2640 N   0  0  0  0  0  0  0  0  0  0  0  0
   58.8470   32.0220   52.6090 O   0  0  0  0  0  0  0  0  0  0  0  0
   59.6440   32.7790   50.5140 C   0  0  0  0  0  0  0  0  0  0  0  0
   59.9950   33.8520   51.0790 O   0  0  0  0  0  0  0  0  0  0  0  0
   59.8510   32.6010   49.1660 N   0  0  0  0  0  0  0  0  0  0  0  0
   60.4330   33.7150   48.3800 C   0  0  0  0  0  0  0  0  0  0  0  0
   59.3280   34.6210   47.8240 C   0  0  0  0  0  0  0  0  0  0  0  0
   58.7670   34.0560   46.5470 C   0  0  0  0  0  0  0  0  0  0  0  0
   57.5550   33.3470   46.5630 C   0  0  0  0  0  0  0  0  0  0  0  0
   57.0260   32.8260   45.3780 C   0  0  0  0  0  0  0  0  0  0  0  0
   57.7020   33.0140   44.1700 C   0  0  0  0  0  0  0  0  0  0  0  0
   58.9020   33.7290   44.1430 C   0  0  0  0  0  0  0  0  0  0  0  0
   59.4340   34.2530   45.3260 C   0  0  0  0  0  0  0  0  0  0  0  0
   59.5260   31.3910   48.5800 C   0  0  0  0  0  0  0  0  0  0  0  0
   59.8060   31.1100   47.2190 C   0  0  0  0  0  0  0  0  0  0  0  0
   56.4310   27.0480   46.1750 N   0  0  0  0  0  0  0  0  0  0  0  0
   55.7280   25.9650   46.0160 C   0  0  0  0  0  0  0  0  0  0  0  0
   54.4200   25.9600   45.6760 N   0  0  0  0  0  0  0  0  0  0  0  0
   54.1150   24.6510   45.6240 C   0  0  0  0  0  0  0  0  0  0  0  0
   55.2320   23.9110   45.9320 C   0  0  0  0  0  0  0  0  0  0  0  0
   56.2610   24.7390   46.1820 N   0  0  0  0  0  0  0  0  0  0  0  0
   58.7010   27.4147   45.0230 H   0  0  0  0  0  0  0  0  0  0  0  0
   57.8316   27.7131   43.4472 H   0  0  0  0  0  0  0  0  0  0  0  0
   58.8550   29.6030   43.3810 H   0  0  0  0  0  0  0  0  0  0  0  0
   60.4038   28.6613   45.1625 H   0  0  0  0  0  0  0  0  0  0  0  0
   60.3760   30.4394   44.8084 H   0  0  0  0  0  0  0  0  0  0  0  0
   58.5141   27.9563   46.9662 H   0  0  0  0  0  0  0  0  0  0  0  0
   58.0360   28.3876   49.3664 H   0  0  0  0  0  0  0  0  0  0  0  0
   61.0939   34.3082   49.0291 H   0  0  0  0  0  0  0  0  0  0  0  0
   61.0024   33.2942   47.5381 H   0  0  0  0  0  0  0  0  0  0  0  0
   58.5212   34.7036   48.5671 H   0  0  0  0  0  0  0  0  0  0  0  0
   59.7567   35.6119   47.6132 H   0  0  0  0  0  0  0  0  0  0  0  0
   57.0190   33.2007   47.5124 H   0  0  0  0  0  0  0  0  0  0  0  0
   56.0780   32.2684   45.3970 H   0  0  0  0  0  0  0  0  0  0  0  0
   57.2890   32.5986   43.2389 H   0  0  0  0  0  0  0  0  0  0  0  0
   59.4295   33.8802   43.1897 H   0  0  0  0  0  0  0  0  0  0  0  0
   60.3761   34.8202   45.3003 H   0  0  0  0  0  0  0  0  0  0  0  0
   60.3026   31.8730   46.6016 H   0  0  0  0  0  0  0  0  0  0  0  0
   53.1268   24.2374   45.3742 H   0  0  0  0  0  0  0  0  0  0  0  0
   55.2767   22.8125   45.9682 H   0  0  0  0  0  0  0  0  0  0  0  0
  1  2  2  0
  2  3  1  0
  3  4  1  0
  4  5  1  0
  5  6  1  0
  6  7  2  0
  7  8  1  0
  8  9  2  0
  9 10  1  0
 10 11  2  0
 10 12  1  0
 12 13  1  0
 12 14  1  0
 14 15  2  0
 14 16  1  0
 16 17  1  0
 17 18  1  0
 18 19  1  0
 19 20  2  0
 20 21  1  0
 21 22  2  0
 22 23  1  0
 23 24  2  0
 16 25  1  0
 25 26  2  0
  2 27  1  0
 27 28  2  3
 28 29  1  0
 29 30  1  0
 30 31  2  0
 31 32  1  0
 26  6  1  0
 32 28  1  0
 25  9  1  0
 24 19  1  0
  3 33  1  0
  3 34  1  0
  4 35  1  0
  5 36  1  0
  5 37  1  0
  7 38  1  0
  8 39  1  0
 17 40  1  0
 17 41  1  0
 18 42  1  0
 18 43  1  0
 20 44  1  0
 21 45  1  0
 22 46  1  0
 23 47  1  0
 24 48  1  0
 26 49  1  0
 30 50  1  0
 31 51  1  0
M  CHG  3  13  -1  29  -1  32  -1
M  END
>  <UniqueID>  (64) 
57

>  <SMILES>  (64) 
O=C(CNCc1ccc2c(=O)n([O-])c(=O)n(CCc3ccccc3)c2c1)N=c1[n-]cc[n-]1

>  <Energy>  (64) 
90.40240224842518

>  <Genealogy>  (64) 
O=C(CNCc1ccc2c(=O)n([O-])c(=O)n(CCc3ccccc3)c2c1)N=c1[n-]cc[n-]1 (protonated)
O=C(CNCc1ccc2c(=O)n([O-])c(=O)n(CCc3ccccc3)c2c1)N=c1[n-]cc[n-]1 (3D coordinates assigned)
O=C(CNCc1ccc2c(=O)n([O-])c(=O)n(CCc3ccccc3)c2c1)N=c1[n-]cc[n-]1 (optimized conformer: 90.40240224842518 kcal/mol)

>  <smiles>  (64) 
O=C(CNCc1ccc2c(=O)n(O)c(=O)n(CCc3ccccc3)c2c1)N=c1[nH]cc[nH]1

>  <score_type>  (64) 
oracle

>  <origin>  (64) 
adg

>  <m_score__min__energy>  (64) 
-14.65

>  <m_primary>  (64) 
energy

$$$$
64:0
     RDKit          3D

 35 36  0  0  0  0  0  0  0  0999 V2000
   59.7720   30.0460   46.4060 C   0  0  0  0  0  0  0  0  0  0  0  0
   58.8570   31.0220   47.1380 C   0  0  0  0  0  0  0  0  0  0  0  0
   58.9670   32.4050   46.5460 C   0  0  0  0  0  0  0  0  0  0  0  0
   60.0330   33.2390   46.9260 C   0  0  0  0  0  0  0  0  0  0  0  0
   60.1660   34.5130   46.3720 C   0  0  0  0  0  0  0  0  0  0  0  0
   59.2450   34.9650   45.4280 C   0  0  0  0  0  0  0  0  0  0  0  0
   58.1880   34.1420   45.0290 C   0  0  0  0  0  0  0  0  0  0  0  0
   58.0420   32.8520   45.5790 C   0  0  0  0  0  0  0  0  0  0  0  0
   57.0000   31.9960   45.1880 O   0  0  0  0  0  0  0  0  0  0  0  0
   56.9960   31.2110   44.0000 C   0  0  0  0  0  0  0  0  0  0  0  0
   56.7860   29.7770   44.3630 C   0  0  0  0  0  0  0  0  0  0  0  0
   55.6920   29.4260   44.8820 O   0  0  0  0  0  0  0  0  0  0  0  0
   57.7870   28.8030   44.0310 N   0  0  0  0  0  0  0  0  0  0  0  0
   57.7620   27.4360   44.4770 C   0  0  0  0  0  0  0  0  0  0  0  0
   57.6140   27.1560   45.8430 C   0  0  0  0  0  0  0  0  0  0  0  0
   57.5670   25.8330   46.2870 C   0  0  0  0  0  0  0  0  0  0  0  0
   57.6520   24.7970   45.3560 C   0  0  0  0  0  0  0  0  0  0  0  0
   57.7710   25.0790   44.0320 N   0  0  0  0  0  0  0  0  0  0  0  0
   57.8230   26.3600   43.5740 C   0  0  0  0  0  0  0  0  0  0  0  0
   60.3325   29.4482   47.1398 H   0  0  0  0  0  0  0  0  0  0  0  0
   59.1665   29.3786   45.7751 H   0  0  0  0  0  0  0  0  0  0  0  0
   60.4770   30.6072   45.7751 H   0  0  0  0  0  0  0  0  0  0  0  0
   57.8168   30.6746   47.0525 H   0  0  0  0  0  0  0  0  0  0  0  0
   59.1602   31.0653   48.1945 H   0  0  0  0  0  0  0  0  0  0  0  0
   60.7671   32.8851   47.6648 H   0  0  0  0  0  0  0  0  0  0  0  0
   60.9990   35.1617   46.6807 H   0  0  0  0  0  0  0  0  0  0  0  0
   59.3503   35.9713   44.9963 H   0  0  0  0  0  0  0  0  0  0  0  0
   57.4660   34.5028   44.2817 H   0  0  0  0  0  0  0  0  0  0  0  0
   56.1831   31.5467   43.3393 H   0  0  0  0  0  0  0  0  0  0  0  0
   57.9573   31.3243   43.4774 H   0  0  0  0  0  0  0  0  0  0  0  0
   58.5310   29.0840   43.3530 H   0  0  0  0  0  0  0  0  0  0  0  0
   57.5347   27.9807   46.5666 H   0  0  0  0  0  0  0  0  0  0  0  0
   57.4641   25.6098   47.3592 H   0  0  0  0  0  0  0  0  0  0  0  0
   57.6226   23.7507   45.6943 H   0  0  0  0  0  0  0  0  0  0  0  0
   57.9130   26.5537   42.4949 H   0  0  0  0  0  0  0  0  0  0  0  0
  1  2  1  0
  2  3  1  0
  3  4  2  0
  4  5  1  0
  5  6  2  0
  6  7  1  0
  7  8  2  0
  8  9  1  0
  9 10  1  0
 10 11  1  0
 11 12  2  0
 11 13  1  0
 13 14  1  0
 14 15  2  0
 15 16  1  0
 16 17  2  0
 17 18  1  0
 18 19  2  0
  8  3  1  0
 19 14  1  0
  1 20  1  0
  1 21  1  0
  1 22  1  0
  2 23  1  0
  2 24  1  0
  4 25  1  0
  5 26  1  0
  6 27  1  0
  7 28  1  0
 10 29  1  0
 10 30  1  0
 13 31  1  0
 15 32  1  0
 16 33  1  0
 17 34  1  0
 19 35  1  0
M  END
>  <UniqueID>  (65) 
58

>  <SMILES>  (65) 
CCc1ccccc1OCC(=O)Nc1cccnc1

>  <Energy>  (65) 
34.64155193817787

>  <Genealogy>  (65) 
CCc1ccccc1OCC(=O)Nc1cccnc1 (3D coordinates assigned)
CCc1ccccc1OCC(=O)Nc1cccnc1 (optimized conformer: 34.64155193817787 kcal/mol)

>  <smiles>  (65) 
CCc1ccccc1OCC(=O)Nc1cccnc1

>  <score_type>  (65) 
oracle

>  <origin>  (65) 
adg

>  <m_score__min__energy>  (65) 
-6.75

>  <m_primary>  (65) 
energy

$$$$
65:0
     RDKit          3D

 25 26  0  0  0  0  0  0  0  0999 V2000
   55.3150   26.6270   46.0760 O   0  0  0  0  0  0  0  0  0  0  0  0
   56.5660   26.7340   45.9610 C   0  0  0  0  0  0  0  0  0  0  0  0
   57.2040   28.0550   45.7850 C   0  0  0  0  0  0  0  0  0  0  0  0
   58.5460   28.2550   46.1560 C   0  0  0  0  0  0  0  0  0  0  0  0
   59.1590   29.5100   45.9810 C   0  0  0  0  0  0  0  0  0  0  0  0
   60.4920   29.7420   46.3520 O   0  0  0  0  0  0  0  0  0  0  0  0
   60.9450   30.8250   47.1200 C   0  0  0  0  0  0  0  0  0  0  0  0
   60.0180   31.5470   47.8800 C   0  0  0  0  0  0  0  0  0  0  0  0
   60.4300   32.6420   48.6450 C   0  0  0  0  0  0  0  0  0  0  0  0
   61.7730   33.0300   48.6470 C   0  0  0  0  0  0  0  0  0  0  0  0
   62.7030   32.3270   47.8760 C   0  0  0  0  0  0  0  0  0  0  0  0
   62.2930   31.2330   47.1080 C   0  0  0  0  0  0  0  0  0  0  0  0
   58.4100   30.5720   45.4660 C   0  0  0  0  0  0  0  0  0  0  0  0
   57.0770   30.3840   45.0960 C   0  0  0  0  0  0  0  0  0  0  0  0
   56.4720   29.1330   45.2500 C   0  0  0  0  0  0  0  0  0  0  0  0
   55.1440   28.9730   44.8700 O   0  0  0  0  0  0  0  0  0  0  0  0
   57.1920   25.8300   45.9922 H   0  0  0  0  0  0  0  0  0  0  0  0
   59.1219   27.4228   46.5870 H   0  0  0  0  0  0  0  0  0  0  0  0
   58.9586   31.2510   47.8754 H   0  0  0  0  0  0  0  0  0  0  0  0
   59.6964   33.1991   49.2462 H   0  0  0  0  0  0  0  0  0  0  0  0
   62.0975   33.8876   49.2547 H   0  0  0  0  0  0  0  0  0  0  0  0
   63.7590   32.6349   47.8734 H   0  0  0  0  0  0  0  0  0  0  0  0
   63.0252   30.6895   46.4928 H   0  0  0  0  0  0  0  0  0  0  0  0
   58.8741   31.5627   45.3515 H   0  0  0  0  0  0  0  0  0  0  0  0
   56.5001   31.2239   44.6815 H   0  0  0  0  0  0  0  0  0  0  0  0
  1  2  2  0
  2  3  1  0
  3  4  2  0
  4  5  1  0
  5  6  1  0
  6  7  1  0
  7  8  2  0
  8  9  1  0
  9 10  2  0
 10 11  1  0
 11 12  2  0
  5 13  2  0
 13 14  1  0
 14 15  2  0
 15 16  1  0
 15  3  1  0
 12  7  1  0
  2 17  1  0
  4 18  1  0
  8 19  1  0
  9 20  1  0
 10 21  1  0
 11 22  1  0
 12 23  1  0
 13 24  1  0
 14 25  1  0
M  CHG  1  16  -1
M  END
>  <UniqueID>  (66) 
59

>  <SMILES>  (66) 
O=Cc1cc(Oc2ccccc2)ccc1[O-]

>  <Energy>  (66) 
33.12397259984732

>  <Genealogy>  (66) 
O=Cc1cc(Oc2ccccc2)ccc1[O-] (protonated)
O=Cc1cc(Oc2ccccc2)ccc1[O-] (3D coordinates assigned)
O=Cc1cc(Oc2ccccc2)ccc1[O-] (optimized conformer: 33.12397259984732 kcal/mol)

>  <smiles>  (66) 
O=Cc1cc(Oc2ccccc2)ccc1O

>  <score_type>  (66) 
oracle

>  <origin>  (66) 
adg

>  <m_score__min__energy>  (66) 
-9.4700000000000006

>  <m_primary>  (66) 
energy

$$$$
66:0
     RDKit          3D

 33 34  0  0  0  0  0  0  0  0999 V2000
   58.7112   32.4231   47.4569 H   0  0  0  0  0  0  0  0  0  0  0  0
   58.4410   32.3680   46.3920 C   0  0  0  0  0  0  0  0  0  0  0  0
   57.7890   31.2360   45.8940 C   0  0  0  0  0  0  0  0  0  0  0  0
   57.5506   30.3996   46.5675 H   0  0  0  0  0  0  0  0  0  0  0  0
   57.4380   31.1640   44.5380 C   0  0  0  0  0  0  0  0  0  0  0  0
   56.6030   29.7420   43.9200 S   0  0  0  0  0  0  0  0  0  0  0  0
   55.9800   30.0800   42.5960 O   0  0  0  0  0  0  0  0  0  0  0  0
   55.5250   29.3030   44.8720 O   0  0  0  0  0  0  0  0  0  0  0  0
   57.7300   28.4430   43.6990 N   0  0  0  0  0  0  0  0  0  0  0  0
   58.5380   27.9980   44.6160 C   0  0  0  0  0  0  0  0  0  0  0  0
   60.2090   28.6470   44.8270 S   0  0  0  0  0  0  0  0  0  0  0  0
   60.1490   28.9880   46.6390 C   0  0  0  0  0  0  0  0  0  0  0  0
   60.2115   30.0774   46.7776 H   0  0  0  0  0  0  0  0  0  0  0  0
   60.9904   28.4271   47.0719 H   0  0  0  0  0  0  0  0  0  0  0  0
   58.8990   28.4920   47.3820 C   0  0  0  0  0  0  0  0  0  0  0  0
   58.0806   29.2089   47.2197 H   0  0  0  0  0  0  0  0  0  0  0  0
   59.1471   28.4097   48.4505 H   0  0  0  0  0  0  0  0  0  0  0  0
   58.4630   27.1410   46.9000 C   0  0  0  0  0  0  0  0  0  0  0  0
   58.3890   26.1730   47.7030 O   0  0  0  0  0  0  0  0  0  0  0  0
   58.0940   26.9850   45.5230 N   0  0  0  0  0  0  0  0  0  0  0  0
   57.3960   25.7900   45.0370 C   0  0  0  0  0  0  0  0  0  0  0  0
   58.0405   24.9100   45.1792 H   0  0  0  0  0  0  0  0  0  0  0  0
   57.1656   25.9190   43.9692 H   0  0  0  0  0  0  0  0  0  0  0  0
   56.0950   25.5900   45.8050 C   0  0  0  0  0  0  0  0  0  0  0  0
   56.2986   25.6213   46.8855 H   0  0  0  0  0  0  0  0  0  0  0  0
   55.3872   26.3899   45.5419 H   0  0  0  0  0  0  0  0  0  0  0  0
   55.6602   24.6145   45.5419 H   0  0  0  0  0  0  0  0  0  0  0  0
   57.7530   32.2290   43.6830 C   0  0  0  0  0  0  0  0  0  0  0  0
   57.4853   32.1752   42.6174 H   0  0  0  0  0  0  0  0  0  0  0  0
   58.4070   33.3600   44.1820 C   0  0  0  0  0  0  0  0  0  0  0  0
   58.6519   34.1947   43.5087 H   0  0  0  0  0  0  0  0  0  0  0  0
   58.7500   33.4310   45.5360 C   0  0  0  0  0  0  0  0  0  0  0  0
   59.6410   34.9770   46.2170 Br  0  0  0  0  0  0  0  0  0  0  0  0
  1  2  1  0
  2  3  2  0
  3  4  1  0
  3  5  1  0
  5  6  1  0
  6  7  2  0
  6  8  2  0
  6  9  1  0
  9 10  2  0
 10 11  1  0
 11 12  1  0
 12 13  1  0
 12 14  1  0
 12 15  1  0
 15 16  1  0
 15 17  1  0
 15 18  1  0
 18 19  2  0
 18 20  1  0
 20 21  1  0
 21 22  1  0
 21 23  1  0
 21 24  1  0
 24 25  1  0
 24 26  1  0
 24 27  1  0
  5 28  2  0
 28 29  1  0
 28 30  1  0
 30 31  1  0
 30 32  2  0
 32 33  1  0
 32  2  1  0
 20 10  1  0
M  END
>  <UniqueID>  (67) 
60

>  <SMILES>  (67) 
CCN1C(=O)CCS/C1=N\S(=O)(=O)c1ccc(Br)cc1

>  <Energy>  (67) 
41.27940773935769

>  <Genealogy>  (67) 
CCN1C(=O)CCS/C1=N\S(=O)(=O)c1ccc(Br)cc1 (cis-trans isomerization)
CCN1C(=O)CCS/C1=N\S(=O)(=O)c1ccc(Br)cc1 (3D coordinates assigned)
CCN1C(=O)CCS/C1=N\S(=O)(=O)c1ccc(Br)cc1 (nonaromatic ring conformer: 41.27940773935769 kcal/mol)

>  <smiles>  (67) 
CCN1C(=O)CCSC1=NS(=O)(=O)c1ccc(Br)cc1

>  <score_type>  (67) 
oracle

>  <origin>  (67) 
adg

>  <m_score__min__energy>  (67) 
-7.9000000000000004

>  <m_primary>  (67) 
energy

$$$$
67:0
     RDKit          3D

 49 51  0  0  0  0  0  0  0  0999 V2000
   55.9260   27.7930   45.5010 N   0  0  0  0  0  0  0  0  0  0  0  0
   56.7160   29.0910   44.6780 S   0  0  0  0  0  0  0  0  0  0  0  0
   55.8650   30.3260   44.7610 O   0  0  0  0  0  0  0  0  0  0  0  0
   56.9000   28.7290   43.2300 O   0  0  0  0  0  0  0  0  0  0  0  0
   58.2820   29.3930   45.4240 C   0  0  0  0  0  0  0  0  0  0  0  0
   59.4600   29.0430   44.7510 C   0  0  0  0  0  0  0  0  0  0  0  0
   60.7000   29.2740   45.3470 C   0  0  0  0  0  0  0  0  0  0  0  0
   60.7750   29.8740   46.6060 C   0  0  0  0  0  0  0  0  0  0  0  0
   59.6050   30.2560   47.2800 C   0  0  0  0  0  0  0  0  0  0  0  0
   59.7100   30.8420   48.5880 N   0  0  0  0  0  0  0  0  0  0  0  0
   60.1770   30.1450   49.7550 C   0  0  0  0  0  0  0  0  0  0  0  0
   60.4260   28.9090   49.7140 O   0  0  0  0  0  0  0  0  0  0  0  0
   60.2580   30.8610   51.0700 C   0  0  0  0  0  0  0  0  0  0  0  0
   61.2070   31.9690   50.9800 N   0  0  0  0  0  0  0  0  0  0  0  0
   61.6160   32.5180   49.7170 C   0  0  0  0  0  0  0  0  0  0  0  0
   60.8380   33.4980   49.0690 C   0  0  0  0  0  0  0  0  0  0  0  0
   59.6080   33.9260   49.6830 N   0  0  0  0  0  0  0  0  0  0  0  0
   61.2410   33.9990   47.8460 N   0  0  0  0  0  0  0  0  0  0  0  0
   60.4050   34.9710   47.1060 C   0  0  0  0  0  0  0  0  0  0  0  0
   59.3450   34.2650   46.2960 C   0  0  0  0  0  0  0  0  0  0  0  0
   58.1800   33.7850   46.9220 C   0  0  0  0  0  0  0  0  0  0  0  0
   57.2010   33.1210   46.1760 C   0  0  0  0  0  0  0  0  0  0  0  0
   57.3710   32.9380   44.8020 C   0  0  0  0  0  0  0  0  0  0  0  0
   58.5290   33.4030   44.1740 C   0  0  0  0  0  0  0  0  0  0  0  0
   59.5170   34.0560   44.9170 C   0  0  0  0  0  0  0  0  0  0  0  0
   62.4050   33.5360   47.2770 C   0  0  0  0  0  0  0  0  0  0  0  0
   62.7950   33.9620   46.1570 O   0  0  0  0  0  0  0  0  0  0  0  0
   63.1570   32.6030   47.9090 N   0  0  0  0  0  0  0  0  0  0  0  0
   62.7950   32.0880   49.1050 C   0  0  0  0  0  0  0  0  0  0  0  0
   63.5350   31.2330   49.6600 O   0  0  0  0  0  0  0  0  0  0  0  0
   58.3560   29.9940   46.6880 C   0  0  0  0  0  0  0  0  0  0  0  0
   55.1690   27.4480   44.8700 H   0  0  0  0  0  0  0  0  0  0  0  0
   59.4071   28.5857   43.7519 H   0  0  0  0  0  0  0  0  0  0  0  0
   61.6223   28.9824   44.8233 H   0  0  0  0  0  0  0  0  0  0  0  0
   61.7563   30.0480   47.0716 H   0  0  0  0  0  0  0  0  0  0  0  0
   59.3220   31.8040   48.7220 H   0  0  0  0  0  0  0  0  0  0  0  0
   59.2644   31.2532   51.3327 H   0  0  0  0  0  0  0  0  0  0  0  0
   60.5984   30.1568   51.8434 H   0  0  0  0  0  0  0  0  0  0  0  0
   61.4390   32.4940   51.8530 H   0  0  0  0  0  0  0  0  0  0  0  0
   59.2730   34.9110   49.6020 H   0  0  0  0  0  0  0  0  0  0  0  0
   58.9800   33.2790   50.2020 H   0  0  0  0  0  0  0  0  0  0  0  0
   59.9183   35.6472   47.8242 H   0  0  0  0  0  0  0  0  0  0  0  0
   61.0509   35.5385   46.4199 H   0  0  0  0  0  0  0  0  0  0  0  0
   58.0386   33.9326   48.0028 H   0  0  0  0  0  0  0  0  0  0  0  0
   56.2954   32.7422   46.6724 H   0  0  0  0  0  0  0  0  0  0  0  0
   56.5934   32.4279   44.2145 H   0  0  0  0  0  0  0  0  0  0  0  0
   58.6638   33.2550   43.0924 H   0  0  0  0  0  0  0  0  0  0  0  0
   60.4331   34.4078   44.4200 H   0  0  0  0  0  0  0  0  0  0  0  0
   57.4317   30.2625   47.2205 H   0  0  0  0  0  0  0  0  0  0  0  0
  1  2  1  0
  2  3  2  0
  2  4  2  0
  2  5  1  0
  5  6  2  0
  6  7  1  0
  7  8  2  0
  8  9  1  0
  9 10  1  0
 10 11  1  0
 11 12  2  0
 11 13  1  0
 13 14  1  0
 14 15  1  0
 15 16  2  0
 16 17  1  0
 16 18  1  0
 18 19  1  0
 19 20  1  0
 20 21  2  0
 21 22  1  0
 22 23  2  0
 23 24  1  0
 24 25  2  0
 18 26  1  0
 26 27  2  0
 26 28  1  0
 28 29  1  0
 29 30  2  0
  9 31  2  0
 31  5  1  0
 29 15  1  0
 25 20  1  0
  1 32  1  0
  6 33  1  0
  7 34  1  0
  8 35  1  0
 10 36  1  0
 13 37  1  0
 13 38  1  0
 14 39  1  0
 17 40  1  0
 17 41  1  0
 19 42  1  0
 19 43  1  0
 21 44  1  0
 22 45  1  0
 23 46  1  0
 24 47  1  0
 25 48  1  0
 31 49  1  0
M  CHG  2   1  -1  28  -1
M  END
>  <UniqueID>  (68) 
61

>  <SMILES>  (68) 
[NH-]S(=O)(=O)c1cccc(NC(=O)CNc2c(N)n(Cc3ccccc3)c(=O)[n-]c2=O)c1

>  <Energy>  (68) 
60.98330428619207

>  <Genealogy>  (68) 
[NH-]S(=O)(=O)c1cccc(NC(=O)CNc2c(N)n(Cc3ccccc3)c(=O)[n-]c2=O)c1 (protonated)
[NH-]S(=O)(=O)c1cccc(NC(=O)CNc2c(N)n(Cc3ccccc3)c(=O)[n-]c2=O)c1 (3D coordinates assigned)
[NH-]S(=O)(=O)c1cccc(NC(=O)CNc2c(N)n(Cc3ccccc3)c(=O)[n-]c2=O)c1 (optimized conformer: 60.98330428619207 kcal/mol)

>  <smiles>  (68) 
Nc1c(NCC(=O)Nc2cccc(S(N)(=O)=O)c2)c(=O)[nH]c(=O)n1Cc1ccccc1

>  <score_type>  (68) 
oracle

>  <origin>  (68) 
adg

>  <m_score__min__energy>  (68) 
-11.619999999999999

>  <m_primary>  (68) 
energy

$$$$
68:0
     RDKit          3D

 42 44  0  0  0  0  0  0  0  0999 V2000
   57.4410   27.4840   46.9830 O   0  0  0  0  0  0  0  0  0  0  0  0
   57.1780   27.1070   45.8090 C   0  0  0  0  0  0  0  0  0  0  0  0
   57.1920   28.0510   44.7230 N   0  0  0  0  0  0  0  0  0  0  0  0
   57.5240   29.4420   44.8700 C   0  0  0  0  0  0  0  0  0  0  0  0
   58.6990   29.8520   45.5260 C   0  0  0  0  0  0  0  0  0  0  0  0
   59.0110   31.2100   45.6300 C   0  0  0  0  0  0  0  0  0  0  0  0
   58.1620   32.1750   45.0760 C   0  0  0  0  0  0  0  0  0  0  0  0
   58.5790   33.8820   45.1910 S   0  0  0  0  0  0  0  0  0  0  0  0
   59.5770   34.2360   44.1220 O   0  0  0  0  0  0  0  0  0  0  0  0
   57.3370   34.7010   44.9750 O   0  0  0  0  0  0  0  0  0  0  0  0
   59.2400   34.2230   46.7700 N   0  0  0  0  0  0  0  0  0  0  0  0
   58.5300   33.4370   47.7950 C   0  0  0  0  0  0  0  0  0  0  0  0
   59.2790   33.4820   49.1420 C   0  0  0  0  0  0  0  0  0  0  0  0
   60.2590   34.5010   49.1420 O   0  0  0  0  0  0  0  0  0  0  0  0
   61.2620   34.2010   48.1880 C   0  0  0  0  0  0  0  0  0  0  0  0
   60.6760   33.9080   46.7900 C   0  0  0  0  0  0  0  0  0  0  0  0
   57.0070   31.7690   44.3940 C   0  0  0  0  0  0  0  0  0  0  0  0
   56.6950   30.4110   44.2870 C   0  0  0  0  0  0  0  0  0  0  0  0
   56.8580   25.6830   45.5720 C   0  0  0  0  0  0  0  0  0  0  0  0
   57.9010   24.7760   45.3130 C   0  0  0  0  0  0  0  0  0  0  0  0
   57.6250   23.4250   45.0820 C   0  0  0  0  0  0  0  0  0  0  0  0
   56.3080   22.9640   45.1190 C   0  0  0  0  0  0  0  0  0  0  0  0
   55.2650   23.8510   45.3940 C   0  0  0  0  0  0  0  0  0  0  0  0
   55.5320   25.2050   45.6260 C   0  0  0  0  0  0  0  0  0  0  0  0
   54.5040   26.0260   45.9540 F   0  0  0  0  0  0  0  0  0  0  0  0
   56.9000   27.7290   43.7740 H   0  0  0  0  0  0  0  0  0  0  0  0
   59.3752   29.1001   45.9590 H   0  0  0  0  0  0  0  0  0  0  0  0
   59.9287   31.5223   46.1500 H   0  0  0  0  0  0  0  0  0  0  0  0
   57.5202   33.8515   47.9308 H   0  0  0  0  0  0  0  0  0  0  0  0
   58.4749   32.3910   47.4591 H   0  0  0  0  0  0  0  0  0  0  0  0
   58.5572   33.6769   49.9488 H   0  0  0  0  0  0  0  0  0  0  0  0
   59.7788   32.5146   49.2980 H   0  0  0  0  0  0  0  0  0  0  0  0
   61.9451   35.0598   48.1118 H   0  0  0  0  0  0  0  0  0  0  0  0
   61.7879   33.2964   48.5275 H   0  0  0  0  0  0  0  0  0  0  0  0
   61.1946   34.5247   46.0412 H   0  0  0  0  0  0  0  0  0  0  0  0
   60.8149   32.8420   46.5567 H   0  0  0  0  0  0  0  0  0  0  0  0
   56.3442   32.5213   43.9417 H   0  0  0  0  0  0  0  0  0  0  0  0
   55.7921   30.0998   43.7412 H   0  0  0  0  0  0  0  0  0  0  0  0
   58.9416   25.1320   45.2920 H   0  0  0  0  0  0  0  0  0  0  0  0
   58.4466   22.7247   44.8709 H   0  0  0  0  0  0  0  0  0  0  0  0
   56.0917   21.9019   44.9315 H   0  0  0  0  0  0  0  0  0  0  0  0
   54.2287   23.4837   45.4284 H   0  0  0  0  0  0  0  0  0  0  0  0
  1  2  2  0
  2  3  1  0
  3  4  1  0
  4  5  2  0
  5  6  1  0
  6  7  2  0
  7  8  1  0
  8  9  2  0
  8 10  2  0
  8 11  1  0
 11 12  1  0
 12 13  1  0
 13 14  1  0
 14 15  1  0
 15 16  1  0
  7 17  1  0
 17 18  2  0
  2 19  1  0
 19 20  2  0
 20 21  1  0
 21 22  2  0
 22 23  1  0
 23 24  2  0
 24 25  1  0
 18  4  1  0
 24 19  1  0
 16 11  1  0
  3 26  1  0
  5 27  1  0
  6 28  1  0
 12 29  1  0
 12 30  1  0
 13 31  1  0
 13 32  1  0
 15 33  1  0
 15 34  1  0
 16 35  1  0
 16 36  1  0
 17 37  1  0
 18 38  1  0
 20 39  1  0
 21 40  1  0
 22 41  1  0
 23 42  1  0
M  END
>  <UniqueID>  (69) 
62

>  <SMILES>  (69) 
O=C(Nc1ccc(S(=O)(=O)N2CCOCC2)cc1)c1ccccc1F

>  <Energy>  (69) 
59.12254692688217

>  <Genealogy>  (69) 
O=C(Nc1ccc(S(=O)(=O)N2CCOCC2)cc1)c1ccccc1F (3D coordinates assigned)
O=C(Nc1ccc(S(=O)(=O)N2CCOCC2)cc1)c1ccccc1F (nonaromatic ring conformer: 59.12254692688217 kcal/mol)

>  <smiles>  (69) 
O=C(Nc1ccc(S(=O)(=O)N2CCOCC2)cc1)c1ccccc1F

>  <score_type>  (69) 
oracle

>  <origin>  (69) 
adg

>  <m_score__min__energy>  (69) 
-8.3499999999999996

>  <m_primary>  (69) 
energy

$$$$
69:0
     RDKit          3D

 24 25  0  0  0  0  0  0  0  0999 V2000
   59.7355   35.5443   45.5209 H   0  0  0  0  0  0  0  0  0  0  0  0
   59.8090   34.5540   45.9940 C   0  0  0  0  0  0  0  0  0  0  0  0
   60.6640   34.4030   46.9650 N   0  0  0  0  0  0  0  0  0  0  0  0
   61.7660   33.5260   46.9450 N   0  0  0  0  0  0  0  0  0  0  0  0
   61.7960   32.2900   47.4710 C   0  0  0  0  0  0  0  0  0  0  0  0
   60.9133   31.7458   47.8380 H   0  0  0  0  0  0  0  0  0  0  0  0
   63.0550   31.8070   47.4880 N   0  0  0  0  0  0  0  0  0  0  0  0
   63.8280   32.7640   46.9930 N   0  0  0  0  0  0  0  0  0  0  0  0
   64.8660   32.7030   46.9000 H   0  0  0  0  0  0  0  0  0  0  0  0
   63.0530   33.8170   46.6840 C   0  0  0  0  0  0  0  0  0  0  0  0
   63.4162   34.7729   46.2787 H   0  0  0  0  0  0  0  0  0  0  0  0
   58.9310   33.4770   45.4880 C   0  0  0  0  0  0  0  0  0  0  0  0
   58.5860   32.4180   46.3380 C   0  0  0  0  0  0  0  0  0  0  0  0
   58.9478   32.4106   47.3768 H   0  0  0  0  0  0  0  0  0  0  0  0
   57.7850   31.3710   45.8740 C   0  0  0  0  0  0  0  0  0  0  0  0
   57.5063   30.5541   46.5559 H   0  0  0  0  0  0  0  0  0  0  0  0
   57.3320   31.3530   44.5420 C   0  0  0  0  0  0  0  0  0  0  0  0
   56.5060   30.2780   44.0600 N   0  0  0  0  0  0  0  0  0  0  0  0
   56.6330   29.8510   42.8930 O   0  0  0  0  0  0  0  0  0  0  0  0
   55.5640   29.6990   44.8790 O   0  0  0  0  0  0  0  0  0  0  0  0
   57.7060   32.4020   43.6840 C   0  0  0  0  0  0  0  0  0  0  0  0
   57.3658   32.3991   42.6379 H   0  0  0  0  0  0  0  0  0  0  0  0
   58.5070   33.4490   44.1500 C   0  0  0  0  0  0  0  0  0  0  0  0
   58.8066   34.2553   43.4644 H   0  0  0  0  0  0  0  0  0  0  0  0
  1  2  1  0
  2  3  2  0
  3  4  1  0
  4  5  1  0
  5  6  1  0
  5  7  2  0
  7  8  1  0
  8  9  1  0
  8 10  2  0
 10 11  1  0
  2 12  1  0
 12 13  2  0
 13 14  1  0
 13 15  1  0
 15 16  1  0
 15 17  2  0
 17 18  1  0
 18 19  2  0
 18 20  1  0
 17 21  1  0
 21 22  1  0
 21 23  2  0
 23 24  1  0
 10  4  1  0
 23 12  1  0
M  CHG  3   8   1  18   1  20  -1
M  END
>  <UniqueID>  (70) 
63

>  <SMILES>  (70) 
O=[N+]([O-])c1ccc(/C=N\n2cn[nH+]c2)cc1

>  <Energy>  (70) 
71.84812198700898

>  <Genealogy>  (70) 
O=[N+]([O-])c1ccc(C=Nn2cn[nH+]c2)cc1 (protonated)
O=[N+]([O-])c1ccc(/C=N\n2cn[nH+]c2)cc1 (cis-trans isomerization)
O=[N+]([O-])c1ccc(/C=N\n2cn[nH+]c2)cc1 (3D coordinates assigned)
O=[N+]([O-])c1ccc(/C=N\n2cn[nH+]c2)cc1 (optimized conformer: 71.84812198700898 kcal/mol)

>  <smiles>  (70) 
O=[N+]([O-])c1ccc(C=Nn2cnnc2)cc1

>  <score_type>  (70) 
oracle

>  <origin>  (70) 
adg

>  <m_score__min__energy>  (70) 
-5.7199999999999998

>  <m_primary>  (70) 
energy

$$$$
70:0
     RDKit          3D

 38 41  0  0  0  0  0  0  0  0999 V2000
   54.9840   25.9890   45.9890 N   0  0  0  0  0  0  0  0  0  0  0  0
   56.6950   25.8860   45.7750 S   0  0  0  0  0  0  0  0  0  0  0  0
   57.0000   25.1110   44.5240 O   0  0  0  0  0  0  0  0  0  0  0  0
   57.3030   25.1690   46.9470 O   0  0  0  0  0  0  0  0  0  0  0  0
   57.3710   27.5070   45.6500 C   0  0  0  0  0  0  0  0  0  0  0  0
   58.6860   27.7620   46.0980 C   0  0  0  0  0  0  0  0  0  0  0  0
   59.2320   29.0550   46.0160 C   0  0  0  0  0  0  0  0  0  0  0  0
   58.4490   30.0810   45.4850 C   0  0  0  0  0  0  0  0  0  0  0  0
   58.8490   31.3730   45.3570 N   0  0  0  0  0  0  0  0  0  0  0  0
   57.8660   32.1410   44.8140 C   0  0  0  0  0  0  0  0  0  0  0  0
   57.9530   33.4220   44.6060 N   0  0  0  0  0  0  0  0  0  0  0  0
   59.1070   34.2390   44.8350 C   0  0  0  0  0  0  0  0  0  0  0  0
   59.9360   34.3940   43.8980 O   0  0  0  0  0  0  0  0  0  0  0  0
   59.4060   34.8160   46.1980 C   0  0  1  0  0  0  0  0  0  0  0  0
   58.7610   33.9670   47.3110 C   0  0  0  0  0  0  0  0  0  0  0  0
   59.4890   32.7520   47.5130 O   0  0  0  0  0  0  0  0  0  0  0  0
   60.8850   32.7270   47.4470 C   0  0  0  0  0  0  0  0  0  0  0  0
   61.6040   31.6220   47.9150 C   0  0  0  0  0  0  0  0  0  0  0  0
   63.0020   31.6280   47.8610 C   0  0  0  0  0  0  0  0  0  0  0  0
   63.6790   32.7370   47.3380 C   0  0  0  0  0  0  0  0  0  0  0  0
   62.9590   33.8360   46.8550 C   0  0  0  0  0  0  0  0  0  0  0  0
   61.5620   33.8240   46.8980 C   0  0  0  0  0  0  0  0  0  0  0  0
   60.8230   34.8990   46.3910 O   0  0  0  0  0  0  0  0  0  0  0  0
   56.4630   31.2500   44.4960 S   0  0  0  0  0  0  0  0  0  0  0  0
   57.1560   29.8250   45.0550 C   0  0  0  0  0  0  0  0  0  0  0  0
   56.5910   28.5550   45.1270 C   0  0  0  0  0  0  0  0  0  0  0  0
   54.7900   26.9050   46.4530 H   0  0  0  0  0  0  0  0  0  0  0  0
   59.2884   26.9415   46.5149 H   0  0  0  0  0  0  0  0  0  0  0  0
   60.2565   29.2541   46.3636 H   0  0  0  0  0  0  0  0  0  0  0  0
   59.7770   31.7210   45.6820 H   0  0  0  0  0  0  0  0  0  0  0  0
   58.9754   35.8269   46.2509 H   0  0  0  0  0  0  0  0  0  0  0  0
   58.7566   34.5441   48.2474 H   0  0  0  0  0  0  0  0  0  0  0  0
   57.7334   33.7151   47.0101 H   0  0  0  0  0  0  0  0  0  0  0  0
   61.0716   30.7508   48.3243 H   0  0  0  0  0  0  0  0  0  0  0  0
   63.5699   30.7611   48.2296 H   0  0  0  0  0  0  0  0  0  0  0  0
   64.7785   32.7444   47.3067 H   0  0  0  0  0  0  0  0  0  0  0  0
   63.4909   34.7062   46.4430 H   0  0  0  0  0  0  0  0  0  0  0  0
   55.5614   28.3752   44.7840 H   0  0  0  0  0  0  0  0  0  0  0  0
  1  2  1  0
  2  3  2  0
  2  4  2  0
  2  5  1  0
  5  6  2  0
  6  7  1  0
  7  8  2  0
  8  9  1  0
  9 10  1  0
 10 11  2  3
 11 12  1  0
 12 13  2  0
 12 14  1  0
 14 15  1  0
 15 16  1  0
 16 17  1  0
 17 18  2  0
 18 19  1  0
 19 20  2  0
 20 21  1  0
 21 22  2  0
 22 23  1  0
 10 24  1  0
 24 25  1  0
 25 26  2  0
 26  5  1  0
 25  8  1  0
 23 14  1  0
 22 17  1  0
  1 27  1  0
  6 28  1  0
  7 29  1  0
  9 30  1  0
 14 31  1  6
 15 32  1  0
 15 33  1  0
 18 34  1  0
 19 35  1  0
 20 36  1  0
 21 37  1  0
 26 38  1  0
M  CHG  1   1  -1
M  END
>  <UniqueID>  (71) 
64

>  <SMILES>  (71) 
[NH-]S(=O)(=O)c1ccc2[nH]c(=NC(=O)[C@H]3COc4ccccc4O3)sc2c1

>  <Energy>  (71) 
85.11151803286208

>  <Genealogy>  (71) 
[NH-]S(=O)(=O)c1ccc2[nH]c(=NC(=O)C3COc4ccccc4O3)sc2c1 (protonated)
[NH-]S(=O)(=O)c1ccc2[nH]c(=NC(=O)[C@H]3COc4ccccc4O3)sc2c1 (chirality)
[NH-]S(=O)(=O)c1ccc2[nH]c(=NC(=O)[C@H]3COc4ccccc4O3)sc2c1 (3D coordinates assigned)
[NH-]S(=O)(=O)c1ccc2[nH]c(=NC(=O)[C@H]3COc4ccccc4O3)sc2c1 (nonaromatic ring conformer: 85.11151803286208 kcal/mol)

>  <smiles>  (71) 
NS(=O)(=O)c1ccc2[nH]c(=NC(=O)C3COc4ccccc4O3)sc2c1

>  <score_type>  (71) 
oracle

>  <origin>  (71) 
adg

>  <m_score__min__energy>  (71) 
-11.06

>  <m_primary>  (71) 
energy

$$$$
71:0
     RDKit          3D

 56 59  0  0  0  0  0  0  0  0999 V2000
   53.9460   24.7830   45.5130 C   0  0  0  0  0  0  0  0  0  0  0  0
   54.6440   25.9720   45.8690 O   0  0  0  0  0  0  0  0  0  0  0  0
   56.0380   26.0660   46.0000 C   0  0  0  0  0  0  0  0  0  0  0  0
   56.8290   24.9680   46.3900 C   0  0  0  0  0  0  0  0  0  0  0  0
   58.2140   25.1020   46.5060 C   0  0  0  0  0  0  0  0  0  0  0  0
   58.8310   26.3340   46.2490 C   0  0  0  0  0  0  0  0  0  0  0  0
   60.3240   26.4640   46.3340 C   0  0  0  0  0  0  0  0  0  0  0  0
   58.0490   27.4240   45.8420 C   0  0  0  0  0  0  0  0  0  0  0  0
   56.6610   27.2930   45.7190 C   0  0  0  0  0  0  0  0  0  0  0  0
   55.8900   28.4060   45.2650 N   0  0  0  0  0  0  0  0  0  0  0  0
   56.4870   29.4430   44.0160 S   0  0  0  0  0  0  0  0  0  0  0  0
   57.2790   28.6250   43.0340 O   0  0  0  0  0  0  0  0  0  0  0  0
   55.3340   30.0800   43.2920 O   0  0  0  0  0  0  0  0  0  0  0  0
   57.5170   30.6880   44.7190 C   0  0  0  0  0  0  0  0  0  0  0  0
   57.5500   31.9760   44.1690 C   0  0  0  0  0  0  0  0  0  0  0  0
   58.4280   32.9360   44.6790 C   0  0  0  0  0  0  0  0  0  0  0  0
   59.2890   32.6110   45.7320 C   0  0  0  0  0  0  0  0  0  0  0  0
   60.1590   33.5420   46.2030 N   0  0  0  0  0  0  0  0  0  0  0  0
   61.0220   33.2760   47.2160 C   0  0  0  0  0  0  0  0  0  0  0  0
   61.8770   34.2820   47.6550 O   0  0  0  0  0  0  0  0  0  0  0  0
   61.0400   32.0050   47.8200 C   0  0  0  0  0  0  0  0  0  0  0  0
   61.9880   31.7230   48.9220 C   0  0  0  0  0  0  0  0  0  0  0  0
   61.6220   30.9750   49.8690 O   0  0  0  0  0  0  0  0  0  0  0  0
   63.3050   32.3040   48.9220 N   0  0  0  0  0  0  0  0  0  0  0  0
   64.3020   32.0390   49.9230 C   0  0  0  0  0  0  0  0  0  0  0  0
   64.2190   30.9130   50.7630 C   0  0  0  0  0  0  0  0  0  0  0  0
   65.2200   30.6620   51.7050 C   0  0  0  0  0  0  0  0  0  0  0  0
   66.3160   31.5220   51.8110 C   0  0  0  0  0  0  0  0  0  0  0  0
   66.4190   32.6370   50.9700 C   0  0  0  0  0  0  0  0  0  0  0  0
   67.8140   33.7060   51.0810 S   0  0  0  0  0  0  0  0  0  0  0  0
   68.9500   33.0610   52.2110 N   0  0  0  0  0  0  0  0  0  0  0  0
   68.4640   33.8350   49.7310 O   0  0  0  0  0  0  0  0  0  0  0  0
   67.3770   35.0700   51.5360 O   0  0  0  0  0  0  0  0  0  0  0  0
   65.4200   32.8830   50.0180 C   0  0  0  0  0  0  0  0  0  0  0  0
   60.1610   31.0130   47.3390 C   0  0  0  0  0  0  0  0  0  0  0  0
   60.1930   29.8480   47.8240 O   0  0  0  0  0  0  0  0  0  0  0  0
   59.2660   31.3170   46.2940 C   0  0  0  0  0  0  0  0  0  0  0  0
   58.3690   30.3610   45.7830 C   0  0  0  0  0  0  0  0  0  0  0  0
   53.6350   24.2532   46.4255 H   0  0  0  0  0  0  0  0  0  0  0  0
   53.0574   25.0433   44.9193 H   0  0  0  0  0  0  0  0  0  0  0  0
   54.6064   24.1339   44.9193 H   0  0  0  0  0  0  0  0  0  0  0  0
   56.3532   23.9997   46.6044 H   0  0  0  0  0  0  0  0  0  0  0  0
   58.8244   24.2357   46.8008 H   0  0  0  0  0  0  0  0  0  0  0  0
   60.6302   26.4907   47.3902 H   0  0  0  0  0  0  0  0  0  0  0  0
   60.7959   25.6035   45.8370 H   0  0  0  0  0  0  0  0  0  0  0  0
   60.6400   27.3931   45.8370 H   0  0  0  0  0  0  0  0  0  0  0  0
   58.5292   28.3880   45.6180 H   0  0  0  0  0  0  0  0  0  0  0  0
   56.8826   32.2324   43.3330 H   0  0  0  0  0  0  0  0  0  0  0  0
   58.4420   33.9494   44.2514 H   0  0  0  0  0  0  0  0  0  0  0  0
   63.5410   33.0060   48.1850 H   0  0  0  0  0  0  0  0  0  0  0  0
   63.3627   30.2278   50.6777 H   0  0  0  0  0  0  0  0  0  0  0  0
   65.1449   29.7851   52.3648 H   0  0  0  0  0  0  0  0  0  0  0  0
   67.0997   31.3228   52.5567 H   0  0  0  0  0  0  0  0  0  0  0  0
   69.1100   33.7970   52.9350 H   0  0  0  0  0  0  0  0  0  0  0  0
   65.5127   33.7442   49.3399 H   0  0  0  0  0  0  0  0  0  0  0  0
   58.3362   29.3523   46.2205 H   0  0  0  0  0  0  0  0  0  0  0  0
  1  2  1  0
  2  3  1  0
  3  4  2  0
  4  5  1  0
  5  6  2  0
  6  7  1  0
  6  8  1  0
  8  9  2  0
  9 10  1  0
 10 11  1  0
 11 12  2  0
 11 13  2  0
 11 14  1  0
 14 15  2  0
 15 16  1  0
 16 17  2  0
 17 18  1  0
 18 19  1  0
 19 20  1  0
 19 21  2  0
 21 22  1  0
 22 23  2  0
 22 24  1  0
 24 25  1  0
 25 26  2  0
 26 27  1  0
 27 28  2  0
 28 29  1  0
 29 30  1  0
 30 31  1  0
 30 32  2  0
 30 33  2  0
 29 34  2  0
 21 35  1  0
 35 36  2  0
 35 37  1  0
 37 38  2  0
  9  3  1  0
 38 14  1  0
 37 17  1  0
 34 25  1  0
  1 39  1  0
  1 40  1  0
  1 41  1  0
  4 42  1  0
  5 43  1  0
  7 44  1  0
  7 45  1  0
  7 46  1  0
  8 47  1  0
 15 48  1  0
 16 49  1  0
 24 50  1  0
 26 51  1  0
 27 52  1  0
 28 53  1  0
 31 54  1  0
 34 55  1  0
 38 56  1  0
M  CHG  4  10  -1  18  -1  20  -1  31  -1
M  END
>  <UniqueID>  (72) 
65

>  <SMILES>  (72) 
COc1ccc(C)cc1[N-]S(=O)(=O)c1ccc2[n-]c([O-])c(C(=O)Nc3cccc(S([NH-])(=O)=O)c3)c(=O)c2c1

>  <Energy>  (72) 
80.91531799542385

>  <Genealogy>  (72) 
COc1ccc(C)cc1[N-]S(=O)(=O)c1ccc2[n-]c([O-])c(C(=O)Nc3cccc(S([NH-])(=O)=O)c3)c(=O)c2c1 (protonated)
COc1ccc(C)cc1[N-]S(=O)(=O)c1ccc2[n-]c([O-])c(C(=O)Nc3cccc(S([NH-])(=O)=O)c3)c(=O)c2c1 (3D coordinates assigned)
COc1ccc(C)cc1[N-]S(=O)(=O)c1ccc2[n-]c([O-])c(C(=O)Nc3cccc(S([NH-])(=O)=O)c3)c(=O)c2c1 (optimized conformer: 80.91531799542385 kcal/mol)

>  <smiles>  (72) 
COc1ccc(C)cc1NS(=O)(=O)c1ccc2[nH]c(O)c(C(=O)Nc3cccc(S(N)(=O)=O)c3)c(=O)c2c1

>  <score_type>  (72) 
oracle

>  <origin>  (72) 
adg

>  <m_score__min__energy>  (72) 
-16.940000000000001

>  <m_primary>  (72) 
energy

$$$$
72:0
     RDKit          3D

 45 46  0  0  0  0  0  0  0  0999 V2000
   63.7550   33.4630   47.6200 C   0  0  0  0  0  0  0  0  0  0  0  0
   63.6700   33.1160   49.1050 C   0  0  0  0  0  0  0  0  0  0  0  0
   63.1050   34.2730   49.9380 C   0  0  0  0  0  0  0  0  0  0  0  0
   61.9140   33.8690   50.6850 N   0  0  0  0  0  0  0  0  0  0  0  0
   60.5700   33.8510   50.1820 C   0  0  0  0  0  0  0  0  0  0  0  0
   59.6180   33.9610   50.9990 O   0  0  0  0  0  0  0  0  0  0  0  0
   60.2670   33.6850   48.7490 C   0  0  0  0  0  0  0  0  0  0  0  0
   59.7000   34.7450   48.0260 C   0  0  0  0  0  0  0  0  0  0  0  0
   59.3890   34.5910   46.6720 C   0  0  0  0  0  0  0  0  0  0  0  0
   59.6510   33.3710   46.0200 C   0  0  0  0  0  0  0  0  0  0  0  0
   59.3090   33.1450   44.6790 O   0  0  0  0  0  0  0  0  0  0  0  0
   58.0140   33.3560   44.1250 C   0  0  0  0  0  0  0  0  0  0  0  0
   57.0040   32.5880   44.9250 C   0  0  0  0  0  0  0  0  0  0  0  0
   56.4600   33.1450   45.9150 O   0  0  0  0  0  0  0  0  0  0  0  0
   56.6670   31.2270   44.6220 N   0  0  0  0  0  0  0  0  0  0  0  0
   57.4500   30.0640   44.9270 C   0  0  0  0  0  0  0  0  0  0  0  0
   58.8450   30.1780   44.9740 C   0  0  0  0  0  0  0  0  0  0  0  0
   59.6350   29.0610   45.2590 C   0  0  0  0  0  0  0  0  0  0  0  0
   59.0370   27.8240   45.5120 C   0  0  0  0  0  0  0  0  0  0  0  0
   57.6410   27.7020   45.4980 C   0  0  0  0  0  0  0  0  0  0  0  0
   56.8960   26.1400   45.8230 S   0  0  0  0  0  0  0  0  0  0  0  0
   55.2080   26.3600   46.1200 N   0  0  0  0  0  0  0  0  0  0  0  0
   57.5460   25.5200   47.0280 O   0  0  0  0  0  0  0  0  0  0  0  0
   57.0760   25.2210   44.6470 O   0  0  0  0  0  0  0  0  0  0  0  0
   56.8510   28.8300   45.2320 C   0  0  0  0  0  0  0  0  0  0  0  0
   60.2600   32.3320   46.7320 C   0  0  0  0  0  0  0  0  0  0  0  0
   60.5700   32.4870   48.0860 C   0  0  0  0  0  0  0  0  0  0  0  0
   64.0153   34.5257   47.5061 H   0  0  0  0  0  0  0  0  0  0  0  0
   64.5278   32.8429   47.1422 H   0  0  0  0  0  0  0  0  0  0  0  0
   62.7831   33.2703   47.1422 H   0  0  0  0  0  0  0  0  0  0  0  0
   63.0169   32.2393   49.2273 H   0  0  0  0  0  0  0  0  0  0  0  0
   64.6893   32.9083   49.4625 H   0  0  0  0  0  0  0  0  0  0  0  0
   63.8743   34.6101   50.6483 H   0  0  0  0  0  0  0  0  0  0  0  0
   62.8210   35.0840   49.2513 H   0  0  0  0  0  0  0  0  0  0  0  0
   59.4989   35.7031   48.5276 H   0  0  0  0  0  0  0  0  0  0  0  0
   58.9383   35.4252   46.1144 H   0  0  0  0  0  0  0  0  0  0  0  0
   57.7704   34.4282   44.1570 H   0  0  0  0  0  0  0  0  0  0  0  0
   57.9981   33.0107   43.0807 H   0  0  0  0  0  0  0  0  0  0  0  0
   59.3212   31.1515   44.7857 H   0  0  0  0  0  0  0  0  0  0  0  0
   60.7306   29.1560   45.2842 H   0  0  0  0  0  0  0  0  0  0  0  0
   59.6630   26.9443   45.7225 H   0  0  0  0  0  0  0  0  0  0  0  0
   54.7880   26.7230   45.2350 H   0  0  0  0  0  0  0  0  0  0  0  0
   55.7545   28.7481   45.2624 H   0  0  0  0  0  0  0  0  0  0  0  0
   60.4966   31.3863   46.2225 H   0  0  0  0  0  0  0  0  0  0  0  0
   61.0540   31.6653   48.6342 H   0  0  0  0  0  0  0  0  0  0  0  0
  1  2  1  0
  2  3  1  0
  3  4  1  0
  4  5  1  0
  5  6  2  0
  5  7  1  0
  7  8  2  0
  8  9  1  0
  9 10  2  0
 10 11  1  0
 11 12  1  0
 12 13  1  0
 13 14  2  0
 13 15  1  0
 15 16  1  0
 16 17  2  0
 17 18  1  0
 18 19  2  0
 19 20  1  0
 20 21  1  0
 21 22  1  0
 21 23  2  0
 21 24  2  0
 20 25  2  0
 10 26  1  0
 26 27  2  0
 27  7  1  0
 25 16  1  0
  1 28  1  0
  1 29  1  0
  1 30  1  0
  2 31  1  0
  2 32  1  0
  3 33  1  0
  3 34  1  0
  8 35  1  0
  9 36  1  0
 12 37  1  0
 12 38  1  0
 17 39  1  0
 18 40  1  0
 19 41  1  0
 22 42  1  0
 25 43  1  0
 26 44  1  0
 27 45  1  0
M  CHG  3   4  -1  15  -1  22  -1
M  END
>  <UniqueID>  (73) 
66

>  <SMILES>  (73) 
CCC[N-]C(=O)c1ccc(OCC(=O)[N-]c2cccc(S([NH-])(=O)=O)c2)cc1

>  <Energy>  (73) 
45.346090465423664

>  <Genealogy>  (73) 
CCC[N-]C(=O)c1ccc(OCC(=O)[N-]c2cccc(S([NH-])(=O)=O)c2)cc1 (protonated)
CCC[N-]C(=O)c1ccc(OCC(=O)[N-]c2cccc(S([NH-])(=O)=O)c2)cc1 (3D coordinates assigned)
CCC[N-]C(=O)c1ccc(OCC(=O)[N-]c2cccc(S([NH-])(=O)=O)c2)cc1 (optimized conformer: 45.346090465423664 kcal/mol)

>  <smiles>  (73) 
CCCNC(=O)c1ccc(OCC(=O)Nc2cccc(S(N)(=O)=O)c2)cc1

>  <score_type>  (73) 
oracle

>  <origin>  (73) 
adg

>  <m_score__min__energy>  (73) 
-13.32

>  <m_primary>  (73) 
energy

$$$$
73:0
     RDKit          3D

 59 61  0  0  0  0  0  0  0  0999 V2000
   63.1510   33.4710   46.8080 C   0  0  0  0  0  0  0  0  0  0  0  0
   62.6680   33.7880   48.2250 C   0  0  0  0  0  0  0  0  0  0  0  0
   61.1470   34.0150   48.2670 C   0  0  1  0  0  0  0  0  0  0  0  0
   60.5940   33.9190   46.9180 N   0  0  0  0  0  0  0  0  0  0  0  0
   59.3050   33.3650   46.6310 C   0  0  0  0  0  0  0  0  0  0  0  0
   58.2740   34.0910   46.7110 O   0  0  0  0  0  0  0  0  0  0  0  0
   59.1840   31.9450   46.2420 C   0  0  0  0  0  0  0  0  0  0  0  0
   60.2660   31.0730   46.4110 C   0  0  0  0  0  0  0  0  0  0  0  0
   60.1580   29.7330   46.0420 C   0  0  0  0  0  0  0  0  0  0  0  0
   58.9790   29.2380   45.4610 C   0  0  0  0  0  0  0  0  0  0  0  0
   58.9980   27.8320   44.9030 C   0  0  0  0  0  0  0  0  0  0  0  0
   58.5250   26.6200   46.1410 S   0  0  0  0  0  0  0  0  0  0  0  0
   58.1280   27.3610   47.3850 O   0  0  0  0  0  0  0  0  0  0  0  0
   59.7000   25.7470   46.4800 O   0  0  0  0  0  0  0  0  0  0  0  0
   57.1610   25.6740   45.6100 N   0  0  0  0  0  0  0  0  0  0  0  0
   57.1480   24.3010   45.1780 C   0  0  0  0  0  0  0  0  0  0  0  0
   58.3240   23.6270   44.7930 C   0  0  0  0  0  0  0  0  0  0  0  0
   58.2730   22.3050   44.3470 C   0  0  0  0  0  0  0  0  0  0  0  0
   57.0560   21.6310   44.2980 C   0  0  0  0  0  0  0  0  0  0  0  0
   55.8840   22.2710   44.7000 C   0  0  0  0  0  0  0  0  0  0  0  0
   55.9200   23.5980   45.1540 C   0  0  0  0  0  0  0  0  0  0  0  0
   54.4230   24.3900   45.6600 S   0  0  0  0  0  0  0  0  0  0  0  0
   54.6910   26.0740   45.9600 N   0  0  0  0  0  0  0  0  0  0  0  0
   53.9140   23.7410   46.9170 O   0  0  0  0  0  0  0  0  0  0  0  0
   53.3920   24.2560   44.5720 O   0  0  0  0  0  0  0  0  0  0  0  0
   57.8500   30.0950   45.3620 C   0  0  0  0  0  0  0  0  0  0  0  0
   56.5200   29.6200   44.9240 C   0  0  0  0  0  0  0  0  0  0  0  0
   56.0630   28.3100   45.2640 N   0  0  0  0  0  0  0  0  0  0  0  0
   55.7490   30.3990   44.3020 O   0  0  0  0  0  0  0  0  0  0  0  0
   57.9750   31.4440   45.7360 C   0  0  0  0  0  0  0  0  0  0  0  0
   60.4800   32.9890   49.1580 C   0  0  0  0  0  0  0  0  0  0  0  0
   61.0700   31.7270   49.3600 C   0  0  0  0  0  0  0  0  0  0  0  0
   60.4460   30.7790   50.1820 C   0  0  0  0  0  0  0  0  0  0  0  0
   59.2280   31.0780   50.8020 C   0  0  0  0  0  0  0  0  0  0  0  0
   58.6360   32.3280   50.6060 C   0  0  0  0  0  0  0  0  0  0  0  0
   59.2550   33.2810   49.7880 C   0  0  0  0  0  0  0  0  0  0  0  0
   64.0696   32.8681   46.8600 H   0  0  0  0  0  0  0  0  0  0  0  0
   62.3725   32.9076   46.2727 H   0  0  0  0  0  0  0  0  0  0  0  0
   63.3581   34.4094   46.2727 H   0  0  0  0  0  0  0  0  0  0  0  0
   62.9217   32.9457   48.8855 H   0  0  0  0  0  0  0  0  0  0  0  0
   63.1632   34.7117   48.5588 H   0  0  0  0  0  0  0  0  0  0  0  0
   60.9560   35.0186   48.6747 H   0  0  0  0  0  0  0  0  0  0  0  0
   61.2080   31.4477   46.8379 H   0  0  0  0  0  0  0  0  0  0  0  0
   61.0075   29.0543   46.2081 H   0  0  0  0  0  0  0  0  0  0  0  0
   58.2942   27.7736   44.0597 H   0  0  0  0  0  0  0  0  0  0  0  0
   60.0239   27.6064   44.5764 H   0  0  0  0  0  0  0  0  0  0  0  0
   59.2917   24.1475   44.8443 H   0  0  0  0  0  0  0  0  0  0  0  0
   59.1960   21.7952   44.0338 H   0  0  0  0  0  0  0  0  0  0  0  0
   57.0187   20.5911   43.9413 H   0  0  0  0  0  0  0  0  0  0  0  0
   54.9258   21.7323   44.6609 H   0  0  0  0  0  0  0  0  0  0  0  0
   55.1900   26.4590   45.1240 H   0  0  0  0  0  0  0  0  0  0  0  0
   56.6280   27.6930   45.8880 H   0  0  0  0  0  0  0  0  0  0  0  0
   55.1410   27.9670   44.9140 H   0  0  0  0  0  0  0  0  0  0  0  0
   57.1117   32.1174   45.6304 H   0  0  0  0  0  0  0  0  0  0  0  0
   62.0247   31.4840   48.8706 H   0  0  0  0  0  0  0  0  0  0  0  0
   60.9153   29.7968   50.3402 H   0  0  0  0  0  0  0  0  0  0  0  0
   58.7375   30.3303   51.4425 H   0  0  0  0  0  0  0  0  0  0  0  0
   57.6800   32.5645   51.0961 H   0  0  0  0  0  0  0  0  0  0  0  0
   58.7821   34.2626   49.6368 H   0  0  0  0  0  0  0  0  0  0  0  0
  1  2  1  0
  2  3  1  0
  3  4  1  0
  4  5  1  0
  5  6  2  0
  5  7  1  0
  7  8  2  0
  8  9  1  0
  9 10  2  0
 10 11  1  0
 11 12  1  0
 12 13  2  0
 12 14  2  0
 12 15  1  0
 15 16  1  0
 16 17  2  0
 17 18  1  0
 18 19  2  0
 19 20  1  0
 20 21  2  0
 21 22  1  0
 22 23  1  0
 22 24  2  0
 22 25  2  0
 10 26  1  0
 26 27  1  0
 27 28  1  0
 27 29  2  0
 26 30  2  0
  3 31  1  0
 31 32  2  0
 32 33  1  0
 33 34  2  0
 34 35  1  0
 35 36  2  0
 30  7  1  0
 36 31  1  0
 21 16  1  0
  1 37  1  0
  1 38  1  0
  1 39  1  0
  2 40  1  0
  2 41  1  0
  3 42  1  1
  8 43  1  0
  9 44  1  0
 11 45  1  0
 11 46  1  0
 17 47  1  0
 18 48  1  0
 19 49  1  0
 20 50  1  0
 23 51  1  0
 28 52  1  0
 28 53  1  0
 30 54  1  0
 32 55  1  0
 33 56  1  0
 34 57  1  0
 35 58  1  0
 36 59  1  0
M  CHG  3   4  -1  15  -1  23  -1
M  END
>  <UniqueID>  (74) 
67

>  <SMILES>  (74) 
CC[C@@H]([N-]C(=O)c1ccc(CS(=O)(=O)[N-]c2ccccc2S([NH-])(=O)=O)c(C(N)=O)c1)c1ccccc1

>  <Energy>  (74) 
62.9990540331804

>  <Genealogy>  (74) 
CCC([N-]C(=O)c1ccc(CS(=O)(=O)[N-]c2ccccc2S([NH-])(=O)=O)c(C(N)=O)c1)c1ccccc1 (protonated)
CC[C@@H]([N-]C(=O)c1ccc(CS(=O)(=O)[N-]c2ccccc2S([NH-])(=O)=O)c(C(N)=O)c1)c1ccccc1 (chirality)
CC[C@@H]([N-]C(=O)c1ccc(CS(=O)(=O)[N-]c2ccccc2S([NH-])(=O)=O)c(C(N)=O)c1)c1ccccc1 (3D coordinates assigned)
CC[C@@H]([N-]C(=O)c1ccc(CS(=O)(=O)[N-]c2ccccc2S([NH-])(=O)=O)c(C(N)=O)c1)c1ccccc1 (optimized conformer: 62.9990540331804 kcal/mol)

>  <smiles>  (74) 
CCC(NC(=O)c1ccc(CS(=O)(=O)Nc2ccccc2S(N)(=O)=O)c(C(N)=O)c1)c1ccccc1

>  <score_type>  (74) 
oracle

>  <origin>  (74) 
adg

>  <m_score__min__energy>  (74) 
-16.170000000000002

>  <m_primary>  (74) 
energy

$$$$
74:0
     RDKit          3D

 40 42  0  0  0  0  0  0  0  0999 V2000
   55.1530   28.9720   44.8760 O   0  0  0  0  0  0  0  0  0  0  0  0
   56.3210   29.4230   45.0070 C   0  0  0  0  0  0  0  0  0  0  0  0
   57.1130   28.9320   46.0380 O   0  0  0  0  0  0  0  0  0  0  0  0
   56.8370   30.4930   44.1160 C   0  0  0  0  0  0  0  0  0  0  0  0
   56.5100   30.4310   42.7480 C   0  0  0  0  0  0  0  0  0  0  0  0
   57.0130   31.3720   41.8490 C   0  0  0  0  0  0  0  0  0  0  0  0
   57.8390   32.3980   42.3010 C   0  0  0  0  0  0  0  0  0  0  0  0
   58.1630   32.4890   43.6540 C   0  0  0  0  0  0  0  0  0  0  0  0
   57.6810   31.5410   44.5760 C   0  0  0  0  0  0  0  0  0  0  0  0
   57.9960   31.6860   45.9710 N   0  0  0  0  0  0  0  0  0  0  0  0
   58.7180   33.1170   46.6420 S   0  0  0  0  0  0  0  0  0  0  0  0
   58.0960   33.4030   47.9800 O   0  0  0  0  0  0  0  0  0  0  0  0
   58.4450   34.2710   45.7190 O   0  0  0  0  0  0  0  0  0  0  0  0
   60.4600   32.9130   46.8700 C   0  0  0  0  0  0  0  0  0  0  0  0
   61.3430   33.9080   46.4200 C   0  0  0  0  0  0  0  0  0  0  0  0
   62.7220   33.7530   46.5770 C   0  0  0  0  0  0  0  0  0  0  0  0
   63.2310   32.6090   47.1920 C   0  0  0  0  0  0  0  0  0  0  0  0
   62.3620   31.6150   47.6470 C   0  0  0  0  0  0  0  0  0  0  0  0
   60.9720   31.7520   47.4790 C   0  0  0  0  0  0  0  0  0  0  0  0
   60.0900   30.7670   47.9450 O   0  0  0  0  0  0  0  0  0  0  0  0
   59.9190   29.5010   47.3650 C   0  0  0  0  0  0  0  0  0  0  0  0
   59.4810   28.3920   48.1140 C   0  0  0  0  0  0  0  0  0  0  0  0
   59.3720   27.1350   47.5120 C   0  0  0  0  0  0  0  0  0  0  0  0
   59.6990   26.9750   46.1620 C   0  0  0  0  0  0  0  0  0  0  0  0
   59.5970   25.7540   45.5800 F   0  0  0  0  0  0  0  0  0  0  0  0
   60.1410   28.0700   45.4160 C   0  0  0  0  0  0  0  0  0  0  0  0
   60.2530   29.3280   46.0170 C   0  0  0  0  0  0  0  0  0  0  0  0
   55.8495   29.6305   42.3833 H   0  0  0  0  0  0  0  0  0  0  0  0
   56.7567   31.3033   40.7815 H   0  0  0  0  0  0  0  0  0  0  0  0
   58.2362   33.1373   41.5899 H   0  0  0  0  0  0  0  0  0  0  0  0
   58.8031   33.3117   44.0052 H   0  0  0  0  0  0  0  0  0  0  0  0
   57.7600   30.9190   46.6370 H   0  0  0  0  0  0  0  0  0  0  0  0
   60.9460   34.8151   45.9409 H   0  0  0  0  0  0  0  0  0  0  0  0
   63.4074   34.5337   46.2154 H   0  0  0  0  0  0  0  0  0  0  0  0
   64.3172   32.4898   47.3186 H   0  0  0  0  0  0  0  0  0  0  0  0
   62.7671   30.7190   48.1400 H   0  0  0  0  0  0  0  0  0  0  0  0
   59.2237   28.5151   49.1764 H   0  0  0  0  0  0  0  0  0  0  0  0
   59.0288   26.2714   48.1006 H   0  0  0  0  0  0  0  0  0  0  0  0
   60.4013   27.9429   44.3548 H   0  0  0  0  0  0  0  0  0  0  0  0
   60.6057   30.1865   45.4266 H   0  0  0  0  0  0  0  0  0  0  0  0
  1  2  2  0
  2  3  1  0
  2  4  1  0
  4  5  2  0
  5  6  1  0
  6  7  2  0
  7  8  1  0
  8  9  2  0
  9 10  1  0
 10 11  1  0
 11 12  2  0
 11 13  2  0
 11 14  1  0
 14 15  2  0
 15 16  1  0
 16 17  2  0
 17 18  1  0
 18 19  2  0
 19 20  1  0
 20 21  1  0
 21 22  2  0
 22 23  1  0
 23 24  2  0
 24 25  1  0
 24 26  1  0
 26 27  2  0
  9  4  1  0
 19 14  1  0
 27 21  1  0
  5 28  1  0
  6 29  1  0
  7 30  1  0
  8 31  1  0
 10 32  1  0
 15 33  1  0
 16 34  1  0
 17 35  1  0
 18 36  1  0
 22 37  1  0
 23 38  1  0
 26 39  1  0
 27 40  1  0
M  CHG  1   3  -1
M  END
>  <UniqueID>  (75) 
68

>  <SMILES>  (75) 
O=C([O-])c1ccccc1NS(=O)(=O)c1ccccc1Oc1ccc(F)cc1

>  <Energy>  (75) 
54.28850930908758

>  <Genealogy>  (75) 
O=C([O-])c1ccccc1NS(=O)(=O)c1ccccc1Oc1ccc(F)cc1 (protonated)
O=C([O-])c1ccccc1NS(=O)(=O)c1ccccc1Oc1ccc(F)cc1 (3D coordinates assigned)
O=C([O-])c1ccccc1NS(=O)(=O)c1ccccc1Oc1ccc(F)cc1 (optimized conformer: 54.28850930908758 kcal/mol)

>  <smiles>  (75) 
O=C(O)c1ccccc1NS(=O)(=O)c1ccccc1Oc1ccc(F)cc1

>  <score_type>  (75) 
oracle

>  <origin>  (75) 
adg

>  <m_score__min__energy>  (75) 
-10.75

>  <m_primary>  (75) 
energy

$$$$
75:0
     RDKit          3D

 48 51  0  0  0  0  0  0  0  0999 V2000
   61.0760   30.3400   50.2910 O   0  0  0  0  0  0  0  0  0  0  0  0
   60.7650   31.0660   49.3070 C   0  0  0  0  0  0  0  0  0  0  0  0
   61.7560   32.0220   48.7480 C   0  0  0  0  0  0  0  0  0  0  0  0
   62.4880   31.6920   47.5920 C   0  0  0  0  0  0  0  0  0  0  0  0
   63.3990   32.5950   47.0440 C   0  0  0  0  0  0  0  0  0  0  0  0
   63.5980   33.8370   47.6450 C   0  0  0  0  0  0  0  0  0  0  0  0
   62.8870   34.1780   48.7960 C   0  0  0  0  0  0  0  0  0  0  0  0
   61.9710   33.2790   49.3510 C   0  0  0  0  0  0  0  0  0  0  0  0
   61.2740   33.6540   50.4550 F   0  0  0  0  0  0  0  0  0  0  0  0
   59.4500   30.9340   48.7410 N   0  0  0  0  0  0  0  0  0  0  0  0
   58.9040   29.5820   48.5540 C   0  0  0  0  0  0  0  0  0  0  0  0
   59.2860   29.0570   47.1990 C   0  0  0  0  0  0  0  0  0  0  0  0
   58.4540   28.1360   46.5400 C   0  0  0  0  0  0  0  0  0  0  0  0
   58.7650   27.7090   45.2440 C   0  0  0  0  0  0  0  0  0  0  0  0
   59.9050   28.1980   44.5990 C   0  0  0  0  0  0  0  0  0  0  0  0
   60.7360   29.1150   45.2480 C   0  0  0  0  0  0  0  0  0  0  0  0
   60.4280   29.5460   46.5430 C   0  0  0  0  0  0  0  0  0  0  0  0
   58.5660   32.1100   48.6650 C   0  0  0  0  0  0  0  0  0  0  0  0
   58.8380   32.9260   47.4160 C   0  0  0  0  0  0  0  0  0  0  0  0
   59.4540   34.1780   47.5840 C   0  0  0  0  0  0  0  0  0  0  0  0
   59.6700   35.0240   46.4980 C   0  0  0  0  0  0  0  0  0  0  0  0
   59.2660   34.6460   45.2200 C   0  0  0  0  0  0  0  0  0  0  0  0
   58.6470   33.4080   45.0130 C   0  0  0  0  0  0  0  0  0  0  0  0
   58.2270   33.0480   43.7220 C   0  0  0  0  0  0  0  0  0  0  0  0
   57.5970   31.8240   43.5040 C   0  0  0  0  0  0  0  0  0  0  0  0
   57.3810   30.9490   44.5660 C   0  0  0  0  0  0  0  0  0  0  0  0
   57.7910   31.2890   45.8570 C   0  0  0  0  0  0  0  0  0  0  0  0
   58.4300   32.5250   46.1080 C   0  0  0  0  0  0  0  0  0  0  0  0
   62.3401   30.7116   47.1157 H   0  0  0  0  0  0  0  0  0  0  0  0
   63.9607   32.3269   46.1370 H   0  0  0  0  0  0  0  0  0  0  0  0
   64.3161   34.5487   47.2115 H   0  0  0  0  0  0  0  0  0  0  0  0
   63.0477   35.1581   49.2688 H   0  0  0  0  0  0  0  0  0  0  0  0
   59.3079   28.9154   49.3302 H   0  0  0  0  0  0  0  0  0  0  0  0
   57.8074   29.6215   48.6302 H   0  0  0  0  0  0  0  0  0  0  0  0
   57.5559   27.7496   47.0441 H   0  0  0  0  0  0  0  0  0  0  0  0
   58.1114   26.9874   44.7320 H   0  0  0  0  0  0  0  0  0  0  0  0
   60.1478   27.8608   43.5805 H   0  0  0  0  0  0  0  0  0  0  0  0
   61.6333   29.4984   44.7402 H   0  0  0  0  0  0  0  0  0  0  0  0
   61.0826   30.2706   47.0494 H   0  0  0  0  0  0  0  0  0  0  0  0
   57.5196   31.7710   48.6504 H   0  0  0  0  0  0  0  0  0  0  0  0
   58.7580   32.7451   49.5424 H   0  0  0  0  0  0  0  0  0  0  0  0
   59.7706   34.4951   48.5886 H   0  0  0  0  0  0  0  0  0  0  0  0
   60.1623   35.9957   46.6510 H   0  0  0  0  0  0  0  0  0  0  0  0
   59.4341   35.3233   44.3697 H   0  0  0  0  0  0  0  0  0  0  0  0
   58.3960   33.7348   42.8796 H   0  0  0  0  0  0  0  0  0  0  0  0
   57.2695   31.5483   42.4907 H   0  0  0  0  0  0  0  0  0  0  0  0
   56.8843   29.9840   44.3867 H   0  0  0  0  0  0  0  0  0  0  0  0
   57.6151   30.5884   46.6866 H   0  0  0  0  0  0  0  0  0  0  0  0
  1  2  2  0
  2  3  1  0
  3  4  2  0
  4  5  1  0
  5  6  2  0
  6  7  1  0
  7  8  2  0
  8  9  1  0
  2 10  1  0
 10 11  1  0
 11 12  1  0
 12 13  2  0
 13 14  1  0
 14 15  2  0
 15 16  1  0
 16 17  2  0
 10 18  1  0
 18 19  1  0
 19 20  2  0
 20 21  1  0
 21 22  2  0
 22 23  1  0
 23 24  2  0
 24 25  1  0
 25 26  2  0
 26 27  1  0
 27 28  2  0
  8  3  1  0
 17 12  1  0
 28 19  1  0
 28 23  1  0
  4 29  1  0
  5 30  1  0
  6 31  1  0
  7 32  1  0
 11 33  1  0
 11 34  1  0
 13 35  1  0
 14 36  1  0
 15 37  1  0
 16 38  1  0
 17 39  1  0
 18 40  1  0
 18 41  1  0
 20 42  1  0
 21 43  1  0
 22 44  1  0
 24 45  1  0
 25 46  1  0
 26 47  1  0
 27 48  1  0
M  END
>  <UniqueID>  (76) 
69

>  <SMILES>  (76) 
O=C(c1ccccc1F)N(Cc1ccccc1)Cc1cccc2ccccc12

>  <Energy>  (76) 
59.56218020965875

>  <Genealogy>  (76) 
O=C(c1ccccc1F)N(Cc1ccccc1)Cc1cccc2ccccc12 (3D coordinates assigned)
O=C(c1ccccc1F)N(Cc1ccccc1)Cc1cccc2ccccc12 (optimized conformer: 59.56218020965875 kcal/mol)

>  <smiles>  (76) 
O=C(c1ccccc1F)N(Cc1ccccc1)Cc1cccc2ccccc12

>  <score_type>  (76) 
oracle

>  <origin>  (76) 
adg

>  <m_score__min__energy>  (76) 
-8.3300000000000001

>  <m_primary>  (76) 
energy

$$$$
76:0
     RDKit          3D

 81 82  0  0  0  0  0  0  0  0999 V2000
   55.1940   29.3690   44.8570 N   0  0  0  0  0  0  0  0  0  0  0  0
   56.1260   30.1410   44.1030 C   0  0  0  0  0  0  0  0  0  0  0  0
   56.1030   30.0870   42.8430 O   0  0  0  0  0  0  0  0  0  0  0  0
   57.1390   30.9940   44.8200 C   0  0  2  0  0  0  0  0  0  0  0  0
   57.4280   32.3190   44.0750 C   0  0  0  0  0  0  0  0  0  0  0  0
   57.2090   33.6130   44.8980 C   0  0  0  0  0  0  0  0  0  0  0  0
   58.2620   33.8880   45.9850 C   0  0  0  0  0  0  0  0  0  0  0  0
   57.8890   33.2740   47.3420 C   0  0  0  0  0  0  0  0  0  0  0  0
   58.8870   33.6170   48.3570 N   0  0  0  0  0  0  0  0  0  0  0  0
   59.0590   33.0350   49.5090 C   0  0  0  0  0  0  0  0  0  0  0  0
   59.2590   33.8460   50.6660 N   0  0  0  0  0  0  0  0  0  0  0  0
   59.0510   31.6070   49.6490 N   0  0  0  0  0  0  0  0  0  0  0  0
   58.3840   30.2540   45.0380 N   0  0  0  0  0  0  0  0  0  0  0  0
   59.0110   30.0710   46.3150 C   0  0  0  0  0  0  0  0  0  0  0  0
   58.3250   29.5830   47.2510 O   0  0  0  0  0  0  0  0  0  0  0  0
   60.4740   30.3940   46.5360 C   0  0  1  0  0  0  0  0  0  0  0  0
   60.6890   31.8940   46.8660 C   0  0  0  0  0  0  0  0  0  0  0  0
   61.9050   32.1390   47.7290 C   0  0  0  0  0  0  0  0  0  0  0  0
   61.9050   31.7610   49.0820 C   0  0  0  0  0  0  0  0  0  0  0  0
   63.0090   32.0340   49.8940 C   0  0  0  0  0  0  0  0  0  0  0  0
   64.1350   32.6950   49.3720 C   0  0  0  0  0  0  0  0  0  0  0  0
   65.3050   32.9920   50.2380 C   0  0  0  0  0  0  0  0  0  0  0  0
   65.2310   34.0030   51.2170 C   0  0  0  0  0  0  0  0  0  0  0  0
   66.3270   34.2690   52.0430 C   0  0  0  0  0  0  0  0  0  0  0  0
   67.5070   33.5360   51.9020 C   0  0  0  0  0  0  0  0  0  0  0  0
   67.5970   32.5390   50.9260 C   0  0  0  0  0  0  0  0  0  0  0  0
   66.5030   32.2660   50.1000 C   0  0  0  0  0  0  0  0  0  0  0  0
   64.1260   33.0860   48.0200 C   0  0  0  0  0  0  0  0  0  0  0  0
   63.0180   32.8170   47.2110 C   0  0  0  0  0  0  0  0  0  0  0  0
   61.0550   29.5160   47.5610 N   0  0  0  0  0  0  0  0  0  0  0  0
   60.3510   28.8290   48.6070 C   0  0  0  0  0  0  0  0  0  0  0  0
   60.1910   29.4130   49.7110 O   0  0  0  0  0  0  0  0  0  0  0  0
   59.9510   27.3750   48.4960 C   0  0  1  0  0  0  0  0  0  0  0  0
   58.5280   27.2290   48.1900 N   0  0  0  0  0  0  0  0  0  0  0  0
   60.8310   26.6270   47.4710 C   0  0  0  0  0  0  0  0  0  0  0  0
   60.2850   26.6670   46.0310 C   0  0  0  0  0  0  0  0  0  0  0  0
   59.3070   25.5150   45.7570 C   0  0  0  0  0  0  0  0  0  0  0  0
   58.1740   25.9490   44.9290 N   0  0  0  0  0  0  0  0  0  0  0  0
   57.8090   27.1970   44.7960 C   0  0  0  0  0  0  0  0  0  0  0  0
   57.1210   27.8990   45.8430 N   0  0  0  0  0  0  0  0  0  0  0  0
   58.1010   27.8900   43.5770 N   0  0  0  0  0  0  0  0  0  0  0  0
   54.4260   29.8290   45.3940 H   0  0  0  0  0  0  0  0  0  0  0  0
   56.7001   31.2535   45.7947 H   0  0  0  0  0  0  0  0  0  0  0  0
   58.4778   32.3005   43.7471 H   0  0  0  0  0  0  0  0  0  0  0  0
   56.7036   32.3628   43.2484 H   0  0  0  0  0  0  0  0  0  0  0  0
   57.2108   34.4635   44.2005 H   0  0  0  0  0  0  0  0  0  0  0  0
   56.2541   33.4784   45.4273 H   0  0  0  0  0  0  0  0  0  0  0  0
   59.2230   33.4634   45.6591 H   0  0  0  0  0  0  0  0  0  0  0  0
   58.3229   34.9780   46.1196 H   0  0  0  0  0  0  0  0  0  0  0  0
   56.9078   33.6599   47.6555 H   0  0  0  0  0  0  0  0  0  0  0  0
   57.8529   32.1796   47.2371 H   0  0  0  0  0  0  0  0  0  0  0  0
   59.2370   34.8880   50.5930 H   0  0  0  0  0  0  0  0  0  0  0  0
   59.4180   33.4120   51.6040 H   0  0  0  0  0  0  0  0  0  0  0  0
   58.8330   30.9650   48.8590 H   0  0  0  0  0  0  0  0  0  0  0  0
   59.2880   31.1780   50.5720 H   0  0  0  0  0  0  0  0  0  0  0  0
   61.0068   30.2011   45.5932 H   0  0  0  0  0  0  0  0  0  0  0  0
   60.8112   32.4467   45.9228 H   0  0  0  0  0  0  0  0  0  0  0  0
   59.8095   32.2365   47.4309 H   0  0  0  0  0  0  0  0  0  0  0  0
   61.0297   31.2465   49.5052 H   0  0  0  0  0  0  0  0  0  0  0  0
   62.9971   31.7291   50.9508 H   0  0  0  0  0  0  0  0  0  0  0  0
   64.3054   34.5862   51.3319 H   0  0  0  0  0  0  0  0  0  0  0  0
   66.2596   35.0582   52.8063 H   0  0  0  0  0  0  0  0  0  0  0  0
   68.3652   33.7428   52.5583 H   0  0  0  0  0  0  0  0  0  0  0  0
   68.5301   31.9686   50.8080 H   0  0  0  0  0  0  0  0  0  0  0  0
   66.5788   31.4779   49.3364 H   0  0  0  0  0  0  0  0  0  0  0  0
   64.9973   33.6072   47.5967 H   0  0  0  0  0  0  0  0  0  0  0  0
   63.0192   33.1398   46.1594 H   0  0  0  0  0  0  0  0  0  0  0  0
   60.1211   26.9111   49.4788 H   0  0  0  0  0  0  0  0  0  0  0  0
   57.9970   27.9860   48.6840 H   0  0  0  0  0  0  0  0  0  0  0  0
   58.3890   27.3980   47.1670 H   0  0  0  0  0  0  0  0  0  0  0  0
   61.8314   27.0843   47.4747 H   0  0  0  0  0  0  0  0  0  0  0  0
   60.8479   25.5704   47.7763 H   0  0  0  0  0  0  0  0  0  0  0  0
   59.7620   27.6221   45.8754 H   0  0  0  0  0  0  0  0  0  0  0  0
   61.1354   26.5635   45.3410 H   0  0  0  0  0  0  0  0  0  0  0  0
   59.8429   24.7094   45.2337 H   0  0  0  0  0  0  0  0  0  0  0  0
   58.9119   25.1641   46.7217 H   0  0  0  0  0  0  0  0  0  0  0  0
   57.6310   25.2210   44.4090 H   0  0  0  0  0  0  0  0  0  0  0  0
   56.9410   27.4820   46.7830 H   0  0  0  0  0  0  0  0  0  0  0  0
   56.8120   28.8830   45.6900 H   0  0  0  0  0  0  0  0  0  0  0  0
   57.8170   28.8870   43.4570 H   0  0  0  0  0  0  0  0  0  0  0  0
   58.5670   27.4030   42.7790 H   0  0  0  0  0  0  0  0  0  0  0  0
  1  2  1  0
  2  3  2  0
  2  4  1  0
  4  5  1  0
  5  6  1  0
  6  7  1  0
  7  8  1  0
  8  9  1  0
  9 10  2  3
 10 11  1  0
 10 12  1  0
  4 13  1  0
 13 14  1  0
 14 15  2  0
 14 16  1  0
 16 17  1  0
 17 18  1  0
 18 19  2  0
 19 20  1  0
 20 21  2  0
 21 22  1  0
 22 23  2  0
 23 24  1  0
 24 25  2  0
 25 26  1  0
 26 27  2  0
 21 28  1  0
 28 29  2  0
 16 30  1  0
 30 31  1  0
 31 32  2  0
 31 33  1  0
 33 34  1  0
 33 35  1  0
 35 36  1  0
 36 37  1  0
 37 38  1  0
 38 39  2  3
 39 40  1  0
 39 41  1  0
 29 18  1  0
 27 22  1  0
  1 42  1  0
  4 43  1  1
  5 44  1  0
  5 45  1  0
  6 46  1  0
  6 47  1  0
  7 48  1  0
  7 49  1  0
  8 50  1  0
  8 51  1  0
 11 52  1  0
 11 53  1  0
 12 54  1  0
 12 55  1  0
 16 56  1  6
 17 57  1  0
 17 58  1  0
 19 59  1  0
 20 60  1  0
 23 61  1  0
 24 62  1  0
 25 63  1  0
 26 64  1  0
 27 65  1  0
 28 66  1  0
 29 67  1  0
 33 68  1  1
 34 69  1  0
 34 70  1  0
 35 71  1  0
 35 72  1  0
 36 73  1  0
 36 74  1  0
 37 75  1  0
 37 76  1  0
 38 77  1  0
 40 78  1  0
 40 79  1  0
 41 80  1  0
 41 81  1  0
M  CHG  4   1  -1  13  -1  30  -1  38   1
M  END
>  <UniqueID>  (77) 
70

>  <SMILES>  (77) 
[NH-]C(=O)[C@H](CCCCN=C(N)N)[N-]C(=O)[C@@H](Cc1ccc(-c2ccccc2)cc1)[N-]C(=O)C(N)CCC[NH+]=C(N)N

>  <Energy>  (77) 
86.6041597374119

>  <Genealogy>  (77) 
[NH-]C(=O)C(CCCCN=C(N)N)[N-]C(=O)C(Cc1ccc(-c2ccccc2)cc1)[N-]C(=O)C(N)CCC[NH+]=C(N)N (protonated)
[NH-]C(=O)[C@H](CCCCN=C(N)N)[N-]C(=O)[C@@H](Cc1ccc(-c2ccccc2)cc1)[N-]C(=O)C(N)CCC[NH+]=C(N)N (chirality)
[NH-]C(=O)[C@H](CCCCN=C(N)N)[N-]C(=O)[C@@H](Cc1ccc(-c2ccccc2)cc1)[N-]C(=O)C(N)CCC[NH+]=C(N)N (3D coordinates assigned)
[NH-]C(=O)[C@H](CCCCN=C(N)N)[N-]C(=O)[C@@H](Cc1ccc(-c2ccccc2)cc1)[N-]C(=O)C(N)CCC[NH+]=C(N)N (optimized conformer: 86.6041597374119 kcal/mol)

>  <smiles>  (77) 
NC(=O)C(CCCCN=C(N)N)NC(=O)C(Cc1ccc(-c2ccccc2)cc1)NC(=O)C(N)CCCN=C(N)N

>  <score_type>  (77) 
oracle

>  <origin>  (77) 
adg

>  <m_score__min__energy>  (77) 
-13.06

>  <m_primary>  (77) 
energy

$$$$
77:0
     RDKit          3D

 45 48  0  0  0  0  0  0  0  0999 V2000
   54.9480   22.6170   45.7880 C   0  0  0  0  0  0  0  0  0  0  0  0
   55.8760   23.7600   45.8110 N   0  0  0  0  0  0  0  0  0  0  0  0
   55.3870   25.0420   45.7120 C   0  0  0  0  0  0  0  0  0  0  0  0
   54.1490   25.2720   45.6180 O   0  0  0  0  0  0  0  0  0  0  0  0
   56.2920   26.0900   45.7140 C   0  0  0  0  0  0  0  0  0  0  0  0
   56.0700   27.4090   45.6390 N   0  0  0  0  0  0  0  0  0  0  0  0
   57.3180   27.9490   45.6730 C   0  0  0  0  0  0  0  0  0  0  0  0
   57.6020   29.4050   45.6050 C   0  0  0  0  0  0  0  0  0  0  0  0
   57.0470   30.2150   44.5960 C   0  0  0  0  0  0  0  0  0  0  0  0
   57.3320   31.5830   44.5470 C   0  0  0  0  0  0  0  0  0  0  0  0
   58.1750   32.1620   45.5020 C   0  0  0  0  0  0  0  0  0  0  0  0
   58.5480   33.8810   45.4340 S   0  0  0  0  0  0  0  0  0  0  0  0
   59.4290   34.1770   44.2520 O   0  0  0  0  0  0  0  0  0  0  0  0
   57.2690   34.6580   45.3010 O   0  0  0  0  0  0  0  0  0  0  0  0
   59.3530   34.3640   46.8650 O   0  0  0  0  0  0  0  0  0  0  0  0
   60.6490   33.9710   47.2300 C   0  0  0  0  0  0  0  0  0  0  0  0
   61.6930   33.8400   46.2920 C   0  0  0  0  0  0  0  0  0  0  0  0
   62.9660   33.4370   46.7030 C   0  0  0  0  0  0  0  0  0  0  0  0
   63.2150   33.1650   48.0490 C   0  0  0  0  0  0  0  0  0  0  0  0
   62.1910   33.2950   48.9880 C   0  0  0  0  0  0  0  0  0  0  0  0
   60.9120   33.6970   48.5840 C   0  0  0  0  0  0  0  0  0  0  0  0
   59.6400   33.8460   49.7850 Cl  0  0  0  0  0  0  0  0  0  0  0  0
   58.7210   31.3680   46.5160 C   0  0  0  0  0  0  0  0  0  0  0  0
   58.4380   30.0000   46.5670 C   0  0  0  0  0  0  0  0  0  0  0  0
   58.3040   27.0130   45.7620 N   0  0  0  0  0  0  0  0  0  0  0  0
   57.6180   25.8560   45.7880 C   0  0  0  0  0  0  0  0  0  0  0  0
   58.1300   24.5960   45.8490 N   0  0  0  0  0  0  0  0  0  0  0  0
   59.5780   24.3660   45.9330 C   0  0  0  0  0  0  0  0  0  0  0  0
   57.2440   23.5390   45.8630 C   0  0  0  0  0  0  0  0  0  0  0  0
   57.6880   22.3570   45.9200 O   0  0  0  0  0  0  0  0  0  0  0  0
   54.7067   22.3198   46.8192 H   0  0  0  0  0  0  0  0  0  0  0  0
   54.0248   22.9048   45.2638 H   0  0  0  0  0  0  0  0  0  0  0  0
   55.4193   21.7726   45.2638 H   0  0  0  0  0  0  0  0  0  0  0  0
   55.1460   27.8860   45.5570 H   0  0  0  0  0  0  0  0  0  0  0  0
   56.3841   29.7682   43.8404 H   0  0  0  0  0  0  0  0  0  0  0  0
   56.8919   32.2064   43.7547 H   0  0  0  0  0  0  0  0  0  0  0  0
   61.5043   34.0564   45.2301 H   0  0  0  0  0  0  0  0  0  0  0  0
   63.7741   33.3338   45.9638 H   0  0  0  0  0  0  0  0  0  0  0  0
   64.2184   32.8482   48.3697 H   0  0  0  0  0  0  0  0  0  0  0  0
   62.3891   33.0811   50.0486 H   0  0  0  0  0  0  0  0  0  0  0  0
   59.3750   31.8214   47.2754 H   0  0  0  0  0  0  0  0  0  0  0  0
   58.8732   29.3831   47.3670 H   0  0  0  0  0  0  0  0  0  0  0  0
   59.8809   24.3179   46.9894 H   0  0  0  0  0  0  0  0  0  0  0  0
   59.8279   23.4169   45.4363 H   0  0  0  0  0  0  0  0  0  0  0  0
   60.1097   25.1909   45.4363 H   0  0  0  0  0  0  0  0  0  0  0  0
  1  2  1  0
  2  3  1  0
  3  4  2  0
  3  5  1  0
  5  6  1  0
  6  7  1  0
  7  8  1  0
  8  9  2  0
  9 10  1  0
 10 11  2  0
 11 12  1  0
 12 13  2  0
 12 14  2  0
 12 15  1  0
 15 16  1  0
 16 17  2  0
 17 18  1  0
 18 19  2  0
 19 20  1  0
 20 21  2  0
 21 22  1  0
 11 23  1  0
 23 24  2  0
  7 25  2  0
 25 26  1  0
 26 27  1  0
 27 28  1  0
 27 29  1  0
 29 30  2  0
 29  2  1  0
 26  5  2  0
 24  8  1  0
 21 16  1  0
  1 31  1  0
  1 32  1  0
  1 33  1  0
  6 34  1  0
  9 35  1  0
 10 36  1  0
 17 37  1  0
 18 38  1  0
 19 39  1  0
 20 40  1  0
 23 41  1  0
 24 42  1  0
 28 43  1  0
 28 44  1  0
 28 45  1  0
M  END
>  <UniqueID>  (78) 
71

>  <SMILES>  (78) 
Cn1c(=O)c2[nH]c(-c3ccc(S(=O)(=O)Oc4ccccc4Cl)cc3)nc2n(C)c1=O

>  <Energy>  (78) 
95.21022953125235

>  <Genealogy>  (78) 
Cn1c(=O)c2[nH]c(-c3ccc(S(=O)(=O)Oc4ccccc4Cl)cc3)nc2n(C)c1=O (3D coordinates assigned)
Cn1c(=O)c2[nH]c(-c3ccc(S(=O)(=O)Oc4ccccc4Cl)cc3)nc2n(C)c1=O (optimized conformer: 95.21022953125235 kcal/mol)

>  <smiles>  (78) 
Cn1c(=O)c2[nH]c(-c3ccc(S(=O)(=O)Oc4ccccc4Cl)cc3)nc2n(C)c1=O

>  <score_type>  (78) 
oracle

>  <origin>  (78) 
adg

>  <m_score__min__energy>  (78) 
-9.2799999999999994

>  <m_primary>  (78) 
energy

$$$$
78:0
     RDKit          3D

 40 42  0  0  0  0  0  0  0  0999 V2000
   65.7810   32.7620   49.7690 C   0  0  0  0  0  0  0  0  0  0  0  0
   64.3490   33.0650   49.4880 C   0  0  0  0  0  0  0  0  0  0  0  0
   63.4070   33.1760   50.4480 N   0  0  0  0  0  0  0  0  0  0  0  0
   62.1640   33.3870   49.9320 C   0  0  0  0  0  0  0  0  0  0  0  0
   60.9830   33.5440   50.8390 C   0  0  0  0  0  0  0  0  0  0  0  0
   62.1070   33.4290   48.5270 C   0  0  0  0  0  0  0  0  0  0  0  0
   60.9130   33.6320   47.6670 C   0  0  0  0  0  0  0  0  0  0  0  0
   59.6640   33.9530   48.2210 C   0  0  0  0  0  0  0  0  0  0  0  0
   58.5670   34.1350   47.3820 C   0  0  0  0  0  0  0  0  0  0  0  0
   58.7360   33.9970   46.0060 C   0  0  0  0  0  0  0  0  0  0  0  0
   57.3520   34.2230   44.8910 S   0  0  0  0  0  0  0  0  0  0  0  0
   57.7670   32.7600   43.8890 C   0  0  0  0  0  0  0  0  0  0  0  0
   57.7710   31.5480   44.7640 C   0  0  0  0  0  0  0  0  0  0  0  0
   56.7210   30.8600   44.8720 O   0  0  0  0  0  0  0  0  0  0  0  0
   58.9650   31.1810   45.4730 N   0  0  0  0  0  0  0  0  0  0  0  0
   59.1410   29.9280   46.1560 C   0  0  0  0  0  0  0  0  0  0  0  0
   59.2980   28.7240   45.4430 C   0  0  0  0  0  0  0  0  0  0  0  0
   59.4950   27.5190   46.1250 C   0  0  0  0  0  0  0  0  0  0  0  0
   59.5490   27.5060   47.5220 C   0  0  0  0  0  0  0  0  0  0  0  0
   59.4150   28.6980   48.2370 C   0  0  0  0  0  0  0  0  0  0  0  0
   59.2190   29.9060   47.5600 C   0  0  0  0  0  0  0  0  0  0  0  0
   59.0890   31.0540   48.2730 F   0  0  0  0  0  0  0  0  0  0  0  0
   59.9600   33.6830   45.5110 N   0  0  0  0  0  0  0  0  0  0  0  0
   61.0110   33.5070   46.3150 N   0  0  0  0  0  0  0  0  0  0  0  0
   63.6780   33.1910   47.9560 S   0  0  0  0  0  0  0  0  0  0  0  0
   65.9420   32.7279   50.8566 H   0  0  0  0  0  0  0  0  0  0  0  0
   66.0430   31.7885   49.3289 H   0  0  0  0  0  0  0  0  0  0  0  0
   66.4149   33.5459   49.3289 H   0  0  0  0  0  0  0  0  0  0  0  0
   61.3165   33.4997   51.8863 H   0  0  0  0  0  0  0  0  0  0  0  0
   60.5008   34.5141   50.6485 H   0  0  0  0  0  0  0  0  0  0  0  0
   60.2641   32.7335   50.6485 H   0  0  0  0  0  0  0  0  0  0  0  0
   59.5522   34.0601   49.3100 H   0  0  0  0  0  0  0  0  0  0  0  0
   57.5806   34.3843   47.8002 H   0  0  0  0  0  0  0  0  0  0  0  0
   57.0187   32.6358   43.0923 H   0  0  0  0  0  0  0  0  0  0  0  0
   58.7613   32.8922   43.4374 H   0  0  0  0  0  0  0  0  0  0  0  0
   59.7230   31.8970   45.5520 H   0  0  0  0  0  0  0  0  0  0  0  0
   59.2655   28.7312   44.3435 H   0  0  0  0  0  0  0  0  0  0  0  0
   59.6075   26.5808   45.5619 H   0  0  0  0  0  0  0  0  0  0  0  0
   59.6970   26.5568   48.0579 H   0  0  0  0  0  0  0  0  0  0  0  0
   59.4637   28.6868   49.3359 H   0  0  0  0  0  0  0  0  0  0  0  0
  1  2  1  0
  2  3  2  0
  3  4  1  0
  4  5  1  0
  4  6  2  0
  6  7  1  0
  7  8  2  0
  8  9  1  0
  9 10  2  0
 10 11  1  0
 11 12  1  0
 12 13  1  0
 13 14  2  0
 13 15  1  0
 15 16  1  0
 16 17  2  0
 17 18  1  0
 18 19  2  0
 19 20  1  0
 20 21  2  0
 21 22  1  0
 10 23  1  0
 23 24  2  0
  6 25  1  0
 25  2  1  0
 24  7  1  0
 21 16  1  0
  1 26  1  0
  1 27  1  0
  1 28  1  0
  5 29  1  0
  5 30  1  0
  5 31  1  0
  8 32  1  0
  9 33  1  0
 12 34  1  0
 12 35  1  0
 15 36  1  0
 17 37  1  0
 18 38  1  0
 19 39  1  0
 20 40  1  0
M  END
>  <UniqueID>  (79) 
72

>  <SMILES>  (79) 
Cc1nc(C)c(-c2ccc(SCC(=O)Nc3ccccc3F)nn2)s1

>  <Energy>  (79) 
71.07525641882773

>  <Genealogy>  (79) 
Cc1nc(C)c(-c2ccc(SCC(=O)Nc3ccccc3F)nn2)s1 (3D coordinates assigned)
Cc1nc(C)c(-c2ccc(SCC(=O)Nc3ccccc3F)nn2)s1 (optimized conformer: 71.07525641882773 kcal/mol)

>  <smiles>  (79) 
Cc1nc(C)c(-c2ccc(SCC(=O)Nc3ccccc3F)nn2)s1

>  <score_type>  (79) 
oracle

>  <origin>  (79) 
adg

>  <m_score__min__energy>  (79) 
-8.5800000000000001

>  <m_primary>  (79) 
energy

$$$$
79:0
     RDKit          3D

 41 44  0  0  0  0  0  0  0  0999 V2000
   62.8420   33.2990   48.1890 O   0  0  0  0  0  0  0  0  0  0  0  0
   62.2180   33.5910   47.1480 N   0  0  0  0  0  0  0  0  0  0  0  0
   62.9300   33.8590   46.0020 O   0  0  0  0  0  0  0  0  0  0  0  0
   60.7940   33.4110   47.0890 C   0  0  0  0  0  0  0  0  0  0  0  0
   59.9640   34.5450   47.0200 C   0  0  0  0  0  0  0  0  0  0  0  0
   58.5750   34.4120   47.0080 C   0  0  0  0  0  0  0  0  0  0  0  0
   57.9950   33.1470   47.0590 C   0  0  0  0  0  0  0  0  0  0  0  0
   58.8020   32.0090   47.1090 C   0  0  0  0  0  0  0  0  0  0  0  0
   60.2020   32.1230   47.1100 C   0  0  0  0  0  0  0  0  0  0  0  0
   61.1720   30.6420   47.0820 S   0  0  0  0  0  0  0  0  0  0  0  0
   61.0310   29.9390   48.4030 O   0  0  0  0  0  0  0  0  0  0  0  0
   62.6180   30.9750   46.8430 O   0  0  0  0  0  0  0  0  0  0  0  0
   60.6370   29.5960   45.8040 N   0  0  0  0  0  0  0  0  0  0  0  0
   59.3100   29.0610   45.7590 C   0  0  0  0  0  0  0  0  0  0  0  0
   59.0290   27.9390   46.5340 C   0  0  0  0  0  0  0  0  0  0  0  0
   57.7800   27.3210   46.4720 C   0  0  0  0  0  0  0  0  0  0  0  0
   57.4980   25.8390   47.4480 S   0  0  0  0  0  0  0  0  0  0  0  0
   56.6190   25.0310   46.1180 C   0  0  0  0  0  0  0  0  0  0  0  0
   57.1630   24.7700   44.9140 N   0  0  0  0  0  0  0  0  0  0  0  0
   56.1430   24.1600   44.2800 C   0  0  0  0  0  0  0  0  0  0  0  0
   55.0450   24.0590   45.0540 N   0  0  0  0  0  0  0  0  0  0  0  0
   55.3460   24.6110   46.2160 N   0  0  0  0  0  0  0  0  0  0  0  0
   56.7690   27.8370   45.6490 C   0  0  0  0  0  0  0  0  0  0  0  0
   55.5470   27.1510   45.6200 O   0  0  0  0  0  0  0  0  0  0  0  0
   57.0120   29.0140   44.8900 C   0  0  0  0  0  0  0  0  0  0  0  0
   56.0180   29.6000   44.0740 C   0  0  0  0  0  0  0  0  0  0  0  0
   56.2780   30.7720   43.3640 C   0  0  0  0  0  0  0  0  0  0  0  0
   57.5200   31.3900   43.4580 C   0  0  0  0  0  0  0  0  0  0  0  0
   58.5200   30.8340   44.2530 C   0  0  0  0  0  0  0  0  0  0  0  0
   58.2940   29.6360   44.9600 C   0  0  0  0  0  0  0  0  0  0  0  0
   60.4149   35.5473   46.9750 H   0  0  0  0  0  0  0  0  0  0  0  0
   57.9377   35.3072   46.9582 H   0  0  0  0  0  0  0  0  0  0  0  0
   56.8998   33.0444   47.0599 H   0  0  0  0  0  0  0  0  0  0  0  0
   58.3368   31.0130   47.1480 H   0  0  0  0  0  0  0  0  0  0  0  0
   59.8020   27.5346   47.2040 H   0  0  0  0  0  0  0  0  0  0  0  0
   56.2001   23.7865   43.2469 H   0  0  0  0  0  0  0  0  0  0  0  0
   55.3860   26.2750   45.1480 H   0  0  0  0  0  0  0  0  0  0  0  0
   55.0281   29.1264   43.9980 H   0  0  0  0  0  0  0  0  0  0  0  0
   55.4961   31.2099   42.7261 H   0  0  0  0  0  0  0  0  0  0  0  0
   57.7135   32.3200   42.9034 H   0  0  0  0  0  0  0  0  0  0  0  0
   59.4961   31.3353   44.3296 H   0  0  0  0  0  0  0  0  0  0  0  0
  1  2  2  0
  2  3  1  0
  2  4  1  0
  4  5  2  0
  5  6  1  0
  6  7  2  0
  7  8  1  0
  8  9  2  0
  9 10  1  0
 10 11  2  0
 10 12  2  0
 10 13  1  0
 13 14  1  0
 14 15  2  0
 15 16  1  0
 16 17  1  0
 17 18  1  0
 18 19  1  0
 19 20  2  0
 20 21  1  0
 21 22  1  0
 16 23  2  0
 23 24  1  0
 23 25  1  0
 25 26  2  0
 26 27  1  0
 27 28  2  0
 28 29  1  0
 29 30  2  0
  9  4  1  0
 30 14  1  0
 22 18  2  0
 30 25  1  0
  5 31  1  0
  6 32  1  0
  7 33  1  0
  8 34  1  0
 15 35  1  0
 20 36  1  0
 24 37  1  0
 26 38  1  0
 27 39  1  0
 28 40  1  0
 29 41  1  0
M  CHG  4   2   1   3  -1  13  -1  21  -1
M  END
>  <UniqueID>  (80) 
73

>  <SMILES>  (80) 
O=[N+]([O-])c1ccccc1S(=O)(=O)[N-]c1cc(Sc2nc[n-]n2)c(O)c2ccccc12

>  <Energy>  (80) 
97.90503645470719

>  <Genealogy>  (80) 
O=[N+]([O-])c1ccccc1S(=O)(=O)[N-]c1cc(Sc2nc[n-]n2)c(O)c2ccccc12 (protonated)
O=[N+]([O-])c1ccccc1S(=O)(=O)[N-]c1cc(Sc2nc[n-]n2)c(O)c2ccccc12 (3D coordinates assigned)
O=[N+]([O-])c1ccccc1S(=O)(=O)[N-]c1cc(Sc2nc[n-]n2)c(O)c2ccccc12 (optimized conformer: 97.90503645470719 kcal/mol)

>  <smiles>  (80) 
O=[N+]([O-])c1ccccc1S(=O)(=O)Nc1cc(Sc2nc[nH]n2)c(O)c2ccccc12

>  <score_type>  (80) 
oracle

>  <origin>  (80) 
adg

>  <m_score__min__energy>  (80) 
-11.66

>  <m_primary>  (80) 
energy

$$$$
80:0
     RDKit          3D

 47 50  0  0  0  0  0  0  0  0999 V2000
   64.2200   32.3700   49.5360 C   0  0  0  0  0  0  0  0  0  0  0  0
   63.4910   32.9080   48.3940 N   0  0  0  0  0  0  0  0  0  0  0  0
   62.1850   33.2310   48.3700 C   0  0  0  0  0  0  0  0  0  0  0  0
   61.8730   33.6500   47.0900 C   0  0  0  0  0  0  0  0  0  0  0  0
   60.5660   34.2090   46.6170 C   0  0  0  0  0  0  0  0  0  0  0  0
   59.3850   33.6220   47.4020 C   0  0  0  0  0  0  0  0  0  0  0  0
   58.9940   32.3030   46.8740 N   0  0  0  0  0  0  0  0  0  0  0  0
   59.5600   31.1780   47.4090 C   0  0  0  0  0  0  0  0  0  0  0  0
   59.2560   29.9130   46.9050 C   0  0  0  0  0  0  0  0  0  0  0  0
   58.3590   29.7860   45.8360 C   0  0  0  0  0  0  0  0  0  0  0  0
   58.0300   28.4490   45.2800 C   0  0  0  0  0  0  0  0  0  0  0  0
   58.4510   28.0920   43.9870 C   0  0  0  0  0  0  0  0  0  0  0  0
   58.1440   26.8360   43.4580 C   0  0  0  0  0  0  0  0  0  0  0  0
   57.4090   25.9120   44.2130 C   0  0  0  0  0  0  0  0  0  0  0  0
   57.0970   24.6480   43.6890 C   0  0  0  0  0  0  0  0  0  0  0  0
   56.3580   23.7230   44.4470 C   0  0  0  0  0  0  0  0  0  0  0  0
   56.0310   22.3920   43.8870 C   0  0  0  0  0  0  0  0  0  0  0  0
   55.8710   21.4000   44.6470 O   0  0  0  0  0  0  0  0  0  0  0  0
   55.8960   22.2170   42.5150 O   0  0  0  0  0  0  0  0  0  0  0  0
   55.9350   24.0780   45.7390 C   0  0  0  0  0  0  0  0  0  0  0  0
   56.2420   25.3350   46.2680 C   0  0  0  0  0  0  0  0  0  0  0  0
   56.9800   26.2580   45.5150 C   0  0  0  0  0  0  0  0  0  0  0  0
   57.2920   27.5220   46.0390 C   0  0  0  0  0  0  0  0  0  0  0  0
   57.7830   30.9460   45.3000 C   0  0  0  0  0  0  0  0  0  0  0  0
   58.1110   32.1990   45.8280 C   0  0  0  0  0  0  0  0  0  0  0  0
   57.5840   33.2300   45.3270 O   0  0  0  0  0  0  0  0  0  0  0  0
   63.0520   33.5590   46.3720 C   0  0  0  0  0  0  0  0  0  0  0  0
   64.0110   33.0910   47.1910 N   0  0  0  0  0  0  0  0  0  0  0  0
   63.7497   32.7171   50.4678 H   0  0  0  0  0  0  0  0  0  0  0  0
   64.1969   31.2708   49.5010 H   0  0  0  0  0  0  0  0  0  0  0  0
   65.2635   32.7161   49.5010 H   0  0  0  0  0  0  0  0  0  0  0  0
   61.4883   33.1721   49.2192 H   0  0  0  0  0  0  0  0  0  0  0  0
   60.5756   35.3010   46.7495 H   0  0  0  0  0  0  0  0  0  0  0  0
   60.4411   33.9437   45.5568 H   0  0  0  0  0  0  0  0  0  0  0  0
   59.6747   33.5139   48.4576 H   0  0  0  0  0  0  0  0  0  0  0  0
   58.5279   34.3042   47.3016 H   0  0  0  0  0  0  0  0  0  0  0  0
   60.2647   31.2722   48.2484 H   0  0  0  0  0  0  0  0  0  0  0  0
   59.7192   29.0178   47.3456 H   0  0  0  0  0  0  0  0  0  0  0  0
   59.0284   28.8094   43.3854 H   0  0  0  0  0  0  0  0  0  0  0  0
   58.4805   26.5712   42.4448 H   0  0  0  0  0  0  0  0  0  0  0  0
   57.4335   24.3789   42.6769 H   0  0  0  0  0  0  0  0  0  0  0  0
   55.3570   23.3603   46.3397 H   0  0  0  0  0  0  0  0  0  0  0  0
   55.9027   25.6008   47.2800 H   0  0  0  0  0  0  0  0  0  0  0  0
   56.9568   27.7904   47.0517 H   0  0  0  0  0  0  0  0  0  0  0  0
   57.0725   30.8709   44.4636 H   0  0  0  0  0  0  0  0  0  0  0  0
   63.1829   33.8240   45.3125 H   0  0  0  0  0  0  0  0  0  0  0  0
   65.0070   32.9070   46.9330 H   0  0  0  0  0  0  0  0  0  0  0  0
  1  2  1  0
  2  3  1  0
  3  4  2  0
  4  5  1  0
  5  6  1  0
  6  7  1  0
  7  8  1  0
  8  9  2  0
  9 10  1  0
 10 11  1  0
 11 12  2  0
 12 13  1  0
 13 14  2  0
 14 15  1  0
 15 16  2  0
 16 17  1  0
 17 18  2  0
 17 19  1  0
 16 20  1  0
 20 21  2  0
 21 22  1  0
 22 23  2  0
 10 24  2  0
 24 25  1  0
 25 26  2  0
  4 27  1  0
 27 28  2  0
 28  2  1  0
 25  7  1  0
 23 11  1  0
 22 14  1  0
  1 29  1  0
  1 30  1  0
  1 31  1  0
  3 32  1  0
  5 33  1  0
  5 34  1  0
  6 35  1  0
  6 36  1  0
  8 37  1  0
  9 38  1  0
 12 39  1  0
 13 40  1  0
 15 41  1  0
 20 42  1  0
 21 43  1  0
 23 44  1  0
 24 45  1  0
 27 46  1  0
 28 47  1  0
M  CHG  2  19  -1  28   1
M  END
>  <UniqueID>  (81) 
74

>  <SMILES>  (81) 
Cn1cc(CCn2ccc(-c3ccc4cc(C(=O)[O-])ccc4c3)cc2=O)c[nH+]1

>  <Energy>  (81) 
87.82153950101832

>  <Genealogy>  (81) 
Cn1cc(CCn2ccc(-c3ccc4cc(C(=O)[O-])ccc4c3)cc2=O)c[nH+]1 (protonated)
Cn1cc(CCn2ccc(-c3ccc4cc(C(=O)[O-])ccc4c3)cc2=O)c[nH+]1 (3D coordinates assigned)
Cn1cc(CCn2ccc(-c3ccc4cc(C(=O)[O-])ccc4c3)cc2=O)c[nH+]1 (optimized conformer: 87.82153950101832 kcal/mol)

>  <smiles>  (81) 
Cn1cc(CCn2ccc(-c3ccc4cc(C(=O)O)ccc4c3)cc2=O)cn1

>  <score_type>  (81) 
oracle

>  <origin>  (81) 
adg

>  <m_score__min__energy>  (81) 
-9.3200000000000003

>  <m_primary>  (81) 
energy

$$$$
81:0
     RDKit          3D

 50 52  0  0  0  0  0  0  0  0999 V2000
   58.8700   29.7660   48.3430 C   0  0  0  0  0  0  0  0  0  0  0  0
   58.7640   30.8770   47.4570 O   0  0  0  0  0  0  0  0  0  0  0  0
   59.7710   31.8330   47.2480 C   0  0  0  0  0  0  0  0  0  0  0  0
   61.1330   31.5320   47.4560 C   0  0  0  0  0  0  0  0  0  0  0  0
   62.1130   32.5030   47.2470 C   0  0  0  0  0  0  0  0  0  0  0  0
   61.7530   33.7850   46.8320 C   0  0  0  0  0  0  0  0  0  0  0  0
   60.4100   34.1000   46.6220 C   0  0  0  0  0  0  0  0  0  0  0  0
   59.4100   33.1290   46.8180 C   0  0  0  0  0  0  0  0  0  0  0  0
   57.9650   33.5130   46.6170 C   0  0  0  0  0  0  0  0  0  0  0  0
   57.4630   32.9800   45.3100 C   0  0  0  0  0  0  0  0  0  0  0  0
   57.3950   33.7460   44.3110 O   0  0  0  0  0  0  0  0  0  0  0  0
   57.0350   31.6140   45.2050 N   0  0  0  0  0  0  0  0  0  0  0  0
   56.5250   31.0460   43.9600 C   0  0  0  0  0  0  0  0  0  0  0  0
   55.8010   29.7620   44.2210 C   0  0  0  0  0  0  0  0  0  0  0  0
   54.7410   29.5110   43.5870 O   0  0  0  0  0  0  0  0  0  0  0  0
   56.2500   28.8960   45.2720 N   0  0  0  0  0  0  0  0  0  0  0  0
   57.5550   28.3180   45.4180 C   0  0  0  0  0  0  0  0  0  0  0  0
   58.7230   29.0410   45.1090 C   0  0  0  0  0  0  0  0  0  0  0  0
   59.9810   28.4530   45.2710 C   0  0  0  0  0  0  0  0  0  0  0  0
   60.0880   27.1470   45.7540 C   0  0  0  0  0  0  0  0  0  0  0  0
   58.9380   26.4320   46.0920 C   0  0  0  0  0  0  0  0  0  0  0  0
   57.6730   27.0110   45.9300 C   0  0  0  0  0  0  0  0  0  0  0  0
   56.2130   26.0650   46.3870 S   0  0  0  0  0  0  0  0  0  0  0  0
   56.7300   24.6220   45.4560 C   0  0  0  0  0  0  0  0  0  0  0  0
   56.3210   24.4610   44.1260 C   0  0  0  0  0  0  0  0  0  0  0  0
   56.7240   23.3340   43.4020 C   0  0  0  0  0  0  0  0  0  0  0  0
   57.5280   22.3640   44.0070 C   0  0  0  0  0  0  0  0  0  0  0  0
   57.9280   22.5160   45.3390 C   0  0  0  0  0  0  0  0  0  0  0  0
   58.7010   21.5720   45.9290 F   0  0  0  0  0  0  0  0  0  0  0  0
   57.5280   23.6450   46.0640 C   0  0  0  0  0  0  0  0  0  0  0  0
   58.8360   30.1220   49.3832 H   0  0  0  0  0  0  0  0  0  0  0  0
   58.0338   29.0739   48.1649 H   0  0  0  0  0  0  0  0  0  0  0  0
   59.8220   29.2445   48.1649 H   0  0  0  0  0  0  0  0  0  0  0  0
   61.4250   30.5240   47.7855 H   0  0  0  0  0  0  0  0  0  0  0  0
   63.1726   32.2567   47.4100 H   0  0  0  0  0  0  0  0  0  0  0  0
   62.5284   34.5483   46.6701 H   0  0  0  0  0  0  0  0  0  0  0  0
   60.1308   35.1144   46.3010 H   0  0  0  0  0  0  0  0  0  0  0  0
   57.3610   33.0947   47.4356 H   0  0  0  0  0  0  0  0  0  0  0  0
   57.8834   34.6100   46.6114 H   0  0  0  0  0  0  0  0  0  0  0  0
   57.0840   30.9980   46.0490 H   0  0  0  0  0  0  0  0  0  0  0  0
   55.8328   31.7623   43.4933 H   0  0  0  0  0  0  0  0  0  0  0  0
   57.3737   30.8433   43.2903 H   0  0  0  0  0  0  0  0  0  0  0  0
   58.6453   30.0737   44.7383 H   0  0  0  0  0  0  0  0  0  0  0  0
   60.8886   29.0204   45.0174 H   0  0  0  0  0  0  0  0  0  0  0  0
   61.0783   26.6820   45.8680 H   0  0  0  0  0  0  0  0  0  0  0  0
   59.0255   25.4092   46.4874 H   0  0  0  0  0  0  0  0  0  0  0  0
   55.6830   25.2207   43.6509 H   0  0  0  0  0  0  0  0  0  0  0  0
   56.4078   23.2111   42.3556 H   0  0  0  0  0  0  0  0  0  0  0  0
   57.8467   21.4800   43.4352 H   0  0  0  0  0  0  0  0  0  0  0  0
   57.8408   23.7646   47.1118 H   0  0  0  0  0  0  0  0  0  0  0  0
  1  2  1  0
  2  3  1  0
  3  4  2  0
  4  5  1  0
  5  6  2  0
  6  7  1  0
  7  8  2  0
  8  9  1  0
  9 10  1  0
 10 11  2  0
 10 12  1  0
 12 13  1  0
 13 14  1  0
 14 15  2  0
 14 16  1  0
 16 17  1  0
 17 18  2  0
 18 19  1  0
 19 20  2  0
 20 21  1  0
 21 22  2  0
 22 23  1  0
 23 24  1  0
 24 25  2  0
 25 26  1  0
 26 27  2  0
 27 28  1  0
 28 29  1  0
 28 30  2  0
  8  3  1  0
 22 17  1  0
 30 24  1  0
  1 31  1  0
  1 32  1  0
  1 33  1  0
  4 34  1  0
  5 35  1  0
  6 36  1  0
  7 37  1  0
  9 38  1  0
  9 39  1  0
 12 40  1  0
 13 41  1  0
 13 42  1  0
 18 43  1  0
 19 44  1  0
 20 45  1  0
 21 46  1  0
 25 47  1  0
 26 48  1  0
 27 49  1  0
 30 50  1  0
M  CHG  1  16  -1
M  END
>  <UniqueID>  (82) 
75

>  <SMILES>  (82) 
COc1ccccc1CC(=O)NCC(=O)[N-]c1ccccc1Sc1cccc(F)c1

>  <Energy>  (82) 
45.78047253756496

>  <Genealogy>  (82) 
COc1ccccc1CC(=O)NCC(=O)[N-]c1ccccc1Sc1cccc(F)c1 (protonated)
COc1ccccc1CC(=O)NCC(=O)[N-]c1ccccc1Sc1cccc(F)c1 (3D coordinates assigned)
COc1ccccc1CC(=O)NCC(=O)[N-]c1ccccc1Sc1cccc(F)c1 (optimized conformer: 45.78047253756496 kcal/mol)

>  <smiles>  (82) 
COc1ccccc1CC(=O)NCC(=O)Nc1ccccc1Sc1cccc(F)c1

>  <score_type>  (82) 
oracle

>  <origin>  (82) 
adg

>  <m_score__min__energy>  (82) 
-10.81

>  <m_primary>  (82) 
energy

$$$$
82:0
     RDKit          3D

 40 41  0  0  0  0  0  0  0  0999 V2000
   56.8540   29.2740   42.8370 N   0  0  0  0  0  0  0  0  0  0  0  0
   56.6620   29.8130   44.4670 S   0  0  0  0  0  0  0  0  0  0  0  0
   56.2700   31.2630   44.4730 O   0  0  0  0  0  0  0  0  0  0  0  0
   55.5780   29.0180   45.1400 O   0  0  0  0  0  0  0  0  0  0  0  0
   58.1800   29.6010   45.3350 C   0  0  0  0  0  0  0  0  0  0  0  0
   59.3560   29.2950   44.6370 C   0  0  0  0  0  0  0  0  0  0  0  0
   60.5590   29.1260   45.3290 C   0  0  0  0  0  0  0  0  0  0  0  0
   60.5900   29.2480   46.7200 C   0  0  0  0  0  0  0  0  0  0  0  0
   59.4090   29.5220   47.4330 C   0  0  0  0  0  0  0  0  0  0  0  0
   59.4090   29.6750   48.8600 N   0  0  0  0  0  0  0  0  0  0  0  0
   59.9100   30.8030   49.5890 C   0  0  0  0  0  0  0  0  0  0  0  0
   60.9000   30.6360   50.3490 O   0  0  0  0  0  0  0  0  0  0  0  0
   59.3590   32.1620   49.3840 C   0  0  0  0  0  0  0  0  0  0  0  0
   58.1420   32.3560   49.6490 O   0  0  0  0  0  0  0  0  0  0  0  0
   60.1610   33.2550   48.8770 N   0  0  0  0  0  0  0  0  0  0  0  0
   59.5090   34.4240   48.2730 C   0  0  0  0  0  0  0  0  0  0  0  0
   59.0550   34.1000   46.8510 C   0  0  0  0  0  0  0  0  0  0  0  0
   60.1230   33.3260   46.0630 C   0  0  0  0  0  0  0  0  0  0  0  0
   61.5540   33.8210   46.3420 C   0  0  0  0  0  0  0  0  0  0  0  0
   62.2500   33.0620   47.4880 C   0  0  0  0  0  0  0  0  0  0  0  0
   61.6300   33.2230   48.8960 C   0  0  0  0  0  0  0  0  0  0  0  0
   58.2120   29.7150   46.7320 C   0  0  0  0  0  0  0  0  0  0  0  0
   56.6400   28.2520   42.8260 H   0  0  0  0  0  0  0  0  0  0  0  0
   57.8660   29.3740   42.5990 H   0  0  0  0  0  0  0  0  0  0  0  0
   59.3325   29.1876   43.5425 H   0  0  0  0  0  0  0  0  0  0  0  0
   61.4825   28.8966   44.7771 H   0  0  0  0  0  0  0  0  0  0  0  0
   61.5412   29.1294   47.2597 H   0  0  0  0  0  0  0  0  0  0  0  0
   58.6346   34.7052   48.8782 H   0  0  0  0  0  0  0  0  0  0  0  0
   60.2265   35.2571   48.2392 H   0  0  0  0  0  0  0  0  0  0  0  0
   58.1407   33.4905   46.9013 H   0  0  0  0  0  0  0  0  0  0  0  0
   58.8737   35.0513   46.3294 H   0  0  0  0  0  0  0  0  0  0  0  0
   60.0600   32.2629   46.3385 H   0  0  0  0  0  0  0  0  0  0  0  0
   59.9225   33.4859   44.9933 H   0  0  0  0  0  0  0  0  0  0  0  0
   62.1513   33.6953   45.4269 H   0  0  0  0  0  0  0  0  0  0  0  0
   61.4798   34.8750   46.6478 H   0  0  0  0  0  0  0  0  0  0  0  0
   62.2365   31.9911   47.2369 H   0  0  0  0  0  0  0  0  0  0  0  0
   63.2563   33.5004   47.5600 H   0  0  0  0  0  0  0  0  0  0  0  0
   61.9540   32.3773   49.5203 H   0  0  0  0  0  0  0  0  0  0  0  0
   61.9746   34.1869   49.2987 H   0  0  0  0  0  0  0  0  0  0  0  0
   57.2904   29.9577   47.2814 H   0  0  0  0  0  0  0  0  0  0  0  0
  1  2  1  0
  2  3  2  0
  2  4  2  0
  2  5  1  0
  5  6  2  0
  6  7  1  0
  7  8  2  0
  8  9  1  0
  9 10  1  0
 10 11  1  0
 11 12  2  0
 11 13  1  0
 13 14  2  0
 13 15  1  0
 15 16  1  0
 16 17  1  0
 17 18  1  0
 18 19  1  0
 19 20  1  0
 20 21  1  0
  9 22  2  0
 22  5  1  0
 21 15  1  0
  1 23  1  0
  1 24  1  0
  6 25  1  0
  7 26  1  0
  8 27  1  0
 16 28  1  0
 16 29  1  0
 17 30  1  0
 17 31  1  0
 18 32  1  0
 18 33  1  0
 19 34  1  0
 19 35  1  0
 20 36  1  0
 20 37  1  0
 21 38  1  0
 21 39  1  0
 22 40  1  0
M  CHG  1  10  -1
M  END
>  <UniqueID>  (83) 
76

>  <SMILES>  (83) 
NS(=O)(=O)c1cccc([N-]C(=O)C(=O)N2CCCCCC2)c1

>  <Energy>  (83) 
45.9432178900132

>  <Genealogy>  (83) 
NS(=O)(=O)c1cccc([N-]C(=O)C(=O)N2CCCCCC2)c1 (protonated)
NS(=O)(=O)c1cccc([N-]C(=O)C(=O)N2CCCCCC2)c1 (3D coordinates assigned)
NS(=O)(=O)c1cccc([N-]C(=O)C(=O)N2CCCCCC2)c1 (nonaromatic ring conformer: 45.9432178900132 kcal/mol)

>  <smiles>  (83) 
NS(=O)(=O)c1cccc(NC(=O)C(=O)N2CCCCCC2)c1

>  <score_type>  (83) 
oracle

>  <origin>  (83) 
adg

>  <m_score__min__energy>  (83) 
-7.4699999999999998

>  <m_primary>  (83) 
energy

$$$$
83:0
     RDKit          3D

 47 49  0  0  0  0  0  0  0  0999 V2000
   56.6770   19.9760   45.2370 C   0  0  0  0  0  0  0  0  0  0  0  0
   56.5900   21.0320   44.1760 C   0  0  0  0  0  0  0  0  0  0  0  0
   56.2560   20.6840   43.0110 O   0  0  0  0  0  0  0  0  0  0  0  0
   56.8850   22.4620   44.4640 C   0  0  0  0  0  0  0  0  0  0  0  0
   56.7910   23.4460   43.4620 C   0  0  0  0  0  0  0  0  0  0  0  0
   57.0730   24.7840   43.7500 C   0  0  0  0  0  0  0  0  0  0  0  0
   57.4700   25.1670   45.0350 C   0  0  0  0  0  0  0  0  0  0  0  0
   57.7310   26.5560   45.2910 N   0  0  0  0  0  0  0  0  0  0  0  0
   58.0950   27.5500   44.3230 C   0  0  0  0  0  0  0  0  0  0  0  0
   58.6040   27.1970   43.2250 O   0  0  0  0  0  0  0  0  0  0  0  0
   57.8190   28.9880   44.5970 C   0  0  0  0  0  0  0  0  0  0  0  0
   56.5600   29.5270   44.2740 C   0  0  0  0  0  0  0  0  0  0  0  0
   56.2830   30.8340   44.5130 N   0  0  0  0  0  0  0  0  0  0  0  0
   57.1920   31.6740   45.0680 C   0  0  0  0  0  0  0  0  0  0  0  0
   56.8560   33.0140   45.2900 C   0  0  0  0  0  0  0  0  0  0  0  0
   57.7850   33.8860   45.8600 C   0  0  0  0  0  0  0  0  0  0  0  0
   59.0580   33.4250   46.2190 C   0  0  0  0  0  0  0  0  0  0  0  0
   60.2270   34.5450   46.9150 S   0  0  0  0  0  0  0  0  0  0  0  0
   59.9200   35.9480   46.4660 O   0  0  0  0  0  0  0  0  0  0  0  0
   61.6000   34.1760   46.4220 O   0  0  0  0  0  0  0  0  0  0  0  0
   60.1800   34.4500   48.6570 N   0  0  0  0  0  0  0  0  0  0  0  0
   61.5340   34.2390   49.1880 C   0  0  0  0  0  0  0  0  0  0  0  0
   59.2860   33.3620   49.0740 C   0  0  0  0  0  0  0  0  0  0  0  0
   59.4030   32.0850   45.9930 C   0  0  0  0  0  0  0  0  0  0  0  0
   58.4730   31.1970   45.4180 C   0  0  0  0  0  0  0  0  0  0  0  0
   58.7850   29.8430   45.1790 C   0  0  0  0  0  0  0  0  0  0  0  0
   59.9260   29.4000   45.4870 O   0  0  0  0  0  0  0  0  0  0  0  0
   57.5420   24.1960   46.0480 C   0  0  0  0  0  0  0  0  0  0  0  0
   57.2590   22.8570   45.7620 C   0  0  0  0  0  0  0  0  0  0  0  0
   56.6380   20.4491   46.2293 H   0  0  0  0  0  0  0  0  0  0  0  0
   55.8333   19.2784   45.1300 H   0  0  0  0  0  0  0  0  0  0  0  0
   57.6235   19.4258   45.1300 H   0  0  0  0  0  0  0  0  0  0  0  0
   56.4928   23.1591   42.4428 H   0  0  0  0  0  0  0  0  0  0  0  0
   56.9819   25.5428   42.9588 H   0  0  0  0  0  0  0  0  0  0  0  0
   55.7917   28.8819   43.8228 H   0  0  0  0  0  0  0  0  0  0  0  0
   55.8565   33.3815   45.0144 H   0  0  0  0  0  0  0  0  0  0  0  0
   57.5163   34.9394   46.0279 H   0  0  0  0  0  0  0  0  0  0  0  0
   59.8070   35.3560   49.0270 H   0  0  0  0  0  0  0  0  0  0  0  0
   61.5016   34.2441   50.2875 H   0  0  0  0  0  0  0  0  0  0  0  0
   61.9187   33.2701   48.8370 H   0  0  0  0  0  0  0  0  0  0  0  0
   62.1952   35.0449   48.8370 H   0  0  0  0  0  0  0  0  0  0  0  0
   59.2497   33.3179   50.1725 H   0  0  0  0  0  0  0  0  0  0  0  0
   58.2754   33.5468   48.6809 H   0  0  0  0  0  0  0  0  0  0  0  0
   59.6633   32.4064   48.6809 H   0  0  0  0  0  0  0  0  0  0  0  0
   60.4058   31.7250   46.2663 H   0  0  0  0  0  0  0  0  0  0  0  0
   57.8221   24.4905   47.0702 H   0  0  0  0  0  0  0  0  0  0  0  0
   57.3295   22.1037   46.5605 H   0  0  0  0  0  0  0  0  0  0  0  0
  1  2  1  0
  2  3  2  0
  2  4  1  0
  4  5  2  0
  5  6  1  0
  6  7  2  0
  7  8  1  0
  8  9  1  0
  9 10  2  0
  9 11  1  0
 11 12  2  0
 12 13  1  0
 13 14  1  0
 14 15  2  0
 15 16  1  0
 16 17  2  0
 17 18  1  0
 18 19  2  0
 18 20  2  0
 18 21  1  0
 21 22  1  0
 21 23  1  0
 17 24  1  0
 24 25  2  0
 25 26  1  0
 26 27  2  0
  7 28  1  0
 28 29  2  0
 29  4  1  0
 26 11  1  0
 25 14  1  0
  1 30  1  0
  1 31  1  0
  1 32  1  0
  5 33  1  0
  6 34  1  0
 12 35  1  0
 15 36  1  0
 16 37  1  0
 21 38  1  0
 22 39  1  0
 22 40  1  0
 22 41  1  0
 23 42  1  0
 23 43  1  0
 23 44  1  0
 24 45  1  0
 28 46  1  0
 29 47  1  0
M  CHG  3   8  -1  13  -1  21   1
M  END
>  <UniqueID>  (84) 
77

>  <SMILES>  (84) 
CC(=O)c1ccc([N-]C(=O)c2c[n-]c3ccc(S(=O)(=O)[NH+](C)C)cc3c2=O)cc1

>  <Energy>  (84) 
58.07243539485526

>  <Genealogy>  (84) 
CC(=O)c1ccc([N-]C(=O)c2c[n-]c3ccc(S(=O)(=O)[NH+](C)C)cc3c2=O)cc1 (protonated)
CC(=O)c1ccc([N-]C(=O)c2c[n-]c3ccc(S(=O)(=O)[NH+](C)C)cc3c2=O)cc1 (3D coordinates assigned)
CC(=O)c1ccc([N-]C(=O)c2c[n-]c3ccc(S(=O)(=O)[NH+](C)C)cc3c2=O)cc1 (optimized conformer: 58.07243539485526 kcal/mol)

>  <smiles>  (84) 
CC(=O)c1ccc(NC(=O)c2c[nH]c3ccc(S(=O)(=O)N(C)C)cc3c2=O)cc1

>  <score_type>  (84) 
oracle

>  <origin>  (84) 
adg

>  <m_score__min__energy>  (84) 
-10.35

>  <m_primary>  (84) 
energy

$$$$
84:0
     RDKit          3D

 61 64  0  0  0  0  0  0  0  0999 V2000
   58.3650   29.3620   51.5560 C   0  0  0  0  0  0  0  0  0  0  0  0
   58.7530   30.4670   50.6110 C   0  0  0  0  0  0  0  0  0  0  0  0
   59.0970   30.1480   49.2890 C   0  0  0  0  0  0  0  0  0  0  0  0
   59.4810   31.1440   48.3800 C   0  0  0  0  0  0  0  0  0  0  0  0
   59.9020   30.7660   47.0610 N   0  0  0  0  0  0  0  0  0  0  0  0
   58.7980   30.0010   45.9650 S   0  0  0  0  0  0  0  0  0  0  0  0
   57.4160   30.5440   46.1950 O   0  0  0  0  0  0  0  0  0  0  0  0
   59.2140   30.2860   44.5500 O   0  0  0  0  0  0  0  0  0  0  0  0
   58.8380   28.2590   46.2320 C   0  0  0  0  0  0  0  0  0  0  0  0
   60.0580   27.5810   46.3710 C   0  0  0  0  0  0  0  0  0  0  0  0
   60.0750   26.1860   46.4690 C   0  0  0  0  0  0  0  0  0  0  0  0
   58.8790   25.4640   46.4210 C   0  0  0  0  0  0  0  0  0  0  0  0
   57.6550   26.1360   46.2910 C   0  0  0  0  0  0  0  0  0  0  0  0
   56.1460   25.2370   46.1840 S   0  0  0  0  0  0  0  0  0  0  0  0
   54.8300   26.3430   45.9950 N   0  0  0  0  0  0  0  0  0  0  0  0
   56.1880   24.2980   45.0100 O   0  0  0  0  0  0  0  0  0  0  0  0
   55.9490   24.4330   47.4390 O   0  0  0  0  0  0  0  0  0  0  0  0
   57.6400   27.5330   46.2000 C   0  0  0  0  0  0  0  0  0  0  0  0
   59.5200   32.4920   48.7990 C   0  0  0  0  0  0  0  0  0  0  0  0
   59.9410   33.6080   47.8670 C   0  0  0  0  0  0  0  0  0  0  0  0
   59.0620   33.6600   46.6430 C   0  0  0  0  0  0  0  0  0  0  0  0
   57.6650   33.5460   46.7660 C   0  0  0  0  0  0  0  0  0  0  0  0
   56.8490   33.6070   45.6330 C   0  0  0  0  0  0  0  0  0  0  0  0
   57.4180   33.7940   44.3700 C   0  0  0  0  0  0  0  0  0  0  0  0
   58.8030   33.9250   44.2390 C   0  0  0  0  0  0  0  0  0  0  0  0
   59.6220   33.8630   45.3700 C   0  0  0  0  0  0  0  0  0  0  0  0
   59.1890   32.8070   50.1260 C   0  0  0  0  0  0  0  0  0  0  0  0
   58.8240   31.8090   51.0380 C   0  0  0  0  0  0  0  0  0  0  0  0
   58.5470   32.1750   52.3990 N   0  0  0  0  0  0  0  0  0  0  0  0
   57.1920   32.0370   52.9440 C   0  0  0  0  0  0  0  0  0  0  0  0
   57.2190   31.3600   54.3310 C   0  0  0  0  0  0  0  0  0  0  0  0
   58.4940   31.5400   55.0570 N   0  0  0  0  0  0  0  0  0  0  0  0
   59.1740   32.7880   54.6980 C   0  0  0  0  0  0  0  0  0  0  0  0
   59.6230   32.7110   53.2380 C   0  0  0  0  0  0  0  0  0  0  0  0
   58.4862   29.7072   52.5934 H   0  0  0  0  0  0  0  0  0  0  0  0
   57.3152   29.0831   51.3827 H   0  0  0  0  0  0  0  0  0  0  0  0
   59.0100   28.4880   51.3827 H   0  0  0  0  0  0  0  0  0  0  0  0
   59.0649   29.0988   48.9600 H   0  0  0  0  0  0  0  0  0  0  0  0
   60.9150   30.7520   46.8180 H   0  0  0  0  0  0  0  0  0  0  0  0
   61.0011   28.1463   46.4029 H   0  0  0  0  0  0  0  0  0  0  0  0
   61.0318   25.6557   46.5841 H   0  0  0  0  0  0  0  0  0  0  0  0
   58.8980   24.3660   46.4854 H   0  0  0  0  0  0  0  0  0  0  0  0
   55.1540   27.0920   45.3430 H   0  0  0  0  0  0  0  0  0  0  0  0
   56.6816   28.0641   46.1028 H   0  0  0  0  0  0  0  0  0  0  0  0
   59.8691   34.5671   48.4009 H   0  0  0  0  0  0  0  0  0  0  0  0
   60.9754   33.4192   47.5440 H   0  0  0  0  0  0  0  0  0  0  0  0
   57.2127   33.4081   47.7592 H   0  0  0  0  0  0  0  0  0  0  0  0
   55.7583   33.5078   45.7352 H   0  0  0  0  0  0  0  0  0  0  0  0
   56.7750   33.8381   43.4786 H   0  0  0  0  0  0  0  0  0  0  0  0
   59.2491   34.0770   43.2451 H   0  0  0  0  0  0  0  0  0  0  0  0
   60.7112   33.9737   45.2631 H   0  0  0  0  0  0  0  0  0  0  0  0
   59.2168   33.8561   50.4554 H   0  0  0  0  0  0  0  0  0  0  0  0
   56.7396   33.0351   53.0398 H   0  0  0  0  0  0  0  0  0  0  0  0
   56.6016   31.4099   52.2598 H   0  0  0  0  0  0  0  0  0  0  0  0
   56.4091   31.7865   54.9411 H   0  0  0  0  0  0  0  0  0  0  0  0
   57.0951   30.2800   54.1633 H   0  0  0  0  0  0  0  0  0  0  0  0
   58.2880   31.5630   56.0840 H   0  0  0  0  0  0  0  0  0  0  0  0
   58.4831   33.6342   54.8268 H   0  0  0  0  0  0  0  0  0  0  0  0
   60.0495   32.9332   55.3479 H   0  0  0  0  0  0  0  0  0  0  0  0
   59.8881   33.7192   52.8869 H   0  0  0  0  0  0  0  0  0  0  0  0
   60.4952   32.0443   53.1681 H   0  0  0  0  0  0  0  0  0  0  0  0
  1  2  1  0
  2  3  2  0
  3  4  1  0
  4  5  1  0
  5  6  1  0
  6  7  2  0
  6  8  2  0
  6  9  1  0
  9 10  2  0
 10 11  1  0
 11 12  2  0
 12 13  1  0
 13 14  1  0
 14 15  1  0
 14 16  2  0
 14 17  2  0
 13 18  2  0
  4 19  2  0
 19 20  1  0
 20 21  1  0
 21 22  2  0
 22 23  1  0
 23 24  2  0
 24 25  1  0
 25 26  2  0
 19 27  1  0
 27 28  2  0
 28 29  1  0
 29 30  1  0
 30 31  1  0
 31 32  1  0
 32 33  1  0
 33 34  1  0
 28  2  1  0
 34 29  1  0
 18  9  1  0
 26 21  1  0
  1 35  1  0
  1 36  1  0
  1 37  1  0
  3 38  1  0
  5 39  1  0
 10 40  1  0
 11 41  1  0
 12 42  1  0
 15 43  1  0
 18 44  1  0
 20 45  1  0
 20 46  1  0
 22 47  1  0
 23 48  1  0
 24 49  1  0
 25 50  1  0
 26 51  1  0
 27 52  1  0
 30 53  1  0
 30 54  1  0
 31 55  1  0
 31 56  1  0
 32 57  1  0
 33 58  1  0
 33 59  1  0
 34 60  1  0
 34 61  1  0
M  CHG  1  15  -1
M  END
>  <UniqueID>  (85) 
78

>  <SMILES>  (85) 
Cc1cc(NS(=O)(=O)c2cccc(S([NH-])(=O)=O)c2)c(Cc2ccccc2)cc1N1CCNCC1

>  <Energy>  (85) 
74.18126198722942

>  <Genealogy>  (85) 
Cc1cc(NS(=O)(=O)c2cccc(S([NH-])(=O)=O)c2)c(Cc2ccccc2)cc1N1CCNCC1 (protonated)
Cc1cc(NS(=O)(=O)c2cccc(S([NH-])(=O)=O)c2)c(Cc2ccccc2)cc1N1CCNCC1 (3D coordinates assigned)
Cc1cc(NS(=O)(=O)c2cccc(S([NH-])(=O)=O)c2)c(Cc2ccccc2)cc1N1CCNCC1 (nonaromatic ring conformer: 74.18126198722942 kcal/mol)

>  <smiles>  (85) 
Cc1cc(NS(=O)(=O)c2cccc(S(N)(=O)=O)c2)c(Cc2ccccc2)cc1N1CCNCC1

>  <score_type>  (85) 
oracle

>  <origin>  (85) 
adg

>  <m_score__min__energy>  (85) 
-12.65

>  <m_primary>  (85) 
energy

$$$$
85:0
     RDKit          3D

 38 40  0  0  0  0  0  0  0  0999 V2000
   54.3470   26.7150   45.8260 H   0  0  0  0  0  0  0  0  0  0  0  0
   54.4120   25.7080   45.9110 O   0  0  0  0  0  0  0  0  0  0  0  0
   55.5100   25.0050   45.4160 C   0  0  0  0  0  0  0  0  0  0  0  0
   55.3680   24.1710   44.2970 C   0  0  0  0  0  0  0  0  0  0  0  0
   54.3854   24.0656   43.8138 H   0  0  0  0  0  0  0  0  0  0  0  0
   56.4700   23.4730   43.7930 C   0  0  0  0  0  0  0  0  0  0  0  0
   56.3530   22.8206   42.9151 H   0  0  0  0  0  0  0  0  0  0  0  0
   57.7190   23.6040   44.4040 C   0  0  0  0  0  0  0  0  0  0  0  0
   58.5862   23.0587   44.0033 H   0  0  0  0  0  0  0  0  0  0  0  0
   57.8690   24.4270   45.5240 C   0  0  0  0  0  0  0  0  0  0  0  0
   58.8545   24.5301   46.0017 H   0  0  0  0  0  0  0  0  0  0  0  0
   56.7640   25.1220   46.0400 C   0  0  0  0  0  0  0  0  0  0  0  0
   56.9370   26.0000   47.2120 C   0  0  0  0  0  0  0  0  0  0  0  0
   56.3910   25.7597   48.1362 H   0  0  0  0  0  0  0  0  0  0  0  0
   57.7080   27.0460   47.1980 N   0  0  0  0  0  0  0  0  0  0  0  0
   57.9560   27.8420   46.0320 C   0  0  0  0  0  0  0  0  0  0  0  0
   57.4680   29.0810   45.9780 C   0  0  0  0  0  0  0  0  0  0  0  0
   56.6040   29.2900   44.8080 C   0  0  0  0  0  0  0  0  0  0  0  0
   55.3950   29.6010   44.9700 O   0  0  0  0  0  0  0  0  0  0  0  0
   57.1750   29.1410   43.4130 C   0  0  0  0  0  0  0  0  0  0  0  0
   57.9631   29.8953   43.2716 H   0  0  0  0  0  0  0  0  0  0  0  0
   56.3512   29.2792   42.6973 H   0  0  0  0  0  0  0  0  0  0  0  0
   57.7790   27.7420   43.1700 C   0  0  0  0  0  0  0  0  0  0  0  0
   57.8937   27.6087   42.0841 H   0  0  0  0  0  0  0  0  0  0  0  0
   57.0819   27.0320   43.6389 H   0  0  0  0  0  0  0  0  0  0  0  0
   59.1600   27.4730   43.8310 C   0  0  0  0  0  0  0  0  0  0  0  0
   59.9083   28.0681   43.2871 H   0  0  0  0  0  0  0  0  0  0  0  0
   59.2951   26.3830   43.7698 H   0  0  0  0  0  0  0  0  0  0  0  0
   59.3050   27.8110   45.3500 C   0  0  2  0  0  0  0  0  0  0  0  0
   60.3090   26.8710   46.0420 C   0  0  0  0  0  0  0  0  0  0  0  0
   60.2078   26.9657   47.1332 H   0  0  0  0  0  0  0  0  0  0  0  0
   60.1044   25.8322   45.7436 H   0  0  0  0  0  0  0  0  0  0  0  0
   61.3321   27.1435   45.7436 H   0  0  0  0  0  0  0  0  0  0  0  0
   59.7210   29.2360   45.5260 C   0  0  0  0  0  0  0  0  0  0  0  0
   60.8220   29.6810   45.2380 O   0  0  0  0  0  0  0  0  0  0  0  0
   58.6110   30.0550   46.0610 C   0  0  0  0  0  0  0  0  0  0  0  0
   58.4295   30.9443   45.4396 H   0  0  0  0  0  0  0  0  0  0  0  0
   58.7903   30.4580   47.0687 H   0  0  0  0  0  0  0  0  0  0  0  0
  1  2  1  0
  2  3  1  0
  3  4  2  0
  4  5  1  0
  4  6  1  0
  6  7  1  0
  6  8  2  0
  8  9  1  0
  8 10  1  0
 10 11  1  0
 10 12  2  0
 12 13  1  0
 13 14  1  0
 13 15  2  0
 15 16  1  0
 16 17  2  0
 17 18  1  0
 18 19  2  0
 18 20  1  0
 20 21  1  0
 20 22  1  0
 20 23  1  0
 23 24  1  0
 23 25  1  0
 23 26  1  0
 26 27  1  0
 26 28  1  0
 26 29  1  0
 29 30  1  1
 30 31  1  0
 30 32  1  0
 30 33  1  0
 29 34  1  0
 34 35  2  0
 34 36  1  0
 36 37  1  0
 36 38  1  0
 12  3  1  0
 29 16  1  0
 36 17  1  0
M  END
>  <UniqueID>  (86) 
79

>  <SMILES>  (86) 
C[C@@]12CCCC(=O)C(=C1/N=C\c1ccccc1O)CC2=O

>  <Energy>  (86) 
109.72506001165964

>  <Genealogy>  (86) 
C[C@@]12CCCC(=O)C(=C1N=Cc1ccccc1O)CC2=O (chirality)
C[C@@]12CCCC(=O)C(=C1/N=C\c1ccccc1O)CC2=O (cis-trans isomerization)
C[C@@]12CCCC(=O)C(=C1/N=C\c1ccccc1O)CC2=O (3D coordinates assigned)
C[C@@]12CCCC(=O)C(=C1/N=C\c1ccccc1O)CC2=O (nonaromatic ring conformer: 109.72506001165964 kcal/mol)

>  <smiles>  (86) 
CC12CCCC(=O)C(=C1N=Cc1ccccc1O)CC2=O

>  <score_type>  (86) 
oracle

>  <origin>  (86) 
adg

>  <m_score__min__energy>  (86) 
-7.0599999999999996

>  <m_primary>  (86) 
energy

$$$$
86:0
     RDKit          3D

 32 34  0  0  0  0  0  0  0  0999 V2000
   60.6300   30.2040   45.9840 O   0  0  0  0  0  0  0  0  0  0  0  0
   59.5930   29.5210   45.7720 C   0  0  0  0  0  0  0  0  0  0  0  0
   59.2300   28.2820   46.4490 C   0  0  0  0  0  0  0  0  0  0  0  0
   59.9040   27.5810   47.4440 C   0  0  0  0  0  0  0  0  0  0  0  0
   59.3590   26.3620   47.8780 C   0  0  0  0  0  0  0  0  0  0  0  0
   58.1640   25.8720   47.3160 C   0  0  0  0  0  0  0  0  0  0  0  0
   57.4840   26.5960   46.3100 C   0  0  0  0  0  0  0  0  0  0  0  0
   56.2460   26.1050   45.7720 N   0  0  0  0  0  0  0  0  0  0  0  0
   55.1790   26.7160   45.9970 O   0  0  0  0  0  0  0  0  0  0  0  0
   56.2450   25.0890   44.8460 O   0  0  0  0  0  0  0  0  0  0  0  0
   58.0550   27.8080   45.8850 C   0  0  0  0  0  0  0  0  0  0  0  0
   57.6920   28.7460   44.8130 C   0  0  0  0  0  0  0  0  0  0  0  0
   56.7720   28.5930   43.9680 O   0  0  0  0  0  0  0  0  0  0  0  0
   58.6180   29.8300   44.7840 N   0  0  0  0  0  0  0  0  0  0  0  0
   58.7910   30.6900   43.7490 O   0  0  0  0  0  0  0  0  0  0  0  0
   57.6850   31.9390   44.0050 S   0  0  0  0  0  0  0  0  0  0  0  0
   57.4320   32.6790   42.7210 O   0  0  0  0  0  0  0  0  0  0  0  0
   56.3830   31.3800   44.5120 O   0  0  0  0  0  0  0  0  0  0  0  0
   58.3490   33.0480   45.1990 C   0  0  0  0  0  0  0  0  0  0  0  0
   58.1300   32.8270   46.5660 C   0  0  0  0  0  0  0  0  0  0  0  0
   58.6470   33.7160   47.5130 C   0  0  0  0  0  0  0  0  0  0  0  0
   59.3790   34.8320   47.0990 C   0  0  0  0  0  0  0  0  0  0  0  0
   59.5940   35.0620   45.7370 C   0  0  0  0  0  0  0  0  0  0  0  0
   59.0780   34.1740   44.7880 C   0  0  0  0  0  0  0  0  0  0  0  0
   60.8367   27.9705   47.8780 H   0  0  0  0  0  0  0  0  0  0  0  0
   59.8694   25.7850   48.6632 H   0  0  0  0  0  0  0  0  0  0  0  0
   57.7541   24.9126   47.6647 H   0  0  0  0  0  0  0  0  0  0  0  0
   57.5499   31.9519   46.8943 H   0  0  0  0  0  0  0  0  0  0  0  0
   58.4774   33.5368   48.5850 H   0  0  0  0  0  0  0  0  0  0  0  0
   59.7863   35.5300   47.8453 H   0  0  0  0  0  0  0  0  0  0  0  0
   60.1691   35.9415   45.4118 H   0  0  0  0  0  0  0  0  0  0  0  0
   59.2441   34.3588   43.7164 H   0  0  0  0  0  0  0  0  0  0  0  0
  1  2  2  0
  2  3  1  0
  3  4  2  0
  4  5  1  0
  5  6  2  0
  6  7  1  0
  7  8  1  0
  8  9  2  0
  8 10  1  0
  7 11  2  0
 11 12  1  0
 12 13  2  0
 12 14  1  0
 14 15  1  0
 15 16  1  0
 16 17  2  0
 16 18  2  0
 16 19  1  0
 19 20  2  0
 20 21  1  0
 21 22  2  0
 22 23  1  0
 23 24  2  0
 14  2  1  0
 24 19  1  0
 11  3  1  0
  4 25  1  0
  5 26  1  0
  6 27  1  0
 20 28  1  0
 21 29  1  0
 22 30  1  0
 23 31  1  0
 24 32  1  0
M  CHG  2   8   1  10  -1
M  END
>  <UniqueID>  (87) 
80

>  <SMILES>  (87) 
O=C1c2cccc([N+](=O)[O-])c2C(=O)N1OS(=O)(=O)c1ccccc1

>  <Energy>  (87) 
73.0602328711634

>  <Genealogy>  (87) 
O=C1c2cccc([N+](=O)[O-])c2C(=O)N1OS(=O)(=O)c1ccccc1 (3D coordinates assigned)
O=C1c2cccc([N+](=O)[O-])c2C(=O)N1OS(=O)(=O)c1ccccc1 (nonaromatic ring conformer: 73.0602328711634 kcal/mol)

>  <smiles>  (87) 
O=C1c2cccc([N+](=O)[O-])c2C(=O)N1OS(=O)(=O)c1ccccc1

>  <score_type>  (87) 
oracle

>  <origin>  (87) 
adg

>  <m_score__min__energy>  (87) 
-8.7799999999999994

>  <m_primary>  (87) 
energy

$$$$
87:0
     RDKit          3D

 53 56  0  0  0  0  0  0  0  0999 V2000
   66.0110   32.7240   49.9100 C   0  0  0  0  0  0  0  0  0  0  0  0
   64.8330   32.8150   49.0580 N   0  0  0  0  0  0  0  0  0  0  0  0
   63.6240   33.4450   49.5120 C   0  0  0  0  0  0  0  0  0  0  0  0
   63.5270   33.8050   50.7180 O   0  0  0  0  0  0  0  0  0  0  0  0
   62.4800   33.6640   48.5940 C   0  0  0  0  0  0  0  0  0  0  0  0
   62.5750   33.2690   47.2480 C   0  0  0  0  0  0  0  0  0  0  0  0
   61.5020   33.4640   46.3730 C   0  0  0  0  0  0  0  0  0  0  0  0
   60.3110   34.0440   46.8320 C   0  0  0  0  0  0  0  0  0  0  0  0
   59.1450   34.2390   45.9000 C   0  0  0  0  0  0  0  0  0  0  0  0
   58.4820   32.9580   45.6250 N   0  0  0  0  0  0  0  0  0  0  0  0
   58.0990   32.0020   46.5190 C   0  0  0  0  0  0  0  0  0  0  0  0
   58.2770   32.1070   48.0030 C   0  0  0  0  0  0  0  0  0  0  0  0
   58.5330   30.8170   48.5480 O   0  0  0  0  0  0  0  0  0  0  0  0
   59.5210   30.5370   49.5030 C   0  0  0  0  0  0  0  0  0  0  0  0
   60.8950   30.6270   49.2050 C   0  0  0  0  0  0  0  0  0  0  0  0
   61.8480   30.3330   50.1840 C   0  0  0  0  0  0  0  0  0  0  0  0
   61.4430   29.9480   51.4620 C   0  0  0  0  0  0  0  0  0  0  0  0
   60.0840   29.8560   51.7680 C   0  0  0  0  0  0  0  0  0  0  0  0
   59.1130   30.1510   50.7900 C   0  0  0  0  0  0  0  0  0  0  0  0
   57.7370   30.0670   51.0550 O   0  0  0  0  0  0  0  0  0  0  0  0
   56.9980   31.0360   51.7930 C   0  0  0  0  0  0  0  0  0  0  0  0
   57.4690   30.9450   45.9420 N   0  0  0  0  0  0  0  0  0  0  0  0
   57.4670   31.2680   44.6370 C   0  0  0  0  0  0  0  0  0  0  0  0
   56.9270   30.5310   43.5850 C   0  0  0  0  0  0  0  0  0  0  0  0
   57.0170   31.0730   42.2910 C   0  0  0  0  0  0  0  0  0  0  0  0
   57.6320   32.3280   42.0820 C   0  0  0  0  0  0  0  0  0  0  0  0
   58.1660   33.0500   43.1660 C   0  0  0  0  0  0  0  0  0  0  0  0
   58.0670   32.4780   44.4390 C   0  0  0  0  0  0  0  0  0  0  0  0
   60.2090   34.4330   48.1750 C   0  0  0  0  0  0  0  0  0  0  0  0
   61.2820   34.2420   49.0500 C   0  0  0  0  0  0  0  0  0  0  0  0
   65.7027   32.7478   50.9657 H   0  0  0  0  0  0  0  0  0  0  0  0
   66.5407   31.7823   49.7039 H   0  0  0  0  0  0  0  0  0  0  0  0
   66.6791   33.5732   49.7039 H   0  0  0  0  0  0  0  0  0  0  0  0
   64.8680   32.3640   48.1170 H   0  0  0  0  0  0  0  0  0  0  0  0
   63.5010   32.8028   46.8803 H   0  0  0  0  0  0  0  0  0  0  0  0
   61.5927   33.1609   45.3195 H   0  0  0  0  0  0  0  0  0  0  0  0
   58.4230   34.9273   46.3637 H   0  0  0  0  0  0  0  0  0  0  0  0
   59.5152   34.6568   44.9522 H   0  0  0  0  0  0  0  0  0  0  0  0
   59.1251   32.7719   48.2234 H   0  0  0  0  0  0  0  0  0  0  0  0
   57.3601   32.5167   48.4518 H   0  0  0  0  0  0  0  0  0  0  0  0
   61.2188   30.9297   48.1983 H   0  0  0  0  0  0  0  0  0  0  0  0
   62.9196   30.4054   49.9462 H   0  0  0  0  0  0  0  0  0  0  0  0
   62.1957   29.7165   52.2300 H   0  0  0  0  0  0  0  0  0  0  0  0
   59.7695   29.5518   52.7773 H   0  0  0  0  0  0  0  0  0  0  0  0
   57.1336   30.8582   52.8700 H   0  0  0  0  0  0  0  0  0  0  0  0
   57.3591   32.0436   51.5394 H   0  0  0  0  0  0  0  0  0  0  0  0
   55.9308   30.9543   51.5394 H   0  0  0  0  0  0  0  0  0  0  0  0
   56.4462   29.5574   43.7612 H   0  0  0  0  0  0  0  0  0  0  0  0
   56.6061   30.5166   41.4357 H   0  0  0  0  0  0  0  0  0  0  0  0
   57.6939   32.7435   41.0654 H   0  0  0  0  0  0  0  0  0  0  0  0
   58.6443   34.0294   43.0175 H   0  0  0  0  0  0  0  0  0  0  0  0
   59.2789   34.8913   48.5423 H   0  0  0  0  0  0  0  0  0  0  0  0
   61.1886   34.5460   50.1030 H   0  0  0  0  0  0  0  0  0  0  0  0
  1  2  1  0
  2  3  1  0
  3  4  2  0
  3  5  1  0
  5  6  2  0
  6  7  1  0
  7  8  2  0
  8  9  1  0
  9 10  1  0
 10 11  1  0
 11 12  1  0
 12 13  1  0
 13 14  1  0
 14 15  2  0
 15 16  1  0
 16 17  2  0
 17 18  1  0
 18 19  2  0
 19 20  1  0
 20 21  1  0
 11 22  2  0
 22 23  1  0
 23 24  2  0
 24 25  1  0
 25 26  2  0
 26 27  1  0
 27 28  2  0
  8 29  1  0
 29 30  2  0
 30  5  1  0
 28 10  1  0
 19 14  1  0
 28 23  1  0
  1 31  1  0
  1 32  1  0
  1 33  1  0
  2 34  1  0
  6 35  1  0
  7 36  1  0
  9 37  1  0
  9 38  1  0
 12 39  1  0
 12 40  1  0
 15 41  1  0
 16 42  1  0
 17 43  1  0
 18 44  1  0
 21 45  1  0
 21 46  1  0
 21 47  1  0
 24 48  1  0
 25 49  1  0
 26 50  1  0
 27 51  1  0
 29 52  1  0
 30 53  1  0
M  END
>  <UniqueID>  (88) 
81

>  <SMILES>  (88) 
CNC(=O)c1ccc(Cn2c(COc3ccccc3OC)nc3ccccc32)cc1

>  <Energy>  (88) 
90.4007448815064

>  <Genealogy>  (88) 
CNC(=O)c1ccc(Cn2c(COc3ccccc3OC)nc3ccccc32)cc1 (3D coordinates assigned)
CNC(=O)c1ccc(Cn2c(COc3ccccc3OC)nc3ccccc32)cc1 (optimized conformer: 90.4007448815064 kcal/mol)

>  <smiles>  (88) 
CNC(=O)c1ccc(Cn2c(COc3ccccc3OC)nc3ccccc32)cc1

>  <score_type>  (88) 
oracle

>  <origin>  (88) 
adg

>  <m_score__min__energy>  (88) 
-8.4600000000000009

>  <m_primary>  (88) 
energy

$$$$
88:0
     RDKit          3D

 43 45  0  0  0  0  0  0  0  0999 V2000
   55.1480   28.9740   44.5190 N   0  0  0  0  0  0  0  0  0  0  0  0
   56.5200   29.9660   44.1620 S   0  0  0  0  0  0  0  0  0  0  0  0
   56.8330   29.8890   42.6950 O   0  0  0  0  0  0  0  0  0  0  0  0
   56.1950   31.3890   44.5200 O   0  0  0  0  0  0  0  0  0  0  0  0
   57.9090   29.4040   45.0850 C   0  0  0  0  0  0  0  0  0  0  0  0
   59.0740   28.9620   44.4410 C   0  0  0  0  0  0  0  0  0  0  0  0
   60.1640   28.5160   45.1920 C   0  0  0  0  0  0  0  0  0  0  0  0
   60.1040   28.5220   46.5880 C   0  0  0  0  0  0  0  0  0  0  0  0
   58.9580   28.9840   47.2440 C   0  0  0  0  0  0  0  0  0  0  0  0
   58.9270   28.9890   48.6790 N   0  0  0  0  0  0  0  0  0  0  0  0
   59.8930   29.6230   49.5300 C   0  0  0  0  0  0  0  0  0  0  0  0
   60.9930   29.0460   49.7340 O   0  0  0  0  0  0  0  0  0  0  0  0
   59.6480   30.9600   50.1220 C   0  0  0  0  0  0  0  0  0  0  0  0
   58.5010   31.1700   50.9080 C   0  0  0  0  0  0  0  0  0  0  0  0
   58.2610   32.4150   51.4910 C   0  0  0  0  0  0  0  0  0  0  0  0
   59.1560   33.4640   51.2910 C   0  0  0  0  0  0  0  0  0  0  0  0
   60.2970   33.2730   50.5100 C   0  0  0  0  0  0  0  0  0  0  0  0
   60.5610   32.0180   49.9240 C   0  0  0  0  0  0  0  0  0  0  0  0
   61.7200   31.7790   49.1660 O   0  0  0  0  0  0  0  0  0  0  0  0
   61.8920   32.1250   47.4990 S   0  0  0  0  0  0  0  0  0  0  0  0
   63.0820   33.0180   47.3010 O   0  0  0  0  0  0  0  0  0  0  0  0
   62.1100   30.8380   46.7510 O   0  0  0  0  0  0  0  0  0  0  0  0
   60.4510   32.9410   46.8990 C   0  0  0  0  0  0  0  0  0  0  0  0
   59.2090   32.2920   46.9390 C   0  0  0  0  0  0  0  0  0  0  0  0
   58.0660   32.9350   46.4520 C   0  0  0  0  0  0  0  0  0  0  0  0
   58.1590   34.2270   45.9280 C   0  0  0  0  0  0  0  0  0  0  0  0
   59.3940   34.8790   45.8920 C   0  0  0  0  0  0  0  0  0  0  0  0
   60.5400   34.2390   46.3770 C   0  0  0  0  0  0  0  0  0  0  0  0
   57.8490   29.3960   46.4840 C   0  0  0  0  0  0  0  0  0  0  0  0
   54.7010   29.3600   45.3810 H   0  0  0  0  0  0  0  0  0  0  0  0
   59.1294   28.9666   43.3424 H   0  0  0  0  0  0  0  0  0  0  0  0
   61.0717   28.1592   44.6833 H   0  0  0  0  0  0  0  0  0  0  0  0
   60.9622   28.1616   47.1741 H   0  0  0  0  0  0  0  0  0  0  0  0
   57.7879   30.3471   51.0644 H   0  0  0  0  0  0  0  0  0  0  0  0
   57.3642   32.5684   52.1092 H   0  0  0  0  0  0  0  0  0  0  0  0
   58.9629   34.4450   51.7497 H   0  0  0  0  0  0  0  0  0  0  0  0
   60.9954   34.1077   50.3505 H   0  0  0  0  0  0  0  0  0  0  0  0
   59.1331   31.2760   47.3538 H   0  0  0  0  0  0  0  0  0  0  0  0
   57.0929   32.4229   46.4816 H   0  0  0  0  0  0  0  0  0  0  0  0
   57.2597   34.7307   45.5438 H   0  0  0  0  0  0  0  0  0  0  0  0
   59.4657   35.8971   45.4817 H   0  0  0  0  0  0  0  0  0  0  0  0
   61.5112   34.7547   46.3486 H   0  0  0  0  0  0  0  0  0  0  0  0
   56.9270   29.7145   46.9925 H   0  0  0  0  0  0  0  0  0  0  0  0
  1  2  1  0
  2  3  2  0
  2  4  2  0
  2  5  1  0
  5  6  2  0
  6  7  1  0
  7  8  2  0
  8  9  1  0
  9 10  1  0
 10 11  1  0
 11 12  2  0
 11 13  1  0
 13 14  2  0
 14 15  1  0
 15 16  2  0
 16 17  1  0
 17 18  2  0
 18 19  1  0
 19 20  1  0
 20 21  2  0
 20 22  2  0
 20 23  1  0
 23 24  2  0
 24 25  1  0
 25 26  2  0
 26 27  1  0
 27 28  2  0
  9 29  2  0
 29  5  1  0
 18 13  1  0
 28 23  1  0
  1 30  1  0
  6 31  1  0
  7 32  1  0
  8 33  1  0
 14 34  1  0
 15 35  1  0
 16 36  1  0
 17 37  1  0
 24 38  1  0
 25 39  1  0
 26 40  1  0
 27 41  1  0
 28 42  1  0
 29 43  1  0
M  CHG  2   1  -1  10  -1
M  END
>  <UniqueID>  (89) 
82

>  <SMILES>  (89) 
[NH-]S(=O)(=O)c1cccc([N-]C(=O)c2ccccc2OS(=O)(=O)c2ccccc2)c1

>  <Energy>  (89) 
50.45946767075878

>  <Genealogy>  (89) 
[NH-]S(=O)(=O)c1cccc([N-]C(=O)c2ccccc2OS(=O)(=O)c2ccccc2)c1 (protonated)
[NH-]S(=O)(=O)c1cccc([N-]C(=O)c2ccccc2OS(=O)(=O)c2ccccc2)c1 (3D coordinates assigned)
[NH-]S(=O)(=O)c1cccc([N-]C(=O)c2ccccc2OS(=O)(=O)c2ccccc2)c1 (optimized conformer: 50.45946767075878 kcal/mol)

>  <smiles>  (89) 
NS(=O)(=O)c1cccc(NC(=O)c2ccccc2OS(=O)(=O)c2ccccc2)c1

>  <score_type>  (89) 
oracle

>  <origin>  (89) 
adg

>  <m_score__min__energy>  (89) 
-13.869999999999999

>  <m_primary>  (89) 
energy

$$$$
89:0
     RDKit          3D

 52 55  0  0  0  0  0  0  0  0999 V2000
   65.0780   33.3890   50.7660 C   0  0  0  0  0  0  0  0  0  0  0  0
   63.8510   32.5890   50.4400 C   0  0  0  0  0  0  0  0  0  0  0  0
   62.9270   33.0770   49.5100 C   0  0  0  0  0  0  0  0  0  0  0  0
   61.8080   32.3140   49.1670 C   0  0  0  0  0  0  0  0  0  0  0  0
   60.8780   32.8280   48.2050 N   0  0  0  0  0  0  0  0  0  0  0  0
   59.5900   33.3570   48.6570 C   0  0  0  0  0  0  0  0  0  0  0  0
   58.5380   33.1710   47.5600 C   0  0  0  0  0  0  0  0  0  0  0  0
   58.9450   33.8060   46.2860 N   0  0  0  0  0  0  0  0  0  0  0  0
   57.9940   33.1550   44.9720 S   0  0  0  0  0  0  0  0  0  0  0  0
   56.6270   33.7800   44.9860 O   0  0  0  0  0  0  0  0  0  0  0  0
   58.6520   33.4700   43.6560 O   0  0  0  0  0  0  0  0  0  0  0  0
   57.8240   31.4100   45.1520 C   0  0  0  0  0  0  0  0  0  0  0  0
   56.7810   30.7380   44.5030 C   0  0  0  0  0  0  0  0  0  0  0  0
   56.6190   29.3610   44.6740 C   0  0  0  0  0  0  0  0  0  0  0  0
   57.4970   28.6450   45.5000 C   0  0  0  0  0  0  0  0  0  0  0  0
   57.3120   26.9100   45.7240 S   0  0  0  0  0  0  0  0  0  0  0  0
   55.6470   26.5430   46.0050 N   0  0  0  0  0  0  0  0  0  0  0  0
   58.1270   26.4430   46.8980 O   0  0  0  0  0  0  0  0  0  0  0  0
   57.7820   26.1940   44.4890 O   0  0  0  0  0  0  0  0  0  0  0  0
   58.5410   29.3170   46.1470 C   0  0  0  0  0  0  0  0  0  0  0  0
   58.7050   30.6940   45.9750 C   0  0  0  0  0  0  0  0  0  0  0  0
   60.3960   33.7280   45.9790 C   0  0  0  0  0  0  0  0  0  0  0  0
   61.1320   32.6430   46.7770 C   0  0  0  0  0  0  0  0  0  0  0  0
   61.6190   31.0530   49.7650 C   0  0  0  0  0  0  0  0  0  0  0  0
   60.4990   30.2530   49.4720 C   0  0  0  0  0  0  0  0  0  0  0  0
   60.3460   29.0050   50.0800 C   0  0  0  0  0  0  0  0  0  0  0  0
   61.3080   28.5400   50.9790 C   0  0  0  0  0  0  0  0  0  0  0  0
   62.4240   29.3230   51.2820 C   0  0  0  0  0  0  0  0  0  0  0  0
   62.5870   30.5830   50.6870 C   0  0  0  0  0  0  0  0  0  0  0  0
   63.6730   31.3540   50.9900 N   0  0  0  0  0  0  0  0  0  0  0  0
   65.1891   33.4614   51.8580 H   0  0  0  0  0  0  0  0  0  0  0  0
   65.9627   32.8936   50.3395 H   0  0  0  0  0  0  0  0  0  0  0  0
   64.9817   34.3984   50.3395 H   0  0  0  0  0  0  0  0  0  0  0  0
   63.0817   34.0632   49.0479 H   0  0  0  0  0  0  0  0  0  0  0  0
   59.2721   32.8194   49.5625 H   0  0  0  0  0  0  0  0  0  0  0  0
   59.6961   34.4289   48.8799 H   0  0  0  0  0  0  0  0  0  0  0  0
   58.3904   32.0945   47.3887 H   0  0  0  0  0  0  0  0  0  0  0  0
   57.6080   33.6522   47.8969 H   0  0  0  0  0  0  0  0  0  0  0  0
   56.0873   31.2958   43.8568 H   0  0  0  0  0  0  0  0  0  0  0  0
   55.8003   28.8370   44.1591 H   0  0  0  0  0  0  0  0  0  0  0  0
   55.1350   27.4530   46.0280 H   0  0  0  0  0  0  0  0  0  0  0  0
   59.2347   28.7590   46.7931 H   0  0  0  0  0  0  0  0  0  0  0  0
   59.5266   31.2172   46.4861 H   0  0  0  0  0  0  0  0  0  0  0  0
   60.5142   33.5124   44.9068 H   0  0  0  0  0  0  0  0  0  0  0  0
   60.8393   34.6944   46.2609 H   0  0  0  0  0  0  0  0  0  0  0  0
   60.7709   31.6515   46.4663 H   0  0  0  0  0  0  0  0  0  0  0  0
   62.2126   32.7178   46.5852 H   0  0  0  0  0  0  0  0  0  0  0  0
   59.7406   30.6122   48.7609 H   0  0  0  0  0  0  0  0  0  0  0  0
   59.4656   28.3869   49.8501 H   0  0  0  0  0  0  0  0  0  0  0  0
   61.1864   27.5535   51.4502 H   0  0  0  0  0  0  0  0  0  0  0  0
   63.1785   28.9502   51.9903 H   0  0  0  0  0  0  0  0  0  0  0  0
   64.3870   30.9910   51.6650 H   0  0  0  0  0  0  0  0  0  0  0  0
  1  2  1  0
  2  3  2  0
  3  4  1  0
  4  5  1  0
  5  6  1  0
  6  7  1  0
  7  8  1  0
  8  9  1  0
  9 10  2  0
  9 11  2  0
  9 12  1  0
 12 13  2  0
 13 14  1  0
 14 15  2  0
 15 16  1  0
 16 17  1  0
 16 18  2  0
 16 19  2  0
 15 20  1  0
 20 21  2  0
  8 22  1  0
 22 23  1  0
  4 24  2  0
 24 25  1  0
 25 26  2  0
 26 27  1  0
 27 28  2  0
 28 29  1  0
 29 30  2  0
 30  2  1  0
 23  5  1  0
 29 24  1  0
 21 12  1  0
  1 31  1  0
  1 32  1  0
  1 33  1  0
  3 34  1  0
  6 35  1  0
  6 36  1  0
  7 37  1  0
  7 38  1  0
 13 39  1  0
 14 40  1  0
 17 41  1  0
 20 42  1  0
 21 43  1  0
 22 44  1  0
 22 45  1  0
 23 46  1  0
 23 47  1  0
 25 48  1  0
 26 49  1  0
 27 50  1  0
 28 51  1  0
 30 52  1  0
M  CHG  2  17  -1  30   1
M  END
>  <UniqueID>  (90) 
83

>  <SMILES>  (90) 
Cc1cc(N2CCN(S(=O)(=O)c3ccc(S([NH-])(=O)=O)cc3)CC2)c2ccccc2[nH+]1

>  <Energy>  (90) 
69.01649117175022

>  <Genealogy>  (90) 
Cc1cc(N2CCN(S(=O)(=O)c3ccc(S([NH-])(=O)=O)cc3)CC2)c2ccccc2[nH+]1 (protonated)
Cc1cc(N2CCN(S(=O)(=O)c3ccc(S([NH-])(=O)=O)cc3)CC2)c2ccccc2[nH+]1 (3D coordinates assigned)
Cc1cc(N2CCN(S(=O)(=O)c3ccc(S([NH-])(=O)=O)cc3)CC2)c2ccccc2[nH+]1 (nonaromatic ring conformer: 69.01649117175022 kcal/mol)

>  <smiles>  (90) 
Cc1cc(N2CCN(S(=O)(=O)c3ccc(S(N)(=O)=O)cc3)CC2)c2ccccc2n1

>  <score_type>  (90) 
oracle

>  <origin>  (90) 
adg

>  <m_score__min__energy>  (90) 
-11.16

>  <m_primary>  (90) 
energy

$$$$
90:0
     RDKit          3D

 45 47  0  0  0  0  0  0  0  0999 V2000
   64.0490   33.4820   47.5610 C   0  0  0  0  0  0  0  0  0  0  0  0
   62.7180   32.9260   47.9790 C   0  0  0  0  0  0  0  0  0  0  0  0
   61.9430   33.6130   48.9240 C   0  0  0  0  0  0  0  0  0  0  0  0
   60.6840   33.1220   49.3050 C   0  0  0  0  0  0  0  0  0  0  0  0
   59.8400   33.8890   50.2790 C   0  0  0  0  0  0  0  0  0  0  0  0
   60.1930   31.9490   48.7150 C   0  0  0  0  0  0  0  0  0  0  0  0
   60.9630   31.2460   47.7810 C   0  0  0  0  0  0  0  0  0  0  0  0
   60.4320   30.0720   47.2260 O   0  0  0  0  0  0  0  0  0  0  0  0
   59.4010   30.0160   46.2760 C   0  0  0  0  0  0  0  0  0  0  0  0
   58.5160   31.0970   46.1980 C   0  0  0  0  0  0  0  0  0  0  0  0
   57.4830   31.1040   45.2600 C   0  0  0  0  0  0  0  0  0  0  0  0
   57.3060   30.0190   44.3850 C   0  0  0  0  0  0  0  0  0  0  0  0
   56.2340   30.0240   43.4250 N   0  0  0  0  0  0  0  0  0  0  0  0
   55.0770   29.6930   43.7600 O   0  0  0  0  0  0  0  0  0  0  0  0
   56.4610   30.4150   42.1230 O   0  0  0  0  0  0  0  0  0  0  0  0
   58.1820   28.9240   44.4760 C   0  0  0  0  0  0  0  0  0  0  0  0
   59.2110   28.9030   45.4280 C   0  0  0  0  0  0  0  0  0  0  0  0
   60.0210   27.7260   45.5490 N   0  0  0  0  0  0  0  0  0  0  0  0
   59.6550   26.6320   46.4500 C   0  0  1  0  0  0  0  0  0  0  0  0
   59.7880   27.0420   47.7850 O   0  0  0  0  0  0  0  0  0  0  0  0
   58.2420   26.1990   46.1680 C   0  0  0  0  0  0  0  0  0  0  0  0
   57.8850   25.0860   45.4230 C   0  0  0  0  0  0  0  0  0  0  0  0
   56.5120   25.1330   45.2850 C   0  0  0  0  0  0  0  0  0  0  0  0
   56.1060   26.2750   45.9440 C   0  0  0  0  0  0  0  0  0  0  0  0
   54.7940   26.7140   46.0470 O   0  0  0  0  0  0  0  0  0  0  0  0
   57.1510   26.9300   46.4750 N   0  0  0  0  0  0  0  0  0  0  0  0
   62.2190   31.7490   47.3990 C   0  0  0  0  0  0  0  0  0  0  0  0
   64.6403   33.7290   48.4551 H   0  0  0  0  0  0  0  0  0  0  0  0
   64.5870   32.7334   46.9609 H   0  0  0  0  0  0  0  0  0  0  0  0
   63.8946   34.3909   46.9609 H   0  0  0  0  0  0  0  0  0  0  0  0
   62.3241   34.5434   49.3702 H   0  0  0  0  0  0  0  0  0  0  0  0
   60.1321   33.6235   51.3057 H   0  0  0  0  0  0  0  0  0  0  0  0
   59.9885   34.9677   50.1228 H   0  0  0  0  0  0  0  0  0  0  0  0
   58.7804   33.6383   50.1228 H   0  0  0  0  0  0  0  0  0  0  0  0
   59.1942   31.5779   48.9883 H   0  0  0  0  0  0  0  0  0  0  0  0
   58.6358   31.9495   46.8827 H   0  0  0  0  0  0  0  0  0  0  0  0
   56.8017   31.9659   45.2051 H   0  0  0  0  0  0  0  0  0  0  0  0
   58.0587   28.0720   43.7912 H   0  0  0  0  0  0  0  0  0  0  0  0
   60.6520   27.4940   44.7470 H   0  0  0  0  0  0  0  0  0  0  0  0
   60.3291   25.7792   46.2814 H   0  0  0  0  0  0  0  0  0  0  0  0
   60.0090   28.0090   47.7670 H   0  0  0  0  0  0  0  0  0  0  0  0
   58.5616   24.3174   45.0212 H   0  0  0  0  0  0  0  0  0  0  0  0
   55.8733   24.4089   44.7580 H   0  0  0  0  0  0  0  0  0  0  0  0
   57.1230   27.8360   46.9980 H   0  0  0  0  0  0  0  0  0  0  0  0
   62.8139   31.2175   46.6416 H   0  0  0  0  0  0  0  0  0  0  0  0
  1  2  1  0
  2  3  2  0
  3  4  1  0
  4  5  1  0
  4  6  2  0
  6  7  1  0
  7  8  1  0
  8  9  1  0
  9 10  2  0
 10 11  1  0
 11 12  2  0
 12 13  1  0
 13 14  2  0
 13 15  1  0
 12 16  1  0
 16 17  2  0
 17 18  1  0
 18 19  1  0
 19 20  1  0
 19 21  1  0
 21 22  2  0
 22 23  1  0
 23 24  2  0
 24 25  1  0
 24 26  1  0
  7 27  2  0
 27  2  1  0
 17  9  1  0
 26 21  1  0
  1 28  1  0
  1 29  1  0
  1 30  1  0
  3 31  1  0
  5 32  1  0
  5 33  1  0
  5 34  1  0
  6 35  1  0
 10 36  1  0
 11 37  1  0
 16 38  1  0
 18 39  1  0
 19 40  1  1
 20 41  1  0
 22 42  1  0
 23 43  1  0
 26 44  1  0
 27 45  1  0
M  CHG  3  13   1  15  -1  25  -1
M  END
>  <UniqueID>  (91) 
84

>  <SMILES>  (91) 
Cc1cc(C)cc(Oc2ccc([N+](=O)[O-])cc2N[C@@H](O)c2ccc([O-])[nH]2)c1

>  <Energy>  (91) 
83.73503449142605

>  <Genealogy>  (91) 
Cc1cc(C)cc(Oc2ccc([N+](=O)[O-])cc2NC(O)c2ccc([O-])[nH]2)c1 (protonated)
Cc1cc(C)cc(Oc2ccc([N+](=O)[O-])cc2N[C@@H](O)c2ccc([O-])[nH]2)c1 (chirality)
Cc1cc(C)cc(Oc2ccc([N+](=O)[O-])cc2N[C@@H](O)c2ccc([O-])[nH]2)c1 (3D coordinates assigned)
Cc1cc(C)cc(Oc2ccc([N+](=O)[O-])cc2N[C@@H](O)c2ccc([O-])[nH]2)c1 (optimized conformer: 83.73503449142605 kcal/mol)

>  <smiles>  (91) 
Cc1cc(C)cc(Oc2ccc([N+](=O)[O-])cc2NC(O)c2ccc(O)[nH]2)c1

>  <score_type>  (91) 
oracle

>  <origin>  (91) 
adg

>  <m_score__min__energy>  (91) 
-11.44

>  <m_primary>  (91) 
energy

$$$$
91:0
     RDKit          3D

 40 43  0  0  0  0  0  0  0  0999 V2000
   56.9390   30.6200   43.6260 C   0  0  0  0  0  0  0  0  0  0  0  0
   56.8840   31.2370   44.9100 O   0  0  0  0  0  0  0  0  0  0  0  0
   57.6290   32.3650   45.2860 C   0  0  0  0  0  0  0  0  0  0  0  0
   57.7460   33.4980   44.4590 C   0  0  0  0  0  0  0  0  0  0  0  0
   58.5140   34.5940   44.8720 C   0  0  0  0  0  0  0  0  0  0  0  0
   59.1770   34.5680   46.1020 C   0  0  0  0  0  0  0  0  0  0  0  0
   59.0670   33.4480   46.9270 C   0  0  0  0  0  0  0  0  0  0  0  0
   58.2930   32.3480   46.5240 C   0  0  0  0  0  0  0  0  0  0  0  0
   58.1530   31.2100   47.3790 N   0  0  0  0  0  0  0  0  0  0  0  0
   59.3470   29.9570   47.4270 S   0  0  0  0  0  0  0  0  0  0  0  0
   59.3730   29.3470   48.8010 O   0  0  0  0  0  0  0  0  0  0  0  0
   60.7020   30.5390   47.1260 O   0  0  0  0  0  0  0  0  0  0  0  0
   58.9060   28.7210   46.2540 C   0  0  0  0  0  0  0  0  0  0  0  0
   59.4580   28.7240   44.9670 C   0  0  0  0  0  0  0  0  0  0  0  0
   59.0860   27.7460   44.0420 C   0  0  0  0  0  0  0  0  0  0  0  0
   58.1680   26.7510   44.3960 C   0  0  0  0  0  0  0  0  0  0  0  0
   57.8290   25.8250   43.5070 O   0  0  0  0  0  0  0  0  0  0  0  0
   56.9710   24.8450   43.7720 C   0  0  0  0  0  0  0  0  0  0  0  0
   56.6690   23.9390   42.8040 N   0  0  0  0  0  0  0  0  0  0  0  0
   55.8080   22.9140   43.0490 C   0  0  0  0  0  0  0  0  0  0  0  0
   55.5400   22.0820   42.1430 O   0  0  0  0  0  0  0  0  0  0  0  0
   55.2270   22.7880   44.2710 N   0  0  0  0  0  0  0  0  0  0  0  0
   55.4830   23.6720   45.2690 C   0  0  0  0  0  0  0  0  0  0  0  0
   54.9140   23.5140   46.3820 O   0  0  0  0  0  0  0  0  0  0  0  0
   56.3790   24.7380   45.0500 C   0  0  0  0  0  0  0  0  0  0  0  0
   56.7130   25.7010   46.0250 C   0  0  0  0  0  0  0  0  0  0  0  0
   56.2240   25.6380   47.1890 O   0  0  0  0  0  0  0  0  0  0  0  0
   57.6150   26.7300   45.6950 C   0  0  0  0  0  0  0  0  0  0  0  0
   57.9870   27.7270   46.6160 C   0  0  0  0  0  0  0  0  0  0  0  0
   57.0361   29.5309   43.7464 H   0  0  0  0  0  0  0  0  0  0  0  0
   56.0171   30.8468   43.0704 H   0  0  0  0  0  0  0  0  0  0  0  0
   57.8063   31.0062   43.0704 H   0  0  0  0  0  0  0  0  0  0  0  0
   57.2331   33.5227   43.4862 H   0  0  0  0  0  0  0  0  0  0  0  0
   58.5958   35.4798   44.2249 H   0  0  0  0  0  0  0  0  0  0  0  0
   59.7843   35.4286   46.4191 H   0  0  0  0  0  0  0  0  0  0  0  0
   59.5880   33.4268   47.8956 H   0  0  0  0  0  0  0  0  0  0  0  0
   60.1862   29.4984   44.6840 H   0  0  0  0  0  0  0  0  0  0  0  0
   59.5169   27.7579   43.0300 H   0  0  0  0  0  0  0  0  0  0  0  0
   57.1030   24.0320   41.8560 H   0  0  0  0  0  0  0  0  0  0  0  0
   57.5534   27.7260   47.6269 H   0  0  0  0  0  0  0  0  0  0  0  0
  1  2  1  0
  2  3  1  0
  3  4  2  0
  4  5  1  0
  5  6  2  0
  6  7  1  0
  7  8  2  0
  8  9  1  0
  9 10  1  0
 10 11  2  0
 10 12  2  0
 10 13  1  0
 13 14  2  0
 14 15  1  0
 15 16  2  0
 16 17  1  0
 17 18  1  0
 18 19  1  0
 19 20  1  0
 20 21  2  0
 20 22  1  0
 22 23  1  0
 23 24  2  0
 23 25  1  0
 25 26  1  0
 26 27  2  0
 26 28  1  0
 28 29  2  0
  8  3  1  0
 29 13  1  0
 28 16  1  0
 25 18  2  0
  1 30  1  0
  1 31  1  0
  1 32  1  0
  4 33  1  0
  5 34  1  0
  6 35  1  0
  7 36  1  0
 14 37  1  0
 15 38  1  0
 19 39  1  0
 29 40  1  0
M  CHG  2   9  -1  22  -1
M  END
>  <UniqueID>  (92) 
85

>  <SMILES>  (92) 
COc1ccccc1[N-]S(=O)(=O)c1ccc2oc3[nH]c(=O)[n-]c(=O)c3c(=O)c2c1

>  <Energy>  (92) 
63.353265771206594

>  <Genealogy>  (92) 
COc1ccccc1[N-]S(=O)(=O)c1ccc2oc3[nH]c(=O)[n-]c(=O)c3c(=O)c2c1 (protonated)
COc1ccccc1[N-]S(=O)(=O)c1ccc2oc3[nH]c(=O)[n-]c(=O)c3c(=O)c2c1 (3D coordinates assigned)
COc1ccccc1[N-]S(=O)(=O)c1ccc2oc3[nH]c(=O)[n-]c(=O)c3c(=O)c2c1 (optimized conformer: 63.353265771206594 kcal/mol)

>  <smiles>  (92) 
COc1ccccc1NS(=O)(=O)c1ccc2oc3[nH]c(=O)[nH]c(=O)c3c(=O)c2c1

>  <score_type>  (92) 
oracle

>  <origin>  (92) 
adg

>  <m_score__min__energy>  (92) 
-11.619999999999999

>  <m_primary>  (92) 
energy

$$$$
92:0
     RDKit          3D

 31 32  0  0  0  0  0  0  0  0999 V2000
   56.7521   22.6491   45.2147 H   0  0  0  0  0  0  0  0  0  0  0  0
   56.8810   23.7310   45.3660 C   0  0  0  0  0  0  0  0  0  0  0  0
   58.1600   24.2910   45.3450 C   0  0  0  0  0  0  0  0  0  0  0  0
   59.0379   23.6494   45.1786 H   0  0  0  0  0  0  0  0  0  0  0  0
   58.3260   25.6650   45.5350 C   0  0  0  0  0  0  0  0  0  0  0  0
   59.3359   26.1008   45.5194 H   0  0  0  0  0  0  0  0  0  0  0  0
   57.2110   26.4940   45.7460 C   0  0  0  0  0  0  0  0  0  0  0  0
   57.4090   27.9700   45.9970 C   0  0  0  0  0  0  0  0  0  0  0  0
   58.3643   28.1161   46.5223 H   0  0  0  0  0  0  0  0  0  0  0  0
   56.5637   28.3286   46.6027 H   0  0  0  0  0  0  0  0  0  0  0  0
   57.4330   28.7760   44.6910 C   0  0  0  0  0  0  0  0  0  0  0  0
   57.3295   28.0834   43.8427 H   0  0  0  0  0  0  0  0  0  0  0  0
   58.3877   29.3202   44.6413 H   0  0  0  0  0  0  0  0  0  0  0  0
   56.3200   29.7790   44.6380 C   0  0  0  0  0  0  0  0  0  0  0  0
   55.1380   29.4070   44.8680 O   0  0  0  0  0  0  0  0  0  0  0  0
   56.6080   31.1340   44.2590 N   0  0  0  0  0  0  0  0  0  0  0  0
   57.4030   31.9870   44.8470 C   0  0  0  0  0  0  0  0  0  0  0  0
   57.9530   33.1020   44.1760 C   0  0  0  0  0  0  0  0  0  0  0  0
   57.7299   33.2736   43.1126 H   0  0  0  0  0  0  0  0  0  0  0  0
   58.7810   33.9840   44.8710 C   0  0  0  0  0  0  0  0  0  0  0  0
   59.2197   34.8499   44.3536 H   0  0  0  0  0  0  0  0  0  0  0  0
   59.0520   33.7680   46.2200 C   0  0  0  0  0  0  0  0  0  0  0  0
   59.7084   34.4565   46.7724 H   0  0  0  0  0  0  0  0  0  0  0  0
   58.4820   32.6690   46.8630 C   0  0  0  0  0  0  0  0  0  0  0  0
   58.8340   32.3680   48.7170 Br  0  0  0  0  0  0  0  0  0  0  0  0
   57.6750   31.8160   46.1740 N   0  0  0  0  0  0  0  0  0  0  0  0
   57.2570   31.0020   46.6830 H   0  0  0  0  0  0  0  0  0  0  0  0
   55.9230   25.9210   45.7740 C   0  0  0  0  0  0  0  0  0  0  0  0
   54.8010   26.7100   45.9950 O   0  0  0  0  0  0  0  0  0  0  0  0
   55.7650   24.5440   45.5790 C   0  0  0  0  0  0  0  0  0  0  0  0
   54.7585   24.1004   45.5935 H   0  0  0  0  0  0  0  0  0  0  0  0
  1  2  1  0
  2  3  2  0
  3  4  1  0
  3  5  1  0
  5  6  1  0
  5  7  2  0
  7  8  1  0
  8  9  1  0
  8 10  1  0
  8 11  1  0
 11 12  1  0
 11 13  1  0
 11 14  1  0
 14 15  2  0
 14 16  1  0
 16 17  2  0
 17 18  1  0
 18 19  1  0
 18 20  2  0
 20 21  1  0
 20 22  1  0
 22 23  1  0
 22 24  2  0
 24 25  1  0
 24 26  1  0
 26 27  1  0
  7 28  1  0
 28 29  1  0
 28 30  2  0
 30 31  1  0
 30  2  1  0
 26 17  1  0
M  CHG  1  29  -1
M  END
>  <UniqueID>  (93) 
86

>  <SMILES>  (93) 
O=C(CCc1ccccc1[O-])/N=c1\cccc(Br)[nH]1

>  <Energy>  (93) 
35.36971239346076

>  <Genealogy>  (93) 
O=C(CCc1ccccc1[O-])N=c1cccc(Br)[nH]1 (protonated)
O=C(CCc1ccccc1[O-])/N=c1\cccc(Br)[nH]1 (cis-trans isomerization)
O=C(CCc1ccccc1[O-])/N=c1\cccc(Br)[nH]1 (3D coordinates assigned)
O=C(CCc1ccccc1[O-])/N=c1\cccc(Br)[nH]1 (optimized conformer: 35.36971239346076 kcal/mol)

>  <smiles>  (93) 
O=C(CCc1ccccc1O)N=c1cccc(Br)[nH]1

>  <score_type>  (93) 
oracle

>  <origin>  (93) 
adg

>  <m_score__min__energy>  (93) 
-11.59

>  <m_primary>  (93) 
energy

$$$$
93:0
     RDKit          3D

 41 43  0  0  0  0  0  0  0  0999 V2000
   58.3770   27.4620   43.5010 C   0  0  0  0  0  0  0  0  0  0  0  0
   58.3960   28.3270   44.6790 N   0  0  0  0  0  0  0  0  0  0  0  0
   59.4990   28.8920   45.2080 C   0  0  0  0  0  0  0  0  0  0  0  0
   59.1560   29.6490   46.3130 C   0  0  0  0  0  0  0  0  0  0  0  0
   60.0940   30.3900   47.1790 C   0  0  0  0  0  0  0  0  0  0  0  0
   61.1710   29.8410   47.5310 O   0  0  0  0  0  0  0  0  0  0  0  0
   59.7860   31.6940   47.6850 N   0  0  0  0  0  0  0  0  0  0  0  0
   59.3600   32.8210   46.9060 C   0  0  0  0  0  0  0  0  0  0  0  0
   58.0880   32.8370   46.3020 C   0  0  0  0  0  0  0  0  0  0  0  0
   57.7020   33.9110   45.4970 C   0  0  0  0  0  0  0  0  0  0  0  0
   58.5840   34.9690   45.2720 C   0  0  0  0  0  0  0  0  0  0  0  0
   59.8540   34.9570   45.8520 C   0  0  0  0  0  0  0  0  0  0  0  0
   60.2530   33.8880   46.6690 C   0  0  0  0  0  0  0  0  0  0  0  0
   61.5560   33.9140   47.2750 N   0  0  0  0  0  0  0  0  0  0  0  0
   61.7010   34.2090   48.7020 C   0  0  0  0  0  0  0  0  0  0  0  0
   62.8620   33.3890   49.2760 C   0  0  0  0  0  0  0  0  0  0  0  0
   64.0370   33.5720   48.5070 O   0  0  0  0  0  0  0  0  0  0  0  0
   63.8440   33.0580   47.2020 C   0  0  0  0  0  0  0  0  0  0  0  0
   62.7690   33.8530   46.4560 C   0  0  0  0  0  0  0  0  0  0  0  0
   57.7870   29.5280   46.4780 C   0  0  0  0  0  0  0  0  0  0  0  0
   57.3510   28.7100   45.4500 C   0  0  0  0  0  0  0  0  0  0  0  0
   55.9820   28.3200   45.2500 N   0  0  0  0  0  0  0  0  0  0  0  0
   55.1900   29.1010   44.6830 O   0  0  0  0  0  0  0  0  0  0  0  0
   55.5160   27.1020   45.6830 O   0  0  0  0  0  0  0  0  0  0  0  0
   58.3539   26.4093   43.8194 H   0  0  0  0  0  0  0  0  0  0  0  0
   57.4835   27.6826   42.8985 H   0  0  0  0  0  0  0  0  0  0  0  0
   59.2793   27.6431   42.8985 H   0  0  0  0  0  0  0  0  0  0  0  0
   60.5204   28.7692   44.8186 H   0  0  0  0  0  0  0  0  0  0  0  0
   57.3945   31.9989   46.4652 H   0  0  0  0  0  0  0  0  0  0  0  0
   56.7016   33.9231   45.0397 H   0  0  0  0  0  0  0  0  0  0  0  0
   58.2782   35.8134   44.6369 H   0  0  0  0  0  0  0  0  0  0  0  0
   60.5467   35.7913   45.6673 H   0  0  0  0  0  0  0  0  0  0  0  0
   61.9074   35.2811   48.8360 H   0  0  0  0  0  0  0  0  0  0  0  0
   60.7709   33.9471   49.2277 H   0  0  0  0  0  0  0  0  0  0  0  0
   63.0542   33.7112   50.3100 H   0  0  0  0  0  0  0  0  0  0  0  0
   62.5871   32.3242   49.2509 H   0  0  0  0  0  0  0  0  0  0  0  0
   64.7908   33.1224   46.6457 H   0  0  0  0  0  0  0  0  0  0  0  0
   63.5158   32.0111   47.2812 H   0  0  0  0  0  0  0  0  0  0  0  0
   63.1337   34.8727   46.2630 H   0  0  0  0  0  0  0  0  0  0  0  0
   62.5431   33.3594   45.4993 H   0  0  0  0  0  0  0  0  0  0  0  0
   57.1714   29.9879   47.2651 H   0  0  0  0  0  0  0  0  0  0  0  0
  1  2  1  0
  2  3  1  0
  3  4  2  0
  4  5  1  0
  5  6  2  0
  5  7  1  0
  7  8  1  0
  8  9  2  0
  9 10  1  0
 10 11  2  0
 11 12  1  0
 12 13  2  0
 13 14  1  0
 14 15  1  0
 15 16  1  0
 16 17  1  0
 17 18  1  0
 18 19  1  0
  4 20  1  0
 20 21  2  0
 21 22  1  0
 22 23  2  0
 22 24  1  0
 21  2  1  0
 13  8  1  0
 19 14  1  0
  1 25  1  0
  1 26  1  0
  1 27  1  0
  3 28  1  0
  9 29  1  0
 10 30  1  0
 11 31  1  0
 12 32  1  0
 15 33  1  0
 15 34  1  0
 16 35  1  0
 16 36  1  0
 18 37  1  0
 18 38  1  0
 19 39  1  0
 19 40  1  0
 20 41  1  0
M  CHG  3   7  -1  22   1  24  -1
M  END
>  <UniqueID>  (94) 
87

>  <SMILES>  (94) 
Cn1cc(C(=O)[N-]c2ccccc2N2CCOCC2)cc1[N+](=O)[O-]

>  <Energy>  (94) 
80.7973190662344

>  <Genealogy>  (94) 
Cn1cc(C(=O)[N-]c2ccccc2N2CCOCC2)cc1[N+](=O)[O-] (protonated)
Cn1cc(C(=O)[N-]c2ccccc2N2CCOCC2)cc1[N+](=O)[O-] (3D coordinates assigned)
Cn1cc(C(=O)[N-]c2ccccc2N2CCOCC2)cc1[N+](=O)[O-] (nonaromatic ring conformer: 80.7973190662344 kcal/mol)

>  <smiles>  (94) 
Cn1cc(C(=O)Nc2ccccc2N2CCOCC2)cc1[N+](=O)[O-]

>  <score_type>  (94) 
oracle

>  <origin>  (94) 
adg

>  <m_score__min__energy>  (94) 
-9.1300000000000008

>  <m_primary>  (94) 
energy

$$$$
94:0
     RDKit          3D

 50 53  0  0  0  0  0  0  0  0999 V2000
   57.4400   29.6290   52.0530 C   0  0  0  0  0  0  0  0  0  0  0  0
   57.9090   30.2690   50.8700 O   0  0  0  0  0  0  0  0  0  0  0  0
   58.6220   31.4760   50.8510 C   0  0  0  0  0  0  0  0  0  0  0  0
   58.2470   32.5870   51.6300 C   0  0  0  0  0  0  0  0  0  0  0  0
   59.0000   33.7640   51.5870 C   0  0  0  0  0  0  0  0  0  0  0  0
   60.1280   33.8450   50.7690 C   0  0  0  0  0  0  0  0  0  0  0  0
   60.5010   32.7530   49.9730 C   0  0  0  0  0  0  0  0  0  0  0  0
   61.6930   32.8420   49.1040 C   0  0  0  0  0  0  0  0  0  0  0  0
   61.5890   33.0490   47.7000 C   0  0  0  0  0  0  0  0  0  0  0  0
   60.0240   33.2520   46.8930 S   0  0  0  0  0  0  0  0  0  0  0  0
   60.2110   34.1140   45.6760 O   0  0  0  0  0  0  0  0  0  0  0  0
   59.0440   33.9270   47.8120 O   0  0  0  0  0  0  0  0  0  0  0  0
   59.3600   31.6810   46.4510 C   0  0  0  0  0  0  0  0  0  0  0  0
   60.1260   30.5290   46.6500 C   0  0  0  0  0  0  0  0  0  0  0  0
   59.6400   29.2830   46.2480 C   0  0  0  0  0  0  0  0  0  0  0  0
   58.3750   29.1750   45.6390 C   0  0  0  0  0  0  0  0  0  0  0  0
   57.8580   27.9430   45.2100 O   0  0  0  0  0  0  0  0  0  0  0  0
   58.1250   27.3550   43.9400 C   0  0  0  0  0  0  0  0  0  0  0  0
   57.5980   30.3280   45.4470 C   0  0  0  0  0  0  0  0  0  0  0  0
   56.3430   30.1910   44.8330 O   0  0  0  0  0  0  0  0  0  0  0  0
   56.1420   30.0760   43.4280 C   0  0  0  0  0  0  0  0  0  0  0  0
   58.0950   31.5800   45.8600 C   0  0  0  0  0  0  0  0  0  0  0  0
   62.7680   33.1170   46.9240 C   0  0  0  0  0  0  0  0  0  0  0  0
   63.9970   32.9980   47.5040 N   0  0  0  0  0  0  0  0  0  0  0  0
   64.0900   32.8110   48.8420 C   0  0  0  0  0  0  0  0  0  0  0  0
   65.4990   32.6350   49.7380 S   0  0  0  0  0  0  0  0  0  0  0  0
   64.6870   32.4470   51.2080 C   0  0  0  0  0  0  0  0  0  0  0  0
   65.4690   32.1920   52.7520 Cl  0  0  0  0  0  0  0  0  0  0  0  0
   63.3110   32.5180   51.0070 C   0  0  0  0  0  0  0  0  0  0  0  0
   62.9780   32.7280   49.6600 C   0  0  0  0  0  0  0  0  0  0  0  0
   59.7480   31.5700   50.0240 C   0  0  0  0  0  0  0  0  0  0  0  0
   57.8284   30.1590   52.9352 H   0  0  0  0  0  0  0  0  0  0  0  0
   56.3403   29.6478   52.0687 H   0  0  0  0  0  0  0  0  0  0  0  0
   57.7892   28.5860   52.0687 H   0  0  0  0  0  0  0  0  0  0  0  0
   57.3579   32.5287   52.2751 H   0  0  0  0  0  0  0  0  0  0  0  0
   58.7029   34.6282   52.1992 H   0  0  0  0  0  0  0  0  0  0  0  0
   60.7259   34.7681   50.7489 H   0  0  0  0  0  0  0  0  0  0  0  0
   61.1153   30.6040   47.1250 H   0  0  0  0  0  0  0  0  0  0  0  0
   60.2488   28.3809   46.4080 H   0  0  0  0  0  0  0  0  0  0  0  0
   58.5759   26.3619   44.0832 H   0  0  0  0  0  0  0  0  0  0  0  0
   57.1848   27.2532   43.3781 H   0  0  0  0  0  0  0  0  0  0  0  0
   58.8204   27.9959   43.3781 H   0  0  0  0  0  0  0  0  0  0  0  0
   55.2021   29.5382   43.2349 H   0  0  0  0  0  0  0  0  0  0  0  0
   56.0883   31.0800   42.9819 H   0  0  0  0  0  0  0  0  0  0  0  0
   56.9804   29.5209   42.9819 H   0  0  0  0  0  0  0  0  0  0  0  0
   57.4850   32.4841   45.7171 H   0  0  0  0  0  0  0  0  0  0  0  0
   62.6937   33.2680   45.8369 H   0  0  0  0  0  0  0  0  0  0  0  0
   64.8590   33.0520   46.9190 H   0  0  0  0  0  0  0  0  0  0  0  0
   62.5688   32.4205   51.8130 H   0  0  0  0  0  0  0  0  0  0  0  0
   60.0452   30.7082   49.4084 H   0  0  0  0  0  0  0  0  0  0  0  0
  1  2  1  0
  2  3  1  0
  3  4  2  0
  4  5  1  0
  5  6  2  0
  6  7  1  0
  7  8  1  0
  8  9  1  0
  9 10  1  0
 10 11  2  0
 10 12  2  0
 10 13  1  0
 13 14  2  0
 14 15  1  0
 15 16  2  0
 16 17  1  0
 17 18  1  0
 16 19  1  0
 19 20  1  0
 20 21  1  0
 19 22  2  0
  9 23  2  0
 23 24  1  0
 24 25  2  0
 25 26  1  0
 26 27  1  0
 27 28  1  0
 27 29  2  0
 29 30  1  0
  7 31  2  0
 31  3  1  0
 30  8  2  0
 22 13  1  0
 30 25  1  0
  1 32  1  0
  1 33  1  0
  1 34  1  0
  4 35  1  0
  5 36  1  0
  6 37  1  0
 14 38  1  0
 15 39  1  0
 18 40  1  0
 18 41  1  0
 18 42  1  0
 21 43  1  0
 21 44  1  0
 21 45  1  0
 22 46  1  0
 23 47  1  0
 24 48  1  0
 29 49  1  0
 31 50  1  0
M  CHG  1  24   1
M  END
>  <UniqueID>  (95) 
88

>  <SMILES>  (95) 
COc1cccc(-c2c(S(=O)(=O)c3ccc(OC)c(OC)c3)c[nH+]c3sc(Cl)cc23)c1

>  <Energy>  (95) 
90.43689225004026

>  <Genealogy>  (95) 
COc1cccc(-c2c(S(=O)(=O)c3ccc(OC)c(OC)c3)c[nH+]c3sc(Cl)cc23)c1 (protonated)
COc1cccc(-c2c(S(=O)(=O)c3ccc(OC)c(OC)c3)c[nH+]c3sc(Cl)cc23)c1 (3D coordinates assigned)
COc1cccc(-c2c(S(=O)(=O)c3ccc(OC)c(OC)c3)c[nH+]c3sc(Cl)cc23)c1 (optimized conformer: 90.43689225004026 kcal/mol)

>  <smiles>  (95) 
COc1cccc(-c2c(S(=O)(=O)c3ccc(OC)c(OC)c3)cnc3sc(Cl)cc23)c1

>  <score_type>  (95) 
oracle

>  <origin>  (95) 
adg

>  <m_score__min__energy>  (95) 
-7.5999999999999996

>  <m_primary>  (95) 
energy

$$$$
95:0
     RDKit          3D

 61 64  0  0  0  0  0  0  0  0999 V2000
   61.1080   26.7150   48.9350 O   0  0  0  0  0  0  0  0  0  0  0  0
   60.0530   27.1590   48.4140 C   0  0  0  0  0  0  0  0  0  0  0  0
   59.2530   26.2560   47.6370 N   0  0  0  0  0  0  0  0  0  0  0  0
   59.6210   25.6530   46.3610 C   0  0  0  0  0  0  0  0  0  0  0  0
   58.7060   26.1950   45.2460 C   0  0  1  0  0  0  0  0  0  0  0  0
   57.3380   25.5130   45.2050 C   0  0  0  0  0  0  0  0  0  0  0  0
   56.9970   24.5480   44.2360 C   0  0  0  0  0  0  0  0  0  0  0  0
   55.7350   23.9530   44.2470 C   0  0  0  0  0  0  0  0  0  0  0  0
   54.8110   24.3240   45.2240 C   0  0  0  0  0  0  0  0  0  0  0  0
   55.1420   25.2580   46.1520 N   0  0  0  0  0  0  0  0  0  0  0  0
   56.3650   25.8520   46.1640 C   0  0  0  0  0  0  0  0  0  0  0  0
   58.6270   27.6810   45.2840 N   0  0  0  0  0  0  0  0  0  0  0  0
   59.9250   28.3310   45.0220 C   0  0  0  0  0  0  0  0  0  0  0  0
   59.8600   29.7800   45.5060 C   0  0  0  0  0  0  0  0  0  0  0  0
   58.6200   30.4260   45.0580 N   0  0  0  0  0  0  0  0  0  0  0  0
   58.4280   31.8270   45.3190 C   0  0  0  0  0  0  0  0  0  0  0  0
   58.4410   32.7510   44.2590 C   0  0  0  0  0  0  0  0  0  0  0  0
   58.2550   34.1140   44.5070 C   0  0  0  0  0  0  0  0  0  0  0  0
   58.0530   34.5650   45.8140 C   0  0  0  0  0  0  0  0  0  0  0  0
   58.0320   33.6540   46.8740 C   0  0  0  0  0  0  0  0  0  0  0  0
   58.2170   32.2890   46.6300 C   0  0  0  0  0  0  0  0  0  0  0  0
   58.1550   31.4180   47.6690 F   0  0  0  0  0  0  0  0  0  0  0  0
   57.7520   29.7420   44.0940 C   0  0  0  0  0  0  0  0  0  0  0  0
   57.5110   28.2730   44.5010 C   0  0  0  0  0  0  0  0  0  0  0  0
   59.6940   28.5820   48.6280 C   0  0  0  0  0  0  0  0  0  0  0  0
   58.5750   29.0210   48.2500 O   0  0  0  0  0  0  0  0  0  0  0  0
   60.6270   29.4720   49.2600 N   0  0  0  0  0  0  0  0  0  0  0  0
   60.3740   30.9050   49.3920 C   0  0  0  0  0  0  0  0  0  0  0  0
   61.4530   31.6900   48.6970 C   0  0  0  0  0  0  0  0  0  0  0  0
   62.7930   31.5770   49.1020 C   0  0  0  0  0  0  0  0  0  0  0  0
   63.7850   32.3310   48.4690 C   0  0  0  0  0  0  0  0  0  0  0  0
   63.4460   33.2050   47.4320 C   0  0  0  0  0  0  0  0  0  0  0  0
   62.1140   33.3270   47.0270 C   0  0  0  0  0  0  0  0  0  0  0  0
   61.7860   34.1770   46.0230 F   0  0  0  0  0  0  0  0  0  0  0  0
   61.1190   32.5750   47.6590 C   0  0  0  0  0  0  0  0  0  0  0  0
   60.6671   25.9007   46.1279 H   0  0  0  0  0  0  0  0  0  0  0  0
   59.5054   24.5611   46.4278 H   0  0  0  0  0  0  0  0  0  0  0  0
   59.1756   25.9289   44.2875 H   0  0  0  0  0  0  0  0  0  0  0  0
   57.7298   24.2624   43.4669 H   0  0  0  0  0  0  0  0  0  0  0  0
   55.4710   23.1980   43.4919 H   0  0  0  0  0  0  0  0  0  0  0  0
   53.8140   23.8597   45.2425 H   0  0  0  0  0  0  0  0  0  0  0  0
   56.5965   26.6055   46.9313 H   0  0  0  0  0  0  0  0  0  0  0  0
   60.7210   27.7969   45.5615 H   0  0  0  0  0  0  0  0  0  0  0  0
   60.1427   28.3076   43.9440 H   0  0  0  0  0  0  0  0  0  0  0  0
   59.8971   29.7947   46.6053 H   0  0  0  0  0  0  0  0  0  0  0  0
   60.7149   30.3300   45.0858 H   0  0  0  0  0  0  0  0  0  0  0  0
   58.5984   32.3991   43.2288 H   0  0  0  0  0  0  0  0  0  0  0  0
   58.2676   34.8315   43.6733 H   0  0  0  0  0  0  0  0  0  0  0  0
   57.9103   35.6381   46.0090 H   0  0  0  0  0  0  0  0  0  0  0  0
   57.8697   34.0110   47.9017 H   0  0  0  0  0  0  0  0  0  0  0  0
   56.7851   30.2646   44.0486 H   0  0  0  0  0  0  0  0  0  0  0  0
   58.2469   29.7536   43.1117 H   0  0  0  0  0  0  0  0  0  0  0  0
   56.5962   28.2266   45.1100 H   0  0  0  0  0  0  0  0  0  0  0  0
   57.4252   27.6910   43.5715 H   0  0  0  0  0  0  0  0  0  0  0  0
   61.5240   29.0960   49.6430 H   0  0  0  0  0  0  0  0  0  0  0  0
   59.4009   31.1453   48.9389 H   0  0  0  0  0  0  0  0  0  0  0  0
   60.3677   31.1712   50.4593 H   0  0  0  0  0  0  0  0  0  0  0  0
   63.0626   30.8928   49.9201 H   0  0  0  0  0  0  0  0  0  0  0  0
   64.8337   32.2366   48.7872 H   0  0  0  0  0  0  0  0  0  0  0  0
   64.2282   33.7971   46.9344 H   0  0  0  0  0  0  0  0  0  0  0  0
   60.0706   32.6770   47.3420 H   0  0  0  0  0  0  0  0  0  0  0  0
  1  2  2  0
  2  3  1  0
  3  4  1  0
  4  5  1  0
  5  6  1  0
  6  7  2  0
  7  8  1  0
  8  9  2  0
  9 10  1  0
 10 11  2  0
  5 12  1  0
 12 13  1  0
 13 14  1  0
 14 15  1  0
 15 16  1  0
 16 17  2  0
 17 18  1  0
 18 19  2  0
 19 20  1  0
 20 21  2  0
 21 22  1  0
 15 23  1  0
 23 24  1  0
  2 25  1  0
 25 26  2  0
 25 27  1  0
 27 28  1  0
 28 29  1  0
 29 30  2  0
 30 31  1  0
 31 32  2  0
 32 33  1  0
 33 34  1  0
 33 35  2  0
 11  6  1  0
 24 12  1  0
 35 29  1  0
 21 16  1  0
  4 36  1  0
  4 37  1  0
  5 38  1  6
  7 39  1  0
  8 40  1  0
  9 41  1  0
 11 42  1  0
 13 43  1  0
 13 44  1  0
 14 45  1  0
 14 46  1  0
 17 47  1  0
 18 48  1  0
 19 49  1  0
 20 50  1  0
 23 51  1  0
 23 52  1  0
 24 53  1  0
 24 54  1  0
 27 55  1  0
 28 56  1  0
 28 57  1  0
 30 58  1  0
 31 59  1  0
 32 60  1  0
 35 61  1  0
M  CHG  1   3  -1
M  END
>  <UniqueID>  (96) 
89

>  <SMILES>  (96) 
O=C([N-]C[C@@H](c1cccnc1)N1CCN(c2ccccc2F)CC1)C(=O)NCc1cccc(F)c1

>  <Energy>  (96) 
78.08865829202401

>  <Genealogy>  (96) 
O=C([N-]CC(c1cccnc1)N1CCN(c2ccccc2F)CC1)C(=O)NCc1cccc(F)c1 (protonated)
O=C([N-]C[C@@H](c1cccnc1)N1CCN(c2ccccc2F)CC1)C(=O)NCc1cccc(F)c1 (chirality)
O=C([N-]C[C@@H](c1cccnc1)N1CCN(c2ccccc2F)CC1)C(=O)NCc1cccc(F)c1 (3D coordinates assigned)
O=C([N-]C[C@@H](c1cccnc1)N1CCN(c2ccccc2F)CC1)C(=O)NCc1cccc(F)c1 (nonaromatic ring conformer: 78.08865829202401 kcal/mol)

>  <smiles>  (96) 
O=C(NCc1cccc(F)c1)C(=O)NCC(c1cccnc1)N1CCN(c2ccccc2F)CC1

>  <score_type>  (96) 
oracle

>  <origin>  (96) 
adg

>  <m_score__min__energy>  (96) 
-9.7699999999999996

>  <m_primary>  (96) 
energy

$$$$
96:0
     RDKit          3D

 53 56  0  0  0  0  0  0  0  0999 V2000
   59.6130   28.6980   44.4820 C   0  0  0  0  0  0  0  0  0  0  0  0
   58.7960   27.8520   45.4090 C   0  0  0  0  0  0  0  0  0  0  0  0
   57.5530   27.3150   45.1190 C   0  0  0  0  0  0  0  0  0  0  0  0
   57.2120   26.6050   46.2580 C   0  0  0  0  0  0  0  0  0  0  0  0
   55.9710   25.8480   46.4630 C   0  0  0  0  0  0  0  0  0  0  0  0
   55.9960   24.7420   47.0640 O   0  0  0  0  0  0  0  0  0  0  0  0
   54.7630   26.3480   45.9980 O   0  0  0  0  0  0  0  0  0  0  0  0
   58.2020   26.7150   47.1650 N   0  0  0  0  0  0  0  0  0  0  0  0
   59.1630   27.4660   46.6520 N   0  0  0  0  0  0  0  0  0  0  0  0
   60.3850   27.8210   47.3740 C   0  0  0  0  0  0  0  0  0  0  0  0
   60.1080   28.9410   48.3420 C   0  0  0  0  0  0  0  0  0  0  0  0
   60.4720   28.8260   49.6900 C   0  0  0  0  0  0  0  0  0  0  0  0
   60.2030   29.8640   50.5830 C   0  0  0  0  0  0  0  0  0  0  0  0
   59.5740   31.0420   50.1470 C   0  0  0  0  0  0  0  0  0  0  0  0
   59.3330   32.1290   51.1270 C   0  0  0  0  0  0  0  0  0  0  0  0
   60.4120   32.8140   51.7140 C   0  0  0  0  0  0  0  0  0  0  0  0
   60.1780   33.8310   52.6450 C   0  0  0  0  0  0  0  0  0  0  0  0
   58.8690   34.1680   53.0010 C   0  0  0  0  0  0  0  0  0  0  0  0
   57.7920   33.4850   52.4310 C   0  0  0  0  0  0  0  0  0  0  0  0
   58.0200   32.4670   51.5010 C   0  0  0  0  0  0  0  0  0  0  0  0
   59.2090   31.1680   48.7850 C   0  0  0  0  0  0  0  0  0  0  0  0
   58.4370   32.3400   48.3050 C   0  0  0  0  0  0  0  0  0  0  0  0
   58.8840   33.5630   48.3140 N   0  0  0  0  0  0  0  0  0  0  0  0
   60.0240   34.0790   47.6050 C   0  0  0  0  0  0  0  0  0  0  0  0
   59.8650   34.9060   46.6660 O   0  0  0  0  0  0  0  0  0  0  0  0
   61.3840   33.5960   47.9410 C   0  0  0  0  0  0  0  0  0  0  0  0
   62.0640   34.1030   49.0650 C   0  0  0  0  0  0  0  0  0  0  0  0
   63.3440   33.6400   49.3860 C   0  0  0  0  0  0  0  0  0  0  0  0
   63.9590   32.6700   48.5930 C   0  0  0  0  0  0  0  0  0  0  0  0
   63.2930   32.1580   47.4770 C   0  0  0  0  0  0  0  0  0  0  0  0
   62.0130   32.6170   47.1500 C   0  0  0  0  0  0  0  0  0  0  0  0
   59.4640   30.1040   47.9020 C   0  0  0  0  0  0  0  0  0  0  0  0
   60.2590   29.3669   45.0695 H   0  0  0  0  0  0  0  0  0  0  0  0
   60.2361   28.0503   43.8478 H   0  0  0  0  0  0  0  0  0  0  0  0
   58.9440   29.2982   43.8478 H   0  0  0  0  0  0  0  0  0  0  0  0
   56.9689   27.4270   44.1937 H   0  0  0  0  0  0  0  0  0  0  0  0
   58.2220   26.2900   48.1200 H   0  0  0  0  0  0  0  0  0  0  0  0
   60.7482   26.9429   47.9281 H   0  0  0  0  0  0  0  0  0  0  0  0
   61.1469   28.1497   46.6519 H   0  0  0  0  0  0  0  0  0  0  0  0
   60.9721   27.9133   50.0461 H   0  0  0  0  0  0  0  0  0  0  0  0
   60.4868   29.7586   51.6405 H   0  0  0  0  0  0  0  0  0  0  0  0
   61.4438   32.5488   51.4398 H   0  0  0  0  0  0  0  0  0  0  0  0
   61.0254   34.3666   53.0978 H   0  0  0  0  0  0  0  0  0  0  0  0
   58.6869   34.9712   53.7302 H   0  0  0  0  0  0  0  0  0  0  0  0
   56.7625   33.7489   52.7147 H   0  0  0  0  0  0  0  0  0  0  0  0
   57.1689   31.9278   51.0596 H   0  0  0  0  0  0  0  0  0  0  0  0
   57.4227   32.1650   47.9169 H   0  0  0  0  0  0  0  0  0  0  0  0
   61.5855   34.8678   49.6943 H   0  0  0  0  0  0  0  0  0  0  0  0
   63.8677   34.0415   50.2661 H   0  0  0  0  0  0  0  0  0  0  0  0
   64.9668   32.3092   48.8465 H   0  0  0  0  0  0  0  0  0  0  0  0
   63.7767   31.3916   46.8536 H   0  0  0  0  0  0  0  0  0  0  0  0
   61.4949   32.2102   46.2691 H   0  0  0  0  0  0  0  0  0  0  0  0
   59.1531   30.1863   46.8501 H   0  0  0  0  0  0  0  0  0  0  0  0
  1  2  1  0
  2  3  2  0
  3  4  1  0
  4  5  1  0
  5  6  2  0
  5  7  1  0
  4  8  2  0
  8  9  1  0
  9 10  1  0
 10 11  1  0
 11 12  2  0
 12 13  1  0
 13 14  2  0
 14 15  1  0
 15 16  2  0
 16 17  1  0
 17 18  2  0
 18 19  1  0
 19 20  2  0
 14 21  1  0
 21 22  1  0
 22 23  2  3
 23 24  1  0
 24 25  2  0
 24 26  1  0
 26 27  2  0
 27 28  1  0
 28 29  2  0
 29 30  1  0
 30 31  2  0
 21 32  2  0
  9  2  1  0
 32 11  1  0
 20 15  1  0
 31 26  1  0
  1 33  1  0
  1 34  1  0
  1 35  1  0
  3 36  1  0
  8 37  1  0
 10 38  1  0
 10 39  1  0
 12 40  1  0
 13 41  1  0
 16 42  1  0
 17 43  1  0
 18 44  1  0
 19 45  1  0
 20 46  1  0
 22 47  1  0
 27 48  1  0
 28 49  1  0
 29 50  1  0
 30 51  1  0
 31 52  1  0
 32 53  1  0
M  CHG  2   7  -1   8   1
M  END
>  <UniqueID>  (97) 
90

>  <SMILES>  (97) 
Cc1cc(C(=O)[O-])[nH+]n1Cc1ccc(-c2ccccc2)c(C=NC(=O)c2ccccc2)c1

>  <Energy>  (97) 
101.92073124862384

>  <Genealogy>  (97) 
Cc1cc(C(=O)[O-])[nH+]n1Cc1ccc(-c2ccccc2)c(C=NC(=O)c2ccccc2)c1 (protonated)
Cc1cc(C(=O)[O-])[nH+]n1Cc1ccc(-c2ccccc2)c(C=NC(=O)c2ccccc2)c1 (3D coordinates assigned)
Cc1cc(C(=O)[O-])[nH+]n1Cc1ccc(-c2ccccc2)c(C=NC(=O)c2ccccc2)c1 (optimized conformer: 101.92073124862384 kcal/mol)

>  <smiles>  (97) 
Cc1cc(C(=O)O)nn1Cc1ccc(-c2ccccc2)c(C=NC(=O)c2ccccc2)c1

>  <score_type>  (97) 
oracle

>  <origin>  (97) 
adg

>  <m_score__min__energy>  (97) 
-10.76

>  <m_primary>  (97) 
energy

$$$$
