0:0
     RDKit          3D

 64 66  0  0  0  0  0  0  0  0999 V2000
   59.1066   27.0611   42.8965 H   0  0  0  0  0  0  0  0  0  0  0  0
   58.1470   27.1190   43.4310 C   0  0  0  0  0  0  0  0  0  0  0  0
   57.2615   26.6051   43.0288 H   0  0  0  0  0  0  0  0  0  0  0  0
   58.0570   27.8130   44.5680 C   0  0  0  0  0  0  0  0  0  0  0  0
   58.9515   28.3213   44.9572 H   0  0  0  0  0  0  0  0  0  0  0  0
   56.7680   27.9180   45.3290 C   0  0  0  0  0  0  0  0  0  0  0  0
   56.1657   27.0133   45.1595 H   0  0  0  0  0  0  0  0  0  0  0  0
   56.9798   28.0166   46.4039 H   0  0  0  0  0  0  0  0  0  0  0  0
   56.0300   29.0920   44.8630 N   0  0  0  0  0  0  0  0  0  0  0  0
   56.5940   30.1600   44.3830 C   0  0  0  0  0  0  0  0  0  0  0  0
   56.9490   31.1910   45.1980 N   0  0  0  0  0  0  0  0  0  0  0  0
   57.5060   32.3340   44.7170 C   0  0  0  0  0  0  0  0  0  0  0  0
   57.8070   33.4250   45.6130 N   0  0  0  0  0  0  0  0  0  0  0  0
   57.2380   33.4330   46.9640 C   0  0  0  0  0  0  0  0  0  0  0  0
   58.0514   33.4216   47.7045 H   0  0  0  0  0  0  0  0  0  0  0  0
   56.6305   34.3398   47.1006 H   0  0  0  0  0  0  0  0  0  0  0  0
   56.6052   32.5437   47.1006 H   0  0  0  0  0  0  0  0  0  0  0  0
   58.6220   34.5710   45.1670 C   0  0  0  0  0  0  0  0  0  0  0  0
   58.7533   34.5010   44.0771 H   0  0  0  0  0  0  0  0  0  0  0  0
   58.0860   35.4838   45.4662 H   0  0  0  0  0  0  0  0  0  0  0  0
   60.0180   34.6300   45.8240 C   0  0  0  0  0  0  0  0  0  0  0  0
   60.5021   33.6508   45.6942 H   0  0  0  0  0  0  0  0  0  0  0  0
   60.5662   35.4452   45.3291 H   0  0  0  0  0  0  0  0  0  0  0  0
   59.9940   34.9640   47.3390 C   0  0  0  0  0  0  0  0  0  0  0  0
   60.7883   35.6976   47.5413 H   0  0  0  0  0  0  0  0  0  0  0  0
   58.9866   35.3477   47.5580 H   0  0  0  0  0  0  0  0  0  0  0  0
   60.2030   33.7980   48.2310 N   0  0  0  0  0  0  0  0  0  0  0  0
   60.3650   34.2080   49.6430 C   0  0  0  0  0  0  0  0  0  0  0  0
   61.3873   33.9720   49.9733 H   0  0  0  0  0  0  0  0  0  0  0  0
   60.1806   35.2895   49.7225 H   0  0  0  0  0  0  0  0  0  0  0  0
   59.3810   33.4810   50.5200 C   0  0  0  0  0  0  0  0  0  0  0  0
   59.1280   33.9420   51.8200 C   0  0  0  0  0  0  0  0  0  0  0  0
   59.6579   34.8280   52.1999 H   0  0  0  0  0  0  0  0  0  0  0  0
   58.2050   33.2800   52.6350 C   0  0  0  0  0  0  0  0  0  0  0  0
   58.0129   33.6451   53.6547 H   0  0  0  0  0  0  0  0  0  0  0  0
   57.5270   32.1580   52.1590 C   0  0  0  0  0  0  0  0  0  0  0  0
   56.8022   31.6380   52.8026 H   0  0  0  0  0  0  0  0  0  0  0  0
   57.7700   31.6960   50.8640 C   0  0  0  0  0  0  0  0  0  0  0  0
   57.2334   30.8125   50.4879 H   0  0  0  0  0  0  0  0  0  0  0  0
   58.6930   32.3520   50.0430 C   0  0  0  0  0  0  0  0  0  0  0  0
   58.8806   31.9841   49.0234 H   0  0  0  0  0  0  0  0  0  0  0  0
   61.2830   32.8850   47.7880 C   0  0  0  0  0  0  0  0  0  0  0  0
   61.6344   33.2038   46.7956 H   0  0  0  0  0  0  0  0  0  0  0  0
   62.0956   32.9312   48.5280 H   0  0  0  0  0  0  0  0  0  0  0  0
   60.8070   31.4570   47.7020 C   0  0  0  0  0  0  0  0  0  0  0  0
   60.0040   31.0490   46.6250 C   0  0  0  0  0  0  0  0  0  0  0  0
   59.7258   31.7725   45.8445 H   0  0  0  0  0  0  0  0  0  0  0  0
   59.5560   29.7260   46.5400 C   0  0  0  0  0  0  0  0  0  0  0  0
   58.9335   29.4148   45.6882 H   0  0  0  0  0  0  0  0  0  0  0  0
   59.8940   28.7930   47.5320 C   0  0  0  0  0  0  0  0  0  0  0  0
   59.3930   27.4860   47.4150 O   0  0  0  0  0  0  0  0  0  0  0  0
   60.1380   26.3830   46.8970 C   0  0  0  0  0  0  0  0  0  0  0  0
   60.5398   25.7881   47.7305 H   0  0  0  0  0  0  0  0  0  0  0  0
   59.4797   25.7530   46.2808 H   0  0  0  0  0  0  0  0  0  0  0  0
   60.9683   26.7584   46.2808 H   0  0  0  0  0  0  0  0  0  0  0  0
   60.7120   29.1980   48.6080 C   0  0  0  0  0  0  0  0  0  0  0  0
   60.9947   28.4728   49.3853 H   0  0  0  0  0  0  0  0  0  0  0  0
   61.1650   30.5210   48.6890 C   0  0  0  0  0  0  0  0  0  0  0  0
   61.8043   30.8297   49.5292 H   0  0  0  0  0  0  0  0  0  0  0  0
   57.7330   32.4370   43.3340 C   0  0  0  0  0  0  0  0  0  0  0  0
   58.1851   33.3472   42.9132 H   0  0  0  0  0  0  0  0  0  0  0  0
   57.3900   31.4040   42.5200 N   0  0  0  0  0  0  0  0  0  0  0  0
   56.8260   30.2710   43.0100 C   0  0  0  0  0  0  0  0  0  0  0  0
   56.5542   29.4481   42.3325 H   0  0  0  0  0  0  0  0  0  0  0  0
  1  2  1  0
  2  3  1  0
  2  4  2  0
  4  5  1  0
  4  6  1  0
  6  7  1  0
  6  8  1  0
  6  9  1  0
  9 10  2  0
 10 11  1  0
 11 12  1  0
 12 13  1  0
 13 14  1  0
 14 15  1  0
 14 16  1  0
 14 17  1  0
 13 18  1  0
 18 19  1  0
 18 20  1  0
 18 21  1  0
 21 22  1  0
 21 23  1  0
 21 24  1  0
 24 25  1  0
 24 26  1  0
 24 27  1  0
 27 28  1  0
 28 29  1  0
 28 30  1  0
 28 31  1  0
 31 32  2  0
 32 33  1  0
 32 34  1  0
 34 35  1  0
 34 36  2  0
 36 37  1  0
 36 38  1  0
 38 39  1  0
 38 40  2  0
 40 41  1  0
 27 42  1  0
 42 43  1  0
 42 44  1  0
 42 45  1  0
 45 46  2  0
 46 47  1  0
 46 48  1  0
 48 49  1  0
 48 50  2  0
 50 51  1  0
 51 52  1  0
 52 53  1  0
 52 54  1  0
 52 55  1  0
 50 56  1  0
 56 57  1  0
 56 58  2  0
 58 59  1  0
 12 60  2  0
 60 61  1  0
 60 62  1  0
 62 63  2  0
 63 64  1  0
 63 10  1  0
 40 31  1  0
 58 45  1  0
M  CHG  1  11  -1
M  END
>  <UniqueID>  (1) 
1

>  <SMILES>  (1) 
C=CC/N=c1/cncc(N(C)CCCN(Cc2ccccc2)Cc2ccc(OC)cc2)[n-]1

>  <Energy>  (1) 
67.61992931145001

>  <Genealogy>  (1) 
C=CCN=c1cncc(N(C)CCCN(Cc2ccccc2)Cc2ccc(OC)cc2)[n-]1 (protonated)
C=CC/N=c1/cncc(N(C)CCCN(Cc2ccccc2)Cc2ccc(OC)cc2)[n-]1 (cis-trans isomerization)
C=CC/N=c1/cncc(N(C)CCCN(Cc2ccccc2)Cc2ccc(OC)cc2)[n-]1 (3D coordinates assigned)
C=CC/N=c1/cncc(N(C)CCCN(Cc2ccccc2)Cc2ccc(OC)cc2)[n-]1 (optimized conformer: 67.61992931145001 kcal/mol)

>  <smiles>  (1) 
C=CCN=c1cncc(N(C)CCCN(Cc2ccccc2)Cc2ccc(OC)cc2)[nH]1

>  <score_type>  (1) 
oracle

>  <origin>  (1) 
adg

>  <m_score__min__energy>  (1) 
-10.039999999999999

>  <m_primary>  (1) 
energy

$$$$
1:0
     RDKit          3D

 57 60  0  0  0  0  0  0  0  0999 V2000
   64.9147   32.5817   48.5052 H   0  0  0  0  0  0  0  0  0  0  0  0
   63.8610   32.6660   48.2010 C   0  0  0  0  0  0  0  0  0  0  0  0
   63.3760   33.8730   47.6920 C   0  0  0  0  0  0  0  0  0  0  0  0
   64.0479   34.7388   47.5974 H   0  0  0  0  0  0  0  0  0  0  0  0
   62.0390   33.9820   47.3030 C   0  0  0  0  0  0  0  0  0  0  0  0
   61.6616   34.9349   46.9036 H   0  0  0  0  0  0  0  0  0  0  0  0
   61.1730   32.8810   47.4190 C   0  0  0  0  0  0  0  0  0  0  0  0
   59.7610   33.0260   47.0010 C   0  0  0  0  0  0  0  0  0  0  0  0
   58.7220   33.1750   47.9390 C   0  0  0  0  0  0  0  0  0  0  0  0
   58.9560   33.0730   49.3540 N   0  0  0  0  0  0  0  0  0  0  0  0
   58.4080   31.9480   50.1250 C   0  0  0  0  0  0  0  0  0  0  0  0
   57.6541   31.4234   49.5197 H   0  0  0  0  0  0  0  0  0  0  0  0
   59.2221   31.2555   50.3851 H   0  0  0  0  0  0  0  0  0  0  0  0
   57.7570   32.4670   51.4090 C   0  0  0  0  0  0  0  0  0  0  0  0
   56.8726   33.0624   51.1380 H   0  0  0  0  0  0  0  0  0  0  0  0
   57.4906   31.5922   52.0204 H   0  0  0  0  0  0  0  0  0  0  0  0
   58.7120   33.3550   52.2570 C   0  0  0  0  0  0  0  0  0  0  0  0
   58.1466   34.2691   52.4908 H   0  0  0  0  0  0  0  0  0  0  0  0
   59.1040   32.6510   53.5630 C   0  0  0  0  0  0  0  0  0  0  0  0
   58.7683   33.2539   54.4196 H   0  0  0  0  0  0  0  0  0  0  0  0
   58.6277   31.6603   53.6028 H   0  0  0  0  0  0  0  0  0  0  0  0
   60.1971   32.5342   53.6028 H   0  0  0  0  0  0  0  0  0  0  0  0
   59.9800   33.7920   51.4890 C   0  0  0  0  0  0  0  0  0  0  0  0
   60.4202   34.6648   51.9935 H   0  0  0  0  0  0  0  0  0  0  0  0
   60.6851   32.9478   51.4792 H   0  0  0  0  0  0  0  0  0  0  0  0
   59.6580   34.1660   50.0370 C   0  0  0  0  0  0  0  0  0  0  0  0
   59.0207   35.0625   50.0296 H   0  0  0  0  0  0  0  0  0  0  0  0
   60.6028   34.3595   49.5079 H   0  0  0  0  0  0  0  0  0  0  0  0
   57.4590   33.4090   47.4920 N   0  0  0  0  0  0  0  0  0  0  0  0
   57.1650   33.4790   46.1930 N   0  0  0  0  0  0  0  0  0  0  0  0
   56.1730   33.6660   45.9350 H   0  0  0  0  0  0  0  0  0  0  0  0
   58.1300   33.3150   45.2390 C   0  0  0  0  0  0  0  0  0  0  0  0
   57.8620   33.3600   43.9630 N   0  0  0  0  0  0  0  0  0  0  0  0
   57.8370   32.2310   43.0310 C   0  0  0  0  0  0  0  0  0  0  0  0
   58.8488   32.0734   42.6292 H   0  0  0  0  0  0  0  0  0  0  0  0
   57.1322   32.4619   42.2186 H   0  0  0  0  0  0  0  0  0  0  0  0
   57.3790   30.9720   43.7220 C   0  0  0  0  0  0  0  0  0  0  0  0
   56.0170   30.6350   43.7600 C   0  0  0  0  0  0  0  0  0  0  0  0
   55.2764   31.2951   43.2849 H   0  0  0  0  0  0  0  0  0  0  0  0
   55.5970   29.4640   44.3990 C   0  0  0  0  0  0  0  0  0  0  0  0
   54.5266   29.2122   44.4278 H   0  0  0  0  0  0  0  0  0  0  0  0
   56.5270   28.6100   45.0020 C   0  0  0  0  0  0  0  0  0  0  0  0
   56.0550   27.4500   45.6340 O   0  0  0  0  0  0  0  0  0  0  0  0
   56.8750   26.3470   46.0070 C   0  0  0  0  0  0  0  0  0  0  0  0
   56.9241   26.2810   47.1039 H   0  0  0  0  0  0  0  0  0  0  0  0
   56.4464   25.4182   45.6026 H   0  0  0  0  0  0  0  0  0  0  0  0
   57.8879   26.4899   45.6026 H   0  0  0  0  0  0  0  0  0  0  0  0
   57.8960   28.9390   44.9510 C   0  0  0  0  0  0  0  0  0  0  0  0
   58.6372   28.2733   45.4174 H   0  0  0  0  0  0  0  0  0  0  0  0
   58.3160   30.1080   44.3100 C   0  0  0  0  0  0  0  0  0  0  0  0
   59.3876   30.3524   44.2661 H   0  0  0  0  0  0  0  0  0  0  0  0
   59.4490   33.0990   45.6410 C   0  0  0  0  0  0  0  0  0  0  0  0
   60.2425   32.9863   44.8875 H   0  0  0  0  0  0  0  0  0  0  0  0
   61.6670   31.6640   47.9360 C   0  0  0  0  0  0  0  0  0  0  0  0
   60.6210   30.2650   48.1610 Cl  0  0  0  0  0  0  0  0  0  0  0  0
   63.0090   31.5660   48.3240 C   0  0  0  0  0  0  0  0  0  0  0  0
   63.3941   30.6180   48.7277 H   0  0  0  0  0  0  0  0  0  0  0  0
  1  2  1  0
  2  3  2  0
  3  4  1  0
  3  5  1  0
  5  6  1  0
  5  7  2  0
  7  8  1  0
  8  9  1  0
  9 10  1  0
 10 11  1  0
 11 12  1  0
 11 13  1  0
 11 14  1  0
 14 15  1  0
 14 16  1  0
 14 17  1  0
 17 18  1  0
 17 19  1  0
 19 20  1  0
 19 21  1  0
 19 22  1  0
 17 23  1  0
 23 24  1  0
 23 25  1  0
 23 26  1  0
 26 27  1  0
 26 28  1  0
  9 29  2  0
 29 30  1  0
 30 31  1  0
 30 32  1  0
 32 33  2  0
 33 34  1  0
 34 35  1  0
 34 36  1  0
 34 37  1  0
 37 38  2  0
 38 39  1  0
 38 40  1  0
 40 41  1  0
 40 42  2  0
 42 43  1  0
 43 44  1  0
 44 45  1  0
 44 46  1  0
 44 47  1  0
 42 48  1  0
 48 49  1  0
 48 50  2  0
 50 51  1  0
 32 52  1  0
 52 53  1  0
  7 54  1  0
 54 55  1  0
 54 56  2  0
 56 57  1  0
 56  2  1  0
 52  8  2  0
 26 10  1  0
 50 37  1  0
M  END
>  <UniqueID>  (2) 
2

>  <SMILES>  (2) 
COc1ccc(C/N=c2/cc(-c3ccccc3Cl)c(N3CCC(C)CC3)n[nH]2)cc1

>  <Energy>  (2) 
71.63467622354067

>  <Genealogy>  (2) 
COc1ccc(C/N=c2/cc(-c3ccccc3Cl)c(N3CCC(C)CC3)n[nH]2)cc1 (cis-trans isomerization)
COc1ccc(C/N=c2/cc(-c3ccccc3Cl)c(N3CCC(C)CC3)n[nH]2)cc1 (3D coordinates assigned)
COc1ccc(C/N=c2/cc(-c3ccccc3Cl)c(N3CCC(C)CC3)n[nH]2)cc1 (nonaromatic ring conformer: 71.63467622354067 kcal/mol)

>  <smiles>  (2) 
COc1ccc(CN=c2cc(-c3ccccc3Cl)c(N3CCC(C)CC3)n[nH]2)cc1

>  <score_type>  (2) 
oracle

>  <origin>  (2) 
adg

>  <m_score__min__energy>  (2) 
-9.0600000000000005

>  <m_primary>  (2) 
energy

$$$$
2:0
     RDKit          3D

 55 58  0  0  0  0  0  0  0  0999 V2000
   55.2420   26.7050   46.2250 O   0  0  0  0  0  0  0  0  0  0  0  0
   55.7250   25.5680   45.9650 C   0  0  0  0  0  0  0  0  0  0  0  0
   54.8470   24.4790   45.6490 N   0  0  0  0  0  0  0  0  0  0  0  0
   54.8690   23.7620   44.3790 C   0  0  0  0  0  0  0  0  0  0  0  0
   55.5550   22.3950   44.5190 C   0  0  0  0  0  0  0  0  0  0  0  0
   57.0760   22.4680   44.3430 C   0  0  0  0  0  0  0  0  0  0  0  0
   57.7200   22.8080   45.6090 N   0  0  0  0  0  0  0  0  0  0  0  0
   57.4170   22.2490   46.7400 C   0  0  0  0  0  0  0  0  0  0  0  0
   57.1260   22.9810   47.8460 N   0  0  0  0  0  0  0  0  0  0  0  0
   56.8860   22.0300   48.7610 C   0  0  0  0  0  0  0  0  0  0  0  0
   56.5290   22.2040   50.0960 C   0  0  0  0  0  0  0  0  0  0  0  0
   56.3160   21.0470   50.8720 C   0  0  0  0  0  0  0  0  0  0  0  0
   56.4630   19.7650   50.2970 C   0  0  0  0  0  0  0  0  0  0  0  0
   56.8270   19.6290   48.9430 C   0  0  0  0  0  0  0  0  0  0  0  0
   57.0310   20.7940   48.2080 C   0  0  0  0  0  0  0  0  0  0  0  0
   57.3720   20.9000   46.9150 N   0  0  0  0  0  0  0  0  0  0  0  0
   57.1550   25.3430   45.9880 N   0  0  0  0  0  0  0  0  0  0  0  0
   57.8190   25.7160   44.7310 C   0  0  0  0  0  0  0  0  0  0  0  0
   57.8570   27.2330   44.4770 C   0  0  0  0  0  0  0  0  0  0  0  0
   57.9500   28.0780   45.6890 N   0  0  0  0  0  0  0  0  0  0  0  0
   58.0320   29.5300   45.5300 C   0  0  0  0  0  0  0  0  0  0  0  0
   57.3770   30.1920   44.4640 C   0  0  0  0  0  0  0  0  0  0  0  0
   57.4570   31.5790   44.3150 C   0  0  0  0  0  0  0  0  0  0  0  0
   58.2080   32.3530   45.2090 C   0  0  0  0  0  0  0  0  0  0  0  0
   58.2520   33.8560   45.0810 C   0  0  0  0  0  0  0  0  0  0  0  0
   58.5560   34.4470   46.2960 F   0  0  0  0  0  0  0  0  0  0  0  0
   57.0270   34.3420   44.6590 F   0  0  0  0  0  0  0  0  0  0  0  0
   59.2190   34.2060   44.1570 F   0  0  0  0  0  0  0  0  0  0  0  0
   58.8460   31.7170   46.2820 C   0  0  0  0  0  0  0  0  0  0  0  0
   58.7710   30.3300   46.4350 C   0  0  0  0  0  0  0  0  0  0  0  0
   57.8060   27.5190   47.0520 C   0  0  0  0  0  0  0  0  0  0  0  0
   57.8200   25.9870   47.1280 C   0  0  0  0  0  0  0  0  0  0  0  0
   53.8350   23.6101   44.0358 H   0  0  0  0  0  0  0  0  0  0  0  0
   55.4372   24.3617   43.6527 H   0  0  0  0  0  0  0  0  0  0  0  0
   55.3367   21.9940   45.5198 H   0  0  0  0  0  0  0  0  0  0  0  0
   55.1621   21.7463   43.7223 H   0  0  0  0  0  0  0  0  0  0  0  0
   57.4480   21.4921   43.9979 H   0  0  0  0  0  0  0  0  0  0  0  0
   57.3122   23.2464   43.6025 H   0  0  0  0  0  0  0  0  0  0  0  0
   56.4173   23.2089   50.5293 H   0  0  0  0  0  0  0  0  0  0  0  0
   56.0338   21.1427   51.9309 H   0  0  0  0  0  0  0  0  0  0  0  0
   56.2922   18.8678   50.9101 H   0  0  0  0  0  0  0  0  0  0  0  0
   56.9459   18.6372   48.4824 H   0  0  0  0  0  0  0  0  0  0  0  0
   57.3030   24.3120   46.1020 H   0  0  0  0  0  0  0  0  0  0  0  0
   58.8534   25.3431   44.7609 H   0  0  0  0  0  0  0  0  0  0  0  0
   57.2344   25.2682   43.9139 H   0  0  0  0  0  0  0  0  0  0  0  0
   58.7307   27.4494   43.8447 H   0  0  0  0  0  0  0  0  0  0  0  0
   56.8960   27.4852   44.0049 H   0  0  0  0  0  0  0  0  0  0  0  0
   56.7944   29.6038   43.7397 H   0  0  0  0  0  0  0  0  0  0  0  0
   56.9243   32.0686   43.4864 H   0  0  0  0  0  0  0  0  0  0  0  0
   59.4116   32.3154   47.0113 H   0  0  0  0  0  0  0  0  0  0  0  0
   59.2960   29.8506   47.2744 H   0  0  0  0  0  0  0  0  0  0  0  0
   58.6357   27.8989   47.6663 H   0  0  0  0  0  0  0  0  0  0  0  0
   56.8161   27.8361   47.4118 H   0  0  0  0  0  0  0  0  0  0  0  0
   58.8662   25.6485   47.1588 H   0  0  0  0  0  0  0  0  0  0  0  0
   57.2649   25.7005   48.0334 H   0  0  0  0  0  0  0  0  0  0  0  0
  1  2  2  0
  2  3  1  0
  3  4  1  0
  4  5  1  0
  5  6  1  0
  6  7  1  0
  7  8  2  3
  8  9  1  0
  9 10  1  0
 10 11  2  0
 11 12  1  0
 12 13  2  0
 13 14  1  0
 14 15  2  0
 15 16  1  0
  2 17  1  0
 17 18  1  0
 18 19  1  0
 19 20  1  0
 20 21  1  0
 21 22  2  0
 22 23  1  0
 23 24  2  0
 24 25  1  0
 25 26  1  0
 25 27  1  0
 25 28  1  0
 24 29  1  0
 29 30  2  0
 20 31  1  0
 31 32  1  0
 16  8  1  0
 32 17  1  0
 15 10  1  0
 30 21  1  0
  4 33  1  0
  4 34  1  0
  5 35  1  0
  5 36  1  0
  6 37  1  0
  6 38  1  0
 11 39  1  0
 12 40  1  0
 13 41  1  0
 14 42  1  0
 17 43  1  0
 18 44  1  0
 18 45  1  0
 19 46  1  0
 19 47  1  0
 22 48  1  0
 23 49  1  0
 29 50  1  0
 30 51  1  0
 31 52  1  0
 31 53  1  0
 32 54  1  0
 32 55  1  0
M  CHG  4   3  -1   9  -1  16  -1  17   1
M  END
>  <UniqueID>  (3) 
3

>  <SMILES>  (3) 
O=C([N-]CCCN=c1[n-]c2ccccc2[n-]1)[NH+]1CCN(c2ccc(C(F)(F)F)cc2)CC1

>  <Energy>  (3) 
100.90383238482426

>  <Genealogy>  (3) 
O=C([N-]CCCN=c1[n-]c2ccccc2[n-]1)[NH+]1CCN(c2ccc(C(F)(F)F)cc2)CC1 (protonated)
O=C([N-]CCCN=c1[n-]c2ccccc2[n-]1)[NH+]1CCN(c2ccc(C(F)(F)F)cc2)CC1 (3D coordinates assigned)
O=C([N-]CCCN=c1[n-]c2ccccc2[n-]1)[NH+]1CCN(c2ccc(C(F)(F)F)cc2)CC1 (nonaromatic ring conformer: 100.90383238482426 kcal/mol)

>  <smiles>  (3) 
O=C(NCCCN=c1[nH]c2ccccc2[nH]1)N1CCN(c2ccc(C(F)(F)F)cc2)CC1

>  <score_type>  (3) 
oracle

>  <origin>  (3) 
adg

>  <m_score__min__energy>  (3) 
-11.630000000000001

>  <m_primary>  (3) 
energy

$$$$
3:0
     RDKit          3D

 49 52  0  0  0  0  0  0  0  0999 V2000
   57.1760   20.4750   43.6320 H   0  0  0  0  0  0  0  0  0  0  0  0
   56.5540   21.1860   43.2650 O   0  0  0  0  0  0  0  0  0  0  0  0
   56.3440   22.3870   43.9390 C   0  0  0  0  0  0  0  0  0  0  0  0
   57.4190   23.0220   44.5690 C   0  0  0  0  0  0  0  0  0  0  0  0
   58.4212   22.5701   44.5313 H   0  0  0  0  0  0  0  0  0  0  0  0
   57.2240   24.2300   45.2470 C   0  0  0  0  0  0  0  0  0  0  0  0
   58.0698   24.7161   45.7553 H   0  0  0  0  0  0  0  0  0  0  0  0
   55.9480   24.8260   45.2810 C   0  0  0  0  0  0  0  0  0  0  0  0
   55.6970   26.0510   45.9920 N   0  0  0  0  0  0  0  0  0  0  0  0
   56.3840   27.1530   45.9120 C   0  0  0  0  0  0  0  0  0  0  0  0
   55.9050   28.2380   45.2470 N   0  0  0  0  0  0  0  0  0  0  0  0
   56.6260   29.3880   45.1940 C   0  0  0  0  0  0  0  0  0  0  0  0
   56.1870   30.4240   44.5480 N   0  0  0  0  0  0  0  0  0  0  0  0
   57.0050   31.2350   43.6520 C   0  0  0  0  0  0  0  0  0  0  0  0
   57.7941   30.6100   43.2085 H   0  0  0  0  0  0  0  0  0  0  0  0
   56.3744   31.6492   42.8515 H   0  0  0  0  0  0  0  0  0  0  0  0
   57.6310   32.3560   44.4290 C   0  0  0  0  0  0  0  0  0  0  0  0
   58.5010   33.2590   43.7970 C   0  0  0  0  0  0  0  0  0  0  0  0
   58.7505   33.1272   42.7338 H   0  0  0  0  0  0  0  0  0  0  0  0
   59.0510   34.3250   44.5150 C   0  0  0  0  0  0  0  0  0  0  0  0
   59.7389   35.0246   44.0176 H   0  0  0  0  0  0  0  0  0  0  0  0
   58.7290   34.5040   45.8630 C   0  0  0  0  0  0  0  0  0  0  0  0
   59.1660   35.3412   46.4270 H   0  0  0  0  0  0  0  0  0  0  0  0
   57.8510   33.6180   46.4940 C   0  0  0  0  0  0  0  0  0  0  0  0
   57.5945   33.7610   47.5541 H   0  0  0  0  0  0  0  0  0  0  0  0
   57.2980   32.5500   45.7800 C   0  0  0  0  0  0  0  0  0  0  0  0
   56.6005   31.8601   46.2776 H   0  0  0  0  0  0  0  0  0  0  0  0
   57.8260   29.4540   45.8210 N   0  0  0  0  0  0  0  0  0  0  0  0
   58.3120   28.3780   46.4950 C   0  0  0  0  0  0  0  0  0  0  0  0
   59.4640   28.4270   47.0900 N   0  0  0  0  0  0  0  0  0  0  0  0
   59.7750   29.3820   48.5060 S   0  0  0  0  0  0  0  0  0  0  0  0
   60.4360   28.5230   49.5470 O   0  0  0  0  0  0  0  0  0  0  0  0
   58.4740   29.8930   49.0610 O   0  0  0  0  0  0  0  0  0  0  0  0
   60.8480   30.7200   48.1010 C   0  0  0  0  0  0  0  0  0  0  0  0
   62.0270   30.9380   48.8320 C   0  0  0  0  0  0  0  0  0  0  0  0
   62.3001   30.2551   49.6500 H   0  0  0  0  0  0  0  0  0  0  0  0
   62.8540   32.0210   48.5220 C   0  0  0  0  0  0  0  0  0  0  0  0
   63.7768   32.1897   49.0965 H   0  0  0  0  0  0  0  0  0  0  0  0
   62.5100   32.8900   47.4830 C   0  0  0  0  0  0  0  0  0  0  0  0
   63.1634   33.7405   47.2385 H   0  0  0  0  0  0  0  0  0  0  0  0
   61.3370   32.6790   46.7550 C   0  0  0  0  0  0  0  0  0  0  0  0
   61.0671   33.3638   45.9376 H   0  0  0  0  0  0  0  0  0  0  0  0
   60.5050   31.5980   47.0640 C   0  0  0  0  0  0  0  0  0  0  0  0
   59.5795   31.4367   46.4918 H   0  0  0  0  0  0  0  0  0  0  0  0
   57.5840   27.2320   46.5410 N   0  0  0  0  0  0  0  0  0  0  0  0
   54.8710   24.1680   44.6730 C   0  0  0  0  0  0  0  0  0  0  0  0
   53.8628   24.6044   44.7288 H   0  0  0  0  0  0  0  0  0  0  0  0
   55.0680   22.9610   43.9960 C   0  0  0  0  0  0  0  0  0  0  0  0
   54.2189   22.4610   43.5070 H   0  0  0  0  0  0  0  0  0  0  0  0
  1  2  1  0
  2  3  1  0
  3  4  2  0
  4  5  1  0
  4  6  1  0
  6  7  1  0
  6  8  2  0
  8  9  1  0
  9 10  2  3
 10 11  1  0
 11 12  1  0
 12 13  2  3
 13 14  1  0
 14 15  1  0
 14 16  1  0
 14 17  1  0
 17 18  2  0
 18 19  1  0
 18 20  1  0
 20 21  1  0
 20 22  2  0
 22 23  1  0
 22 24  1  0
 24 25  1  0
 24 26  2  0
 26 27  1  0
 12 28  1  0
 28 29  1  0
 29 30  2  0
 30 31  1  0
 31 32  2  0
 31 33  2  0
 31 34  1  0
 34 35  2  0
 35 36  1  0
 35 37  1  0
 37 38  1  0
 37 39  2  0
 39 40  1  0
 39 41  1  0
 41 42  1  0
 41 43  2  0
 43 44  1  0
 29 45  1  0
  8 46  1  0
 46 47  1  0
 46 48  2  0
 48 49  1  0
 48  3  1  0
 45 10  1  0
 26 17  1  0
 43 34  1  0
M  CHG  3  11  -1  28  -1  45  -1
M  END
>  <UniqueID>  (4) 
4

>  <SMILES>  (4) 
O=S(=O)(/N=c1\[n-]c(=NCc2ccccc2)[n-]c(=Nc2ccc(O)cc2)[n-]1)c1ccccc1

>  <Energy>  (4) 
60.88119484591963

>  <Genealogy>  (4) 
O=S(=O)(N=c1[n-]c(=NCc2ccccc2)[n-]c(=Nc2ccc(O)cc2)[n-]1)c1ccccc1 (protonated)
O=S(=O)(/N=c1\[n-]c(=NCc2ccccc2)[n-]c(=Nc2ccc(O)cc2)[n-]1)c1ccccc1 (cis-trans isomerization)
O=S(=O)(/N=c1\[n-]c(=NCc2ccccc2)[n-]c(=Nc2ccc(O)cc2)[n-]1)c1ccccc1 (3D coordinates assigned)
O=S(=O)(/N=c1\[n-]c(=NCc2ccccc2)[n-]c(=Nc2ccc(O)cc2)[n-]1)c1ccccc1 (optimized conformer: 60.88119484591963 kcal/mol)

>  <smiles>  (4) 
O=S(=O)(N=c1[nH]c(=NCc2ccccc2)[nH]c(=Nc2ccc(O)cc2)[nH]1)c1ccccc1

>  <score_type>  (4) 
oracle

>  <origin>  (4) 
adg

>  <m_score__min__energy>  (4) 
-14.789999999999999

>  <m_primary>  (4) 
energy

$$$$
4:0
     RDKit          3D

 44 46  0  0  0  0  0  0  0  0999 V2000
   54.6920   29.3440   45.2600 H   0  0  0  0  0  0  0  0  0  0  0  0
   55.5420   28.7380   45.1990 N   0  0  0  0  0  0  0  0  0  0  0  0
   56.8550   29.7580   44.7270 S   0  0  0  0  0  0  0  0  0  0  0  0
   56.3540   31.1630   44.5430 O   0  0  0  0  0  0  0  0  0  0  0  0
   57.4220   29.2750   43.4220 O   0  0  0  0  0  0  0  0  0  0  0  0
   58.1010   29.7260   45.9700 C   0  0  0  0  0  0  0  0  0  0  0  0
   58.0750   28.7440   46.9680 C   0  0  0  0  0  0  0  0  0  0  0  0
   57.2788   27.9850   46.9687 H   0  0  0  0  0  0  0  0  0  0  0  0
   59.0560   28.7240   47.9630 C   0  0  0  0  0  0  0  0  0  0  0  0
   59.0237   27.9536   48.7475 H   0  0  0  0  0  0  0  0  0  0  0  0
   60.0850   29.6840   47.9670 C   0  0  0  0  0  0  0  0  0  0  0  0
   61.0910   29.7020   48.9930 N   0  0  0  0  0  0  0  0  0  0  0  0
   61.8780   30.3830   48.8990 H   0  0  0  0  0  0  0  0  0  0  0  0
   61.1290   28.7850   50.0970 C   0  0  0  0  0  0  0  0  0  0  0  0
   60.4400   27.7290   50.0800 O   0  0  0  0  0  0  0  0  0  0  0  0
   62.0280   29.0590   51.2640 C   0  0  0  0  0  0  0  0  0  0  0  0
   61.4674   29.6177   52.0279 H   0  0  0  0  0  0  0  0  0  0  0  0
   62.3787   28.0997   51.6723 H   0  0  0  0  0  0  0  0  0  0  0  0
   63.1960   29.8500   50.8480 N   0  0  0  0  0  0  0  0  0  0  0  0
   64.0560   29.4120   51.2560 H   0  0  0  0  0  0  0  0  0  0  0  0
   63.1190   31.2540   51.2840 C   0  0  0  0  0  0  0  0  0  0  0  0
   62.5450   31.3031   52.2211 H   0  0  0  0  0  0  0  0  0  0  0  0
   64.1464   31.6211   51.4246 H   0  0  0  0  0  0  0  0  0  0  0  0
   62.4530   32.1280   50.2630 C   0  0  0  0  0  0  0  0  0  0  0  0
   62.8270   32.1790   48.9640 N   0  0  0  0  0  0  0  0  0  0  0  0
   62.1070   33.0380   48.2440 N   0  0  0  0  0  0  0  0  0  0  0  0
   61.1680   33.6820   48.9750 C   0  0  0  0  0  0  0  0  0  0  0  0
   60.3190   34.5380   48.4910 N   0  0  0  0  0  0  0  0  0  0  0  0
   59.4490   34.3430   47.3640 C   0  0  0  0  0  0  0  0  0  0  0  0
   59.8810   34.7730   46.1020 C   0  0  0  0  0  0  0  0  0  0  0  0
   60.8576   35.2685   45.9983 H   0  0  0  0  0  0  0  0  0  0  0  0
   59.0780   34.5760   44.9730 C   0  0  0  0  0  0  0  0  0  0  0  0
   59.4180   34.9303   43.9887 H   0  0  0  0  0  0  0  0  0  0  0  0
   57.8450   33.9300   45.0940 C   0  0  0  0  0  0  0  0  0  0  0  0
   57.0700   33.7370   43.9990 F   0  0  0  0  0  0  0  0  0  0  0  0
   57.4190   33.4700   46.3430 C   0  0  0  0  0  0  0  0  0  0  0  0
   56.4529   32.9524   46.4365 H   0  0  0  0  0  0  0  0  0  0  0  0
   58.2180   33.6660   47.4750 C   0  0  0  0  0  0  0  0  0  0  0  0
   57.8844   33.2908   48.4537 H   0  0  0  0  0  0  0  0  0  0  0  0
   61.1760   33.1850   50.5810 S   0  0  0  0  0  0  0  0  0  0  0  0
   60.0870   30.6830   46.9820 C   0  0  0  0  0  0  0  0  0  0  0  0
   60.8671   31.4584   46.9930 H   0  0  0  0  0  0  0  0  0  0  0  0
   59.1060   30.7010   45.9870 C   0  0  0  0  0  0  0  0  0  0  0  0
   59.1233   31.4838   45.2144 H   0  0  0  0  0  0  0  0  0  0  0  0
  1  2  1  0
  2  3  1  0
  3  4  2  0
  3  5  2  0
  3  6  1  0
  6  7  2  0
  7  8  1  0
  7  9  1  0
  9 10  1  0
  9 11  2  0
 11 12  1  0
 12 13  1  0
 12 14  1  0
 14 15  2  0
 14 16  1  0
 16 17  1  0
 16 18  1  0
 16 19  1  0
 19 20  1  0
 19 21  1  0
 21 22  1  0
 21 23  1  0
 21 24  1  0
 24 25  2  0
 25 26  1  0
 26 27  1  0
 27 28  2  0
 28 29  1  0
 29 30  2  0
 30 31  1  0
 30 32  1  0
 32 33  1  0
 32 34  2  0
 34 35  1  0
 34 36  1  0
 36 37  1  0
 36 38  2  0
 38 39  1  0
 27 40  1  0
 11 41  1  0
 41 42  1  0
 41 43  2  0
 43 44  1  0
 43  6  1  0
 40 24  1  0
 38 29  1  0
M  CHG  2   2  -1  26  -1
M  END
>  <UniqueID>  (5) 
5

>  <SMILES>  (5) 
[NH-]S(=O)(=O)c1ccc(NC(=O)CNCc2n[n-]/c(=N\c3ccc(F)cc3)s2)cc1

>  <Energy>  (5) 
87.86183634470248

>  <Genealogy>  (5) 
[NH-]S(=O)(=O)c1ccc(NC(=O)CNCc2n[n-]c(=Nc3ccc(F)cc3)s2)cc1 (protonated)
[NH-]S(=O)(=O)c1ccc(NC(=O)CNCc2n[n-]/c(=N\c3ccc(F)cc3)s2)cc1 (cis-trans isomerization)
[NH-]S(=O)(=O)c1ccc(NC(=O)CNCc2n[n-]/c(=N\c3ccc(F)cc3)s2)cc1 (3D coordinates assigned)
[NH-]S(=O)(=O)c1ccc(NC(=O)CNCc2n[n-]/c(=N\c3ccc(F)cc3)s2)cc1 (optimized conformer: 87.86183634470248 kcal/mol)

>  <smiles>  (5) 
NS(=O)(=O)c1ccc(NC(=O)CNCc2n[nH]c(=Nc3ccc(F)cc3)s2)cc1

>  <score_type>  (5) 
oracle

>  <origin>  (5) 
adg

>  <m_score__min__energy>  (5) 
-11.039999999999999

>  <m_primary>  (5) 
energy

$$$$
5:0
     RDKit          3D

 49 52  0  0  0  0  0  0  0  0999 V2000
   58.4390   30.5180   47.0130 C   0  0  0  0  0  0  0  0  0  0  0  0
   58.3840   31.7810   46.1970 C   0  0  0  0  0  0  0  0  0  0  0  0
   58.9870   32.9440   46.7060 C   0  0  0  0  0  0  0  0  0  0  0  0
   58.9720   34.1320   45.9730 C   0  0  0  0  0  0  0  0  0  0  0  0
   58.3600   34.1730   44.7210 C   0  0  0  0  0  0  0  0  0  0  0  0
   57.7670   33.0230   44.1940 C   0  0  0  0  0  0  0  0  0  0  0  0
   57.7820   31.8170   44.9130 C   0  0  0  0  0  0  0  0  0  0  0  0
   56.9800   30.3980   44.2150 S   0  0  0  0  0  0  0  0  0  0  0  0
   56.1950   30.8010   42.9960 O   0  0  0  0  0  0  0  0  0  0  0  0
   56.0330   29.7760   45.2050 O   0  0  0  0  0  0  0  0  0  0  0  0
   58.1910   29.2490   43.7740 N   0  0  0  0  0  0  0  0  0  0  0  0
   58.8080   28.4450   44.7780 C   0  0  0  0  0  0  0  0  0  0  0  0
   60.1640   28.6270   45.0740 C   0  0  0  0  0  0  0  0  0  0  0  0
   60.7600   27.8890   46.0990 C   0  0  0  0  0  0  0  0  0  0  0  0
   60.0070   26.9610   46.8240 C   0  0  0  0  0  0  0  0  0  0  0  0
   58.6450   26.7650   46.5300 C   0  0  0  0  0  0  0  0  0  0  0  0
   57.8410   25.7580   47.3080 C   0  0  0  0  0  0  0  0  0  0  0  0
   56.7890   25.1150   46.4400 C   0  0  0  0  0  0  0  0  0  0  0  0
   55.5380   25.6460   46.4590 N   0  0  0  0  0  0  0  0  0  0  0  0
   54.5540   25.1690   45.7000 N   0  0  0  0  0  0  0  0  0  0  0  0
   54.7450   24.1200   44.8640 C   0  0  0  0  0  0  0  0  0  0  0  0
   53.7860   23.7070   44.1610 O   0  0  0  0  0  0  0  0  0  0  0  0
   56.0040   23.5080   44.7960 C   0  0  0  0  0  0  0  0  0  0  0  0
   57.0550   24.0270   45.5790 C   0  0  0  0  0  0  0  0  0  0  0  0
   58.3570   23.4120   45.5100 N   0  0  0  0  0  0  0  0  0  0  0  0
   58.6680   22.4170   44.4870 C   0  0  0  0  0  0  0  0  0  0  0  0
   57.4610   21.5100   44.2670 C   0  0  0  0  0  0  0  0  0  0  0  0
   56.2440   22.3450   43.8540 C   0  0  0  0  0  0  0  0  0  0  0  0
   58.0500   27.5140   45.5020 C   0  0  0  0  0  0  0  0  0  0  0  0
   58.4279   30.7721   48.0832 H   0  0  0  0  0  0  0  0  0  0  0  0
   57.5673   29.8902   46.7762 H   0  0  0  0  0  0  0  0  0  0  0  0
   59.3619   29.9684   46.7762 H   0  0  0  0  0  0  0  0  0  0  0  0
   59.4754   32.9179   47.6913 H   0  0  0  0  0  0  0  0  0  0  0  0
   59.4436   35.0369   46.3838 H   0  0  0  0  0  0  0  0  0  0  0  0
   58.3440   35.1116   44.1476 H   0  0  0  0  0  0  0  0  0  0  0  0
   57.2838   33.0627   43.2066 H   0  0  0  0  0  0  0  0  0  0  0  0
   60.7601   29.3512   44.4994 H   0  0  0  0  0  0  0  0  0  0  0  0
   61.8237   28.0383   46.3362 H   0  0  0  0  0  0  0  0  0  0  0  0
   60.4818   26.3807   47.6289 H   0  0  0  0  0  0  0  0  0  0  0  0
   58.5159   24.9785   47.6914 H   0  0  0  0  0  0  0  0  0  0  0  0
   57.3393   26.2777   48.1376 H   0  0  0  0  0  0  0  0  0  0  0  0
   59.0720   23.5830   46.2500 H   0  0  0  0  0  0  0  0  0  0  0  0
   58.9184   22.9271   43.5451 H   0  0  0  0  0  0  0  0  0  0  0  0
   59.5238   21.8102   44.8177 H   0  0  0  0  0  0  0  0  0  0  0  0
   57.6909   20.7844   43.4729 H   0  0  0  0  0  0  0  0  0  0  0  0
   57.2332   20.9798   45.2035 H   0  0  0  0  0  0  0  0  0  0  0  0
   56.4112   22.7383   42.8404 H   0  0  0  0  0  0  0  0  0  0  0  0
   55.3586   21.6931   43.8883 H   0  0  0  0  0  0  0  0  0  0  0  0
   56.9858   27.3698   45.2640 H   0  0  0  0  0  0  0  0  0  0  0  0
  1  2  1  0
  2  3  2  0
  3  4  1  0
  4  5  2  0
  5  6  1  0
  6  7  2  0
  7  8  1  0
  8  9  2  0
  8 10  2  0
  8 11  1  0
 11 12  1  0
 12 13  2  0
 13 14  1  0
 14 15  2  0
 15 16  1  0
 16 17  1  0
 17 18  1  0
 18 19  2  0
 19 20  1  0
 20 21  1  0
 21 22  2  0
 21 23  1  0
 23 24  2  0
 24 25  1  0
 25 26  1  0
 26 27  1  0
 27 28  1  0
 16 29  2  0
  7  2  1  0
 29 12  1  0
 24 18  1  0
 28 23  1  0
  1 30  1  0
  1 31  1  0
  1 32  1  0
  3 33  1  0
  4 34  1  0
  5 35  1  0
  6 36  1  0
 13 37  1  0
 14 38  1  0
 15 39  1  0
 17 40  1  0
 17 41  1  0
 25 42  1  0
 26 43  1  0
 26 44  1  0
 27 45  1  0
 27 46  1  0
 28 47  1  0
 28 48  1  0
 29 49  1  0
M  CHG  2  11  -1  20  -1
M  END
>  <UniqueID>  (6) 
6

>  <SMILES>  (6) 
Cc1ccccc1S(=O)(=O)[N-]c1cccc(Cc2n[n-]c(=O)c3c2NCCC3)c1

>  <Energy>  (6) 
62.78652958019578

>  <Genealogy>  (6) 
Cc1ccccc1S(=O)(=O)[N-]c1cccc(Cc2n[n-]c(=O)c3c2NCCC3)c1 (protonated)
Cc1ccccc1S(=O)(=O)[N-]c1cccc(Cc2n[n-]c(=O)c3c2NCCC3)c1 (3D coordinates assigned)
Cc1ccccc1S(=O)(=O)[N-]c1cccc(Cc2n[n-]c(=O)c3c2NCCC3)c1 (nonaromatic ring conformer: 62.78652958019578 kcal/mol)

>  <smiles>  (6) 
Cc1ccccc1S(=O)(=O)Nc1cccc(Cc2n[nH]c(=O)c3c2NCCC3)c1

>  <score_type>  (6) 
oracle

>  <origin>  (6) 
adg

>  <m_score__min__energy>  (6) 
-13.359999999999999

>  <m_primary>  (6) 
energy

$$$$
6:0
     RDKit          3D

 41 43  0  0  0  0  0  0  0  0999 V2000
   58.1080   32.4160   41.2900 C   0  0  0  0  0  0  0  0  0  0  0  0
   57.7450   32.0930   42.7090 C   0  0  0  0  0  0  0  0  0  0  0  0
   57.2460   30.8280   43.0530 C   0  0  0  0  0  0  0  0  0  0  0  0
   56.8980   30.5650   44.3780 C   0  0  0  0  0  0  0  0  0  0  0  0
   57.0340   31.5320   45.3240 N   0  0  0  0  0  0  0  0  0  0  0  0
   57.5110   32.7730   45.0210 C   0  0  0  0  0  0  0  0  0  0  0  0
   57.6090   33.6950   45.9330 N   0  0  0  0  0  0  0  0  0  0  0  0
   58.8010   34.0250   46.6640 C   0  0  0  0  0  0  0  0  0  0  0  0
   58.9090   35.1860   47.1400 O   0  0  0  0  0  0  0  0  0  0  0  0
   59.9210   33.0640   46.8220 C   0  0  0  0  0  0  0  0  0  0  0  0
   61.2450   33.5160   46.9700 C   0  0  0  0  0  0  0  0  0  0  0  0
   62.2900   32.6040   47.1320 C   0  0  0  0  0  0  0  0  0  0  0  0
   62.0280   31.2330   47.1600 C   0  0  0  0  0  0  0  0  0  0  0  0
   60.7100   30.7620   47.0210 C   0  0  0  0  0  0  0  0  0  0  0  0
   60.4000   29.3950   47.0870 O   0  0  0  0  0  0  0  0  0  0  0  0
   59.5100   28.7220   46.2370 C   0  0  0  0  0  0  0  0  0  0  0  0
   59.6840   28.8230   44.8540 C   0  0  0  0  0  0  0  0  0  0  0  0
   58.8450   28.1720   44.0030 N   0  0  0  0  0  0  0  0  0  0  0  0
   57.8240   27.3990   44.4640 C   0  0  0  0  0  0  0  0  0  0  0  0
   57.6120   27.2470   45.8460 C   0  0  0  0  0  0  0  0  0  0  0  0
   56.5000   26.4070   46.3500 C   0  0  0  0  0  0  0  0  0  0  0  0
   55.1490   26.6950   45.9880 N   0  0  0  0  0  0  0  0  0  0  0  0
   56.7380   25.4200   47.0980 O   0  0  0  0  0  0  0  0  0  0  0  0
   58.4760   27.9120   46.7330 C   0  0  0  0  0  0  0  0  0  0  0  0
   59.6640   31.6810   46.8670 C   0  0  0  0  0  0  0  0  0  0  0  0
   57.8650   33.0750   43.7010 C   0  0  0  0  0  0  0  0  0  0  0  0
   58.9297   33.1472   41.2791 H   0  0  0  0  0  0  0  0  0  0  0  0
   58.4273   31.4979   40.7751 H   0  0  0  0  0  0  0  0  0  0  0  0
   57.2332   32.8398   40.7751 H   0  0  0  0  0  0  0  0  0  0  0  0
   57.1301   30.0498   42.2843 H   0  0  0  0  0  0  0  0  0  0  0  0
   56.5128   29.5734   44.6580 H   0  0  0  0  0  0  0  0  0  0  0  0
   61.4585   34.5950   46.9580 H   0  0  0  0  0  0  0  0  0  0  0  0
   63.3230   32.9670   47.2379 H   0  0  0  0  0  0  0  0  0  0  0  0
   62.8546   30.5192   47.2911 H   0  0  0  0  0  0  0  0  0  0  0  0
   60.5053   29.4333   44.4503 H   0  0  0  0  0  0  0  0  0  0  0  0
   58.9860   28.2710   42.9730 H   0  0  0  0  0  0  0  0  0  0  0  0
   57.1598   26.8894   43.7504 H   0  0  0  0  0  0  0  0  0  0  0  0
   54.4840   27.0990   46.6840 H   0  0  0  0  0  0  0  0  0  0  0  0
   58.3417   27.7975   47.8188 H   0  0  0  0  0  0  0  0  0  0  0  0
   58.6295   31.3174   46.7802 H   0  0  0  0  0  0  0  0  0  0  0  0
   58.2356   34.0783   43.4438 H   0  0  0  0  0  0  0  0  0  0  0  0
  1  2  1  0
  2  3  1  0
  3  4  2  0
  4  5  1  0
  5  6  1  0
  6  7  2  3
  7  8  1  0
  8  9  2  0
  8 10  1  0
 10 11  2  0
 11 12  1  0
 12 13  2  0
 13 14  1  0
 14 15  1  0
 15 16  1  0
 16 17  2  0
 17 18  1  0
 18 19  2  0
 19 20  1  0
 20 21  1  0
 21 22  1  0
 21 23  2  0
 20 24  2  0
 14 25  2  0
  6 26  1  0
 26  2  2  0
 25 10  1  0
 24 16  1  0
  1 27  1  0
  1 28  1  0
  1 29  1  0
  3 30  1  0
  4 31  1  0
 11 32  1  0
 12 33  1  0
 13 34  1  0
 17 35  1  0
 18 36  1  0
 19 37  1  0
 22 38  1  0
 24 39  1  0
 25 40  1  0
 26 41  1  0
M  CHG  3   5  -1  18   1  22  -1
M  END
>  <UniqueID>  (7) 
7

>  <SMILES>  (7) 
Cc1cc[n-]c(=NC(=O)c2cccc(Oc3c[nH+]cc(C([NH-])=O)c3)c2)c1

>  <Energy>  (7) 
58.32282818224631

>  <Genealogy>  (7) 
Cc1cc[n-]c(=NC(=O)c2cccc(Oc3c[nH+]cc(C([NH-])=O)c3)c2)c1 (protonated)
Cc1cc[n-]c(=NC(=O)c2cccc(Oc3c[nH+]cc(C([NH-])=O)c3)c2)c1 (3D coordinates assigned)
Cc1cc[n-]c(=NC(=O)c2cccc(Oc3c[nH+]cc(C([NH-])=O)c3)c2)c1 (optimized conformer: 58.32282818224631 kcal/mol)

>  <smiles>  (7) 
Cc1cc[nH]c(=NC(=O)c2cccc(Oc3cncc(C(N)=O)c3)c2)c1

>  <score_type>  (7) 
oracle

>  <origin>  (7) 
adg

>  <m_score__min__energy>  (7) 
-12.02

>  <m_primary>  (7) 
energy

$$$$
7:0
     RDKit          3D

 51 54  0  0  0  0  0  0  0  0999 V2000
   60.0960   29.3840   46.2870 C   0  0  0  0  0  0  0  0  0  0  0  0
   58.7250   28.9170   45.9110 C   0  0  0  0  0  0  0  0  0  0  0  0
   58.3020   27.6710   46.2590 N   0  0  0  0  0  0  0  0  0  0  0  0
   57.0440   27.4150   45.8410 C   0  0  0  0  0  0  0  0  0  0  0  0
   56.3440   26.1460   46.0800 C   0  0  0  0  0  0  0  0  0  0  0  0
   55.0880   26.1010   45.9750 O   0  0  0  0  0  0  0  0  0  0  0  0
   57.0800   24.9630   46.4310 N   0  0  0  0  0  0  0  0  0  0  0  0
   56.4340   23.6690   46.6290 C   0  0  0  0  0  0  0  0  0  0  0  0
   56.4970   22.8550   45.3640 C   0  0  0  0  0  0  0  0  0  0  0  0
   56.8840   21.5060   45.4170 C   0  0  0  0  0  0  0  0  0  0  0  0
   56.9640   20.7500   44.2430 C   0  0  0  0  0  0  0  0  0  0  0  0
   56.6600   21.3350   43.0110 C   0  0  0  0  0  0  0  0  0  0  0  0
   56.2780   22.6780   42.9500 C   0  0  0  0  0  0  0  0  0  0  0  0
   56.1980   23.4380   44.1220 C   0  0  0  0  0  0  0  0  0  0  0  0
   56.4000   28.7320   45.0220 S   0  0  0  0  0  0  0  0  0  0  0  0
   57.7820   29.6840   45.2050 C   0  0  0  0  0  0  0  0  0  0  0  0
   57.9270   31.0720   44.7000 C   0  0  0  0  0  0  0  0  0  0  0  0
   57.6570   31.3820   43.3590 C   0  0  0  0  0  0  0  0  0  0  0  0
   57.8210   32.6970   42.9290 C   0  0  0  0  0  0  0  0  0  0  0  0
   58.2280   33.6520   43.8030 N   0  0  0  0  0  0  0  0  0  0  0  0
   58.4710   33.3520   45.1050 C   0  0  0  0  0  0  0  0  0  0  0  0
   58.8800   34.2920   45.9050 N   0  0  0  0  0  0  0  0  0  0  0  0
   59.7520   34.1260   47.0340 C   0  0  0  0  0  0  0  0  0  0  0  0
   59.3780   34.5500   48.3220 C   0  0  0  0  0  0  0  0  0  0  0  0
   60.2590   34.3960   49.3960 C   0  0  0  0  0  0  0  0  0  0  0  0
   61.5250   33.8420   49.1910 C   0  0  0  0  0  0  0  0  0  0  0  0
   61.9240   33.4560   47.9040 C   0  0  0  0  0  0  0  0  0  0  0  0
   63.5200   32.7620   47.6380 S   0  0  0  0  0  0  0  0  0  0  0  0
   64.5640   33.1980   48.9450 N   0  0  0  0  0  0  0  0  0  0  0  0
   63.4160   31.2650   47.5560 O   0  0  0  0  0  0  0  0  0  0  0  0
   64.0940   33.2780   46.3480 O   0  0  0  0  0  0  0  0  0  0  0  0
   61.0360   33.6040   46.8290 C   0  0  0  0  0  0  0  0  0  0  0  0
   58.3240   32.0690   45.5370 N   0  0  0  0  0  0  0  0  0  0  0  0
   60.1853   29.4144   47.3829 H   0  0  0  0  0  0  0  0  0  0  0  0
   60.8449   28.6903   45.8772 H   0  0  0  0  0  0  0  0  0  0  0  0
   60.2657   30.3906   45.8772 H   0  0  0  0  0  0  0  0  0  0  0  0
   58.1160   25.0210   46.5570 H   0  0  0  0  0  0  0  0  0  0  0  0
   56.9483   23.1263   47.4358 H   0  0  0  0  0  0  0  0  0  0  0  0
   55.3798   23.8325   46.8974 H   0  0  0  0  0  0  0  0  0  0  0  0
   57.1250   21.0425   46.3850 H   0  0  0  0  0  0  0  0  0  0  0  0
   57.2666   19.6935   44.2896 H   0  0  0  0  0  0  0  0  0  0  0  0
   56.7214   20.7384   42.0889 H   0  0  0  0  0  0  0  0  0  0  0  0
   56.0400   23.1380   41.9796 H   0  0  0  0  0  0  0  0  0  0  0  0
   55.8999   24.4956   44.0703 H   0  0  0  0  0  0  0  0  0  0  0  0
   57.3221   30.6015   42.6599 H   0  0  0  0  0  0  0  0  0  0  0  0
   57.6204   32.9613   41.8802 H   0  0  0  0  0  0  0  0  0  0  0  0
   58.3893   35.0041   48.4844 H   0  0  0  0  0  0  0  0  0  0  0  0
   59.9549   34.7117   50.4049 H   0  0  0  0  0  0  0  0  0  0  0  0
   62.2100   33.7085   50.0413 H   0  0  0  0  0  0  0  0  0  0  0  0
   65.5430   33.0970   48.5990 H   0  0  0  0  0  0  0  0  0  0  0  0
   61.3498   33.3081   45.8171 H   0  0  0  0  0  0  0  0  0  0  0  0
  1  2  1  0
  2  3  1  0
  3  4  2  0
  4  5  1  0
  5  6  2  0
  5  7  1  0
  7  8  1  0
  8  9  1  0
  9 10  2  0
 10 11  1  0
 11 12  2  0
 12 13  1  0
 13 14  2  0
  4 15  1  0
 15 16  1  0
 16 17  1  0
 17 18  1  0
 18 19  2  0
 19 20  1  0
 20 21  1  0
 21 22  2  3
 22 23  1  0
 23 24  2  0
 24 25  1  0
 25 26  2  0
 26 27  1  0
 27 28  1  0
 28 29  1  0
 28 30  2  0
 28 31  2  0
 27 32  2  0
 21 33  1  0
 16  2  2  0
 33 17  2  0
 14  9  1  0
 32 23  1  0
  1 34  1  0
  1 35  1  0
  1 36  1  0
  7 37  1  0
  8 38  1  0
  8 39  1  0
 10 40  1  0
 11 41  1  0
 12 42  1  0
 13 43  1  0
 14 44  1  0
 18 45  1  0
 19 46  1  0
 24 47  1  0
 25 48  1  0
 26 49  1  0
 29 50  1  0
 32 51  1  0
M  CHG  2  20  -1  29  -1
M  END
>  <UniqueID>  (8) 
8

>  <SMILES>  (8) 
Cc1nc(C(=O)NCc2ccccc2)sc1-c1cc[n-]c(=Nc2cccc(S([NH-])(=O)=O)c2)n1

>  <Energy>  (8) 
88.66456732813212

>  <Genealogy>  (8) 
Cc1nc(C(=O)NCc2ccccc2)sc1-c1cc[n-]c(=Nc2cccc(S([NH-])(=O)=O)c2)n1 (protonated)
Cc1nc(C(=O)NCc2ccccc2)sc1-c1cc[n-]c(=Nc2cccc(S([NH-])(=O)=O)c2)n1 (3D coordinates assigned)
Cc1nc(C(=O)NCc2ccccc2)sc1-c1cc[n-]c(=Nc2cccc(S([NH-])(=O)=O)c2)n1 (optimized conformer: 88.66456732813212 kcal/mol)

>  <smiles>  (8) 
Cc1nc(C(=O)NCc2ccccc2)sc1-c1cc[nH]c(=Nc2cccc(S(N)(=O)=O)c2)n1

>  <score_type>  (8) 
oracle

>  <origin>  (8) 
adg

>  <m_score__min__energy>  (8) 
-13.67

>  <m_primary>  (8) 
energy

$$$$
8:0
     RDKit          3D

 38 40  0  0  0  0  0  0  0  0999 V2000
   54.7700   26.3690   46.1130 N   0  0  0  0  0  0  0  0  0  0  0  0
   56.0660   25.2370   45.9590 S   0  0  0  0  0  0  0  0  0  0  0  0
   55.9280   24.4850   44.6650 O   0  0  0  0  0  0  0  0  0  0  0  0
   56.0070   24.2550   47.0960 O   0  0  0  0  0  0  0  0  0  0  0  0
   57.6030   26.0960   45.9850 C   0  0  0  0  0  0  0  0  0  0  0  0
   58.8100   25.3840   46.0220 C   0  0  0  0  0  0  0  0  0  0  0  0
   60.0250   26.0700   46.0760 C   0  0  0  0  0  0  0  0  0  0  0  0
   60.0440   27.4670   46.0900 C   0  0  0  0  0  0  0  0  0  0  0  0
   58.8440   28.1930   46.0370 C   0  0  0  0  0  0  0  0  0  0  0  0
   58.8870   29.6290   46.0840 N   0  0  0  0  0  0  0  0  0  0  0  0
   57.7520   30.4720   45.8330 C   0  0  0  0  0  0  0  0  0  0  0  0
   56.7320   30.0180   45.2490 O   0  0  0  0  0  0  0  0  0  0  0  0
   57.7660   31.9020   46.2820 C   0  0  0  0  0  0  0  0  0  0  0  0
   59.1540   32.3590   46.4540 N   0  0  0  0  0  0  0  0  0  0  0  0
   59.6280   33.3520   45.6420 C   0  0  0  0  0  0  0  0  0  0  0  0
   60.8900   33.8270   45.7930 N   0  0  0  0  0  0  0  0  0  0  0  0
   61.7150   33.3400   46.7510 C   0  0  0  0  0  0  0  0  0  0  0  0
   63.0120   33.8480   46.8850 C   0  0  0  0  0  0  0  0  0  0  0  0
   63.8610   33.3510   47.8780 C   0  0  0  0  0  0  0  0  0  0  0  0
   63.4170   32.3440   48.7400 C   0  0  0  0  0  0  0  0  0  0  0  0
   62.1220   31.8300   48.6140 C   0  0  0  0  0  0  0  0  0  0  0  0
   61.2600   32.3240   47.6170 C   0  0  0  0  0  0  0  0  0  0  0  0
   59.9490   31.8450   47.4480 C   0  0  0  0  0  0  0  0  0  0  0  0
   59.5070   30.9440   48.2140 O   0  0  0  0  0  0  0  0  0  0  0  0
   57.6220   27.4970   46.0060 C   0  0  0  0  0  0  0  0  0  0  0  0
   54.1750   26.2690   45.2600 H   0  0  0  0  0  0  0  0  0  0  0  0
   58.8000   24.2841   46.0085 H   0  0  0  0  0  0  0  0  0  0  0  0
   60.9705   25.5086   46.1076 H   0  0  0  0  0  0  0  0  0  0  0  0
   61.0044   28.0006   46.1428 H   0  0  0  0  0  0  0  0  0  0  0  0
   59.8090   30.0880   46.2570 H   0  0  0  0  0  0  0  0  0  0  0  0
   57.2673   32.5266   45.5262 H   0  0  0  0  0  0  0  0  0  0  0  0
   57.2355   31.9855   47.2420 H   0  0  0  0  0  0  0  0  0  0  0  0
   58.9793   33.7701   44.8581 H   0  0  0  0  0  0  0  0  0  0  0  0
   63.3641   34.6399   46.2076 H   0  0  0  0  0  0  0  0  0  0  0  0
   64.8798   33.7528   47.9813 H   0  0  0  0  0  0  0  0  0  0  0  0
   64.0880   31.9546   49.5198 H   0  0  0  0  0  0  0  0  0  0  0  0
   61.7768   31.0384   49.2953 H   0  0  0  0  0  0  0  0  0  0  0  0
   56.6748   28.0563   45.9982 H   0  0  0  0  0  0  0  0  0  0  0  0
  1  2  1  0
  2  3  2  0
  2  4  2  0
  2  5  1  0
  5  6  2  0
  6  7  1  0
  7  8  2  0
  8  9  1  0
  9 10  1  0
 10 11  1  0
 11 12  2  0
 11 13  1  0
 13 14  1  0
 14 15  1  0
 15 16  2  0
 16 17  1  0
 17 18  2  0
 18 19  1  0
 19 20  2  0
 20 21  1  0
 21 22  2  0
 22 23  1  0
 23 24  2  0
  9 25  2  0
 25  5  1  0
 23 14  1  0
 22 17  1  0
  1 26  1  0
  6 27  1  0
  7 28  1  0
  8 29  1  0
 10 30  1  0
 13 31  1  0
 13 32  1  0
 15 33  1  0
 18 34  1  0
 19 35  1  0
 20 36  1  0
 21 37  1  0
 25 38  1  0
M  CHG  1   1  -1
M  END
>  <UniqueID>  (9) 
9

>  <SMILES>  (9) 
[NH-]S(=O)(=O)c1cccc(NC(=O)Cn2cnc3ccccc3c2=O)c1

>  <Energy>  (9) 
48.462645995461365

>  <Genealogy>  (9) 
[NH-]S(=O)(=O)c1cccc(NC(=O)Cn2cnc3ccccc3c2=O)c1 (protonated)
[NH-]S(=O)(=O)c1cccc(NC(=O)Cn2cnc3ccccc3c2=O)c1 (3D coordinates assigned)
[NH-]S(=O)(=O)c1cccc(NC(=O)Cn2cnc3ccccc3c2=O)c1 (optimized conformer: 48.462645995461365 kcal/mol)

>  <smiles>  (9) 
NS(=O)(=O)c1cccc(NC(=O)Cn2cnc3ccccc3c2=O)c1

>  <score_type>  (9) 
oracle

>  <origin>  (9) 
adg

>  <m_score__min__energy>  (9) 
-12.09

>  <m_primary>  (9) 
energy

$$$$
9:0
     RDKit          3D

 40 43  0  0  0  0  0  0  0  0999 V2000
   55.7920   19.2360   44.5400 C   0  0  0  0  0  0  0  0  0  0  0  0
   56.4320   20.5510   44.8340 C   0  0  0  0  0  0  0  0  0  0  0  0
   57.7760   20.7340   44.9010 N   0  0  0  0  0  0  0  0  0  0  0  0
   58.0830   22.0090   45.2530 C   0  0  0  0  0  0  0  0  0  0  0  0
   59.3590   22.5410   45.4100 C   0  0  0  0  0  0  0  0  0  0  0  0
   60.3870   21.8390   45.2210 O   0  0  0  0  0  0  0  0  0  0  0  0
   59.4790   23.8490   45.7770 N   0  0  0  0  0  0  0  0  0  0  0  0
   58.3810   24.6430   45.9940 C   0  0  0  0  0  0  0  0  0  0  0  0
   58.5540   26.0610   46.3950 C   0  0  0  0  0  0  0  0  0  0  0  0
   59.6260   26.4470   47.2220 C   0  0  0  0  0  0  0  0  0  0  0  0
   59.7880   27.7810   47.5970 C   0  0  0  0  0  0  0  0  0  0  0  0
   58.8850   28.7500   47.1560 C   0  0  0  0  0  0  0  0  0  0  0  0
   57.8080   28.3880   46.3290 C   0  0  0  0  0  0  0  0  0  0  0  0
   56.8610   29.3500   45.8470 N   0  0  0  0  0  0  0  0  0  0  0  0
   57.1750   30.5360   44.6200 S   0  0  0  0  0  0  0  0  0  0  0  0
   55.8880   30.8530   43.9090 O   0  0  0  0  0  0  0  0  0  0  0  0
   58.1540   29.9670   43.6330 O   0  0  0  0  0  0  0  0  0  0  0  0
   57.8670   31.9950   45.3300 C   0  0  0  0  0  0  0  0  0  0  0  0
   58.1570   32.0360   46.7030 C   0  0  0  0  0  0  0  0  0  0  0  0
   58.7020   33.1910   47.2730 C   0  0  0  0  0  0  0  0  0  0  0  0
   58.9680   34.3070   46.4760 C   0  0  0  0  0  0  0  0  0  0  0  0
   59.4970   35.4250   47.0300 F   0  0  0  0  0  0  0  0  0  0  0  0
   58.6920   34.2690   45.1060 C   0  0  0  0  0  0  0  0  0  0  0  0
   58.1450   33.1160   44.5310 C   0  0  0  0  0  0  0  0  0  0  0  0
   57.8950   33.0970   43.1970 F   0  0  0  0  0  0  0  0  0  0  0  0
   57.6500   27.0480   45.9560 C   0  0  0  0  0  0  0  0  0  0  0  0
   57.1280   24.1190   45.8420 N   0  0  0  0  0  0  0  0  0  0  0  0
   56.9970   22.8230   45.4750 C   0  0  0  0  0  0  0  0  0  0  0  0
   55.5760   21.9620   45.2390 S   0  0  0  0  0  0  0  0  0  0  0  0
   55.5452   18.7290   45.4845 H   0  0  0  0  0  0  0  0  0  0  0  0
   54.8718   19.3977   43.9594 H   0  0  0  0  0  0  0  0  0  0  0  0
   56.4870   18.6116   43.9594 H   0  0  0  0  0  0  0  0  0  0  0  0
   58.4800   19.9850   44.7130 H   0  0  0  0  0  0  0  0  0  0  0  0
   60.3419   25.6904   47.5755 H   0  0  0  0  0  0  0  0  0  0  0  0
   60.6304   28.0703   48.2425 H   0  0  0  0  0  0  0  0  0  0  0  0
   59.0169   29.7999   47.4567 H   0  0  0  0  0  0  0  0  0  0  0  0
   57.9549   31.1569   47.3325 H   0  0  0  0  0  0  0  0  0  0  0  0
   58.9215   33.2207   48.3505 H   0  0  0  0  0  0  0  0  0  0  0  0
   58.9052   35.1470   44.4786 H   0  0  0  0  0  0  0  0  0  0  0  0
   56.8069   26.7614   45.3102 H   0  0  0  0  0  0  0  0  0  0  0  0
  1  2  1  0
  2  3  2  0
  3  4  1  0
  4  5  1  0
  5  6  2  0
  5  7  1  0
  7  8  1  0
  8  9  1  0
  9 10  2  0
 10 11  1  0
 11 12  2  0
 12 13  1  0
 13 14  1  0
 14 15  1  0
 15 16  2  0
 15 17  2  0
 15 18  1  0
 18 19  2  0
 19 20  1  0
 20 21  2  0
 21 22  1  0
 21 23  1  0
 23 24  2  0
 24 25  1  0
 13 26  2  0
  8 27  2  0
 27 28  1  0
 28 29  1  0
 29  2  1  0
 28  4  2  0
 26  9  1  0
 24 18  1  0
  1 30  1  0
  1 31  1  0
  1 32  1  0
  3 33  1  0
 10 34  1  0
 11 35  1  0
 12 36  1  0
 19 37  1  0
 20 38  1  0
 23 39  1  0
 26 40  1  0
M  CHG  3   3   1   7  -1  14  -1
M  END
>  <UniqueID>  (10) 
10

>  <SMILES>  (10) 
Cc1[nH+]c2c(=O)[n-]c(-c3cccc([N-]S(=O)(=O)c4ccc(F)cc4F)c3)nc2s1

>  <Energy>  (10) 
86.02764648606617

>  <Genealogy>  (10) 
Cc1[nH+]c2c(=O)[n-]c(-c3cccc([N-]S(=O)(=O)c4ccc(F)cc4F)c3)nc2s1 (protonated)
Cc1[nH+]c2c(=O)[n-]c(-c3cccc([N-]S(=O)(=O)c4ccc(F)cc4F)c3)nc2s1 (3D coordinates assigned)
Cc1[nH+]c2c(=O)[n-]c(-c3cccc([N-]S(=O)(=O)c4ccc(F)cc4F)c3)nc2s1 (optimized conformer: 86.02764648606617 kcal/mol)

>  <smiles>  (10) 
Cc1nc2c(=O)[nH]c(-c3cccc(NS(=O)(=O)c4ccc(F)cc4F)c3)nc2s1

>  <score_type>  (10) 
oracle

>  <origin>  (10) 
adg

>  <m_score__min__energy>  (10) 
-10.58

>  <m_primary>  (10) 
energy

$$$$
10:0
     RDKit          3D

 55 58  0  0  1  0  0  0  0  0999 V2000
   56.4590   22.2420   42.8500 C   0  0  0  0  0  0  0  0  0  0  0  0
   57.1500   23.0810   43.8670 C   0  0  0  0  0  0  0  0  0  0  0  0
   58.3230   22.5970   44.4300 C   0  0  0  0  0  0  0  0  0  0  0  0
   58.9990   23.3460   45.3800 C   0  0  0  0  0  0  0  0  0  0  0  0
   58.4980   24.5790   45.7650 C   0  0  0  0  0  0  0  0  0  0  0  0
   59.2250   25.3410   46.7520 N   0  0  0  0  0  0  0  0  0  0  0  0
   60.4680   25.9740   46.4150 C   0  0  0  0  0  0  0  0  0  0  0  0
   60.4220   27.4580   46.5080 C   0  0  0  0  0  0  0  0  0  0  0  0
   60.6360   28.2920   45.4340 C   0  0  0  0  0  0  0  0  0  0  0  0
   60.5800   29.6490   45.5760 C   0  0  0  0  0  0  0  0  0  0  0  0
   60.3030   30.2710   46.8060 C   0  0  0  0  0  0  0  0  0  0  0  0
   60.2760   31.6130   46.8170 O   0  0  0  0  0  0  0  0  0  0  0  0
   60.5370   32.6120   47.7110 C   0  0  0  0  0  0  0  0  0  0  0  0
   61.9330   32.7090   48.1880 C   0  0  0  0  0  0  0  0  0  0  0  0
   62.2390   31.9960   49.3500 C   0  0  0  0  0  0  0  0  0  0  0  0
   63.4940   32.0160   49.9160 C   0  0  0  0  0  0  0  0  0  0  0  0
   64.5030   32.7670   49.3250 C   0  0  0  0  0  0  0  0  0  0  0  0
   66.0820   32.7640   50.0770 Cl  0  0  0  0  0  0  0  0  0  0  0  0
   64.2100   33.4720   48.1790 C   0  0  0  0  0  0  0  0  0  0  0  0
   62.9310   33.4340   47.6270 C   0  0  0  0  0  0  0  0  0  0  0  0
   60.0940   29.4090   47.8570 C   0  0  0  0  0  0  0  0  0  0  0  0
   60.1480   28.0290   47.7290 C   0  0  0  0  0  0  0  0  0  0  0  0
   57.3300   25.0610   45.2050 C   0  0  0  0  0  0  0  0  0  0  0  0
   56.6830   26.5950   45.6750 S   0  0  0  0  0  0  0  0  0  0  0  0
   55.2400   26.5040   46.0020 O   0  0  0  0  0  0  0  0  0  0  0  0
   57.3930   26.9950   46.9490 O   0  0  0  0  0  0  0  0  0  0  0  0
   57.0330   27.8530   44.5370 N   0  0  0  0  0  0  0  0  0  0  0  0
   57.2530   29.0130   44.8000 C   0  0  0  0  0  0  0  0  0  0  0  0
   57.6400   29.7490   45.8740 N   0  0  0  0  0  0  0  0  0  0  0  0
   57.7870   30.9910   45.8280 N   0  0  0  0  0  0  0  0  0  0  0  0
   57.5680   31.7080   44.6890 C   0  0  0  0  0  0  0  0  0  0  0  0
   57.6410   32.8960   44.3990 O   0  0  0  0  0  0  0  0  0  0  0  0
   57.0640   30.3780   43.4670 S   0  0  0  0  0  0  0  0  0  0  0  0
   56.6620   24.3100   44.2600 C   0  0  0  0  0  0  0  0  0  0  0  0
   55.8383   21.4884   43.3568 H   0  0  0  0  0  0  0  0  0  0  0  0
   55.8207   22.8798   42.2208 H   0  0  0  0  0  0  0  0  0  0  0  0
   57.2073   21.7378   42.2208 H   0  0  0  0  0  0  0  0  0  0  0  0
   58.7166   21.6172   44.1215 H   0  0  0  0  0  0  0  0  0  0  0  0
   59.9288   22.9634   45.8262 H   0  0  0  0  0  0  0  0  0  0  0  0
   58.8030   25.4050   47.7100 H   0  0  0  0  0  0  0  0  0  0  0  0
   61.2439   25.6059   47.1024 H   0  0  0  0  0  0  0  0  0  0  0  0
   60.6860   25.7219   45.3667 H   0  0  0  0  0  0  0  0  0  0  0  0
   60.8553   27.8590   44.4469 H   0  0  0  0  0  0  0  0  0  0  0  0
   60.7587   30.2804   44.6931 H   0  0  0  0  0  0  0  0  0  0  0  0
   60.2782   33.5678   47.2320 H   0  0  0  0  0  0  0  0  0  0  0  0
   59.9359   32.3763   48.6016 H   0  0  0  0  0  0  0  0  0  0  0  0
   61.4499   31.3980   49.8292 H   0  0  0  0  0  0  0  0  0  0  0  0
   63.6969   31.4405   50.8312 H   0  0  0  0  0  0  0  0  0  0  0  0
   64.9942   34.0718   47.6939 H   0  0  0  0  0  0  0  0  0  0  0  0
   62.7260   34.0079   46.7113 H   0  0  0  0  0  0  0  0  0  0  0  0
   59.8733   29.8346   48.8470 H   0  0  0  0  0  0  0  0  0  0  0  0
   59.9712   27.3894   48.6063 H   0  0  0  0  0  0  0  0  0  0  0  0
   57.8170   29.1750   46.7850 H   0  0  0  0  0  0  0  0  0  0  0  0
   58.0970   31.5780   46.6880 H   0  0  0  0  0  0  0  0  0  0  0  0
   55.7320   24.6946   43.8159 H   0  0  0  0  0  0  0  0  0  0  0  0
  1  2  1  0
  2  3  2  0
  3  4  1  0
  4  5  2  0
  5  6  1  0
  6  7  1  0
  7  8  1  0
  8  9  2  0
  9 10  1  0
 10 11  2  0
 11 12  1  0
 12 13  1  0
 13 14  1  0
 14 15  2  0
 15 16  1  0
 16 17  2  0
 17 18  1  0
 17 19  1  0
 19 20  2  0
 11 21  1  0
 21 22  2  0
  5 23  1  0
 23 24  1  0
 24 25  2  0
 24 26  2  0
 24 27  1  0
 27 28  2  0
 28 29  1  0
 29 30  1  0
 30 31  1  0
 31 32  2  0
 31 33  1  0
 23 34  2  0
 34  2  1  0
 22  8  1  0
 33 28  1  0
 20 14  1  0
  1 35  1  0
  1 36  1  0
  1 37  1  0
  3 38  1  0
  4 39  1  0
  6 40  1  0
  7 41  1  0
  7 42  1  0
  9 43  1  0
 10 44  1  0
 13 45  1  0
 13 46  1  0
 15 47  1  0
 16 48  1  0
 19 49  1  0
 20 50  1  0
 21 51  1  0
 22 52  1  0
 29 53  1  0
 30 54  1  0
 34 55  1  0
M  END
>  <smiles>  (11) 
Cc1ccc(NCc2ccc(OCc3ccc(Cl)cc3)cc2)c(S(=O)(=O)N=c2[nH][nH]c(=O)s2)c1

>  <score_type>  (11) 
oracle

>  <origin>  (11) 
adg

>  <m_score__min__energy>  (11) 
-10.529999999999999

>  <m_primary>  (11) 
energy

$$$$
11:0
     RDKit          3D

 45 48  0  0  0  0  0  0  0  0999 V2000
   56.1200   30.0650   42.8060 O   0  0  0  0  0  0  0  0  0  0  0  0
   56.0270   29.6720   43.9990 C   0  0  0  0  0  0  0  0  0  0  0  0
   54.7770   29.3270   44.4990 O   0  0  0  0  0  0  0  0  0  0  0  0
   57.2290   29.5790   44.8570 C   0  0  0  0  0  0  0  0  0  0  0  0
   57.3720   28.5270   45.7800 C   0  0  0  0  0  0  0  0  0  0  0  0
   58.5090   28.4430   46.5880 C   0  0  0  0  0  0  0  0  0  0  0  0
   59.5270   29.4030   46.4820 C   0  0  0  0  0  0  0  0  0  0  0  0
   60.7350   29.3320   47.3770 C   0  0  0  0  0  0  0  0  0  0  0  0
   60.6270   30.3520   48.5080 C   0  0  0  0  0  0  0  0  0  0  0  0
   59.3520   31.0510   48.4150 N   0  0  0  0  0  0  0  0  0  0  0  0
   59.0750   32.2530   49.1370 C   0  0  0  0  0  0  0  0  0  0  0  0
   58.4990   32.2030   50.2600 O   0  0  0  0  0  0  0  0  0  0  0  0
   59.4760   33.5800   48.5550 C   0  0  0  0  0  0  0  0  0  0  0  0
   60.9850   33.7160   48.6000 C   0  0  0  0  0  0  0  0  0  0  0  0
   61.6410   33.8430   49.8360 C   0  0  0  0  0  0  0  0  0  0  0  0
   63.0360   33.9030   49.8930 C   0  0  0  0  0  0  0  0  0  0  0  0
   63.7880   33.8300   48.7180 C   0  0  0  0  0  0  0  0  0  0  0  0
   63.1460   33.7060   47.4830 C   0  0  0  0  0  0  0  0  0  0  0  0
   61.7490   33.6570   47.4180 C   0  0  0  0  0  0  0  0  0  0  0  0
   61.1260   33.5710   46.1710 O   0  0  0  0  0  0  0  0  0  0  0  0
   59.7400   33.6550   46.0270 C   0  0  0  0  0  0  0  0  0  0  0  0
   59.1860   33.7030   44.7430 C   0  0  0  0  0  0  0  0  0  0  0  0
   57.8040   33.8240   44.5770 C   0  0  0  0  0  0  0  0  0  0  0  0
   56.9700   33.8980   45.6960 C   0  0  0  0  0  0  0  0  0  0  0  0
   57.5140   33.8400   46.9820 C   0  0  0  0  0  0  0  0  0  0  0  0
   58.9020   33.7140   47.1590 C   0  0  0  0  0  0  0  0  0  0  0  0
   59.3820   30.4610   45.5720 C   0  0  0  0  0  0  0  0  0  0  0  0
   58.2450   30.5450   44.7620 C   0  0  0  0  0  0  0  0  0  0  0  0
   56.5832   27.7652   45.8663 H   0  0  0  0  0  0  0  0  0  0  0  0
   58.6066   27.6198   47.3111 H   0  0  0  0  0  0  0  0  0  0  0  0
   60.8075   28.3221   47.8068 H   0  0  0  0  0  0  0  0  0  0  0  0
   61.6316   29.5573   46.7809 H   0  0  0  0  0  0  0  0  0  0  0  0
   60.6906   29.8335   49.4760 H   0  0  0  0  0  0  0  0  0  0  0  0
   61.4489   31.0783   48.4249 H   0  0  0  0  0  0  0  0  0  0  0  0
   59.0640   34.4092   49.1488 H   0  0  0  0  0  0  0  0  0  0  0  0
   61.0531   33.8955   50.7642 H   0  0  0  0  0  0  0  0  0  0  0  0
   63.5423   34.0078   50.8639 H   0  0  0  0  0  0  0  0  0  0  0  0
   64.8863   33.8702   48.7649 H   0  0  0  0  0  0  0  0  0  0  0  0
   63.7404   33.6467   46.5594 H   0  0  0  0  0  0  0  0  0  0  0  0
   59.8409   33.6453   43.8611 H   0  0  0  0  0  0  0  0  0  0  0  0
   57.3725   33.8610   43.5658 H   0  0  0  0  0  0  0  0  0  0  0  0
   55.8829   34.0021   45.5642 H   0  0  0  0  0  0  0  0  0  0  0  0
   56.8526   33.8932   47.8593 H   0  0  0  0  0  0  0  0  0  0  0  0
   60.1665   31.2282   45.4953 H   0  0  0  0  0  0  0  0  0  0  0  0
   58.1453   31.3734   44.0452 H   0  0  0  0  0  0  0  0  0  0  0  0
  1  2  2  0
  2  3  1  0
  2  4  1  0
  4  5  2  0
  5  6  1  0
  6  7  2  0
  7  8  1  0
  8  9  1  0
  9 10  1  0
 10 11  1  0
 11 12  2  0
 11 13  1  0
 13 14  1  0
 14 15  2  0
 15 16  1  0
 16 17  2  0
 17 18  1  0
 18 19  2  0
 19 20  1  0
 20 21  1  0
 21 22  2  0
 22 23  1  0
 23 24  2  0
 24 25  1  0
 25 26  2  0
  7 27  1  0
 27 28  2  0
 28  4  1  0
 26 13  1  0
 19 14  1  0
 26 21  1  0
  5 29  1  0
  6 30  1  0
  8 31  1  0
  8 32  1  0
  9 33  1  0
  9 34  1  0
 13 35  1  0
 15 36  1  0
 16 37  1  0
 17 38  1  0
 18 39  1  0
 22 40  1  0
 23 41  1  0
 24 42  1  0
 25 43  1  0
 27 44  1  0
 28 45  1  0
M  CHG  2   3  -1  10  -1
M  END
>  <UniqueID>  (12) 
11

>  <SMILES>  (12) 
O=C([O-])c1ccc(CC[N-]C(=O)C2c3ccccc3Oc3ccccc32)cc1

>  <Energy>  (12) 
47.62057612923104

>  <Genealogy>  (12) 
O=C([O-])c1ccc(CC[N-]C(=O)C2c3ccccc3Oc3ccccc32)cc1 (protonated)
O=C([O-])c1ccc(CC[N-]C(=O)C2c3ccccc3Oc3ccccc32)cc1 (3D coordinates assigned)
O=C([O-])c1ccc(CC[N-]C(=O)C2c3ccccc3Oc3ccccc32)cc1 (nonaromatic ring conformer: 47.62057612923104 kcal/mol)

>  <smiles>  (12) 
O=C(O)c1ccc(CCNC(=O)C2c3ccccc3Oc3ccccc32)cc1

>  <score_type>  (12) 
oracle

>  <origin>  (12) 
adg

>  <m_score__min__energy>  (12) 
-12.699999999999999

>  <m_primary>  (12) 
energy

$$$$
12:0
     RDKit          3D

 53 56  0  0  0  0  0  0  0  0999 V2000
   61.5900   33.5310   49.5550 O   0  0  0  0  0  0  0  0  0  0  0  0
   60.3900   33.4100   49.1930 C   0  0  0  0  0  0  0  0  0  0  0  0
   59.6670   34.5850   48.6190 C   0  0  0  0  0  0  0  0  0  0  0  0
   59.0760   34.2200   47.2850 C   0  0  0  0  0  0  0  0  0  0  0  0
   57.8990   33.4600   47.2190 C   0  0  0  0  0  0  0  0  0  0  0  0
   57.3730   33.0780   45.9800 C   0  0  0  0  0  0  0  0  0  0  0  0
   58.0290   33.4390   44.7900 C   0  0  0  0  0  0  0  0  0  0  0  0
   57.5340   33.0860   43.5260 O   0  0  0  0  0  0  0  0  0  0  0  0
   57.6690   31.8250   42.9280 C   0  0  0  0  0  0  0  0  0  0  0  0
   57.9220   31.7290   41.6950 O   0  0  0  0  0  0  0  0  0  0  0  0
   57.4540   30.6030   43.7340 C   0  0  0  0  0  0  0  0  0  0  0  0
   58.5400   29.8000   44.1260 C   0  0  0  0  0  0  0  0  0  0  0  0
   58.3300   28.6510   44.8940 C   0  0  0  0  0  0  0  0  0  0  0  0
   57.0400   28.2950   45.2980 C   0  0  0  0  0  0  0  0  0  0  0  0
   56.8630   27.1000   46.0730 N   0  0  0  0  0  0  0  0  0  0  0  0
   55.9790   26.0130   45.7640 C   0  0  0  0  0  0  0  0  0  0  0  0
   54.7470   26.1570   45.9840 O   0  0  0  0  0  0  0  0  0  0  0  0
   56.4530   24.7550   45.1520 C   0  0  0  0  0  0  0  0  0  0  0  0
   55.6220   23.9690   44.3370 C   0  0  0  0  0  0  0  0  0  0  0  0
   56.1020   22.8120   43.8070 N   0  0  0  0  0  0  0  0  0  0  0  0
   57.3710   22.3970   44.0540 C   0  0  0  0  0  0  0  0  0  0  0  0
   58.1950   23.1650   44.8780 C   0  0  0  0  0  0  0  0  0  0  0  0
   57.7170   24.3210   45.4100 N   0  0  0  0  0  0  0  0  0  0  0  0
   55.9490   29.0780   44.8890 C   0  0  0  0  0  0  0  0  0  0  0  0
   56.1560   30.2280   44.1200 C   0  0  0  0  0  0  0  0  0  0  0  0
   59.1970   34.2070   44.8590 C   0  0  0  0  0  0  0  0  0  0  0  0
   59.7250   34.5860   46.0960 C   0  0  0  0  0  0  0  0  0  0  0  0
   59.7090   32.1550   49.3190 N   0  0  0  0  0  0  0  0  0  0  0  0
   59.9130   30.9960   48.5020 C   0  0  0  0  0  0  0  0  0  0  0  0
   60.8830   31.0460   47.4930 C   0  0  0  0  0  0  0  0  0  0  0  0
   61.1370   29.9230   46.7000 C   0  0  0  0  0  0  0  0  0  0  0  0
   60.4340   28.7360   46.9190 C   0  0  0  0  0  0  0  0  0  0  0  0
   59.4800   28.6660   47.9440 C   0  0  0  0  0  0  0  0  0  0  0  0
   58.7880   27.4820   48.1870 O   0  0  0  0  0  0  0  0  0  0  0  0
   59.2210   29.7930   48.7330 C   0  0  0  0  0  0  0  0  0  0  0  0
   58.8616   34.8881   49.3042 H   0  0  0  0  0  0  0  0  0  0  0  0
   60.3747   35.4166   48.4865 H   0  0  0  0  0  0  0  0  0  0  0  0
   57.3868   33.1628   48.1460 H   0  0  0  0  0  0  0  0  0  0  0  0
   56.4425   32.4929   45.9368 H   0  0  0  0  0  0  0  0  0  0  0  0
   59.5613   30.0779   43.8263 H   0  0  0  0  0  0  0  0  0  0  0  0
   59.1857   28.0227   45.1824 H   0  0  0  0  0  0  0  0  0  0  0  0
   54.5898   24.2870   44.1287 H   0  0  0  0  0  0  0  0  0  0  0  0
   57.7463   21.4638   43.6086 H   0  0  0  0  0  0  0  0  0  0  0  0
   59.2225   22.8377   45.0951 H   0  0  0  0  0  0  0  0  0  0  0  0
   54.9275   28.7861   45.1743 H   0  0  0  0  0  0  0  0  0  0  0  0
   55.2965   30.8432   43.8153 H   0  0  0  0  0  0  0  0  0  0  0  0
   59.7033   34.5147   43.9322 H   0  0  0  0  0  0  0  0  0  0  0  0
   60.6537   35.1740   46.1379 H   0  0  0  0  0  0  0  0  0  0  0  0
   61.4483   31.9743   47.3235 H   0  0  0  0  0  0  0  0  0  0  0  0
   61.8922   29.9743   45.9018 H   0  0  0  0  0  0  0  0  0  0  0  0
   60.6288   27.8566   46.2876 H   0  0  0  0  0  0  0  0  0  0  0  0
   58.0760   27.1430   47.5500 H   0  0  0  0  0  0  0  0  0  0  0  0
   58.4728   29.7377   49.5375 H   0  0  0  0  0  0  0  0  0  0  0  0
  1  2  2  0
  2  3  1  0
  3  4  1  0
  4  5  2  0
  5  6  1  0
  6  7  2  0
  7  8  1  0
  8  9  1  0
  9 10  2  0
  9 11  1  0
 11 12  2  0
 12 13  1  0
 13 14  2  0
 14 15  1  0
 15 16  1  0
 16 17  2  0
 16 18  1  0
 18 19  2  0
 19 20  1  0
 20 21  2  0
 21 22  1  0
 22 23  2  0
 14 24  1  0
 24 25  2  0
  7 26  1  0
 26 27  2  0
  2 28  1  0
 28 29  1  0
 29 30  2  0
 30 31  1  0
 31 32  2  0
 32 33  1  0
 33 34  1  0
 33 35  2  0
 27  4  1  0
 35 29  1  0
 25 11  1  0
 23 18  1  0
  3 36  1  0
  3 37  1  0
  5 38  1  0
  6 39  1  0
 12 40  1  0
 13 41  1  0
 19 42  1  0
 21 43  1  0
 22 44  1  0
 24 45  1  0
 25 46  1  0
 26 47  1  0
 27 48  1  0
 30 49  1  0
 31 50  1  0
 32 51  1  0
 34 52  1  0
 35 53  1  0
M  CHG  2  15  -1  28  -1
M  END
>  <UniqueID>  (13) 
12

>  <SMILES>  (13) 
O=C(Cc1ccc(OC(=O)c2ccc([N-]C(=O)c3cnccn3)cc2)cc1)[N-]c1cccc(O)c1

>  <Energy>  (13) 
72.56049727703785

>  <Genealogy>  (13) 
O=C(Cc1ccc(OC(=O)c2ccc([N-]C(=O)c3cnccn3)cc2)cc1)[N-]c1cccc(O)c1 (protonated)
O=C(Cc1ccc(OC(=O)c2ccc([N-]C(=O)c3cnccn3)cc2)cc1)[N-]c1cccc(O)c1 (3D coordinates assigned)
O=C(Cc1ccc(OC(=O)c2ccc([N-]C(=O)c3cnccn3)cc2)cc1)[N-]c1cccc(O)c1 (optimized conformer: 72.56049727703785 kcal/mol)

>  <smiles>  (13) 
O=C(Cc1ccc(OC(=O)c2ccc(NC(=O)c3cnccn3)cc2)cc1)Nc1cccc(O)c1

>  <score_type>  (13) 
oracle

>  <origin>  (13) 
adg

>  <m_score__min__energy>  (13) 
-12.859999999999999

>  <m_primary>  (13) 
energy

$$$$
13:0
     RDKit          3D

 35 37  0  0  0  0  0  0  0  0999 V2000
   60.7720   28.4320   44.5000 O   0  0  0  0  0  0  0  0  0  0  0  0
   60.0330   28.7660   45.4640 C   0  0  0  0  0  0  0  0  0  0  0  0
   60.5320   29.7280   46.4060 N   0  0  0  0  0  0  0  0  0  0  0  0
   60.0670   29.9470   47.7480 C   0  0  0  0  0  0  0  0  0  0  0  0
   60.0420   28.8450   48.6140 C   0  0  0  0  0  0  0  0  0  0  0  0
   59.6580   28.9970   49.9470 C   0  0  0  0  0  0  0  0  0  0  0  0
   59.2800   30.2510   50.4270 C   0  0  0  0  0  0  0  0  0  0  0  0
   59.2650   31.3520   49.5690 C   0  0  0  0  0  0  0  0  0  0  0  0
   59.6380   31.2160   48.2200 C   0  0  0  0  0  0  0  0  0  0  0  0
   59.5080   32.3950   47.3290 C   0  0  0  0  0  0  0  0  0  0  0  0
   60.4520   33.4360   47.3940 C   0  0  0  0  0  0  0  0  0  0  0  0
   60.3400   34.5420   46.5460 C   0  0  0  0  0  0  0  0  0  0  0  0
   59.2810   34.6240   45.6370 C   0  0  0  0  0  0  0  0  0  0  0  0
   59.1750   35.7220   44.7920 O   0  0  0  0  0  0  0  0  0  0  0  0
   58.3290   33.6030   45.5800 C   0  0  0  0  0  0  0  0  0  0  0  0
   58.4370   32.4950   46.4260 C   0  0  0  0  0  0  0  0  0  0  0  0
   58.6810   28.1710   45.5770 C   0  0  0  0  0  0  0  0  0  0  0  0
   58.5250   26.8880   46.1310 C   0  0  0  0  0  0  0  0  0  0  0  0
   57.2530   26.3280   46.2730 C   0  0  0  0  0  0  0  0  0  0  0  0
   56.1240   27.0350   45.8490 C   0  0  0  0  0  0  0  0  0  0  0  0
   54.8610   26.4740   45.9980 O   0  0  0  0  0  0  0  0  0  0  0  0
   56.2680   28.3020   45.2740 C   0  0  0  0  0  0  0  0  0  0  0  0
   55.1500   29.0040   44.8410 O   0  0  0  0  0  0  0  0  0  0  0  0
   57.5410   28.8650   45.1310 C   0  0  0  0  0  0  0  0  0  0  0  0
   60.3278   27.8510   48.2393 H   0  0  0  0  0  0  0  0  0  0  0  0
   59.6534   28.1269   50.6200 H   0  0  0  0  0  0  0  0  0  0  0  0
   58.9936   30.3723   51.4821 H   0  0  0  0  0  0  0  0  0  0  0  0
   58.9582   32.3364   49.9522 H   0  0  0  0  0  0  0  0  0  0  0  0
   61.2812   33.3796   48.1146 H   0  0  0  0  0  0  0  0  0  0  0  0
   61.0862   35.3488   46.5941 H   0  0  0  0  0  0  0  0  0  0  0  0
   57.4930   33.6709   44.8683 H   0  0  0  0  0  0  0  0  0  0  0  0
   57.6798   31.6982   46.3841 H   0  0  0  0  0  0  0  0  0  0  0  0
   59.4105   26.3214   46.4548 H   0  0  0  0  0  0  0  0  0  0  0  0
   57.1396   25.3290   46.7192 H   0  0  0  0  0  0  0  0  0  0  0  0
   57.6513   29.8563   44.6671 H   0  0  0  0  0  0  0  0  0  0  0  0
  1  2  2  0
  2  3  1  0
  3  4  1  0
  4  5  2  0
  5  6  1  0
  6  7  2  0
  7  8  1  0
  8  9  2  0
  9 10  1  0
 10 11  2  0
 11 12  1  0
 12 13  2  0
 13 14  1  0
 13 15  1  0
 15 16  2  0
  2 17  1  0
 17 18  2  0
 18 19  1  0
 19 20  2  0
 20 21  1  0
 20 22  1  0
 22 23  1  0
 22 24  2  0
  9  4  1  0
 16 10  1  0
 24 17  1  0
  5 25  1  0
  6 26  1  0
  7 27  1  0
  8 28  1  0
 11 29  1  0
 12 30  1  0
 15 31  1  0
 16 32  1  0
 18 33  1  0
 19 34  1  0
 24 35  1  0
M  CHG  4   3  -1  14  -1  21  -1  23  -1
M  END
>  <UniqueID>  (14) 
13

>  <SMILES>  (14) 
O=C([N-]c1ccccc1-c1ccc([O-])cc1)c1ccc([O-])c([O-])c1

>  <Energy>  (14) 
51.522820416002624

>  <Genealogy>  (14) 
O=C([N-]c1ccccc1-c1ccc([O-])cc1)c1ccc([O-])c([O-])c1 (protonated)
O=C([N-]c1ccccc1-c1ccc([O-])cc1)c1ccc([O-])c([O-])c1 (3D coordinates assigned)
O=C([N-]c1ccccc1-c1ccc([O-])cc1)c1ccc([O-])c([O-])c1 (optimized conformer: 51.522820416002624 kcal/mol)

>  <smiles>  (14) 
O=C(Nc1ccccc1-c1ccc(O)cc1)c1ccc(O)c(O)c1

>  <score_type>  (14) 
oracle

>  <origin>  (14) 
adg

>  <m_score__min__energy>  (14) 
-16.559999999999999

>  <m_primary>  (14) 
energy

$$$$
14:0
     RDKit          3D

 61 64  0  0  0  0  0  0  0  0999 V2000
   64.8340   27.2440   52.0480 C   0  0  0  0  0  0  0  0  0  0  0  0
   66.1260   27.9600   51.7730 C   0  0  0  0  0  0  0  0  0  0  0  0
   67.0620   27.3100   51.2280 O   0  0  0  0  0  0  0  0  0  0  0  0
   66.3190   29.3510   52.1250 N   0  0  0  0  0  0  0  0  0  0  0  0
   65.2820   30.1380   52.8080 C   0  0  0  0  0  0  0  0  0  0  0  0
   64.6290   31.0750   51.7930 C   0  0  0  0  0  0  0  0  0  0  0  0
   65.6680   31.8330   51.0820 N   0  0  0  0  0  0  0  0  0  0  0  0
   65.3560   33.1460   50.5950 C   0  0  0  0  0  0  0  0  0  0  0  0
   66.1000   34.1180   50.9020 O   0  0  0  0  0  0  0  0  0  0  0  0
   64.1750   33.3640   49.7390 C   0  0  0  0  0  0  0  0  0  0  0  0
   63.0630   34.0510   50.2450 C   0  0  0  0  0  0  0  0  0  0  0  0
   61.9380   34.2590   49.4450 C   0  0  0  0  0  0  0  0  0  0  0  0
   61.9250   33.8350   48.1030 C   0  0  0  0  0  0  0  0  0  0  0  0
   60.7450   34.0830   47.2350 C   0  0  0  0  0  0  0  0  0  0  0  0
   60.8950   34.7250   46.1600 O   0  0  0  0  0  0  0  0  0  0  0  0
   59.4440   33.5560   47.5400 N   0  0  0  0  0  0  0  0  0  0  0  0
   58.7500   32.5480   46.7880 C   0  0  0  0  0  0  0  0  0  0  0  0
   58.5870   31.2450   47.2840 C   0  0  0  0  0  0  0  0  0  0  0  0
   57.9620   30.2680   46.5050 C   0  0  0  0  0  0  0  0  0  0  0  0
   57.4590   30.5950   45.2380 C   0  0  0  0  0  0  0  0  0  0  0  0
   56.7320   29.3560   44.2210 S   0  0  0  0  0  0  0  0  0  0  0  0
   55.7760   30.0060   43.2540 O   0  0  0  0  0  0  0  0  0  0  0  0
   57.8050   28.6530   43.4360 O   0  0  0  0  0  0  0  0  0  0  0  0
   55.9050   28.2080   45.2320 N   0  0  0  0  0  0  0  0  0  0  0  0
   56.4550   27.1600   45.7680 C   0  0  0  0  0  0  0  0  0  0  0  0
   57.8090   27.1010   45.8750 N   0  0  0  0  0  0  0  0  0  0  0  0
   58.4270   26.0160   46.4170 C   0  0  0  0  0  0  0  0  0  0  0  0
   59.9190   26.0020   46.5480 C   0  0  0  0  0  0  0  0  0  0  0  0
   57.6590   24.9530   46.9050 C   0  0  0  0  0  0  0  0  0  0  0  0
   56.2730   25.0280   46.7900 C   0  0  0  0  0  0  0  0  0  0  0  0
   55.6990   26.1190   46.2200 N   0  0  0  0  0  0  0  0  0  0  0  0
   57.5880   31.9030   44.7590 C   0  0  0  0  0  0  0  0  0  0  0  0
   58.2180   32.8780   45.5380 C   0  0  0  0  0  0  0  0  0  0  0  0
   63.0350   33.1280   47.6060 C   0  0  0  0  0  0  0  0  0  0  0  0
   64.1470   32.8860   48.4210 C   0  0  0  0  0  0  0  0  0  0  0  0
   66.8120   31.1130   50.5010 C   0  0  0  0  0  0  0  0  0  0  0  0
   67.4050   30.1350   51.5210 C   0  0  0  0  0  0  0  0  0  0  0  0
   64.6847   27.1613   53.1347 H   0  0  0  0  0  0  0  0  0  0  0  0
   64.0003   27.8088   51.6053 H   0  0  0  0  0  0  0  0  0  0  0  0
   64.8710   26.2377   51.6053 H   0  0  0  0  0  0  0  0  0  0  0  0
   64.5230   29.4628   53.2300 H   0  0  0  0  0  0  0  0  0  0  0  0
   65.7324   30.7239   53.6228 H   0  0  0  0  0  0  0  0  0  0  0  0
   64.0478   30.4838   51.0700 H   0  0  0  0  0  0  0  0  0  0  0  0
   63.9616   31.7742   52.3180 H   0  0  0  0  0  0  0  0  0  0  0  0
   63.0768   34.4283   51.2782 H   0  0  0  0  0  0  0  0  0  0  0  0
   61.0538   34.7588   49.8673 H   0  0  0  0  0  0  0  0  0  0  0  0
   58.9528   30.9921   48.2901 H   0  0  0  0  0  0  0  0  0  0  0  0
   57.8645   29.2408   46.8864 H   0  0  0  0  0  0  0  0  0  0  0  0
   60.1935   25.9994   47.6132 H   0  0  0  0  0  0  0  0  0  0  0  0
   60.3212   25.1000   46.0635 H   0  0  0  0  0  0  0  0  0  0  0  0
   60.3380   26.8963   46.0635 H   0  0  0  0  0  0  0  0  0  0  0  0
   58.1387   24.0784   47.3687 H   0  0  0  0  0  0  0  0  0  0  0  0
   55.6442   24.2049   47.1603 H   0  0  0  0  0  0  0  0  0  0  0  0
   57.1926   32.1651   43.7665 H   0  0  0  0  0  0  0  0  0  0  0  0
   58.2955   33.9101   45.1655 H   0  0  0  0  0  0  0  0  0  0  0  0
   63.0290   32.7624   46.5686 H   0  0  0  0  0  0  0  0  0  0  0  0
   65.0025   32.3185   48.0259 H   0  0  0  0  0  0  0  0  0  0  0  0
   66.4756   30.5531   49.6159 H   0  0  0  0  0  0  0  0  0  0  0  0
   67.5846   31.8428   50.2172 H   0  0  0  0  0  0  0  0  0  0  0  0
   68.1102   29.4587   51.0156 H   0  0  0  0  0  0  0  0  0  0  0  0
   67.9371   30.6948   52.3043 H   0  0  0  0  0  0  0  0  0  0  0  0
  1  2  1  0
  2  3  2  0
  2  4  1  0
  4  5  1  0
  5  6  1  0
  6  7  1  0
  7  8  1  0
  8  9  2  0
  8 10  1  0
 10 11  2  0
 11 12  1  0
 12 13  2  0
 13 14  1  0
 14 15  2  0
 14 16  1  0
 16 17  1  0
 17 18  2  0
 18 19  1  0
 19 20  2  0
 20 21  1  0
 21 22  2  0
 21 23  2  0
 21 24  1  0
 24 25  2  3
 25 26  1  0
 26 27  2  0
 27 28  1  0
 27 29  1  0
 29 30  2  0
 30 31  1  0
 20 32  1  0
 32 33  2  0
 13 34  1  0
 34 35  2  0
  7 36  1  0
 36 37  1  0
 37  4  1  0
 35 10  1  0
 33 17  1  0
 31 25  1  0
  1 38  1  0
  1 39  1  0
  1 40  1  0
  5 41  1  0
  5 42  1  0
  6 43  1  0
  6 44  1  0
 11 45  1  0
 12 46  1  0
 18 47  1  0
 19 48  1  0
 28 49  1  0
 28 50  1  0
 28 51  1  0
 29 52  1  0
 30 53  1  0
 32 54  1  0
 33 55  1  0
 34 56  1  0
 35 57  1  0
 36 58  1  0
 36 59  1  0
 37 60  1  0
 37 61  1  0
M  CHG  2  16  -1  31  -1
M  END
>  <UniqueID>  (15) 
14

>  <SMILES>  (15) 
CC(=O)N1CCN(C(=O)c2ccc(C(=O)[N-]c3ccc(S(=O)(=O)N=c4nc(C)cc[n-]4)cc3)cc2)CC1

>  <Energy>  (15) 
80.82001738775332

>  <Genealogy>  (15) 
CC(=O)N1CCN(C(=O)c2ccc(C(=O)[N-]c3ccc(S(=O)(=O)N=c4nc(C)cc[n-]4)cc3)cc2)CC1 (protonated)
CC(=O)N1CCN(C(=O)c2ccc(C(=O)[N-]c3ccc(S(=O)(=O)N=c4nc(C)cc[n-]4)cc3)cc2)CC1 (3D coordinates assigned)
CC(=O)N1CCN(C(=O)c2ccc(C(=O)[N-]c3ccc(S(=O)(=O)N=c4nc(C)cc[n-]4)cc3)cc2)CC1 (nonaromatic ring conformer: 80.82001738775332 kcal/mol)

>  <smiles>  (15) 
CC(=O)N1CCN(C(=O)c2ccc(C(=O)Nc3ccc(S(=O)(=O)N=c4nc(C)cc[nH]4)cc3)cc2)CC1

>  <score_type>  (15) 
oracle

>  <origin>  (15) 
adg

>  <m_score__min__energy>  (15) 
-12.19

>  <m_primary>  (15) 
energy

$$$$
15:0
     RDKit          3D

 57 61  0  0  0  0  0  0  0  0999 V2000
   53.1938   24.9311   45.4860 H   0  0  0  0  0  0  0  0  0  0  0  0
   54.2720   25.1190   45.5960 C   0  0  0  0  0  0  0  0  0  0  0  0
   54.8060   26.2550   45.9850 O   0  0  0  0  0  0  0  0  0  0  0  0
   56.1120   26.1150   46.0050 C   0  0  0  0  0  0  0  0  0  0  0  0
   57.0600   27.2050   46.3790 C   0  0  0  0  0  0  0  0  0  0  0  0
   58.0251   26.7680   46.6751 H   0  0  0  0  0  0  0  0  0  0  0  0
   56.6485   27.7804   47.2214 H   0  0  0  0  0  0  0  0  0  0  0  0
   57.2540   28.0850   45.2320 N   0  0  0  0  0  0  0  0  0  0  0  0
   56.6130   29.3550   45.0650 C   0  0  0  0  0  0  0  0  0  0  0  0
   55.3730   29.3830   44.8430 O   0  0  0  0  0  0  0  0  0  0  0  0
   57.3510   30.6280   45.1780 C   0  0  0  0  0  0  0  0  0  0  0  0
   57.0450   31.6990   44.3060 C   0  0  0  0  0  0  0  0  0  0  0  0
   56.2485   31.5820   43.5564 H   0  0  0  0  0  0  0  0  0  0  0  0
   57.7500   32.9100   44.3900 C   0  0  0  0  0  0  0  0  0  0  0  0
   57.5113   33.7470   43.7174 H   0  0  0  0  0  0  0  0  0  0  0  0
   58.7610   33.0290   45.3460 C   0  0  0  0  0  0  0  0  0  0  0  0
   59.0750   31.9910   46.1770 C   0  0  0  0  0  0  0  0  0  0  0  0
   58.3950   30.7730   46.1160 C   0  0  0  0  0  0  0  0  0  0  0  0
   58.6676   29.9437   46.7853 H   0  0  0  0  0  0  0  0  0  0  0  0
   60.1490   32.3330   47.0330 N   0  0  0  0  0  0  0  0  0  0  0  0
   60.7600   31.3610   48.3330 S   0  0  0  0  0  0  0  0  0  0  0  0
   60.9240   29.9420   47.8580 O   0  0  0  0  0  0  0  0  0  0  0  0
   62.0950   31.8880   48.7820 O   0  0  0  0  0  0  0  0  0  0  0  0
   59.6430   31.4170   49.6940 C   0  0  0  0  0  0  0  0  0  0  0  0
   58.9880   30.2580   50.1350 C   0  0  0  0  0  0  0  0  0  0  0  0
   59.1778   29.2968   49.6350 H   0  0  0  0  0  0  0  0  0  0  0  0
   58.0940   30.3210   51.2090 C   0  0  0  0  0  0  0  0  0  0  0  0
   57.5917   29.4066   51.5576 H   0  0  0  0  0  0  0  0  0  0  0  0
   57.8350   31.5460   51.8440 C   0  0  0  0  0  0  0  0  0  0  0  0
   56.9020   31.6110   53.0210 C   0  0  0  0  0  0  0  0  0  0  0  0
   56.6383   32.6604   53.2192 H   0  0  0  0  0  0  0  0  0  0  0  0
   57.4007   31.1788   53.9011 H   0  0  0  0  0  0  0  0  0  0  0  0
   55.6560   30.8330   52.7310 C   0  0  0  0  0  0  0  0  0  0  0  0
   54.6460   31.3510   51.9800 N   0  0  0  0  0  0  0  0  0  0  0  0
   53.6520   30.4570   51.8000 C   0  0  0  0  0  0  0  0  0  0  0  0
   52.5880   30.7300   51.1090 N   0  0  0  0  0  0  0  0  0  0  0  0
   51.8150   31.9580   51.2500 C   0  0  0  0  0  0  0  0  0  0  0  0
   51.6740   32.1820   52.3177 H   0  0  0  0  0  0  0  0  0  0  0  0
   52.3540   32.7878   50.7693 H   0  0  0  0  0  0  0  0  0  0  0  0
   50.8338   31.8308   50.7693 H   0  0  0  0  0  0  0  0  0  0  0  0
   53.9870   28.9840   52.5520 S   0  0  0  0  0  0  0  0  0  0  0  0
   55.4740   29.5100   53.1400 C   0  0  0  0  0  0  0  0  0  0  0  0
   56.1785   28.9161   53.7408 H   0  0  0  0  0  0  0  0  0  0  0  0
   58.4980   32.7040   51.4030 C   0  0  0  0  0  0  0  0  0  0  0  0
   58.3102   33.6660   51.9022 H   0  0  0  0  0  0  0  0  0  0  0  0
   59.3950   32.6390   50.3330 C   0  0  0  0  0  0  0  0  0  0  0  0
   59.9079   33.5502   49.9915 H   0  0  0  0  0  0  0  0  0  0  0  0
   60.5540   33.7110   46.7650 C   0  0  0  0  0  0  0  0  0  0  0  0
   60.4053   34.3350   47.6586 H   0  0  0  0  0  0  0  0  0  0  0  0
   61.6193   33.7762   46.4989 H   0  0  0  0  0  0  0  0  0  0  0  0
   59.6450   34.1990   45.6080 C   0  0  0  0  0  0  0  0  0  0  0  0
   59.0562   35.0765   45.9134 H   0  0  0  0  0  0  0  0  0  0  0  0
   60.2125   34.5155   44.7205 H   0  0  0  0  0  0  0  0  0  0  0  0
   56.4600   24.8390   45.6070 C   0  0  0  0  0  0  0  0  0  0  0  0
   57.4745   24.4234   45.5173 H   0  0  0  0  0  0  0  0  0  0  0  0
   55.2700   24.1960   45.3460 C   0  0  0  0  0  0  0  0  0  0  0  0
   55.1402   23.1576   45.0071 H   0  0  0  0  0  0  0  0  0  0  0  0
  1  2  1  0
  2  3  1  0
  3  4  1  0
  4  5  1  0
  5  6  1  0
  5  7  1  0
  5  8  1  0
  8  9  1  0
  9 10  2  0
  9 11  1  0
 11 12  2  0
 12 13  1  0
 12 14  1  0
 14 15  1  0
 14 16  2  0
 16 17  1  0
 17 18  2  0
 18 19  1  0
 17 20  1  0
 20 21  1  0
 21 22  2  0
 21 23  2  0
 21 24  1  0
 24 25  2  0
 25 26  1  0
 25 27  1  0
 27 28  1  0
 27 29  2  0
 29 30  1  0
 30 31  1  0
 30 32  1  0
 30 33  1  0
 33 34  1  0
 34 35  1  0
 35 36  2  0
 36 37  1  0
 37 38  1  0
 37 39  1  0
 37 40  1  0
 35 41  1  0
 41 42  1  0
 42 43  1  0
 29 44  1  0
 44 45  1  0
 44 46  2  0
 46 47  1  0
 20 48  1  0
 48 49  1  0
 48 50  1  0
 48 51  1  0
 51 52  1  0
 51 53  1  0
  4 54  2  0
 54 55  1  0
 54 56  1  0
 56 57  1  0
 56  2  2  0
 18 11  1  0
 46 24  1  0
 51 16  1  0
 42 33  2  0
M  CHG  2   8  -1  34  -1
M  END
>  <UniqueID>  (16) 
15

>  <SMILES>  (16) 
C/N=c1/[n-]c(Cc2ccc(S(=O)(=O)N3CCc4ccc(C(=O)[N-]Cc5ccco5)cc43)cc2)cs1

>  <Energy>  (16) 
133.83188518021237

>  <Genealogy>  (16) 
CN=c1[n-]c(Cc2ccc(S(=O)(=O)N3CCc4ccc(C(=O)[N-]Cc5ccco5)cc43)cc2)cs1 (protonated)
C/N=c1/[n-]c(Cc2ccc(S(=O)(=O)N3CCc4ccc(C(=O)[N-]Cc5ccco5)cc43)cc2)cs1 (cis-trans isomerization)
C/N=c1/[n-]c(Cc2ccc(S(=O)(=O)N3CCc4ccc(C(=O)[N-]Cc5ccco5)cc43)cc2)cs1 (3D coordinates assigned)
C/N=c1/[n-]c(Cc2ccc(S(=O)(=O)N3CCc4ccc(C(=O)[N-]Cc5ccco5)cc43)cc2)cs1 (nonaromatic ring conformer: 133.83188518021237 kcal/mol)

>  <smiles>  (16) 
CN=c1[nH]c(Cc2ccc(S(=O)(=O)N3CCc4ccc(C(=O)NCc5ccco5)cc43)cc2)cs1

>  <score_type>  (16) 
oracle

>  <origin>  (16) 
adg

>  <m_score__min__energy>  (16) 
-13.06

>  <m_primary>  (16) 
energy

$$$$
16:0
     RDKit          3D

 44 46  0  0  0  0  0  0  0  0999 V2000
   59.7300   22.6380   44.9110 C   0  0  0  0  0  0  0  0  0  0  0  0
   58.3940   22.4370   44.5650 O   0  0  0  0  0  0  0  0  0  0  0  0
   57.3520   23.2620   44.9160 C   0  0  0  0  0  0  0  0  0  0  0  0
   57.5670   24.6110   45.1700 C   0  0  0  0  0  0  0  0  0  0  0  0
   56.5100   25.4570   45.5270 C   0  0  0  0  0  0  0  0  0  0  0  0
   56.7870   26.8160   45.7730 N   0  0  0  0  0  0  0  0  0  0  0  0
   57.4430   27.6930   44.8950 C   0  0  0  0  0  0  0  0  0  0  0  0
   57.8730   27.3450   43.7460 O   0  0  0  0  0  0  0  0  0  0  0  0
   57.6750   29.0900   45.2610 C   0  0  0  0  0  0  0  0  0  0  0  0
   58.7200   29.5570   46.0420 C   0  0  0  0  0  0  0  0  0  0  0  0
   58.6120   30.9270   46.1720 C   0  0  0  0  0  0  0  0  0  0  0  0
   59.5020   31.8120   46.9090 C   0  0  0  0  0  0  0  0  0  0  0  0
   59.0060   33.0070   47.3950 C   0  0  0  0  0  0  0  0  0  0  0  0
   59.9040   33.8040   48.0870 C   0  0  0  0  0  0  0  0  0  0  0  0
   61.2130   33.4620   48.3000 C   0  0  0  0  0  0  0  0  0  0  0  0
   62.2700   34.5400   49.1900 Cl  0  0  0  0  0  0  0  0  0  0  0  0
   61.6760   32.2550   47.8000 C   0  0  0  0  0  0  0  0  0  0  0  0
   60.8110   31.4350   47.1040 C   0  0  0  0  0  0  0  0  0  0  0  0
   57.5100   31.2590   45.4720 N   0  0  0  0  0  0  0  0  0  0  0  0
   56.9570   30.1830   44.9340 N   0  0  0  0  0  0  0  0  0  0  0  0
   55.2210   24.9210   45.6250 C   0  0  0  0  0  0  0  0  0  0  0  0
   55.0340   23.5660   45.3650 C   0  0  0  0  0  0  0  0  0  0  0  0
   56.0810   22.7340   45.0130 C   0  0  0  0  0  0  0  0  0  0  0  0
   55.9090   21.3820   44.7510 O   0  0  0  0  0  0  0  0  0  0  0  0
   56.2160   20.3520   45.6360 C   0  0  0  0  0  0  0  0  0  0  0  0
   57.2460   20.7540   46.6180 C   0  0  0  0  0  0  0  0  0  0  0  0
   57.0060   21.3720   47.6820 O   0  0  0  0  0  0  0  0  0  0  0  0
   58.5740   20.4360   46.3630 O   0  0  0  0  0  0  0  0  0  0  0  0
   59.8268   22.6526   46.0066 H   0  0  0  0  0  0  0  0  0  0  0  0
   60.3421   21.8218   44.4996 H   0  0  0  0  0  0  0  0  0  0  0  0
   60.0748   23.5981   44.4996 H   0  0  0  0  0  0  0  0  0  0  0  0
   58.5845   25.0211   45.0893 H   0  0  0  0  0  0  0  0  0  0  0  0
   56.4700   27.2090   46.7020 H   0  0  0  0  0  0  0  0  0  0  0  0
   59.5101   28.9348   46.4876 H   0  0  0  0  0  0  0  0  0  0  0  0
   57.9592   33.3080   47.2414 H   0  0  0  0  0  0  0  0  0  0  0  0
   59.5458   34.7640   48.4872 H   0  0  0  0  0  0  0  0  0  0  0  0
   62.7223   31.9537   47.9563 H   0  0  0  0  0  0  0  0  0  0  0  0
   61.1697   30.4755   46.7032 H   0  0  0  0  0  0  0  0  0  0  0  0
   57.1190   32.2380   45.3510 H   0  0  0  0  0  0  0  0  0  0  0  0
   54.3696   25.5597   45.9029 H   0  0  0  0  0  0  0  0  0  0  0  0
   54.0212   23.1439   45.4420 H   0  0  0  0  0  0  0  0  0  0  0  0
   55.3024   20.0646   46.1771 H   0  0  0  0  0  0  0  0  0  0  0  0
   56.6141   19.5093   45.0517 H   0  0  0  0  0  0  0  0  0  0  0  0
   58.8870   20.4510   45.3800 H   0  0  0  0  0  0  0  0  0  0  0  0
  1  2  1  0
  2  3  1  0
  3  4  2  0
  4  5  1  0
  5  6  1  0
  6  7  1  0
  7  8  2  0
  7  9  1  0
  9 10  1  0
 10 11  2  0
 11 12  1  0
 12 13  2  0
 13 14  1  0
 14 15  2  0
 15 16  1  0
 15 17  1  0
 17 18  2  0
 11 19  1  0
 19 20  1  0
  5 21  2  0
 21 22  1  0
 22 23  2  0
 23 24  1  0
 24 25  1  0
 25 26  1  0
 26 27  2  0
 26 28  1  0
 23  3  1  0
 20  9  2  0
 18 12  1  0
  1 29  1  0
  1 30  1  0
  1 31  1  0
  4 32  1  0
  6 33  1  0
 10 34  1  0
 13 35  1  0
 14 36  1  0
 17 37  1  0
 18 38  1  0
 19 39  1  0
 21 40  1  0
 22 41  1  0
 25 42  1  0
 25 43  1  0
 28 44  1  0
M  END
>  <smiles>  (17) 
COc1cc(NC(=O)c2cc(-c3ccc(Cl)cc3)[nH]n2)ccc1OCC(=O)O

>  <score_type>  (17) 
oracle

>  <origin>  (17) 
adg

>  <m_score__min__energy>  (17) 
-7.7599999999999998

>  <m_primary>  (17) 
energy

$$$$
17:0
     RDKit          3D

 51 53  0  0  0  0  0  0  0  0999 V2000
   61.4260   28.5850   51.5750 C   0  0  0  0  0  0  0  0  0  0  0  0
   60.7880   29.6590   50.8910 O   0  0  0  0  0  0  0  0  0  0  0  0
   61.2060   30.1780   49.6540 C   0  0  0  0  0  0  0  0  0  0  0  0
   62.2530   31.1180   49.5580 C   0  0  0  0  0  0  0  0  0  0  0  0
   62.6390   31.6190   48.3130 C   0  0  0  0  0  0  0  0  0  0  0  0
   61.9850   31.2000   47.1540 C   0  0  0  0  0  0  0  0  0  0  0  0
   60.9470   30.2690   47.2340 C   0  0  0  0  0  0  0  0  0  0  0  0
   60.5590   29.7430   48.4770 C   0  0  0  0  0  0  0  0  0  0  0  0
   59.4470   28.7280   48.5440 C   0  0  0  0  0  0  0  0  0  0  0  0
   59.9940   27.3010   48.5920 C   0  0  0  0  0  0  0  0  0  0  0  0
   60.4740   26.9350   47.2670 N   0  0  0  0  0  0  0  0  0  0  0  0
   59.7850   26.0550   46.3730 C   0  0  0  0  0  0  0  0  0  0  0  0
   60.1740   24.8640   46.2390 O   0  0  0  0  0  0  0  0  0  0  0  0
   58.5850   26.5100   45.6370 C   0  0  0  0  0  0  0  0  0  0  0  0
   58.5960   27.3990   44.6300 C   0  0  0  0  0  0  0  0  0  0  0  0
   58.1310   28.7910   44.7700 C   0  0  0  0  0  0  0  0  0  0  0  0
   59.0150   29.8490   44.5450 C   0  0  0  0  0  0  0  0  0  0  0  0
   58.5550   31.1290   44.5100 N   0  0  0  0  0  0  0  0  0  0  0  0
   57.2280   31.4040   44.7130 C   0  0  0  0  0  0  0  0  0  0  0  0
   56.7390   32.6010   44.5610 N   0  0  0  0  0  0  0  0  0  0  0  0
   57.1550   33.7930   45.2390 C   0  0  0  0  0  0  0  0  0  0  0  0
   56.6530   34.9060   44.9200 O   0  0  0  0  0  0  0  0  0  0  0  0
   58.1980   33.7170   46.2890 C   0  0  0  0  0  0  0  0  0  0  0  0
   59.4050   34.4290   46.1540 C   0  0  0  0  0  0  0  0  0  0  0  0
   60.3680   34.3870   47.1690 C   0  0  0  0  0  0  0  0  0  0  0  0
   60.1360   33.6380   48.3260 C   0  0  0  0  0  0  0  0  0  0  0  0
   58.9430   32.9280   48.4690 C   0  0  0  0  0  0  0  0  0  0  0  0
   57.9790   32.9640   47.4580 C   0  0  0  0  0  0  0  0  0  0  0  0
   56.3690   30.3840   44.9730 N   0  0  0  0  0  0  0  0  0  0  0  0
   56.7840   29.0940   45.0120 C   0  0  0  0  0  0  0  0  0  0  0  0
   55.9480   28.1780   45.2310 O   0  0  0  0  0  0  0  0  0  0  0  0
   61.3359   28.7367   52.6608 H   0  0  0  0  0  0  0  0  0  0  0  0
   60.9453   27.6357   51.2963 H   0  0  0  0  0  0  0  0  0  0  0  0
   62.4896   28.5531   51.2963 H   0  0  0  0  0  0  0  0  0  0  0  0
   62.7681   31.4582   50.4684 H   0  0  0  0  0  0  0  0  0  0  0  0
   63.4614   32.3464   48.2458 H   0  0  0  0  0  0  0  0  0  0  0  0
   62.2872   31.6033   46.1762 H   0  0  0  0  0  0  0  0  0  0  0  0
   60.4304   29.9459   46.3182 H   0  0  0  0  0  0  0  0  0  0  0  0
   58.8487   28.9122   49.4485 H   0  0  0  0  0  0  0  0  0  0  0  0
   58.8301   28.8312   47.6392 H   0  0  0  0  0  0  0  0  0  0  0  0
   60.8231   27.2474   49.3129 H   0  0  0  0  0  0  0  0  0  0  0  0
   59.1995   26.6077   48.9052 H   0  0  0  0  0  0  0  0  0  0  0  0
   57.6134   26.0899   45.9360 H   0  0  0  0  0  0  0  0  0  0  0  0
   58.9717   27.0712   43.6495 H   0  0  0  0  0  0  0  0  0  0  0  0
   60.0859   29.6467   44.3957 H   0  0  0  0  0  0  0  0  0  0  0  0
   59.2400   31.8760   44.2670 H   0  0  0  0  0  0  0  0  0  0  0  0
   59.5923   35.0214   45.2462 H   0  0  0  0  0  0  0  0  0  0  0  0
   61.3094   34.9447   47.0558 H   0  0  0  0  0  0  0  0  0  0  0  0
   60.8932   33.6081   49.1233 H   0  0  0  0  0  0  0  0  0  0  0  0
   58.7611   32.3386   49.3798 H   0  0  0  0  0  0  0  0  0  0  0  0
   57.0422   32.3998   47.5765 H   0  0  0  0  0  0  0  0  0  0  0  0
  1  2  1  0
  2  3  1  0
  3  4  2  0
  4  5  1  0
  5  6  2  0
  6  7  1  0
  7  8  2  0
  8  9  1  0
  9 10  1  0
 10 11  1  0
 11 12  1  0
 12 13  2  0
 12 14  1  0
 14 15  2  3
 15 16  1  0
 16 17  2  0
 17 18  1  0
 18 19  1  0
 19 20  2  3
 20 21  1  0
 21 22  2  0
 21 23  1  0
 23 24  2  0
 24 25  1  0
 25 26  2  0
 26 27  1  0
 27 28  2  0
 19 29  1  0
 29 30  1  0
 30 31  2  0
  8  3  1  0
 30 16  1  0
 28 23  1  0
  1 32  1  0
  1 33  1  0
  1 34  1  0
  4 35  1  0
  5 36  1  0
  6 37  1  0
  7 38  1  0
  9 39  1  0
  9 40  1  0
 10 41  1  0
 10 42  1  0
 14 43  1  0
 15 44  1  0
 17 45  1  0
 18 46  1  0
 24 47  1  0
 25 48  1  0
 26 49  1  0
 27 50  1  0
 28 51  1  0
M  CHG  2  11  -1  29  -1
M  END
>  <UniqueID>  (18) 
16

>  <SMILES>  (18) 
COc1ccccc1CC[N-]C(=O)C=Cc1c[nH]c(=NC(=O)c2ccccc2)[n-]c1=O

>  <Energy>  (18) 
63.006913412908354

>  <Genealogy>  (18) 
COc1ccccc1CC[N-]C(=O)C=Cc1c[nH]c(=NC(=O)c2ccccc2)[n-]c1=O (protonated)
COc1ccccc1CC[N-]C(=O)C=Cc1c[nH]c(=NC(=O)c2ccccc2)[n-]c1=O (3D coordinates assigned)
COc1ccccc1CC[N-]C(=O)C=Cc1c[nH]c(=NC(=O)c2ccccc2)[n-]c1=O (optimized conformer: 63.006913412908354 kcal/mol)

>  <smiles>  (18) 
COc1ccccc1CCNC(=O)C=Cc1c[nH]c(=NC(=O)c2ccccc2)[nH]c1=O

>  <score_type>  (18) 
oracle

>  <origin>  (18) 
adg

>  <m_score__min__energy>  (18) 
-12.15

>  <m_primary>  (18) 
energy

$$$$
18:0
     RDKit          3D

 52 54  0  0  0  0  0  0  0  0999 V2000
   58.7900   33.4670   51.4210 C   0  0  0  0  0  0  0  0  0  0  0  0
   59.7290   33.3040   50.3080 N   0  0  0  0  0  0  0  0  0  0  0  0
   59.2660   33.3890   48.9440 C   0  0  0  0  0  0  0  0  0  0  0  0
   59.5850   34.5020   48.1480 C   0  0  0  0  0  0  0  0  0  0  0  0
   59.1170   34.5950   46.8350 C   0  0  0  0  0  0  0  0  0  0  0  0
   58.3100   33.5780   46.2940 C   0  0  0  0  0  0  0  0  0  0  0  0
   57.7540   33.6600   45.0070 O   0  0  0  0  0  0  0  0  0  0  0  0
   57.9650   32.7070   43.9630 C   0  0  0  0  0  0  0  0  0  0  0  0
   57.4180   31.3690   44.3590 C   0  0  0  0  0  0  0  0  0  0  0  0
   56.2500   31.2830   44.8320 O   0  0  0  0  0  0  0  0  0  0  0  0
   58.2100   30.1890   44.1800 N   0  0  0  0  0  0  0  0  0  0  0  0
   58.3120   29.1460   45.1650 C   0  0  0  0  0  0  0  0  0  0  0  0
   59.2260   29.2850   46.2190 C   0  0  0  0  0  0  0  0  0  0  0  0
   59.2890   28.3250   47.2330 C   0  0  0  0  0  0  0  0  0  0  0  0
   58.4250   27.2270   47.2140 C   0  0  0  0  0  0  0  0  0  0  0  0
   57.5020   27.0770   46.1730 C   0  0  0  0  0  0  0  0  0  0  0  0
   56.3680   25.7320   46.1770 S   0  0  0  0  0  0  0  0  0  0  0  0
   54.7590   26.3310   45.9850 N   0  0  0  0  0  0  0  0  0  0  0  0
   56.6890   24.7940   45.0470 O   0  0  0  0  0  0  0  0  0  0  0  0
   56.4750   24.9790   47.4740 O   0  0  0  0  0  0  0  0  0  0  0  0
   57.4520   28.0330   45.1510 C   0  0  0  0  0  0  0  0  0  0  0  0
   58.0270   32.4510   47.0700 C   0  0  0  0  0  0  0  0  0  0  0  0
   58.4940   32.3570   48.3830 C   0  0  0  0  0  0  0  0  0  0  0  0
   61.4090   33.0010   50.6560 S   0  0  0  0  0  0  0  0  0  0  0  0
   61.9620   34.1020   51.5180 O   0  0  0  0  0  0  0  0  0  0  0  0
   61.5300   31.7080   51.4160 O   0  0  0  0  0  0  0  0  0  0  0  0
   62.3280   32.9170   49.1540 C   0  0  0  0  0  0  0  0  0  0  0  0
   62.9640   34.0590   48.6400 C   0  0  0  0  0  0  0  0  0  0  0  0
   63.6840   33.9830   47.4460 C   0  0  0  0  0  0  0  0  0  0  0  0
   63.7740   32.7690   46.7580 C   0  0  0  0  0  0  0  0  0  0  0  0
   63.1460   31.6270   47.2670 C   0  0  0  0  0  0  0  0  0  0  0  0
   62.4230   31.7020   48.4610 C   0  0  0  0  0  0  0  0  0  0  0  0
   59.3312   33.3731   52.3740 H   0  0  0  0  0  0  0  0  0  0  0  0
   58.3206   34.4601   51.3622 H   0  0  0  0  0  0  0  0  0  0  0  0
   58.0133   32.6902   51.3622 H   0  0  0  0  0  0  0  0  0  0  0  0
   60.2090   35.3075   48.5625 H   0  0  0  0  0  0  0  0  0  0  0  0
   59.3811   35.4685   46.2208 H   0  0  0  0  0  0  0  0  0  0  0  0
   57.4565   33.0508   43.0502 H   0  0  0  0  0  0  0  0  0  0  0  0
   59.0455   32.6110   43.7803 H   0  0  0  0  0  0  0  0  0  0  0  0
   58.8390   30.1470   43.3440 H   0  0  0  0  0  0  0  0  0  0  0  0
   59.8980   30.1554   46.2482 H   0  0  0  0  0  0  0  0  0  0  0  0
   60.0202   28.4341   48.0475 H   0  0  0  0  0  0  0  0  0  0  0  0
   58.4705   26.4789   48.0191 H   0  0  0  0  0  0  0  0  0  0  0  0
   54.6300   27.0800   46.7000 H   0  0  0  0  0  0  0  0  0  0  0  0
   56.7322   27.9122   44.3281 H   0  0  0  0  0  0  0  0  0  0  0  0
   57.4313   31.6307   46.6432 H   0  0  0  0  0  0  0  0  0  0  0  0
   58.2554   31.4669   48.9837 H   0  0  0  0  0  0  0  0  0  0  0  0
   62.8947   35.0153   49.1792 H   0  0  0  0  0  0  0  0  0  0  0  0
   64.1810   34.8792   47.0462 H   0  0  0  0  0  0  0  0  0  0  0  0
   64.3389   32.7118   45.8159 H   0  0  0  0  0  0  0  0  0  0  0  0
   63.2211   30.6710   46.7281 H   0  0  0  0  0  0  0  0  0  0  0  0
   61.9267   30.8043   48.8583 H   0  0  0  0  0  0  0  0  0  0  0  0
  1  2  1  0
  2  3  1  0
  3  4  2  0
  4  5  1  0
  5  6  2  0
  6  7  1  0
  7  8  1  0
  8  9  1  0
  9 10  2  0
  9 11  1  0
 11 12  1  0
 12 13  2  0
 13 14  1  0
 14 15  2  0
 15 16  1  0
 16 17  1  0
 17 18  1  0
 17 19  2  0
 17 20  2  0
 16 21  2  0
  6 22  1  0
 22 23  2  0
  2 24  1  0
 24 25  2  0
 24 26  2  0
 24 27  1  0
 27 28  2  0
 28 29  1  0
 29 30  2  0
 30 31  1  0
 31 32  2  0
 23  3  1  0
 32 27  1  0
 21 12  1  0
  1 33  1  0
  1 34  1  0
  1 35  1  0
  4 36  1  0
  5 37  1  0
  8 38  1  0
  8 39  1  0
 11 40  1  0
 13 41  1  0
 14 42  1  0
 15 43  1  0
 18 44  1  0
 21 45  1  0
 22 46  1  0
 23 47  1  0
 28 48  1  0
 29 49  1  0
 30 50  1  0
 31 51  1  0
 32 52  1  0
M  CHG  1  18  -1
M  END
>  <UniqueID>  (19) 
17

>  <SMILES>  (19) 
CN(c1ccc(OCC(=O)Nc2cccc(S([NH-])(=O)=O)c2)cc1)S(=O)(=O)c1ccccc1

>  <Energy>  (19) 
58.86599659533186

>  <Genealogy>  (19) 
CN(c1ccc(OCC(=O)Nc2cccc(S([NH-])(=O)=O)c2)cc1)S(=O)(=O)c1ccccc1 (protonated)
CN(c1ccc(OCC(=O)Nc2cccc(S([NH-])(=O)=O)c2)cc1)S(=O)(=O)c1ccccc1 (3D coordinates assigned)
CN(c1ccc(OCC(=O)Nc2cccc(S([NH-])(=O)=O)c2)cc1)S(=O)(=O)c1ccccc1 (optimized conformer: 58.86599659533186 kcal/mol)

>  <smiles>  (19) 
CN(c1ccc(OCC(=O)Nc2cccc(S(N)(=O)=O)c2)cc1)S(=O)(=O)c1ccccc1

>  <score_type>  (19) 
oracle

>  <origin>  (19) 
adg

>  <m_score__min__energy>  (19) 
-13.73

>  <m_primary>  (19) 
energy

$$$$
19:0
     RDKit          3D

 63 66  0  0  0  0  0  0  0  0999 V2000
   58.2180   32.5870   42.1850 O   0  0  0  0  0  0  0  0  0  0  0  0
   57.7560   32.4080   43.3410 C   0  0  0  0  0  0  0  0  0  0  0  0
   57.4300   33.5530   44.1400 N   0  0  0  0  0  0  0  0  0  0  0  0
   57.9860   33.8430   45.4620 C   0  0  0  0  0  0  0  0  0  0  0  0
   57.7820   32.6340   46.4110 C   0  0  0  0  0  0  0  0  0  0  0  0
   58.9740   32.3770   47.3490 C   0  0  0  0  0  0  0  0  0  0  0  0
   59.6240   33.6400   47.7290 N   0  0  0  0  0  0  0  0  0  0  0  0
   59.9800   33.9140   49.0970 C   0  0  0  0  0  0  0  0  0  0  0  0
   61.0130   34.5940   49.3430 O   0  0  0  0  0  0  0  0  0  0  0  0
   59.1510   33.4570   50.1770 N   0  0  0  0  0  0  0  0  0  0  0  0
   59.5040   33.6550   51.5820 C   0  0  0  0  0  0  0  0  0  0  0  0
   58.6410   32.7850   52.4520 C   0  0  0  0  0  0  0  0  0  0  0  0
   58.9010   32.6790   53.8280 C   0  0  0  0  0  0  0  0  0  0  0  0
   58.1190   31.8400   54.6300 C   0  0  0  0  0  0  0  0  0  0  0  0
   57.0810   31.0960   54.0610 C   0  0  0  0  0  0  0  0  0  0  0  0
   56.8250   31.1860   52.6910 C   0  0  0  0  0  0  0  0  0  0  0  0
   57.6050   32.0220   51.8850 C   0  0  0  0  0  0  0  0  0  0  0  0
   60.0720   34.5640   46.6770 C   0  0  0  0  0  0  0  0  0  0  0  0
   59.4700   34.2060   45.3110 C   0  0  0  0  0  0  0  0  0  0  0  0
   57.5600   31.0300   43.8300 C   0  0  0  0  0  0  0  0  0  0  0  0
   56.2650   30.5480   44.0670 C   0  0  0  0  0  0  0  0  0  0  0  0
   56.0730   29.2590   44.5700 C   0  0  0  0  0  0  0  0  0  0  0  0
   57.1750   28.4450   44.8650 C   0  0  0  0  0  0  0  0  0  0  0  0
   56.9370   26.8390   45.5600 S   0  0  0  0  0  0  0  0  0  0  0  0
   55.5050   26.6920   45.9970 O   0  0  0  0  0  0  0  0  0  0  0  0
   57.2110   25.7990   44.5090 O   0  0  0  0  0  0  0  0  0  0  0  0
   57.9950   26.5640   46.9250 N   0  0  0  0  0  0  0  0  0  0  0  0
   58.4150   27.8470   47.5190 C   0  0  0  0  0  0  0  0  0  0  0  0
   59.7010   27.6690   48.3430 C   0  0  0  0  0  0  0  0  0  0  0  0
   60.8100   27.1900   47.5930 O   0  0  0  0  0  0  0  0  0  0  0  0
   60.4440   26.4830   46.4170 C   0  0  0  0  0  0  0  0  0  0  0  0
   59.1330   25.6890   46.5680 C   0  0  0  0  0  0  0  0  0  0  0  0
   58.4700   28.9270   44.6320 C   0  0  0  0  0  0  0  0  0  0  0  0
   58.6620   30.2140   44.1250 C   0  0  0  0  0  0  0  0  0  0  0  0
   57.4609   34.6986   45.9117 H   0  0  0  0  0  0  0  0  0  0  0  0
   56.8899   32.8221   47.0264 H   0  0  0  0  0  0  0  0  0  0  0  0
   57.6734   31.7418   45.7768 H   0  0  0  0  0  0  0  0  0  0  0  0
   58.6153   31.8692   48.2565 H   0  0  0  0  0  0  0  0  0  0  0  0
   59.7072   31.7489   46.8218 H   0  0  0  0  0  0  0  0  0  0  0  0
   58.1760   33.1530   49.9650 H   0  0  0  0  0  0  0  0  0  0  0  0
   60.5606   33.3893   51.7339 H   0  0  0  0  0  0  0  0  0  0  0  0
   59.3442   34.7095   51.8512 H   0  0  0  0  0  0  0  0  0  0  0  0
   59.7220   33.2573   54.2769 H   0  0  0  0  0  0  0  0  0  0  0  0
   58.3212   31.7659   55.7087 H   0  0  0  0  0  0  0  0  0  0  0  0
   56.4653   30.4391   54.6930 H   0  0  0  0  0  0  0  0  0  0  0  0
   56.0088   30.5986   52.2451 H   0  0  0  0  0  0  0  0  0  0  0  0
   57.4073   32.0826   50.8046 H   0  0  0  0  0  0  0  0  0  0  0  0
   59.7643   35.5854   46.9453 H   0  0  0  0  0  0  0  0  0  0  0  0
   61.1667   34.4891   46.5989 H   0  0  0  0  0  0  0  0  0  0  0  0
   59.5658   35.0684   44.6349 H   0  0  0  0  0  0  0  0  0  0  0  0
   60.0098   33.3414   44.8973 H   0  0  0  0  0  0  0  0  0  0  0  0
   55.3957   31.1881   43.8558 H   0  0  0  0  0  0  0  0  0  0  0  0
   55.0531   28.8815   44.7351 H   0  0  0  0  0  0  0  0  0  0  0  0
   58.5993   28.5743   46.7146 H   0  0  0  0  0  0  0  0  0  0  0  0
   57.6161   28.2075   48.1836 H   0  0  0  0  0  0  0  0  0  0  0  0
   59.9717   28.6435   48.7756 H   0  0  0  0  0  0  0  0  0  0  0  0
   59.4843   26.9095   49.1086 H   0  0  0  0  0  0  0  0  0  0  0  0
   60.3216   27.2070   45.5980 H   0  0  0  0  0  0  0  0  0  0  0  0
   61.2437   25.7563   46.2110 H   0  0  0  0  0  0  0  0  0  0  0  0
   58.9099   25.1867   45.6151 H   0  0  0  0  0  0  0  0  0  0  0  0
   59.2687   24.9589   47.3795 H   0  0  0  0  0  0  0  0  0  0  0  0
   59.3392   28.2888   44.8494 H   0  0  0  0  0  0  0  0  0  0  0  0
   59.6821   30.5895   43.9562 H   0  0  0  0  0  0  0  0  0  0  0  0
  1  2  2  0
  2  3  1  0
  3  4  1  0
  4  5  1  0
  5  6  1  0
  6  7  1  0
  7  8  1  0
  8  9  2  0
  8 10  1  0
 10 11  1  0
 11 12  1  0
 12 13  2  0
 13 14  1  0
 14 15  2  0
 15 16  1  0
 16 17  2  0
  7 18  1  0
 18 19  1  0
  2 20  1  0
 20 21  2  0
 21 22  1  0
 22 23  2  0
 23 24  1  0
 24 25  2  0
 24 26  2  0
 24 27  1  0
 27 28  1  0
 28 29  1  0
 29 30  1  0
 30 31  1  0
 31 32  1  0
 23 33  1  0
 33 34  2  0
 19  4  1  0
 34 20  1  0
 17 12  1  0
 32 27  1  0
  4 35  1  0
  5 36  1  0
  5 37  1  0
  6 38  1  0
  6 39  1  0
 10 40  1  0
 11 41  1  0
 11 42  1  0
 13 43  1  0
 14 44  1  0
 15 45  1  0
 16 46  1  0
 17 47  1  0
 18 48  1  0
 18 49  1  0
 19 50  1  0
 19 51  1  0
 21 52  1  0
 22 53  1  0
 28 54  1  0
 28 55  1  0
 29 56  1  0
 29 57  1  0
 31 58  1  0
 31 59  1  0
 32 60  1  0
 32 61  1  0
 33 62  1  0
 34 63  1  0
M  CHG  1   3  -1
M  END
>  <UniqueID>  (20) 
18

>  <SMILES>  (20) 
O=C([N-]C1CCN(C(=O)NCc2ccccc2)CC1)c1ccc(S(=O)(=O)N2CCOCC2)cc1

>  <Energy>  (20) 
82.87600814461709

>  <Genealogy>  (20) 
O=C([N-]C1CCN(C(=O)NCc2ccccc2)CC1)c1ccc(S(=O)(=O)N2CCOCC2)cc1 (protonated)
O=C([N-]C1CCN(C(=O)NCc2ccccc2)CC1)c1ccc(S(=O)(=O)N2CCOCC2)cc1 (3D coordinates assigned)
O=C([N-]C1CCN(C(=O)NCc2ccccc2)CC1)c1ccc(S(=O)(=O)N2CCOCC2)cc1 (nonaromatic ring conformer: 82.87600814461709 kcal/mol)

>  <smiles>  (20) 
O=C(NC1CCN(C(=O)NCc2ccccc2)CC1)c1ccc(S(=O)(=O)N2CCOCC2)cc1

>  <score_type>  (20) 
oracle

>  <origin>  (20) 
adg

>  <m_score__min__energy>  (20) 
-11.19

>  <m_primary>  (20) 
energy

$$$$
20:0
     RDKit          3D

 31 32  0  0  0  0  0  0  0  0999 V2000
   57.3820   31.2480   42.6710 O   0  0  0  0  0  0  0  0  0  0  0  0
   56.7050   30.9040   43.6760 C   0  0  0  0  0  0  0  0  0  0  0  0
   55.7960   29.7190   43.5730 C   0  0  0  0  0  0  0  0  0  0  0  0
   55.6380   29.0590   44.8720 N   0  0  0  0  0  0  0  0  0  0  0  0
   56.9840   28.0160   45.2340 S   0  0  0  0  0  0  0  0  0  0  0  0
   57.4080   27.3120   43.9770 O   0  0  0  0  0  0  0  0  0  0  0  0
   56.5570   26.9790   46.2360 O   0  0  0  0  0  0  0  0  0  0  0  0
   58.3570   28.9320   45.8540 C   0  0  0  0  0  0  0  0  0  0  0  0
   59.5670   28.9810   45.1430 C   0  0  0  0  0  0  0  0  0  0  0  0
   60.6550   29.6930   45.6560 C   0  0  0  0  0  0  0  0  0  0  0  0
   60.5410   30.3590   46.8810 C   0  0  0  0  0  0  0  0  0  0  0  0
   61.5970   31.0500   47.3780 F   0  0  0  0  0  0  0  0  0  0  0  0
   59.3390   30.3120   47.5930 C   0  0  0  0  0  0  0  0  0  0  0  0
   58.2500   29.5990   47.0820 C   0  0  0  0  0  0  0  0  0  0  0  0
   56.6970   31.6880   44.8800 N   0  0  0  0  0  0  0  0  0  0  0  0
   57.5120   32.6290   45.2670 C   0  0  0  0  0  0  0  0  0  0  0  0
   58.2880   33.3980   44.3720 C   0  0  0  0  0  0  0  0  0  0  0  0
   59.1420   34.3820   44.8740 C   0  0  0  0  0  0  0  0  0  0  0  0
   59.2330   34.5930   46.2490 C   0  0  0  0  0  0  0  0  0  0  0  0
   58.4680   33.8040   47.1100 C   0  0  0  0  0  0  0  0  0  0  0  0
   57.6410   32.8530   46.6040 N   0  0  0  0  0  0  0  0  0  0  0  0
   54.8099   30.0528   43.2176 H   0  0  0  0  0  0  0  0  0  0  0  0
   56.2388   29.0000   42.8681 H   0  0  0  0  0  0  0  0  0  0  0  0
   59.6589   28.4577   44.1798 H   0  0  0  0  0  0  0  0  0  0  0  0
   61.6012   29.7297   45.0963 H   0  0  0  0  0  0  0  0  0  0  0  0
   59.2497   30.8362   48.5559 H   0  0  0  0  0  0  0  0  0  0  0  0
   57.3062   29.5615   47.6457 H   0  0  0  0  0  0  0  0  0  0  0  0
   58.2202   33.2231   43.2881 H   0  0  0  0  0  0  0  0  0  0  0  0
   59.7437   34.9915   44.1837 H   0  0  0  0  0  0  0  0  0  0  0  0
   59.8989   35.3711   46.6504 H   0  0  0  0  0  0  0  0  0  0  0  0
   58.5351   33.9526   48.1979 H   0  0  0  0  0  0  0  0  0  0  0  0
  1  2  2  0
  2  3  1  0
  3  4  1  0
  4  5  1  0
  5  6  2  0
  5  7  2  0
  5  8  1  0
  8  9  2  0
  9 10  1  0
 10 11  2  0
 11 12  1  0
 11 13  1  0
 13 14  2  0
  2 15  1  0
 15 16  2  3
 16 17  1  0
 17 18  2  0
 18 19  1  0
 19 20  2  0
 20 21  1  0
 14  8  1  0
 21 16  1  0
  3 22  1  0
  3 23  1  0
  9 24  1  0
 10 25  1  0
 13 26  1  0
 14 27  1  0
 17 28  1  0
 18 29  1  0
 19 30  1  0
 20 31  1  0
M  CHG  2   4  -1  21  -1
M  END
>  <UniqueID>  (21) 
19

>  <SMILES>  (21) 
O=C(C[N-]S(=O)(=O)c1ccc(F)cc1)N=c1cccc[n-]1

>  <Energy>  (21) 
37.72872956790767

>  <Genealogy>  (21) 
O=C(C[N-]S(=O)(=O)c1ccc(F)cc1)N=c1cccc[n-]1 (protonated)
O=C(C[N-]S(=O)(=O)c1ccc(F)cc1)N=c1cccc[n-]1 (3D coordinates assigned)
O=C(C[N-]S(=O)(=O)c1ccc(F)cc1)N=c1cccc[n-]1 (optimized conformer: 37.72872956790767 kcal/mol)

>  <smiles>  (21) 
O=C(CNS(=O)(=O)c1ccc(F)cc1)N=c1cccc[nH]1

>  <score_type>  (21) 
oracle

>  <origin>  (21) 
adg

>  <m_score__min__energy>  (21) 
-10.529999999999999

>  <m_primary>  (21) 
energy

$$$$
21:0
     RDKit          3D

 34 35  0  0  0  0  0  0  0  0999 V2000
   54.7670   28.9410   45.6080 H   0  0  0  0  0  0  0  0  0  0  0  0
   55.4990   29.3830   45.0630 O   0  0  0  0  0  0  0  0  0  0  0  0
   56.8370   29.0160   45.2010 C   0  0  0  0  0  0  0  0  0  0  0  0
   57.1780   27.9050   45.9860 C   0  0  0  0  0  0  0  0  0  0  0  0
   56.3858   27.3282   46.4857 H   0  0  0  0  0  0  0  0  0  0  0  0
   58.5190   27.5210   46.1410 C   0  0  0  0  0  0  0  0  0  0  0  0
   58.8680   26.3490   46.9780 C   0  0  0  0  0  0  0  0  0  0  0  0
   59.9650   26.3340   47.5960 O   0  0  0  0  0  0  0  0  0  0  0  0
   57.9610   25.2520   47.1650 N   0  0  0  0  0  0  0  0  0  0  0  0
   56.9970   24.9180   46.3580 C   0  0  0  0  0  0  0  0  0  0  0  0
   55.7150   25.2730   46.5850 N   0  0  0  0  0  0  0  0  0  0  0  0
   54.8810   24.7810   45.6310 C   0  0  0  0  0  0  0  0  0  0  0  0
   53.7974   24.9699   45.6421 H   0  0  0  0  0  0  0  0  0  0  0  0
   55.4940   24.0220   44.6400 C   0  0  0  0  0  0  0  0  0  0  0  0
   54.9895   23.5438   43.7874 H   0  0  0  0  0  0  0  0  0  0  0  0
   57.1420   23.9630   44.9730 S   0  0  0  0  0  0  0  0  0  0  0  0
   59.5170   28.2450   45.4710 C   0  0  0  0  0  0  0  0  0  0  0  0
   60.5692   27.9378   45.5635 H   0  0  0  0  0  0  0  0  0  0  0  0
   59.1850   29.3520   44.6880 C   0  0  0  0  0  0  0  0  0  0  0  0
   59.9783   29.9114   44.1706 H   0  0  0  0  0  0  0  0  0  0  0  0
   57.8460   29.7580   44.5550 C   0  0  0  0  0  0  0  0  0  0  0  0
   57.5150   30.9800   43.7250 C   0  0  0  0  0  0  0  0  0  0  0  0
   56.5109   30.8456   43.2964 H   0  0  0  0  0  0  0  0  0  0  0  0
   58.2961   31.0632   42.9550 H   0  0  0  0  0  0  0  0  0  0  0  0
   57.5300   32.3060   44.5240 C   0  0  0  0  0  0  0  0  0  0  0  0
   56.5039   32.6985   44.4692 H   0  0  0  0  0  0  0  0  0  0  0  0
   58.4610   33.3550   43.9020 C   0  0  0  0  0  0  0  0  0  0  0  0
   58.9626   33.9201   44.7014 H   0  0  0  0  0  0  0  0  0  0  0  0
   59.2157   32.8523   43.2793 H   0  0  0  0  0  0  0  0  0  0  0  0
   57.8722   34.0446   43.2793 H   0  0  0  0  0  0  0  0  0  0  0  0
   57.8690   32.0910   46.0050 C   0  0  0  0  0  0  0  0  0  0  0  0
   57.1047   32.5757   46.6302 H   0  0  0  0  0  0  0  0  0  0  0  0
   57.8916   31.0131   46.2232 H   0  0  0  0  0  0  0  0  0  0  0  0
   58.8537   32.5300   46.2232 H   0  0  0  0  0  0  0  0  0  0  0  0
  1  2  1  0
  2  3  1  0
  3  4  2  0
  4  5  1  0
  4  6  1  0
  6  7  1  0
  7  8  2  0
  7  9  1  0
  9 10  2  0
 10 11  1  0
 11 12  1  0
 12 13  1  0
 12 14  2  0
 14 15  1  0
 14 16  1  0
  6 17  2  0
 17 18  1  0
 17 19  1  0
 19 20  1  0
 19 21  2  0
 21 22  1  0
 22 23  1  0
 22 24  1  0
 22 25  1  0
 25 26  1  0
 25 27  1  0
 27 28  1  0
 27 29  1  0
 27 30  1  0
 25 31  1  0
 31 32  1  0
 31 33  1  0
 31 34  1  0
 21  3  1  0
 16 10  1  0
M  CHG  1  11  -1
M  END
>  <UniqueID>  (22) 
20

>  <SMILES>  (22) 
CC(C)Cc1ccc(C(=O)/N=c2/[n-]ccs2)cc1O

>  <Energy>  (22) 
67.73492520161948

>  <Genealogy>  (22) 
CC(C)Cc1ccc(C(=O)N=c2[n-]ccs2)cc1O (protonated)
CC(C)Cc1ccc(C(=O)/N=c2/[n-]ccs2)cc1O (cis-trans isomerization)
CC(C)Cc1ccc(C(=O)/N=c2/[n-]ccs2)cc1O (3D coordinates assigned)
CC(C)Cc1ccc(C(=O)/N=c2/[n-]ccs2)cc1O (optimized conformer: 67.73492520161948 kcal/mol)

>  <smiles>  (22) 
CC(C)Cc1ccc(C(=O)N=c2[nH]ccs2)cc1O

>  <score_type>  (22) 
oracle

>  <origin>  (22) 
adg

>  <m_score__min__energy>  (22) 
-9.1999999999999993

>  <m_primary>  (22) 
energy

$$$$
22:0
     RDKit          3D

 66 70  0  0  0  0  0  0  0  0999 V2000
   61.3970   33.8490   50.8340 C   0  0  0  0  0  0  0  0  0  0  0  0
   59.9870   33.2920   50.6200 C   0  0  0  0  0  0  0  0  0  0  0  0
   59.0060   33.8720   51.6490 C   0  0  0  0  0  0  0  0  0  0  0  0
   59.5350   33.5330   49.1910 C   0  0  0  0  0  0  0  0  0  0  0  0
   58.4970   32.7810   48.6110 C   0  0  0  0  0  0  0  0  0  0  0  0
   58.0870   33.0330   47.2990 C   0  0  0  0  0  0  0  0  0  0  0  0
   58.6890   34.0560   46.5510 C   0  0  0  0  0  0  0  0  0  0  0  0
   58.2830   34.2860   45.1160 C   0  0  0  0  0  0  0  0  0  0  0  0
   57.4630   33.1070   44.5750 C   0  0  0  0  0  0  0  0  0  0  0  0
   58.2030   31.8490   44.6850 N   0  0  0  0  0  0  0  0  0  0  0  0
   57.5380   30.6000   44.9070 C   0  0  0  0  0  0  0  0  0  0  0  0
   56.2820   30.5250   44.8370 O   0  0  0  0  0  0  0  0  0  0  0  0
   58.3370   29.3830   45.2600 C   0  0  0  0  0  0  0  0  0  0  0  0
   59.3690   29.7340   46.2860 C   0  0  0  0  0  0  0  0  0  0  0  0
   60.2800   30.7240   46.1360 N   0  0  0  0  0  0  0  0  0  0  0  0
   60.9400   30.7310   47.3180 C   0  0  0  0  0  0  0  0  0  0  0  0
   61.9940   31.5770   47.6680 C   0  0  0  0  0  0  0  0  0  0  0  0
   62.5130   32.5500   46.8030 C   0  0  0  0  0  0  0  0  0  0  0  0
   63.5610   33.3700   47.2310 C   0  0  0  0  0  0  0  0  0  0  0  0
   64.1010   33.2130   48.5140 C   0  0  0  0  0  0  0  0  0  0  0  0
   63.5940   32.2370   49.3790 C   0  0  0  0  0  0  0  0  0  0  0  0
   62.5380   31.4180   48.9660 C   0  0  0  0  0  0  0  0  0  0  0  0
   62.0340   30.4710   49.8120 N   0  0  0  0  0  0  0  0  0  0  0  0
   61.0080   29.6580   49.4350 C   0  0  0  0  0  0  0  0  0  0  0  0
   60.3950   28.4220   50.5840 S   0  0  0  0  0  0  0  0  0  0  0  0
   60.1040   29.6140   51.9370 C   0  0  0  0  0  0  0  0  0  0  0  0
   58.6300   29.8640   52.1140 C   0  0  0  0  0  0  0  0  0  0  0  0
   57.9950   30.9150   51.4290 C   0  0  0  0  0  0  0  0  0  0  0  0
   56.6200   31.1200   51.5710 C   0  0  0  0  0  0  0  0  0  0  0  0
   55.8690   30.2820   52.3980 C   0  0  0  0  0  0  0  0  0  0  0  0
   56.4910   29.2320   53.0830 C   0  0  0  0  0  0  0  0  0  0  0  0
   55.4610   28.0880   54.2140 Br  0  0  0  0  0  0  0  0  0  0  0  0
   57.8670   29.0180   52.9350 C   0  0  0  0  0  0  0  0  0  0  0  0
   60.4830   29.8130   48.1890 N   0  0  0  0  0  0  0  0  0  0  0  0
   59.4860   29.1830   47.5470 C   0  0  0  0  0  0  0  0  0  0  0  0
   58.7070   28.1600   48.0740 O   0  0  0  0  0  0  0  0  0  0  0  0
   59.7040   34.8290   47.1360 C   0  0  0  0  0  0  0  0  0  0  0  0
   60.1160   34.5750   48.4470 C   0  0  0  0  0  0  0  0  0  0  0  0
   61.5999   33.9291   51.9122 H   0  0  0  0  0  0  0  0  0  0  0  0
   62.1321   33.1737   50.3718 H   0  0  0  0  0  0  0  0  0  0  0  0
   61.4721   34.8444   50.3718 H   0  0  0  0  0  0  0  0  0  0  0  0
   60.0060   32.2037   50.7789 H   0  0  0  0  0  0  0  0  0  0  0  0
   59.3700   33.6568   52.6645 H   0  0  0  0  0  0  0  0  0  0  0  0
   58.9297   34.9605   51.5099 H   0  0  0  0  0  0  0  0  0  0  0  0
   58.0155   33.4142   51.5099 H   0  0  0  0  0  0  0  0  0  0  0  0
   58.0046   31.9890   49.1944 H   0  0  0  0  0  0  0  0  0  0  0  0
   57.2874   32.4256   46.8500 H   0  0  0  0  0  0  0  0  0  0  0  0
   57.6765   35.2018   45.0572 H   0  0  0  0  0  0  0  0  0  0  0  0
   59.1943   34.3844   44.5079 H   0  0  0  0  0  0  0  0  0  0  0  0
   56.5298   33.0252   45.1515 H   0  0  0  0  0  0  0  0  0  0  0  0
   57.2491   33.2919   43.5120 H   0  0  0  0  0  0  0  0  0  0  0  0
   59.2480   31.8540   44.6560 H   0  0  0  0  0  0  0  0  0  0  0  0
   57.6666   28.6110   45.6656 H   0  0  0  0  0  0  0  0  0  0  0  0
   58.8371   29.0024   44.3572 H   0  0  0  0  0  0  0  0  0  0  0  0
   62.0973   32.6679   45.7914 H   0  0  0  0  0  0  0  0  0  0  0  0
   63.9632   34.1414   46.5578 H   0  0  0  0  0  0  0  0  0  0  0  0
   64.9275   33.8600   48.8430 H   0  0  0  0  0  0  0  0  0  0  0  0
   64.0257   32.1139   50.3833 H   0  0  0  0  0  0  0  0  0  0  0  0
   60.5167   29.2075   52.8721 H   0  0  0  0  0  0  0  0  0  0  0  0
   60.5975   30.5643   51.6851 H   0  0  0  0  0  0  0  0  0  0  0  0
   58.5832   31.5789   50.7784 H   0  0  0  0  0  0  0  0  0  0  0  0
   56.1286   31.9425   51.0307 H   0  0  0  0  0  0  0  0  0  0  0  0
   54.7874   30.4474   52.5111 H   0  0  0  0  0  0  0  0  0  0  0  0
   58.3519   28.1842   53.4638 H   0  0  0  0  0  0  0  0  0  0  0  0
   60.1771   35.6381   46.5602 H   0  0  0  0  0  0  0  0  0  0  0  0
   60.9022   35.1961   48.9011 H   0  0  0  0  0  0  0  0  0  0  0  0
  1  2  1  0
  2  3  1  0
  2  4  1  0
  4  5  2  0
  5  6  1  0
  6  7  2  0
  7  8  1  0
  8  9  1  0
  9 10  1  0
 10 11  1  0
 11 12  2  0
 11 13  1  0
 13 14  1  0
 14 15  1  0
 15 16  2  0
 16 17  1  0
 17 18  2  0
 18 19  1  0
 19 20  2  0
 20 21  1  0
 21 22  2  0
 22 23  1  0
 23 24  2  0
 24 25  1  0
 25 26  1  0
 26 27  1  0
 27 28  2  0
 28 29  1  0
 29 30  2  0
 30 31  1  0
 31 32  1  0
 31 33  2  0
 24 34  1  0
 34 35  1  0
 35 36  1  0
  7 37  1  0
 37 38  2  0
 38  4  1  0
 35 14  2  0
 34 16  1  0
 22 17  1  0
 33 27  1  0
  1 39  1  0
  1 40  1  0
  1 41  1  0
  2 42  1  0
  3 43  1  0
  3 44  1  0
  3 45  1  0
  5 46  1  0
  6 47  1  0
  8 48  1  0
  8 49  1  0
  9 50  1  0
  9 51  1  0
 10 52  1  0
 13 53  1  0
 13 54  1  0
 18 55  1  0
 19 56  1  0
 20 57  1  0
 21 58  1  0
 26 59  1  0
 26 60  1  0
 28 61  1  0
 29 62  1  0
 30 63  1  0
 33 64  1  0
 37 65  1  0
 38 66  1  0
M  CHG  1  36  -1
M  END
>  <UniqueID>  (23) 
21

>  <SMILES>  (23) 
CC(C)c1ccc(CCNC(=O)Cc2nc3c4ccccc4nc(SCc4cccc(Br)c4)n3c2[O-])cc1

>  <Energy>  (23) 
90.10022016151734

>  <Genealogy>  (23) 
CC(C)c1ccc(CCNC(=O)Cc2nc3c4ccccc4nc(SCc4cccc(Br)c4)n3c2[O-])cc1 (protonated)
CC(C)c1ccc(CCNC(=O)Cc2nc3c4ccccc4nc(SCc4cccc(Br)c4)n3c2[O-])cc1 (3D coordinates assigned)
CC(C)c1ccc(CCNC(=O)Cc2nc3c4ccccc4nc(SCc4cccc(Br)c4)n3c2[O-])cc1 (optimized conformer: 90.10022016151734 kcal/mol)

>  <smiles>  (23) 
CC(C)c1ccc(CCNC(=O)Cc2nc3c4ccccc4nc(SCc4cccc(Br)c4)n3c2O)cc1

>  <score_type>  (23) 
oracle

>  <origin>  (23) 
adg

>  <m_score__min__energy>  (23) 
-11.56

>  <m_primary>  (23) 
energy

$$$$
23:0
     RDKit          3D

 38 39  0  0  0  0  0  0  0  0999 V2000
   56.5050   31.5790   44.8710 N   0  0  0  0  0  0  0  0  0  0  0  0
   57.4800   32.8620   45.4980 S   0  0  0  0  0  0  0  0  0  0  0  0
   56.6420   33.7600   46.3660 O   0  0  0  0  0  0  0  0  0  0  0  0
   58.0330   33.6690   44.3580 O   0  0  0  0  0  0  0  0  0  0  0  0
   58.7930   32.1830   46.4540 C   0  0  0  0  0  0  0  0  0  0  0  0
   59.9210   32.9530   46.7690 C   0  0  0  0  0  0  0  0  0  0  0  0
   60.9630   32.3960   47.5130 C   0  0  0  0  0  0  0  0  0  0  0  0
   60.8930   31.0660   47.9370 C   0  0  0  0  0  0  0  0  0  0  0  0
   59.7730   30.2790   47.6110 C   0  0  0  0  0  0  0  0  0  0  0  0
   59.6720   28.9010   47.9940 N   0  0  0  0  0  0  0  0  0  0  0  0
   59.8570   27.5510   46.9220 S   0  0  0  0  0  0  0  0  0  0  0  0
   61.0100   26.7070   47.3840 O   0  0  0  0  0  0  0  0  0  0  0  0
   60.1530   28.0630   45.5390 O   0  0  0  0  0  0  0  0  0  0  0  0
   58.3910   26.5600   46.9280 C   0  0  0  0  0  0  0  0  0  0  0  0
   58.4470   25.2530   47.4360 C   0  0  0  0  0  0  0  0  0  0  0  0
   57.3130   24.4420   47.4220 C   0  0  0  0  0  0  0  0  0  0  0  0
   56.1100   24.9330   46.9180 C   0  0  0  0  0  0  0  0  0  0  0  0
   56.0320   26.2370   46.4220 C   0  0  0  0  0  0  0  0  0  0  0  0
   54.8000   26.7120   45.9890 O   0  0  0  0  0  0  0  0  0  0  0  0
   57.1810   27.0560   46.3980 C   0  0  0  0  0  0  0  0  0  0  0  0
   57.1370   28.4030   45.9040 N   0  0  0  0  0  0  0  0  0  0  0  0
   57.3740   28.8840   44.2520 S   0  0  0  0  0  0  0  0  0  0  0  0
   58.3960   29.9830   44.1680 O   0  0  0  0  0  0  0  0  0  0  0  0
   56.0730   29.4010   43.7080 O   0  0  0  0  0  0  0  0  0  0  0  0
   57.8930   27.4870   43.2730 C   0  0  0  0  0  0  0  0  0  0  0  0
   57.3790   27.6050   41.9970 F   0  0  0  0  0  0  0  0  0  0  0  0
   57.4380   26.3130   43.8400 F   0  0  0  0  0  0  0  0  0  0  0  0
   59.2740   27.4580   43.2080 F   0  0  0  0  0  0  0  0  0  0  0  0
   58.7240   30.8500   46.8810 C   0  0  0  0  0  0  0  0  0  0  0  0
   56.7560   30.7160   45.4040 H   0  0  0  0  0  0  0  0  0  0  0  0
   56.8060   31.4210   43.8830 H   0  0  0  0  0  0  0  0  0  0  0  0
   59.9854   33.9974   46.4297 H   0  0  0  0  0  0  0  0  0  0  0  0
   61.8424   33.0063   47.7664 H   0  0  0  0  0  0  0  0  0  0  0  0
   61.7149   30.6337   48.5266 H   0  0  0  0  0  0  0  0  0  0  0  0
   59.3909   24.8662   47.8476 H   0  0  0  0  0  0  0  0  0  0  0  0
   57.3679   23.4138   47.8091 H   0  0  0  0  0  0  0  0  0  0  0  0
   55.2171   24.2906   46.9106 H   0  0  0  0  0  0  0  0  0  0  0  0
   57.8366   30.2463   46.6401 H   0  0  0  0  0  0  0  0  0  0  0  0
  1  2  1  0
  2  3  2  0
  2  4  2  0
  2  5  1  0
  5  6  2  0
  6  7  1  0
  7  8  2  0
  8  9  1  0
  9 10  1  0
 10 11  1  0
 11 12  2  0
 11 13  2  0
 11 14  1  0
 14 15  2  0
 15 16  1  0
 16 17  2  0
 17 18  1  0
 18 19  1  0
 18 20  2  0
 20 21  1  0
 21 22  1  0
 22 23  2  0
 22 24  2  0
 22 25  1  0
 25 26  1  0
 25 27  1  0
 25 28  1  0
  9 29  2  0
 29  5  1  0
 20 14  1  0
  1 30  1  0
  1 31  1  0
  6 32  1  0
  7 33  1  0
  8 34  1  0
 15 35  1  0
 16 36  1  0
 17 37  1  0
 29 38  1  0
M  CHG  3  10  -1  19  -1  21  -1
M  END
>  <UniqueID>  (24) 
22

>  <SMILES>  (24) 
NS(=O)(=O)c1cccc([N-]S(=O)(=O)c2cccc([O-])c2[N-]S(=O)(=O)C(F)(F)F)c1

>  <Energy>  (24) 
43.73501016589136

>  <Genealogy>  (24) 
NS(=O)(=O)c1cccc([N-]S(=O)(=O)c2cccc([O-])c2[N-]S(=O)(=O)C(F)(F)F)c1 (protonated)
NS(=O)(=O)c1cccc([N-]S(=O)(=O)c2cccc([O-])c2[N-]S(=O)(=O)C(F)(F)F)c1 (3D coordinates assigned)
NS(=O)(=O)c1cccc([N-]S(=O)(=O)c2cccc([O-])c2[N-]S(=O)(=O)C(F)(F)F)c1 (optimized conformer: 43.73501016589136 kcal/mol)

>  <smiles>  (24) 
NS(=O)(=O)c1cccc(NS(=O)(=O)c2cccc(O)c2NS(=O)(=O)C(F)(F)F)c1

>  <score_type>  (24) 
oracle

>  <origin>  (24) 
adg

>  <m_score__min__energy>  (24) 
-15.300000000000001

>  <m_primary>  (24) 
energy

$$$$
24:0
     RDKit          3D

 72 74  0  0  0  0  0  0  0  0999 V2000
   62.6480   31.0030   51.3320 C   0  0  0  0  0  0  0  0  0  0  0  0
   62.8660   32.3430   50.9030 O   0  0  0  0  0  0  0  0  0  0  0  0
   62.0300   33.0440   50.0220 C   0  0  0  0  0  0  0  0  0  0  0  0
   62.5050   33.5790   48.8080 C   0  0  0  0  0  0  0  0  0  0  0  0
   61.6300   34.2150   47.9230 C   0  0  0  0  0  0  0  0  0  0  0  0
   60.2680   34.3370   48.2380 C   0  0  0  0  0  0  0  0  0  0  0  0
   59.3050   34.9640   47.2690 C   0  0  0  0  0  0  0  0  0  0  0  0
   58.1450   34.0940   47.0970 N   0  0  0  0  0  0  0  0  0  0  0  0
   57.6960   33.5960   45.8320 C   0  0  0  0  0  0  0  0  0  0  0  0
   56.5740   33.9420   45.3780 O   0  0  0  0  0  0  0  0  0  0  0  0
   58.5560   32.6490   45.0910 C   0  0  0  0  0  0  0  0  0  0  0  0
   58.5020   32.6450   43.8320 O   0  0  0  0  0  0  0  0  0  0  0  0
   59.4650   31.7400   45.7300 N   0  0  0  0  0  0  0  0  0  0  0  0
   59.1390   30.4140   46.2450 C   0  0  0  0  0  0  0  0  0  0  0  0
   58.0880   29.7340   45.3430 C   0  0  1  0  0  0  0  0  0  0  0  0
   58.5930   29.7280   44.0260 O   0  0  0  0  0  0  0  0  0  0  0  0
   57.7450   28.3110   45.7930 C   0  0  0  0  0  0  0  0  0  0  0  0
   58.6880   27.5150   46.4730 C   0  0  0  0  0  0  0  0  0  0  0  0
   58.3580   26.2290   46.8990 C   0  0  0  0  0  0  0  0  0  0  0  0
   57.0740   25.7220   46.6980 C   0  0  0  0  0  0  0  0  0  0  0  0
   56.7840   24.4280   47.1390 O   0  0  0  0  0  0  0  0  0  0  0  0
   56.0950   26.5200   46.0800 C   0  0  0  0  0  0  0  0  0  0  0  0
   54.7670   26.0060   45.9180 N   0  0  0  0  0  0  0  0  0  0  0  0
   54.3750   24.3420   45.6110 S   0  0  0  0  0  0  0  0  0  0  0  0
   52.7710   24.2220   44.8450 C   0  0  0  0  0  0  0  0  0  0  0  0
   54.3280   23.6090   46.9250 O   0  0  0  0  0  0  0  0  0  0  0  0
   55.4280   23.7130   44.7340 O   0  0  0  0  0  0  0  0  0  0  0  0
   56.4390   27.8040   45.6250 C   0  0  0  0  0  0  0  0  0  0  0  0
   59.7940   33.8060   49.4480 C   0  0  0  0  0  0  0  0  0  0  0  0
   60.6670   33.1850   50.3470 C   0  0  0  0  0  0  0  0  0  0  0  0
   60.1410   32.6670   51.5380 O   0  0  0  0  0  0  0  0  0  0  0  0
   58.8180   32.2380   51.7160 C   0  0  0  0  0  0  0  0  0  0  0  0
   58.4810   30.9430   51.3150 C   0  0  0  0  0  0  0  0  0  0  0  0
   57.1680   30.4810   51.4390 C   0  0  0  0  0  0  0  0  0  0  0  0
   56.1640   31.3100   51.9610 C   0  0  0  0  0  0  0  0  0  0  0  0
   54.7700   30.8170   52.0860 C   0  0  0  0  0  0  0  0  0  0  0  0
   54.5450   29.6500   52.5050 O   0  0  0  0  0  0  0  0  0  0  0  0
   53.6710   31.6660   51.7330 N   0  0  0  0  0  0  0  0  0  0  0  0
   52.3160   31.1720   51.4960 C   0  0  2  0  0  0  0  0  0  0  0  0
   52.3490   30.1160   50.3930 C   0  0  0  0  0  0  0  0  0  0  0  0
   51.4040   32.2990   51.1000 C   0  0  0  0  0  0  0  0  0  0  0  0
   51.0230   33.1460   51.9510 O   0  0  0  0  0  0  0  0  0  0  0  0
   51.0360   32.4480   49.7680 O   0  0  0  0  0  0  0  0  0  0  0  0
   56.5050   32.6130   52.3650 C   0  0  0  0  0  0  0  0  0  0  0  0
   57.8180   33.0780   52.2380 C   0  0  0  0  0  0  0  0  0  0  0  0
   62.6420   30.9663   52.4314 H   0  0  0  0  0  0  0  0  0  0  0  0
   61.6803   30.6479   50.9480 H   0  0  0  0  0  0  0  0  0  0  0  0
   63.4533   30.3595   50.9480 H   0  0  0  0  0  0  0  0  0  0  0  0
   63.5723   33.4955   48.5550 H   0  0  0  0  0  0  0  0  0  0  0  0
   62.0109   34.6220   46.9747 H   0  0  0  0  0  0  0  0  0  0  0  0
   58.9766   35.9388   47.6587 H   0  0  0  0  0  0  0  0  0  0  0  0
   59.8033   35.1036   46.2983 H   0  0  0  0  0  0  0  0  0  0  0  0
   60.0507   29.7990   46.2674 H   0  0  0  0  0  0  0  0  0  0  0  0
   58.7282   30.5150   47.2604 H   0  0  0  0  0  0  0  0  0  0  0  0
   57.1482   30.3021   45.4067 H   0  0  0  0  0  0  0  0  0  0  0  0
   59.0970   30.5740   43.9030 H   0  0  0  0  0  0  0  0  0  0  0  0
   59.6948   27.9121   46.6698 H   0  0  0  0  0  0  0  0  0  0  0  0
   59.1170   25.6086   47.3981 H   0  0  0  0  0  0  0  0  0  0  0  0
   55.9550   23.9270   46.8410 H   0  0  0  0  0  0  0  0  0  0  0  0
   51.9962   24.1640   45.6237 H   0  0  0  0  0  0  0  0  0  0  0  0
   52.5962   25.1096   44.2192 H   0  0  0  0  0  0  0  0  0  0  0  0
   52.7302   23.3183   44.2192 H   0  0  0  0  0  0  0  0  0  0  0  0
   55.6776   28.4243   45.1296 H   0  0  0  0  0  0  0  0  0  0  0  0
   58.7239   33.8792   49.6918 H   0  0  0  0  0  0  0  0  0  0  0  0
   59.2551   30.2818   50.8984 H   0  0  0  0  0  0  0  0  0  0  0  0
   56.9192   29.4568   51.1241 H   0  0  0  0  0  0  0  0  0  0  0  0
   51.9306   30.7251   52.4243 H   0  0  0  0  0  0  0  0  0  0  0  0
   52.3803   29.1139   50.8456 H   0  0  0  0  0  0  0  0  0  0  0  0
   51.4475   30.2087   49.7695 H   0  0  0  0  0  0  0  0  0  0  0  0
   53.2429   30.2648   49.7695 H   0  0  0  0  0  0  0  0  0  0  0  0
   55.7317   33.2730   52.7850 H   0  0  0  0  0  0  0  0  0  0  0  0
   58.0692   34.1033   52.5472 H   0  0  0  0  0  0  0  0  0  0  0  0
  1  2  1  0
  2  3  1  0
  3  4  2  0
  4  5  1  0
  5  6  2  0
  6  7  1  0
  7  8  1  0
  8  9  1  0
  9 10  2  0
  9 11  1  0
 11 12  2  0
 11 13  1  0
 13 14  1  0
 14 15  1  0
 15 16  1  0
 15 17  1  0
 17 18  2  0
 18 19  1  0
 19 20  2  0
 20 21  1  0
 20 22  1  0
 22 23  1  0
 23 24  1  0
 24 25  1  0
 24 26  2  0
 24 27  2  0
 22 28  2  0
  6 29  1  0
 29 30  2  0
 30 31  1  0
 31 32  1  0
 32 33  2  0
 33 34  1  0
 34 35  2  0
 35 36  1  0
 36 37  2  0
 36 38  1  0
 38 39  1  0
 39 40  1  0
 39 41  1  0
 41 42  2  0
 41 43  1  0
 35 44  1  0
 44 45  2  0
 30  3  1  0
 45 32  1  0
 28 17  1  0
  1 46  1  0
  1 47  1  0
  1 48  1  0
  4 49  1  0
  5 50  1  0
  7 51  1  0
  7 52  1  0
 14 53  1  0
 14 54  1  0
 15 55  1  6
 16 56  1  0
 18 57  1  0
 19 58  1  0
 21 59  1  0
 25 60  1  0
 25 61  1  0
 25 62  1  0
 28 63  1  0
 29 64  1  0
 33 65  1  0
 34 66  1  0
 39 67  1  1
 40 68  1  0
 40 69  1  0
 40 70  1  0
 44 71  1  0
 45 72  1  0
M  CHG  5   8  -1  13  -1  23  -1  38  -1  43  -1
M  END
>  <UniqueID>  (25) 
23

>  <SMILES>  (25) 
COc1ccc(C[N-]C(=O)C(=O)[N-]C[C@@H](O)c2ccc(O)c([N-]S(C)(=O)=O)c2)cc1Oc1ccc(C(=O)[N-][C@H](C)C(=O)[O-])cc1

>  <Energy>  (25) 
80.09358488625368

>  <Genealogy>  (25) 
COc1ccc(C[N-]C(=O)C(=O)[N-]CC(O)c2ccc(O)c([N-]S(C)(=O)=O)c2)cc1Oc1ccc(C(=O)[N-]C(C)C(=O)[O-])cc1 (protonated)
COc1ccc(C[N-]C(=O)C(=O)[N-]C[C@@H](O)c2ccc(O)c([N-]S(C)(=O)=O)c2)cc1Oc1ccc(C(=O)[N-][C@H](C)C(=O)[O-])cc1 (chirality)
COc1ccc(C[N-]C(=O)C(=O)[N-]C[C@@H](O)c2ccc(O)c([N-]S(C)(=O)=O)c2)cc1Oc1ccc(C(=O)[N-][C@H](C)C(=O)[O-])cc1 (3D coordinates assigned)
COc1ccc(C[N-]C(=O)C(=O)[N-]C[C@@H](O)c2ccc(O)c([N-]S(C)(=O)=O)c2)cc1Oc1ccc(C(=O)[N-][C@H](C)C(=O)[O-])cc1 (optimized conformer: 80.09358488625368 kcal/mol)

>  <smiles>  (25) 
COc1ccc(CNC(=O)C(=O)NCC(O)c2ccc(O)c(NS(C)(=O)=O)c2)cc1Oc1ccc(C(=O)NC(C)C(=O)O)cc1

>  <score_type>  (25) 
oracle

>  <origin>  (25) 
adg

>  <m_score__min__energy>  (25) 
-18.649999999999999

>  <m_primary>  (25) 
energy

$$$$
25:0
     RDKit          3D

 42 46  0  0  0  0  0  0  0  0999 V2000
   59.6769   26.4447   48.3238 H   0  0  0  0  0  0  0  0  0  0  0  0
   59.6420   27.5310   48.1540 C   0  0  0  0  0  0  0  0  0  0  0  0
   60.5620   28.3760   48.5030 N   0  0  0  0  0  0  0  0  0  0  0  0
   60.0900   29.6520   48.1710 N   0  0  0  0  0  0  0  0  0  0  0  0
   60.7760   30.6750   47.6260 C   0  0  0  0  0  0  0  0  0  0  0  0
   62.0330   30.9320   47.8330 N   0  0  0  0  0  0  0  0  0  0  0  0
   62.5540   32.2480   48.1850 C   0  0  0  0  0  0  0  0  0  0  0  0
   62.3974   32.1847   49.2720 H   0  0  0  0  0  0  0  0  0  0  0  0
   62.2940   33.2860   47.1090 C   0  0  0  0  0  0  0  0  0  0  0  0
   61.7055   33.0199   46.2185 H   0  0  0  0  0  0  0  0  0  0  0  0
   61.8624   34.2976   47.0916 H   0  0  0  0  0  0  0  0  0  0  0  0
   63.6920   32.7150   47.2960 C   0  0  0  0  0  0  0  0  0  0  0  0
   64.1146   32.0359   46.5408 H   0  0  0  0  0  0  0  0  0  0  0  0
   64.6905   33.1424   47.4699 H   0  0  0  0  0  0  0  0  0  0  0  0
   60.0130   31.3860   46.7650 N   0  0  0  0  0  0  0  0  0  0  0  0
   58.8400   30.7060   46.7950 C   0  0  0  0  0  0  0  0  0  0  0  0
   57.7720   31.1500   46.1950 N   0  0  0  0  0  0  0  0  0  0  0  0
   57.3500   30.8900   44.8470 C   0  0  0  0  0  0  0  0  0  0  0  0
   56.4380   29.8620   44.5430 C   0  0  0  0  0  0  0  0  0  0  0  0
   56.0471   29.2205   45.3465 H   0  0  0  0  0  0  0  0  0  0  0  0
   56.0280   29.6540   43.2250 C   0  0  0  0  0  0  0  0  0  0  0  0
   55.3260   28.8401   42.9909 H   0  0  0  0  0  0  0  0  0  0  0  0
   56.5070   30.4770   42.2020 C   0  0  0  0  0  0  0  0  0  0  0  0
   56.1805   30.3095   41.1650 H   0  0  0  0  0  0  0  0  0  0  0  0
   57.4030   31.5160   42.4940 C   0  0  0  0  0  0  0  0  0  0  0  0
   57.8780   32.4330   41.4050 C   0  0  0  0  0  0  0  0  0  0  0  0
   58.3402   33.3252   41.8526 H   0  0  0  0  0  0  0  0  0  0  0  0
   58.6185   31.9098   40.7821 H   0  0  0  0  0  0  0  0  0  0  0  0
   57.0235   32.7360   40.7821 H   0  0  0  0  0  0  0  0  0  0  0  0
   57.8000   31.7330   43.8230 C   0  0  0  0  0  0  0  0  0  0  0  0
   58.4700   32.5720   44.0621 H   0  0  0  0  0  0  0  0  0  0  0  0
   58.9010   29.6370   47.6270 N   0  0  0  0  0  0  0  0  0  0  0  0
   58.5410   28.2580   47.4930 C   0  0  0  0  0  0  0  0  0  0  0  0
   57.6660   27.7380   46.6200 C   0  0  0  0  0  0  0  0  0  0  0  0
   57.3218   28.3713   45.7890 H   0  0  0  0  0  0  0  0  0  0  0  0
   57.1410   26.3660   46.7130 C   0  0  0  0  0  0  0  0  0  0  0  0
   57.9070   25.3020   47.0110 N   0  0  0  0  0  0  0  0  0  0  0  0
   57.0540   24.2610   46.9090 C   0  0  0  0  0  0  0  0  0  0  0  0
   57.4050   23.0730   47.1300 O   0  0  0  0  0  0  0  0  0  0  0  0
   55.7980   24.5920   46.5420 N   0  0  0  0  0  0  0  0  0  0  0  0
   55.8710   25.9260   46.4100 C   0  0  0  0  0  0  0  0  0  0  0  0
   54.8110   26.7120   45.9760 O   0  0  0  0  0  0  0  0  0  0  0  0
  1  2  1  0
  2  3  2  0
  3  4  1  0
  4  5  1  0
  5  6  2  0
  6  7  1  0
  7  8  1  0
  7  9  1  0
  9 10  1  0
  9 11  1  0
  9 12  1  0
 12 13  1  0
 12 14  1  0
  5 15  1  0
 15 16  1  0
 16 17  2  3
 17 18  1  0
 18 19  2  0
 19 20  1  0
 19 21  1  0
 21 22  1  0
 21 23  2  0
 23 24  1  0
 23 25  1  0
 25 26  1  0
 26 27  1  0
 26 28  1  0
 26 29  1  0
 25 30  2  0
 30 31  1  0
 16 32  1  0
 32 33  1  0
 33 34  2  0
 34 35  1  0
 34 36  1  0
 36 37  1  0
 37 38  1  0
 38 39  2  0
 38 40  1  0
 40 41  1  0
 41 42  1  0
 33  2  1  0
 41 36  2  0
 32  4  1  0
 12  7  1  0
 30 18  1  0
M  CHG  4  15  -1  37  -1  40  -1  42  -1
M  END
>  <UniqueID>  (26) 
24

>  <SMILES>  (26) 
Cc1cccc(N=c2[n-]/c(=N/C3CC3)n3n2/C(=C/c2[n-]c(=O)[n-]c2[O-])C=N3)c1

>  <Energy>  (26) 
451.2111300041799

>  <Genealogy>  (26) 
Cc1cccc(N=c2[n-]c(=NC3CC3)n3n2C(=Cc2[n-]c(=O)[n-]c2[O-])C=N3)c1 (protonated)
Cc1cccc(N=c2[n-]/c(=N/C3CC3)n3n2/C(=C/c2[n-]c(=O)[n-]c2[O-])C=N3)c1 (cis-trans isomerization)
Cc1cccc(N=c2[n-]/c(=N/C3CC3)n3n2/C(=C/c2[n-]c(=O)[n-]c2[O-])C=N3)c1 (3D coordinates assigned)
Cc1cccc(N=c2[n-]/c(=N/C3CC3)n3n2/C(=C/c2[n-]c(=O)[n-]c2[O-])C=N3)c1 (nonaromatic ring conformer: 451.2111300041799 kcal/mol)

>  <smiles>  (26) 
Cc1cccc(N=c2[nH]c(=NC3CC3)n3n2C(=Cc2[nH]c(=O)[nH]c2O)C=N3)c1

>  <score_type>  (26) 
oracle

>  <origin>  (26) 
adg

>  <m_score__min__energy>  (26) 
-16.809999999999999

>  <m_primary>  (26) 
energy

$$$$
26:0
     RDKit          3D

 45 47  0  0  0  0  0  0  0  0999 V2000
   55.4370   31.5490   52.4260 O   0  0  0  0  0  0  0  0  0  0  0  0
   55.9230   30.5690   53.0490 C   0  0  0  0  0  0  0  0  0  0  0  0
   57.3180   30.1130   52.7140 C   0  0  0  0  0  0  0  0  0  0  0  0
   57.4200   29.7690   51.3320 O   0  0  0  0  0  0  0  0  0  0  0  0
   58.4680   30.1450   50.4740 C   0  0  0  0  0  0  0  0  0  0  0  0
   59.5310   29.2730   50.1710 C   0  0  0  0  0  0  0  0  0  0  0  0
   60.5540   29.6780   49.3120 C   0  0  0  0  0  0  0  0  0  0  0  0
   60.5330   30.9530   48.7480 C   0  0  0  0  0  0  0  0  0  0  0  0
   59.4880   31.8430   49.0440 C   0  0  0  0  0  0  0  0  0  0  0  0
   59.4690   33.2010   48.3900 C   0  0  0  0  0  0  0  0  0  0  0  0
   58.7280   33.1360   47.0890 C   0  0  0  0  0  0  0  0  0  0  0  0
   57.9540   32.1550   46.7610 N   0  0  0  0  0  0  0  0  0  0  0  0
   57.4030   32.5180   45.4940 C   0  0  0  0  0  0  0  0  0  0  0  0
   56.6010   31.7800   44.8650 O   0  0  0  0  0  0  0  0  0  0  0  0
   57.8330   33.7850   45.0040 N   0  0  0  0  0  0  0  0  0  0  0  0
   58.6930   34.1690   46.0650 C   0  0  0  0  0  0  0  0  0  0  0  0
   59.3290   35.2550   46.0910 O   0  0  0  0  0  0  0  0  0  0  0  0
   58.4470   31.4310   49.9020 C   0  0  0  0  0  0  0  0  0  0  0  0
   57.3980   32.3100   50.1810 O   0  0  0  0  0  0  0  0  0  0  0  0
   55.1070   29.9010   54.0210 N   0  0  0  0  0  0  0  0  0  0  0  0
   54.1830   28.7980   53.7650 C   0  0  0  0  0  0  0  0  0  0  0  0
   52.7250   29.2260   53.9750 C   0  0  0  0  0  0  0  0  0  0  0  0
   52.2480   30.1290   52.8680 C   0  0  0  0  0  0  0  0  0  0  0  0
   52.4030   29.7490   51.5240 C   0  0  0  0  0  0  0  0  0  0  0  0
   51.9900   30.6050   50.4970 C   0  0  0  0  0  0  0  0  0  0  0  0
   51.4260   31.8480   50.8040 C   0  0  0  0  0  0  0  0  0  0  0  0
   51.0180   32.6960   49.7840 O   0  0  0  0  0  0  0  0  0  0  0  0
   51.2780   32.2360   52.1400 C   0  0  0  0  0  0  0  0  0  0  0  0
   51.6910   31.3830   53.1680 C   0  0  0  0  0  0  0  0  0  0  0  0
   58.0262   30.9246   52.9370 H   0  0  0  0  0  0  0  0  0  0  0  0
   57.5531   29.2238   53.3173 H   0  0  0  0  0  0  0  0  0  0  0  0
   59.5555   28.2664   50.6139 H   0  0  0  0  0  0  0  0  0  0  0  0
   61.3794   28.9891   49.0793 H   0  0  0  0  0  0  0  0  0  0  0  0
   61.3395   31.2634   48.0674 H   0  0  0  0  0  0  0  0  0  0  0  0
   58.9701   33.9192   49.0573 H   0  0  0  0  0  0  0  0  0  0  0  0
   60.5033   33.5232   48.1994 H   0  0  0  0  0  0  0  0  0  0  0  0
   56.5530   32.0140   50.6530 H   0  0  0  0  0  0  0  0  0  0  0  0
   54.3100   28.4591   52.7263 H   0  0  0  0  0  0  0  0  0  0  0  0
   54.4098   27.9865   54.4721 H   0  0  0  0  0  0  0  0  0  0  0  0
   52.0897   28.3284   54.0024 H   0  0  0  0  0  0  0  0  0  0  0  0
   52.6620   29.7805   54.9229 H   0  0  0  0  0  0  0  0  0  0  0  0
   52.8508   28.7748   51.2783 H   0  0  0  0  0  0  0  0  0  0  0  0
   52.1089   30.3002   49.4468 H   0  0  0  0  0  0  0  0  0  0  0  0
   50.8360   33.2138   52.3821 H   0  0  0  0  0  0  0  0  0  0  0  0
   51.5792   31.6955   54.2167 H   0  0  0  0  0  0  0  0  0  0  0  0
  1  2  2  0
  2  3  1  0
  3  4  1  0
  4  5  1  0
  5  6  2  0
  6  7  1  0
  7  8  2  0
  8  9  1  0
  9 10  1  0
 10 11  1  0
 11 12  2  0
 12 13  1  0
 13 14  2  0
 13 15  1  0
 15 16  1  0
 16 17  2  0
  9 18  2  0
 18 19  1  0
  2 20  1  0
 20 21  1  0
 21 22  1  0
 22 23  1  0
 23 24  2  0
 24 25  1  0
 25 26  2  0
 26 27  1  0
 26 28  1  0
 28 29  2  0
 18  5  1  0
 29 23  1  0
 16 11  1  0
  3 30  1  0
  3 31  1  0
  6 32  1  0
  7 33  1  0
  8 34  1  0
 10 35  1  0
 10 36  1  0
 19 37  1  0
 21 38  1  0
 21 39  1  0
 22 40  1  0
 22 41  1  0
 24 42  1  0
 25 43  1  0
 28 44  1  0
 29 45  1  0
M  CHG  3  15  -1  20  -1  27  -1
M  END
>  <UniqueID>  (27) 
25

>  <SMILES>  (27) 
O=C(COc1cccc(CC2=NC(=O)[N-]C2=O)c1O)[N-]CCc1ccc([O-])cc1

>  <Energy>  (27) 
68.70974446416317

>  <Genealogy>  (27) 
O=C(COc1cccc(CC2=NC(=O)[N-]C2=O)c1O)[N-]CCc1ccc([O-])cc1 (protonated)
O=C(COc1cccc(CC2=NC(=O)[N-]C2=O)c1O)[N-]CCc1ccc([O-])cc1 (3D coordinates assigned)
O=C(COc1cccc(CC2=NC(=O)[N-]C2=O)c1O)[N-]CCc1ccc([O-])cc1 (nonaromatic ring conformer: 68.70974446416317 kcal/mol)

>  <smiles>  (27) 
O=C(COc1cccc(CC2=NC(=O)NC2=O)c1O)NCCc1ccc(O)cc1

>  <score_type>  (27) 
oracle

>  <origin>  (27) 
adg

>  <m_score__min__energy>  (27) 
-14.15

>  <m_primary>  (27) 
energy

$$$$
27:0
     RDKit          3D

 41 43  0  0  0  0  0  0  0  0999 V2000
   55.1450   29.6820   44.8580 N   0  0  0  0  0  0  0  0  0  0  0  0
   56.5460   30.2150   43.9980 S   0  0  0  0  0  0  0  0  0  0  0  0
   57.4090   29.0170   43.7150 O   0  0  0  0  0  0  0  0  0  0  0  0
   56.1150   30.8400   42.7010 O   0  0  0  0  0  0  0  0  0  0  0  0
   57.4420   31.4030   44.9610 C   0  0  0  0  0  0  0  0  0  0  0  0
   57.0970   32.7590   44.8490 C   0  0  0  0  0  0  0  0  0  0  0  0
   57.7410   33.7240   45.6250 C   0  0  0  0  0  0  0  0  0  0  0  0
   58.7390   33.3470   46.5230 C   0  0  0  0  0  0  0  0  0  0  0  0
   59.1040   32.0050   46.6400 C   0  0  0  0  0  0  0  0  0  0  0  0
   58.4740   31.0240   45.8550 C   0  0  0  0  0  0  0  0  0  0  0  0
   58.9210   29.6230   45.9920 C   0  0  0  0  0  0  0  0  0  0  0  0
   58.3960   28.8130   47.0090 C   0  0  0  0  0  0  0  0  0  0  0  0
   58.8110   27.4850   47.1380 C   0  0  0  0  0  0  0  0  0  0  0  0
   59.7680   26.9550   46.2580 C   0  0  0  0  0  0  0  0  0  0  0  0
   60.1960   25.5150   46.3680 C   0  0  0  0  0  0  0  0  0  0  0  0
   59.0260   24.6420   46.5290 N   0  0  0  0  0  0  0  0  0  0  0  0
   58.8030   23.8210   45.3290 C   0  0  0  0  0  0  0  0  0  0  0  0
   57.3130   23.7750   44.9670 C   0  0  0  0  0  0  0  0  0  0  0  0
   56.7270   22.6710   45.5630 F   0  0  0  0  0  0  0  0  0  0  0  0
   57.1860   23.6510   43.5950 F   0  0  0  0  0  0  0  0  0  0  0  0
   56.6060   25.0230   45.4070 C   0  0  0  0  0  0  0  0  0  0  0  0
   57.0230   26.2720   45.1310 N   0  0  0  0  0  0  0  0  0  0  0  0
   56.0910   27.0560   45.6470 N   0  0  0  0  0  0  0  0  0  0  0  0
   55.1440   26.3190   46.2050 N   0  0  0  0  0  0  0  0  0  0  0  0
   55.4340   25.0370   46.0660 N   0  0  0  0  0  0  0  0  0  0  0  0
   60.3050   27.7710   45.2510 C   0  0  0  0  0  0  0  0  0  0  0  0
   59.8890   29.0980   45.1230 C   0  0  0  0  0  0  0  0  0  0  0  0
   55.1510   28.6370   44.8340 H   0  0  0  0  0  0  0  0  0  0  0  0
   56.3111   33.0642   44.1425 H   0  0  0  0  0  0  0  0  0  0  0  0
   57.4609   34.7833   45.5281 H   0  0  0  0  0  0  0  0  0  0  0  0
   59.2391   34.1082   47.1398 H   0  0  0  0  0  0  0  0  0  0  0  0
   59.8903   31.7130   47.3516 H   0  0  0  0  0  0  0  0  0  0  0  0
   57.6539   29.2250   47.7087 H   0  0  0  0  0  0  0  0  0  0  0  0
   58.3865   26.8527   47.9317 H   0  0  0  0  0  0  0  0  0  0  0  0
   60.7391   25.2280   45.4555 H   0  0  0  0  0  0  0  0  0  0  0  0
   60.8471   25.4034   47.2475 H   0  0  0  0  0  0  0  0  0  0  0  0
   58.1910   25.2630   46.6510 H   0  0  0  0  0  0  0  0  0  0  0  0
   59.3650   24.2527   44.4877 H   0  0  0  0  0  0  0  0  0  0  0  0
   59.1467   22.7966   45.5349 H   0  0  0  0  0  0  0  0  0  0  0  0
   61.0570   27.3638   44.5592 H   0  0  0  0  0  0  0  0  0  0  0  0
   60.3223   29.7343   44.3373 H   0  0  0  0  0  0  0  0  0  0  0  0
  1  2  1  0
  2  3  2  0
  2  4  2  0
  2  5  1  0
  5  6  2  0
  6  7  1  0
  7  8  2  0
  8  9  1  0
  9 10  2  0
 10 11  1  0
 11 12  2  0
 12 13  1  0
 13 14  2  0
 14 15  1  0
 15 16  1  0
 16 17  1  0
 17 18  1  0
 18 19  1  0
 18 20  1  0
 18 21  1  0
 21 22  1  0
 22 23  2  0
 23 24  1  0
 24 25  1  0
 14 26  1  0
 26 27  2  0
 10  5  1  0
 27 11  1  0
 25 21  2  0
  1 28  1  0
  6 29  1  0
  7 30  1  0
  8 31  1  0
  9 32  1  0
 12 33  1  0
 13 34  1  0
 15 35  1  0
 15 36  1  0
 16 37  1  0
 17 38  1  0
 17 39  1  0
 26 40  1  0
 27 41  1  0
M  CHG  2   1  -1  24  -1
M  END
>  <UniqueID>  (28) 
26

>  <SMILES>  (28) 
[NH-]S(=O)(=O)c1ccccc1-c1ccc(CNCC(F)(F)c2nn[n-]n2)cc1

>  <Energy>  (28) 
85.99087974332741

>  <Genealogy>  (28) 
[NH-]S(=O)(=O)c1ccccc1-c1ccc(CNCC(F)(F)c2nn[n-]n2)cc1 (protonated)
[NH-]S(=O)(=O)c1ccccc1-c1ccc(CNCC(F)(F)c2nn[n-]n2)cc1 (3D coordinates assigned)
[NH-]S(=O)(=O)c1ccccc1-c1ccc(CNCC(F)(F)c2nn[n-]n2)cc1 (optimized conformer: 85.99087974332741 kcal/mol)

>  <smiles>  (28) 
NS(=O)(=O)c1ccccc1-c1ccc(CNCC(F)(F)c2nn[nH]n2)cc1

>  <score_type>  (28) 
oracle

>  <origin>  (28) 
adg

>  <m_score__min__energy>  (28) 
-12.85

>  <m_primary>  (28) 
energy

$$$$
28:0
     RDKit          3D

 31 33  0  0  0  0  0  0  0  0999 V2000
   59.1260   30.5200   45.0640 O   0  0  0  0  0  0  0  0  0  0  0  0
   58.6980   31.6860   45.2700 C   0  0  0  0  0  0  0  0  0  0  0  0
   59.3510   32.6720   46.1200 C   0  0  0  0  0  0  0  0  0  0  0  0
   60.4800   32.5720   46.9310 C   0  0  0  0  0  0  0  0  0  0  0  0
   60.8460   33.6970   47.6910 C   0  0  0  0  0  0  0  0  0  0  0  0
   60.0810   34.8820   47.6260 C   0  0  0  0  0  0  0  0  0  0  0  0
   58.9450   34.9520   46.8010 C   0  0  0  0  0  0  0  0  0  0  0  0
   58.6070   33.8220   46.0580 C   0  0  0  0  0  0  0  0  0  0  0  0
   57.4900   33.5690   45.1580 C   0  0  0  0  0  0  0  0  0  0  0  0
   56.6430   34.4320   44.8040 O   0  0  0  0  0  0  0  0  0  0  0  0
   57.5230   32.2230   44.6370 N   0  0  0  0  0  0  0  0  0  0  0  0
   56.3960   31.4600   44.8630 O   0  0  0  0  0  0  0  0  0  0  0  0
   56.2300   30.1200   43.8000 S   0  0  0  0  0  0  0  0  0  0  0  0
   54.7740   29.8230   43.5660 O   0  0  0  0  0  0  0  0  0  0  0  0
   56.8250   30.5150   42.4770 O   0  0  0  0  0  0  0  0  0  0  0  0
   57.0730   28.6620   44.3260 C   0  0  0  0  0  0  0  0  0  0  0  0
   57.7700   27.8660   43.4030 C   0  0  0  0  0  0  0  0  0  0  0  0
   58.4230   26.7060   43.8300 C   0  0  0  0  0  0  0  0  0  0  0  0
   58.3940   26.3420   45.1790 C   0  0  0  0  0  0  0  0  0  0  0  0
   57.7180   27.1410   46.1050 C   0  0  0  0  0  0  0  0  0  0  0  0
   57.0630   28.3030   45.6810 C   0  0  0  0  0  0  0  0  0  0  0  0
   61.0663   31.6423   46.9752 H   0  0  0  0  0  0  0  0  0  0  0  0
   61.7332   33.6537   48.3398 H   0  0  0  0  0  0  0  0  0  0  0  0
   60.3759   35.7562   48.2249 H   0  0  0  0  0  0  0  0  0  0  0  0
   58.3416   35.8699   46.7435 H   0  0  0  0  0  0  0  0  0  0  0  0
   57.6890   32.2660   43.6050 H   0  0  0  0  0  0  0  0  0  0  0  0
   57.8023   28.1556   42.3423 H   0  0  0  0  0  0  0  0  0  0  0  0
   58.9603   26.0790   43.1033 H   0  0  0  0  0  0  0  0  0  0  0  0
   58.9037   25.4259   45.5121 H   0  0  0  0  0  0  0  0  0  0  0  0
   57.7006   26.8566   47.1675 H   0  0  0  0  0  0  0  0  0  0  0  0
   56.5393   28.9358   46.4126 H   0  0  0  0  0  0  0  0  0  0  0  0
  1  2  2  0
  2  3  1  0
  3  4  2  0
  4  5  1  0
  5  6  2  0
  6  7  1  0
  7  8  2  0
  8  9  1  0
  9 10  2  0
  9 11  1  0
 11 12  1  0
 12 13  1  0
 13 14  2  0
 13 15  2  0
 13 16  1  0
 16 17  2  0
 17 18  1  0
 18 19  2  0
 19 20  1  0
 20 21  2  0
 11  2  1  0
 21 16  1  0
  8  3  1  0
  4 22  1  0
  5 23  1  0
  6 24  1  0
  7 25  1  0
 11 26  1  0
 17 27  1  0
 18 28  1  0
 19 29  1  0
 20 30  1  0
 21 31  1  0
M  CHG  1  11   1
M  END
>  <UniqueID>  (29) 
27

>  <SMILES>  (29) 
O=C1c2ccccc2C(=O)[NH+]1OS(=O)(=O)c1ccccc1

>  <Energy>  (29) 
72.89225862166941

>  <Genealogy>  (29) 
O=C1c2ccccc2C(=O)[NH+]1OS(=O)(=O)c1ccccc1 (protonated)
O=C1c2ccccc2C(=O)[NH+]1OS(=O)(=O)c1ccccc1 (3D coordinates assigned)
O=C1c2ccccc2C(=O)[NH+]1OS(=O)(=O)c1ccccc1 (nonaromatic ring conformer: 72.89225862166941 kcal/mol)

>  <smiles>  (29) 
O=C1c2ccccc2C(=O)N1OS(=O)(=O)c1ccccc1

>  <score_type>  (29) 
oracle

>  <origin>  (29) 
adg

>  <m_score__min__energy>  (29) 
-7.0999999999999996

>  <m_primary>  (29) 
energy

$$$$
29:0
     RDKit          3D

 55 58  0  0  0  0  0  0  0  0999 V2000
   58.9180   25.0530   45.6380 C   0  0  0  0  0  0  0  0  0  0  0  0
   57.4800   24.7490   45.5790 N   0  0  0  0  0  0  0  0  0  0  0  0
   57.1050   23.4690   45.2750 C   0  0  0  0  0  0  0  0  0  0  0  0
   55.7600   23.1210   45.1710 C   0  0  0  0  0  0  0  0  0  0  0  0
   54.7830   24.0850   45.3970 C   0  0  0  0  0  0  0  0  0  0  0  0
   53.5640   23.7770   45.3030 O   0  0  0  0  0  0  0  0  0  0  0  0
   55.1580   25.3870   45.7320 C   0  0  0  0  0  0  0  0  0  0  0  0
   54.1720   26.3370   45.9880 O   0  0  0  0  0  0  0  0  0  0  0  0
   56.5260   25.7170   45.8290 C   0  0  0  0  0  0  0  0  0  0  0  0
   56.9070   27.1040   46.2030 C   0  0  0  0  0  0  0  0  0  0  0  0
   56.3970   28.0810   45.5920 O   0  0  0  0  0  0  0  0  0  0  0  0
   57.9000   27.3230   47.2130 N   0  0  0  0  0  0  0  0  0  0  0  0
   59.0040   28.2350   47.1300 C   0  0  0  0  0  0  0  0  0  0  0  0
   59.5680   28.6070   45.8970 C   0  0  0  0  0  0  0  0  0  0  0  0
   60.6230   29.5240   45.8550 C   0  0  0  0  0  0  0  0  0  0  0  0
   61.1100   30.0870   47.0360 C   0  0  0  0  0  0  0  0  0  0  0  0
   60.5270   29.7530   48.2700 C   0  0  0  0  0  0  0  0  0  0  0  0
   60.9940   30.3230   49.5010 N   0  0  0  0  0  0  0  0  0  0  0  0
   61.4960   31.6560   49.6760 C   0  0  0  0  0  0  0  0  0  0  0  0
   61.4680   32.1640   50.8290 O   0  0  0  0  0  0  0  0  0  0  0  0
   62.0070   32.4630   48.5430 C   0  0  0  0  0  0  0  0  0  0  0  0
   63.3160   32.2390   48.0820 C   0  0  0  0  0  0  0  0  0  0  0  0
   63.8250   32.9720   47.0100 C   0  0  0  0  0  0  0  0  0  0  0  0
   63.0390   33.9430   46.3910 C   0  0  0  0  0  0  0  0  0  0  0  0
   61.7430   34.1900   46.8460 C   0  0  0  0  0  0  0  0  0  0  0  0
   61.2160   33.4650   47.9340 C   0  0  0  0  0  0  0  0  0  0  0  0
   59.9290   33.7200   48.4410 O   0  0  0  0  0  0  0  0  0  0  0  0
   58.7740   32.9100   48.2320 C   0  0  0  0  0  0  0  0  0  0  0  0
   58.4390   32.8300   46.7680 C   0  0  0  0  0  0  0  0  0  0  0  0
   58.4100   33.9990   45.9900 C   0  0  0  0  0  0  0  0  0  0  0  0
   58.0910   33.9330   44.6300 C   0  0  0  0  0  0  0  0  0  0  0  0
   57.7920   32.7020   44.0410 C   0  0  0  0  0  0  0  0  0  0  0  0
   57.8050   31.5350   44.8110 C   0  0  0  0  0  0  0  0  0  0  0  0
   58.1230   31.5970   46.1710 C   0  0  0  0  0  0  0  0  0  0  0  0
   59.4840   28.8200   48.3090 C   0  0  0  0  0  0  0  0  0  0  0  0
   59.2357   25.1202   46.6890 H   0  0  0  0  0  0  0  0  0  0  0  0
   59.4826   24.2544   45.1346 H   0  0  0  0  0  0  0  0  0  0  0  0
   59.1110   26.0118   45.1346 H   0  0  0  0  0  0  0  0  0  0  0  0
   57.8771   22.7030   45.1102 H   0  0  0  0  0  0  0  0  0  0  0  0
   55.4727   22.0913   44.9120 H   0  0  0  0  0  0  0  0  0  0  0  0
   59.1785   28.1757   44.9631 H   0  0  0  0  0  0  0  0  0  0  0  0
   61.0701   29.8023   44.8893 H   0  0  0  0  0  0  0  0  0  0  0  0
   61.9521   30.7938   47.0004 H   0  0  0  0  0  0  0  0  0  0  0  0
   63.9440   31.4795   48.5707 H   0  0  0  0  0  0  0  0  0  0  0  0
   64.8481   32.7837   46.6524 H   0  0  0  0  0  0  0  0  0  0  0  0
   63.4412   34.5156   45.5422 H   0  0  0  0  0  0  0  0  0  0  0  0
   61.1279   34.9564   46.3518 H   0  0  0  0  0  0  0  0  0  0  0  0
   58.9694   31.8970   48.6136 H   0  0  0  0  0  0  0  0  0  0  0  0
   57.9242   33.3612   48.7652 H   0  0  0  0  0  0  0  0  0  0  0  0
   58.6392   34.9705   46.4523 H   0  0  0  0  0  0  0  0  0  0  0  0
   58.0755   34.8507   44.0238 H   0  0  0  0  0  0  0  0  0  0  0  0
   57.5460   32.6508   42.9701 H   0  0  0  0  0  0  0  0  0  0  0  0
   57.5648   30.5673   44.3463 H   0  0  0  0  0  0  0  0  0  0  0  0
   58.1260   30.6782   46.7758 H   0  0  0  0  0  0  0  0  0  0  0  0
   59.0368   28.5434   49.2752 H   0  0  0  0  0  0  0  0  0  0  0  0
  1  2  1  0
  2  3  1  0
  3  4  2  0
  4  5  1  0
  5  6  2  0
  5  7  1  0
  7  8  1  0
  7  9  2  0
  9 10  1  0
 10 11  2  0
 10 12  1  0
 12 13  1  0
 13 14  2  0
 14 15  1  0
 15 16  2  0
 16 17  1  0
 17 18  1  0
 18 19  1  0
 19 20  2  0
 19 21  1  0
 21 22  2  0
 22 23  1  0
 23 24  2  0
 24 25  1  0
 25 26  2  0
 26 27  1  0
 27 28  1  0
 28 29  1  0
 29 30  2  0
 30 31  1  0
 31 32  2  0
 32 33  1  0
 33 34  2  0
 17 35  2  0
  9  2  1  0
 35 13  1  0
 26 21  1  0
 34 29  1  0
  1 36  1  0
  1 37  1  0
  1 38  1  0
  3 39  1  0
  4 40  1  0
 14 41  1  0
 15 42  1  0
 16 43  1  0
 22 44  1  0
 23 45  1  0
 24 46  1  0
 25 47  1  0
 28 48  1  0
 28 49  1  0
 30 50  1  0
 31 51  1  0
 32 52  1  0
 33 53  1  0
 34 54  1  0
 35 55  1  0
M  CHG  3   8  -1  12  -1  18  -1
M  END
>  <UniqueID>  (30) 
28

>  <SMILES>  (30) 
Cn1ccc(=O)c([O-])c1C(=O)[N-]c1cccc([N-]C(=O)c2ccccc2OCc2ccccc2)c1

>  <Energy>  (30) 
79.43693564759516

>  <Genealogy>  (30) 
Cn1ccc(=O)c([O-])c1C(=O)[N-]c1cccc([N-]C(=O)c2ccccc2OCc2ccccc2)c1 (protonated)
Cn1ccc(=O)c([O-])c1C(=O)[N-]c1cccc([N-]C(=O)c2ccccc2OCc2ccccc2)c1 (3D coordinates assigned)
Cn1ccc(=O)c([O-])c1C(=O)[N-]c1cccc([N-]C(=O)c2ccccc2OCc2ccccc2)c1 (optimized conformer: 79.43693564759516 kcal/mol)

>  <smiles>  (30) 
Cn1ccc(=O)c(O)c1C(=O)Nc1cccc(NC(=O)c2ccccc2OCc2ccccc2)c1

>  <score_type>  (30) 
oracle

>  <origin>  (30) 
adg

>  <m_score__min__energy>  (30) 
-15.949999999999999

>  <m_primary>  (30) 
energy

$$$$
30:0
     RDKit          3D

 62 67  0  0  0  0  0  0  0  0999 V2000
   62.2600   33.8020   46.8730 O   0  0  0  0  0  0  0  0  0  0  0  0
   61.2100   33.6150   47.5480 C   0  0  0  0  0  0  0  0  0  0  0  0
   61.2110   33.8980   49.0220 C   0  0  0  0  0  0  0  0  0  0  0  0
   61.7100   32.6780   49.7960 C   0  0  0  0  0  0  0  0  0  0  0  0
   60.7710   31.5160   49.6210 C   0  0  0  0  0  0  0  0  0  0  0  0
   59.3930   31.6750   49.8480 C   0  0  0  0  0  0  0  0  0  0  0  0
   58.5220   30.5960   49.6640 C   0  0  0  0  0  0  0  0  0  0  0  0
   59.0170   29.3590   49.2430 C   0  0  0  0  0  0  0  0  0  0  0  0
   60.3820   29.1990   48.9980 C   0  0  0  0  0  0  0  0  0  0  0  0
   61.2580   30.2740   49.1810 C   0  0  0  0  0  0  0  0  0  0  0  0
   60.0470   33.0520   46.9160 N   0  0  0  0  0  0  0  0  0  0  0  0
   58.8760   33.7750   46.8780 C   0  0  0  0  0  0  0  0  0  0  0  0
   58.8330   34.9440   47.3490 O   0  0  0  0  0  0  0  0  0  0  0  0
   57.7120   33.2360   46.3110 C   0  0  0  0  0  0  0  0  0  0  0  0
   57.7420   31.9540   45.7820 C   0  0  0  0  0  0  0  0  0  0  0  0
   56.6440   31.3780   45.2360 N   0  0  0  0  0  0  0  0  0  0  0  0
   56.6940   30.1150   44.7300 C   0  0  0  0  0  0  0  0  0  0  0  0
   55.5460   29.5640   44.1690 O   0  0  0  0  0  0  0  0  0  0  0  0
   57.8960   29.3760   44.7730 C   0  0  0  0  0  0  0  0  0  0  0  0
   57.9560   27.9810   44.2010 C   0  0  0  0  0  0  0  0  0  0  0  0
   57.8200   26.9250   45.2680 C   0  0  0  0  0  0  0  0  0  0  0  0
   56.6640   26.8520   46.0610 C   0  0  0  0  0  0  0  0  0  0  0  0
   56.5270   25.8450   47.0190 C   0  0  0  0  0  0  0  0  0  0  0  0
   57.5280   24.8830   47.1880 C   0  0  0  0  0  0  0  0  0  0  0  0
   57.3380   23.8610   48.1750 N   0  0  0  0  0  0  0  0  0  0  0  0
   56.7150   22.2710   47.8620 S   0  0  0  0  0  0  0  0  0  0  0  0
   57.0170   21.3890   49.0420 O   0  0  0  0  0  0  0  0  0  0  0  0
   57.3860   21.7130   46.6400 O   0  0  0  0  0  0  0  0  0  0  0  0
   54.9810   22.3330   47.5790 C   0  0  0  0  0  0  0  0  0  0  0  0
   53.9860   21.8040   48.4000 C   0  0  0  0  0  0  0  0  0  0  0  0
   52.7560   22.0590   47.7800 C   0  0  0  0  0  0  0  0  0  0  0  0
   53.0910   22.7220   46.6200 C   0  0  0  0  0  0  0  0  0  0  0  0
   52.2580   23.3670   45.3190 S   0  0  0  0  0  0  0  0  0  0  0  0
   53.7130   23.8870   44.5790 C   0  0  0  0  0  0  0  0  0  0  0  0
   54.7970   23.5280   45.3880 C   0  0  0  0  0  0  0  0  0  0  0  0
   54.3950   22.8820   46.5050 N   0  0  0  0  0  0  0  0  0  0  0  0
   58.6800   24.9420   46.3830 C   0  0  0  0  0  0  0  0  0  0  0  0
   58.8250   25.9580   45.4330 C   0  0  0  0  0  0  0  0  0  0  0  0
   59.0200   29.9470   45.2920 N   0  0  0  0  0  0  0  0  0  0  0  0
   58.9990   31.2020   45.8070 C   0  0  0  0  0  0  0  0  0  0  0  0
   60.1280   31.7910   46.3750 C   0  0  0  0  0  0  0  0  0  0  0  0
   61.2170   31.1510   46.3990 O   0  0  0  0  0  0  0  0  0  0  0  0
   61.8720   34.7530   49.2269 H   0  0  0  0  0  0  0  0  0  0  0  0
   60.1846   34.1299   49.3426 H   0  0  0  0  0  0  0  0  0  0  0  0
   62.7059   32.3966   49.4233 H   0  0  0  0  0  0  0  0  0  0  0  0
   61.7604   32.9338   50.8647 H   0  0  0  0  0  0  0  0  0  0  0  0
   58.9988   32.6498   50.1710 H   0  0  0  0  0  0  0  0  0  0  0  0
   57.4453   30.7216   49.8511 H   0  0  0  0  0  0  0  0  0  0  0  0
   58.3306   28.5106   49.1045 H   0  0  0  0  0  0  0  0  0  0  0  0
   60.7692   28.2262   48.6606 H   0  0  0  0  0  0  0  0  0  0  0  0
   62.3319   30.1464   48.9797 H   0  0  0  0  0  0  0  0  0  0  0  0
   56.7832   33.8248   46.2860 H   0  0  0  0  0  0  0  0  0  0  0  0
   57.1383   27.8596   43.4754 H   0  0  0  0  0  0  0  0  0  0  0  0
   58.9374   27.8534   43.7209 H   0  0  0  0  0  0  0  0  0  0  0  0
   55.8614   27.5922   45.9271 H   0  0  0  0  0  0  0  0  0  0  0  0
   55.6240   25.8082   47.6460 H   0  0  0  0  0  0  0  0  0  0  0  0
   54.1385   21.2832   49.3568 H   0  0  0  0  0  0  0  0  0  0  0  0
   51.7511   21.7908   48.1381 H   0  0  0  0  0  0  0  0  0  0  0  0
   53.7840   24.4193   43.6190 H   0  0  0  0  0  0  0  0  0  0  0  0
   55.8476   23.7450   45.1446 H   0  0  0  0  0  0  0  0  0  0  0  0
   59.4701   24.1859   46.5012 H   0  0  0  0  0  0  0  0  0  0  0  0
   59.7315   26.0000   44.8114 H   0  0  0  0  0  0  0  0  0  0  0  0
  1  2  2  0
  2  3  1  0
  3  4  1  0
  4  5  1  0
  5  6  2  0
  6  7  1  0
  7  8  2  0
  8  9  1  0
  9 10  2  0
  2 11  1  0
 11 12  1  0
 12 13  2  0
 12 14  1  0
 14 15  2  0
 15 16  1  0
 16 17  1  0
 17 18  1  0
 17 19  2  0
 19 20  1  0
 20 21  1  0
 21 22  2  0
 22 23  1  0
 23 24  2  0
 24 25  1  0
 25 26  1  0
 26 27  2  0
 26 28  2  0
 26 29  1  0
 29 30  2  0
 30 31  1  0
 31 32  2  0
 32 33  1  0
 33 34  1  0
 34 35  2  0
 35 36  1  0
 24 37  1  0
 37 38  2  0
 19 39  1  0
 39 40  2  0
 40 41  1  0
 41 42  2  0
 10  5  1  0
 41 11  1  0
 40 15  1  0
 38 21  1  0
 36 29  1  0
 36 32  1  0
  3 43  1  0
  3 44  1  0
  4 45  1  0
  4 46  1  0
  6 47  1  0
  7 48  1  0
  8 49  1  0
  9 50  1  0
 10 51  1  0
 14 52  1  0
 20 53  1  0
 20 54  1  0
 22 55  1  0
 23 56  1  0
 30 57  1  0
 31 58  1  0
 34 59  1  0
 35 60  1  0
 37 61  1  0
 38 62  1  0
M  CHG  3  16  -1  18  -1  25  -1
M  END
>  <UniqueID>  (31) 
29

>  <SMILES>  (31) 
O=C(CCc1ccccc1)n1c(=O)cc2[n-]c([O-])c(Cc3ccc([N-]S(=O)(=O)c4ccc5sccn45)cc3)nc-2c1=O

>  <Energy>  (31) 
157.06220141420206

>  <Genealogy>  (31) 
O=C(CCc1ccccc1)n1c(=O)cc2[n-]c([O-])c(Cc3ccc([N-]S(=O)(=O)c4ccc5sccn45)cc3)nc-2c1=O (protonated)
O=C(CCc1ccccc1)n1c(=O)cc2[n-]c([O-])c(Cc3ccc([N-]S(=O)(=O)c4ccc5sccn45)cc3)nc-2c1=O (3D coordinates assigned)
O=C(CCc1ccccc1)n1c(=O)cc2[n-]c([O-])c(Cc3ccc([N-]S(=O)(=O)c4ccc5sccn45)cc3)nc-2c1=O (optimized conformer: 157.06220141420206 kcal/mol)

>  <smiles>  (31) 
O=C(CCc1ccccc1)n1c(=O)cc2[nH]c(O)c(Cc3ccc(NS(=O)(=O)c4ccc5sccn45)cc3)nc-2c1=O

>  <score_type>  (31) 
oracle

>  <origin>  (31) 
adg

>  <m_score__min__energy>  (31) 
-14.02

>  <m_primary>  (31) 
energy

$$$$
31:0
     RDKit          3D

 57 60  0  0  0  0  0  0  0  0999 V2000
   60.7334   34.5280   50.1570 H   0  0  0  0  0  0  0  0  0  0  0  0
   60.1630   34.0130   49.3700 C   0  0  0  0  0  0  0  0  0  0  0  0
   60.3330   34.3760   48.0310 C   0  0  0  0  0  0  0  0  0  0  0  0
   61.0392   35.1761   47.7642 H   0  0  0  0  0  0  0  0  0  0  0  0
   59.6050   33.7220   47.0280 C   0  0  0  0  0  0  0  0  0  0  0  0
   59.8160   34.2000   45.3090 S   0  0  0  0  0  0  0  0  0  0  0  0
   58.0410   34.0910   44.8850 C   0  0  0  0  0  0  0  0  0  0  0  0
   57.7454   34.9993   44.3394 H   0  0  0  0  0  0  0  0  0  0  0  0
   57.4642   33.9951   45.8167 H   0  0  0  0  0  0  0  0  0  0  0  0
   57.7650   32.8960   44.0300 C   0  0  0  0  0  0  0  0  0  0  0  0
   58.1420   32.7660   42.7390 N   0  0  0  0  0  0  0  0  0  0  0  0
   57.7580   31.5580   42.3530 N   0  0  0  0  0  0  0  0  0  0  0  0
   57.1520   30.9280   43.3510 N   0  0  0  0  0  0  0  0  0  0  0  0
   56.6630   29.5570   43.2840 C   0  0  0  0  0  0  0  0  0  0  0  0
   56.8118   29.1661   42.2666 H   0  0  0  0  0  0  0  0  0  0  0  0
   55.5922   29.5419   43.5354 H   0  0  0  0  0  0  0  0  0  0  0  0
   57.4110   28.7000   44.2600 C   0  0  0  0  0  0  0  0  0  0  0  0
   57.5800   29.0540   45.9020 S   0  0  0  0  0  0  0  0  0  0  0  0
   58.4500   27.6490   46.2040 C   0  0  0  0  0  0  0  0  0  0  0  0
   58.9470   27.3540   47.3700 N   0  0  0  0  0  0  0  0  0  0  0  0
   60.0020   28.0640   48.0370 C   0  0  0  0  0  0  0  0  0  0  0  0
   60.8500   27.4470   48.7390 O   0  0  0  0  0  0  0  0  0  0  0  0
   60.0580   29.4940   47.9150 N   0  0  0  0  0  0  0  0  0  0  0  0
   59.2330   29.9690   47.4850 H   0  0  0  0  0  0  0  0  0  0  0  0
   61.1660   30.3050   48.3480 C   0  0  0  0  0  0  0  0  0  0  0  0
   61.9170   31.0570   47.4230 C   0  0  0  0  0  0  0  0  0  0  0  0
   61.6634   31.0124   46.3536 H   0  0  0  0  0  0  0  0  0  0  0  0
   62.9870   31.8640   47.8500 C   0  0  0  0  0  0  0  0  0  0  0  0
   63.7700   32.6070   46.9480 O   0  0  0  0  0  0  0  0  0  0  0  0
   63.3680   33.8390   46.3570 C   0  0  0  0  0  0  0  0  0  0  0  0
   63.1310   34.5652   47.1485 H   0  0  0  0  0  0  0  0  0  0  0  0
   64.1851   34.2302   45.7331 H   0  0  0  0  0  0  0  0  0  0  0  0
   62.4774   33.6730   45.7331 H   0  0  0  0  0  0  0  0  0  0  0  0
   63.2830   31.9350   49.2170 C   0  0  0  0  0  0  0  0  0  0  0  0
   64.6130   32.9300   49.7890 Cl  0  0  0  0  0  0  0  0  0  0  0  0
   62.5240   31.2130   50.1460 C   0  0  0  0  0  0  0  0  0  0  0  0
   62.7632   31.2833   51.2174 H   0  0  0  0  0  0  0  0  0  0  0  0
   61.4590   30.3990   49.7220 C   0  0  0  0  0  0  0  0  0  0  0  0
   60.6790   29.6650   50.6310 O   0  0  0  0  0  0  0  0  0  0  0  0
   61.1990   28.7280   51.5680 C   0  0  0  0  0  0  0  0  0  0  0  0
   61.0017   29.0835   52.5901 H   0  0  0  0  0  0  0  0  0  0  0  0
   60.7133   27.7524   51.4190 H   0  0  0  0  0  0  0  0  0  0  0  0
   62.2839   28.6240   51.4190 H   0  0  0  0  0  0  0  0  0  0  0  0
   58.6170   26.8970   45.0890 N   0  0  0  0  0  0  0  0  0  0  0  0
   58.0290   27.4700   44.0050 C   0  0  0  0  0  0  0  0  0  0  0  0
   58.1280   26.8450   42.6470 C   0  0  0  0  0  0  0  0  0  0  0  0
   58.2993   25.7636   42.7527 H   0  0  0  0  0  0  0  0  0  0  0  0
   57.1916   27.0158   42.0956 H   0  0  0  0  0  0  0  0  0  0  0  0
   58.9658   27.2968   42.0956 H   0  0  0  0  0  0  0  0  0  0  0  0
   57.1440   31.7330   44.4290 C   0  0  0  0  0  0  0  0  0  0  0  0
   56.7281   31.5090   45.4224 H   0  0  0  0  0  0  0  0  0  0  0  0
   58.7080   32.7030   47.3710 C   0  0  0  0  0  0  0  0  0  0  0  0
   58.1340   32.1910   46.5846 H   0  0  0  0  0  0  0  0  0  0  0  0
   58.5390   32.3340   48.7070 C   0  0  0  0  0  0  0  0  0  0  0  0
   57.8378   31.5288   48.9715 H   0  0  0  0  0  0  0  0  0  0  0  0
   59.2630   32.9900   49.7090 C   0  0  0  0  0  0  0  0  0  0  0  0
   59.0350   32.5430   51.3870 Cl  0  0  0  0  0  0  0  0  0  0  0  0
  1  2  1  0
  2  3  2  0
  3  4  1  0
  3  5  1  0
  5  6  1  0
  6  7  1  0
  7  8  1  0
  7  9  1  0
  7 10  1  0
 10 11  1  0
 11 12  2  0
 12 13  1  0
 13 14  1  0
 14 15  1  0
 14 16  1  0
 14 17  1  0
 17 18  1  0
 18 19  1  0
 19 20  2  0
 20 21  1  0
 21 22  2  0
 21 23  1  0
 23 24  1  0
 23 25  1  0
 25 26  2  0
 26 27  1  0
 26 28  1  0
 28 29  1  0
 29 30  1  0
 30 31  1  0
 30 32  1  0
 30 33  1  0
 28 34  2  0
 34 35  1  0
 34 36  1  0
 36 37  1  0
 36 38  2  0
 38 39  1  0
 39 40  1  0
 40 41  1  0
 40 42  1  0
 40 43  1  0
 19 44  1  0
 44 45  1  0
 45 46  1  0
 46 47  1  0
 46 48  1  0
 46 49  1  0
 13 50  1  0
 50 51  1  0
  5 52  2  0
 52 53  1  0
 52 54  1  0
 54 55  1  0
 54 56  2  0
 56 57  1  0
 56  2  1  0
 50 10  2  0
 45 17  2  0
 38 25  1  0
M  CHG  1  44  -1
M  END
>  <UniqueID>  (32) 
30

>  <SMILES>  (32) 
COc1cc(NC(=O)/N=c2\[n-]c(C)c(Cn3cc(CSc4ccc(Cl)cc4)nn3)s2)c(OC)cc1Cl

>  <Energy>  (32) 
118.97589333468959

>  <Genealogy>  (32) 
COc1cc(NC(=O)N=c2[n-]c(C)c(Cn3cc(CSc4ccc(Cl)cc4)nn3)s2)c(OC)cc1Cl (protonated)
COc1cc(NC(=O)/N=c2\[n-]c(C)c(Cn3cc(CSc4ccc(Cl)cc4)nn3)s2)c(OC)cc1Cl (cis-trans isomerization)
COc1cc(NC(=O)/N=c2\[n-]c(C)c(Cn3cc(CSc4ccc(Cl)cc4)nn3)s2)c(OC)cc1Cl (3D coordinates assigned)
COc1cc(NC(=O)/N=c2\[n-]c(C)c(Cn3cc(CSc4ccc(Cl)cc4)nn3)s2)c(OC)cc1Cl (optimized conformer: 118.97589333468959 kcal/mol)

>  <smiles>  (32) 
COc1cc(NC(=O)N=c2[nH]c(C)c(Cn3cc(CSc4ccc(Cl)cc4)nn3)s2)c(OC)cc1Cl

>  <score_type>  (32) 
oracle

>  <origin>  (32) 
adg

>  <m_score__min__energy>  (32) 
-11.34

>  <m_primary>  (32) 
energy

$$$$
32:0
     RDKit          3D

 49 51  0  0  0  0  0  0  0  0999 V2000
   66.4390   33.6670   53.4190 N   0  0  0  0  0  0  0  0  0  0  0  0
   66.2450   34.6030   51.9800 S   0  0  0  0  0  0  0  0  0  0  0  0
   65.7780   35.9870   52.3390 O   0  0  0  0  0  0  0  0  0  0  0  0
   67.5660   34.7090   51.2710 O   0  0  0  0  0  0  0  0  0  0  0  0
   65.0640   33.8300   50.9290 C   0  0  0  0  0  0  0  0  0  0  0  0
   63.7310   34.2620   50.9250 C   0  0  0  0  0  0  0  0  0  0  0  0
   62.7960   33.6550   50.0810 C   0  0  0  0  0  0  0  0  0  0  0  0
   63.1870   32.6230   49.2130 C   0  0  0  0  0  0  0  0  0  0  0  0
   62.1990   32.0010   48.3720 N   0  0  0  0  0  0  0  0  0  0  0  0
   61.5560   30.7500   48.6800 C   0  0  0  0  0  0  0  0  0  0  0  0
   61.9140   30.0900   49.6930 O   0  0  0  0  0  0  0  0  0  0  0  0
   60.4790   30.2090   47.8160 C   0  0  0  0  0  0  0  0  0  0  0  0
   60.4220   30.5080   46.4430 C   0  0  0  0  0  0  0  0  0  0  0  0
   59.4020   29.9800   45.6460 C   0  0  0  0  0  0  0  0  0  0  0  0
   58.4180   29.1550   46.2010 C   0  0  0  0  0  0  0  0  0  0  0  0
   57.4010   28.6230   45.3420 N   0  0  0  0  0  0  0  0  0  0  0  0
   56.3430   29.3610   44.7170 C   0  0  0  0  0  0  0  0  0  0  0  0
   55.1460   28.9790   44.8110 O   0  0  0  0  0  0  0  0  0  0  0  0
   56.6580   30.6270   43.9800 C   0  0  0  0  0  0  0  0  0  0  0  0
   56.6760   31.7720   44.8880 N   0  0  0  0  0  0  0  0  0  0  0  0
   57.6080   32.8630   44.8500 C   0  0  0  0  0  0  0  0  0  0  0  0
   57.8370   33.4280   43.7480 O   0  0  0  0  0  0  0  0  0  0  0  0
   58.3430   33.3110   46.0480 C   0  0  0  0  0  0  0  0  0  0  0  0
   58.1450   32.6860   47.2900 C   0  0  0  0  0  0  0  0  0  0  0  0
   58.8530   33.1180   48.4170 C   0  0  0  0  0  0  0  0  0  0  0  0
   59.7540   34.1810   48.3120 C   0  0  0  0  0  0  0  0  0  0  0  0
   59.9420   34.8190   47.0840 C   0  0  0  0  0  0  0  0  0  0  0  0
   59.2360   34.3910   45.9560 C   0  0  0  0  0  0  0  0  0  0  0  0
   58.4920   28.8230   47.5650 C   0  0  0  0  0  0  0  0  0  0  0  0
   59.5130   29.3460   48.3630 C   0  0  0  0  0  0  0  0  0  0  0  0
   64.5210   32.1800   49.2320 C   0  0  0  0  0  0  0  0  0  0  0  0
   65.4550   32.7880   50.0780 C   0  0  0  0  0  0  0  0  0  0  0  0
   65.7420   34.0240   54.1100 H   0  0  0  0  0  0  0  0  0  0  0  0
   63.4189   35.0820   51.5885 H   0  0  0  0  0  0  0  0  0  0  0  0
   61.7477   33.9880   50.0971 H   0  0  0  0  0  0  0  0  0  0  0  0
   61.9850   32.4750   47.4670 H   0  0  0  0  0  0  0  0  0  0  0  0
   61.1845   31.1612   45.9935 H   0  0  0  0  0  0  0  0  0  0  0  0
   59.3729   30.2156   44.5719 H   0  0  0  0  0  0  0  0  0  0  0  0
   57.6450   30.5299   43.5041 H   0  0  0  0  0  0  0  0  0  0  0  0
   55.8788   30.7938   43.2217 H   0  0  0  0  0  0  0  0  0  0  0  0
   57.4308   31.8539   47.3771 H   0  0  0  0  0  0  0  0  0  0  0  0
   58.7002   32.6206   49.3861 H   0  0  0  0  0  0  0  0  0  0  0  0
   60.3154   34.5154   49.1969 H   0  0  0  0  0  0  0  0  0  0  0  0
   60.6468   35.6597   47.0043 H   0  0  0  0  0  0  0  0  0  0  0  0
   59.3804   34.9020   44.9927 H   0  0  0  0  0  0  0  0  0  0  0  0
   57.7431   28.1487   48.0060 H   0  0  0  0  0  0  0  0  0  0  0  0
   59.5615   29.0800   49.4293 H   0  0  0  0  0  0  0  0  0  0  0  0
   64.8320   31.3515   48.5787 H   0  0  0  0  0  0  0  0  0  0  0  0
   66.5006   32.4464   50.0749 H   0  0  0  0  0  0  0  0  0  0  0  0
  1  2  1  0
  2  3  2  0
  2  4  2  0
  2  5  1  0
  5  6  2  0
  6  7  1  0
  7  8  2  0
  8  9  1  0
  9 10  1  0
 10 11  2  0
 10 12  1  0
 12 13  2  0
 13 14  1  0
 14 15  2  0
 15 16  1  0
 16 17  1  0
 17 18  2  0
 17 19  1  0
 19 20  1  0
 20 21  1  0
 21 22  2  0
 21 23  1  0
 23 24  2  0
 24 25  1  0
 25 26  2  0
 26 27  1  0
 27 28  2  0
 15 29  1  0
 29 30  2  0
  8 31  1  0
 31 32  2  0
 32  5  1  0
 30 12  1  0
 28 23  1  0
  1 33  1  0
  6 34  1  0
  7 35  1  0
  9 36  1  0
 13 37  1  0
 14 38  1  0
 19 39  1  0
 19 40  1  0
 24 41  1  0
 25 42  1  0
 26 43  1  0
 27 44  1  0
 28 45  1  0
 29 46  1  0
 30 47  1  0
 31 48  1  0
 32 49  1  0
M  CHG  3   1  -1  16  -1  20  -1
M  END
>  <UniqueID>  (33) 
31

>  <SMILES>  (33) 
[NH-]S(=O)(=O)c1ccc(NC(=O)c2ccc([N-]C(=O)C[N-]C(=O)c3ccccc3)cc2)cc1

>  <Energy>  (33) 
64.48558969813281

>  <Genealogy>  (33) 
[NH-]S(=O)(=O)c1ccc(NC(=O)c2ccc([N-]C(=O)C[N-]C(=O)c3ccccc3)cc2)cc1 (protonated)
[NH-]S(=O)(=O)c1ccc(NC(=O)c2ccc([N-]C(=O)C[N-]C(=O)c3ccccc3)cc2)cc1 (3D coordinates assigned)
[NH-]S(=O)(=O)c1ccc(NC(=O)c2ccc([N-]C(=O)C[N-]C(=O)c3ccccc3)cc2)cc1 (optimized conformer: 64.48558969813281 kcal/mol)

>  <smiles>  (33) 
NS(=O)(=O)c1ccc(NC(=O)c2ccc(NC(=O)CNC(=O)c3ccccc3)cc2)cc1

>  <score_type>  (33) 
oracle

>  <origin>  (33) 
adg

>  <m_score__min__energy>  (33) 
-12.119999999999999

>  <m_primary>  (33) 
energy

$$$$
33:0
     RDKit          3D

 39 43  0  0  0  0  0  0  0  0999 V2000
   59.2660   26.1180   47.7530 H   0  0  0  0  0  0  0  0  0  0  0  0
   58.4620   25.5450   47.5290 O   0  0  0  0  0  0  0  0  0  0  0  0
   57.3630   26.0520   46.8410 C   0  0  0  0  0  0  0  0  0  0  0  0
   56.1930   25.4000   46.7470 N   0  0  0  0  0  0  0  0  0  0  0  0
   55.4420   26.2350   46.0000 C   0  0  0  0  0  0  0  0  0  0  0  0
   54.2530   25.9750   45.6800 O   0  0  0  0  0  0  0  0  0  0  0  0
   56.0660   27.3690   45.6190 N   0  0  0  0  0  0  0  0  0  0  0  0
   57.2900   27.2560   46.1680 C   0  0  0  0  0  0  0  0  0  0  0  0
   58.3890   28.2260   45.9870 C   0  0  0  0  0  0  0  0  0  0  0  0
   59.4183   27.8712   46.1441 H   0  0  0  0  0  0  0  0  0  0  0  0
   58.2150   29.5100   45.6440 C   0  0  0  0  0  0  0  0  0  0  0  0
   57.4610   30.0060   44.4740 C   0  0  0  0  0  0  0  0  0  0  0  0
   57.3065   29.4530   43.5358 H   0  0  0  0  0  0  0  0  0  0  0  0
   57.0090   31.1980   44.7270 N   0  0  0  0  0  0  0  0  0  0  0  0
   57.4240   31.5210   46.0250 N   0  0  0  0  0  0  0  0  0  0  0  0
   57.8170   32.7160   46.5020 C   0  0  0  0  0  0  0  0  0  0  0  0
   57.3410   33.8660   46.1330 N   0  0  0  0  0  0  0  0  0  0  0  0
   57.7990   34.6000   44.9590 C   0  0  0  0  0  0  0  0  0  0  0  0
   56.8545   35.1135   44.7260 H   0  0  0  0  0  0  0  0  0  0  0  0
   59.2600   35.0020   45.0550 C   0  0  0  0  0  0  0  0  0  0  0  0
   59.5976   35.9562   44.6242 H   0  0  0  0  0  0  0  0  0  0  0  0
   59.9832   35.1171   45.8758 H   0  0  0  0  0  0  0  0  0  0  0  0
   58.8420   33.8600   44.1410 C   0  0  0  0  0  0  0  0  0  0  0  0
   58.8773   33.9881   43.0491 H   0  0  0  0  0  0  0  0  0  0  0  0
   59.1376   32.8067   44.0267 H   0  0  0  0  0  0  0  0  0  0  0  0
   58.8460   32.5890   47.3680 N   0  0  0  0  0  0  0  0  0  0  0  0
   59.0850   31.2530   47.3380 C   0  0  0  0  0  0  0  0  0  0  0  0
   60.1420   30.7440   47.9050 N   0  0  0  0  0  0  0  0  0  0  0  0
   61.3950   31.3820   48.1490 C   0  0  0  0  0  0  0  0  0  0  0  0
   61.9860   32.1660   47.1530 C   0  0  0  0  0  0  0  0  0  0  0  0
   61.4709   32.3284   46.1947 H   0  0  0  0  0  0  0  0  0  0  0  0
   63.2380   32.7410   47.3880 C   0  0  0  0  0  0  0  0  0  0  0  0
   63.7021   33.3783   46.6209 H   0  0  0  0  0  0  0  0  0  0  0  0
   63.8840   32.5140   48.5640 N   0  0  0  0  0  0  0  0  0  0  0  0
   63.3440   31.7260   49.5320 C   0  0  0  0  0  0  0  0  0  0  0  0
   63.8922   31.5558   50.4704 H   0  0  0  0  0  0  0  0  0  0  0  0
   62.0940   31.1320   49.3370 C   0  0  0  0  0  0  0  0  0  0  0  0
   61.6639   30.4755   50.1077 H   0  0  0  0  0  0  0  0  0  0  0  0
   58.1750   30.5970   46.5650 N   0  0  0  0  0  0  0  0  0  0  0  0
  1  2  1  0
  2  3  1  0
  3  4  1  0
  4  5  1  0
  5  6  2  0
  5  7  1  0
  7  8  1  0
  8  9  1  0
  9 10  1  0
  9 11  2  3
 11 12  1  0
 12 13  1  0
 12 14  2  0
 14 15  1  0
 15 16  1  0
 16 17  2  3
 17 18  1  0
 18 19  1  0
 18 20  1  0
 20 21  1  0
 20 22  1  0
 20 23  1  0
 23 24  1  0
 23 25  1  0
 16 26  1  0
 26 27  1  0
 27 28  2  0
 28 29  1  0
 29 30  2  0
 30 31  1  0
 30 32  1  0
 32 33  1  0
 32 34  2  0
 34 35  1  0
 35 36  1  0
 35 37  2  0
 37 38  1  0
 27 39  1  0
  8  3  2  0
 39 11  1  0
 39 15  1  0
 23 18  1  0
 37 29  1  0
M  CHG  3   4  -1   7  -1  26  -1
M  END
>  <UniqueID>  (34) 
32

>  <SMILES>  (34) 
O=c1[n-]c(O)c(C=C2C=Nn3c(=NC4CC4)[n-]/c(=N/c4ccncc4)n32)[n-]1

>  <Energy>  (34) 
450.5136333224402

>  <Genealogy>  (34) 
O=c1[n-]c(O)c(C=C2C=Nn3c(=NC4CC4)[n-]c(=Nc4ccncc4)n32)[n-]1 (protonated)
O=c1[n-]c(O)c(C=C2C=Nn3c(=NC4CC4)[n-]/c(=N/c4ccncc4)n32)[n-]1 (cis-trans isomerization)
O=c1[n-]c(O)c(C=C2C=Nn3c(=NC4CC4)[n-]/c(=N/c4ccncc4)n32)[n-]1 (3D coordinates assigned)
O=c1[n-]c(O)c(C=C2C=Nn3c(=NC4CC4)[n-]/c(=N/c4ccncc4)n32)[n-]1 (nonaromatic ring conformer: 450.5136333224402 kcal/mol)

>  <smiles>  (34) 
O=c1[nH]c(O)c(C=C2C=Nn3c(=NC4CC4)[nH]c(=Nc4ccncc4)n32)[nH]1

>  <score_type>  (34) 
oracle

>  <origin>  (34) 
adg

>  <m_score__min__energy>  (34) 
-13.56

>  <m_primary>  (34) 
energy

$$$$
34:0
     RDKit          3D

 46 48  0  0  0  0  0  0  0  0999 V2000
   55.8940   30.4080   44.0480 C   0  0  0  0  0  0  0  0  0  0  0  0
   56.5140   29.0920   44.3950 C   0  0  0  0  0  0  0  0  0  0  0  0
   57.7290   28.7080   43.8190 C   0  0  0  0  0  0  0  0  0  0  0  0
   58.2850   27.4720   44.1530 C   0  0  0  0  0  0  0  0  0  0  0  0
   57.6250   26.6230   45.0510 C   0  0  0  0  0  0  0  0  0  0  0  0
   58.1940   25.3020   45.3790 C   0  0  0  0  0  0  0  0  0  0  0  0
   57.7040   24.2740   44.8410 O   0  0  0  0  0  0  0  0  0  0  0  0
   59.3160   25.1570   46.2620 N   0  0  0  0  0  0  0  0  0  0  0  0
   60.4530   26.0720   46.3470 C   0  0  0  0  0  0  0  0  0  0  0  0
   60.0440   27.3790   46.9750 C   0  0  0  0  0  0  0  0  0  0  0  0
   60.3890   28.5980   46.3720 C   0  0  0  0  0  0  0  0  0  0  0  0
   60.0510   29.8090   46.9830 C   0  0  0  0  0  0  0  0  0  0  0  0
   59.3380   29.8160   48.1960 C   0  0  0  0  0  0  0  0  0  0  0  0
   58.9960   31.0090   48.8490 O   0  0  0  0  0  0  0  0  0  0  0  0
   59.1880   32.3000   48.3360 C   0  0  0  0  0  0  0  0  0  0  0  0
   59.8060   33.2610   49.1450 C   0  0  0  0  0  0  0  0  0  0  0  0
   60.0030   34.5610   48.6720 C   0  0  0  0  0  0  0  0  0  0  0  0
   59.5760   34.9140   47.3900 C   0  0  0  0  0  0  0  0  0  0  0  0
   58.9420   33.9660   46.5740 C   0  0  0  0  0  0  0  0  0  0  0  0
   58.3830   34.4100   44.9650 S   0  0  0  0  0  0  0  0  0  0  0  0
   56.6620   34.5770   44.9690 N   0  0  0  0  0  0  0  0  0  0  0  0
   58.7650   33.3390   43.9800 O   0  0  0  0  0  0  0  0  0  0  0  0
   59.0150   35.7110   44.5590 O   0  0  0  0  0  0  0  0  0  0  0  0
   58.7360   32.6660   47.0550 C   0  0  0  0  0  0  0  0  0  0  0  0
   58.9980   28.6000   48.7970 C   0  0  0  0  0  0  0  0  0  0  0  0
   59.3420   27.3880   48.1900 C   0  0  0  0  0  0  0  0  0  0  0  0
   56.4140   27.0550   45.6210 C   0  0  0  0  0  0  0  0  0  0  0  0
   55.7920   26.3230   46.4370 O   0  0  0  0  0  0  0  0  0  0  0  0
   55.8940   28.2640   45.2800 N   0  0  0  0  0  0  0  0  0  0  0  0
   55.6394   30.9483   44.9717 H   0  0  0  0  0  0  0  0  0  0  0  0
   56.6058   31.0046   43.4585 H   0  0  0  0  0  0  0  0  0  0  0  0
   54.9808   30.2390   43.4585 H   0  0  0  0  0  0  0  0  0  0  0  0
   58.2418   29.3738   43.1093 H   0  0  0  0  0  0  0  0  0  0  0  0
   59.2436   27.1638   43.7101 H   0  0  0  0  0  0  0  0  0  0  0  0
   61.2424   25.6100   46.9581 H   0  0  0  0  0  0  0  0  0  0  0  0
   60.8219   26.2704   45.3299 H   0  0  0  0  0  0  0  0  0  0  0  0
   60.9284   28.6008   45.4133 H   0  0  0  0  0  0  0  0  0  0  0  0
   60.3435   30.7599   46.5138 H   0  0  0  0  0  0  0  0  0  0  0  0
   60.1382   32.9913   50.1583 H   0  0  0  0  0  0  0  0  0  0  0  0
   60.4958   35.3084   49.3112 H   0  0  0  0  0  0  0  0  0  0  0  0
   59.7372   35.9372   47.0198 H   0  0  0  0  0  0  0  0  0  0  0  0
   56.3720   34.7240   45.9620 H   0  0  0  0  0  0  0  0  0  0  0  0
   56.2650   33.6580   44.6710 H   0  0  0  0  0  0  0  0  0  0  0  0
   58.2174   31.9268   46.4268 H   0  0  0  0  0  0  0  0  0  0  0  0
   58.4560   28.5968   49.7542 H   0  0  0  0  0  0  0  0  0  0  0  0
   59.0610   26.4375   48.6671 H   0  0  0  0  0  0  0  0  0  0  0  0
  1  2  1  0
  2  3  2  0
  3  4  1  0
  4  5  2  0
  5  6  1  0
  6  7  2  0
  6  8  1  0
  8  9  1  0
  9 10  1  0
 10 11  2  0
 11 12  1  0
 12 13  2  0
 13 14  1  0
 14 15  1  0
 15 16  2  0
 16 17  1  0
 17 18  2  0
 18 19  1  0
 19 20  1  0
 20 21  1  0
 20 22  2  0
 20 23  2  0
 19 24  2  0
 13 25  1  0
 25 26  2  0
  5 27  1  0
 27 28  2  0
 27 29  1  0
 29  2  1  0
 26 10  1  0
 24 15  1  0
  1 30  1  0
  1 31  1  0
  1 32  1  0
  3 33  1  0
  4 34  1  0
  9 35  1  0
  9 36  1  0
 11 37  1  0
 12 38  1  0
 16 39  1  0
 17 40  1  0
 18 41  1  0
 21 42  1  0
 21 43  1  0
 24 44  1  0
 25 45  1  0
 26 46  1  0
M  CHG  2   8  -1  29  -1
M  END
>  <UniqueID>  (35) 
33

>  <SMILES>  (35) 
Cc1ccc(C(=O)[N-]Cc2ccc(Oc3cccc(S(N)(=O)=O)c3)cc2)c(=O)[n-]1

>  <Energy>  (35) 
55.667658655459036

>  <Genealogy>  (35) 
Cc1ccc(C(=O)[N-]Cc2ccc(Oc3cccc(S(N)(=O)=O)c3)cc2)c(=O)[n-]1 (protonated)
Cc1ccc(C(=O)[N-]Cc2ccc(Oc3cccc(S(N)(=O)=O)c3)cc2)c(=O)[n-]1 (3D coordinates assigned)
Cc1ccc(C(=O)[N-]Cc2ccc(Oc3cccc(S(N)(=O)=O)c3)cc2)c(=O)[n-]1 (optimized conformer: 55.667658655459036 kcal/mol)

>  <smiles>  (35) 
Cc1ccc(C(=O)NCc2ccc(Oc3cccc(S(N)(=O)=O)c3)cc2)c(=O)[nH]1

>  <score_type>  (35) 
oracle

>  <origin>  (35) 
adg

>  <m_score__min__energy>  (35) 
-12.699999999999999

>  <m_primary>  (35) 
energy

$$$$
35:0
     RDKit          3D

 47 49  0  0  0  0  0  0  0  0999 V2000
   57.6880   31.9580   43.2270 C   0  0  0  0  0  0  0  0  0  0  0  0
   56.9670   31.6280   44.4890 C   0  0  0  0  0  0  0  0  0  0  0  0
   56.1220   30.6930   44.4950 O   0  0  0  0  0  0  0  0  0  0  0  0
   57.1610   32.4360   45.6160 O   0  0  0  0  0  0  0  0  0  0  0  0
   58.3550   33.0960   45.9540 C   0  0  0  0  0  0  0  0  0  0  0  0
   58.5390   34.4630   45.6730 C   0  0  0  0  0  0  0  0  0  0  0  0
   59.7430   35.0960   45.9870 C   0  0  0  0  0  0  0  0  0  0  0  0
   60.7730   34.3760   46.5910 C   0  0  0  0  0  0  0  0  0  0  0  0
   60.5970   33.0270   46.8990 C   0  0  0  0  0  0  0  0  0  0  0  0
   59.3830   32.3780   46.6070 C   0  0  0  0  0  0  0  0  0  0  0  0
   59.2240   30.9460   46.9540 C   0  0  0  0  0  0  0  0  0  0  0  0
   60.1080   30.3710   47.6470 O   0  0  0  0  0  0  0  0  0  0  0  0
   58.0440   30.2250   46.5650 N   0  0  0  0  0  0  0  0  0  0  0  0
   58.0000   28.8020   46.3680 C   0  0  0  0  0  0  0  0  0  0  0  0
   57.4410   28.2870   45.1890 C   0  0  0  0  0  0  0  0  0  0  0  0
   57.4190   26.9090   44.9560 C   0  0  0  0  0  0  0  0  0  0  0  0
   57.9780   26.0230   45.8900 C   0  0  0  0  0  0  0  0  0  0  0  0
   57.9560   24.5370   45.6360 C   0  0  0  0  0  0  0  0  0  0  0  0
   56.5660   24.0220   45.5960 N   0  0  0  0  0  0  0  0  0  0  0  0
   55.8940   23.6660   46.7530 C   0  0  0  0  0  0  0  0  0  0  0  0
   56.5500   23.7870   48.1160 C   0  0  0  0  0  0  0  0  0  0  0  0
   54.6020   23.1010   46.6640 C   0  0  0  0  0  0  0  0  0  0  0  0
   53.7130   22.5300   48.0820 Cl  0  0  0  0  0  0  0  0  0  0  0  0
   54.0140   22.9670   45.4080 C   0  0  0  0  0  0  0  0  0  0  0  0
   52.8570   22.4850   45.2870 O   0  0  0  0  0  0  0  0  0  0  0  0
   54.6900   23.3520   44.3040 N   0  0  0  0  0  0  0  0  0  0  0  0
   55.9420   23.8640   44.3770 C   0  0  0  0  0  0  0  0  0  0  0  0
   56.5230   24.1830   43.3040 O   0  0  0  0  0  0  0  0  0  0  0  0
   58.5370   26.5360   47.0710 C   0  0  0  0  0  0  0  0  0  0  0  0
   58.5590   27.9130   47.3040 C   0  0  0  0  0  0  0  0  0  0  0  0
   58.6639   32.4046   43.4683 H   0  0  0  0  0  0  0  0  0  0  0  0
   57.8399   31.0398   42.6407 H   0  0  0  0  0  0  0  0  0  0  0  0
   57.0924   32.6731   42.6407 H   0  0  0  0  0  0  0  0  0  0  0  0
   57.7274   35.0372   45.2021 H   0  0  0  0  0  0  0  0  0  0  0  0
   59.8792   36.1632   45.7578 H   0  0  0  0  0  0  0  0  0  0  0  0
   61.7261   34.8727   46.8250 H   0  0  0  0  0  0  0  0  0  0  0  0
   61.4146   32.4654   47.3745 H   0  0  0  0  0  0  0  0  0  0  0  0
   57.1520   30.7640   46.4750 H   0  0  0  0  0  0  0  0  0  0  0  0
   57.0164   28.9734   44.4416 H   0  0  0  0  0  0  0  0  0  0  0  0
   56.9612   26.5169   44.0359 H   0  0  0  0  0  0  0  0  0  0  0  0
   58.4435   24.3302   44.6718 H   0  0  0  0  0  0  0  0  0  0  0  0
   58.4908   24.0348   46.4556 H   0  0  0  0  0  0  0  0  0  0  0  0
   55.7924   23.6473   48.9012 H   0  0  0  0  0  0  0  0  0  0  0  0
   57.3295   23.0175   48.2174 H   0  0  0  0  0  0  0  0  0  0  0  0
   57.0036   24.7840   48.2174 H   0  0  0  0  0  0  0  0  0  0  0  0
   58.9607   25.8488   47.8182 H   0  0  0  0  0  0  0  0  0  0  0  0
   59.0161   28.3046   48.2247 H   0  0  0  0  0  0  0  0  0  0  0  0
  1  2  1  0
  2  3  2  0
  2  4  1  0
  4  5  1  0
  5  6  2  0
  6  7  1  0
  7  8  2  0
  8  9  1  0
  9 10  2  0
 10 11  1  0
 11 12  2  0
 11 13  1  0
 13 14  1  0
 14 15  2  0
 15 16  1  0
 16 17  2  0
 17 18  1  0
 18 19  1  0
 19 20  1  0
 20 21  1  0
 20 22  2  0
 22 23  1  0
 22 24  1  0
 24 25  2  0
 24 26  1  0
 26 27  1  0
 27 28  2  0
 17 29  1  0
 29 30  2  0
 10  5  1  0
 30 14  1  0
 27 19  1  0
  1 31  1  0
  1 32  1  0
  1 33  1  0
  6 34  1  0
  7 35  1  0
  8 36  1  0
  9 37  1  0
 13 38  1  0
 15 39  1  0
 16 40  1  0
 18 41  1  0
 18 42  1  0
 21 43  1  0
 21 44  1  0
 21 45  1  0
 29 46  1  0
 30 47  1  0
M  CHG  1  26  -1
M  END
>  <UniqueID>  (36) 
34

>  <SMILES>  (36) 
CC(=O)Oc1ccccc1C(=O)Nc1ccc(Cn2c(C)c(Cl)c(=O)[n-]c2=O)cc1

>  <Energy>  (36) 
67.83719226525751

>  <Genealogy>  (36) 
CC(=O)Oc1ccccc1C(=O)Nc1ccc(Cn2c(C)c(Cl)c(=O)[n-]c2=O)cc1 (protonated)
CC(=O)Oc1ccccc1C(=O)Nc1ccc(Cn2c(C)c(Cl)c(=O)[n-]c2=O)cc1 (3D coordinates assigned)
CC(=O)Oc1ccccc1C(=O)Nc1ccc(Cn2c(C)c(Cl)c(=O)[n-]c2=O)cc1 (optimized conformer: 67.83719226525751 kcal/mol)

>  <smiles>  (36) 
CC(=O)Oc1ccccc1C(=O)Nc1ccc(Cn2c(C)c(Cl)c(=O)[nH]c2=O)cc1

>  <score_type>  (36) 
oracle

>  <origin>  (36) 
adg

>  <m_score__min__energy>  (36) 
-10.09

>  <m_primary>  (36) 
energy

$$$$
36:0
     RDKit          3D

 41 43  0  0  0  0  0  0  0  0999 V2000
   53.5280   24.1730   45.2290 C   0  0  0  0  0  0  0  0  0  0  0  0
   54.8970   23.8380   44.7150 C   0  0  0  0  0  0  0  0  0  0  0  0
   55.0140   22.8140   43.8250 N   0  0  0  0  0  0  0  0  0  0  0  0
   56.2130   22.4140   43.3290 C   0  0  0  0  0  0  0  0  0  0  0  0
   56.2650   21.4620   42.5060 O   0  0  0  0  0  0  0  0  0  0  0  0
   57.3840   23.0540   43.7340 C   0  0  0  0  0  0  0  0  0  0  0  0
   57.3040   24.1150   44.6340 C   0  0  0  0  0  0  0  0  0  0  0  0
   56.0580   24.5410   45.1220 C   0  0  0  0  0  0  0  0  0  0  0  0
   56.0170   25.6920   46.0520 C   0  0  0  0  0  0  0  0  0  0  0  0
   56.2770   25.5010   47.2690 O   0  0  0  0  0  0  0  0  0  0  0  0
   55.6690   27.0170   45.6250 N   0  0  0  0  0  0  0  0  0  0  0  0
   56.5640   28.0790   45.2590 C   0  0  0  0  0  0  0  0  0  0  0  0
   57.8880   27.7580   44.9380 C   0  0  0  0  0  0  0  0  0  0  0  0
   58.7820   28.7570   44.5480 C   0  0  0  0  0  0  0  0  0  0  0  0
   58.3570   30.0850   44.4660 C   0  0  0  0  0  0  0  0  0  0  0  0
   57.0340   30.4260   44.7700 C   0  0  0  0  0  0  0  0  0  0  0  0
   56.6370   31.8000   44.6620 N   0  0  0  0  0  0  0  0  0  0  0  0
   57.7110   33.1610   44.7190 S   0  0  0  0  0  0  0  0  0  0  0  0
   56.9130   34.4200   44.5350 O   0  0  0  0  0  0  0  0  0  0  0  0
   58.7040   33.0410   43.5980 O   0  0  0  0  0  0  0  0  0  0  0  0
   58.5440   33.2360   46.2680 C   0  0  0  0  0  0  0  0  0  0  0  0
   59.5520   34.1890   46.4780 C   0  0  0  0  0  0  0  0  0  0  0  0
   60.2390   34.2280   47.6940 C   0  0  0  0  0  0  0  0  0  0  0  0
   59.9180   33.3220   48.7090 C   0  0  0  0  0  0  0  0  0  0  0  0
   58.9070   32.3780   48.5080 C   0  0  0  0  0  0  0  0  0  0  0  0
   58.2190   32.3340   47.2920 C   0  0  0  0  0  0  0  0  0  0  0  0
   56.1360   29.4150   45.1570 C   0  0  0  0  0  0  0  0  0  0  0  0
   53.5385   24.1704   46.3289 H   0  0  0  0  0  0  0  0  0  0  0  0
   53.2343   25.1695   44.8675 H   0  0  0  0  0  0  0  0  0  0  0  0
   52.8073   23.4247   44.8675 H   0  0  0  0  0  0  0  0  0  0  0  0
   58.3599   22.7250   43.3474 H   0  0  0  0  0  0  0  0  0  0  0  0
   58.2226   24.6220   44.9642 H   0  0  0  0  0  0  0  0  0  0  0  0
   58.2261   26.7127   44.9933 H   0  0  0  0  0  0  0  0  0  0  0  0
   59.8230   28.4977   44.3049 H   0  0  0  0  0  0  0  0  0  0  0  0
   59.0667   30.8680   44.1605 H   0  0  0  0  0  0  0  0  0  0  0  0
   59.8021   34.9073   45.6833 H   0  0  0  0  0  0  0  0  0  0  0  0
   61.0332   34.9723   47.8528 H   0  0  0  0  0  0  0  0  0  0  0  0
   60.4607   33.3520   49.6653 H   0  0  0  0  0  0  0  0  0  0  0  0
   58.6522   31.6680   49.3086 H   0  0  0  0  0  0  0  0  0  0  0  0
   57.4221   31.5915   47.1379 H   0  0  0  0  0  0  0  0  0  0  0  0
   55.0902   29.6713   45.3818 H   0  0  0  0  0  0  0  0  0  0  0  0
  1  2  1  0
  2  3  1  0
  3  4  1  0
  4  5  2  0
  4  6  1  0
  6  7  2  0
  7  8  1  0
  8  9  1  0
  9 10  2  0
  9 11  1  0
 11 12  1  0
 12 13  2  0
 13 14  1  0
 14 15  2  0
 15 16  1  0
 16 17  1  0
 17 18  1  0
 18 19  2  0
 18 20  2  0
 18 21  1  0
 21 22  2  0
 22 23  1  0
 23 24  2  0
 24 25  1  0
 25 26  2  0
 16 27  2  0
  8  2  2  0
 27 12  1  0
 26 21  1  0
  1 28  1  0
  1 29  1  0
  1 30  1  0
  6 31  1  0
  7 32  1  0
 13 33  1  0
 14 34  1  0
 15 35  1  0
 22 36  1  0
 23 37  1  0
 24 38  1  0
 25 39  1  0
 26 40  1  0
 27 41  1  0
M  CHG  3   3  -1  11  -1  17  -1
M  END
>  <UniqueID>  (37) 
35

>  <SMILES>  (37) 
Cc1[n-]c(=O)ccc1C(=O)[N-]c1cccc([N-]S(=O)(=O)c2ccccc2)c1

>  <Energy>  (37) 
53.22921925159138

>  <Genealogy>  (37) 
Cc1[n-]c(=O)ccc1C(=O)[N-]c1cccc([N-]S(=O)(=O)c2ccccc2)c1 (protonated)
Cc1[n-]c(=O)ccc1C(=O)[N-]c1cccc([N-]S(=O)(=O)c2ccccc2)c1 (3D coordinates assigned)
Cc1[n-]c(=O)ccc1C(=O)[N-]c1cccc([N-]S(=O)(=O)c2ccccc2)c1 (optimized conformer: 53.22921925159138 kcal/mol)

>  <smiles>  (37) 
Cc1[nH]c(=O)ccc1C(=O)Nc1cccc(NS(=O)(=O)c2ccccc2)c1

>  <score_type>  (37) 
oracle

>  <origin>  (37) 
adg

>  <m_score__min__energy>  (37) 
-14.27

>  <m_primary>  (37) 
energy

$$$$
37:0
     RDKit          3D

 35 36  0  0  0  0  0  0  0  0999 V2000
   55.4420   28.9930   44.8710 O   0  0  0  0  0  0  0  0  0  0  0  0
   56.4070   29.6800   44.4440 C   0  0  0  0  0  0  0  0  0  0  0  0
   56.3570   31.1010   44.5950 N   0  0  0  0  0  0  0  0  0  0  0  0
   57.7320   32.1480   44.4680 S   0  0  0  0  0  0  0  0  0  0  0  0
   57.2820   33.5730   44.6300 O   0  0  0  0  0  0  0  0  0  0  0  0
   58.3890   31.9870   43.1250 O   0  0  0  0  0  0  0  0  0  0  0  0
   58.9000   31.7210   45.7310 C   0  0  0  0  0  0  0  0  0  0  0  0
   59.3250   30.3860   45.8270 C   0  0  0  0  0  0  0  0  0  0  0  0
   60.2440   29.9960   46.7990 C   0  0  0  0  0  0  0  0  0  0  0  0
   60.7600   30.9300   47.6940 C   0  0  0  0  0  0  0  0  0  0  0  0
   60.3570   32.2700   47.6270 C   0  0  0  0  0  0  0  0  0  0  0  0
   60.8820   33.2040   48.5330 C   0  0  0  0  0  0  0  0  0  0  0  0
   60.4880   34.5410   48.4740 C   0  0  0  0  0  0  0  0  0  0  0  0
   59.5690   34.9570   47.5120 C   0  0  0  0  0  0  0  0  0  0  0  0
   59.0360   34.0410   46.6010 C   0  0  0  0  0  0  0  0  0  0  0  0
   59.4200   32.6820   46.6400 C   0  0  0  0  0  0  0  0  0  0  0  0
   57.5280   29.0340   43.8190 N   0  0  0  0  0  0  0  0  0  0  0  0
   57.7680   27.5940   43.9190 C   0  0  0  0  0  0  0  0  0  0  0  0
   57.7400   27.1430   45.3830 C   0  0  0  0  0  0  0  0  0  0  0  0
   56.6590   26.0940   45.6430 C   0  0  0  0  0  0  0  0  0  0  0  0
   55.4810   26.7220   46.0040 F   0  0  0  0  0  0  0  0  0  0  0  0
   58.9270   29.6381   45.1254 H   0  0  0  0  0  0  0  0  0  0  0  0
   60.5635   28.9452   46.8598 H   0  0  0  0  0  0  0  0  0  0  0  0
   61.4870   30.6142   48.4567 H   0  0  0  0  0  0  0  0  0  0  0  0
   61.6078   32.8804   49.2936 H   0  0  0  0  0  0  0  0  0  0  0  0
   60.9031   35.2679   49.1876 H   0  0  0  0  0  0  0  0  0  0  0  0
   59.2616   36.0123   47.4697 H   0  0  0  0  0  0  0  0  0  0  0  0
   58.3110   34.3812   45.8469 H   0  0  0  0  0  0  0  0  0  0  0  0
   58.2620   29.6070   43.3480 H   0  0  0  0  0  0  0  0  0  0  0  0
   56.9867   27.0577   43.3605 H   0  0  0  0  0  0  0  0  0  0  0  0
   58.7590   27.3696   43.4977 H   0  0  0  0  0  0  0  0  0  0  0  0
   58.7195   26.7137   45.6403 H   0  0  0  0  0  0  0  0  0  0  0  0
   57.5133   28.0227   46.0033 H   0  0  0  0  0  0  0  0  0  0  0  0
   56.4943   25.5038   44.7295 H   0  0  0  0  0  0  0  0  0  0  0  0
   56.9832   25.4292   46.4572 H   0  0  0  0  0  0  0  0  0  0  0  0
  1  2  2  0
  2  3  1  0
  3  4  1  0
  4  5  2  0
  4  6  2  0
  4  7  1  0
  7  8  2  0
  8  9  1  0
  9 10  2  0
 10 11  1  0
 11 12  2  0
 12 13  1  0
 13 14  2  0
 14 15  1  0
 15 16  2  0
  2 17  1  0
 17 18  1  0
 18 19  1  0
 19 20  1  0
 20 21  1  0
 16  7  1  0
 16 11  1  0
  8 22  1  0
  9 23  1  0
 10 24  1  0
 12 25  1  0
 13 26  1  0
 14 27  1  0
 15 28  1  0
 17 29  1  0
 18 30  1  0
 18 31  1  0
 19 32  1  0
 19 33  1  0
 20 34  1  0
 20 35  1  0
M  CHG  1   3  -1
M  END
>  <UniqueID>  (38) 
36

>  <SMILES>  (38) 
O=C([N-]S(=O)(=O)c1cccc2ccccc12)NCCCF

>  <Energy>  (38) 
38.11571107272383

>  <Genealogy>  (38) 
O=C([N-]S(=O)(=O)c1cccc2ccccc12)NCCCF (protonated)
O=C([N-]S(=O)(=O)c1cccc2ccccc12)NCCCF (3D coordinates assigned)
O=C([N-]S(=O)(=O)c1cccc2ccccc12)NCCCF (optimized conformer: 38.11571107272383 kcal/mol)

>  <smiles>  (38) 
O=C(NCCCF)NS(=O)(=O)c1cccc2ccccc12

>  <score_type>  (38) 
oracle

>  <origin>  (38) 
adg

>  <m_score__min__energy>  (38) 
-9.2799999999999994

>  <m_primary>  (38) 
energy

$$$$
38:0
     RDKit          3D

 41 42  0  0  0  0  0  0  0  0999 V2000
   50.9960   32.6990   51.6020 N   0  0  0  0  0  0  0  0  0  0  0  0
   51.3250   31.4520   52.7530 S   0  0  0  0  0  0  0  0  0  0  0  0
   50.9790   31.9370   54.1340 O   0  0  0  0  0  0  0  0  0  0  0  0
   50.4810   30.2490   52.4390 O   0  0  0  0  0  0  0  0  0  0  0  0
   53.0320   31.0220   52.6810 C   0  0  0  0  0  0  0  0  0  0  0  0
   53.8330   31.4860   51.6280 C   0  0  0  0  0  0  0  0  0  0  0  0
   55.1860   31.1380   51.5660 C   0  0  0  0  0  0  0  0  0  0  0  0
   55.7510   30.3090   52.5440 C   0  0  0  0  0  0  0  0  0  0  0  0
   57.1500   29.9990   52.4580 N   0  0  0  0  0  0  0  0  0  0  0  0
   57.9980   30.2060   51.3210 C   0  0  0  0  0  0  0  0  0  0  0  0
   58.0890   29.3350   50.4150 O   0  0  0  0  0  0  0  0  0  0  0  0
   58.7240   31.5050   51.1710 C   0  0  0  0  0  0  0  0  0  0  0  0
   58.4420   32.0940   49.9050 O   0  0  0  0  0  0  0  0  0  0  0  0
   59.2350   33.0930   49.3270 C   0  0  0  0  0  0  0  0  0  0  0  0
   60.0690   33.7370   50.0200 O   0  0  0  0  0  0  0  0  0  0  0  0
   59.0570   33.4250   47.8790 C   0  0  0  0  0  0  0  0  0  0  0  0
   60.0780   32.7640   47.0680 N   0  0  0  0  0  0  0  0  0  0  0  0
   60.1240   31.3660   46.7510 C   0  0  0  0  0  0  0  0  0  0  0  0
   61.2220   30.7570   46.8500 O   0  0  0  0  0  0  0  0  0  0  0  0
   58.9400   30.6290   46.2700 C   0  0  0  0  0  0  0  0  0  0  0  0
   58.6310   29.3560   46.7780 C   0  0  0  0  0  0  0  0  0  0  0  0
   57.4920   28.6790   46.3300 C   0  0  0  0  0  0  0  0  0  0  0  0
   56.6600   29.2640   45.3710 C   0  0  0  0  0  0  0  0  0  0  0  0
   55.5240   28.5930   44.9340 O   0  0  0  0  0  0  0  0  0  0  0  0
   56.9750   30.5230   44.8460 C   0  0  0  0  0  0  0  0  0  0  0  0
   58.1150   31.2010   45.2880 C   0  0  0  0  0  0  0  0  0  0  0  0
   54.9510   29.8570   53.6090 C   0  0  0  0  0  0  0  0  0  0  0  0
   53.5970   30.2050   53.6700 C   0  0  0  0  0  0  0  0  0  0  0  0
   50.2760   32.3230   50.9440 H   0  0  0  0  0  0  0  0  0  0  0  0
   53.3955   32.1262   50.8477 H   0  0  0  0  0  0  0  0  0  0  0  0
   55.8107   31.5176   50.7440 H   0  0  0  0  0  0  0  0  0  0  0  0
   58.4044   32.1919   51.9685 H   0  0  0  0  0  0  0  0  0  0  0  0
   59.8055   31.3169   51.2415 H   0  0  0  0  0  0  0  0  0  0  0  0
   58.0622   33.0891   47.5512 H   0  0  0  0  0  0  0  0  0  0  0  0
   59.1537   34.5133   47.7512 H   0  0  0  0  0  0  0  0  0  0  0  0
   59.2860   28.8909   47.5294 H   0  0  0  0  0  0  0  0  0  0  0  0
   57.2505   27.6844   46.7331 H   0  0  0  0  0  0  0  0  0  0  0  0
   56.3249   30.9793   44.0850 H   0  0  0  0  0  0  0  0  0  0  0  0
   58.3664   32.1850   44.8655 H   0  0  0  0  0  0  0  0  0  0  0  0
   55.3912   29.2278   54.3966 H   0  0  0  0  0  0  0  0  0  0  0  0
   52.9734   29.8359   54.4976 H   0  0  0  0  0  0  0  0  0  0  0  0
  1  2  1  0
  2  3  2  0
  2  4  2  0
  2  5  1  0
  5  6  2  0
  6  7  1  0
  7  8  2  0
  8  9  1  0
  9 10  1  0
 10 11  2  0
 10 12  1  0
 12 13  1  0
 13 14  1  0
 14 15  2  0
 14 16  1  0
 16 17  1  0
 17 18  1  0
 18 19  2  0
 18 20  1  0
 20 21  2  0
 21 22  1  0
 22 23  2  0
 23 24  1  0
 23 25  1  0
 25 26  2  0
  8 27  1  0
 27 28  2  0
 28  5  1  0
 26 20  1  0
  1 29  1  0
  6 30  1  0
  7 31  1  0
 12 32  1  0
 12 33  1  0
 16 34  1  0
 16 35  1  0
 21 36  1  0
 22 37  1  0
 25 38  1  0
 26 39  1  0
 27 40  1  0
 28 41  1  0
M  CHG  4   1  -1   9  -1  17  -1  24  -1
M  END
>  <UniqueID>  (39) 
37

>  <SMILES>  (39) 
[NH-]S(=O)(=O)c1ccc([N-]C(=O)COC(=O)C[N-]C(=O)c2ccc([O-])cc2)cc1

>  <Energy>  (39) 
43.85624661005076

>  <Genealogy>  (39) 
[NH-]S(=O)(=O)c1ccc([N-]C(=O)COC(=O)C[N-]C(=O)c2ccc([O-])cc2)cc1 (protonated)
[NH-]S(=O)(=O)c1ccc([N-]C(=O)COC(=O)C[N-]C(=O)c2ccc([O-])cc2)cc1 (3D coordinates assigned)
[NH-]S(=O)(=O)c1ccc([N-]C(=O)COC(=O)C[N-]C(=O)c2ccc([O-])cc2)cc1 (optimized conformer: 43.85624661005076 kcal/mol)

>  <smiles>  (39) 
NS(=O)(=O)c1ccc(NC(=O)COC(=O)CNC(=O)c2ccc(O)cc2)cc1

>  <score_type>  (39) 
oracle

>  <origin>  (39) 
adg

>  <m_score__min__energy>  (39) 
-16.039999999999999

>  <m_primary>  (39) 
energy

$$$$
39:0
     RDKit          3D

 82 87  0  0  0  0  0  0  0  0999 V2000
   52.4650   23.7160   44.7810 C   0  0  0  0  0  0  0  0  0  0  0  0
   53.7180   23.0750   44.5600 O   0  0  0  0  0  0  0  0  0  0  0  0
   54.9680   23.6750   44.7780 C   0  0  0  0  0  0  0  0  0  0  0  0
   55.1170   24.8100   45.5930 C   0  0  0  0  0  0  0  0  0  0  0  0
   56.3840   25.3600   45.8230 C   0  0  0  0  0  0  0  0  0  0  0  0
   57.5140   24.7970   45.2000 C   0  0  0  0  0  0  0  0  0  0  0  0
   57.3630   23.6700   44.3820 C   0  0  0  0  0  0  0  0  0  0  0  0
   56.0940   23.1050   44.1650 C   0  0  0  0  0  0  0  0  0  0  0  0
   55.9110   21.9790   43.3480 O   0  0  0  0  0  0  0  0  0  0  0  0
   56.9390   21.0580   42.9980 C   0  0  0  0  0  0  0  0  0  0  0  0
   58.9040   25.3270   45.4860 C   0  0  0  0  0  0  0  0  0  0  0  0
   58.9050   26.7140   46.0000 N   0  0  0  0  0  0  0  0  0  0  0  0
   58.7170   27.7180   44.9290 C   0  0  0  0  0  0  0  0  0  0  0  0
   60.0180   28.4910   44.7120 C   0  0  0  0  0  0  0  0  0  0  0  0
   60.1050   29.6010   45.6520 N   0  0  0  0  0  0  0  0  0  0  0  0
   59.1800   30.5510   45.8740 C   0  0  0  0  0  0  0  0  0  0  0  0
   59.6980   31.3560   46.8630 C   0  0  0  0  0  0  0  0  0  0  0  0
   59.0070   32.4770   47.5650 C   0  0  0  0  0  0  0  0  0  0  0  0
   58.2790   31.9850   48.6850 O   0  0  0  0  0  0  0  0  0  0  0  0
   58.6610   32.1140   50.0300 C   0  0  0  0  0  0  0  0  0  0  0  0
   58.9320   33.3630   50.6230 C   0  0  0  0  0  0  0  0  0  0  0  0
   59.2150   33.4490   51.9870 C   0  0  0  0  0  0  0  0  0  0  0  0
   59.2200   32.3000   52.7750 C   0  0  0  0  0  0  0  0  0  0  0  0
   58.9720   31.0550   52.1940 C   0  0  0  0  0  0  0  0  0  0  0  0
   58.7360   30.9540   50.8170 C   0  0  0  0  0  0  0  0  0  0  0  0
   58.5600   29.6620   50.2230 N   0  0  0  0  0  0  0  0  0  0  0  0
   59.6440   28.9150   49.6580 C   0  0  0  0  0  0  0  0  0  0  0  0
   59.6130   28.6220   48.4360 O   0  0  0  0  0  0  0  0  0  0  0  0
   60.7440   28.4020   50.5120 C   0  0  0  0  0  0  0  0  0  0  0  0
   60.7780   27.0290   50.8380 C   0  0  0  0  0  0  0  0  0  0  0  0
   61.8080   26.5020   51.6240 C   0  0  0  0  0  0  0  0  0  0  0  0
   62.8140   27.3460   52.0950 C   0  0  0  0  0  0  0  0  0  0  0  0
   62.8020   28.7090   51.7790 C   0  0  0  0  0  0  0  0  0  0  0  0
   61.7730   29.2530   50.9760 C   0  0  0  0  0  0  0  0  0  0  0  0
   61.7280   30.6220   50.6470 O   0  0  0  0  0  0  0  0  0  0  0  0
   62.8510   31.5040   50.5910 C   0  0  0  0  0  0  0  0  0  0  0  0
   62.8390   32.3000   49.3120 C   0  0  0  0  0  0  0  0  0  0  0  0
   61.9190   33.3480   49.1220 C   0  0  0  0  0  0  0  0  0  0  0  0
   61.9210   34.0790   47.9280 C   0  0  0  0  0  0  0  0  0  0  0  0
   62.8290   33.7590   46.9130 C   0  0  0  0  0  0  0  0  0  0  0  0
   63.7500   32.7190   47.0950 C   0  0  0  0  0  0  0  0  0  0  0  0
   63.7550   31.9910   48.2880 C   0  0  0  0  0  0  0  0  0  0  0  0
   60.9050   30.8750   47.2180 N   0  0  0  0  0  0  0  0  0  0  0  0
   61.1300   29.8100   46.4620 N   0  0  0  0  0  0  0  0  0  0  0  0
   57.9440   26.8690   47.1090 C   0  0  0  0  0  0  0  0  0  0  0  0
   56.5000   26.6060   46.6620 C   0  0  0  0  0  0  0  0  0  0  0  0
   52.2857   23.8077   45.8624 H   0  0  0  0  0  0  0  0  0  0  0  0
   52.4800   24.7172   44.3256 H   0  0  0  0  0  0  0  0  0  0  0  0
   51.6619   23.1180   44.3256 H   0  0  0  0  0  0  0  0  0  0  0  0
   54.2308   25.2703   46.0542 H   0  0  0  0  0  0  0  0  0  0  0  0
   58.2468   23.2222   43.9042 H   0  0  0  0  0  0  0  0  0  0  0  0
   57.3936   20.6507   43.9131 H   0  0  0  0  0  0  0  0  0  0  0  0
   56.5095   20.2369   42.4052 H   0  0  0  0  0  0  0  0  0  0  0  0
   57.7081   21.5748   42.4052 H   0  0  0  0  0  0  0  0  0  0  0  0
   59.3789   24.6763   46.2351 H   0  0  0  0  0  0  0  0  0  0  0  0
   59.4543   25.3312   44.5336 H   0  0  0  0  0  0  0  0  0  0  0  0
   58.4346   27.2085   43.9959 H   0  0  0  0  0  0  0  0  0  0  0  0
   57.9219   28.4190   45.2229 H   0  0  0  0  0  0  0  0  0  0  0  0
   60.8724   27.8156   44.8668 H   0  0  0  0  0  0  0  0  0  0  0  0
   60.0342   28.8868   43.6858 H   0  0  0  0  0  0  0  0  0  0  0  0
   58.2090   30.6621   45.3692 H   0  0  0  0  0  0  0  0  0  0  0  0
   59.7557   33.2052   47.9104 H   0  0  0  0  0  0  0  0  0  0  0  0
   58.3067   32.9587   46.8668 H   0  0  0  0  0  0  0  0  0  0  0  0
   58.9205   34.2749   50.0079 H   0  0  0  0  0  0  0  0  0  0  0  0
   59.4347   34.4265   52.4411 H   0  0  0  0  0  0  0  0  0  0  0  0
   59.4192   32.3738   53.8543 H   0  0  0  0  0  0  0  0  0  0  0  0
   58.9619   30.1503   52.8197 H   0  0  0  0  0  0  0  0  0  0  0  0
   59.9833   26.3641   50.4687 H   0  0  0  0  0  0  0  0  0  0  0  0
   61.8247   25.4298   51.8690 H   0  0  0  0  0  0  0  0  0  0  0  0
   63.6223   26.9371   52.7191 H   0  0  0  0  0  0  0  0  0  0  0  0
   63.6004   29.3634   52.1587 H   0  0  0  0  0  0  0  0  0  0  0  0
   62.8111   32.1944   51.4465 H   0  0  0  0  0  0  0  0  0  0  0  0
   63.7732   30.9054   50.6267 H   0  0  0  0  0  0  0  0  0  0  0  0
   61.1962   33.5935   49.9140 H   0  0  0  0  0  0  0  0  0  0  0  0
   61.2084   34.9052   47.7879 H   0  0  0  0  0  0  0  0  0  0  0  0
   62.8198   34.3252   45.9699 H   0  0  0  0  0  0  0  0  0  0  0  0
   64.4691   32.4755   46.2990 H   0  0  0  0  0  0  0  0  0  0  0  0
   64.4774   31.1733   48.4277 H   0  0  0  0  0  0  0  0  0  0  0  0
   58.2040   26.1567   47.9059 H   0  0  0  0  0  0  0  0  0  0  0  0
   58.0042   27.9074   47.4669 H   0  0  0  0  0  0  0  0  0  0  0  0
   55.8675   26.4925   47.5548 H   0  0  0  0  0  0  0  0  0  0  0  0
   56.1750   27.4590   46.0481 H   0  0  0  0  0  0  0  0  0  0  0  0
  1  2  1  0
  2  3  1  0
  3  4  2  0
  4  5  1  0
  5  6  2  0
  6  7  1  0
  7  8  2  0
  8  9  1  0
  9 10  1  0
  6 11  1  0
 11 12  1  0
 12 13  1  0
 13 14  1  0
 14 15  1  0
 15 16  1  0
 16 17  2  0
 17 18  1  0
 18 19  1  0
 19 20  1  0
 20 21  2  0
 21 22  1  0
 22 23  2  0
 23 24  1  0
 24 25  2  0
 25 26  1  0
 26 27  1  0
 27 28  2  0
 27 29  1  0
 29 30  2  0
 30 31  1  0
 31 32  2  0
 32 33  1  0
 33 34  2  0
 34 35  1  0
 35 36  1  0
 36 37  1  0
 37 38  2  0
 38 39  1  0
 39 40  2  0
 40 41  1  0
 41 42  2  0
 17 43  1  0
 43 44  2  0
 12 45  1  0
 45 46  1  0
  8  3  1  0
 44 15  1  0
 46  5  1  0
 25 20  1  0
 34 29  1  0
 42 37  1  0
  1 47  1  0
  1 48  1  0
  1 49  1  0
  4 50  1  0
  7 51  1  0
 10 52  1  0
 10 53  1  0
 10 54  1  0
 11 55  1  0
 11 56  1  0
 13 57  1  0
 13 58  1  0
 14 59  1  0
 14 60  1  0
 16 61  1  0
 18 62  1  0
 18 63  1  0
 21 64  1  0
 22 65  1  0
 23 66  1  0
 24 67  1  0
 30 68  1  0
 31 69  1  0
 32 70  1  0
 33 71  1  0
 36 72  1  0
 36 73  1  0
 38 74  1  0
 39 75  1  0
 40 76  1  0
 41 77  1  0
 42 78  1  0
 45 79  1  0
 45 80  1  0
 46 81  1  0
 46 82  1  0
M  CHG  1  26  -1
M  END
>  <UniqueID>  (40) 
38

>  <SMILES>  (40) 
COc1cc2c(cc1OC)CN(CCn1cc(COc3ccccc3[N-]C(=O)c3ccccc3OCc3ccccc3)nn1)CC2

>  <Energy>  (40) 
136.94513862787053

>  <Genealogy>  (40) 
COc1cc2c(cc1OC)CN(CCn1cc(COc3ccccc3[N-]C(=O)c3ccccc3OCc3ccccc3)nn1)CC2 (protonated)
COc1cc2c(cc1OC)CN(CCn1cc(COc3ccccc3[N-]C(=O)c3ccccc3OCc3ccccc3)nn1)CC2 (3D coordinates assigned)
COc1cc2c(cc1OC)CN(CCn1cc(COc3ccccc3[N-]C(=O)c3ccccc3OCc3ccccc3)nn1)CC2 (nonaromatic ring conformer: 136.94513862787053 kcal/mol)

>  <smiles>  (40) 
COc1cc2c(cc1OC)CN(CCn1cc(COc3ccccc3NC(=O)c3ccccc3OCc3ccccc3)nn1)CC2

>  <score_type>  (40) 
oracle

>  <origin>  (40) 
adg

>  <m_score__min__energy>  (40) 
-12.5

>  <m_primary>  (40) 
energy

$$$$
40:0
     RDKit          3D

 48 52  0  0  0  0  0  0  0  0999 V2000
   54.0940   30.1509   51.2248 H   0  0  0  0  0  0  0  0  0  0  0  0
   54.8310   30.3450   52.0180 C   0  0  0  0  0  0  0  0  0  0  0  0
   55.8460   31.2250   51.8030 N   0  0  0  0  0  0  0  0  0  0  0  0
   56.7890   31.4970   52.7500 C   0  0  0  0  0  0  0  0  0  0  0  0
   57.8500   32.4820   52.4270 C   0  0  0  0  0  0  0  0  0  0  0  0
   58.4920   32.3770   51.2330 N   0  0  0  0  0  0  0  0  0  0  0  0
   59.4750   33.2440   50.8640 C   0  0  0  0  0  0  0  0  0  0  0  0
   60.0920   33.1200   49.7250 N   0  0  0  0  0  0  0  0  0  0  0  0
   60.1480   31.9450   48.8970 C   0  0  0  0  0  0  0  0  0  0  0  0
   61.1790   31.8480   47.9320 C   0  0  0  0  0  0  0  0  0  0  0  0
   61.9207   32.6559   47.8475 H   0  0  0  0  0  0  0  0  0  0  0  0
   61.2680   30.7330   47.0800 C   0  0  0  0  0  0  0  0  0  0  0  0
   62.0779   30.6469   46.3407 H   0  0  0  0  0  0  0  0  0  0  0  0
   60.2980   29.7410   47.2020 C   0  0  0  0  0  0  0  0  0  0  0  0
   59.2820   29.8390   48.1140 C   0  0  0  0  0  0  0  0  0  0  0  0
   59.1640   30.9290   48.9720 C   0  0  0  0  0  0  0  0  0  0  0  0
   58.3311   30.9991   49.6871 H   0  0  0  0  0  0  0  0  0  0  0  0
   58.4930   28.7180   47.9770 C   0  0  0  0  0  0  0  0  0  0  0  0
   57.5880   28.4628   48.5479 H   0  0  0  0  0  0  0  0  0  0  0  0
   59.0900   27.9770   46.9580 C   0  0  0  0  0  0  0  0  0  0  0  0
   58.6020   26.6750   46.4680 C   0  0  0  0  0  0  0  0  0  0  0  0
   59.4290   25.8450   46.0000 O   0  0  0  0  0  0  0  0  0  0  0  0
   57.2100   26.3310   46.5580 N   0  0  0  0  0  0  0  0  0  0  0  0
   56.6260   26.8220   47.2700 H   0  0  0  0  0  0  0  0  0  0  0  0
   56.6070   25.2570   45.8110 C   0  0  0  0  0  0  0  0  0  0  0  0
   57.3850   24.1970   45.3100 C   0  0  0  0  0  0  0  0  0  0  0  0
   58.4672   24.1725   45.5057 H   0  0  0  0  0  0  0  0  0  0  0  0
   56.7900   23.1750   44.5650 C   0  0  0  0  0  0  0  0  0  0  0  0
   57.4031   22.3444   44.1852 H   0  0  0  0  0  0  0  0  0  0  0  0
   55.4200   23.2060   44.3020 C   0  0  0  0  0  0  0  0  0  0  0  0
   54.9536   22.3983   43.7188 H   0  0  0  0  0  0  0  0  0  0  0  0
   54.6410   24.2620   44.7790 C   0  0  0  0  0  0  0  0  0  0  0  0
   53.5621   24.2869   44.5661 H   0  0  0  0  0  0  0  0  0  0  0  0
   55.2280   25.2890   45.5270 C   0  0  0  0  0  0  0  0  0  0  0  0
   54.4350   26.3310   45.9930 O   0  0  0  0  0  0  0  0  0  0  0  0
   60.1960   28.6070   46.4890 N   0  0  0  0  0  0  0  0  0  0  0  0
   60.8500   28.2850   45.7420 H   0  0  0  0  0  0  0  0  0  0  0  0
   59.8490   34.2310   51.7180 N   0  0  0  0  0  0  0  0  0  0  0  0
   59.2500   34.3760   52.9270 C   0  0  0  0  0  0  0  0  0  0  0  0
   59.5658   35.1844   53.6028 H   0  0  0  0  0  0  0  0  0  0  0  0
   58.2350   33.5020   53.3140 C   0  0  0  0  0  0  0  0  0  0  0  0
   57.7456   33.6085   54.2934 H   0  0  0  0  0  0  0  0  0  0  0  0
   56.6990   30.8600   54.0020 C   0  0  0  0  0  0  0  0  0  0  0  0
   57.4381   31.0759   54.7876 H   0  0  0  0  0  0  0  0  0  0  0  0
   55.6650   29.9520   54.2400 C   0  0  0  0  0  0  0  0  0  0  0  0
   55.5920   29.4443   55.2131 H   0  0  0  0  0  0  0  0  0  0  0  0
   54.7250   29.6890   53.2440 C   0  0  0  0  0  0  0  0  0  0  0  0
   53.9097   28.9727   53.4233 H   0  0  0  0  0  0  0  0  0  0  0  0
  1  2  1  0
  2  3  2  0
  3  4  1  0
  4  5  1  0
  5  6  2  0
  6  7  1  0
  7  8  2  0
  8  9  1  0
  9 10  2  0
 10 11  1  0
 10 12  1  0
 12 13  1  0
 12 14  2  0
 14 15  1  0
 15 16  2  0
 16 17  1  0
 15 18  1  0
 18 19  1  0
 18 20  2  0
 20 21  1  0
 21 22  2  0
 21 23  1  0
 23 24  1  0
 23 25  1  0
 25 26  2  0
 26 27  1  0
 26 28  1  0
 28 29  1  0
 28 30  2  0
 30 31  1  0
 30 32  1  0
 32 33  1  0
 32 34  2  0
 34 35  1  0
 20 36  1  0
 36 37  1  0
  7 38  1  0
 38 39  1  0
 39 40  1  0
 39 41  2  0
 41 42  1  0
  4 43  2  0
 43 44  1  0
 43 45  1  0
 45 46  1  0
 45 47  2  0
 47 48  1  0
 47  2  1  0
 41  5  1  0
 16  9  1  0
 34 25  1  0
 36 14  1  0
M  CHG  2  35  -1  38  -1
M  END
>  <UniqueID>  (41) 
39

>  <SMILES>  (41) 
O=C(Nc1ccccc1[O-])c1cc2cc(/N=c3\nc(-c4ccccn4)cc[n-]3)ccc2[nH]1

>  <Energy>  (41) 
102.10561521098624

>  <Genealogy>  (41) 
O=C(Nc1ccccc1[O-])c1cc2cc(N=c3nc(-c4ccccn4)cc[n-]3)ccc2[nH]1 (protonated)
O=C(Nc1ccccc1[O-])c1cc2cc(/N=c3\nc(-c4ccccn4)cc[n-]3)ccc2[nH]1 (cis-trans isomerization)
O=C(Nc1ccccc1[O-])c1cc2cc(/N=c3\nc(-c4ccccn4)cc[n-]3)ccc2[nH]1 (3D coordinates assigned)
O=C(Nc1ccccc1[O-])c1cc2cc(/N=c3\nc(-c4ccccn4)cc[n-]3)ccc2[nH]1 (optimized conformer: 102.10561521098624 kcal/mol)

>  <smiles>  (41) 
O=C(Nc1ccccc1O)c1cc2cc(N=c3nc(-c4ccccn4)cc[nH]3)ccc2[nH]1

>  <score_type>  (41) 
oracle

>  <origin>  (41) 
adg

>  <m_score__min__energy>  (41) 
-13.19

>  <m_primary>  (41) 
energy

$$$$
41:0
     RDKit          3D

 45 47  0  0  0  0  0  0  0  0999 V2000
   50.2400   32.7260   51.9950 O   0  0  0  0  0  0  0  0  0  0  0  0
   51.3000   32.3050   51.4600 C   0  0  0  0  0  0  0  0  0  0  0  0
   51.5630   32.6350   50.1350 O   0  0  0  0  0  0  0  0  0  0  0  0
   52.2510   31.4730   52.2280 C   0  0  0  0  0  0  0  0  0  0  0  0
   53.3840   30.9200   51.6140 C   0  0  0  0  0  0  0  0  0  0  0  0
   54.2710   30.1400   52.3540 C   0  0  0  0  0  0  0  0  0  0  0  0
   54.0250   29.9060   53.7160 C   0  0  0  0  0  0  0  0  0  0  0  0
   54.9580   29.1500   54.5140 N   0  0  0  0  0  0  0  0  0  0  0  0
   56.0680   29.8500   55.1780 C   0  0  0  0  0  0  0  0  0  0  0  0
   57.2960   28.9370   55.3250 C   0  0  0  0  0  0  0  0  0  0  0  0
   57.3660   27.9880   54.2050 N   0  0  0  0  0  0  0  0  0  0  0  0
   58.5840   27.8280   53.4600 C   0  0  0  0  0  0  0  0  0  0  0  0
   59.0300   26.6740   53.2310 O   0  0  0  0  0  0  0  0  0  0  0  0
   59.3100   28.9670   52.9870 N   0  0  0  0  0  0  0  0  0  0  0  0
   59.3930   29.3630   51.6100 C   0  0  0  0  0  0  0  0  0  0  0  0
   60.4510   28.9230   50.7950 C   0  0  0  0  0  0  0  0  0  0  0  0
   60.5180   29.3080   49.4550 C   0  0  0  0  0  0  0  0  0  0  0  0
   59.5420   30.1510   48.9230 C   0  0  0  0  0  0  0  0  0  0  0  0
   58.5010   30.6180   49.7300 C   0  0  0  0  0  0  0  0  0  0  0  0
   58.4210   30.2320   51.0850 C   0  0  0  0  0  0  0  0  0  0  0  0
   57.3940   30.6770   51.9340 O   0  0  0  0  0  0  0  0  0  0  0  0
   57.2790   31.9920   52.4720 C   0  0  0  0  0  0  0  0  0  0  0  0
   58.1250   32.8580   51.8020 F   0  0  0  0  0  0  0  0  0  0  0  0
   55.9740   32.4370   52.3720 F   0  0  0  0  0  0  0  0  0  0  0  0
   57.6380   31.9630   53.8060 F   0  0  0  0  0  0  0  0  0  0  0  0
   56.2090   27.1410   53.8850 C   0  0  0  0  0  0  0  0  0  0  0  0
   54.9360   27.6810   54.5440 C   0  0  0  0  0  0  0  0  0  0  0  0
   52.9200   30.4590   54.2970 N   0  0  0  0  0  0  0  0  0  0  0  0
   52.0420   31.2230   53.5920 C   0  0  0  0  0  0  0  0  0  0  0  0
   53.5732   31.1022   50.5458 H   0  0  0  0  0  0  0  0  0  0  0  0
   55.1610   29.7091   51.8722 H   0  0  0  0  0  0  0  0  0  0  0  0
   56.3456   30.7303   54.5796 H   0  0  0  0  0  0  0  0  0  0  0  0
   55.7370   30.1511   56.1829 H   0  0  0  0  0  0  0  0  0  0  0  0
   58.2069   29.5536   55.3351 H   0  0  0  0  0  0  0  0  0  0  0  0
   57.2108   28.3731   56.2656 H   0  0  0  0  0  0  0  0  0  0  0  0
   61.2307   28.2713   51.2161 H   0  0  0  0  0  0  0  0  0  0  0  0
   61.3397   28.9470   48.8190 H   0  0  0  0  0  0  0  0  0  0  0  0
   59.5920   30.4490   47.8653 H   0  0  0  0  0  0  0  0  0  0  0  0
   57.7399   31.2900   49.3067 H   0  0  0  0  0  0  0  0  0  0  0  0
   56.0687   27.1204   52.7942 H   0  0  0  0  0  0  0  0  0  0  0  0
   56.3995   26.1274   54.2676 H   0  0  0  0  0  0  0  0  0  0  0  0
   54.0552   27.3156   53.9956 H   0  0  0  0  0  0  0  0  0  0  0  0
   54.8862   27.3349   55.5869 H   0  0  0  0  0  0  0  0  0  0  0  0
   52.7270   30.2910   55.3100 H   0  0  0  0  0  0  0  0  0  0  0  0
   51.1614   31.6479   54.0960 H   0  0  0  0  0  0  0  0  0  0  0  0
  1  2  2  0
  2  3  1  0
  2  4  1  0
  4  5  2  0
  5  6  1  0
  6  7  2  0
  7  8  1  0
  8  9  1  0
  9 10  1  0
 10 11  1  0
 11 12  1  0
 12 13  2  0
 12 14  1  0
 14 15  1  0
 15 16  2  0
 16 17  1  0
 17 18  2  0
 18 19  1  0
 19 20  2  0
 20 21  1  0
 21 22  1  0
 22 23  1  0
 22 24  1  0
 22 25  1  0
 11 26  1  0
 26 27  1  0
  7 28  1  0
 28 29  2  0
 29  4  1  0
 27  8  1  0
 20 15  1  0
  5 30  1  0
  6 31  1  0
  9 32  1  0
  9 33  1  0
 10 34  1  0
 10 35  1  0
 16 36  1  0
 17 37  1  0
 18 38  1  0
 19 39  1  0
 26 40  1  0
 26 41  1  0
 27 42  1  0
 27 43  1  0
 28 44  1  0
 29 45  1  0
M  CHG  3   3  -1  14  -1  28   1
M  END
>  <UniqueID>  (42) 
40

>  <SMILES>  (42) 
O=C([O-])c1ccc(N2CCN(C(=O)[N-]c3ccccc3OC(F)(F)F)CC2)[nH+]c1

>  <Energy>  (42) 
56.52673787286704

>  <Genealogy>  (42) 
O=C([O-])c1ccc(N2CCN(C(=O)[N-]c3ccccc3OC(F)(F)F)CC2)[nH+]c1 (protonated)
O=C([O-])c1ccc(N2CCN(C(=O)[N-]c3ccccc3OC(F)(F)F)CC2)[nH+]c1 (3D coordinates assigned)
O=C([O-])c1ccc(N2CCN(C(=O)[N-]c3ccccc3OC(F)(F)F)CC2)[nH+]c1 (nonaromatic ring conformer: 56.52673787286704 kcal/mol)

>  <smiles>  (42) 
O=C(O)c1ccc(N2CCN(C(=O)Nc3ccccc3OC(F)(F)F)CC2)nc1

>  <score_type>  (42) 
oracle

>  <origin>  (42) 
adg

>  <m_score__min__energy>  (42) 
-8.2899999999999991

>  <m_primary>  (42) 
energy

$$$$
42:0
     RDKit          3D

 51 53  0  0  0  0  0  0  0  0999 V2000
   69.1880   26.7400   49.7480 C   0  0  0  0  0  0  0  0  0  0  0  0
   68.5500   28.0140   49.7120 O   0  0  0  0  0  0  0  0  0  0  0  0
   67.4870   28.3910   50.5440 C   0  0  0  0  0  0  0  0  0  0  0  0
   66.6730   27.3850   51.0760 C   0  0  0  0  0  0  0  0  0  0  0  0
   65.5990   27.7100   51.9080 C   0  0  0  0  0  0  0  0  0  0  0  0
   65.3280   29.0450   52.2160 C   0  0  0  0  0  0  0  0  0  0  0  0
   66.1320   30.0680   51.6910 C   0  0  0  0  0  0  0  0  0  0  0  0
   65.8370   31.5120   52.0090 C   0  0  0  0  0  0  0  0  0  0  0  0
   65.8070   32.3200   50.7780 N   0  0  0  0  0  0  0  0  0  0  0  0
   67.0450   32.9530   50.3070 C   0  0  0  0  0  0  0  0  0  0  0  0
   64.5690   32.4600   50.0380 C   0  0  0  0  0  0  0  0  0  0  0  0
   63.4220   33.0440   50.6140 C   0  0  0  0  0  0  0  0  0  0  0  0
   62.2520   33.1580   49.8600 C   0  0  0  0  0  0  0  0  0  0  0  0
   62.2160   32.6920   48.5380 C   0  0  0  0  0  0  0  0  0  0  0  0
   61.0360   32.8180   47.7290 N   0  0  0  0  0  0  0  0  0  0  0  0
   60.2220   34.0000   47.6940 C   0  0  0  0  0  0  0  0  0  0  0  0
   60.4110   34.9320   48.5240 O   0  0  0  0  0  0  0  0  0  0  0  0
   59.1930   34.1090   46.7030 N   0  0  0  0  0  0  0  0  0  0  0  0
   58.4800   33.0140   46.1100 C   0  0  0  0  0  0  0  0  0  0  0  0
   57.7290   33.2450   44.9520 C   0  0  0  0  0  0  0  0  0  0  0  0
   57.0360   32.1990   44.3340 C   0  0  0  0  0  0  0  0  0  0  0  0
   57.1010   30.8930   44.8570 C   0  0  0  0  0  0  0  0  0  0  0  0
   56.3730   29.7790   44.2030 C   0  0  0  0  0  0  0  0  0  0  0  0
   55.1560   29.2830   44.7610 N   0  0  0  0  0  0  0  0  0  0  0  0
   56.8180   29.2630   43.1420 O   0  0  0  0  0  0  0  0  0  0  0  0
   57.8770   30.6610   46.0060 C   0  0  0  0  0  0  0  0  0  0  0  0
   58.5640   31.7090   46.6240 C   0  0  0  0  0  0  0  0  0  0  0  0
   63.3780   32.1370   47.9920 C   0  0  0  0  0  0  0  0  0  0  0  0
   64.5030   32.0260   48.7460 N   0  0  0  0  0  0  0  0  0  0  0  0
   67.2130   29.7380   50.8580 C   0  0  0  0  0  0  0  0  0  0  0  0
   69.3404   26.4357   50.7940 H   0  0  0  0  0  0  0  0  0  0  0  0
   68.5549   25.9984   49.2389 H   0  0  0  0  0  0  0  0  0  0  0  0
   70.1611   26.8027   49.2389 H   0  0  0  0  0  0  0  0  0  0  0  0
   66.8801   26.3313   50.8375 H   0  0  0  0  0  0  0  0  0  0  0  0
   64.9649   26.9121   52.3218 H   0  0  0  0  0  0  0  0  0  0  0  0
   64.4815   29.2953   52.8723 H   0  0  0  0  0  0  0  0  0  0  0  0
   64.8596   31.5793   52.5091 H   0  0  0  0  0  0  0  0  0  0  0  0
   66.6294   31.8985   52.6668 H   0  0  0  0  0  0  0  0  0  0  0  0
   67.6505   33.2626   51.1716 H   0  0  0  0  0  0  0  0  0  0  0  0
   67.6150   32.2357   49.6982 H   0  0  0  0  0  0  0  0  0  0  0  0
   66.7972   33.8350   49.6982 H   0  0  0  0  0  0  0  0  0  0  0  0
   63.4487   33.4079   51.6517 H   0  0  0  0  0  0  0  0  0  0  0  0
   61.3556   33.6149   50.3047 H   0  0  0  0  0  0  0  0  0  0  0  0
   60.6870   31.9740   47.2230 H   0  0  0  0  0  0  0  0  0  0  0  0
   57.6833   34.2574   44.5243 H   0  0  0  0  0  0  0  0  0  0  0  0
   56.4363   32.3977   43.4335 H   0  0  0  0  0  0  0  0  0  0  0  0
   55.1630   28.6970   45.6250 H   0  0  0  0  0  0  0  0  0  0  0  0
   57.9440   29.6450   46.4224 H   0  0  0  0  0  0  0  0  0  0  0  0
   59.1739   31.5114   47.5178 H   0  0  0  0  0  0  0  0  0  0  0  0
   63.3812   31.7891   46.9485 H   0  0  0  0  0  0  0  0  0  0  0  0
   67.8502   30.5353   50.4478 H   0  0  0  0  0  0  0  0  0  0  0  0
  1  2  1  0
  2  3  1  0
  3  4  2  0
  4  5  1  0
  5  6  2  0
  6  7  1  0
  7  8  1  0
  8  9  1  0
  9 10  1  0
  9 11  1  0
 11 12  2  0
 12 13  1  0
 13 14  2  0
 14 15  1  0
 15 16  1  0
 16 17  2  0
 16 18  1  0
 18 19  1  0
 19 20  2  0
 20 21  1  0
 21 22  2  0
 22 23  1  0
 23 24  1  0
 23 25  2  0
 22 26  1  0
 26 27  2  0
 14 28  1  0
 28 29  2  0
  7 30  2  0
 30  3  1  0
 29 11  1  0
 27 19  1  0
  1 31  1  0
  1 32  1  0
  1 33  1  0
  4 34  1  0
  5 35  1  0
  6 36  1  0
  8 37  1  0
  8 38  1  0
 10 39  1  0
 10 40  1  0
 10 41  1  0
 12 42  1  0
 13 43  1  0
 15 44  1  0
 20 45  1  0
 21 46  1  0
 24 47  1  0
 26 48  1  0
 27 49  1  0
 28 50  1  0
 30 51  1  0
M  CHG  2  18  -1  24  -1
M  END
>  <UniqueID>  (43) 
41

>  <SMILES>  (43) 
COc1cccc(CN(C)c2ccc(NC(=O)[N-]c3ccc(C([NH-])=O)cc3)cn2)c1

>  <Energy>  (43) 
59.52293045415929

>  <Genealogy>  (43) 
COc1cccc(CN(C)c2ccc(NC(=O)[N-]c3ccc(C([NH-])=O)cc3)cn2)c1 (protonated)
COc1cccc(CN(C)c2ccc(NC(=O)[N-]c3ccc(C([NH-])=O)cc3)cn2)c1 (3D coordinates assigned)
COc1cccc(CN(C)c2ccc(NC(=O)[N-]c3ccc(C([NH-])=O)cc3)cn2)c1 (optimized conformer: 59.52293045415929 kcal/mol)

>  <smiles>  (43) 
COc1cccc(CN(C)c2ccc(NC(=O)Nc3ccc(C(N)=O)cc3)cn2)c1

>  <score_type>  (43) 
oracle

>  <origin>  (43) 
adg

>  <m_score__min__energy>  (43) 
-12.26

>  <m_primary>  (43) 
energy

$$$$
43:0
     RDKit          3D

 40 41  0  0  0  0  0  0  0  0999 V2000
   55.1160   29.3300   44.8200 N   0  0  0  0  0  0  0  0  0  0  0  0
   56.6360   29.5330   44.0210 S   0  0  0  0  0  0  0  0  0  0  0  0
   56.4120   29.6580   42.5380 O   0  0  0  0  0  0  0  0  0  0  0  0
   57.5090   28.3350   44.2790 O   0  0  0  0  0  0  0  0  0  0  0  0
   57.4270   30.9790   44.6460 C   0  0  0  0  0  0  0  0  0  0  0  0
   57.4420   32.1660   43.9010 C   0  0  0  0  0  0  0  0  0  0  0  0
   58.0580   33.3120   44.4160 C   0  0  0  0  0  0  0  0  0  0  0  0
   58.6440   33.2930   45.6900 C   0  0  0  0  0  0  0  0  0  0  0  0
   59.2920   34.4790   46.1740 N   0  0  0  0  0  0  0  0  0  0  0  0
   60.2090   34.5680   47.2730 C   0  0  0  0  0  0  0  0  0  0  0  0
   59.7770   34.9500   48.3940 O   0  0  0  0  0  0  0  0  0  0  0  0
   61.6540   34.1690   47.1400 C   0  0  0  0  0  0  0  0  0  0  0  0
   62.2280   33.8850   48.4550 N   0  0  0  0  0  0  0  0  0  0  0  0
   63.3510   33.0060   48.6380 C   0  0  0  0  0  0  0  0  0  0  0  0
   64.0760   32.6790   47.6560 O   0  0  0  0  0  0  0  0  0  0  0  0
   63.7110   32.5000   50.0030 C   0  0  0  0  0  0  0  0  0  0  0  0
   62.6860   32.8360   50.9390 O   0  0  0  0  0  0  0  0  0  0  0  0
   61.3200   32.5440   50.7910 C   0  0  0  0  0  0  0  0  0  0  0  0
   60.3040   33.4460   51.1790 C   0  0  0  0  0  0  0  0  0  0  0  0
   58.9540   33.1070   51.0060 C   0  0  0  0  0  0  0  0  0  0  0  0
   58.6120   31.8700   50.4480 C   0  0  0  0  0  0  0  0  0  0  0  0
   59.6100   30.9660   50.0680 C   0  0  0  0  0  0  0  0  0  0  0  0
   60.9610   31.3020   50.2360 C   0  0  0  0  0  0  0  0  0  0  0  0
   61.9170   30.4180   49.8540 F   0  0  0  0  0  0  0  0  0  0  0  0
   58.6540   32.0940   46.4220 C   0  0  0  0  0  0  0  0  0  0  0  0
   58.0350   30.9500   45.9090 C   0  0  0  0  0  0  0  0  0  0  0  0
   55.2810   28.6880   45.6280 H   0  0  0  0  0  0  0  0  0  0  0  0
   56.9682   32.1968   42.9087 H   0  0  0  0  0  0  0  0  0  0  0  0
   58.0828   34.2344   43.8173 H   0  0  0  0  0  0  0  0  0  0  0  0
   61.7251   33.2690   46.5115 H   0  0  0  0  0  0  0  0  0  0  0  0
   62.2117   34.9973   46.6787 H   0  0  0  0  0  0  0  0  0  0  0  0
   61.7270   34.2520   49.2990 H   0  0  0  0  0  0  0  0  0  0  0  0
   63.8259   31.4066   49.9667 H   0  0  0  0  0  0  0  0  0  0  0  0
   64.6551   32.9661   50.3214 H   0  0  0  0  0  0  0  0  0  0  0  0
   60.5728   34.4179   51.6185 H   0  0  0  0  0  0  0  0  0  0  0  0
   58.1656   33.8120   51.3083 H   0  0  0  0  0  0  0  0  0  0  0  0
   57.5532   31.6071   50.3074 H   0  0  0  0  0  0  0  0  0  0  0  0
   59.3349   29.9918   49.6375 H   0  0  0  0  0  0  0  0  0  0  0  0
   59.1508   32.0550   47.4027 H   0  0  0  0  0  0  0  0  0  0  0  0
   58.0250   30.0221   46.4996 H   0  0  0  0  0  0  0  0  0  0  0  0
  1  2  1  0
  2  3  2  0
  2  4  2  0
  2  5  1  0
  5  6  2  0
  6  7  1  0
  7  8  2  0
  8  9  1  0
  9 10  1  0
 10 11  2  0
 10 12  1  0
 12 13  1  0
 13 14  1  0
 14 15  2  0
 14 16  1  0
 16 17  1  0
 17 18  1  0
 18 19  2  0
 19 20  1  0
 20 21  2  0
 21 22  1  0
 22 23  2  0
 23 24  1  0
  8 25  1  0
 25 26  2  0
 26  5  1  0
 23 18  1  0
  1 27  1  0
  6 28  1  0
  7 29  1  0
 12 30  1  0
 12 31  1  0
 13 32  1  0
 16 33  1  0
 16 34  1  0
 19 35  1  0
 20 36  1  0
 21 37  1  0
 22 38  1  0
 25 39  1  0
 26 40  1  0
M  CHG  2   1  -1   9  -1
M  END
>  <UniqueID>  (44) 
42

>  <SMILES>  (44) 
[NH-]S(=O)(=O)c1ccc([N-]C(=O)CNC(=O)COc2ccccc2F)cc1

>  <Energy>  (44) 
43.182636261706385

>  <Genealogy>  (44) 
[NH-]S(=O)(=O)c1ccc([N-]C(=O)CNC(=O)COc2ccccc2F)cc1 (protonated)
[NH-]S(=O)(=O)c1ccc([N-]C(=O)CNC(=O)COc2ccccc2F)cc1 (3D coordinates assigned)
[NH-]S(=O)(=O)c1ccc([N-]C(=O)CNC(=O)COc2ccccc2F)cc1 (optimized conformer: 43.182636261706385 kcal/mol)

>  <smiles>  (44) 
NS(=O)(=O)c1ccc(NC(=O)CNC(=O)COc2ccccc2F)cc1

>  <score_type>  (44) 
oracle

>  <origin>  (44) 
adg

>  <m_score__min__energy>  (44) 
-10.73

>  <m_primary>  (44) 
energy

$$$$
44:0
     RDKit          3D

 51 54  0  0  0  0  0  0  0  0999 V2000
   55.1470   29.3450   44.6670 N   0  0  0  0  0  0  0  0  0  0  0  0
   56.8580   29.2530   44.8920 S   0  0  0  0  0  0  0  0  0  0  0  0
   57.5380   29.1540   43.5560 O   0  0  0  0  0  0  0  0  0  0  0  0
   57.3410   30.4950   45.5900 O   0  0  0  0  0  0  0  0  0  0  0  0
   57.2430   27.8370   45.8650 C   0  0  0  0  0  0  0  0  0  0  0  0
   56.3730   26.7390   45.8840 C   0  0  0  0  0  0  0  0  0  0  0  0
   56.6660   25.6260   46.6780 C   0  0  0  0  0  0  0  0  0  0  0  0
   57.8320   25.6020   47.4490 C   0  0  0  0  0  0  0  0  0  0  0  0
   58.7200   26.6830   47.4210 C   0  0  0  0  0  0  0  0  0  0  0  0
   59.8910   26.6410   48.2460 N   0  0  0  0  0  0  0  0  0  0  0  0
   60.5590   27.7650   48.8350 C   0  0  0  0  0  0  0  0  0  0  0  0
   60.7330   27.7810   50.0830 O   0  0  0  0  0  0  0  0  0  0  0  0
   61.1010   28.8950   48.0010 C   0  0  0  0  0  0  0  0  0  0  0  0
   60.8010   30.1800   48.6280 N   0  0  0  0  0  0  0  0  0  0  0  0
   61.7260   31.2130   48.9140 C   0  0  0  0  0  0  0  0  0  0  0  0
   62.9740   31.0450   48.9510 O   0  0  0  0  0  0  0  0  0  0  0  0
   61.1040   32.4720   49.1280 N   0  0  0  0  0  0  0  0  0  0  0  0
   59.6570   32.3140   48.9500 C   0  0  0  0  0  0  0  0  0  0  0  0
   59.1430   33.1250   47.7600 C   0  0  0  0  0  0  0  0  0  0  0  0
   59.9870   33.9970   47.0380 C   0  0  0  0  0  0  0  0  0  0  0  0
   59.5080   34.6910   45.9240 C   0  0  0  0  0  0  0  0  0  0  0  0
   58.1900   34.5140   45.5000 C   0  0  0  0  0  0  0  0  0  0  0  0
   57.3490   33.6350   46.1840 C   0  0  0  0  0  0  0  0  0  0  0  0
   57.8230   32.9360   47.2980 C   0  0  0  0  0  0  0  0  0  0  0  0
   58.9690   32.7100   50.2590 C   0  0  0  0  0  0  0  0  0  0  0  0
   57.8970   31.9710   50.8090 C   0  0  0  0  0  0  0  0  0  0  0  0
   57.3220   32.3500   52.0250 C   0  0  0  0  0  0  0  0  0  0  0  0
   57.8120   33.4580   52.7190 C   0  0  0  0  0  0  0  0  0  0  0  0
   58.8870   34.1830   52.2040 C   0  0  0  0  0  0  0  0  0  0  0  0
   59.4680   33.8080   50.9900 C   0  0  0  0  0  0  0  0  0  0  0  0
   59.5420   30.8430   48.6130 C   0  0  0  0  0  0  0  0  0  0  0  0
   58.4640   30.2630   48.3060 O   0  0  0  0  0  0  0  0  0  0  0  0
   58.4060   27.8150   46.6460 C   0  0  0  0  0  0  0  0  0  0  0  0
   54.7170   29.3800   45.6190 H   0  0  0  0  0  0  0  0  0  0  0  0
   55.4581   26.7525   45.2734 H   0  0  0  0  0  0  0  0  0  0  0  0
   55.9780   24.7679   46.6961 H   0  0  0  0  0  0  0  0  0  0  0  0
   58.0524   24.7289   48.0808 H   0  0  0  0  0  0  0  0  0  0  0  0
   62.1912   28.7842   47.9051 H   0  0  0  0  0  0  0  0  0  0  0  0
   60.6292   28.8637   47.0078 H   0  0  0  0  0  0  0  0  0  0  0  0
   61.6020   33.3620   49.3530 H   0  0  0  0  0  0  0  0  0  0  0  0
   61.0316   34.1312   47.3557 H   0  0  0  0  0  0  0  0  0  0  0  0
   60.1715   35.3789   45.3795 H   0  0  0  0  0  0  0  0  0  0  0  0
   57.8142   35.0673   44.6267 H   0  0  0  0  0  0  0  0  0  0  0  0
   56.3120   33.4920   45.8462 H   0  0  0  0  0  0  0  0  0  0  0  0
   57.1597   32.2308   47.8203 H   0  0  0  0  0  0  0  0  0  0  0  0
   57.5119   31.0897   50.2751 H   0  0  0  0  0  0  0  0  0  0  0  0
   56.4805   31.7735   52.4368 H   0  0  0  0  0  0  0  0  0  0  0  0
   57.3508   33.7591   53.6712 H   0  0  0  0  0  0  0  0  0  0  0  0
   59.2778   35.0513   52.7547 H   0  0  0  0  0  0  0  0  0  0  0  0
   60.3252   34.3761   50.5995 H   0  0  0  0  0  0  0  0  0  0  0  0
   59.0769   28.6867   46.6535 H   0  0  0  0  0  0  0  0  0  0  0  0
  1  2  1  0
  2  3  2  0
  2  4  2  0
  2  5  1  0
  5  6  2  0
  6  7  1  0
  7  8  2  0
  8  9  1  0
  9 10  1  0
 10 11  1  0
 11 12  2  0
 11 13  1  0
 13 14  1  0
 14 15  1  0
 15 16  2  0
 15 17  1  0
 17 18  1  0
 18 19  1  0
 19 20  2  0
 20 21  1  0
 21 22  2  0
 22 23  1  0
 23 24  2  0
 18 25  1  0
 25 26  2  0
 26 27  1  0
 27 28  2  0
 28 29  1  0
 29 30  2  0
 18 31  1  0
 31 32  2  0
  9 33  2  0
 33  5  1  0
 31 14  1  0
 24 19  1  0
 30 25  1  0
  1 34  1  0
  6 35  1  0
  7 36  1  0
  8 37  1  0
 13 38  1  0
 13 39  1  0
 17 40  1  0
 20 41  1  0
 21 42  1  0
 22 43  1  0
 23 44  1  0
 24 45  1  0
 26 46  1  0
 27 47  1  0
 28 48  1  0
 29 49  1  0
 30 50  1  0
 33 51  1  0
M  CHG  2   1  -1  10  -1
M  END
>  <UniqueID>  (45) 
43

>  <SMILES>  (45) 
[NH-]S(=O)(=O)c1cccc([N-]C(=O)CN2C(=O)NC(c3ccccc3)(c3ccccc3)C2=O)c1

>  <Energy>  (45) 
83.20598600362128

>  <Genealogy>  (45) 
[NH-]S(=O)(=O)c1cccc([N-]C(=O)CN2C(=O)NC(c3ccccc3)(c3ccccc3)C2=O)c1 (protonated)
[NH-]S(=O)(=O)c1cccc([N-]C(=O)CN2C(=O)NC(c3ccccc3)(c3ccccc3)C2=O)c1 (3D coordinates assigned)
[NH-]S(=O)(=O)c1cccc([N-]C(=O)CN2C(=O)NC(c3ccccc3)(c3ccccc3)C2=O)c1 (nonaromatic ring conformer: 83.20598600362128 kcal/mol)

>  <smiles>  (45) 
NS(=O)(=O)c1cccc(NC(=O)CN2C(=O)NC(c3ccccc3)(c3ccccc3)C2=O)c1

>  <score_type>  (45) 
oracle

>  <origin>  (45) 
adg

>  <m_score__min__energy>  (45) 
-14.470000000000001

>  <m_primary>  (45) 
energy

$$$$
45:0
     RDKit          3D

 55 57  0  0  0  0  0  0  0  0999 V2000
   60.8230   28.9300   44.9770 C   0  0  0  0  0  0  0  0  0  0  0  0
   60.5890   29.9030   46.1270 C   0  0  0  0  0  0  0  0  0  0  0  0
   59.4940   30.7730   45.8400 O   0  0  0  0  0  0  0  0  0  0  0  0
   58.2180   30.3760   45.4010 C   0  0  0  0  0  0  0  0  0  0  0  0
   57.6630   29.1260   45.7420 C   0  0  0  0  0  0  0  0  0  0  0  0
   56.4180   28.7300   45.2390 C   0  0  0  0  0  0  0  0  0  0  0  0
   55.9090   27.4400   45.6070 N   0  0  0  0  0  0  0  0  0  0  0  0
   56.8430   26.1290   46.2550 S   0  0  0  0  0  0  0  0  0  0  0  0
   57.8590   25.4080   44.9830 C   0  0  0  0  0  0  0  0  0  0  0  0
   55.9020   25.0780   46.7740 O   0  0  0  0  0  0  0  0  0  0  0  0
   57.6940   26.6170   47.3930 O   0  0  0  0  0  0  0  0  0  0  0  0
   55.7180   29.5940   44.3800 C   0  0  0  0  0  0  0  0  0  0  0  0
   56.2540   30.8370   44.0450 C   0  0  0  0  0  0  0  0  0  0  0  0
   57.4820   31.2500   44.5710 C   0  0  0  0  0  0  0  0  0  0  0  0
   57.9870   32.5380   44.1970 N   0  0  0  0  0  0  0  0  0  0  0  0
   57.8360   33.7350   44.9680 C   0  0  0  0  0  0  0  0  0  0  0  0
   56.7120   34.0380   45.4530 O   0  0  0  0  0  0  0  0  0  0  0  0
   59.0180   34.6500   45.1240 C   0  0  0  0  0  0  0  0  0  0  0  0
   59.8230   34.3340   46.3480 C   0  0  0  0  0  0  0  0  0  0  0  0
   59.4160   34.5350   47.6630 C   0  0  0  0  0  0  0  0  0  0  0  0
   60.4120   34.2390   48.5990 C   0  0  0  0  0  0  0  0  0  0  0  0
   61.6020   33.8260   48.0140 C   0  0  0  0  0  0  0  0  0  0  0  0
   63.0780   33.4100   48.8700 S   0  0  0  0  0  0  0  0  0  0  0  0
   64.2570   33.7720   48.0080 O   0  0  0  0  0  0  0  0  0  0  0  0
   63.1500   34.2360   50.1240 O   0  0  0  0  0  0  0  0  0  0  0  0
   63.1550   31.7140   49.2990 N   0  0  0  0  0  0  0  0  0  0  0  0
   63.4370   31.5030   50.7350 C   0  0  0  0  0  0  0  0  0  0  0  0
   62.1810   31.1280   51.5400 C   0  0  0  0  0  0  0  0  0  0  0  0
   61.0370   31.7250   50.9750 O   0  0  0  0  0  0  0  0  0  0  0  0
   60.7450   31.1240   49.7270 C   0  0  0  0  0  0  0  0  0  0  0  0
   61.9860   30.9550   48.8180 C   0  0  0  0  0  0  0  0  0  0  0  0
   61.4240   33.8160   46.3410 S   0  0  0  0  0  0  0  0  0  0  0  0
   61.0622   27.9353   45.3812 H   0  0  0  0  0  0  0  0  0  0  0  0
   59.9146   28.8663   44.3600 H   0  0  0  0  0  0  0  0  0  0  0  0
   61.6611   29.2863   44.3600 H   0  0  0  0  0  0  0  0  0  0  0  0
   60.3671   29.3336   47.0417 H   0  0  0  0  0  0  0  0  0  0  0  0
   61.4955   30.5107   46.2647 H   0  0  0  0  0  0  0  0  0  0  0  0
   58.2160   28.4521   46.4129 H   0  0  0  0  0  0  0  0  0  0  0  0
   58.6725   24.8307   45.4467 H   0  0  0  0  0  0  0  0  0  0  0  0
   57.2463   24.7415   44.3582 H   0  0  0  0  0  0  0  0  0  0  0  0
   58.2859   26.2064   44.3582 H   0  0  0  0  0  0  0  0  0  0  0  0
   54.7438   29.2888   43.9704 H   0  0  0  0  0  0  0  0  0  0  0  0
   55.7050   31.4996   43.3597 H   0  0  0  0  0  0  0  0  0  0  0  0
   59.6639   34.5478   44.2395 H   0  0  0  0  0  0  0  0  0  0  0  0
   58.6378   35.6771   45.2266 H   0  0  0  0  0  0  0  0  0  0  0  0
   58.4123   34.8908   47.9387 H   0  0  0  0  0  0  0  0  0  0  0  0
   60.2678   34.3244   49.6862 H   0  0  0  0  0  0  0  0  0  0  0  0
   64.1728   30.6912   50.8332 H   0  0  0  0  0  0  0  0  0  0  0  0
   63.8194   32.4514   51.1404 H   0  0  0  0  0  0  0  0  0  0  0  0
   62.0597   30.0347   51.5333 H   0  0  0  0  0  0  0  0  0  0  0  0
   62.2985   31.4899   52.5721 H   0  0  0  0  0  0  0  0  0  0  0  0
   60.3110   30.1303   49.9121 H   0  0  0  0  0  0  0  0  0  0  0  0
   60.0474   31.7925   49.2012 H   0  0  0  0  0  0  0  0  0  0  0  0
   62.2511   29.8881   48.7802 H   0  0  0  0  0  0  0  0  0  0  0  0
   61.7237   31.3461   47.8239 H   0  0  0  0  0  0  0  0  0  0  0  0
  1  2  1  0
  2  3  1  0
  3  4  1  0
  4  5  2  0
  5  6  1  0
  6  7  1  0
  7  8  1  0
  8  9  1  0
  8 10  2  0
  8 11  2  0
  6 12  2  0
 12 13  1  0
 13 14  2  0
 14 15  1  0
 15 16  1  0
 16 17  2  0
 16 18  1  0
 18 19  1  0
 19 20  2  0
 20 21  1  0
 21 22  2  0
 22 23  1  0
 23 24  2  0
 23 25  2  0
 23 26  1  0
 26 27  1  0
 27 28  1  0
 28 29  1  0
 29 30  1  0
 30 31  1  0
 22 32  1  0
 14  4  1  0
 32 19  1  0
 31 26  1  0
  1 33  1  0
  1 34  1  0
  1 35  1  0
  2 36  1  0
  2 37  1  0
  5 38  1  0
  9 39  1  0
  9 40  1  0
  9 41  1  0
 12 42  1  0
 13 43  1  0
 18 44  1  0
 18 45  1  0
 20 46  1  0
 21 47  1  0
 27 48  1  0
 27 49  1  0
 28 50  1  0
 28 51  1  0
 30 52  1  0
 30 53  1  0
 31 54  1  0
 31 55  1  0
M  CHG  2   7  -1  15  -1
M  END
>  <UniqueID>  (46) 
44

>  <SMILES>  (46) 
CCOc1cc([N-]S(C)(=O)=O)ccc1[N-]C(=O)Cc1ccc(S(=O)(=O)N2CCOCC2)s1

>  <Energy>  (46) 
93.04848620414491

>  <Genealogy>  (46) 
CCOc1cc([N-]S(C)(=O)=O)ccc1[N-]C(=O)Cc1ccc(S(=O)(=O)N2CCOCC2)s1 (protonated)
CCOc1cc([N-]S(C)(=O)=O)ccc1[N-]C(=O)Cc1ccc(S(=O)(=O)N2CCOCC2)s1 (3D coordinates assigned)
CCOc1cc([N-]S(C)(=O)=O)ccc1[N-]C(=O)Cc1ccc(S(=O)(=O)N2CCOCC2)s1 (nonaromatic ring conformer: 93.04848620414491 kcal/mol)

>  <smiles>  (46) 
CCOc1cc(NS(C)(=O)=O)ccc1NC(=O)Cc1ccc(S(=O)(=O)N2CCOCC2)s1

>  <score_type>  (46) 
oracle

>  <origin>  (46) 
adg

>  <m_score__min__energy>  (46) 
-11.9

>  <m_primary>  (46) 
energy

$$$$
46:0
     RDKit          3D

 50 52  0  0  0  0  0  0  0  0999 V2000
   60.2890   26.9190   48.7310 C   0  0  0  0  0  0  0  0  0  0  0  0
   59.6930   27.4810   47.4610 C   0  0  0  0  0  0  0  0  0  0  0  0
   58.8780   26.6440   46.6900 C   0  0  0  0  0  0  0  0  0  0  0  0
   58.2980   27.1180   45.5220 C   0  0  0  0  0  0  0  0  0  0  0  0
   58.5190   28.4370   45.1100 C   0  0  0  0  0  0  0  0  0  0  0  0
   57.9050   28.9660   43.9150 N   0  0  0  0  0  0  0  0  0  0  0  0
   56.7460   30.2580   43.9050 S   0  0  0  0  0  0  0  0  0  0  0  0
   55.5990   29.8970   44.8080 O   0  0  0  0  0  0  0  0  0  0  0  0
   56.2230   30.4430   42.5080 O   0  0  0  0  0  0  0  0  0  0  0  0
   57.5050   31.7580   44.4260 C   0  0  0  0  0  0  0  0  0  0  0  0
   57.3980   32.1870   45.7570 C   0  0  0  0  0  0  0  0  0  0  0  0
   58.0160   33.3730   46.1660 C   0  0  0  0  0  0  0  0  0  0  0  0
   58.7430   34.1390   45.2460 C   0  0  0  0  0  0  0  0  0  0  0  0
   59.3820   35.3580   45.6660 C   0  0  0  0  0  0  0  0  0  0  0  0
   59.8950   36.3390   46.0030 N   0  0  0  0  0  0  0  0  0  0  0  0
   58.8470   33.7150   43.9150 C   0  0  0  0  0  0  0  0  0  0  0  0
   58.2300   32.5290   43.5060 C   0  0  0  0  0  0  0  0  0  0  0  0
   59.3610   29.2520   45.8920 C   0  0  0  0  0  0  0  0  0  0  0  0
   59.5650   30.4450   45.5280 O   0  0  0  0  0  0  0  0  0  0  0  0
   59.9510   28.7700   47.0410 N   0  0  0  0  0  0  0  0  0  0  0  0
   60.7990   29.6740   47.8500 C   0  0  0  0  0  0  0  0  0  0  0  0
   59.9640   30.3950   48.8630 C   0  0  0  0  0  0  0  0  0  0  0  0
   59.8800   29.9570   50.0420 O   0  0  0  0  0  0  0  0  0  0  0  0
   59.2680   31.5820   48.4810 N   0  0  0  0  0  0  0  0  0  0  0  0
   59.6520   32.9140   48.9220 C   0  0  0  0  0  0  0  0  0  0  0  0
   61.0700   33.1840   48.4960 C   0  0  0  0  0  0  0  0  0  0  0  0
   61.3930   33.2140   47.1280 C   0  0  0  0  0  0  0  0  0  0  0  0
   62.6980   33.4920   46.7140 C   0  0  0  0  0  0  0  0  0  0  0  0
   63.6920   33.7510   47.6590 C   0  0  0  0  0  0  0  0  0  0  0  0
   63.3830   33.7330   49.0220 C   0  0  0  0  0  0  0  0  0  0  0  0
   62.0790   33.4550   49.4480 C   0  0  0  0  0  0  0  0  0  0  0  0
   61.7390   33.4630   51.1770 Cl  0  0  0  0  0  0  0  0  0  0  0  0
   59.7995   27.3806   49.6013 H   0  0  0  0  0  0  0  0  0  0  0  0
   60.1345   25.8302   48.7581 H   0  0  0  0  0  0  0  0  0  0  0  0
   61.3668   27.1371   48.7581 H   0  0  0  0  0  0  0  0  0  0  0  0
   58.6968   25.6076   47.0109 H   0  0  0  0  0  0  0  0  0  0  0  0
   57.6621   26.4545   44.9176 H   0  0  0  0  0  0  0  0  0  0  0  0
   58.1760   28.5850   42.9820 H   0  0  0  0  0  0  0  0  0  0  0  0
   56.8261   31.5887   46.4816 H   0  0  0  0  0  0  0  0  0  0  0  0
   57.9310   33.7046   47.2114 H   0  0  0  0  0  0  0  0  0  0  0  0
   59.4153   34.3164   43.1901 H   0  0  0  0  0  0  0  0  0  0  0  0
   58.3135   32.1998   42.4598 H   0  0  0  0  0  0  0  0  0  0  0  0
   61.5694   29.0836   48.3676 H   0  0  0  0  0  0  0  0  0  0  0  0
   61.2747   30.4108   47.1860 H   0  0  0  0  0  0  0  0  0  0  0  0
   58.9827   33.6596   48.4680 H   0  0  0  0  0  0  0  0  0  0  0  0
   59.5755   32.9781   50.0175 H   0  0  0  0  0  0  0  0  0  0  0  0
   60.6125   33.0172   46.3782 H   0  0  0  0  0  0  0  0  0  0  0  0
   62.9425   33.5068   45.6416 H   0  0  0  0  0  0  0  0  0  0  0  0
   64.7190   33.9694   47.3309 H   0  0  0  0  0  0  0  0  0  0  0  0
   64.1688   33.9384   49.7639 H   0  0  0  0  0  0  0  0  0  0  0  0
  1  2  1  0
  2  3  2  0
  3  4  1  0
  4  5  2  0
  5  6  1  0
  6  7  1  0
  7  8  2  0
  7  9  2  0
  7 10  1  0
 10 11  2  0
 11 12  1  0
 12 13  2  0
 13 14  1  0
 14 15  3  0
 13 16  1  0
 16 17  2  0
  5 18  1  0
 18 19  2  0
 18 20  1  0
 20 21  1  0
 21 22  1  0
 22 23  2  0
 22 24  1  0
 24 25  1  0
 25 26  1  0
 26 27  2  0
 27 28  1  0
 28 29  2  0
 29 30  1  0
 30 31  2  0
 31 32  1  0
 20  2  1  0
 31 26  1  0
 17 10  1  0
  1 33  1  0
  1 34  1  0
  1 35  1  0
  3 36  1  0
  4 37  1  0
  6 38  1  0
 11 39  1  0
 12 40  1  0
 16 41  1  0
 17 42  1  0
 21 43  1  0
 21 44  1  0
 25 45  1  0
 25 46  1  0
 27 47  1  0
 28 48  1  0
 29 49  1  0
 30 50  1  0
M  CHG  1  24  -1
M  END
>  <UniqueID>  (47) 
45

>  <SMILES>  (47) 
Cc1ccc(NS(=O)(=O)c2ccc(C#N)cc2)c(=O)n1CC(=O)[N-]Cc1ccccc1Cl

>  <Energy>  (47) 
54.235744954292045

>  <Genealogy>  (47) 
Cc1ccc(NS(=O)(=O)c2ccc(C#N)cc2)c(=O)n1CC(=O)[N-]Cc1ccccc1Cl (protonated)
Cc1ccc(NS(=O)(=O)c2ccc(C#N)cc2)c(=O)n1CC(=O)[N-]Cc1ccccc1Cl (3D coordinates assigned)
Cc1ccc(NS(=O)(=O)c2ccc(C#N)cc2)c(=O)n1CC(=O)[N-]Cc1ccccc1Cl (optimized conformer: 54.235744954292045 kcal/mol)

>  <smiles>  (47) 
Cc1ccc(NS(=O)(=O)c2ccc(C#N)cc2)c(=O)n1CC(=O)NCc1ccccc1Cl

>  <score_type>  (47) 
oracle

>  <origin>  (47) 
adg

>  <m_score__min__energy>  (47) 
-11.869999999999999

>  <m_primary>  (47) 
energy

$$$$
47:0
     RDKit          3D

 70 73  0  0  1  0  0  0  0  0999 V2000
   59.4750   34.9620   47.5910 C   0  0  0  0  0  0  0  0  0  0  0  0
   59.3370   33.6030   46.9050 C   0  0  0  0  0  0  0  0  0  0  0  0
   60.2400   33.4460   45.7310 C   0  0  0  0  0  0  0  0  0  0  0  0
   59.6580   32.5150   47.9200 C   0  0  0  0  0  0  0  0  0  0  0  0
   59.2870   31.1810   47.4480 C   0  0  0  0  0  0  0  0  0  0  0  0
   58.2530   31.0550   46.5260 C   0  0  0  0  0  0  0  0  0  0  0  0
   57.8610   29.8010   46.0470 C   0  0  0  0  0  0  0  0  0  0  0  0
   56.9350   29.7610   45.2280 O   0  0  0  0  0  0  0  0  0  0  0  0
   58.4870   28.6550   46.4740 C   0  0  0  0  0  0  0  0  0  0  0  0
   58.1670   27.3130   46.0480 C   0  0  0  0  0  0  0  0  0  0  0  0
   58.9960   26.3640   46.2840 O   0  0  0  0  0  0  0  0  0  0  0  0
   56.9900   26.9160   45.3680 N   0  0  0  0  0  0  0  0  0  0  0  0
   56.7830   25.5220   44.9900 C   0  0  0  0  0  0  0  0  0  0  0  0
   55.4610   24.9730   45.4070 C   0  0  0  0  0  0  0  0  0  0  0  0
   54.7060   26.0670   45.8830 O   0  0  0  0  0  0  0  0  0  0  0  0
   59.5090   28.8210   47.3910 C   0  0  0  0  0  0  0  0  0  0  0  0
   59.8950   30.0320   47.8580 N   0  0  0  0  0  0  0  0  0  0  0  0
   60.9790   30.0350   48.8140 C   0  0  0  0  0  0  0  0  0  0  0  0
   60.9660   28.8370   49.7540 C   0  0  0  0  0  0  0  0  0  0  0  0
   60.4410   29.1680   51.0150 N   0  0  0  0  0  0  0  0  0  0  0  0
   60.1620   30.3370   51.4660 C   0  0  0  0  0  0  0  0  0  0  0  0
   58.9810   30.5260   52.0690 N   0  0  0  0  0  0  0  0  0  0  0  0
   58.6400   31.7350   52.5560 C   0  0  0  0  0  0  0  0  0  0  0  0
   59.5620   32.7640   52.4030 C   0  0  0  0  0  0  0  0  0  0  0  0
   59.2490   34.0920   52.9100 C   0  0  0  0  0  0  0  0  0  0  0  0
   58.1750   34.8420   52.3650 N   0  0  0  0  0  0  0  0  0  0  0  0
   59.9820   34.5210   53.8490 O   0  0  0  0  0  0  0  0  0  0  0  0
   60.7840   32.5240   51.7670 C   0  0  0  0  0  0  0  0  0  0  0  0
   61.5770   33.5370   51.6670 N   0  0  0  0  0  0  0  0  0  0  0  0
   62.4240   33.5170   50.4930 C   0  0  0  0  0  0  0  0  0  0  0  0
   62.1360   34.2860   49.3840 C   0  0  0  0  0  0  0  0  0  0  0  0
   62.9870   34.2150   48.3070 C   0  0  0  0  0  0  0  0  0  0  0  0
   64.0920   33.4080   48.3260 C   0  0  0  0  0  0  0  0  0  0  0  0
   64.3760   32.6420   49.4370 C   0  0  0  0  0  0  0  0  0  0  0  0
   63.5500   32.6840   50.5310 C   0  0  0  0  0  0  0  0  0  0  0  0
   63.8270   31.9270   51.6380 O   0  0  0  0  0  0  0  0  0  0  0  0
   61.0790   31.3000   51.2980 N   0  0  0  0  0  0  0  0  0  0  0  0
   57.5370   32.2210   45.9970 C   0  0  0  0  0  0  0  0  0  0  0  0
   56.6000   32.1270   45.1650 O   0  0  0  0  0  0  0  0  0  0  0  0
   57.9500   33.5160   46.4720 N   0  0  0  0  0  0  0  0  0  0  0  0
   59.4611   34.8249   48.6823 H   0  0  0  0  0  0  0  0  0  0  0  0
   60.4252   35.4288   47.2922 H   0  0  0  0  0  0  0  0  0  0  0  0
   58.6381   35.6103   47.2922 H   0  0  0  0  0  0  0  0  0  0  0  0
   61.2677   33.2673   46.0802 H   0  0  0  0  0  0  0  0  0  0  0  0
   59.9058   32.5925   45.1229 H   0  0  0  0  0  0  0  0  0  0  0  0
   60.2135   34.3622   45.1229 H   0  0  0  0  0  0  0  0  0  0  0  0
   60.7391   32.5294   48.1225 H   0  0  0  0  0  0  0  0  0  0  0  0
   59.0734   32.7225   48.8284 H   0  0  0  0  0  0  0  0  0  0  0  0
   56.2560   27.6010   45.1250 H   0  0  0  0  0  0  0  0  0  0  0  0
   56.8605   25.4448   43.8955 H   0  0  0  0  0  0  0  0  0  0  0  0
   57.5521   24.9324   45.5104 H   0  0  0  0  0  0  0  0  0  0  0  0
   54.9551   24.5066   44.5488 H   0  0  0  0  0  0  0  0  0  0  0  0
   55.5768   24.2015   46.1825 H   0  0  0  0  0  0  0  0  0  0  0  0
   55.1220   26.3200   46.7450 H   0  0  0  0  0  0  0  0  0  0  0  0
   60.0333   27.9265   47.7585 H   0  0  0  0  0  0  0  0  0  0  0  0
   61.9301   30.0331   48.2614 H   0  0  0  0  0  0  0  0  0  0  0  0
   60.8583   30.9343   49.4358 H   0  0  0  0  0  0  0  0  0  0  0  0
   60.3493   28.0422   49.3091 H   0  0  0  0  0  0  0  0  0  0  0  0
   62.0041   28.5010   49.8936 H   0  0  0  0  0  0  0  0  0  0  0  0
   58.2680   29.7640   52.1960 H   0  0  0  0  0  0  0  0  0  0  0  0
   57.6731   31.9008   53.0536 H   0  0  0  0  0  0  0  0  0  0  0  0
   58.4350   35.5290   51.6010 H   0  0  0  0  0  0  0  0  0  0  0  0
   57.1880   34.7220   52.6990 H   0  0  0  0  0  0  0  0  0  0  0  0
   61.2501   34.9377   49.3625 H   0  0  0  0  0  0  0  0  0  0  0  0
   62.7757   34.8188   47.4121 H   0  0  0  0  0  0  0  0  0  0  0  0
   64.7571   33.3701   47.4506 H   0  0  0  0  0  0  0  0  0  0  0  0
   65.2665   31.9963   49.4457 H   0  0  0  0  0  0  0  0  0  0  0  0
   63.3150   31.9060   52.4970 H   0  0  0  0  0  0  0  0  0  0  0  0
   61.9710   31.1170   50.8350 H   0  0  0  0  0  0  0  0  0  0  0  0
   57.2840   34.3130   46.4940 H   0  0  0  0  0  0  0  0  0  0  0  0
  1  2  1  0
  2  3  1  0
  2  4  1  0
  4  5  1  0
  5  6  2  0
  6  7  1  0
  7  8  2  0
  7  9  1  0
  9 10  1  0
 10 11  2  0
 10 12  1  0
 12 13  1  0
 13 14  1  0
 14 15  1  0
  9 16  2  0
 16 17  1  0
 17 18  1  0
 18 19  1  0
 19 20  1  0
 20 21  2  0
 21 22  1  0
 22 23  1  0
 23 24  2  0
 24 25  1  0
 25 26  1  0
 25 27  2  0
 24 28  1  0
 28 29  2  0
 29 30  1  0
 30 31  2  0
 31 32  1  0
 32 33  2  0
 33 34  1  0
 34 35  2  0
 35 36  1  0
 28 37  1  0
  6 38  1  0
 38 39  2  0
 38 40  1  0
 40  2  1  0
 17  5  1  0
 37 21  1  0
 35 30  1  0
  1 41  1  0
  1 42  1  0
  1 43  1  0
  3 44  1  0
  3 45  1  0
  3 46  1  0
  4 47  1  0
  4 48  1  0
 12 49  1  0
 13 50  1  0
 13 51  1  0
 14 52  1  0
 14 53  1  0
 15 54  1  0
 16 55  1  0
 18 56  1  0
 18 57  1  0
 19 58  1  0
 19 59  1  0
 22 60  1  0
 23 61  1  0
 26 62  1  0
 26 63  1  0
 31 64  1  0
 32 65  1  0
 33 66  1  0
 34 67  1  0
 36 68  1  0
 37 69  1  0
 40 70  1  0
M  END
>  <smiles>  (48) 
CC1(C)Cc2c(c(=O)c(C(=O)NCCO)cn2CCN=c2[nH]cc(C(N)=O)c(=Nc3ccccc3O)[nH]2)C(=O)N1

>  <score_type>  (48) 
oracle

>  <origin>  (48) 
adg

>  <m_score__min__energy>  (48) 
-10.960000000000001

>  <m_primary>  (48) 
energy

$$$$
48:0
     RDKit          3D

 43 46  0  0  0  0  0  0  0  0999 V2000
   54.7250   25.9620   45.9870 N   0  0  0  0  0  0  0  0  0  0  0  0
   56.3970   25.5800   45.7800 S   0  0  0  0  0  0  0  0  0  0  0  0
   56.5920   24.8430   44.4860 O   0  0  0  0  0  0  0  0  0  0  0  0
   56.8490   24.7080   46.9170 O   0  0  0  0  0  0  0  0  0  0  0  0
   57.3420   27.0590   45.7590 C   0  0  0  0  0  0  0  0  0  0  0  0
   58.9970   27.1580   46.0420 S   0  0  0  0  0  0  0  0  0  0  0  0
   59.0150   28.8270   45.8340 C   0  0  0  0  0  0  0  0  0  0  0  0
   60.0930   29.5470   45.9210 N   0  0  0  0  0  0  0  0  0  0  0  0
   60.4730   30.3630   47.0380 C   0  0  0  0  0  0  0  0  0  0  0  0
   61.5800   30.1920   47.6190 O   0  0  0  0  0  0  0  0  0  0  0  0
   59.5890   31.4000   47.4700 N   0  0  0  0  0  0  0  0  0  0  0  0
   59.2250   32.5370   46.6750 C   0  0  0  0  0  0  0  0  0  0  0  0
   57.9580   32.5520   46.0770 C   0  0  0  0  0  0  0  0  0  0  0  0
   57.5710   33.6210   45.2660 C   0  0  0  0  0  0  0  0  0  0  0  0
   58.4410   34.6920   45.0580 C   0  0  0  0  0  0  0  0  0  0  0  0
   59.6920   34.7070   45.6760 C   0  0  0  0  0  0  0  0  0  0  0  0
   60.0950   33.6400   46.4960 C   0  0  0  0  0  0  0  0  0  0  0  0
   61.3430   33.7370   47.2100 N   0  0  0  0  0  0  0  0  0  0  0  0
   62.6000   33.8630   46.4560 C   0  0  0  0  0  0  0  0  0  0  0  0
   63.6580   32.9270   47.0450 C   0  0  0  0  0  0  0  0  0  0  0  0
   63.7700   33.1300   48.4530 O   0  0  0  0  0  0  0  0  0  0  0  0
   62.6430   33.3460   49.2530 C   0  0  0  0  0  0  0  0  0  0  0  0
   62.7550   33.2930   50.6450 C   0  0  0  0  0  0  0  0  0  0  0  0
   61.6300   33.5020   51.4480 C   0  0  0  0  0  0  0  0  0  0  0  0
   61.7860   33.4240   53.1960 Cl  0  0  0  0  0  0  0  0  0  0  0  0
   60.3880   33.7730   50.8550 C   0  0  0  0  0  0  0  0  0  0  0  0
   59.2640   33.9850   51.6450 O   0  0  0  0  0  0  0  0  0  0  0  0
   60.2760   33.8370   49.4630 C   0  0  0  0  0  0  0  0  0  0  0  0
   61.4050   33.6280   48.6490 C   0  0  0  0  0  0  0  0  0  0  0  0
   57.7880   29.3240   45.5500 N   0  0  0  0  0  0  0  0  0  0  0  0
   56.8560   28.3350   45.5110 C   0  0  0  0  0  0  0  0  0  0  0  0
   55.5210   28.6010   45.2380 O   0  0  0  0  0  0  0  0  0  0  0  0
   54.6810   26.9100   46.4260 H   0  0  0  0  0  0  0  0  0  0  0  0
   57.2635   31.7162   46.2475 H   0  0  0  0  0  0  0  0  0  0  0  0
   56.5791   33.6188   44.7905 H   0  0  0  0  0  0  0  0  0  0  0  0
   58.1403   35.5254   44.4061 H   0  0  0  0  0  0  0  0  0  0  0  0
   60.3677   35.5608   45.5199 H   0  0  0  0  0  0  0  0  0  0  0  0
   62.4223   33.5961   45.4038 H   0  0  0  0  0  0  0  0  0  0  0  0
   62.9585   34.9009   46.5214 H   0  0  0  0  0  0  0  0  0  0  0  0
   63.3682   31.8838   46.8507 H   0  0  0  0  0  0  0  0  0  0  0  0
   64.6285   33.1425   46.5741 H   0  0  0  0  0  0  0  0  0  0  0  0
   63.7304   33.0864   51.1097 H   0  0  0  0  0  0  0  0  0  0  0  0
   59.3008   34.0517   49.0017 H   0  0  0  0  0  0  0  0  0  0  0  0
  1  2  1  0
  2  3  2  0
  2  4  2  0
  2  5  1  0
  5  6  1  0
  6  7  1  0
  7  8  2  3
  8  9  1  0
  9 10  2  0
  9 11  1  0
 11 12  1  0
 12 13  2  0
 13 14  1  0
 14 15  2  0
 15 16  1  0
 16 17  2  0
 17 18  1  0
 18 19  1  0
 19 20  1  0
 20 21  1  0
 21 22  1  0
 22 23  2  0
 23 24  1  0
 24 25  1  0
 24 26  2  0
 26 27  1  0
 26 28  1  0
 28 29  2  0
  7 30  1  0
 30 31  1  0
 31 32  1  0
 31  5  2  0
 17 12  1  0
 29 18  1  0
 29 22  1  0
  1 33  1  0
 13 34  1  0
 14 35  1  0
 15 36  1  0
 16 37  1  0
 19 38  1  0
 19 39  1  0
 20 40  1  0
 20 41  1  0
 23 42  1  0
 28 43  1  0
M  CHG  5   1  -1  11  -1  27  -1  30  -1  32  -1
M  END
>  <UniqueID>  (49) 
46

>  <SMILES>  (49) 
[NH-]S(=O)(=O)c1sc(=NC(=O)[N-]c2ccccc2N2CCOc3cc(Cl)c([O-])cc32)[n-]c1[O-]

>  <Energy>  (49) 
92.63742904954324

>  <Genealogy>  (49) 
[NH-]S(=O)(=O)c1sc(=NC(=O)[N-]c2ccccc2N2CCOc3cc(Cl)c([O-])cc32)[n-]c1[O-] (protonated)
[NH-]S(=O)(=O)c1sc(=NC(=O)[N-]c2ccccc2N2CCOc3cc(Cl)c([O-])cc32)[n-]c1[O-] (3D coordinates assigned)
[NH-]S(=O)(=O)c1sc(=NC(=O)[N-]c2ccccc2N2CCOc3cc(Cl)c([O-])cc32)[n-]c1[O-] (nonaromatic ring conformer: 92.63742904954324 kcal/mol)

>  <smiles>  (49) 
NS(=O)(=O)c1sc(=NC(=O)Nc2ccccc2N2CCOc3cc(Cl)c(O)cc32)[nH]c1O

>  <score_type>  (49) 
oracle

>  <origin>  (49) 
adg

>  <m_score__min__energy>  (49) 
-17.59

>  <m_primary>  (49) 
energy

$$$$
49:0
     RDKit          3D

 42 44  0  0  0  0  0  0  0  0999 V2000
   60.7281   29.9342   49.8719 H   0  0  0  0  0  0  0  0  0  0  0  0
   61.1740   30.6030   49.1210 C   0  0  0  0  0  0  0  0  0  0  0  0
   61.1830   30.1340   47.7180 C   0  0  0  0  0  0  0  0  0  0  0  0
   61.6400   30.9020   46.8320 O   0  0  0  0  0  0  0  0  0  0  0  0
   60.7050   28.8400   47.3250 N   0  0  0  0  0  0  0  0  0  0  0  0
   59.3820   28.5220   46.8700 C   0  0  0  0  0  0  0  0  0  0  0  0
   58.7400   27.3970   47.3970 C   0  0  0  0  0  0  0  0  0  0  0  0
   59.2506   26.7781   48.1495 H   0  0  0  0  0  0  0  0  0  0  0  0
   57.4540   27.0550   46.9730 C   0  0  0  0  0  0  0  0  0  0  0  0
   56.9520   26.1753   47.4021 H   0  0  0  0  0  0  0  0  0  0  0  0
   56.8010   27.8260   46.0050 C   0  0  0  0  0  0  0  0  0  0  0  0
   55.5220   27.4580   45.6020 O   0  0  0  0  0  0  0  0  0  0  0  0
   57.4440   28.9510   45.4520 C   0  0  0  0  0  0  0  0  0  0  0  0
   56.6790   29.9680   44.2270 S   0  0  0  0  0  0  0  0  0  0  0  0
   55.3020   30.4140   44.6340 O   0  0  0  0  0  0  0  0  0  0  0  0
   56.5640   29.1790   42.9530 O   0  0  0  0  0  0  0  0  0  0  0  0
   57.6750   31.3580   43.9400 N   0  0  0  0  0  0  0  0  0  0  0  0
   57.9790   32.3650   44.9130 C   0  0  0  0  0  0  0  0  0  0  0  0
   58.5100   33.5860   44.4800 C   0  0  0  0  0  0  0  0  0  0  0  0
   58.6707   33.7629   43.4063 H   0  0  0  0  0  0  0  0  0  0  0  0
   58.8280   34.5540   45.3800 N   0  0  0  0  0  0  0  0  0  0  0  0
   58.6400   34.3800   46.7140 C   0  0  0  0  0  0  0  0  0  0  0  0
   58.9093   35.1823   47.4167 H   0  0  0  0  0  0  0  0  0  0  0  0
   58.1050   33.1830   47.1930 C   0  0  0  0  0  0  0  0  0  0  0  0
   57.9487   33.0372   48.2720 H   0  0  0  0  0  0  0  0  0  0  0  0
   57.7700   32.1720   46.2890 C   0  0  0  0  0  0  0  0  0  0  0  0
   57.3432   31.2261   46.6539 H   0  0  0  0  0  0  0  0  0  0  0  0
   58.7340   29.2880   45.8850 C   0  0  0  0  0  0  0  0  0  0  0  0
   59.2442   30.1601   45.4500 H   0  0  0  0  0  0  0  0  0  0  0  0
   61.6630   31.7740   49.5560 C   0  0  0  0  0  0  0  0  0  0  0  0
   60.9504   32.5999   49.6974 H   0  0  0  0  0  0  0  0  0  0  0  0
   63.0840   32.0410   49.8600 C   0  0  0  0  0  0  0  0  0  0  0  0
   63.6190   31.5100   51.0430 C   0  0  0  0  0  0  0  0  0  0  0  0
   62.9749   30.9302   51.7205 H   0  0  0  0  0  0  0  0  0  0  0  0
   64.9620   31.7110   51.3680 C   0  0  0  0  0  0  0  0  0  0  0  0
   65.3767   31.2732   52.2880 H   0  0  0  0  0  0  0  0  0  0  0  0
   65.7780   32.4670   50.5260 C   0  0  0  0  0  0  0  0  0  0  0  0
   66.8403   32.6097   50.7732 H   0  0  0  0  0  0  0  0  0  0  0  0
   65.2470   33.0430   49.3690 C   0  0  0  0  0  0  0  0  0  0  0  0
   65.8891   33.6543   48.7178 H   0  0  0  0  0  0  0  0  0  0  0  0
   63.9010   32.8460   49.0340 C   0  0  0  0  0  0  0  0  0  0  0  0
   63.2620   33.6840   47.6240 Cl  0  0  0  0  0  0  0  0  0  0  0  0
  1  2  1  0
  2  3  1  0
  3  4  2  0
  3  5  1  0
  5  6  1  0
  6  7  2  0
  7  8  1  0
  7  9  1  0
  9 10  1  0
  9 11  2  0
 11 12  1  0
 11 13  1  0
 13 14  1  0
 14 15  2  0
 14 16  2  0
 14 17  1  0
 17 18  1  0
 18 19  2  0
 19 20  1  0
 19 21  1  0
 21 22  2  0
 22 23  1  0
 22 24  1  0
 24 25  1  0
 24 26  2  0
 26 27  1  0
 13 28  2  0
 28 29  1  0
  2 30  2  0
 30 31  1  0
 30 32  1  0
 32 33  2  0
 33 34  1  0
 33 35  1  0
 35 36  1  0
 35 37  2  0
 37 38  1  0
 37 39  1  0
 39 40  1  0
 39 41  2  0
 41 42  1  0
 28  6  1  0
 41 32  1  0
 26 18  1  0
M  CHG  3   5  -1  12  -1  17  -1
M  END
>  <UniqueID>  (50) 
47

>  <SMILES>  (50) 
O=C(/C=C\c1ccccc1Cl)[N-]c1ccc([O-])c(S(=O)(=O)[N-]c2cccnc2)c1

>  <Energy>  (50) 
60.51397755289773

>  <Genealogy>  (50) 
O=C(C=Cc1ccccc1Cl)[N-]c1ccc([O-])c(S(=O)(=O)[N-]c2cccnc2)c1 (protonated)
O=C(/C=C\c1ccccc1Cl)[N-]c1ccc([O-])c(S(=O)(=O)[N-]c2cccnc2)c1 (cis-trans isomerization)
O=C(/C=C\c1ccccc1Cl)[N-]c1ccc([O-])c(S(=O)(=O)[N-]c2cccnc2)c1 (3D coordinates assigned)
O=C(/C=C\c1ccccc1Cl)[N-]c1ccc([O-])c(S(=O)(=O)[N-]c2cccnc2)c1 (optimized conformer: 60.51397755289773 kcal/mol)

>  <smiles>  (50) 
O=C(C=Cc1ccccc1Cl)Nc1ccc(O)c(S(=O)(=O)Nc2cccnc2)c1

>  <score_type>  (50) 
oracle

>  <origin>  (50) 
adg

>  <m_score__min__energy>  (50) 
-15.15

>  <m_primary>  (50) 
energy

$$$$
50:0
     RDKit          3D

 38 39  0  0  0  0  0  0  0  0999 V2000
   55.9030   22.0670   42.9580 N   0  0  0  0  0  0  0  0  0  0  0  0
   56.1830   23.0360   43.5260 C   0  0  0  0  0  0  0  0  0  0  0  0
   56.5310   24.2400   44.2330 C   0  0  0  0  0  0  0  0  0  0  0  0
   55.7420   24.6790   45.3020 C   0  0  0  0  0  0  0  0  0  0  0  0
   56.0780   25.8500   45.9880 C   0  0  0  0  0  0  0  0  0  0  0  0
   57.2150   26.5880   45.6220 C   0  0  0  0  0  0  0  0  0  0  0  0
   57.5250   27.8020   46.3290 N   0  0  0  0  0  0  0  0  0  0  0  0
   58.5890   27.9200   47.2890 C   0  0  0  0  0  0  0  0  0  0  0  0
   59.1190   26.8880   47.7810 O   0  0  0  0  0  0  0  0  0  0  0  0
   59.0450   29.2030   47.7300 N   0  0  0  0  0  0  0  0  0  0  0  0
   58.8910   29.6980   49.0920 C   0  0  0  0  0  0  0  0  0  0  0  0
   58.7380   31.1920   49.0760 C   0  0  0  0  0  0  0  0  0  0  0  0
   58.1680   31.7630   50.0440 O   0  0  0  0  0  0  0  0  0  0  0  0
   59.2500   31.9960   48.0060 N   0  0  0  0  0  0  0  0  0  0  0  0
   58.6130   32.2450   46.7450 C   0  0  0  0  0  0  0  0  0  0  0  0
   58.6250   33.5190   46.1520 C   0  0  0  0  0  0  0  0  0  0  0  0
   58.0240   33.7220   44.9060 C   0  0  0  0  0  0  0  0  0  0  0  0
   57.4210   32.6530   44.2370 C   0  0  0  0  0  0  0  0  0  0  0  0
   57.4220   31.3750   44.8090 C   0  0  0  0  0  0  0  0  0  0  0  0
   56.6900   30.0220   43.9520 S   0  0  0  0  0  0  0  0  0  0  0  0
   55.3440   29.4250   44.8560 N   0  0  0  0  0  0  0  0  0  0  0  0
   57.7020   28.9250   43.7730 O   0  0  0  0  0  0  0  0  0  0  0  0
   56.2220   30.4710   42.5970 O   0  0  0  0  0  0  0  0  0  0  0  0
   58.0330   31.1730   46.0550 C   0  0  0  0  0  0  0  0  0  0  0  0
   57.9910   26.1520   44.5330 C   0  0  0  0  0  0  0  0  0  0  0  0
   57.6540   24.9820   43.8470 C   0  0  0  0  0  0  0  0  0  0  0  0
   54.8555   24.1016   45.6033 H   0  0  0  0  0  0  0  0  0  0  0  0
   55.4472   26.1955   46.8203 H   0  0  0  0  0  0  0  0  0  0  0  0
   56.8810   28.6140   46.1990 H   0  0  0  0  0  0  0  0  0  0  0  0
   57.9980   29.2443   49.5467 H   0  0  0  0  0  0  0  0  0  0  0  0
   59.7822   29.4304   49.6787 H   0  0  0  0  0  0  0  0  0  0  0  0
   59.1092   34.3599   46.6702 H   0  0  0  0  0  0  0  0  0  0  0  0
   58.0257   34.7238   44.4518 H   0  0  0  0  0  0  0  0  0  0  0  0
   56.9446   32.8161   43.2590 H   0  0  0  0  0  0  0  0  0  0  0  0
   55.1470   28.4600   44.5070 H   0  0  0  0  0  0  0  0  0  0  0  0
   58.0569   30.1646   46.4939 H   0  0  0  0  0  0  0  0  0  0  0  0
   58.8689   26.7358   44.2192 H   0  0  0  0  0  0  0  0  0  0  0  0
   58.2720   24.6434   43.0024 H   0  0  0  0  0  0  0  0  0  0  0  0
  1  2  3  0
  2  3  1  0
  3  4  2  0
  4  5  1  0
  5  6  2  0
  6  7  1  0
  7  8  1  0
  8  9  2  0
  8 10  1  0
 10 11  1  0
 11 12  1  0
 12 13  2  0
 12 14  1  0
 14 15  1  0
 15 16  2  0
 16 17  1  0
 17 18  2  0
 18 19  1  0
 19 20  1  0
 20 21  1  0
 20 22  2  0
 20 23  2  0
 19 24  2  0
  6 25  1  0
 25 26  2  0
 26  3  1  0
 24 15  1  0
  4 27  1  0
  5 28  1  0
  7 29  1  0
 11 30  1  0
 11 31  1  0
 16 32  1  0
 17 33  1  0
 18 34  1  0
 21 35  1  0
 24 36  1  0
 25 37  1  0
 26 38  1  0
M  CHG  3  10  -1  14  -1  21  -1
M  END
>  <UniqueID>  (51) 
48

>  <SMILES>  (51) 
N#Cc1ccc(NC(=O)[N-]CC(=O)[N-]c2cccc(S([NH-])(=O)=O)c2)cc1

>  <Energy>  (51) 
42.89840700524444

>  <Genealogy>  (51) 
N#Cc1ccc(NC(=O)[N-]CC(=O)[N-]c2cccc(S([NH-])(=O)=O)c2)cc1 (protonated)
N#Cc1ccc(NC(=O)[N-]CC(=O)[N-]c2cccc(S([NH-])(=O)=O)c2)cc1 (3D coordinates assigned)
N#Cc1ccc(NC(=O)[N-]CC(=O)[N-]c2cccc(S([NH-])(=O)=O)c2)cc1 (optimized conformer: 42.89840700524444 kcal/mol)

>  <smiles>  (51) 
N#Cc1ccc(NC(=O)NCC(=O)Nc2cccc(S(N)(=O)=O)c2)cc1

>  <score_type>  (51) 
oracle

>  <origin>  (51) 
adg

>  <m_score__min__energy>  (51) 
-13.130000000000001

>  <m_primary>  (51) 
energy

$$$$
51:0
     RDKit          3D

 56 58  0  0  0  0  0  0  0  0999 V2000
   56.7536   29.9148   42.1594 H   0  0  0  0  0  0  0  0  0  0  0  0
   56.9150   30.3400   43.1610 C   0  0  0  0  0  0  0  0  0  0  0  0
   56.5960   29.4760   44.3220 C   0  0  0  0  0  0  0  0  0  0  0  0
   55.4750   29.5520   44.8930 O   0  0  0  0  0  0  0  0  0  0  0  0
   57.6210   28.5650   44.8770 C   0  0  0  0  0  0  0  0  0  0  0  0
   58.9750   28.8220   44.6050 C   0  0  0  0  0  0  0  0  0  0  0  0
   59.2497   29.6640   43.9527 H   0  0  0  0  0  0  0  0  0  0  0  0
   59.9730   28.0200   45.1540 C   0  0  0  0  0  0  0  0  0  0  0  0
   61.0294   28.2288   44.9294 H   0  0  0  0  0  0  0  0  0  0  0  0
   59.6380   26.9550   45.9860 C   0  0  0  0  0  0  0  0  0  0  0  0
   60.4328   26.3326   46.4230 H   0  0  0  0  0  0  0  0  0  0  0  0
   58.2900   26.6690   46.2720 C   0  0  0  0  0  0  0  0  0  0  0  0
   57.9260   25.5930   47.0990 O   0  0  0  0  0  0  0  0  0  0  0  0
   57.3130   24.3910   46.6420 C   0  0  0  0  0  0  0  0  0  0  0  0
   57.0041   23.7852   47.5067 H   0  0  0  0  0  0  0  0  0  0  0  0
   56.4307   24.6379   46.0332 H   0  0  0  0  0  0  0  0  0  0  0  0
   58.0309   23.8218   46.0332 H   0  0  0  0  0  0  0  0  0  0  0  0
   57.2730   27.4730   45.7120 C   0  0  0  0  0  0  0  0  0  0  0  0
   55.8970   27.1450   45.9640 N   0  0  0  0  0  0  0  0  0  0  0  0
   55.6030   26.6300   46.8200 H   0  0  0  0  0  0  0  0  0  0  0  0
   55.1370   27.4750   45.3290 H   0  0  0  0  0  0  0  0  0  0  0  0
   57.3840   31.5970   43.2250 C   0  0  0  0  0  0  0  0  0  0  0  0
   57.3710   32.1879   42.2973 H   0  0  0  0  0  0  0  0  0  0  0  0
   57.9160   32.2520   44.4380 C   0  0  0  0  0  0  0  0  0  0  0  0
   58.1420   33.6320   44.4260 C   0  0  0  0  0  0  0  0  0  0  0  0
   57.9618   34.2084   43.5066 H   0  0  0  0  0  0  0  0  0  0  0  0
   58.5950   34.2810   45.5750 C   0  0  0  0  0  0  0  0  0  0  0  0
   58.7861   35.3640   45.5498 H   0  0  0  0  0  0  0  0  0  0  0  0
   58.8090   33.5650   46.7620 C   0  0  0  0  0  0  0  0  0  0  0  0
   59.2880   34.2840   48.0000 C   0  0  0  0  0  0  0  0  0  0  0  0
   58.7811   35.2576   48.0725 H   0  0  0  0  0  0  0  0  0  0  0  0
   59.0547   33.6694   48.8819 H   0  0  0  0  0  0  0  0  0  0  0  0
   60.7480   34.4990   47.9390 N   0  0  0  0  0  0  0  0  0  0  0  0
   61.3690   33.8190   46.7700 C   0  0  0  0  0  0  0  0  0  0  0  0
   60.5793   33.5811   46.0421 H   0  0  0  0  0  0  0  0  0  0  0  0
   62.1199   34.5044   46.3500 H   0  0  0  0  0  0  0  0  0  0  0  0
   62.0930   32.5190   47.1500 C   0  0  0  0  0  0  0  0  0  0  0  0
   61.3657   31.8164   47.5830 H   0  0  0  0  0  0  0  0  0  0  0  0
   62.5481   32.0952   46.2427 H   0  0  0  0  0  0  0  0  0  0  0  0
   63.2080   32.7840   48.1770 C   0  0  0  0  0  0  0  0  0  0  0  0
   63.3422   31.8817   48.7916 H   0  0  0  0  0  0  0  0  0  0  0  0
   64.1218   33.0349   47.6184 H   0  0  0  0  0  0  0  0  0  0  0  0
   62.8900   33.9690   49.1050 C   0  0  0  0  0  0  0  0  0  0  0  0
   63.3180   33.7721   50.0990 H   0  0  0  0  0  0  0  0  0  0  0  0
   63.3263   34.8806   48.6706 H   0  0  0  0  0  0  0  0  0  0  0  0
   61.3770   34.1700   49.2420 C   0  0  0  0  0  0  0  0  0  0  0  0
   60.9280   33.2443   49.6312 H   0  0  0  0  0  0  0  0  0  0  0  0
   61.2032   35.0110   49.9293 H   0  0  0  0  0  0  0  0  0  0  0  0
   58.5520   32.1790   46.7960 C   0  0  0  0  0  0  0  0  0  0  0  0
   58.7530   31.4830   48.0020 O   0  0  0  0  0  0  0  0  0  0  0  0
   59.5040   30.2810   48.1270 C   0  0  0  0  0  0  0  0  0  0  0  0
   59.6493   30.0485   49.1923 H   0  0  0  0  0  0  0  0  0  0  0  0
   58.9600   29.4567   47.6427 H   0  0  0  0  0  0  0  0  0  0  0  0
   60.4834   30.4085   47.6427 H   0  0  0  0  0  0  0  0  0  0  0  0
   58.0980   31.5320   45.6300 C   0  0  0  0  0  0  0  0  0  0  0  0
   57.8841   30.4532   45.6533 H   0  0  0  0  0  0  0  0  0  0  0  0
  1  2  1  0
  2  3  1  0
  3  4  2  0
  3  5  1  0
  5  6  2  0
  6  7  1  0
  6  8  1  0
  8  9  1  0
  8 10  2  0
 10 11  1  0
 10 12  1  0
 12 13  1  0
 13 14  1  0
 14 15  1  0
 14 16  1  0
 14 17  1  0
 12 18  2  0
 18 19  1  0
 19 20  1  0
 19 21  1  0
  2 22  2  0
 22 23  1  0
 22 24  1  0
 24 25  2  0
 25 26  1  0
 25 27  1  0
 27 28  1  0
 27 29  2  0
 29 30  1  0
 30 31  1  0
 30 32  1  0
 30 33  1  0
 33 34  1  0
 34 35  1  0
 34 36  1  0
 34 37  1  0
 37 38  1  0
 37 39  1  0
 37 40  1  0
 40 41  1  0
 40 42  1  0
 40 43  1  0
 43 44  1  0
 43 45  1  0
 43 46  1  0
 46 47  1  0
 46 48  1  0
 29 49  1  0
 49 50  1  0
 50 51  1  0
 51 52  1  0
 51 53  1  0
 51 54  1  0
 49 55  2  0
 55 56  1  0
 18  5  1  0
 55 24  1  0
 46 33  1  0
M  END
>  <UniqueID>  (52) 
49

>  <SMILES>  (52) 
COc1cc(/C=C\C(=O)c2cccc(OC)c2N)ccc1CN1CCCCC1

>  <Energy>  (52) 
76.86858960784443

>  <Genealogy>  (52) 
COc1cc(/C=C\C(=O)c2cccc(OC)c2N)ccc1CN1CCCCC1 (cis-trans isomerization)
COc1cc(/C=C\C(=O)c2cccc(OC)c2N)ccc1CN1CCCCC1 (3D coordinates assigned)
COc1cc(/C=C\C(=O)c2cccc(OC)c2N)ccc1CN1CCCCC1 (nonaromatic ring conformer: 76.86858960784443 kcal/mol)

>  <smiles>  (52) 
COc1cc(C=CC(=O)c2cccc(OC)c2N)ccc1CN1CCCCC1

>  <score_type>  (52) 
oracle

>  <origin>  (52) 
adg

>  <m_score__min__energy>  (52) 
-10

>  <m_primary>  (52) 
energy

$$$$
52:0
     RDKit          3D

 55 56  0  0  1  0  0  0  0  0999 V2000
   56.3440   20.7950   44.3290 C   0  0  0  0  0  0  0  0  0  0  0  0
   57.1280   21.7110   43.4040 C   0  0  0  0  0  0  0  0  0  0  0  0
   56.2600   22.8570   42.9460 C   0  0  0  0  0  0  0  0  0  0  0  0
   56.9060   24.1220   43.5660 C   0  0  0  0  0  0  0  0  0  0  0  0
   57.9580   23.7330   44.5470 C   0  0  0  0  0  0  0  0  0  0  0  0
   57.8320   24.0750   45.9550 C   0  0  0  0  0  0  0  0  0  0  0  0
   57.1980   25.2630   46.5300 C   0  0  1  0  0  0  0  0  0  0  0  0
   58.1810   26.7340   46.7020 S   0  0  0  0  0  0  0  0  0  0  0  0
   57.6840   28.2380   46.0030 C   0  0  0  0  0  0  0  0  0  0  0  0
   58.1020   29.3840   46.6360 N   0  0  0  0  0  0  0  0  0  0  0  0
   57.7780   30.5540   46.1490 C   0  0  0  0  0  0  0  0  0  0  0  0
   58.1780   31.6250   46.7540 N   0  0  0  0  0  0  0  0  0  0  0  0
   59.5200   31.9390   46.9920 C   0  0  0  0  0  0  0  0  0  0  0  0
   60.4860   30.9650   47.2020 C   0  0  0  0  0  0  0  0  0  0  0  0
   61.8050   31.3440   47.4330 C   0  0  0  0  0  0  0  0  0  0  0  0
   62.1590   32.6770   47.4550 C   0  0  0  0  0  0  0  0  0  0  0  0
   63.5270   33.1210   47.6930 C   0  0  0  0  0  0  0  0  0  0  0  0
   64.4020   33.1450   46.7590 O   0  0  0  0  0  0  0  0  0  0  0  0
   63.9640   33.5440   48.9410 O   0  0  0  0  0  0  0  0  0  0  0  0
   64.8700   32.7520   49.7220 C   0  0  0  0  0  0  0  0  0  0  0  0
   61.1970   33.6430   47.2450 C   0  0  0  0  0  0  0  0  0  0  0  0
   59.8890   33.2720   47.0150 C   0  0  0  0  0  0  0  0  0  0  0  0
   57.0460   30.7220   45.0440 N   0  0  0  0  0  0  0  0  0  0  0  0
   56.6100   29.6190   44.3870 C   0  0  0  0  0  0  0  0  0  0  0  0
   55.7890   29.6980   43.1500 C   0  0  0  0  0  0  0  0  0  0  0  0
   56.9520   28.4340   44.9010 N   0  0  0  0  0  0  0  0  0  0  0  0
   55.7800   25.5390   46.1860 C   0  0  0  0  0  0  0  0  0  0  0  0
   54.9260   24.5740   46.0490 O   0  0  0  0  0  0  0  0  0  0  0  0
   55.2300   26.7880   45.9840 O   0  0  0  0  0  0  0  0  0  0  0  0
   56.5653   21.0536   45.3750 H   0  0  0  0  0  0  0  0  0  0  0  0
   55.2673   20.9182   44.1408 H   0  0  0  0  0  0  0  0  0  0  0  0
   56.6319   19.7502   44.1408 H   0  0  0  0  0  0  0  0  0  0  0  0
   58.0012   22.1090   43.9416 H   0  0  0  0  0  0  0  0  0  0  0  0
   57.4571   21.1369   42.5253 H   0  0  0  0  0  0  0  0  0  0  0  0
   56.2554   22.9238   41.8480 H   0  0  0  0  0  0  0  0  0  0  0  0
   55.2126   22.7325   43.2583 H   0  0  0  0  0  0  0  0  0  0  0  0
   57.3596   24.7272   42.7673 H   0  0  0  0  0  0  0  0  0  0  0  0
   56.1299   24.7050   44.0835 H   0  0  0  0  0  0  0  0  0  0  0  0
   58.0421   22.6373   44.4975 H   0  0  0  0  0  0  0  0  0  0  0  0
   58.8212   24.3355   44.2279 H   0  0  0  0  0  0  0  0  0  0  0  0
   57.2961   23.2256   46.4036 H   0  0  0  0  0  0  0  0  0  0  0  0
   58.8829   24.3221   46.1662 H   0  0  0  0  0  0  0  0  0  0  0  0
   57.1375   24.8702   47.5557 H   0  0  0  0  0  0  0  0  0  0  0  0
   60.2109   29.9001   47.1860 H   0  0  0  0  0  0  0  0  0  0  0  0
   62.5722   30.5735   47.5996 H   0  0  0  0  0  0  0  0  0  0  0  0
   64.6765   32.9212   50.7915 H   0  0  0  0  0  0  0  0  0  0  0  0
   64.7230   31.6876   49.4866 H   0  0  0  0  0  0  0  0  0  0  0  0
   65.9052   33.0400   49.4866 H   0  0  0  0  0  0  0  0  0  0  0  0
   61.4729   34.7077   47.2610 H   0  0  0  0  0  0  0  0  0  0  0  0
   59.1274   34.0478   46.8473 H   0  0  0  0  0  0  0  0  0  0  0  0
   54.7276   29.8001   43.4203 H   0  0  0  0  0  0  0  0  0  0  0  0
   56.1020   30.5702   42.5573 H   0  0  0  0  0  0  0  0  0  0  0  0
   55.9300   28.7821   42.5573 H   0  0  0  0  0  0  0  0  0  0  0  0
   56.6080   27.5920   44.4120 H   0  0  0  0  0  0  0  0  0  0  0  0
   54.3360   27.0850   46.3570 H   0  0  0  0  0  0  0  0  0  0  0  0
  1  2  1  0
  2  3  1  0
  3  4  1  0
  4  5  1  0
  5  6  1  0
  6  7  1  0
  7  8  1  0
  8  9  1  0
  9 10  2  0
 10 11  1  0
 11 12  2  0
 12 13  1  0
 13 14  2  0
 14 15  1  0
 15 16  2  0
 16 17  1  0
 17 18  2  0
 17 19  1  0
 19 20  1  0
 16 21  1  0
 21 22  2  0
 11 23  1  0
 23 24  2  0
 24 25  1  0
 24 26  1  0
  7 27  1  0
 27 28  2  0
 27 29  1  0
 26  9  1  0
 22 13  1  0
  1 30  1  0
  1 31  1  0
  1 32  1  0
  2 33  1  0
  2 34  1  0
  3 35  1  0
  3 36  1  0
  4 37  1  0
  4 38  1  0
  5 39  1  0
  5 40  1  0
  6 41  1  0
  6 42  1  0
  7 43  1  1
 14 44  1  0
 15 45  1  0
 20 46  1  0
 20 47  1  0
 20 48  1  0
 21 49  1  0
 22 50  1  0
 25 51  1  0
 25 52  1  0
 25 53  1  0
 26 54  1  0
 29 55  1  0
M  END
>  <smiles>  (53) 
CCCCCCC(Sc1nc(=Nc2ccc(C(=O)OC)cc2)nc(C)[nH]1)C(=O)O

>  <score_type>  (53) 
oracle

>  <origin>  (53) 
adg

>  <m_score__min__energy>  (53) 
-9.5800000000000001

>  <m_primary>  (53) 
energy

$$$$
53:0
     RDKit          3D

 40 42  0  0  0  0  0  0  0  0999 V2000
   53.5060   25.1150   45.6040 N   0  0  0  0  0  0  0  0  0  0  0  0
   54.0770   23.6600   44.8630 S   0  0  0  0  0  0  0  0  0  0  0  0
   53.3410   22.4880   45.4490 O   0  0  0  0  0  0  0  0  0  0  0  0
   53.8150   23.7340   43.3860 O   0  0  0  0  0  0  0  0  0  0  0  0
   55.8090   23.4590   45.1420 C   0  0  0  0  0  0  0  0  0  0  0  0
   56.4720   24.2610   46.0830 C   0  0  0  0  0  0  0  0  0  0  0  0
   57.8420   24.0980   46.3230 C   0  0  0  0  0  0  0  0  0  0  0  0
   58.4770   24.9560   47.2820 N   0  0  0  0  0  0  0  0  0  0  0  0
   58.8750   26.3180   47.0830 C   0  0  0  0  0  0  0  0  0  0  0  0
   60.0410   26.6020   46.7000 O   0  0  0  0  0  0  0  0  0  0  0  0
   57.9310   27.4180   47.4490 C   0  0  0  0  0  0  0  0  0  0  0  0
   57.7360   28.3070   46.3050 N   0  0  0  0  0  0  0  0  0  0  0  0
   58.5550   29.3050   45.9090 C   0  0  0  0  0  0  0  0  0  0  0  0
   59.7790   29.5940   46.4990 O   0  0  0  0  0  0  0  0  0  0  0  0
   57.9950   29.9930   44.8490 C   0  0  0  0  0  0  0  0  0  0  0  0
   56.7960   29.3750   44.5710 C   0  0  0  0  0  0  0  0  0  0  0  0
   56.6520   28.3650   45.5010 C   0  0  0  0  0  0  0  0  0  0  0  0
   55.5460   27.5300   45.6160 O   0  0  0  0  0  0  0  0  0  0  0  0
   55.8230   29.8630   43.5430 C   0  0  0  0  0  0  0  0  0  0  0  0
   56.5310   30.7850   42.5310 C   0  0  0  0  0  0  0  0  0  0  0  0
   57.4460   31.8130   43.2330 C   0  0  0  0  0  0  0  0  0  0  0  0
   58.5610   31.1250   44.0490 C   0  0  0  0  0  0  0  0  0  0  0  0
   58.5620   23.1430   45.5840 C   0  0  0  0  0  0  0  0  0  0  0  0
   57.9060   22.3400   44.6480 C   0  0  0  0  0  0  0  0  0  0  0  0
   56.5340   22.4910   44.4280 C   0  0  0  0  0  0  0  0  0  0  0  0
   55.9000   21.6760   43.4950 O   0  0  0  0  0  0  0  0  0  0  0  0
   52.5750   24.8980   46.0260 H   0  0  0  0  0  0  0  0  0  0  0  0
   55.9096   25.0261   46.6383 H   0  0  0  0  0  0  0  0  0  0  0  0
   56.9636   26.9854   47.7439 H   0  0  0  0  0  0  0  0  0  0  0  0
   58.3520   27.9929   48.2870 H   0  0  0  0  0  0  0  0  0  0  0  0
   55.3948   29.0009   43.0106 H   0  0  0  0  0  0  0  0  0  0  0  0
   55.0254   30.4296   44.0459 H   0  0  0  0  0  0  0  0  0  0  0  0
   57.1414   30.1688   41.8545 H   0  0  0  0  0  0  0  0  0  0  0  0
   55.7597   31.3379   41.9748 H   0  0  0  0  0  0  0  0  0  0  0  0
   57.9085   32.4570   42.4706 H   0  0  0  0  0  0  0  0  0  0  0  0
   56.8286   32.4024   43.9269 H   0  0  0  0  0  0  0  0  0  0  0  0
   59.3269   30.7365   43.3616 H   0  0  0  0  0  0  0  0  0  0  0  0
   59.0085   31.8596   44.7346 H   0  0  0  0  0  0  0  0  0  0  0  0
   59.6443   23.0279   45.7432 H   0  0  0  0  0  0  0  0  0  0  0  0
   58.4716   21.5855   44.0816 H   0  0  0  0  0  0  0  0  0  0  0  0
  1  2  1  0
  2  3  2  0
  2  4  2  0
  2  5  1  0
  5  6  2  0
  6  7  1  0
  7  8  1  0
  8  9  1  0
  9 10  2  0
  9 11  1  0
 11 12  1  0
 12 13  1  0
 13 14  1  0
 13 15  2  0
 15 16  1  0
 16 17  2  0
 17 18  1  0
 16 19  1  0
 19 20  1  0
 20 21  1  0
 21 22  1  0
  7 23  2  0
 23 24  1  0
 24 25  2  0
 25 26  1  0
 25  5  1  0
 17 12  1  0
 22 15  1  0
  1 27  1  0
  6 28  1  0
 11 29  1  0
 11 30  1  0
 19 31  1  0
 19 32  1  0
 20 33  1  0
 20 34  1  0
 21 35  1  0
 21 36  1  0
 22 37  1  0
 22 38  1  0
 23 39  1  0
 24 40  1  0
M  CHG  5   1  -1   8  -1  14  -1  18  -1  26  -1
M  END
>  <UniqueID>  (54) 
50

>  <SMILES>  (54) 
[NH-]S(=O)(=O)c1cc([N-]C(=O)Cn2c([O-])c3c(c2[O-])CCCC3)ccc1[O-]

>  <Energy>  (54) 
72.29953253461144

>  <Genealogy>  (54) 
[NH-]S(=O)(=O)c1cc([N-]C(=O)Cn2c([O-])c3c(c2[O-])CCCC3)ccc1[O-] (protonated)
[NH-]S(=O)(=O)c1cc([N-]C(=O)Cn2c([O-])c3c(c2[O-])CCCC3)ccc1[O-] (3D coordinates assigned)
[NH-]S(=O)(=O)c1cc([N-]C(=O)Cn2c([O-])c3c(c2[O-])CCCC3)ccc1[O-] (nonaromatic ring conformer: 72.29953253461144 kcal/mol)

>  <smiles>  (54) 
NS(=O)(=O)c1cc(NC(=O)Cn2c(O)c3c(c2O)CCCC3)ccc1O

>  <score_type>  (54) 
oracle

>  <origin>  (54) 
adg

>  <m_score__min__energy>  (54) 
-16.550000000000001

>  <m_primary>  (54) 
energy

$$$$
54:0
     RDKit          3D

 37 39  0  0  0  0  0  0  0  0999 V2000
   58.7080   31.2110   43.3570 O   0  0  0  0  0  0  0  0  0  0  0  0
   57.3710   30.9310   43.9810 S   0  0  0  0  0  0  0  0  0  0  0  0
   56.3190   30.9540   42.9090 O   0  0  0  0  0  0  0  0  0  0  0  0
   57.0200   32.1620   45.1520 N   0  0  0  0  0  0  0  0  0  0  0  0
   58.0250   32.8460   45.9090 C   0  0  0  0  0  0  0  0  0  0  0  0
   58.3200   34.1750   45.5780 C   0  0  0  0  0  0  0  0  0  0  0  0
   59.3560   34.8520   46.2240 C   0  0  0  0  0  0  0  0  0  0  0  0
   60.1030   34.2060   47.2110 C   0  0  0  0  0  0  0  0  0  0  0  0
   59.7960   32.8920   47.5730 C   0  0  0  0  0  0  0  0  0  0  0  0
   58.7380   32.2150   46.9560 C   0  0  0  0  0  0  0  0  0  0  0  0
   58.4300   30.9220   47.3980 O   0  0  0  0  0  0  0  0  0  0  0  0
   59.0950   30.2480   48.4330 C   0  0  0  0  0  0  0  0  0  0  0  0
   60.0430   29.2350   48.1880 C   0  0  0  0  0  0  0  0  0  0  0  0
   60.6780   28.5920   49.2550 C   0  0  0  0  0  0  0  0  0  0  0  0
   60.3660   28.9440   50.5720 C   0  0  0  0  0  0  0  0  0  0  0  0
   60.9980   28.3050   51.6300 O   0  0  0  0  0  0  0  0  0  0  0  0
   59.4130   29.9360   50.8220 C   0  0  0  0  0  0  0  0  0  0  0  0
   58.7770   30.5800   49.7560 C   0  0  0  0  0  0  0  0  0  0  0  0
   57.4350   29.3410   44.7410 C   0  0  0  0  0  0  0  0  0  0  0  0
   58.6760   28.7750   45.0630 C   0  0  0  0  0  0  0  0  0  0  0  0
   58.7390   27.5310   45.6980 C   0  0  0  0  0  0  0  0  0  0  0  0
   57.5630   26.8440   46.0090 C   0  0  0  0  0  0  0  0  0  0  0  0
   56.3210   27.3990   45.6840 C   0  0  0  0  0  0  0  0  0  0  0  0
   55.1520   26.7160   45.9950 O   0  0  0  0  0  0  0  0  0  0  0  0
   56.2560   28.6440   45.0480 C   0  0  0  0  0  0  0  0  0  0  0  0
   57.7312   34.6886   44.8037 H   0  0  0  0  0  0  0  0  0  0  0  0
   59.5837   35.8941   45.9555 H   0  0  0  0  0  0  0  0  0  0  0  0
   60.9338   34.7320   47.7039 H   0  0  0  0  0  0  0  0  0  0  0  0
   60.3900   32.3861   48.3484 H   0  0  0  0  0  0  0  0  0  0  0  0
   60.2845   28.9489   47.1537 H   0  0  0  0  0  0  0  0  0  0  0  0
   61.4241   27.8081   49.0582 H   0  0  0  0  0  0  0  0  0  0  0  0
   59.1634   30.2100   51.8577 H   0  0  0  0  0  0  0  0  0  0  0  0
   58.0212   31.3532   49.9581 H   0  0  0  0  0  0  0  0  0  0  0  0
   59.6038   29.3114   44.8152 H   0  0  0  0  0  0  0  0  0  0  0  0
   59.7152   27.0929   45.9529 H   0  0  0  0  0  0  0  0  0  0  0  0
   57.6139   25.8659   46.5098 H   0  0  0  0  0  0  0  0  0  0  0  0
   55.2789   29.0772   44.7882 H   0  0  0  0  0  0  0  0  0  0  0  0
  1  2  2  0
  2  3  2  0
  2  4  1  0
  4  5  1  0
  5  6  2  0
  6  7  1  0
  7  8  2  0
  8  9  1  0
  9 10  2  0
 10 11  1  0
 11 12  1  0
 12 13  2  0
 13 14  1  0
 14 15  2  0
 15 16  1  0
 15 17  1  0
 17 18  2  0
  2 19  1  0
 19 20  2  0
 20 21  1  0
 21 22  2  0
 22 23  1  0
 23 24  1  0
 23 25  2  0
 10  5  1  0
 18 12  1  0
 25 19  1  0
  6 26  1  0
  7 27  1  0
  8 28  1  0
  9 29  1  0
 13 30  1  0
 14 31  1  0
 17 32  1  0
 18 33  1  0
 20 34  1  0
 21 35  1  0
 22 36  1  0
 25 37  1  0
M  CHG  3   4  -1  16  -1  24  -1
M  END
>  <UniqueID>  (55) 
51

>  <SMILES>  (55) 
O=S(=O)([N-]c1ccccc1Oc1ccc([O-])cc1)c1cccc([O-])c1

>  <Energy>  (55) 
54.34857899063947

>  <Genealogy>  (55) 
O=S(=O)([N-]c1ccccc1Oc1ccc([O-])cc1)c1cccc([O-])c1 (protonated)
O=S(=O)([N-]c1ccccc1Oc1ccc([O-])cc1)c1cccc([O-])c1 (3D coordinates assigned)
O=S(=O)([N-]c1ccccc1Oc1ccc([O-])cc1)c1cccc([O-])c1 (optimized conformer: 54.34857899063947 kcal/mol)

>  <smiles>  (55) 
O=S(=O)(Nc1ccccc1Oc1ccc(O)cc1)c1cccc(O)c1

>  <score_type>  (55) 
oracle

>  <origin>  (55) 
adg

>  <m_score__min__energy>  (55) 
-13.15

>  <m_primary>  (55) 
energy

$$$$
55:0
     RDKit          3D

 56 58  0  0  0  0  0  0  0  0999 V2000
   63.7120   32.8440   47.1880 C   0  0  0  0  0  0  0  0  0  0  0  0
   62.6310   31.8060   47.4690 C   0  0  0  0  0  0  0  0  0  0  0  0
   61.8430   32.2070   48.5750 O   0  0  0  0  0  0  0  0  0  0  0  0
   62.1880   33.5150   48.9800 C   0  0  0  0  0  0  0  0  0  0  0  0
   60.9500   34.1930   49.5750 C   0  0  0  0  0  0  0  0  0  0  0  0
   59.6660   33.8560   48.8080 C   0  0  0  0  0  0  0  0  0  0  0  0
   59.2800   34.9620   47.9250 N   0  0  0  0  0  0  0  0  0  0  0  0
   59.8400   34.6470   46.3100 S   0  0  0  0  0  0  0  0  0  0  0  0
   61.3090   34.3330   46.3350 O   0  0  0  0  0  0  0  0  0  0  0  0
   59.6300   35.8720   45.4670 O   0  0  0  0  0  0  0  0  0  0  0  0
   58.9450   33.3020   45.6050 C   0  0  0  0  0  0  0  0  0  0  0  0
   58.2590   33.4640   44.3780 C   0  0  0  0  0  0  0  0  0  0  0  0
   57.5710   32.3850   43.7940 C   0  0  0  0  0  0  0  0  0  0  0  0
   57.5840   31.1580   44.4640 C   0  0  0  0  0  0  0  0  0  0  0  0
   58.2550   31.0020   45.6490 C   0  0  0  0  0  0  0  0  0  0  0  0
   58.9520   32.0490   46.2480 C   0  0  0  0  0  0  0  0  0  0  0  0
   58.1250   29.6880   46.0370 C   0  0  0  0  0  0  0  0  0  0  0  0
   57.3560   29.0870   45.0430 C   0  0  0  0  0  0  0  0  0  0  0  0
   57.0380   27.6460   44.9820 C   0  0  0  0  0  0  0  0  0  0  0  0
   57.7830   26.8820   44.3130 O   0  0  0  0  0  0  0  0  0  0  0  0
   55.8980   27.0860   45.6460 N   0  0  0  0  0  0  0  0  0  0  0  0
   55.8970   25.8340   46.3920 C   0  0  0  0  0  0  0  0  0  0  0  0
   56.3100   24.7150   45.4810 C   0  0  0  0  0  0  0  0  0  0  0  0
   57.6180   24.2040   45.5370 C   0  0  0  0  0  0  0  0  0  0  0  0
   58.0130   23.1830   44.6640 C   0  0  0  0  0  0  0  0  0  0  0  0
   57.1090   22.6770   43.7250 C   0  0  0  0  0  0  0  0  0  0  0  0
   55.8130   23.1910   43.6540 C   0  0  0  0  0  0  0  0  0  0  0  0
   55.4150   24.2110   44.5240 C   0  0  0  0  0  0  0  0  0  0  0  0
   57.0180   29.9920   44.0850 N   0  0  0  0  0  0  0  0  0  0  0  0
   56.2680   29.7420   42.8530 C   0  0  0  0  0  0  0  0  0  0  0  0
   64.1098   33.2260   48.1398 H   0  0  0  0  0  0  0  0  0  0  0  0
   64.5251   32.3796   46.6108 H   0  0  0  0  0  0  0  0  0  0  0  0
   63.2810   33.6753   46.6108 H   0  0  0  0  0  0  0  0  0  0  0  0
   61.9875   31.7027   46.5829 H   0  0  0  0  0  0  0  0  0  0  0  0
   63.1098   30.8430   47.7001 H   0  0  0  0  0  0  0  0  0  0  0  0
   62.9839   33.4690   49.7379 H   0  0  0  0  0  0  0  0  0  0  0  0
   62.5482   34.0903   48.1144 H   0  0  0  0  0  0  0  0  0  0  0  0
   60.8344   33.8623   50.6177 H   0  0  0  0  0  0  0  0  0  0  0  0
   61.1018   35.2804   49.5082 H   0  0  0  0  0  0  0  0  0  0  0  0
   59.8343   32.9532   48.2025 H   0  0  0  0  0  0  0  0  0  0  0  0
   58.8569   33.6857   49.5335 H   0  0  0  0  0  0  0  0  0  0  0  0
   58.2360   34.9900   47.8700 H   0  0  0  0  0  0  0  0  0  0  0  0
   58.2638   34.4429   43.8762 H   0  0  0  0  0  0  0  0  0  0  0  0
   57.0386   32.5031   42.8387 H   0  0  0  0  0  0  0  0  0  0  0  0
   59.4918   31.9014   47.1950 H   0  0  0  0  0  0  0  0  0  0  0  0
   58.5395   29.2139   46.9389 H   0  0  0  0  0  0  0  0  0  0  0  0
   56.6048   25.9053   47.2310 H   0  0  0  0  0  0  0  0  0  0  0  0
   54.8877   25.6382   46.7830 H   0  0  0  0  0  0  0  0  0  0  0  0
   58.3335   24.6073   46.2687 H   0  0  0  0  0  0  0  0  0  0  0  0
   59.0347   22.7789   44.7169 H   0  0  0  0  0  0  0  0  0  0  0  0
   57.4193   21.8730   43.0414 H   0  0  0  0  0  0  0  0  0  0  0  0
   55.1041   22.7933   42.9129 H   0  0  0  0  0  0  0  0  0  0  0  0
   54.3961   24.6202   44.4582 H   0  0  0  0  0  0  0  0  0  0  0  0
   55.2521   29.4034   43.1045 H   0  0  0  0  0  0  0  0  0  0  0  0
   56.2101   30.6694   42.2644 H   0  0  0  0  0  0  0  0  0  0  0  0
   56.7782   28.9653   42.2644 H   0  0  0  0  0  0  0  0  0  0  0  0
  1  2  1  0
  2  3  1  0
  3  4  1  0
  4  5  1  0
  5  6  1  0
  6  7  1  0
  7  8  1  0
  8  9  2  0
  8 10  2  0
  8 11  1  0
 11 12  2  0
 12 13  1  0
 13 14  2  0
 14 15  1  0
 15 16  2  0
 15 17  1  0
 17 18  2  0
 18 19  1  0
 19 20  2  0
 19 21  1  0
 21 22  1  0
 22 23  1  0
 23 24  2  0
 24 25  1  0
 25 26  2  0
 26 27  1  0
 27 28  2  0
 18 29  1  0
 29 30  1  0
 16 11  1  0
 28 23  1  0
 29 14  1  0
  1 31  1  0
  1 32  1  0
  1 33  1  0
  2 34  1  0
  2 35  1  0
  4 36  1  0
  4 37  1  0
  5 38  1  0
  5 39  1  0
  6 40  1  0
  6 41  1  0
  7 42  1  0
 12 43  1  0
 13 44  1  0
 16 45  1  0
 17 46  1  0
 22 47  1  0
 22 48  1  0
 24 49  1  0
 25 50  1  0
 26 51  1  0
 27 52  1  0
 28 53  1  0
 30 54  1  0
 30 55  1  0
 30 56  1  0
M  CHG  1  21  -1
M  END
>  <UniqueID>  (56) 
52

>  <SMILES>  (56) 
CCOCCCNS(=O)(=O)c1ccc2c(c1)cc(C(=O)[N-]Cc1ccccc1)n2C

>  <Energy>  (56) 
86.90754866623976

>  <Genealogy>  (56) 
CCOCCCNS(=O)(=O)c1ccc2c(c1)cc(C(=O)[N-]Cc1ccccc1)n2C (protonated)
CCOCCCNS(=O)(=O)c1ccc2c(c1)cc(C(=O)[N-]Cc1ccccc1)n2C (3D coordinates assigned)
CCOCCCNS(=O)(=O)c1ccc2c(c1)cc(C(=O)[N-]Cc1ccccc1)n2C (optimized conformer: 86.90754866623976 kcal/mol)

>  <smiles>  (56) 
CCOCCCNS(=O)(=O)c1ccc2c(c1)cc(C(=O)NCc1ccccc1)n2C

>  <score_type>  (56) 
oracle

>  <origin>  (56) 
adg

>  <m_score__min__energy>  (56) 
-9.6999999999999993

>  <m_primary>  (56) 
energy

$$$$
56:0
     RDKit          3D

 52 54  0  0  0  0  0  0  0  0999 V2000
   61.4775   29.9429   46.2621 H   0  0  0  0  0  0  0  0  0  0  0  0
   60.5600   30.0010   46.8660 C   0  0  0  0  0  0  0  0  0  0  0  0
   59.6334   29.5306   46.5053 H   0  0  0  0  0  0  0  0  0  0  0  0
   60.5710   30.6420   48.0360 C   0  0  0  0  0  0  0  0  0  0  0  0
   61.5041   31.1081   48.3854 H   0  0  0  0  0  0  0  0  0  0  0  0
   59.3360   30.7410   48.8870 C   0  0  0  0  0  0  0  0  0  0  0  0
   58.6751   29.8907   48.6630 H   0  0  0  0  0  0  0  0  0  0  0  0
   59.6360   30.7259   49.9452 H   0  0  0  0  0  0  0  0  0  0  0  0
   58.6180   31.9890   48.6220 N   0  0  0  0  0  0  0  0  0  0  0  0
   58.9320   32.8690   47.7130 C   0  0  0  0  0  0  0  0  0  0  0  0
   58.4660   32.7490   46.3220 C   0  0  0  0  0  0  0  0  0  0  0  0
   58.6820   33.6960   45.5210 O   0  0  0  0  0  0  0  0  0  0  0  0
   57.7710   31.5670   45.9010 N   0  0  0  0  0  0  0  0  0  0  0  0
   57.4460   30.8960   46.6340 H   0  0  0  0  0  0  0  0  0  0  0  0
   57.3800   31.3340   44.5370 C   0  0  0  0  0  0  0  0  0  0  0  0
   57.7450   32.2450   43.5300 C   0  0  0  0  0  0  0  0  0  0  0  0
   58.3191   33.1465   43.7901 H   0  0  0  0  0  0  0  0  0  0  0  0
   57.3830   32.0120   42.2020 C   0  0  0  0  0  0  0  0  0  0  0  0
   57.6733   32.7287   41.4197 H   0  0  0  0  0  0  0  0  0  0  0  0
   56.6540   30.8720   41.8660 C   0  0  0  0  0  0  0  0  0  0  0  0
   56.3659   30.6933   40.8195 H   0  0  0  0  0  0  0  0  0  0  0  0
   56.2890   29.9570   42.8550 C   0  0  0  0  0  0  0  0  0  0  0  0
   55.7018   29.0666   42.5861 H   0  0  0  0  0  0  0  0  0  0  0  0
   56.6680   30.1670   44.1950 C   0  0  0  0  0  0  0  0  0  0  0  0
   56.2490   29.2700   45.2380 N   0  0  0  0  0  0  0  0  0  0  0  0
   57.0980   28.4130   46.0120 C   0  0  0  0  0  0  0  0  0  0  0  0
   57.8310   28.9250   46.8980 O   0  0  0  0  0  0  0  0  0  0  0  0
   57.1680   26.9530   45.7710 C   0  0  0  0  0  0  0  0  0  0  0  0
   58.4040   26.3630   45.4530 C   0  0  0  0  0  0  0  0  0  0  0  0
   59.3076   26.9867   45.3859 H   0  0  0  0  0  0  0  0  0  0  0  0
   58.4890   24.9880   45.2220 C   0  0  0  0  0  0  0  0  0  0  0  0
   59.4605   24.5308   44.9828 H   0  0  0  0  0  0  0  0  0  0  0  0
   57.3430   24.1920   45.2940 C   0  0  0  0  0  0  0  0  0  0  0  0
   57.4138   23.1097   45.1105 H   0  0  0  0  0  0  0  0  0  0  0  0
   56.1060   24.7690   45.5990 C   0  0  0  0  0  0  0  0  0  0  0  0
   55.2061   24.1392   45.6582 H   0  0  0  0  0  0  0  0  0  0  0  0
   56.0110   26.1460   45.8290 C   0  0  0  0  0  0  0  0  0  0  0  0
   54.7660   26.7030   46.0970 O   0  0  0  0  0  0  0  0  0  0  0  0
   59.6900   34.1010   48.1130 C   0  0  0  0  0  0  0  0  0  0  0  0
   59.4118   34.9268   47.4417 H   0  0  0  0  0  0  0  0  0  0  0  0
   59.4338   34.3438   49.1548 H   0  0  0  0  0  0  0  0  0  0  0  0
   61.1780   33.8790   48.0280 C   0  0  0  0  0  0  0  0  0  0  0  0
   61.7980   33.7040   46.7770 C   0  0  0  0  0  0  0  0  0  0  0  0
   61.1947   33.7329   45.8576 H   0  0  0  0  0  0  0  0  0  0  0  0
   63.1810   33.4930   46.6980 C   0  0  0  0  0  0  0  0  0  0  0  0
   63.6626   33.3682   45.7169 H   0  0  0  0  0  0  0  0  0  0  0  0
   63.9490   33.4410   47.8640 C   0  0  0  0  0  0  0  0  0  0  0  0
   65.0347   33.2760   47.8002 H   0  0  0  0  0  0  0  0  0  0  0  0
   63.3370   33.5990   49.1150 C   0  0  0  0  0  0  0  0  0  0  0  0
   63.9427   33.5548   50.0322 H   0  0  0  0  0  0  0  0  0  0  0  0
   61.9560   33.8130   49.1990 C   0  0  0  0  0  0  0  0  0  0  0  0
   61.4778   33.9299   50.1827 H   0  0  0  0  0  0  0  0  0  0  0  0
  1  2  1  0
  2  3  1  0
  2  4  2  0
  4  5  1  0
  4  6  1  0
  6  7  1  0
  6  8  1  0
  6  9  1  0
  9 10  2  0
 10 11  1  0
 11 12  2  0
 11 13  1  0
 13 14  1  0
 13 15  1  0
 15 16  2  0
 16 17  1  0
 16 18  1  0
 18 19  1  0
 18 20  2  0
 20 21  1  0
 20 22  1  0
 22 23  1  0
 22 24  2  0
 24 25  1  0
 25 26  1  0
 26 27  2  0
 26 28  1  0
 28 29  2  0
 29 30  1  0
 29 31  1  0
 31 32  1  0
 31 33  2  0
 33 34  1  0
 33 35  1  0
 35 36  1  0
 35 37  2  0
 37 38  1  0
 10 39  1  0
 39 40  1  0
 39 41  1  0
 39 42  1  0
 42 43  2  0
 43 44  1  0
 43 45  1  0
 45 46  1  0
 45 47  2  0
 47 48  1  0
 47 49  1  0
 49 50  1  0
 49 51  2  0
 51 52  1  0
 24 15  1  0
 37 28  1  0
 51 42  1  0
M  CHG  2  25  -1  38  -1
M  END
>  <UniqueID>  (57) 
53

>  <SMILES>  (57) 
C=CC/N=C(/Cc1ccccc1)C(=O)Nc1ccccc1[N-]C(=O)c1ccccc1[O-]

>  <Energy>  (57) 
68.29722928334166

>  <Genealogy>  (57) 
C=CCN=C(Cc1ccccc1)C(=O)Nc1ccccc1[N-]C(=O)c1ccccc1[O-] (protonated)
C=CC/N=C(/Cc1ccccc1)C(=O)Nc1ccccc1[N-]C(=O)c1ccccc1[O-] (cis-trans isomerization)
C=CC/N=C(/Cc1ccccc1)C(=O)Nc1ccccc1[N-]C(=O)c1ccccc1[O-] (3D coordinates assigned)
C=CC/N=C(/Cc1ccccc1)C(=O)Nc1ccccc1[N-]C(=O)c1ccccc1[O-] (optimized conformer: 68.29722928334166 kcal/mol)

>  <smiles>  (57) 
C=CCN=C(Cc1ccccc1)C(=O)Nc1ccccc1NC(=O)c1ccccc1O

>  <score_type>  (57) 
oracle

>  <origin>  (57) 
adg

>  <m_score__min__energy>  (57) 
-14.67

>  <m_primary>  (57) 
energy

$$$$
57:0
     RDKit          3D

 55 57  0  0  0  0  0  0  0  0999 V2000
   64.6620   33.0750   49.1440 C   0  0  0  0  0  0  0  0  0  0  0  0
   63.2410   33.4000   49.3190 N   0  0  0  0  0  0  0  0  0  0  0  0
   62.8770   34.5880   50.1020 C   0  0  0  0  0  0  0  0  0  0  0  0
   62.2130   32.5620   48.7280 C   0  0  0  0  0  0  0  0  0  0  0  0
   60.8760   32.6380   49.1680 C   0  0  0  0  0  0  0  0  0  0  0  0
   59.8870   31.8280   48.6010 C   0  0  0  0  0  0  0  0  0  0  0  0
   60.2120   30.9150   47.5850 C   0  0  0  0  0  0  0  0  0  0  0  0
   59.2060   30.0890   46.9710 N   0  0  0  0  0  0  0  0  0  0  0  0
   59.3120   28.6610   46.8490 C   0  0  0  0  0  0  0  0  0  0  0  0
   60.4450   28.1100   46.9030 O   0  0  0  0  0  0  0  0  0  0  0  0
   58.1080   27.8280   46.6110 C   0  0  0  0  0  0  0  0  0  0  0  0
   57.0450   28.2790   45.8130 C   0  0  0  0  0  0  0  0  0  0  0  0
   55.9540   27.4940   45.6210 N   0  0  0  0  0  0  0  0  0  0  0  0
   55.8620   26.2650   46.1890 C   0  0  0  0  0  0  0  0  0  0  0  0
   54.8010   25.5430   45.9780 N   0  0  0  0  0  0  0  0  0  0  0  0
   54.7720   24.0810   45.9600 C   0  0  0  0  0  0  0  0  0  0  0  0
   55.3130   23.5450   44.6310 C   0  0  0  0  0  0  0  0  0  0  0  0
   56.8340   23.7140   44.5430 C   0  0  0  0  0  0  0  0  0  0  0  0
   57.5090   22.5240   45.1100 N   0  0  0  0  0  0  0  0  0  0  0  0
   56.5520   21.5570   45.7020 C   0  0  0  0  0  0  0  0  0  0  0  0
   56.1110   20.4730   44.6970 C   0  0  0  0  0  0  0  0  0  0  0  0
   56.2080   20.9520   43.3730 O   0  0  0  0  0  0  0  0  0  0  0  0
   57.5690   21.1440   43.0240 C   0  0  0  0  0  0  0  0  0  0  0  0
   58.3850   21.8600   44.1260 C   0  0  0  0  0  0  0  0  0  0  0  0
   56.8750   25.8090   46.9760 N   0  0  0  0  0  0  0  0  0  0  0  0
   57.9840   26.5600   47.1990 C   0  0  0  0  0  0  0  0  0  0  0  0
   61.5320   30.8500   47.1270 C   0  0  0  0  0  0  0  0  0  0  0  0
   62.5230   31.6550   47.6930 C   0  0  0  0  0  0  0  0  0  0  0  0
   65.1374   32.9663   50.1300 H   0  0  0  0  0  0  0  0  0  0  0  0
   64.7564   32.1321   48.5854 H   0  0  0  0  0  0  0  0  0  0  0  0
   65.1569   33.8832   48.5854 H   0  0  0  0  0  0  0  0  0  0  0  0
   62.9481   34.3559   51.1749 H   0  0  0  0  0  0  0  0  0  0  0  0
   63.5639   35.4120   49.8588 H   0  0  0  0  0  0  0  0  0  0  0  0
   61.8464   34.8858   49.8588 H   0  0  0  0  0  0  0  0  0  0  0  0
   60.6071   33.3437   49.9678 H   0  0  0  0  0  0  0  0  0  0  0  0
   58.8479   31.9066   48.9532 H   0  0  0  0  0  0  0  0  0  0  0  0
   58.4150   30.5670   46.4840 H   0  0  0  0  0  0  0  0  0  0  0  0
   57.0960   29.2716   45.3417 H   0  0  0  0  0  0  0  0  0  0  0  0
   55.3924   23.6974   46.7834 H   0  0  0  0  0  0  0  0  0  0  0  0
   53.7308   23.7465   46.0787 H   0  0  0  0  0  0  0  0  0  0  0  0
   55.0653   22.4765   44.5476 H   0  0  0  0  0  0  0  0  0  0  0  0
   54.8512   24.1154   43.8116 H   0  0  0  0  0  0  0  0  0  0  0  0
   57.1272   23.8317   43.4893 H   0  0  0  0  0  0  0  0  0  0  0  0
   57.1322   24.6052   45.1147 H   0  0  0  0  0  0  0  0  0  0  0  0
   57.0321   21.0668   46.5618 H   0  0  0  0  0  0  0  0  0  0  0  0
   55.6550   22.1169   46.0052 H   0  0  0  0  0  0  0  0  0  0  0  0
   56.7581   19.5907   44.8102 H   0  0  0  0  0  0  0  0  0  0  0  0
   55.0635   20.2063   44.9010 H   0  0  0  0  0  0  0  0  0  0  0  0
   58.0238   20.1603   42.8355 H   0  0  0  0  0  0  0  0  0  0  0  0
   57.5903   21.7867   42.1315 H   0  0  0  0  0  0  0  0  0  0  0  0
   59.0080   21.1181   44.6470 H   0  0  0  0  0  0  0  0  0  0  0  0
   59.0068   22.6301   43.6462 H   0  0  0  0  0  0  0  0  0  0  0  0
   58.7878   26.1732   47.8427 H   0  0  0  0  0  0  0  0  0  0  0  0
   61.7922   30.1578   46.3127 H   0  0  0  0  0  0  0  0  0  0  0  0
   63.5578   31.5809   47.3273 H   0  0  0  0  0  0  0  0  0  0  0  0
  1  2  1  0
  2  3  1  0
  2  4  1  0
  4  5  2  0
  5  6  1  0
  6  7  2  0
  7  8  1  0
  8  9  1  0
  9 10  2  0
  9 11  1  0
 11 12  1  0
 12 13  2  0
 13 14  1  0
 14 15  2  3
 15 16  1  0
 16 17  1  0
 17 18  1  0
 18 19  1  0
 19 20  1  0
 20 21  1  0
 21 22  1  0
 22 23  1  0
 23 24  1  0
 14 25  1  0
 25 26  1  0
  7 27  1  0
 27 28  2  0
 28  4  1  0
 26 11  2  0
 24 19  1  0
  1 29  1  0
  1 30  1  0
  1 31  1  0
  3 32  1  0
  3 33  1  0
  3 34  1  0
  5 35  1  0
  6 36  1  0
  8 37  1  0
 12 38  1  0
 16 39  1  0
 16 40  1  0
 17 41  1  0
 17 42  1  0
 18 43  1  0
 18 44  1  0
 20 45  1  0
 20 46  1  0
 21 47  1  0
 21 48  1  0
 23 49  1  0
 23 50  1  0
 24 51  1  0
 24 52  1  0
 26 53  1  0
 27 54  1  0
 28 55  1  0
M  CHG  1  25  -1
M  END
>  <UniqueID>  (58) 
54

>  <SMILES>  (58) 
CN(C)c1ccc(NC(=O)c2cnc(=NCCCN3CCOCC3)[n-]c2)cc1

>  <Energy>  (58) 
72.01724570687833

>  <Genealogy>  (58) 
CN(C)c1ccc(NC(=O)c2cnc(=NCCCN3CCOCC3)[n-]c2)cc1 (protonated)
CN(C)c1ccc(NC(=O)c2cnc(=NCCCN3CCOCC3)[n-]c2)cc1 (3D coordinates assigned)
CN(C)c1ccc(NC(=O)c2cnc(=NCCCN3CCOCC3)[n-]c2)cc1 (nonaromatic ring conformer: 72.01724570687833 kcal/mol)

>  <smiles>  (58) 
CN(C)c1ccc(NC(=O)c2cnc(=NCCCN3CCOCC3)[nH]c2)cc1

>  <score_type>  (58) 
oracle

>  <origin>  (58) 
adg

>  <m_score__min__energy>  (58) 
-8.7200000000000006

>  <m_primary>  (58) 
energy

$$$$
58:0
     RDKit          3D

 47 49  0  0  0  0  0  0  0  0999 V2000
   59.2000   35.7470   44.5180 O   0  0  0  0  0  0  0  0  0  0  0  0
   59.2700   34.7950   45.3440 C   0  0  0  0  0  0  0  0  0  0  0  0
   59.9910   35.0300   46.6390 C   0  0  0  0  0  0  0  0  0  0  0  0
   61.3410   34.5920   46.5160 O   0  0  0  0  0  0  0  0  0  0  0  0
   61.9820   33.7330   47.4200 C   0  0  0  0  0  0  0  0  0  0  0  0
   63.1740   33.0560   47.1050 C   0  0  0  0  0  0  0  0  0  0  0  0
   63.7740   32.2090   48.0430 C   0  0  0  0  0  0  0  0  0  0  0  0
   63.1970   32.0250   49.3120 C   0  0  0  0  0  0  0  0  0  0  0  0
   63.8130   31.1570   50.2810 N   0  0  0  0  0  0  0  0  0  0  0  0
   65.0070   31.3190   50.6130 O   0  0  0  0  0  0  0  0  0  0  0  0
   63.1010   30.1270   50.8500 O   0  0  0  0  0  0  0  0  0  0  0  0
   62.0080   32.7060   49.6220 C   0  0  0  0  0  0  0  0  0  0  0  0
   61.4080   33.5480   48.6830 C   0  0  0  0  0  0  0  0  0  0  0  0
   58.6670   33.4780   45.0010 C   0  0  0  0  0  0  0  0  0  0  0  0
   58.3780   33.1270   43.6670 C   0  0  0  0  0  0  0  0  0  0  0  0
   57.7750   31.9030   43.3700 C   0  0  0  0  0  0  0  0  0  0  0  0
   57.4420   31.0100   44.3940 C   0  0  0  0  0  0  0  0  0  0  0  0
   56.5700   29.5300   44.0060 S   0  0  0  0  0  0  0  0  0  0  0  0
   55.9380   29.6320   42.6460 O   0  0  0  0  0  0  0  0  0  0  0  0
   55.4860   29.3290   45.0260 O   0  0  0  0  0  0  0  0  0  0  0  0
   57.6540   28.1670   44.0540 N   0  0  0  0  0  0  0  0  0  0  0  0
   57.8090   27.6500   45.4160 C   0  0  0  0  0  0  0  0  0  0  0  0
   58.8270   28.4470   46.1890 C   0  0  0  0  0  0  0  0  0  0  0  0
   59.9270   29.0210   45.5280 C   0  0  0  0  0  0  0  0  0  0  0  0
   60.8940   29.7240   46.2520 C   0  0  0  0  0  0  0  0  0  0  0  0
   60.7670   29.8700   47.6350 C   0  0  0  0  0  0  0  0  0  0  0  0
   59.6660   29.3200   48.2980 C   0  0  0  0  0  0  0  0  0  0  0  0
   58.6970   28.6150   47.5790 C   0  0  0  0  0  0  0  0  0  0  0  0
   57.7520   31.3340   45.7190 C   0  0  0  0  0  0  0  0  0  0  0  0
   58.3590   32.5570   46.0210 C   0  0  0  0  0  0  0  0  0  0  0  0
   59.9740   36.1034   46.8788 H   0  0  0  0  0  0  0  0  0  0  0  0
   59.4943   34.4672   47.4431 H   0  0  0  0  0  0  0  0  0  0  0  0
   63.6366   33.1932   46.1165 H   0  0  0  0  0  0  0  0  0  0  0  0
   64.7049   31.6826   47.7856 H   0  0  0  0  0  0  0  0  0  0  0  0
   61.5461   32.5751   50.6117 H   0  0  0  0  0  0  0  0  0  0  0  0
   60.4747   34.0711   48.9387 H   0  0  0  0  0  0  0  0  0  0  0  0
   58.6295   33.8229   42.8531 H   0  0  0  0  0  0  0  0  0  0  0  0
   57.5604   31.6393   42.3239 H   0  0  0  0  0  0  0  0  0  0  0  0
   56.8402   27.7072   45.9338 H   0  0  0  0  0  0  0  0  0  0  0  0
   58.1557   26.6078   45.3555 H   0  0  0  0  0  0  0  0  0  0  0  0
   60.0270   28.9165   44.4375 H   0  0  0  0  0  0  0  0  0  0  0  0
   61.7574   30.1635   45.7310 H   0  0  0  0  0  0  0  0  0  0  0  0
   61.5334   30.4179   48.2028 H   0  0  0  0  0  0  0  0  0  0  0  0
   59.5623   29.4422   49.3863 H   0  0  0  0  0  0  0  0  0  0  0  0
   57.8284   28.1895   48.1029 H   0  0  0  0  0  0  0  0  0  0  0  0
   57.5175   30.6243   46.5261 H   0  0  0  0  0  0  0  0  0  0  0  0
   58.5985   32.8023   47.0662 H   0  0  0  0  0  0  0  0  0  0  0  0
  1  2  2  0
  2  3  1  0
  3  4  1  0
  4  5  1  0
  5  6  2  0
  6  7  1  0
  7  8  2  0
  8  9  1  0
  9 10  2  0
  9 11  1  0
  8 12  1  0
 12 13  2  0
  2 14  1  0
 14 15  2  0
 15 16  1  0
 16 17  2  0
 17 18  1  0
 18 19  2  0
 18 20  2  0
 18 21  1  0
 21 22  1  0
 22 23  1  0
 23 24  2  0
 24 25  1  0
 25 26  2  0
 26 27  1  0
 27 28  2  0
 17 29  1  0
 29 30  2  0
 13  5  1  0
 30 14  1  0
 28 23  1  0
  3 31  1  0
  3 32  1  0
  6 33  1  0
  7 34  1  0
 12 35  1  0
 13 36  1  0
 15 37  1  0
 16 38  1  0
 22 39  1  0
 22 40  1  0
 24 41  1  0
 25 42  1  0
 26 43  1  0
 27 44  1  0
 28 45  1  0
 29 46  1  0
 30 47  1  0
M  CHG  3   9   1  11  -1  21  -1
M  END
>  <UniqueID>  (59) 
55

>  <SMILES>  (59) 
O=C(COc1ccc([N+](=O)[O-])cc1)c1ccc(S(=O)(=O)[N-]Cc2ccccc2)cc1

>  <Energy>  (59) 
45.37432552720541

>  <Genealogy>  (59) 
O=C(COc1ccc([N+](=O)[O-])cc1)c1ccc(S(=O)(=O)[N-]Cc2ccccc2)cc1 (protonated)
O=C(COc1ccc([N+](=O)[O-])cc1)c1ccc(S(=O)(=O)[N-]Cc2ccccc2)cc1 (3D coordinates assigned)
O=C(COc1ccc([N+](=O)[O-])cc1)c1ccc(S(=O)(=O)[N-]Cc2ccccc2)cc1 (optimized conformer: 45.37432552720541 kcal/mol)

>  <smiles>  (59) 
O=C(COc1ccc([N+](=O)[O-])cc1)c1ccc(S(=O)(=O)NCc2ccccc2)cc1

>  <score_type>  (59) 
oracle

>  <origin>  (59) 
adg

>  <m_score__min__energy>  (59) 
-10.140000000000001

>  <m_primary>  (59) 
energy

$$$$
59:0
     RDKit          3D

 33 34  0  0  1  0  0  0  0  0999 V2000
   59.6400   34.9670   46.8130 C   0  0  0  0  0  0  0  0  0  0  0  0
   58.9550   33.8060   46.1860 C   0  0  0  0  0  0  0  0  0  0  0  0
   57.6500   33.9900   45.7830 C   0  0  0  0  0  0  0  0  0  0  0  0
   57.0130   32.9230   45.2040 C   0  0  0  0  0  0  0  0  0  0  0  0
   57.6770   31.7240   45.0440 C   0  0  0  0  0  0  0  0  0  0  0  0
   56.9800   30.5990   44.4240 C   0  0  0  0  0  0  0  0  0  0  0  0
   57.5640   29.9080   43.3740 O   0  0  0  0  0  0  0  0  0  0  0  0
   55.8070   30.2390   44.8510 N   0  0  0  0  0  0  0  0  0  0  0  0
   55.3190   28.9620   44.6340 O   0  0  0  0  0  0  0  0  0  0  0  0
   59.0050   31.5560   45.4600 C   0  0  0  0  0  0  0  0  0  0  0  0
   59.5670   30.3360   45.2570 O   0  0  0  0  0  0  0  0  0  0  0  0
   59.8480   29.3520   46.2080 C   0  0  0  0  0  0  0  0  0  0  0  0
   58.9570   28.1970   46.0060 C   0  0  0  0  0  0  0  0  0  0  0  0
   58.9270   27.6250   44.7480 C   0  0  0  0  0  0  0  0  0  0  0  0
   58.1420   26.5420   44.4750 C   0  0  0  0  0  0  0  0  0  0  0  0
   57.3480   25.9840   45.4570 C   0  0  0  0  0  0  0  0  0  0  0  0
   56.5700   24.9090   45.1790 F   0  0  0  0  0  0  0  0  0  0  0  0
   57.3490   26.5310   46.7400 C   0  0  0  0  0  0  0  0  0  0  0  0
   58.1640   27.6310   46.9690 C   0  0  0  0  0  0  0  0  0  0  0  0
   59.5770   32.6270   46.0180 N   0  0  0  0  0  0  0  0  0  0  0  0
   59.5867   34.8766   47.9080 H   0  0  0  0  0  0  0  0  0  0  0  0
   60.6936   34.9853   46.4975 H   0  0  0  0  0  0  0  0  0  0  0  0
   59.1465   35.8981   46.4975 H   0  0  0  0  0  0  0  0  0  0  0  0
   57.1397   34.9547   45.9205 H   0  0  0  0  0  0  0  0  0  0  0  0
   55.9709   33.0228   44.8664 H   0  0  0  0  0  0  0  0  0  0  0  0
   58.5800   29.7380   43.3710 H   0  0  0  0  0  0  0  0  0  0  0  0
   55.8590   28.3420   44.0200 H   0  0  0  0  0  0  0  0  0  0  0  0
   60.8943   29.0295   46.1021 H   0  0  0  0  0  0  0  0  0  0  0  0
   59.6882   29.7633   47.2156 H   0  0  0  0  0  0  0  0  0  0  0  0
   59.5500   28.0523   43.9484 H   0  0  0  0  0  0  0  0  0  0  0  0
   58.1421   26.1100   43.4634 H   0  0  0  0  0  0  0  0  0  0  0  0
   56.7265   26.1061   47.5413 H   0  0  0  0  0  0  0  0  0  0  0  0
   58.1736   28.0715   47.9769 H   0  0  0  0  0  0  0  0  0  0  0  0
  1  2  1  0
  2  3  2  0
  3  4  1  0
  4  5  2  0
  5  6  1  0
  6  7  1  0
  6  8  2  0
  8  9  1  0
  5 10  1  0
 10 11  1  0
 11 12  1  0
 12 13  1  0
 13 14  2  0
 14 15  1  0
 15 16  2  0
 16 17  1  0
 16 18  1  0
 18 19  2  0
 10 20  2  0
 20  2  1  0
 19 13  1  0
  1 21  1  0
  1 22  1  0
  1 23  1  0
  3 24  1  0
  4 25  1  0
  7 26  1  0
  9 27  1  0
 12 28  1  0
 12 29  1  0
 14 30  1  0
 15 31  1  0
 18 32  1  0
 19 33  1  0
M  END
>  <smiles>  (60) 
Cc1ccc(C(O)=NO)c(OCc2ccc(F)cc2)n1

>  <score_type>  (60) 
oracle

>  <origin>  (60) 
adg

>  <m_score__min__energy>  (60) 
-8.1799999999999997

>  <m_primary>  (60) 
energy

$$$$
60:0
     RDKit          3D

 43 45  0  0  0  0  0  0  0  0999 V2000
   60.2580   29.8050   48.4890 C   0  0  0  0  0  0  0  0  0  0  0  0
   60.8490   31.0990   48.4090 O   0  0  0  0  0  0  0  0  0  0  0  0
   60.3860   32.1310   47.5810 C   0  0  0  0  0  0  0  0  0  0  0  0
   61.1940   33.2230   47.2110 C   0  0  0  0  0  0  0  0  0  0  0  0
   60.6870   34.2220   46.3750 C   0  0  0  0  0  0  0  0  0  0  0  0
   59.3740   34.1480   45.9070 C   0  0  0  0  0  0  0  0  0  0  0  0
   58.5510   33.0740   46.2810 C   0  0  0  0  0  0  0  0  0  0  0  0
   57.1450   32.9700   45.7470 C   0  0  0  0  0  0  0  0  0  0  0  0
   57.1580   32.4640   44.3650 N   0  0  0  0  0  0  0  0  0  0  0  0
   58.1630   31.4030   44.1750 C   0  0  0  0  0  0  0  0  0  0  0  0
   57.6710   30.0600   44.6760 C   0  0  0  0  0  0  0  0  0  0  0  0
   58.6010   29.0940   45.0900 C   0  0  0  0  0  0  0  0  0  0  0  0
   58.1620   27.8580   45.5780 C   0  0  0  0  0  0  0  0  0  0  0  0
   59.0720   26.8750   45.9930 C   0  0  0  0  0  0  0  0  0  0  0  0
   58.6050   25.6490   46.4750 C   0  0  0  0  0  0  0  0  0  0  0  0
   57.2260   25.3980   46.5640 C   0  0  0  0  0  0  0  0  0  0  0  0
   56.7310   24.0660   47.0470 C   0  0  0  0  0  0  0  0  0  0  0  0
   56.3150   26.3750   46.1340 C   0  0  0  0  0  0  0  0  0  0  0  0
   56.7770   27.6050   45.6490 C   0  0  0  0  0  0  0  0  0  0  0  0
   55.8920   28.5540   45.2460 N   0  0  0  0  0  0  0  0  0  0  0  0
   56.2970   29.7610   44.7690 C   0  0  0  0  0  0  0  0  0  0  0  0
   55.4300   30.6050   44.4180 O   0  0  0  0  0  0  0  0  0  0  0  0
   59.0690   32.0640   47.1080 C   0  0  0  0  0  0  0  0  0  0  0  0
   60.1301   29.5250   49.5450 H   0  0  0  0  0  0  0  0  0  0  0  0
   59.2768   29.8186   47.9919 H   0  0  0  0  0  0  0  0  0  0  0  0
   60.9108   29.0724   47.9919 H   0  0  0  0  0  0  0  0  0  0  0  0
   62.2277   33.2903   47.5810 H   0  0  0  0  0  0  0  0  0  0  0  0
   61.3251   35.0697   46.0848 H   0  0  0  0  0  0  0  0  0  0  0  0
   58.9831   34.9334   45.2434 H   0  0  0  0  0  0  0  0  0  0  0  0
   56.5668   32.2809   46.3800 H   0  0  0  0  0  0  0  0  0  0  0  0
   56.6842   33.9688   45.7573 H   0  0  0  0  0  0  0  0  0  0  0  0
   56.2170   32.0600   44.1450 H   0  0  0  0  0  0  0  0  0  0  0  0
   57.3400   33.2500   43.6990 H   0  0  0  0  0  0  0  0  0  0  0  0
   58.3932   31.3196   43.1026 H   0  0  0  0  0  0  0  0  0  0  0  0
   59.0582   31.6748   44.7536 H   0  0  0  0  0  0  0  0  0  0  0  0
   59.6782   29.3090   45.0308 H   0  0  0  0  0  0  0  0  0  0  0  0
   60.1534   27.0689   45.9392 H   0  0  0  0  0  0  0  0  0  0  0  0
   59.3223   24.8755   46.7867 H   0  0  0  0  0  0  0  0  0  0  0  0
   56.7263   24.0534   48.1469 H   0  0  0  0  0  0  0  0  0  0  0  0
   55.7100   23.8970   46.6740 H   0  0  0  0  0  0  0  0  0  0  0  0
   57.3938   23.2713   46.6740 H   0  0  0  0  0  0  0  0  0  0  0  0
   55.2344   26.1741   46.1780 H   0  0  0  0  0  0  0  0  0  0  0  0
   58.4335   31.2107   47.3875 H   0  0  0  0  0  0  0  0  0  0  0  0
  1  2  1  0
  2  3  1  0
  3  4  2  0
  4  5  1  0
  5  6  2  0
  6  7  1  0
  7  8  1  0
  8  9  1  0
  9 10  1  0
 10 11  1  0
 11 12  2  0
 12 13  1  0
 13 14  2  0
 14 15  1  0
 15 16  2  0
 16 17  1  0
 16 18  1  0
 18 19  2  0
 19 20  1  0
 20 21  1  0
 21 22  2  0
  7 23  2  0
 23  3  1  0
 21 11  1  0
 19 13  1  0
  1 24  1  0
  1 25  1  0
  1 26  1  0
  4 27  1  0
  5 28  1  0
  6 29  1  0
  8 30  1  0
  8 31  1  0
  9 32  1  0
  9 33  1  0
 10 34  1  0
 10 35  1  0
 12 36  1  0
 14 37  1  0
 15 38  1  0
 17 39  1  0
 17 40  1  0
 17 41  1  0
 18 42  1  0
 23 43  1  0
M  CHG  2   9   1  20  -1
M  END
>  <UniqueID>  (61) 
56

>  <SMILES>  (61) 
COc1cccc(C[NH2+]Cc2cc3ccc(C)cc3[n-]c2=O)c1

>  <Energy>  (61) 
46.977508590619436

>  <Genealogy>  (61) 
COc1cccc(C[NH2+]Cc2cc3ccc(C)cc3[n-]c2=O)c1 (protonated)
COc1cccc(C[NH2+]Cc2cc3ccc(C)cc3[n-]c2=O)c1 (3D coordinates assigned)
COc1cccc(C[NH2+]Cc2cc3ccc(C)cc3[n-]c2=O)c1 (optimized conformer: 46.977508590619436 kcal/mol)

>  <smiles>  (61) 
COc1cccc(CNCc2cc3ccc(C)cc3[nH]c2=O)c1

>  <score_type>  (61) 
oracle

>  <origin>  (61) 
adg

>  <m_score__min__energy>  (61) 
-8.1899999999999995

>  <m_primary>  (61) 
energy

$$$$
61:0
     RDKit          3D

 28 29  0  0  0  0  0  0  0  0999 V2000
   58.2800   30.9020   46.6280 O   0  0  0  0  0  0  0  0  0  0  0  0
   58.0450   29.7180   46.2690 C   0  0  0  0  0  0  0  0  0  0  0  0
   58.2110   28.7000   47.1490 N   0  0  0  0  0  0  0  0  0  0  0  0
   57.9650   27.4110   46.7970 C   0  0  0  0  0  0  0  0  0  0  0  0
   58.1560   26.5030   47.6510 O   0  0  0  0  0  0  0  0  0  0  0  0
   57.5220   27.1080   45.5290 N   0  0  0  0  0  0  0  0  0  0  0  0
   57.2860   25.7000   45.1260 C   0  0  1  0  0  0  0  0  0  0  0  0
   58.7090   24.6280   45.6110 S   0  0  0  0  0  0  0  0  0  0  0  0
   57.8380   23.0620   45.2850 C   0  0  0  0  0  0  0  0  0  0  0  0
   56.6850   22.8310   46.2850 C   0  0  1  0  0  0  0  0  0  0  0  0
   57.1160   22.0780   47.3930 O   0  0  0  0  0  0  0  0  0  0  0  0
   55.9700   24.1300   46.7450 C   0  0  1  0  0  0  0  0  0  0  0  0
   56.6060   24.6730   47.8750 O   0  0  0  0  0  0  0  0  0  0  0  0
   55.8910   25.1790   45.6080 C   0  0  1  0  0  0  0  0  0  0  0  0
   55.0730   26.2530   46.0020 O   0  0  0  0  0  0  0  0  0  0  0  0
   57.3690   28.1210   44.6190 C   0  0  0  0  0  0  0  0  0  0  0  0
   57.6200   29.4450   44.9740 C   0  0  0  0  0  0  0  0  0  0  0  0
   57.4540   30.4420   44.0690 F   0  0  0  0  0  0  0  0  0  0  0  0
   57.2358   25.6535   44.0281 H   0  0  0  0  0  0  0  0  0  0  0  0
   57.4257   23.0890   44.2656 H   0  0  0  0  0  0  0  0  0  0  0  0
   58.5591   22.2389   45.3970 H   0  0  0  0  0  0  0  0  0  0  0  0
   55.9296   22.2558   45.7295 H   0  0  0  0  0  0  0  0  0  0  0  0
   57.6930   22.6630   47.9500 H   0  0  0  0  0  0  0  0  0  0  0  0
   54.9390   23.8588   47.0159 H   0  0  0  0  0  0  0  0  0  0  0  0
   56.7510   25.6380   47.6910 H   0  0  0  0  0  0  0  0  0  0  0  0
   55.4488   24.6648   44.7420 H   0  0  0  0  0  0  0  0  0  0  0  0
   55.1510   26.3330   46.9890 H   0  0  0  0  0  0  0  0  0  0  0  0
   57.0438   27.8860   43.5948 H   0  0  0  0  0  0  0  0  0  0  0  0
  1  2  2  0
  2  3  1  0
  3  4  1  0
  4  5  2  0
  4  6  1  0
  6  7  1  0
  7  8  1  0
  8  9  1  0
  9 10  1  0
 10 11  1  0
 10 12  1  0
 12 13  1  0
 12 14  1  0
 14 15  1  0
  6 16  1  0
 16 17  2  0
 17 18  1  0
 17  2  1  0
 14  7  1  0
  7 19  1  6
  9 20  1  0
  9 21  1  0
 10 22  1  6
 11 23  1  0
 12 24  1  1
 13 25  1  0
 14 26  1  6
 15 27  1  0
 16 28  1  0
M  CHG  1   3  -1
M  END
>  <UniqueID>  (62) 
57

>  <SMILES>  (62) 
O=c1[n-]c(=O)n([C@H]2SC[C@@H](O)C(O)C2O)cc1F

>  <Energy>  (62) 
41.34258245180971

>  <Genealogy>  (62) 
O=c1[n-]c(=O)n(C2SCC(O)C(O)C2O)cc1F (protonated)
O=c1[n-]c(=O)n([C@H]2SC[C@@H](O)C(O)C2O)cc1F (chirality)
O=c1[n-]c(=O)n([C@H]2SC[C@@H](O)C(O)C2O)cc1F (3D coordinates assigned)
O=c1[n-]c(=O)n([C@H]2SC[C@@H](O)C(O)C2O)cc1F (nonaromatic ring conformer: 41.34258245180971 kcal/mol)

>  <smiles>  (62) 
O=c1[nH]c(=O)n(C2SCC(O)C(O)C2O)cc1F

>  <score_type>  (62) 
oracle

>  <origin>  (62) 
adg

>  <m_score__min__energy>  (62) 
-7.5700000000000003

>  <m_primary>  (62) 
energy

$$$$
62:0
     RDKit          3D

 47 49  0  0  0  0  0  0  0  0999 V2000
   59.0380   31.8210   50.5690 C   0  0  0  0  0  0  0  0  0  0  0  0
   59.4560   33.0700   50.0290 O   0  0  0  0  0  0  0  0  0  0  0  0
   59.2770   33.4650   48.6940 C   0  0  0  0  0  0  0  0  0  0  0  0
   60.0280   34.5470   48.2190 C   0  0  0  0  0  0  0  0  0  0  0  0
   59.9270   34.9480   46.8860 C   0  0  0  0  0  0  0  0  0  0  0  0
   59.0580   34.2870   46.0160 C   0  0  0  0  0  0  0  0  0  0  0  0
   58.2800   33.2090   46.4770 C   0  0  0  0  0  0  0  0  0  0  0  0
   57.3750   32.5330   45.6470 O   0  0  0  0  0  0  0  0  0  0  0  0
   57.4370   32.5220   44.2200 C   0  0  0  0  0  0  0  0  0  0  0  0
   58.0250   31.1960   43.7320 C   0  0  0  0  0  0  0  0  0  0  0  0
   58.7090   30.5300   44.8300 N   0  0  0  0  0  0  0  0  0  0  0  0
   59.1230   29.1610   44.7690 C   0  0  0  0  0  0  0  0  0  0  0  0
   60.2900   28.8650   44.3920 O   0  0  0  0  0  0  0  0  0  0  0  0
   58.1770   28.0910   45.1310 C   0  0  0  0  0  0  0  0  0  0  0  0
   56.8710   28.2610   45.5520 C   0  0  0  0  0  0  0  0  0  0  0  0
   56.3390   26.9910   45.6130 C   0  0  0  0  0  0  0  0  0  0  0  0
   55.0360   26.7060   46.0000 O   0  0  0  0  0  0  0  0  0  0  0  0
   57.2510   26.0630   45.2650 N   0  0  0  0  0  0  0  0  0  0  0  0
   57.0400   24.6460   45.0940 C   0  0  0  0  0  0  0  0  0  0  0  0
   56.9340   24.0990   43.8070 C   0  0  0  0  0  0  0  0  0  0  0  0
   56.6700   22.7350   43.6330 C   0  0  0  0  0  0  0  0  0  0  0  0
   56.4870   21.9020   44.7460 C   0  0  0  0  0  0  0  0  0  0  0  0
   56.2360   20.4320   44.5520 C   0  0  0  0  0  0  0  0  0  0  0  0
   56.6000   22.4420   46.0350 C   0  0  0  0  0  0  0  0  0  0  0  0
   56.8640   23.8060   46.2090 C   0  0  0  0  0  0  0  0  0  0  0  0
   58.3870   26.7310   44.9690 C   0  0  0  0  0  0  0  0  0  0  0  0
   58.3820   32.8150   47.8210 C   0  0  0  0  0  0  0  0  0  0  0  0
   59.0552   31.8724   51.6677 H   0  0  0  0  0  0  0  0  0  0  0  0
   58.0162   31.5978   50.2283 H   0  0  0  0  0  0  0  0  0  0  0  0
   59.7196   31.0277   50.2283 H   0  0  0  0  0  0  0  0  0  0  0  0
   60.7025   35.0849   48.9014 H   0  0  0  0  0  0  0  0  0  0  0  0
   60.5347   35.7884   46.5193 H   0  0  0  0  0  0  0  0  0  0  0  0
   58.9813   34.6098   44.9672 H   0  0  0  0  0  0  0  0  0  0  0  0
   56.4234   32.6437   43.8104 H   0  0  0  0  0  0  0  0  0  0  0  0
   58.0785   33.3484   43.8800 H   0  0  0  0  0  0  0  0  0  0  0  0
   57.2148   30.5511   43.3609 H   0  0  0  0  0  0  0  0  0  0  0  0
   58.7419   31.3916   42.9209 H   0  0  0  0  0  0  0  0  0  0  0  0
   56.3643   29.2084   45.7881 H   0  0  0  0  0  0  0  0  0  0  0  0
   57.0593   24.7469   42.9269 H   0  0  0  0  0  0  0  0  0  0  0  0
   56.6059   22.3149   42.6184 H   0  0  0  0  0  0  0  0  0  0  0  0
   56.1523   19.9417   45.5331 H   0  0  0  0  0  0  0  0  0  0  0  0
   55.3007   20.2907   43.9905 H   0  0  0  0  0  0  0  0  0  0  0  0
   57.0714   19.9884   43.9905 H   0  0  0  0  0  0  0  0  0  0  0  0
   56.4807   21.7910   46.9136 H   0  0  0  0  0  0  0  0  0  0  0  0
   56.9343   24.2237   47.2242 H   0  0  0  0  0  0  0  0  0  0  0  0
   59.3319   26.2675   44.6491 H   0  0  0  0  0  0  0  0  0  0  0  0
   57.7572   31.9910   48.1959 H   0  0  0  0  0  0  0  0  0  0  0  0
  1  2  1  0
  2  3  1  0
  3  4  2  0
  4  5  1  0
  5  6  2  0
  6  7  1  0
  7  8  1  0
  8  9  1  0
  9 10  1  0
 10 11  1  0
 11 12  1  0
 12 13  2  0
 12 14  1  0
 14 15  1  0
 15 16  2  0
 16 17  1  0
 16 18  1  0
 18 19  1  0
 19 20  2  0
 20 21  1  0
 21 22  2  0
 22 23  1  0
 22 24  1  0
 24 25  2  0
 18 26  1  0
  7 27  2  0
 27  3  1  0
 26 14  2  0
 25 19  1  0
  1 28  1  0
  1 29  1  0
  1 30  1  0
  4 31  1  0
  5 32  1  0
  6 33  1  0
  9 34  1  0
  9 35  1  0
 10 36  1  0
 10 37  1  0
 15 38  1  0
 20 39  1  0
 21 40  1  0
 23 41  1  0
 23 42  1  0
 23 43  1  0
 24 44  1  0
 25 45  1  0
 26 46  1  0
 27 47  1  0
M  CHG  2  11  -1  17  -1
M  END
>  <UniqueID>  (63) 
58

>  <SMILES>  (63) 
COc1cccc(OCC[N-]C(=O)c2cc([O-])n(-c3ccc(C)cc3)c2)c1

>  <Energy>  (63) 
74.59071395704312

>  <Genealogy>  (63) 
COc1cccc(OCC[N-]C(=O)c2cc([O-])n(-c3ccc(C)cc3)c2)c1 (protonated)
COc1cccc(OCC[N-]C(=O)c2cc([O-])n(-c3ccc(C)cc3)c2)c1 (3D coordinates assigned)
COc1cccc(OCC[N-]C(=O)c2cc([O-])n(-c3ccc(C)cc3)c2)c1 (optimized conformer: 74.59071395704312 kcal/mol)

>  <smiles>  (63) 
COc1cccc(OCCNC(=O)c2cc(O)n(-c3ccc(C)cc3)c2)c1

>  <score_type>  (63) 
oracle

>  <origin>  (63) 
adg

>  <m_score__min__energy>  (63) 
-11.75

>  <m_primary>  (63) 
energy

$$$$
63:0
     RDKit          3D

 48 51  0  0  0  0  0  0  0  0999 V2000
   57.0910   30.9790   51.8910 C   0  0  0  0  0  0  0  0  0  0  0  0
   57.7500   29.8200   51.3980 O   0  0  0  0  0  0  0  0  0  0  0  0
   58.7850   29.8800   50.4610 C   0  0  0  0  0  0  0  0  0  0  0  0
   60.1020   30.0130   50.8990 C   0  0  0  0  0  0  0  0  0  0  0  0
   61.1300   30.0850   49.9440 C   0  0  0  0  0  0  0  0  0  0  0  0
   62.4770   30.2230   50.3090 O   0  0  0  0  0  0  0  0  0  0  0  0
   62.9330   30.4400   51.6410 C   0  0  0  0  0  0  0  0  0  0  0  0
   60.8150   30.0150   48.6210 N   0  0  0  0  0  0  0  0  0  0  0  0
   59.5230   29.8720   48.2080 C   0  0  0  0  0  0  0  0  0  0  0  0
   59.1890   29.7470   46.7780 C   0  0  0  0  0  0  0  0  0  0  0  0
   59.9320   29.0830   46.0080 O   0  0  0  0  0  0  0  0  0  0  0  0
   57.9700   30.3260   46.2970 N   0  0  0  0  0  0  0  0  0  0  0  0
   57.6370   30.6410   44.9370 C   0  0  0  0  0  0  0  0  0  0  0  0
   56.9680   29.7000   44.1320 C   0  0  0  0  0  0  0  0  0  0  0  0
   56.6720   29.9910   42.8010 C   0  0  0  0  0  0  0  0  0  0  0  0
   57.0480   31.2150   42.2520 C   0  0  0  0  0  0  0  0  0  0  0  0
   57.7280   32.1520   43.0300 C   0  0  0  0  0  0  0  0  0  0  0  0
   58.0380   31.8830   44.3780 C   0  0  0  0  0  0  0  0  0  0  0  0
   58.7500   32.9110   45.1890 C   0  0  0  0  0  0  0  0  0  0  0  0
   59.8120   32.6460   45.9830 N   0  0  0  0  0  0  0  0  0  0  0  0
   60.2800   33.7440   46.6350 C   0  0  0  0  0  0  0  0  0  0  0  0
   61.4490   33.6650   47.5400 C   0  0  0  0  0  0  0  0  0  0  0  0
   62.7560   33.7180   47.0100 C   0  0  0  0  0  0  0  0  0  0  0  0
   62.9610   33.8510   45.6740 F   0  0  0  0  0  0  0  0  0  0  0  0
   63.8650   33.5830   47.8490 C   0  0  0  0  0  0  0  0  0  0  0  0
   63.6900   33.3930   49.2190 C   0  0  0  0  0  0  0  0  0  0  0  0
   62.4060   33.3430   49.7590 C   0  0  0  0  0  0  0  0  0  0  0  0
   61.2830   33.4800   48.9330 C   0  0  0  0  0  0  0  0  0  0  0  0
   59.6960   33.4640   49.6970 Cl  0  0  0  0  0  0  0  0  0  0  0  0
   59.5880   34.9220   46.3620 C   0  0  0  0  0  0  0  0  0  0  0  0
   58.3590   34.5490   45.2780 S   0  0  0  0  0  0  0  0  0  0  0  0
   58.5250   29.8090   49.1300 N   0  0  0  0  0  0  0  0  0  0  0  0
   57.0988   30.9653   52.9909 H   0  0  0  0  0  0  0  0  0  0  0  0
   57.6129   31.8782   51.5318 H   0  0  0  0  0  0  0  0  0  0  0  0
   56.0514   30.9904   51.5318 H   0  0  0  0  0  0  0  0  0  0  0  0
   60.3322   30.0607   51.9736 H   0  0  0  0  0  0  0  0  0  0  0  0
   62.1747   30.0792   52.3515 H   0  0  0  0  0  0  0  0  0  0  0  0
   63.8741   29.8932   51.8000 H   0  0  0  0  0  0  0  0  0  0  0  0
   63.1023   31.5152   51.8000 H   0  0  0  0  0  0  0  0  0  0  0  0
   61.5890   30.0620   47.9200 H   0  0  0  0  0  0  0  0  0  0  0  0
   56.6765   28.7278   44.5561 H   0  0  0  0  0  0  0  0  0  0  0  0
   56.1404   29.2525   42.1829 H   0  0  0  0  0  0  0  0  0  0  0  0
   56.8082   31.4429   41.2029 H   0  0  0  0  0  0  0  0  0  0  0  0
   58.0260   33.1131   42.5856 H   0  0  0  0  0  0  0  0  0  0  0  0
   64.8799   33.6268   47.4271 H   0  0  0  0  0  0  0  0  0  0  0  0
   64.5663   33.2824   49.8746 H   0  0  0  0  0  0  0  0  0  0  0  0
   62.2737   33.1950   50.8409 H   0  0  0  0  0  0  0  0  0  0  0  0
   59.8064   35.9158   46.7800 H   0  0  0  0  0  0  0  0  0  0  0  0
  1  2  1  0
  2  3  1  0
  3  4  2  0
  4  5  1  0
  5  6  1  0
  6  7  1  0
  5  8  2  0
  8  9  1  0
  9 10  1  0
 10 11  2  0
 10 12  1  0
 12 13  1  0
 13 14  2  0
 14 15  1  0
 15 16  2  0
 16 17  1  0
 17 18  2  0
 18 19  1  0
 19 20  2  0
 20 21  1  0
 21 22  1  0
 22 23  2  0
 23 24  1  0
 23 25  1  0
 25 26  2  0
 26 27  1  0
 27 28  2  0
 28 29  1  0
 21 30  2  0
 30 31  1  0
  9 32  2  0
 32  3  1  0
 18 13  1  0
 31 19  1  0
 28 22  1  0
  1 33  1  0
  1 34  1  0
  1 35  1  0
  4 36  1  0
  7 37  1  0
  7 38  1  0
  7 39  1  0
  8 40  1  0
 14 41  1  0
 15 42  1  0
 16 43  1  0
 17 44  1  0
 25 45  1  0
 26 46  1  0
 27 47  1  0
 30 48  1  0
M  CHG  2   8   1  12  -1
M  END
>  <UniqueID>  (64) 
59

>  <SMILES>  (64) 
COc1cc(OC)[nH+]c(C(=O)[N-]c2ccccc2-c2nc(-c3c(F)cccc3Cl)cs2)n1

>  <Energy>  (64) 
88.40558053173456

>  <Genealogy>  (64) 
COc1cc(OC)[nH+]c(C(=O)[N-]c2ccccc2-c2nc(-c3c(F)cccc3Cl)cs2)n1 (protonated)
COc1cc(OC)[nH+]c(C(=O)[N-]c2ccccc2-c2nc(-c3c(F)cccc3Cl)cs2)n1 (3D coordinates assigned)
COc1cc(OC)[nH+]c(C(=O)[N-]c2ccccc2-c2nc(-c3c(F)cccc3Cl)cs2)n1 (optimized conformer: 88.40558053173456 kcal/mol)

>  <smiles>  (64) 
COc1cc(OC)nc(C(=O)Nc2ccccc2-c2nc(-c3c(F)cccc3Cl)cs2)n1

>  <score_type>  (64) 
oracle

>  <origin>  (64) 
adg

>  <m_score__min__energy>  (64) 
-8.25

>  <m_primary>  (64) 
energy

$$$$
64:0
     RDKit          3D

 73 75  0  0  0  0  0  0  0  0999 V2000
   62.8500   31.5640   49.8640 C   0  0  0  0  0  0  0  0  0  0  0  0
   63.4010   32.6230   48.8940 C   0  0  0  0  0  0  0  0  0  0  0  0
   64.7790   33.0880   49.4000 C   0  0  0  0  0  0  0  0  0  0  0  0
   63.5250   31.9970   47.4900 C   0  0  0  0  0  0  0  0  0  0  0  0
   62.4670   33.7140   48.8800 O   0  0  0  0  0  0  0  0  0  0  0  0
   61.7240   34.1550   47.7700 C   0  0  0  0  0  0  0  0  0  0  0  0
   62.2190   34.1570   46.6120 O   0  0  0  0  0  0  0  0  0  0  0  0
   60.3780   34.5980   47.9420 N   0  0  0  0  0  0  0  0  0  0  0  0
   59.2740   33.7010   48.2760 C   0  0  0  0  0  0  0  0  0  0  0  0
   59.5870   32.9410   49.5270 C   0  0  0  0  0  0  0  0  0  0  0  0
   60.0430   33.5550   50.5310 O   0  0  0  0  0  0  0  0  0  0  0  0
   59.3810   31.5240   49.5690 N   0  0  0  0  0  0  0  0  0  0  0  0
   59.7850   30.6190   48.5330 C   0  0  0  0  0  0  0  0  0  0  0  0
   60.4740   31.1040   47.4200 C   0  0  0  0  0  0  0  0  0  0  0  0
   60.8580   30.2210   46.4080 C   0  0  0  0  0  0  0  0  0  0  0  0
   60.5340   28.8670   46.5070 C   0  0  0  0  0  0  0  0  0  0  0  0
   59.8120   28.4120   47.6240 C   0  0  0  0  0  0  0  0  0  0  0  0
   59.3580   27.0140   47.7150 C   0  0  0  0  0  0  0  0  0  0  0  0
   59.5760   26.3630   48.7720 O   0  0  0  0  0  0  0  0  0  0  0  0
   58.6690   26.3940   46.6180 N   0  0  0  0  0  0  0  0  0  0  0  0
   58.0310   27.1020   45.5000 C   0  0  1  0  0  0  0  0  0  0  0  0
   58.1730   26.3500   44.1580 C   0  0  0  0  0  0  0  0  0  0  0  0
   57.4470   25.0270   44.1850 C   0  0  0  0  0  0  0  0  0  0  0  0
   57.3560   24.2870   45.3760 C   0  0  0  0  0  0  0  0  0  0  0  0
   56.7200   23.0400   45.3890 C   0  0  0  0  0  0  0  0  0  0  0  0
   56.1770   22.5210   44.2090 C   0  0  0  0  0  0  0  0  0  0  0  0
   55.5330   21.2880   44.2240 O   0  0  0  0  0  0  0  0  0  0  0  0
   56.2770   23.2430   43.0160 C   0  0  0  0  0  0  0  0  0  0  0  0
   56.9120   24.4890   43.0000 C   0  0  0  0  0  0  0  0  0  0  0  0
   56.5880   27.3760   45.8240 C   0  0  0  0  0  0  0  0  0  0  0  0
   55.9450   26.5890   46.5760 O   0  0  0  0  0  0  0  0  0  0  0  0
   55.9390   28.5070   45.2290 N   0  0  0  0  0  0  0  0  0  0  0  0
   56.3590   29.0810   43.9610 C   0  0  0  0  0  0  0  0  0  0  0  0
   56.9670   30.4320   44.2120 C   0  0  0  0  0  0  0  0  0  0  0  0
   57.4050   30.7730   45.4980 C   0  0  0  0  0  0  0  0  0  0  0  0
   57.9930   32.0180   45.7380 C   0  0  0  0  0  0  0  0  0  0  0  0
   58.1670   32.9330   44.6880 C   0  0  0  0  0  0  0  0  0  0  0  0
   58.7510   34.2960   44.9590 C   0  0  0  0  0  0  0  0  0  0  0  0
   60.1530   34.1960   45.3600 N   0  0  0  0  0  0  0  0  0  0  0  0
   57.7310   32.5920   43.3960 C   0  0  0  0  0  0  0  0  0  0  0  0
   57.1430   31.3460   43.1590 C   0  0  0  0  0  0  0  0  0  0  0  0
   59.4620   29.2970   48.5990 N   0  0  0  0  0  0  0  0  0  0  0  0
   63.0205   31.8917   50.9001 H   0  0  0  0  0  0  0  0  0  0  0  0
   61.7710   31.4360   49.6928 H   0  0  0  0  0  0  0  0  0  0  0  0
   63.3645   30.6069   49.6928 H   0  0  0  0  0  0  0  0  0  0  0  0
   64.7842   33.0898   50.5000 H   0  0  0  0  0  0  0  0  0  0  0  0
   65.5557   32.4022   49.0307 H   0  0  0  0  0  0  0  0  0  0  0  0
   64.9814   34.1042   49.0307 H   0  0  0  0  0  0  0  0  0  0  0  0
   63.7379   30.9220   47.5853 H   0  0  0  0  0  0  0  0  0  0  0  0
   62.5817   32.1367   46.9416 H   0  0  0  0  0  0  0  0  0  0  0  0
   64.3438   32.4858   46.9416 H   0  0  0  0  0  0  0  0  0  0  0  0
   58.3590   34.2920   48.4290 H   0  0  0  0  0  0  0  0  0  0  0  0
   59.1270   32.9891   47.4504 H   0  0  0  0  0  0  0  0  0  0  0  0
   60.7130   32.1748   47.3404 H   0  0  0  0  0  0  0  0  0  0  0  0
   61.4146   30.5920   45.5348 H   0  0  0  0  0  0  0  0  0  0  0  0
   60.8405   28.1632   45.7191 H   0  0  0  0  0  0  0  0  0  0  0  0
   58.5579   28.0587   45.3689 H   0  0  0  0  0  0  0  0  0  0  0  0
   57.7528   26.9718   43.3538 H   0  0  0  0  0  0  0  0  0  0  0  0
   59.2413   26.1536   43.9841 H   0  0  0  0  0  0  0  0  0  0  0  0
   57.7873   24.6902   46.3041 H   0  0  0  0  0  0  0  0  0  0  0  0
   56.6473   22.4688   46.3263 H   0  0  0  0  0  0  0  0  0  0  0  0
   55.8553   22.8301   42.0877 H   0  0  0  0  0  0  0  0  0  0  0  0
   56.9935   25.0505   42.0576 H   0  0  0  0  0  0  0  0  0  0  0  0
   57.1034   28.4240   43.4875 H   0  0  0  0  0  0  0  0  0  0  0  0
   55.4904   29.1829   43.2938 H   0  0  0  0  0  0  0  0  0  0  0  0
   57.2855   30.0566   46.3241 H   0  0  0  0  0  0  0  0  0  0  0  0
   58.3209   32.2819   46.7543 H   0  0  0  0  0  0  0  0  0  0  0  0
   58.6808   34.9052   44.0458 H   0  0  0  0  0  0  0  0  0  0  0  0
   58.1850   34.7626   45.7787 H   0  0  0  0  0  0  0  0  0  0  0  0
   60.2450   33.4340   46.0670 H   0  0  0  0  0  0  0  0  0  0  0  0
   60.4320   35.0930   45.8180 H   0  0  0  0  0  0  0  0  0  0  0  0
   57.8527   33.3073   42.5693 H   0  0  0  0  0  0  0  0  0  0  0  0
   56.8164   31.0796   42.1430 H   0  0  0  0  0  0  0  0  0  0  0  0
  1  2  1  0
  2  3  1  0
  2  4  1  0
  2  5  1  0
  5  6  1  0
  6  7  2  0
  6  8  1  0
  8  9  1  0
  9 10  1  0
 10 11  2  0
 10 12  1  0
 12 13  1  0
 13 14  2  0
 14 15  1  0
 15 16  2  0
 16 17  1  0
 17 18  1  0
 18 19  2  0
 18 20  1  0
 20 21  1  0
 21 22  1  0
 22 23  1  0
 23 24  2  0
 24 25  1  0
 25 26  2  0
 26 27  1  0
 26 28  1  0
 28 29  2  0
 21 30  1  0
 30 31  2  0
 30 32  1  0
 32 33  1  0
 33 34  1  0
 34 35  2  0
 35 36  1  0
 36 37  2  0
 37 38  1  0
 38 39  1  0
 37 40  1  0
 40 41  2  0
 17 42  2  0
 42 13  1  0
 29 23  1  0
 41 34  1  0
  1 43  1  0
  1 44  1  0
  1 45  1  0
  3 46  1  0
  3 47  1  0
  3 48  1  0
  4 49  1  0
  4 50  1  0
  4 51  1  0
  9 52  1  0
  9 53  1  0
 14 54  1  0
 15 55  1  0
 16 56  1  0
 21 57  1  6
 22 58  1  0
 22 59  1  0
 24 60  1  0
 25 61  1  0
 28 62  1  0
 29 63  1  0
 33 64  1  0
 33 65  1  0
 35 66  1  0
 36 67  1  0
 38 68  1  0
 38 69  1  0
 39 70  1  0
 39 71  1  0
 40 72  1  0
 41 73  1  0
M  CHG  5   8  -1  12  -1  20  -1  27  -1  32  -1
M  END
>  <UniqueID>  (65) 
60

>  <SMILES>  (65) 
CC(C)(C)OC(=O)[N-]CC(=O)[N-]c1cccc(C(=O)[N-][C@@H](Cc2ccc([O-])cc2)C(=O)[N-]Cc2ccc(CN)cc2)n1

>  <Energy>  (65) 
65.90901365953609

>  <Genealogy>  (65) 
CC(C)(C)OC(=O)[N-]CC(=O)[N-]c1cccc(C(=O)[N-]C(Cc2ccc([O-])cc2)C(=O)[N-]Cc2ccc(CN)cc2)n1 (protonated)
CC(C)(C)OC(=O)[N-]CC(=O)[N-]c1cccc(C(=O)[N-][C@@H](Cc2ccc([O-])cc2)C(=O)[N-]Cc2ccc(CN)cc2)n1 (chirality)
CC(C)(C)OC(=O)[N-]CC(=O)[N-]c1cccc(C(=O)[N-][C@@H](Cc2ccc([O-])cc2)C(=O)[N-]Cc2ccc(CN)cc2)n1 (3D coordinates assigned)
CC(C)(C)OC(=O)[N-]CC(=O)[N-]c1cccc(C(=O)[N-][C@@H](Cc2ccc([O-])cc2)C(=O)[N-]Cc2ccc(CN)cc2)n1 (optimized conformer: 65.90901365953609 kcal/mol)

>  <smiles>  (65) 
CC(C)(C)OC(=O)NCC(=O)Nc1cccc(C(=O)NC(Cc2ccc(O)cc2)C(=O)NCc2ccc(CN)cc2)n1

>  <score_type>  (65) 
oracle

>  <origin>  (65) 
adg

>  <m_score__min__energy>  (65) 
-17.920000000000002

>  <m_primary>  (65) 
energy

$$$$
65:0
     RDKit          3D

 45 47  0  0  0  0  0  0  0  0999 V2000
   54.7530   26.3310   45.9910 N   0  0  0  0  0  0  0  0  0  0  0  0
   56.3120   25.5820   46.0620 S   0  0  0  0  0  0  0  0  0  0  0  0
   56.3860   24.4600   45.0600 O   0  0  0  0  0  0  0  0  0  0  0  0
   56.5180   25.0200   47.4430 O   0  0  0  0  0  0  0  0  0  0  0  0
   57.5590   26.7710   45.6960 C   0  0  0  0  0  0  0  0  0  0  0  0
   58.9110   26.4280   45.8400 C   0  0  0  0  0  0  0  0  0  0  0  0
   59.9080   27.3670   45.5630 C   0  0  0  0  0  0  0  0  0  0  0  0
   59.5620   28.6520   45.1410 C   0  0  0  0  0  0  0  0  0  0  0  0
   58.2160   29.0040   44.9910 C   0  0  0  0  0  0  0  0  0  0  0  0
   57.7680   30.6560   44.4540 S   0  0  0  0  0  0  0  0  0  0  0  0
   58.1200   31.3810   46.0630 C   0  0  0  0  0  0  0  0  0  0  0  0
   58.5300   30.5350   47.1000 C   0  0  0  0  0  0  0  0  0  0  0  0
   58.7950   31.0470   48.3710 C   0  0  0  0  0  0  0  0  0  0  0  0
   58.6700   32.4210   48.6180 C   0  0  0  0  0  0  0  0  0  0  0  0
   58.9340   32.9720   49.9620 C   0  0  0  0  0  0  0  0  0  0  0  0
   58.2930   32.5180   50.9460 O   0  0  0  0  0  0  0  0  0  0  0  0
   59.8750   34.0310   50.1810 N   0  0  0  0  0  0  0  0  0  0  0  0
   61.2940   33.8380   50.4540 C   0  0  0  0  0  0  0  0  0  0  0  0
   62.0320   33.6670   49.1580 C   0  0  0  0  0  0  0  0  0  0  0  0
   61.3990   33.9620   47.9390 C   0  0  0  0  0  0  0  0  0  0  0  0
   62.0980   33.8360   46.7340 C   0  0  0  0  0  0  0  0  0  0  0  0
   63.4320   33.4230   46.7380 C   0  0  0  0  0  0  0  0  0  0  0  0
   64.0720   33.1390   47.9480 C   0  0  0  0  0  0  0  0  0  0  0  0
   63.3780   33.2660   49.1560 C   0  0  0  0  0  0  0  0  0  0  0  0
   58.2480   33.2710   47.5860 C   0  0  0  0  0  0  0  0  0  0  0  0
   57.9860   32.7660   46.3030 C   0  0  0  0  0  0  0  0  0  0  0  0
   57.5940   33.6710   45.2620 N   0  0  0  0  0  0  0  0  0  0  0  0
   57.2160   28.0650   45.2750 C   0  0  0  0  0  0  0  0  0  0  0  0
   54.7370   27.0880   46.7170 H   0  0  0  0  0  0  0  0  0  0  0  0
   59.1876   25.4165   46.1721 H   0  0  0  0  0  0  0  0  0  0  0  0
   60.9672   27.0933   45.6776 H   0  0  0  0  0  0  0  0  0  0  0  0
   60.3493   29.3895   44.9259 H   0  0  0  0  0  0  0  0  0  0  0  0
   58.6443   29.4573   46.9116 H   0  0  0  0  0  0  0  0  0  0  0  0
   59.1029   30.3701   49.1815 H   0  0  0  0  0  0  0  0  0  0  0  0
   61.6878   34.7156   50.9876 H   0  0  0  0  0  0  0  0  0  0  0  0
   61.4300   32.9407   51.0756 H   0  0  0  0  0  0  0  0  0  0  0  0
   60.3501   34.2932   47.9321 H   0  0  0  0  0  0  0  0  0  0  0  0
   61.5961   34.0626   45.7817 H   0  0  0  0  0  0  0  0  0  0  0  0
   63.9791   33.3212   45.7892 H   0  0  0  0  0  0  0  0  0  0  0  0
   65.1232   32.8151   47.9502 H   0  0  0  0  0  0  0  0  0  0  0  0
   63.8878   33.0512   50.1068 H   0  0  0  0  0  0  0  0  0  0  0  0
   58.1209   34.3455   47.7840 H   0  0  0  0  0  0  0  0  0  0  0  0
   57.7910   34.6930   45.3480 H   0  0  0  0  0  0  0  0  0  0  0  0
   57.1360   33.3430   44.3840 H   0  0  0  0  0  0  0  0  0  0  0  0
   56.1572   28.3432   45.1675 H   0  0  0  0  0  0  0  0  0  0  0  0
  1  2  1  0
  2  3  2  0
  2  4  2  0
  2  5  1  0
  5  6  2  0
  6  7  1  0
  7  8  2  0
  8  9  1  0
  9 10  1  0
 10 11  1  0
 11 12  2  0
 12 13  1  0
 13 14  2  0
 14 15  1  0
 15 16  2  0
 15 17  1  0
 17 18  1  0
 18 19  1  0
 19 20  2  0
 20 21  1  0
 21 22  2  0
 22 23  1  0
 23 24  2  0
 14 25  1  0
 25 26  2  0
 26 27  1  0
  9 28  2  0
 28  5  1  0
 26 11  1  0
 24 19  1  0
  1 29  1  0
  6 30  1  0
  7 31  1  0
  8 32  1  0
 12 33  1  0
 13 34  1  0
 18 35  1  0
 18 36  1  0
 20 37  1  0
 21 38  1  0
 22 39  1  0
 23 40  1  0
 24 41  1  0
 25 42  1  0
 27 43  1  0
 27 44  1  0
 28 45  1  0
M  CHG  2   1  -1  17  -1
M  END
>  <UniqueID>  (66) 
61

>  <SMILES>  (66) 
[NH-]S(=O)(=O)c1cccc(Sc2ccc(C(=O)[N-]Cc3ccccc3)cc2N)c1

>  <Energy>  (66) 
46.60580144901753

>  <Genealogy>  (66) 
[NH-]S(=O)(=O)c1cccc(Sc2ccc(C(=O)[N-]Cc3ccccc3)cc2N)c1 (protonated)
[NH-]S(=O)(=O)c1cccc(Sc2ccc(C(=O)[N-]Cc3ccccc3)cc2N)c1 (3D coordinates assigned)
[NH-]S(=O)(=O)c1cccc(Sc2ccc(C(=O)[N-]Cc3ccccc3)cc2N)c1 (optimized conformer: 46.60580144901753 kcal/mol)

>  <smiles>  (66) 
Nc1cc(C(=O)NCc2ccccc2)ccc1Sc1cccc(S(N)(=O)=O)c1

>  <score_type>  (66) 
oracle

>  <origin>  (66) 
adg

>  <m_score__min__energy>  (66) 
-13.220000000000001

>  <m_primary>  (66) 
energy

$$$$
66:0
     RDKit          3D

 42 44  0  0  0  0  0  0  0  0999 V2000
   57.0470   33.9820   44.9460 C   0  0  0  0  0  0  0  0  0  0  0  0
   58.0380   33.2840   45.8400 C   0  0  0  0  0  0  0  0  0  0  0  0
   58.7040   34.0360   46.8250 C   0  0  0  0  0  0  0  0  0  0  0  0
   59.6450   33.4350   47.6630 C   0  0  0  0  0  0  0  0  0  0  0  0
   59.9400   32.0810   47.5230 C   0  0  0  0  0  0  0  0  0  0  0  0
   59.3010   31.3220   46.5400 C   0  0  0  0  0  0  0  0  0  0  0  0
   58.3560   31.9110   45.6850 C   0  0  0  0  0  0  0  0  0  0  0  0
   57.6010   30.9090   44.4330 S   0  0  0  0  0  0  0  0  0  0  0  0
   56.2220   30.4780   44.8500 O   0  0  0  0  0  0  0  0  0  0  0  0
   57.4860   31.7150   43.1700 O   0  0  0  0  0  0  0  0  0  0  0  0
   58.5610   29.4950   44.1290 N   0  0  0  0  0  0  0  0  0  0  0  0
   58.5400   28.3220   44.9620 C   0  0  0  0  0  0  0  0  0  0  0  0
   59.6500   27.9440   45.7410 C   0  0  0  0  0  0  0  0  0  0  0  0
   59.5960   26.7960   46.5340 C   0  0  0  0  0  0  0  0  0  0  0  0
   58.4390   26.0150   46.5640 C   0  0  0  0  0  0  0  0  0  0  0  0
   57.3270   26.3790   45.7970 C   0  0  0  0  0  0  0  0  0  0  0  0
   55.8620   25.4020   45.8620 S   0  0  0  0  0  0  0  0  0  0  0  0
   55.8870   24.4840   47.0520 O   0  0  0  0  0  0  0  0  0  0  0  0
   54.6720   26.3110   45.9860 O   0  0  0  0  0  0  0  0  0  0  0  0
   55.7160   24.4660   44.4090 N   0  0  0  0  0  0  0  0  0  0  0  0
   56.4450   23.4250   44.1440 C   0  0  0  0  0  0  0  0  0  0  0  0
   57.6910   23.2870   44.6780 N   0  0  0  0  0  0  0  0  0  0  0  0
   58.4560   22.2010   44.3990 C   0  0  0  0  0  0  0  0  0  0  0  0
   57.9670   21.2050   43.5560 C   0  0  0  0  0  0  0  0  0  0  0  0
   56.6900   21.3580   43.0180 C   0  0  0  0  0  0  0  0  0  0  0  0
   55.9550   22.4610   43.3210 N   0  0  0  0  0  0  0  0  0  0  0  0
   57.3790   27.5340   45.0030 C   0  0  0  0  0  0  0  0  0  0  0  0
   56.3025   34.5064   45.5630 H   0  0  0  0  0  0  0  0  0  0  0  0
   57.5746   34.7090   44.3110 H   0  0  0  0  0  0  0  0  0  0  0  0
   56.5402   33.2404   44.3110 H   0  0  0  0  0  0  0  0  0  0  0  0
   58.4812   35.1075   46.9359 H   0  0  0  0  0  0  0  0  0  0  0  0
   60.1540   34.0313   48.4346 H   0  0  0  0  0  0  0  0  0  0  0  0
   60.6778   31.6084   48.1880 H   0  0  0  0  0  0  0  0  0  0  0  0
   59.5402   30.2535   46.4348 H   0  0  0  0  0  0  0  0  0  0  0  0
   59.2640   29.5580   43.3590 H   0  0  0  0  0  0  0  0  0  0  0  0
   60.5640   28.5558   45.7249 H   0  0  0  0  0  0  0  0  0  0  0  0
   60.4686   26.5057   47.1376 H   0  0  0  0  0  0  0  0  0  0  0  0
   58.4017   25.1123   47.1915 H   0  0  0  0  0  0  0  0  0  0  0  0
   59.4604   22.1073   44.8377 H   0  0  0  0  0  0  0  0  0  0  0  0
   58.5744   20.3187   43.3205 H   0  0  0  0  0  0  0  0  0  0  0  0
   56.2778   20.5877   42.3496 H   0  0  0  0  0  0  0  0  0  0  0  0
   56.5017   27.8251   44.4067 H   0  0  0  0  0  0  0  0  0  0  0  0
  1  2  1  0
  2  3  2  0
  3  4  1  0
  4  5  2  0
  5  6  1  0
  6  7  2  0
  7  8  1  0
  8  9  2  0
  8 10  2  0
  8 11  1  0
 11 12  1  0
 12 13  2  0
 13 14  1  0
 14 15  2  0
 15 16  1  0
 16 17  1  0
 17 18  2  0
 17 19  2  0
 17 20  1  0
 20 21  2  3
 21 22  1  0
 22 23  2  0
 23 24  1  0
 24 25  2  0
 25 26  1  0
 16 27  2  0
  7  2  1  0
 27 12  1  0
 26 21  1  0
  1 28  1  0
  1 29  1  0
  1 30  1  0
  3 31  1  0
  4 32  1  0
  5 33  1  0
  6 34  1  0
 11 35  1  0
 13 36  1  0
 14 37  1  0
 15 38  1  0
 23 39  1  0
 24 40  1  0
 25 41  1  0
 27 42  1  0
M  CHG  1  26  -1
M  END
>  <UniqueID>  (67) 
62

>  <SMILES>  (67) 
Cc1ccccc1S(=O)(=O)Nc1cccc(S(=O)(=O)N=c2nccc[n-]2)c1

>  <Energy>  (67) 
52.142622443599045

>  <Genealogy>  (67) 
Cc1ccccc1S(=O)(=O)Nc1cccc(S(=O)(=O)N=c2nccc[n-]2)c1 (protonated)
Cc1ccccc1S(=O)(=O)Nc1cccc(S(=O)(=O)N=c2nccc[n-]2)c1 (3D coordinates assigned)
Cc1ccccc1S(=O)(=O)Nc1cccc(S(=O)(=O)N=c2nccc[n-]2)c1 (optimized conformer: 52.142622443599045 kcal/mol)

>  <smiles>  (67) 
Cc1ccccc1S(=O)(=O)Nc1cccc(S(=O)(=O)N=c2nccc[nH]2)c1

>  <score_type>  (67) 
oracle

>  <origin>  (67) 
adg

>  <m_score__min__energy>  (67) 
-11.6

>  <m_primary>  (67) 
energy

$$$$
67:0
     RDKit          3D

 63 66  0  0  0  0  0  0  0  0999 V2000
   53.8080   23.7570   44.4470 C   0  0  0  0  0  0  0  0  0  0  0  0
   54.8190   23.3010   43.5570 O   0  0  0  0  0  0  0  0  0  0  0  0
   56.1010   22.8760   43.9430 C   0  0  0  0  0  0  0  0  0  0  0  0
   56.4700   21.5170   43.8880 C   0  0  0  0  0  0  0  0  0  0  0  0
   57.7660   21.1200   44.2230 C   0  0  0  0  0  0  0  0  0  0  0  0
   58.7110   22.0700   44.6120 C   0  0  0  0  0  0  0  0  0  0  0  0
   58.3590   23.4190   44.6790 C   0  0  0  0  0  0  0  0  0  0  0  0
   57.0540   23.8330   44.3690 C   0  0  0  0  0  0  0  0  0  0  0  0
   56.7490   25.2360   44.4350 N   0  0  0  0  0  0  0  0  0  0  0  0
   56.5520   26.1130   45.9210 S   0  0  0  0  0  0  0  0  0  0  0  0
   56.7710   25.1580   47.0590 O   0  0  0  0  0  0  0  0  0  0  0  0
   55.1520   26.6570   46.0050 O   0  0  0  0  0  0  0  0  0  0  0  0
   57.7310   27.4320   46.0220 C   0  0  0  0  0  0  0  0  0  0  0  0
   57.3090   28.7390   45.7340 C   0  0  0  0  0  0  0  0  0  0  0  0
   58.2090   29.8100   45.7640 C   0  0  0  0  0  0  0  0  0  0  0  0
   57.7730   31.1860   45.4580 C   0  0  0  0  0  0  0  0  0  0  0  0
   56.6920   31.3480   44.8320 O   0  0  0  0  0  0  0  0  0  0  0  0
   58.4750   32.3340   45.9780 N   0  0  0  0  0  0  0  0  0  0  0  0
   57.6590   33.3330   46.6890 C   0  0  0  0  0  0  0  0  0  0  0  0
   58.4360   34.5940   47.1060 C   0  0  0  0  0  0  0  0  0  0  0  0
   59.8100   34.2990   47.5430 N   0  0  0  0  0  0  0  0  0  0  0  0
   59.8450   33.5210   48.8030 C   0  0  0  0  0  0  0  0  0  0  0  0
   61.2620   33.1910   49.1960 C   0  0  0  0  0  0  0  0  0  0  0  0
   62.1500   34.2190   49.5540 C   0  0  0  0  0  0  0  0  0  0  0  0
   63.4650   33.9170   49.9230 C   0  0  0  0  0  0  0  0  0  0  0  0
   63.9020   32.5900   49.9350 C   0  0  0  0  0  0  0  0  0  0  0  0
   65.6950   32.1810   50.4470 Br  0  0  0  0  0  0  0  0  0  0  0  0
   63.0240   31.5610   49.5740 C   0  0  0  0  0  0  0  0  0  0  0  0
   61.7100   31.8590   49.2030 C   0  0  0  0  0  0  0  0  0  0  0  0
   60.5510   33.6730   46.4330 C   0  0  0  0  0  0  0  0  0  0  0  0
   59.9470   32.3350   45.9950 C   0  0  0  0  0  0  0  0  0  0  0  0
   59.5430   29.5760   46.1230 C   0  0  0  0  0  0  0  0  0  0  0  0
   59.9770   28.2850   46.4120 C   0  0  0  0  0  0  0  0  0  0  0  0
   59.0830   27.2010   46.3770 C   0  0  0  0  0  0  0  0  0  0  0  0
   59.5990   25.8200   46.6890 C   0  0  0  0  0  0  0  0  0  0  0  0
   54.1390   23.6077   45.4853 H   0  0  0  0  0  0  0  0  0  0  0  0
   53.6207   24.8267   44.2721 H   0  0  0  0  0  0  0  0  0  0  0  0
   52.8822   23.1893   44.2721 H   0  0  0  0  0  0  0  0  0  0  0  0
   55.7311   20.7631   43.5787 H   0  0  0  0  0  0  0  0  0  0  0  0
   58.0426   20.0562   44.1802 H   0  0  0  0  0  0  0  0  0  0  0  0
   59.7340   21.7556   44.8660 H   0  0  0  0  0  0  0  0  0  0  0  0
   59.1109   24.1644   44.9774 H   0  0  0  0  0  0  0  0  0  0  0  0
   56.8620   25.8100   43.5690 H   0  0  0  0  0  0  0  0  0  0  0  0
   56.2547   28.9244   45.4808 H   0  0  0  0  0  0  0  0  0  0  0  0
   56.8333   33.6379   46.0293 H   0  0  0  0  0  0  0  0  0  0  0  0
   57.3071   32.8553   47.6153 H   0  0  0  0  0  0  0  0  0  0  0  0
   58.4800   35.2797   46.2470 H   0  0  0  0  0  0  0  0  0  0  0  0
   57.9062   35.0423   47.9594 H   0  0  0  0  0  0  0  0  0  0  0  0
   59.3783   34.1129   49.6041 H   0  0  0  0  0  0  0  0  0  0  0  0
   59.2964   32.5801   48.6488 H   0  0  0  0  0  0  0  0  0  0  0  0
   61.8100   35.2651   49.5441 H   0  0  0  0  0  0  0  0  0  0  0  0
   64.1560   34.7254   50.2041 H   0  0  0  0  0  0  0  0  0  0  0  0
   63.3689   30.5165   49.5824 H   0  0  0  0  0  0  0  0  0  0  0  0
   61.0242   31.0484   48.9155 H   0  0  0  0  0  0  0  0  0  0  0  0
   60.5433   34.3599   45.5739 H   0  0  0  0  0  0  0  0  0  0  0  0
   61.5730   33.4743   46.7879 H   0  0  0  0  0  0  0  0  0  0  0  0
   60.3073   32.1053   44.9814 H   0  0  0  0  0  0  0  0  0  0  0  0
   60.2631   31.5805   46.7304 H   0  0  0  0  0  0  0  0  0  0  0  0
   60.2508   30.4163   46.1768 H   0  0  0  0  0  0  0  0  0  0  0  0
   61.0319   28.1114   46.6708 H   0  0  0  0  0  0  0  0  0  0  0  0
   59.6494   25.6851   47.7795 H   0  0  0  0  0  0  0  0  0  0  0  0
   58.9208   25.0690   46.2576 H   0  0  0  0  0  0  0  0  0  0  0  0
   60.6035   25.6978   46.2576 H   0  0  0  0  0  0  0  0  0  0  0  0
  1  2  1  0
  2  3  1  0
  3  4  2  0
  4  5  1  0
  5  6  2  0
  6  7  1  0
  7  8  2  0
  8  9  1  0
  9 10  1  0
 10 11  2  0
 10 12  2  0
 10 13  1  0
 13 14  2  0
 14 15  1  0
 15 16  1  0
 16 17  2  0
 16 18  1  0
 18 19  1  0
 19 20  1  0
 20 21  1  0
 21 22  1  0
 22 23  1  0
 23 24  2  0
 24 25  1  0
 25 26  2  0
 26 27  1  0
 26 28  1  0
 28 29  2  0
 21 30  1  0
 30 31  1  0
 15 32  2  0
 32 33  1  0
 33 34  2  0
 34 35  1  0
  8  3  1  0
 34 13  1  0
 31 18  1  0
 29 23  1  0
  1 36  1  0
  1 37  1  0
  1 38  1  0
  4 39  1  0
  5 40  1  0
  6 41  1  0
  7 42  1  0
  9 43  1  0
 14 44  1  0
 19 45  1  0
 19 46  1  0
 20 47  1  0
 20 48  1  0
 22 49  1  0
 22 50  1  0
 24 51  1  0
 25 52  1  0
 28 53  1  0
 29 54  1  0
 30 55  1  0
 30 56  1  0
 31 57  1  0
 31 58  1  0
 32 59  1  0
 33 60  1  0
 35 61  1  0
 35 62  1  0
 35 63  1  0
M  END
>  <UniqueID>  (68) 
63

>  <SMILES>  (68) 
COc1ccccc1NS(=O)(=O)c1cc(C(=O)N2CCN(Cc3ccc(Br)cc3)CC2)ccc1C

>  <Energy>  (68) 
87.07915537987344

>  <Genealogy>  (68) 
COc1ccccc1NS(=O)(=O)c1cc(C(=O)N2CCN(Cc3ccc(Br)cc3)CC2)ccc1C (3D coordinates assigned)
COc1ccccc1NS(=O)(=O)c1cc(C(=O)N2CCN(Cc3ccc(Br)cc3)CC2)ccc1C (nonaromatic ring conformer: 87.07915537987344 kcal/mol)

>  <smiles>  (68) 
COc1ccccc1NS(=O)(=O)c1cc(C(=O)N2CCN(Cc3ccc(Br)cc3)CC2)ccc1C

>  <score_type>  (68) 
oracle

>  <origin>  (68) 
adg

>  <m_score__min__energy>  (68) 
-10.529999999999999

>  <m_primary>  (68) 
energy

$$$$
68:0
     RDKit          3D

 46 49  0  0  0  0  0  0  0  0999 V2000
   57.6513   31.1158   46.3612 H   0  0  0  0  0  0  0  0  0  0  0  0
   58.1190   32.0980   46.1980 C   0  0  0  0  0  0  0  0  0  0  0  0
   58.4790   32.8630   47.2640 N   0  0  0  0  0  0  0  0  0  0  0  0
   59.0540   34.0890   47.1180 C   0  0  0  0  0  0  0  0  0  0  0  0
   59.3730   34.7570   48.1910 N   0  0  0  0  0  0  0  0  0  0  0  0
   60.0490   34.2210   49.3700 C   0  0  0  0  0  0  0  0  0  0  0  0
   59.5628   34.6065   50.2783 H   0  0  0  0  0  0  0  0  0  0  0  0
   59.9886   33.1227   49.3597 H   0  0  0  0  0  0  0  0  0  0  0  0
   61.1046   34.5302   49.3597 H   0  0  0  0  0  0  0  0  0  0  0  0
   59.2830   34.5920   45.8210 C   0  0  0  0  0  0  0  0  0  0  0  0
   59.7444   35.5808   45.6821 H   0  0  0  0  0  0  0  0  0  0  0  0
   58.9180   33.8220   44.7140 C   0  0  0  0  0  0  0  0  0  0  0  0
   59.0833   34.2100   43.6981 H   0  0  0  0  0  0  0  0  0  0  0  0
   58.3420   32.5570   44.8930 C   0  0  0  0  0  0  0  0  0  0  0  0
   57.9280   31.7280   43.7080 C   0  0  0  0  0  0  0  0  0  0  0  0
   57.3541   32.3549   43.0097 H   0  0  0  0  0  0  0  0  0  0  0  0
   58.8294   31.3384   43.2123 H   0  0  0  0  0  0  0  0  0  0  0  0
   57.0770   30.5730   44.1500 C   0  0  0  0  0  0  0  0  0  0  0  0
   55.6940   30.4730   43.9950 C   0  0  0  0  0  0  0  0  0  0  0  0
   55.0598   31.2364   43.5207 H   0  0  0  0  0  0  0  0  0  0  0  0
   55.2420   29.3070   44.5090 N   0  0  0  0  0  0  0  0  0  0  0  0
   54.2540   28.9700   44.5320 H   0  0  0  0  0  0  0  0  0  0  0  0
   56.3300   28.6760   44.9850 C   0  0  0  0  0  0  0  0  0  0  0  0
   56.3470   27.4620   45.5860 N   0  0  0  0  0  0  0  0  0  0  0  0
   57.5440   26.9510   46.0130 C   0  0  0  0  0  0  0  0  0  0  0  0
   57.6040   25.7970   46.6150 N   0  0  0  0  0  0  0  0  0  0  0  0
   57.5520   24.4990   45.9980 C   0  0  0  0  0  0  0  0  0  0  0  0
   58.7270   23.7970   45.6610 C   0  0  0  0  0  0  0  0  0  0  0  0
   59.7101   24.2591   45.8345 H   0  0  0  0  0  0  0  0  0  0  0  0
   58.6480   22.5180   45.1080 C   0  0  0  0  0  0  0  0  0  0  0  0
   59.5677   21.9799   44.8350 H   0  0  0  0  0  0  0  0  0  0  0  0
   57.4040   21.9210   44.9010 C   0  0  0  0  0  0  0  0  0  0  0  0
   57.3452   20.9150   44.4601 H   0  0  0  0  0  0  0  0  0  0  0  0
   56.2330   22.5970   45.2520 C   0  0  0  0  0  0  0  0  0  0  0  0
   55.2555   22.1180   45.0937 H   0  0  0  0  0  0  0  0  0  0  0  0
   56.2990   23.8900   45.8080 C   0  0  0  0  0  0  0  0  0  0  0  0
   55.1440   24.6010   46.1730 O   0  0  0  0  0  0  0  0  0  0  0  0
   53.8770   24.4620   45.5390 C   0  0  0  0  0  0  0  0  0  0  0  0
   53.0915   24.3758   46.3043 H   0  0  0  0  0  0  0  0  0  0  0  0
   53.6823   25.3442   44.9114 H   0  0  0  0  0  0  0  0  0  0  0  0
   53.8782   23.5586   44.9114 H   0  0  0  0  0  0  0  0  0  0  0  0
   58.6980   27.6790   45.8480 N   0  0  0  0  0  0  0  0  0  0  0  0
   59.6070   27.2880   46.1910 H   0  0  0  0  0  0  0  0  0  0  0  0
   58.6850   28.9060   45.2450 C   0  0  0  0  0  0  0  0  0  0  0  0
   59.7540   29.5590   45.1100 O   0  0  0  0  0  0  0  0  0  0  0  0
   57.4640   29.4080   44.7960 C   0  0  0  0  0  0  0  0  0  0  0  0
  1  2  1  0
  2  3  1  0
  3  4  1  0
  4  5  2  3
  5  6  1  0
  6  7  1  0
  6  8  1  0
  6  9  1  0
  4 10  1  0
 10 11  1  0
 10 12  2  0
 12 13  1  0
 12 14  1  0
 14 15  1  0
 15 16  1  0
 15 17  1  0
 15 18  1  0
 18 19  2  0
 19 20  1  0
 19 21  1  0
 21 22  1  0
 21 23  1  0
 23 24  1  0
 24 25  1  0
 25 26  2  0
 26 27  1  0
 27 28  2  0
 28 29  1  0
 28 30  1  0
 30 31  1  0
 30 32  2  0
 32 33  1  0
 32 34  1  0
 34 35  1  0
 34 36  2  0
 36 37  1  0
 37 38  1  0
 38 39  1  0
 38 40  1  0
 38 41  1  0
 25 42  1  0
 42 43  1  0
 42 44  1  0
 44 45  2  0
 44 46  1  0
 14  2  2  0
 46 18  1  0
 46 23  2  0
 36 27  1  0
M  CHG  2   3  -1  24  -1
M  END
>  <UniqueID>  (69) 
64

>  <SMILES>  (69) 
CN=c1ccc(Cc2c[nH]c3[n-]/c(=N\c4ccccc4OC)[nH]c(=O)c23)c[n-]1

>  <Energy>  (69) 
93.5089278519975

>  <Genealogy>  (69) 
CN=c1ccc(Cc2c[nH]c3[n-]c(=Nc4ccccc4OC)[nH]c(=O)c23)c[n-]1 (protonated)
CN=c1ccc(Cc2c[nH]c3[n-]/c(=N\c4ccccc4OC)[nH]c(=O)c23)c[n-]1 (cis-trans isomerization)
CN=c1ccc(Cc2c[nH]c3[n-]/c(=N\c4ccccc4OC)[nH]c(=O)c23)c[n-]1 (3D coordinates assigned)
CN=c1ccc(Cc2c[nH]c3[n-]/c(=N\c4ccccc4OC)[nH]c(=O)c23)c[n-]1 (optimized conformer: 93.5089278519975 kcal/mol)

>  <smiles>  (69) 
CN=c1ccc(Cc2c[nH]c3[nH]c(=Nc4ccccc4OC)[nH]c(=O)c23)c[nH]1

>  <score_type>  (69) 
oracle

>  <origin>  (69) 
adg

>  <m_score__min__energy>  (69) 
-11.08

>  <m_primary>  (69) 
energy

$$$$
69:0
     RDKit          3D

 23 24  0  0  0  0  0  0  0  0999 V2000
   60.7240   29.5510   46.0400 C   0  0  0  0  0  0  0  0  0  0  0  0
   60.0030   28.4450   45.2650 C   0  0  0  0  0  0  0  0  0  0  0  0
   58.4760   28.5020   45.2620 C   0  0  0  0  0  0  0  0  0  0  0  0
   57.8010   29.6750   44.8640 C   0  0  0  0  0  0  0  0  0  0  0  0
   56.4080   29.7130   44.8650 C   0  0  0  0  0  0  0  0  0  0  0  0
   55.8080   30.7610   44.5100 O   0  0  0  0  0  0  0  0  0  0  0  0
   55.7080   28.6540   45.2390 O   0  0  0  0  0  0  0  0  0  0  0  0
   56.2710   27.5190   45.6260 C   0  0  0  0  0  0  0  0  0  0  0  0
   55.4670   26.4850   45.9920 N   0  0  0  0  0  0  0  0  0  0  0  0
   55.9650   25.2910   46.3990 C   0  0  0  0  0  0  0  0  0  0  0  0
   55.1020   24.2630   46.7640 O   0  0  0  0  0  0  0  0  0  0  0  0
   57.3420   25.0950   46.4520 C   0  0  0  0  0  0  0  0  0  0  0  0
   58.2090   26.1280   46.0860 C   0  0  0  0  0  0  0  0  0  0  0  0
   59.4480   25.9080   46.1480 O   0  0  0  0  0  0  0  0  0  0  0  0
   57.6850   27.3790   45.6590 C   0  0  0  0  0  0  0  0  0  0  0  0
   60.6100   29.3761   47.1200 H   0  0  0  0  0  0  0  0  0  0  0  0
   61.7924   29.5453   45.7784 H   0  0  0  0  0  0  0  0  0  0  0  0
   60.2877   30.5263   45.7784 H   0  0  0  0  0  0  0  0  0  0  0  0
   60.3417   28.4935   44.2196 H   0  0  0  0  0  0  0  0  0  0  0  0
   60.2594   27.5097   45.7841 H   0  0  0  0  0  0  0  0  0  0  0  0
   58.3747   30.5604   44.5526 H   0  0  0  0  0  0  0  0  0  0  0  0
   54.1950   24.4650   47.1680 H   0  0  0  0  0  0  0  0  0  0  0  0
   57.7476   24.1272   46.7819 H   0  0  0  0  0  0  0  0  0  0  0  0
  1  2  1  0
  2  3  1  0
  3  4  2  0
  4  5  1  0
  5  6  2  0
  5  7  1  0
  7  8  1  0
  8  9  1  0
  9 10  1  0
 10 11  1  0
 10 12  2  0
 12 13  1  0
 13 14  2  0
 13 15  1  0
 15  3  1  0
 15  8  2  0
  1 16  1  0
  1 17  1  0
  1 18  1  0
  2 19  1  0
  2 20  1  0
  4 21  1  0
 11 22  1  0
 12 23  1  0
M  CHG  1   9  -1
M  END
>  <UniqueID>  (70) 
65

>  <SMILES>  (70) 
CCc1cc(=O)oc2[n-]c(O)cc(=O)c12

>  <Energy>  (70) 
34.848209196706726

>  <Genealogy>  (70) 
CCc1cc(=O)oc2[n-]c(O)cc(=O)c12 (protonated)
CCc1cc(=O)oc2[n-]c(O)cc(=O)c12 (3D coordinates assigned)
CCc1cc(=O)oc2[n-]c(O)cc(=O)c12 (optimized conformer: 34.848209196706726 kcal/mol)

>  <smiles>  (70) 
CCc1cc(=O)oc2[nH]c(O)cc(=O)c12

>  <score_type>  (70) 
oracle

>  <origin>  (70) 
adg

>  <m_score__min__energy>  (70) 
-8.7400000000000002

>  <m_primary>  (70) 
energy

$$$$
70:0
     RDKit          3D

 50 52  0  0  0  0  0  0  0  0999 V2000
   63.2730   33.4890   46.7470 C   0  0  0  0  0  0  0  0  0  0  0  0
   62.0850   33.3070   47.6510 C   0  0  0  0  0  0  0  0  0  0  0  0
   62.2120   32.5670   48.8380 C   0  0  0  0  0  0  0  0  0  0  0  0
   61.1100   32.3790   49.6740 C   0  0  0  0  0  0  0  0  0  0  0  0
   59.8730   32.9280   49.3350 C   0  0  0  0  0  0  0  0  0  0  0  0
   59.7310   33.6640   48.1550 C   0  0  0  0  0  0  0  0  0  0  0  0
   60.8340   33.8530   47.2950 C   0  0  0  0  0  0  0  0  0  0  0  0
   60.7280   34.5710   46.0900 O   0  0  0  0  0  0  0  0  0  0  0  0
   59.6030   35.3520   45.6880 C   0  0  0  0  0  0  0  0  0  0  0  0
   58.5000   34.4610   45.2040 C   0  0  0  0  0  0  0  0  0  0  0  0
   57.3500   34.9450   45.0150 O   0  0  0  0  0  0  0  0  0  0  0  0
   58.7490   33.0690   44.9750 N   0  0  0  0  0  0  0  0  0  0  0  0
   58.0770   32.2890   43.9640 C   0  0  0  0  0  0  0  0  0  0  0  0
   58.1420   32.6730   42.6090 C   0  0  0  0  0  0  0  0  0  0  0  0
   57.4350   31.9680   41.6330 C   0  0  0  0  0  0  0  0  0  0  0  0
   56.6570   30.8690   41.9910 C   0  0  0  0  0  0  0  0  0  0  0  0
   56.6110   30.4500   43.3200 C   0  0  0  0  0  0  0  0  0  0  0  0
   57.3460   31.1220   44.3060 C   0  0  0  0  0  0  0  0  0  0  0  0
   57.3130   30.6000   45.6410 N   0  0  0  0  0  0  0  0  0  0  0  0
   58.4150   29.9960   46.3370 C   0  0  0  0  0  0  0  0  0  0  0  0
   59.3250   30.7420   46.7850 O   0  0  0  0  0  0  0  0  0  0  0  0
   58.5270   28.5300   46.5240 C   0  0  0  0  0  0  0  0  0  0  0  0
   59.7700   27.9620   46.8580 C   0  0  0  0  0  0  0  0  0  0  0  0
   59.8960   26.5800   47.0130 C   0  0  0  0  0  0  0  0  0  0  0  0
   58.7860   25.7500   46.8420 C   0  0  0  0  0  0  0  0  0  0  0  0
   57.5370   26.3030   46.5260 C   0  0  0  0  0  0  0  0  0  0  0  0
   56.1320   25.2710   46.2770 S   0  0  0  0  0  0  0  0  0  0  0  0
   54.7450   26.2540   45.9610 N   0  0  0  0  0  0  0  0  0  0  0  0
   56.3610   24.3520   45.1110 O   0  0  0  0  0  0  0  0  0  0  0  0
   55.8950   24.4420   47.5090 O   0  0  0  0  0  0  0  0  0  0  0  0
   57.4090   27.6900   46.3810 C   0  0  0  0  0  0  0  0  0  0  0  0
   64.1789   33.6278   47.3554 H   0  0  0  0  0  0  0  0  0  0  0  0
   63.3905   32.5984   46.1122 H   0  0  0  0  0  0  0  0  0  0  0  0
   63.1185   34.3740   46.1122 H   0  0  0  0  0  0  0  0  0  0  0  0
   63.1854   32.1331   49.1104 H   0  0  0  0  0  0  0  0  0  0  0  0
   61.2171   31.7972   50.6014 H   0  0  0  0  0  0  0  0  0  0  0  0
   59.0074   32.7814   49.9978 H   0  0  0  0  0  0  0  0  0  0  0  0
   58.7542   34.0982   47.8954 H   0  0  0  0  0  0  0  0  0  0  0  0
   59.2446   35.9408   46.5453 H   0  0  0  0  0  0  0  0  0  0  0  0
   59.9061   36.0235   44.8712 H   0  0  0  0  0  0  0  0  0  0  0  0
   59.4560   32.6220   45.5950 H   0  0  0  0  0  0  0  0  0  0  0  0
   58.7565   33.5376   42.3175 H   0  0  0  0  0  0  0  0  0  0  0  0
   57.4923   32.2807   40.5799 H   0  0  0  0  0  0  0  0  0  0  0  0
   56.0788   30.3317   41.2248 H   0  0  0  0  0  0  0  0  0  0  0  0
   55.9921   29.5839   43.5972 H   0  0  0  0  0  0  0  0  0  0  0  0
   60.6476   28.6103   46.9978 H   0  0  0  0  0  0  0  0  0  0  0  0
   60.8724   26.1438   47.2705 H   0  0  0  0  0  0  0  0  0  0  0  0
   58.8918   24.6610   46.9554 H   0  0  0  0  0  0  0  0  0  0  0  0
   54.8090   27.0830   46.5940 H   0  0  0  0  0  0  0  0  0  0  0  0
   56.4251   28.1259   46.1532 H   0  0  0  0  0  0  0  0  0  0  0  0
  1  2  1  0
  2  3  2  0
  3  4  1  0
  4  5  2  0
  5  6  1  0
  6  7  2  0
  7  8  1  0
  8  9  1  0
  9 10  1  0
 10 11  2  0
 10 12  1  0
 12 13  1  0
 13 14  2  0
 14 15  1  0
 15 16  2  0
 16 17  1  0
 17 18  2  0
 18 19  1  0
 19 20  1  0
 20 21  2  0
 20 22  1  0
 22 23  2  0
 23 24  1  0
 24 25  2  0
 25 26  1  0
 26 27  1  0
 27 28  1  0
 27 29  2  0
 27 30  2  0
 26 31  2  0
  7  2  1  0
 18 13  1  0
 31 22  1  0
  1 32  1  0
  1 33  1  0
  1 34  1  0
  3 35  1  0
  4 36  1  0
  5 37  1  0
  6 38  1  0
  9 39  1  0
  9 40  1  0
 12 41  1  0
 14 42  1  0
 15 43  1  0
 16 44  1  0
 17 45  1  0
 23 46  1  0
 24 47  1  0
 25 48  1  0
 28 49  1  0
 31 50  1  0
M  CHG  2  19  -1  28  -1
M  END
>  <UniqueID>  (71) 
66

>  <SMILES>  (71) 
Cc1ccccc1OCC(=O)Nc1ccccc1[N-]C(=O)c1cccc(S([NH-])(=O)=O)c1

>  <Energy>  (71) 
61.31085694520053

>  <Genealogy>  (71) 
Cc1ccccc1OCC(=O)Nc1ccccc1[N-]C(=O)c1cccc(S([NH-])(=O)=O)c1 (protonated)
Cc1ccccc1OCC(=O)Nc1ccccc1[N-]C(=O)c1cccc(S([NH-])(=O)=O)c1 (3D coordinates assigned)
Cc1ccccc1OCC(=O)Nc1ccccc1[N-]C(=O)c1cccc(S([NH-])(=O)=O)c1 (optimized conformer: 61.31085694520053 kcal/mol)

>  <smiles>  (71) 
Cc1ccccc1OCC(=O)Nc1ccccc1NC(=O)c1cccc(S(N)(=O)=O)c1

>  <score_type>  (71) 
oracle

>  <origin>  (71) 
adg

>  <m_score__min__energy>  (71) 
-13.609999999999999

>  <m_primary>  (71) 
energy

$$$$
71:0
     RDKit          3D

 34 34  0  0  0  0  0  0  0  0999 V2000
   55.4930   29.7150   43.8890 C   0  0  0  0  0  0  0  0  0  0  0  0
   56.5980   30.2810   44.6790 N   0  0  0  0  0  0  0  0  0  0  0  0
   57.3760   29.2230   45.3420 C   0  0  0  0  0  0  0  0  0  0  0  0
   57.4430   31.2160   43.9000 C   0  0  0  0  0  0  0  0  0  0  0  0
   57.9850   32.4120   44.7180 C   0  0  0  0  0  0  0  0  0  0  0  0
   57.8630   32.1860   46.1670 N   0  0  0  0  0  0  0  0  0  0  0  0
   57.7670   33.4390   46.9380 C   0  0  0  0  0  0  0  0  0  0  0  0
   58.8630   34.4170   46.5070 C   0  0  0  0  0  0  0  0  0  0  0  0
   60.1660   34.1330   47.2090 C   0  0  0  0  0  0  0  0  0  0  0  0
   60.2480   34.2190   48.6090 C   0  0  0  0  0  0  0  0  0  0  0  0
   61.4690   34.0100   49.2570 C   0  0  0  0  0  0  0  0  0  0  0  0
   62.6160   33.7180   48.5140 C   0  0  0  0  0  0  0  0  0  0  0  0
   62.5450   33.6380   47.1200 C   0  0  0  0  0  0  0  0  0  0  0  0
   63.6600   33.3650   46.3990 F   0  0  0  0  0  0  0  0  0  0  0  0
   61.3260   33.8480   46.4670 C   0  0  0  0  0  0  0  0  0  0  0  0
   54.7221   29.3202   44.5671 H   0  0  0  0  0  0  0  0  0  0  0  0
   55.0560   30.5003   43.2547 H   0  0  0  0  0  0  0  0  0  0  0  0
   55.8749   28.9015   43.2547 H   0  0  0  0  0  0  0  0  0  0  0  0
   57.2930   29.3358   46.4330 H   0  0  0  0  0  0  0  0  0  0  0  0
   56.9848   28.2390   45.0443 H   0  0  0  0  0  0  0  0  0  0  0  0
   58.4319   29.3031   45.0443 H   0  0  0  0  0  0  0  0  0  0  0  0
   58.3003   30.6547   43.5001 H   0  0  0  0  0  0  0  0  0  0  0  0
   56.8035   31.6370   43.1101 H   0  0  0  0  0  0  0  0  0  0  0  0
   59.0461   32.5611   44.4694 H   0  0  0  0  0  0  0  0  0  0  0  0
   57.3887   33.2996   44.4600 H   0  0  0  0  0  0  0  0  0  0  0  0
   57.0250   31.5880   46.3590 H   0  0  0  0  0  0  0  0  0  0  0  0
   56.7827   33.8977   46.7627 H   0  0  0  0  0  0  0  0  0  0  0  0
   57.8931   33.2106   48.0066 H   0  0  0  0  0  0  0  0  0  0  0  0
   59.0152   34.3270   45.4213 H   0  0  0  0  0  0  0  0  0  0  0  0
   58.5418   35.4343   46.7752 H   0  0  0  0  0  0  0  0  0  0  0  0
   59.3482   34.4516   49.1974 H   0  0  0  0  0  0  0  0  0  0  0  0
   61.5270   34.0755   50.3535 H   0  0  0  0  0  0  0  0  0  0  0  0
   63.5751   33.5510   49.0261 H   0  0  0  0  0  0  0  0  0  0  0  0
   61.2746   33.7900   45.3697 H   0  0  0  0  0  0  0  0  0  0  0  0
  1  2  1  0
  2  3  1  0
  2  4  1  0
  4  5  1  0
  5  6  1  0
  6  7  1  0
  7  8  1  0
  8  9  1  0
  9 10  2  0
 10 11  1  0
 11 12  2  0
 12 13  1  0
 13 14  1  0
 13 15  2  0
 15  9  1  0
  1 16  1  0
  1 17  1  0
  1 18  1  0
  3 19  1  0
  3 20  1  0
  3 21  1  0
  4 22  1  0
  4 23  1  0
  5 24  1  0
  5 25  1  0
  6 26  1  0
  7 27  1  0
  7 28  1  0
  8 29  1  0
  8 30  1  0
 10 31  1  0
 11 32  1  0
 12 33  1  0
 15 34  1  0
M  END
>  <UniqueID>  (72) 
67

>  <SMILES>  (72) 
CN(C)CCNCCc1cccc(F)c1

>  <Energy>  (72) 
31.670023886018328

>  <Genealogy>  (72) 
CN(C)CCNCCc1cccc(F)c1 (3D coordinates assigned)
CN(C)CCNCCc1cccc(F)c1 (optimized conformer: 31.670023886018328 kcal/mol)

>  <smiles>  (72) 
CN(C)CCNCCc1cccc(F)c1

>  <score_type>  (72) 
oracle

>  <origin>  (72) 
adg

>  <m_score__min__energy>  (72) 
-5.1600000000000001

>  <m_primary>  (72) 
energy

$$$$
72:0
     RDKit          3D

 58 61  0  0  0  0  0  0  0  0999 V2000
   58.3540   33.4800   47.8940 O   0  0  0  0  0  0  0  0  0  0  0  0
   58.8720   33.1380   46.7980 C   0  0  0  0  0  0  0  0  0  0  0  0
   58.6550   33.9950   45.5880 C   0  0  0  0  0  0  0  0  0  0  0  0
   56.9990   33.7110   44.8670 S   0  0  0  0  0  0  0  0  0  0  0  0
   57.2050   31.9410   44.6920 C   0  0  0  0  0  0  0  0  0  0  0  0
   58.4380   31.4200   44.4620 N   0  0  0  0  0  0  0  0  0  0  0  0
   58.6270   30.0790   44.3670 C   0  0  0  0  0  0  0  0  0  0  0  0
   59.7890   29.6360   44.1630 O   0  0  0  0  0  0  0  0  0  0  0  0
   57.5320   29.2040   44.4980 C   0  0  0  0  0  0  0  0  0  0  0  0
   57.7070   27.7030   44.4370 C   0  0  0  0  0  0  0  0  0  0  0  0
   58.4910   27.2090   45.6250 C   0  0  0  0  0  0  0  0  0  0  0  0
   57.8290   26.6770   46.7480 C   0  0  0  0  0  0  0  0  0  0  0  0
   58.5630   26.2340   47.8530 C   0  0  0  0  0  0  0  0  0  0  0  0
   59.9570   26.3310   47.8530 C   0  0  0  0  0  0  0  0  0  0  0  0
   60.6220   26.8620   46.7450 C   0  0  0  0  0  0  0  0  0  0  0  0
   59.8930   27.3000   45.6340 C   0  0  0  0  0  0  0  0  0  0  0  0
   56.2680   29.7720   44.7340 C   0  0  0  0  0  0  0  0  0  0  0  0
   55.1440   28.9670   44.8820 O   0  0  0  0  0  0  0  0  0  0  0  0
   56.1350   31.1180   44.8260 N   0  0  0  0  0  0  0  0  0  0  0  0
   59.6020   31.9050   46.6830 N   0  0  0  0  0  0  0  0  0  0  0  0
   59.8940   31.0360   47.7870 C   0  0  0  0  0  0  0  0  0  0  0  0
   58.8440   30.3670   48.4340 C   0  0  0  0  0  0  0  0  0  0  0  0
   59.1050   29.5030   49.5010 C   0  0  0  0  0  0  0  0  0  0  0  0
   60.4230   29.2800   49.9200 C   0  0  0  0  0  0  0  0  0  0  0  0
   60.7700   28.1760   51.2480 S   0  0  0  0  0  0  0  0  0  0  0  0
   62.1170   28.4770   51.8420 O   0  0  0  0  0  0  0  0  0  0  0  0
   60.7630   26.7650   50.7300 O   0  0  0  0  0  0  0  0  0  0  0  0
   59.5460   28.3480   52.4680 N   0  0  0  0  0  0  0  0  0  0  0  0
   59.8440   29.4940   53.3260 C   0  0  0  0  0  0  0  0  0  0  0  0
   59.3840   30.7510   52.6410 C   0  0  0  0  0  0  0  0  0  0  0  0
   58.0340   30.9000   52.2820 C   0  0  0  0  0  0  0  0  0  0  0  0
   57.6070   32.0470   51.6050 C   0  0  0  0  0  0  0  0  0  0  0  0
   58.5240   33.0480   51.2740 C   0  0  0  0  0  0  0  0  0  0  0  0
   59.8720   32.9010   51.6140 C   0  0  0  0  0  0  0  0  0  0  0  0
   60.3070   31.7550   52.2880 C   0  0  0  0  0  0  0  0  0  0  0  0
   61.6250   31.6260   52.5920 F   0  0  0  0  0  0  0  0  0  0  0  0
   61.4770   29.9280   49.2640 C   0  0  0  0  0  0  0  0  0  0  0  0
   61.2180   30.7950   48.1990 C   0  0  0  0  0  0  0  0  0  0  0  0
   58.7444   35.0527   45.8764 H   0  0  0  0  0  0  0  0  0  0  0  0
   59.4129   33.7336   44.8349 H   0  0  0  0  0  0  0  0  0  0  0  0
   56.7168   27.2240   44.4335 H   0  0  0  0  0  0  0  0  0  0  0  0
   58.2577   27.4484   43.5195 H   0  0  0  0  0  0  0  0  0  0  0  0
   56.7311   26.6096   46.7563 H   0  0  0  0  0  0  0  0  0  0  0  0
   58.0421   25.8086   48.7235 H   0  0  0  0  0  0  0  0  0  0  0  0
   60.5315   25.9889   48.7265 H   0  0  0  0  0  0  0  0  0  0  0  0
   61.7195   26.9358   46.7461 H   0  0  0  0  0  0  0  0  0  0  0  0
   60.4200   27.7176   44.7634 H   0  0  0  0  0  0  0  0  0  0  0  0
   59.8310   31.5610   45.7240 H   0  0  0  0  0  0  0  0  0  0  0  0
   57.8080   30.5237   48.0990 H   0  0  0  0  0  0  0  0  0  0  0  0
   58.2734   28.9968   50.0131 H   0  0  0  0  0  0  0  0  0  0  0  0
   59.3177   29.3831   54.2855 H   0  0  0  0  0  0  0  0  0  0  0  0
   60.9268   29.5472   53.5123 H   0  0  0  0  0  0  0  0  0  0  0  0
   57.3098   30.1114   52.5344 H   0  0  0  0  0  0  0  0  0  0  0  0
   56.5474   32.1613   51.3327 H   0  0  0  0  0  0  0  0  0  0  0  0
   58.1853   33.9516   50.7460 H   0  0  0  0  0  0  0  0  0  0  0  0
   60.5929   33.6890   51.3507 H   0  0  0  0  0  0  0  0  0  0  0  0
   62.5135   29.7538   49.5885 H   0  0  0  0  0  0  0  0  0  0  0  0
   62.0520   31.2909   47.6808 H   0  0  0  0  0  0  0  0  0  0  0  0
  1  2  2  0
  2  3  1  0
  3  4  1  0
  4  5  1  0
  5  6  2  0
  6  7  1  0
  7  8  2  0
  7  9  1  0
  9 10  1  0
 10 11  1  0
 11 12  2  0
 12 13  1  0
 13 14  2  0
 14 15  1  0
 15 16  2  0
  9 17  2  0
 17 18  1  0
 17 19  1  0
  2 20  1  0
 20 21  1  0
 21 22  2  0
 22 23  1  0
 23 24  2  0
 24 25  1  0
 25 26  2  0
 25 27  2  0
 25 28  1  0
 28 29  1  0
 29 30  1  0
 30 31  2  0
 31 32  1  0
 32 33  2  0
 33 34  1  0
 34 35  2  0
 35 36  1  0
 24 37  1  0
 37 38  2  0
 19  5  1  0
 38 21  1  0
 16 11  1  0
 35 30  1  0
  3 39  1  0
  3 40  1  0
 10 41  1  0
 10 42  1  0
 12 43  1  0
 13 44  1  0
 14 45  1  0
 15 46  1  0
 16 47  1  0
 20 48  1  0
 22 49  1  0
 23 50  1  0
 29 51  1  0
 29 52  1  0
 31 53  1  0
 32 54  1  0
 33 55  1  0
 34 56  1  0
 37 57  1  0
 38 58  1  0
M  CHG  3  18  -1  19  -1  28  -1
M  END
>  <UniqueID>  (73) 
68

>  <SMILES>  (73) 
O=C(CSc1nc(=O)c(Cc2ccccc2)c([O-])[n-]1)Nc1ccc(S(=O)(=O)[N-]Cc2ccccc2F)cc1

>  <Energy>  (73) 
56.703098439246745

>  <Genealogy>  (73) 
O=C(CSc1nc(=O)c(Cc2ccccc2)c([O-])[n-]1)Nc1ccc(S(=O)(=O)[N-]Cc2ccccc2F)cc1 (protonated)
O=C(CSc1nc(=O)c(Cc2ccccc2)c([O-])[n-]1)Nc1ccc(S(=O)(=O)[N-]Cc2ccccc2F)cc1 (3D coordinates assigned)
O=C(CSc1nc(=O)c(Cc2ccccc2)c([O-])[n-]1)Nc1ccc(S(=O)(=O)[N-]Cc2ccccc2F)cc1 (optimized conformer: 56.703098439246745 kcal/mol)

>  <smiles>  (73) 
O=C(CSc1nc(=O)c(Cc2ccccc2)c(O)[nH]1)Nc1ccc(S(=O)(=O)NCc2ccccc2F)cc1

>  <score_type>  (73) 
oracle

>  <origin>  (73) 
adg

>  <m_score__min__energy>  (73) 
-14.66

>  <m_primary>  (73) 
energy

$$$$
73:0
     RDKit          3D

 52 54  0  0  0  0  0  0  0  0999 V2000
   55.0442   28.9511   44.0102 H   0  0  0  0  0  0  0  0  0  0  0  0
   55.7560   29.7710   43.8340 C   0  0  0  0  0  0  0  0  0  0  0  0
   56.1400   30.5700   44.8640 N   0  0  0  0  0  0  0  0  0  0  0  0
   57.0200   31.5990   44.6920 C   0  0  0  0  0  0  0  0  0  0  0  0
   57.3810   32.3480   45.6930 N   0  0  0  0  0  0  0  0  0  0  0  0
   57.7450   33.7360   45.6090 C   0  0  0  0  0  0  0  0  0  0  0  0
   56.8520   34.5890   45.3670 O   0  0  0  0  0  0  0  0  0  0  0  0
   59.0960   34.1750   45.8040 N   0  0  0  0  0  0  0  0  0  0  0  0
   60.0980   33.4520   46.5300 C   0  0  0  0  0  0  0  0  0  0  0  0
   61.3340   34.0380   46.8530 C   0  0  0  0  0  0  0  0  0  0  0  0
   61.5508   35.0693   46.5378 H   0  0  0  0  0  0  0  0  0  0  0  0
   62.2880   33.3150   47.5730 C   0  0  0  0  0  0  0  0  0  0  0  0
   63.2555   33.7767   47.8197 H   0  0  0  0  0  0  0  0  0  0  0  0
   62.0160   32.0080   47.9800 C   0  0  0  0  0  0  0  0  0  0  0  0
   62.7700   31.4433   48.5479 H   0  0  0  0  0  0  0  0  0  0  0  0
   60.7850   31.4110   47.6680 C   0  0  0  0  0  0  0  0  0  0  0  0
   60.4810   30.0080   48.1260 C   0  0  0  0  0  0  0  0  0  0  0  0
   59.4150   29.9384   48.3885 H   0  0  0  0  0  0  0  0  0  0  0  0
   61.1089   29.7811   49.0002 H   0  0  0  0  0  0  0  0  0  0  0  0
   60.7720   29.0590   47.0980 O   0  0  0  0  0  0  0  0  0  0  0  0
   59.8460   28.5560   46.1690 C   0  0  0  0  0  0  0  0  0  0  0  0
   60.2760   28.3450   44.8540 C   0  0  0  0  0  0  0  0  0  0  0  0
   61.3206   28.5558   44.5813 H   0  0  0  0  0  0  0  0  0  0  0  0
   59.3900   27.8690   43.8850 C   0  0  0  0  0  0  0  0  0  0  0  0
   59.7388   27.7072   42.8544 H   0  0  0  0  0  0  0  0  0  0  0  0
   58.0620   27.5980   44.2220 C   0  0  0  0  0  0  0  0  0  0  0  0
   57.3624   27.2398   43.4524 H   0  0  0  0  0  0  0  0  0  0  0  0
   57.6180   27.7820   45.5420 C   0  0  0  0  0  0  0  0  0  0  0  0
   56.2520   27.5540   45.9120 N   0  0  0  0  0  0  0  0  0  0  0  0
   55.6740   26.2740   46.1880 C   0  0  0  0  0  0  0  0  0  0  0  0
   56.3120   25.4550   46.8970 O   0  0  0  0  0  0  0  0  0  0  0  0
   54.4110   25.8810   45.6350 N   0  0  0  0  0  0  0  0  0  0  0  0
   54.0100   24.5090   45.3290 C   0  0  0  0  0  0  0  0  0  0  0  0
   53.3782   24.5137   44.4286 H   0  0  0  0  0  0  0  0  0  0  0  0
   53.4580   24.1101   46.1928 H   0  0  0  0  0  0  0  0  0  0  0  0
   55.2270   23.6100   45.0790 C   0  0  0  0  0  0  0  0  0  0  0  0
   54.9454   22.5668   45.2850 H   0  0  0  0  0  0  0  0  0  0  0  0
   56.0367   23.9443   45.7443 H   0  0  0  0  0  0  0  0  0  0  0  0
   55.7300   23.7090   43.6410 C   0  0  0  0  0  0  0  0  0  0  0  0
   56.8093   23.9214   43.6439 H   0  0  0  0  0  0  0  0  0  0  0  0
   55.5450   22.7572   43.1215 H   0  0  0  0  0  0  0  0  0  0  0  0
   55.1981   24.5197   43.1215 H   0  0  0  0  0  0  0  0  0  0  0  0
   58.5090   28.2650   46.5090 C   0  0  0  0  0  0  0  0  0  0  0  0
   58.1628   28.4185   47.5418 H   0  0  0  0  0  0  0  0  0  0  0  0
   59.8410   32.1310   46.9150 C   0  0  0  0  0  0  0  0  0  0  0  0
   58.8934   31.6527   46.6263 H   0  0  0  0  0  0  0  0  0  0  0  0
   57.5640   31.8340   43.4230 C   0  0  0  0  0  0  0  0  0  0  0  0
   58.2909   32.6457   43.2724 H   0  0  0  0  0  0  0  0  0  0  0  0
   57.1750   31.0280   42.3500 C   0  0  0  0  0  0  0  0  0  0  0  0
   57.5862   31.2112   41.3463 H   0  0  0  0  0  0  0  0  0  0  0  0
   56.2640   29.9900   42.5530 C   0  0  0  0  0  0  0  0  0  0  0  0
   55.9504   29.3524   41.7133 H   0  0  0  0  0  0  0  0  0  0  0  0
  1  2  1  0
  2  3  1  0
  3  4  1  0
  4  5  2  0
  5  6  1  0
  6  7  2  0
  6  8  1  0
  8  9  1  0
  9 10  2  0
 10 11  1  0
 10 12  1  0
 12 13  1  0
 12 14  2  0
 14 15  1  0
 14 16  1  0
 16 17  1  0
 17 18  1  0
 17 19  1  0
 17 20  1  0
 20 21  1  0
 21 22  2  0
 22 23  1  0
 22 24  1  0
 24 25  1  0
 24 26  2  0
 26 27  1  0
 26 28  1  0
 28 29  1  0
 29 30  1  0
 30 31  2  0
 30 32  1  0
 32 33  1  0
 33 34  1  0
 33 35  1  0
 33 36  1  0
 36 37  1  0
 36 38  1  0
 36 39  1  0
 39 40  1  0
 39 41  1  0
 39 42  1  0
 28 43  2  0
 43 44  1  0
 16 45  2  0
 45 46  1  0
  4 47  1  0
 47 48  1  0
 47 49  2  0
 49 50  1  0
 49 51  1  0
 51 52  1  0
 51  2  2  0
 45  9  1  0
 43 21  1  0
M  CHG  4   3  -1   8  -1  29  -1  32  -1
M  END
>  <UniqueID>  (74) 
69

>  <SMILES>  (74) 
CCC[N-]C(=O)[N-]c1cccc(OCc2cccc([N-]C(=O)/N=c3/cccc[n-]3)c2)c1

>  <Energy>  (74) 
60.151385563179325

>  <Genealogy>  (74) 
CCC[N-]C(=O)[N-]c1cccc(OCc2cccc([N-]C(=O)N=c3cccc[n-]3)c2)c1 (protonated)
CCC[N-]C(=O)[N-]c1cccc(OCc2cccc([N-]C(=O)/N=c3/cccc[n-]3)c2)c1 (cis-trans isomerization)
CCC[N-]C(=O)[N-]c1cccc(OCc2cccc([N-]C(=O)/N=c3/cccc[n-]3)c2)c1 (3D coordinates assigned)
CCC[N-]C(=O)[N-]c1cccc(OCc2cccc([N-]C(=O)/N=c3/cccc[n-]3)c2)c1 (optimized conformer: 60.151385563179325 kcal/mol)

>  <smiles>  (74) 
CCCNC(=O)Nc1cccc(OCc2cccc(NC(=O)N=c3cccc[nH]3)c2)c1

>  <score_type>  (74) 
oracle

>  <origin>  (74) 
adg

>  <m_score__min__energy>  (74) 
-14.81

>  <m_primary>  (74) 
energy

$$$$
74:0
     RDKit          3D

 53 57  0  0  1  0  0  0  0  0999 V2000
   60.8850   34.5830   48.8410 C   0  0  0  0  0  0  0  0  0  0  0  0
   60.0610   34.3370   47.6360 C   0  0  0  0  0  0  0  0  0  0  0  0
   59.5120   35.3540   46.9070 N   0  0  0  0  0  0  0  0  0  0  0  0
   58.8550   34.7930   45.9210 N   0  0  0  0  0  0  0  0  0  0  0  0
   58.9460   33.4340   45.9710 C   0  0  0  0  0  0  0  0  0  0  0  0
   58.3030   32.6060   44.9630 C   0  0  0  0  0  0  0  0  0  0  0  0
   58.4430   33.0700   43.6440 C   0  0  0  0  0  0  0  0  0  0  0  0
   57.8060   32.3280   42.6560 C   0  0  0  0  0  0  0  0  0  0  0  0
   57.0700   31.1940   42.9280 C   0  0  0  0  0  0  0  0  0  0  0  0
   56.4350   30.4510   41.9490 O   0  0  0  0  0  0  0  0  0  0  0  0
   56.9400   30.7480   44.2340 C   0  0  0  0  0  0  0  0  0  0  0  0
   55.9800   29.3240   44.6100 Cl  0  0  0  0  0  0  0  0  0  0  0  0
   57.5760   31.4910   45.2090 C   0  0  0  0  0  0  0  0  0  0  0  0
   59.7120   33.1170   47.0550 C   0  0  0  0  0  0  0  0  0  0  0  0
   60.1570   31.8500   47.5510 C   0  0  0  0  0  0  0  0  0  0  0  0
   59.7710   31.5430   48.7420 O   0  0  0  0  0  0  0  0  0  0  0  0
   59.0700   25.7860   46.7230 N   0  0  0  0  0  0  0  0  0  0  0  0
   57.8960   25.5450   46.2200 C   0  0  0  0  0  0  0  0  0  0  0  0
   56.8200   26.3830   46.4710 C   0  0  0  0  0  0  0  0  0  0  0  0
   60.0110   27.7360   45.5000 C   0  0  0  0  0  0  0  0  0  0  0  0
   59.6170   27.1220   46.6270 C   0  0  0  0  0  0  0  0  0  0  0  0
   60.9650   30.8950   46.9200 N   0  0  0  0  0  0  0  0  0  0  0  0
   60.5730   29.6910   46.7530 C   0  0  0  0  0  0  0  0  0  0  0  0
   60.4980   29.0400   45.5450 C   0  0  0  0  0  0  0  0  0  0  0  0
   55.5460   26.1520   46.0040 C   0  0  0  0  0  0  0  0  0  0  0  0
   55.3240   25.0520   45.2620 N   0  0  0  0  0  0  0  0  0  0  0  0
   56.3440   24.2050   44.9900 C   0  0  0  0  0  0  0  0  0  0  0  0
   56.0060   23.0860   44.2340 C   0  0  0  0  0  0  0  0  0  0  0  0
   57.0150   22.1870   43.9560 C   0  0  0  0  0  0  0  0  0  0  0  0
   56.6630   20.7470   43.0150 Cl  0  0  0  0  0  0  0  0  0  0  0  0
   58.3110   22.3960   44.4130 C   0  0  0  0  0  0  0  0  0  0  0  0
   58.6370   23.5300   45.1750 C   0  0  0  0  0  0  0  0  0  0  0  0
   57.6290   24.4270   45.4530 C   0  0  0  0  0  0  0  0  0  0  0  0
   59.6920   27.7830   47.8500 C   0  0  0  0  0  0  0  0  0  0  0  0
   60.1660   29.0330   47.8580 N   0  0  0  0  0  0  0  0  0  0  0  0
   60.2802   34.4024   49.7419 H   0  0  0  0  0  0  0  0  0  0  0  0
   61.7505   33.9041   48.8382 H   0  0  0  0  0  0  0  0  0  0  0  0
   61.2366   35.6253   48.8382 H   0  0  0  0  0  0  0  0  0  0  0  0
   59.5990   36.3700   47.0970 H   0  0  0  0  0  0  0  0  0  0  0  0
   59.0256   33.9722   43.4060 H   0  0  0  0  0  0  0  0  0  0  0  0
   57.8929   32.6601   41.6109 H   0  0  0  0  0  0  0  0  0  0  0  0
   55.5280   30.0490   42.0800 H   0  0  0  0  0  0  0  0  0  0  0  0
   57.4860   31.1551   46.2526 H   0  0  0  0  0  0  0  0  0  0  0  0
   56.9946   27.2837   47.0779 H   0  0  0  0  0  0  0  0  0  0  0  0
   59.9489   27.2072   44.5375 H   0  0  0  0  0  0  0  0  0  0  0  0
   60.8197   29.5444   44.6219 H   0  0  0  0  0  0  0  0  0  0  0  0
   54.7279   26.8510   46.2323 H   0  0  0  0  0  0  0  0  0  0  0  0
   54.3510   24.8830   44.9190 H   0  0  0  0  0  0  0  0  0  0  0  0
   54.9791   22.9255   43.8739 H   0  0  0  0  0  0  0  0  0  0  0  0
   59.0940   21.6613   44.1740 H   0  0  0  0  0  0  0  0  0  0  0  0
   59.6622   23.6962   45.5374 H   0  0  0  0  0  0  0  0  0  0  0  0
   59.3713   27.2921   48.7807 H   0  0  0  0  0  0  0  0  0  0  0  0
   60.2130   29.5080   48.8070 H   0  0  0  0  0  0  0  0  0  0  0  0
  1  2  1  0
  2  3  1  0
  3  4  1  0
  4  5  2  0
  5  6  1  0
  6  7  2  0
  7  8  1  0
  8  9  2  0
  9 10  1  0
  9 11  1  0
 11 12  1  0
 11 13  2  0
  5 14  1  0
 14 15  1  0
 15 16  2  0
 15 17  1  0
 17 18  2  0
 18 19  1  0
 19 20  2  0
 20 21  1  0
 21 22  1  0
 22 23  2  0
 23 24  1  0
 24 25  2  0
 25 26  1  0
 26 27  1  0
 27 28  2  0
 28 29  1  0
 29 30  1  0
 29 31  2  0
 31 32  1  0
 32 33  2  0
 21 34  2  0
 34 35  1  0
 14  2  2  0
 35 18  1  0
 13  6  1  0
 33 23  1  0
 33 27  1  0
  1 36  1  0
  1 37  1  0
  1 38  1  0
  3 39  1  0
  7 40  1  0
  8 41  1  0
 10 42  1  0
 13 43  1  0
 19 44  1  0
 20 45  1  0
 24 46  1  0
 25 47  1  0
 26 48  1  0
 28 49  1  0
 31 50  1  0
 32 51  1  0
 34 52  1  0
 35 53  1  0
M  END
>  <smiles>  (75) 
Cc1[nH]nc(-c2ccc(O)c(Cl)c2)c1C(=O)N=c1ccc(N=c2cc[nH]c3cc(Cl)ccc23)c[nH]1

>  <score_type>  (75) 
oracle

>  <origin>  (75) 
adg

>  <m_score__min__energy>  (75) 
-9.6899999999999995

>  <m_primary>  (75) 
energy

$$$$
75:0
     RDKit          3D

 68 70  0  0  0  0  0  0  0  0999 V2000
   58.8150   34.2250   52.0640 C   0  0  0  0  0  0  0  0  0  0  0  0
   58.9770   33.6120   53.4510 C   0  0  0  0  0  0  0  0  0  0  0  0
   59.8410   32.4780   53.4050 O   0  0  0  0  0  0  0  0  0  0  0  0
   60.7430   32.2330   52.3610 C   0  0  0  0  0  0  0  0  0  0  0  0
   61.8590   32.8210   52.3370 O   0  0  0  0  0  0  0  0  0  0  0  0
   60.3840   31.2790   51.2880 C   0  0  0  0  0  0  0  0  0  0  0  0
   61.3800   30.6770   50.4980 C   0  0  0  0  0  0  0  0  0  0  0  0
   61.0340   29.7850   49.4800 C   0  0  0  0  0  0  0  0  0  0  0  0
   59.6930   29.4630   49.2420 C   0  0  0  0  0  0  0  0  0  0  0  0
   59.3790   28.5640   48.1680 N   0  0  0  0  0  0  0  0  0  0  0  0
   59.2370   28.9110   46.7850 C   0  0  0  0  0  0  0  0  0  0  0  0
   60.1850   29.4650   46.1650 O   0  0  0  0  0  0  0  0  0  0  0  0
   57.9870   28.6650   46.1310 N   0  0  0  0  0  0  0  0  0  0  0  0
   57.7030   29.0790   44.7530 C   0  0  1  0  0  0  0  0  0  0  0  0
   57.8000   27.8600   43.8160 C   0  0  0  0  0  0  0  0  0  0  0  0
   58.4800   26.6590   44.4980 C   0  0  0  0  0  0  0  0  0  0  0  0
   57.4910   25.5320   44.8340 C   0  0  0  0  0  0  0  0  0  0  0  0
   56.7600   25.7590   46.1680 C   0  0  0  0  0  0  0  0  0  0  0  0
   55.6610   26.7090   46.0130 N   0  0  0  0  0  0  0  0  0  0  0  0
   56.3430   29.7180   44.7070 C   0  0  0  0  0  0  0  0  0  0  0  0
   55.3090   29.0090   44.8470 O   0  0  0  0  0  0  0  0  0  0  0  0
   56.2420   31.1440   44.6050 N   0  0  0  0  0  0  0  0  0  0  0  0
   57.2800   32.0960   44.8760 C   0  0  0  0  0  0  0  0  0  0  0  0
   57.8190   32.9200   43.8720 C   0  0  0  0  0  0  0  0  0  0  0  0
   58.8430   33.8210   44.1780 C   0  0  0  0  0  0  0  0  0  0  0  0
   59.3410   33.9040   45.4800 C   0  0  0  0  0  0  0  0  0  0  0  0
   58.8200   33.0800   46.4940 C   0  0  0  0  0  0  0  0  0  0  0  0
   59.3610   33.1340   47.8740 C   0  0  0  0  0  0  0  0  0  0  0  0
   58.5580   33.0740   48.8460 O   0  0  0  0  0  0  0  0  0  0  0  0
   60.8130   33.2610   48.1520 C   0  0  0  0  0  0  0  0  0  0  0  0
   61.2830   34.0890   49.1890 C   0  0  0  0  0  0  0  0  0  0  0  0
   62.6530   34.1890   49.4480 C   0  0  0  0  0  0  0  0  0  0  0  0
   63.5660   33.4600   48.6830 C   0  0  0  0  0  0  0  0  0  0  0  0
   63.1100   32.6210   47.6640 C   0  0  0  0  0  0  0  0  0  0  0  0
   61.7400   32.5150   47.4020 C   0  0  0  0  0  0  0  0  0  0  0  0
   57.8040   32.1630   46.1730 C   0  0  0  0  0  0  0  0  0  0  0  0
   58.6930   30.0740   50.0170 C   0  0  0  0  0  0  0  0  0  0  0  0
   59.0360   30.9710   51.0340 C   0  0  0  0  0  0  0  0  0  0  0  0
   58.5351   35.2843   52.1617 H   0  0  0  0  0  0  0  0  0  0  0  0
   59.7649   34.1459   51.5149 H   0  0  0  0  0  0  0  0  0  0  0  0
   58.0282   33.6869   51.5149 H   0  0  0  0  0  0  0  0  0  0  0  0
   59.4048   34.3642   54.1302 H   0  0  0  0  0  0  0  0  0  0  0  0
   57.9893   33.2888   53.8116 H   0  0  0  0  0  0  0  0  0  0  0  0
   62.4389   30.9102   50.6831 H   0  0  0  0  0  0  0  0  0  0  0  0
   61.8220   29.3320   48.8604 H   0  0  0  0  0  0  0  0  0  0  0  0
   57.2470   28.1510   46.6600 H   0  0  0  0  0  0  0  0  0  0  0  0
   58.4418   29.8183   44.4101 H   0  0  0  0  0  0  0  0  0  0  0  0
   56.7852   27.5663   43.5097 H   0  0  0  0  0  0  0  0  0  0  0  0
   58.4111   28.1475   42.9477 H   0  0  0  0  0  0  0  0  0  0  0  0
   59.2516   26.2608   43.8226 H   0  0  0  0  0  0  0  0  0  0  0  0
   58.9134   27.0149   45.4443 H   0  0  0  0  0  0  0  0  0  0  0  0
   56.7433   25.4691   44.0297 H   0  0  0  0  0  0  0  0  0  0  0  0
   58.0691   24.6008   44.9272 H   0  0  0  0  0  0  0  0  0  0  0  0
   56.3573   24.7994   46.5243 H   0  0  0  0  0  0  0  0  0  0  0  0
   57.4775   26.1715   46.8927 H   0  0  0  0  0  0  0  0  0  0  0  0
   55.4940   26.8700   44.9930 H   0  0  0  0  0  0  0  0  0  0  0  0
   55.9400   27.6230   46.4370 H   0  0  0  0  0  0  0  0  0  0  0  0
   57.4340   32.8554   42.8436 H   0  0  0  0  0  0  0  0  0  0  0  0
   59.2580   34.4670   43.3903 H   0  0  0  0  0  0  0  0  0  0  0  0
   60.1449   34.6175   45.7139 H   0  0  0  0  0  0  0  0  0  0  0  0
   60.5680   34.6606   49.7990 H   0  0  0  0  0  0  0  0  0  0  0  0
   63.0126   34.8432   50.2559 H   0  0  0  0  0  0  0  0  0  0  0  0
   64.6442   33.5466   48.8830 H   0  0  0  0  0  0  0  0  0  0  0  0
   63.8296   32.0423   47.0662 H   0  0  0  0  0  0  0  0  0  0  0  0
   61.3857   31.8446   46.6051 H   0  0  0  0  0  0  0  0  0  0  0  0
   57.4154   31.4892   46.9508 H   0  0  0  0  0  0  0  0  0  0  0  0
   57.6346   29.8457   49.8229 H   0  0  0  0  0  0  0  0  0  0  0  0
   58.2455   31.4387   51.6393 H   0  0  0  0  0  0  0  0  0  0  0  0
  1  2  1  0
  2  3  1  0
  3  4  1  0
  4  5  2  0
  4  6  1  0
  6  7  2  0
  7  8  1  0
  8  9  2  0
  9 10  1  0
 10 11  1  0
 11 12  2  0
 11 13  1  0
 13 14  1  0
 14 15  1  0
 15 16  1  0
 16 17  1  0
 17 18  1  0
 18 19  1  0
 14 20  1  0
 20 21  2  0
 20 22  1  0
 22 23  1  0
 23 24  2  0
 24 25  1  0
 25 26  2  0
 26 27  1  0
 27 28  1  0
 28 29  2  0
 28 30  1  0
 30 31  2  0
 31 32  1  0
 32 33  2  0
 33 34  1  0
 34 35  2  0
 27 36  2  0
  9 37  1  0
 37 38  2  0
 38  6  1  0
 36 23  1  0
 35 30  1  0
  1 39  1  0
  1 40  1  0
  1 41  1  0
  2 42  1  0
  2 43  1  0
  7 44  1  0
  8 45  1  0
 13 46  1  0
 14 47  1  6
 15 48  1  0
 15 49  1  0
 16 50  1  0
 16 51  1  0
 17 52  1  0
 17 53  1  0
 18 54  1  0
 18 55  1  0
 19 56  1  0
 19 57  1  0
 24 58  1  0
 25 59  1  0
 26 60  1  0
 31 61  1  0
 32 62  1  0
 33 63  1  0
 34 64  1  0
 35 65  1  0
 36 66  1  0
 37 67  1  0
 38 68  1  0
M  CHG  2  10  -1  22  -1
M  END
>  <UniqueID>  (76) 
70

>  <SMILES>  (76) 
CCOC(=O)c1ccc([N-]C(=O)N[C@@H](CCCCN)C(=O)[N-]c2cccc(C(=O)c3ccccc3)c2)cc1

>  <Energy>  (76) 
70.55554277484924

>  <Genealogy>  (76) 
CCOC(=O)c1ccc([N-]C(=O)NC(CCCCN)C(=O)[N-]c2cccc(C(=O)c3ccccc3)c2)cc1 (protonated)
CCOC(=O)c1ccc([N-]C(=O)N[C@@H](CCCCN)C(=O)[N-]c2cccc(C(=O)c3ccccc3)c2)cc1 (chirality)
CCOC(=O)c1ccc([N-]C(=O)N[C@@H](CCCCN)C(=O)[N-]c2cccc(C(=O)c3ccccc3)c2)cc1 (3D coordinates assigned)
CCOC(=O)c1ccc([N-]C(=O)N[C@@H](CCCCN)C(=O)[N-]c2cccc(C(=O)c3ccccc3)c2)cc1 (optimized conformer: 70.55554277484924 kcal/mol)

>  <smiles>  (76) 
CCOC(=O)c1ccc(NC(=O)NC(CCCCN)C(=O)Nc2cccc(C(=O)c3ccccc3)c2)cc1

>  <score_type>  (76) 
oracle

>  <origin>  (76) 
adg

>  <m_score__min__energy>  (76) 
-12.67

>  <m_primary>  (76) 
energy

$$$$
76:0
     RDKit          3D

 41 42  0  0  0  0  0  0  0  0999 V2000
   59.3680   34.5750   47.5480 C   0  0  0  0  0  0  0  0  0  0  0  0
   58.7830   34.5880   46.1640 C   0  0  0  0  0  0  0  0  0  0  0  0
   57.5310   33.7540   46.1920 C   0  0  0  0  0  0  0  0  0  0  0  0
   57.6040   32.7260   45.1090 C   0  0  0  0  0  0  0  0  0  0  0  0
   57.8430   33.0740   43.7950 C   0  0  0  0  0  0  0  0  0  0  0  0
   57.8960   32.0510   42.8480 C   0  0  0  0  0  0  0  0  0  0  0  0
   58.1140   32.3330   41.6280 O   0  0  0  0  0  0  0  0  0  0  0  0
   57.7180   30.7700   43.2150 N   0  0  0  0  0  0  0  0  0  0  0  0
   57.4830   30.4400   44.5100 C   0  0  0  0  0  0  0  0  0  0  0  0
   57.2500   28.7320   44.9720 S   0  0  0  0  0  0  0  0  0  0  0  0
   58.8650   28.1100   45.5790 C   0  0  0  0  0  0  0  0  0  0  0  0
   59.3290   29.1540   46.5600 C   0  0  0  0  0  0  0  0  0  0  0  0
   58.8480   29.1040   47.8630 C   0  0  0  0  0  0  0  0  0  0  0  0
   59.2760   30.0690   48.7740 C   0  0  0  0  0  0  0  0  0  0  0  0
   60.1650   31.0520   48.3680 C   0  0  0  0  0  0  0  0  0  0  0  0
   60.6440   31.1020   47.0690 C   0  0  0  0  0  0  0  0  0  0  0  0
   61.5240   32.1090   46.7450 O   0  0  0  0  0  0  0  0  0  0  0  0
   62.7350   32.1970   47.4940 C   0  0  0  0  0  0  0  0  0  0  0  0
   63.4410   33.4630   47.0540 C   0  0  0  0  0  0  0  0  0  0  0  0
   60.2130   30.1380   46.1670 C   0  0  0  0  0  0  0  0  0  0  0  0
   57.4310   31.4390   45.4380 N   0  0  0  0  0  0  0  0  0  0  0  0
   58.5558   34.5931   48.2896 H   0  0  0  0  0  0  0  0  0  0  0  0
   59.9683   33.6633   47.6838 H   0  0  0  0  0  0  0  0  0  0  0  0
   60.0082   35.4591   47.6838 H   0  0  0  0  0  0  0  0  0  0  0  0
   58.5402   35.6195   45.8690 H   0  0  0  0  0  0  0  0  0  0  0  0
   59.5016   34.1821   45.4368 H   0  0  0  0  0  0  0  0  0  0  0  0
   57.4425   33.2550   47.1683 H   0  0  0  0  0  0  0  0  0  0  0  0
   56.6532   34.3977   46.0335 H   0  0  0  0  0  0  0  0  0  0  0  0
   57.9871   34.1249   43.5036 H   0  0  0  0  0  0  0  0  0  0  0  0
   57.7570   29.9950   42.5040 H   0  0  0  0  0  0  0  0  0  0  0  0
   58.7442   27.1362   46.0762 H   0  0  0  0  0  0  0  0  0  0  0  0
   59.5859   27.9545   44.7628 H   0  0  0  0  0  0  0  0  0  0  0  0
   58.1427   28.3177   48.1699 H   0  0  0  0  0  0  0  0  0  0  0  0
   58.9095   30.0503   49.8110 H   0  0  0  0  0  0  0  0  0  0  0  0
   60.4975   31.8092   49.0933 H   0  0  0  0  0  0  0  0  0  0  0  0
   62.5105   32.2448   48.5698 H   0  0  0  0  0  0  0  0  0  0  0  0
   63.3683   31.3149   47.3186 H   0  0  0  0  0  0  0  0  0  0  0  0
   63.7586   34.0325   47.9399 H   0  0  0  0  0  0  0  0  0  0  0  0
   64.3229   33.2005   46.4513 H   0  0  0  0  0  0  0  0  0  0  0  0
   62.7541   34.0753   46.4513 H   0  0  0  0  0  0  0  0  0  0  0  0
   60.5795   30.1590   45.1301 H   0  0  0  0  0  0  0  0  0  0  0  0
  1  2  1  0
  2  3  1  0
  3  4  1  0
  4  5  2  0
  5  6  1  0
  6  7  2  0
  6  8  1  0
  8  9  1  0
  9 10  1  0
 10 11  1  0
 11 12  1  0
 12 13  2  0
 13 14  1  0
 14 15  2  0
 15 16  1  0
 16 17  1  0
 17 18  1  0
 18 19  1  0
 16 20  2  0
  9 21  2  0
 21  4  1  0
 20 12  1  0
  1 22  1  0
  1 23  1  0
  1 24  1  0
  2 25  1  0
  2 26  1  0
  3 27  1  0
  3 28  1  0
  5 29  1  0
  8 30  1  0
 11 31  1  0
 11 32  1  0
 13 33  1  0
 14 34  1  0
 15 35  1  0
 18 36  1  0
 18 37  1  0
 19 38  1  0
 19 39  1  0
 19 40  1  0
 20 41  1  0
M  END
>  <smiles>  (77) 
CCCc1cc(=O)[nH]c(SCc2cccc(OCC)c2)n1

>  <score_type>  (77) 
oracle

>  <origin>  (77) 
adg

>  <m_score__min__energy>  (77) 
-7.29

>  <m_primary>  (77) 
energy

$$$$
77:0
     RDKit          3D

 49 51  0  0  0  0  0  0  0  0999 V2000
   57.0260   26.8150   45.5750 C   0  0  0  0  0  0  0  0  0  0  0  0
   56.4200   28.1020   45.5900 O   0  0  0  0  0  0  0  0  0  0  0  0
   56.8320   29.1850   44.7950 C   0  0  0  0  0  0  0  0  0  0  0  0
   56.0070   29.7190   43.7850 C   0  0  0  0  0  0  0  0  0  0  0  0
   56.4480   30.7910   43.0060 C   0  0  0  0  0  0  0  0  0  0  0  0
   57.7080   31.3450   43.2280 C   0  0  0  0  0  0  0  0  0  0  0  0
   58.5290   30.8380   44.2360 C   0  0  0  0  0  0  0  0  0  0  0  0
   58.1010   29.7580   45.0230 C   0  0  0  0  0  0  0  0  0  0  0  0
   59.0010   29.1900   46.0480 C   0  0  0  0  0  0  0  0  0  0  0  0
   60.0730   28.6420   45.6820 O   0  0  0  0  0  0  0  0  0  0  0  0
   58.6820   29.2230   47.4460 N   0  0  0  0  0  0  0  0  0  0  0  0
   58.9940   30.3100   48.3680 C   0  0  0  0  0  0  0  0  0  0  0  0
   60.4420   30.6800   48.2800 C   0  0  0  0  0  0  0  0  0  0  0  0
   61.2710   30.3190   47.2840 N   0  0  0  0  0  0  0  0  0  0  0  0
   62.4410   30.8930   47.5090 N   0  0  0  0  0  0  0  0  0  0  0  0
   62.2770   31.5860   48.6540 C   0  0  0  0  0  0  0  0  0  0  0  0
   63.5460   32.5970   49.4130 S   0  0  0  0  0  0  0  0  0  0  0  0
   63.0340   34.1220   48.5480 C   0  0  0  0  0  0  0  0  0  0  0  0
   61.9080   33.8250   47.5970 C   0  0  0  0  0  0  0  0  0  0  0  0
   62.1950   33.3620   46.4580 O   0  0  0  0  0  0  0  0  0  0  0  0
   60.5230   33.9740   47.9800 N   0  0  0  0  0  0  0  0  0  0  0  0
   60.1990   34.2120   49.3920 C   0  0  0  0  0  0  0  0  0  0  0  0
   59.4630   33.9530   47.0010 C   0  0  0  0  0  0  0  0  0  0  0  0
   58.2220   33.3710   47.3110 C   0  0  0  0  0  0  0  0  0  0  0  0
   57.1790   33.3920   46.3800 C   0  0  0  0  0  0  0  0  0  0  0  0
   57.3640   33.9990   45.1360 C   0  0  0  0  0  0  0  0  0  0  0  0
   58.5940   34.5790   44.8180 C   0  0  0  0  0  0  0  0  0  0  0  0
   59.6370   34.5650   45.7470 C   0  0  0  0  0  0  0  0  0  0  0  0
   61.0630   31.4580   49.1300 O   0  0  0  0  0  0  0  0  0  0  0  0
   57.1868   26.4734   46.6082 H   0  0  0  0  0  0  0  0  0  0  0  0
   56.3673   26.1056   45.0526 H   0  0  0  0  0  0  0  0  0  0  0  0
   57.9924   26.8708   45.0526 H   0  0  0  0  0  0  0  0  0  0  0  0
   55.0099   29.2890   43.6092 H   0  0  0  0  0  0  0  0  0  0  0  0
   55.8002   31.1989   42.2161 H   0  0  0  0  0  0  0  0  0  0  0  0
   58.0557   32.1838   42.6071 H   0  0  0  0  0  0  0  0  0  0  0  0
   59.5170   31.2874   44.4146 H   0  0  0  0  0  0  0  0  0  0  0  0
   58.3811   31.1870   48.1127 H   0  0  0  0  0  0  0  0  0  0  0  0
   58.7759   29.9772   49.3935 H   0  0  0  0  0  0  0  0  0  0  0  0
   61.0460   29.7260   46.4540 H   0  0  0  0  0  0  0  0  0  0  0  0
   62.6991   34.8644   49.2874 H   0  0  0  0  0  0  0  0  0  0  0  0
   63.8891   34.5175   47.9803 H   0  0  0  0  0  0  0  0  0  0  0  0
   60.9220   33.6809   50.0286 H   0  0  0  0  0  0  0  0  0  0  0  0
   60.2479   35.2905   49.6027 H   0  0  0  0  0  0  0  0  0  0  0  0
   59.1844   33.8429   49.6027 H   0  0  0  0  0  0  0  0  0  0  0  0
   58.0703   32.8962   48.2916 H   0  0  0  0  0  0  0  0  0  0  0  0
   56.2119   32.9300   46.6277 H   0  0  0  0  0  0  0  0  0  0  0  0
   56.5409   34.0203   44.4066 H   0  0  0  0  0  0  0  0  0  0  0  0
   58.7417   35.0478   43.8339 H   0  0  0  0  0  0  0  0  0  0  0  0
   60.5994   35.0351   45.4964 H   0  0  0  0  0  0  0  0  0  0  0  0
  1  2  1  0
  2  3  1  0
  3  4  2  0
  4  5  1  0
  5  6  2  0
  6  7  1  0
  7  8  2  0
  8  9  1  0
  9 10  2  0
  9 11  1  0
 11 12  1  0
 12 13  1  0
 13 14  2  0
 14 15  1  0
 15 16  2  0
 16 17  1  0
 17 18  1  0
 18 19  1  0
 19 20  2  0
 19 21  1  0
 21 22  1  0
 21 23  1  0
 23 24  2  0
 24 25  1  0
 25 26  2  0
 26 27  1  0
 27 28  2  0
 16 29  1  0
  8  3  1  0
 29 13  1  0
 28 23  1  0
  1 30  1  0
  1 31  1  0
  1 32  1  0
  4 33  1  0
  5 34  1  0
  6 35  1  0
  7 36  1  0
 12 37  1  0
 12 38  1  0
 14 39  1  0
 18 40  1  0
 18 41  1  0
 22 42  1  0
 22 43  1  0
 22 44  1  0
 24 45  1  0
 25 46  1  0
 26 47  1  0
 27 48  1  0
 28 49  1  0
M  CHG  2  11  -1  14   1
M  END
>  <UniqueID>  (78) 
71

>  <SMILES>  (78) 
COc1ccccc1C(=O)[N-]Cc1[nH+]nc(SCC(=O)N(C)c2ccccc2)o1

>  <Energy>  (78) 
84.13569272382045

>  <Genealogy>  (78) 
COc1ccccc1C(=O)[N-]Cc1[nH+]nc(SCC(=O)N(C)c2ccccc2)o1 (protonated)
COc1ccccc1C(=O)[N-]Cc1[nH+]nc(SCC(=O)N(C)c2ccccc2)o1 (3D coordinates assigned)
COc1ccccc1C(=O)[N-]Cc1[nH+]nc(SCC(=O)N(C)c2ccccc2)o1 (optimized conformer: 84.13569272382045 kcal/mol)

>  <smiles>  (78) 
COc1ccccc1C(=O)NCc1nnc(SCC(=O)N(C)c2ccccc2)o1

>  <score_type>  (78) 
oracle

>  <origin>  (78) 
adg

>  <m_score__min__energy>  (78) 
-9.6400000000000006

>  <m_primary>  (78) 
energy

$$$$
78:0
     RDKit          3D

 34 35  0  0  0  0  0  0  0  0999 V2000
   58.9360   30.5720   47.9570 C   0  0  0  0  0  0  0  0  0  0  0  0
   58.2520   31.3680   46.9940 O   0  0  0  0  0  0  0  0  0  0  0  0
   58.6440   32.6610   46.6050 C   0  0  0  0  0  0  0  0  0  0  0  0
   59.2130   33.5710   47.5180 C   0  0  0  0  0  0  0  0  0  0  0  0
   59.6060   34.8430   47.0960 C   0  0  0  0  0  0  0  0  0  0  0  0
   59.4420   35.2210   45.7640 C   0  0  0  0  0  0  0  0  0  0  0  0
   58.8790   34.3300   44.8480 C   0  0  0  0  0  0  0  0  0  0  0  0
   58.4640   33.0530   45.2610 C   0  0  0  0  0  0  0  0  0  0  0  0
   57.8860   32.0930   44.2550 C   0  0  0  0  0  0  0  0  0  0  0  0
   56.6200   31.5580   44.7580 N   0  0  0  0  0  0  0  0  0  0  0  0
   56.4660   29.8860   44.3090 S   0  0  0  0  0  0  0  0  0  0  0  0
   56.4510   29.7640   42.8100 O   0  0  0  0  0  0  0  0  0  0  0  0
   55.1670   29.3490   44.8410 O   0  0  0  0  0  0  0  0  0  0  0  0
   57.7960   28.9450   44.9810 C   0  0  0  0  0  0  0  0  0  0  0  0
   59.1070   29.1800   44.5420 C   0  0  0  0  0  0  0  0  0  0  0  0
   60.1660   28.4250   45.0560 C   0  0  0  0  0  0  0  0  0  0  0  0
   59.9190   27.4300   46.0070 C   0  0  0  0  0  0  0  0  0  0  0  0
   58.6130   27.1880   46.4430 C   0  0  0  0  0  0  0  0  0  0  0  0
   57.5520   27.9420   45.9310 C   0  0  0  0  0  0  0  0  0  0  0  0
   58.6551   30.8989   48.9690 H   0  0  0  0  0  0  0  0  0  0  0  0
   58.6594   29.5158   47.8228 H   0  0  0  0  0  0  0  0  0  0  0  0
   60.0218   30.6865   47.8228 H   0  0  0  0  0  0  0  0  0  0  0  0
   59.3485   33.2778   48.5695 H   0  0  0  0  0  0  0  0  0  0  0  0
   60.0460   35.5484   47.8163 H   0  0  0  0  0  0  0  0  0  0  0  0
   59.7565   36.2222   45.4343 H   0  0  0  0  0  0  0  0  0  0  0  0
   58.7597   34.6299   43.7964 H   0  0  0  0  0  0  0  0  0  0  0  0
   57.7094   32.6199   43.3057 H   0  0  0  0  0  0  0  0  0  0  0  0
   58.5927   31.2661   44.0912 H   0  0  0  0  0  0  0  0  0  0  0  0
   56.6440   31.5900   45.8030 H   0  0  0  0  0  0  0  0  0  0  0  0
   59.3028   29.9601   43.7916 H   0  0  0  0  0  0  0  0  0  0  0  0
   61.1936   28.6139   44.7121 H   0  0  0  0  0  0  0  0  0  0  0  0
   60.7526   26.8375   46.4121 H   0  0  0  0  0  0  0  0  0  0  0  0
   58.4195   26.4037   47.1896 H   0  0  0  0  0  0  0  0  0  0  0  0
   56.5249   27.7483   46.2737 H   0  0  0  0  0  0  0  0  0  0  0  0
  1  2  1  0
  2  3  1  0
  3  4  2  0
  4  5  1  0
  5  6  2  0
  6  7  1  0
  7  8  2  0
  8  9  1  0
  9 10  1  0
 10 11  1  0
 11 12  2  0
 11 13  2  0
 11 14  1  0
 14 15  2  0
 15 16  1  0
 16 17  2  0
 17 18  1  0
 18 19  2  0
  8  3  1  0
 19 14  1  0
  1 20  1  0
  1 21  1  0
  1 22  1  0
  4 23  1  0
  5 24  1  0
  6 25  1  0
  7 26  1  0
  9 27  1  0
  9 28  1  0
 10 29  1  0
 15 30  1  0
 16 31  1  0
 17 32  1  0
 18 33  1  0
 19 34  1  0
M  END
>  <UniqueID>  (79) 
72

>  <SMILES>  (79) 
COc1ccccc1CNS(=O)(=O)c1ccccc1

>  <Energy>  (79) 
31.18788792322362

>  <Genealogy>  (79) 
COc1ccccc1CNS(=O)(=O)c1ccccc1 (3D coordinates assigned)
COc1ccccc1CNS(=O)(=O)c1ccccc1 (optimized conformer: 31.18788792322362 kcal/mol)

>  <smiles>  (79) 
COc1ccccc1CNS(=O)(=O)c1ccccc1

>  <score_type>  (79) 
oracle

>  <origin>  (79) 
adg

>  <m_score__min__energy>  (79) 
-7.5599999999999996

>  <m_primary>  (79) 
energy

$$$$
79:0
     RDKit          3D

 61 65  0  0  0  0  0  0  0  0999 V2000
   57.4210   21.6040   46.0480 C   0  0  0  0  0  0  0  0  0  0  0  0
   57.5790   22.7420   46.8910 O   0  0  0  0  0  0  0  0  0  0  0  0
   57.3480   24.0690   46.4920 C   0  0  0  0  0  0  0  0  0  0  0  0
   58.4040   24.9480   46.1850 C   0  0  0  0  0  0  0  0  0  0  0  0
   58.1420   26.2670   45.7890 C   0  0  0  0  0  0  0  0  0  0  0  0
   59.1980   27.2000   45.5160 N   0  0  0  0  0  0  0  0  0  0  0  0
   59.0500   28.6080   45.2790 C   0  0  0  0  0  0  0  0  0  0  0  0
   59.3710   29.1000   44.1650 O   0  0  0  0  0  0  0  0  0  0  0  0
   58.5370   29.5200   46.3670 C   0  0  2  0  0  0  0  0  0  0  0  0
   57.9340   30.8050   45.8310 C   0  0  0  0  0  0  0  0  0  0  0  0
   56.9560   30.7140   45.0390 O   0  0  0  0  0  0  0  0  0  0  0  0
   58.4230   32.1590   46.2060 C   0  0  0  0  0  0  0  0  0  0  0  0
   58.4530   32.5950   47.5450 C   0  0  0  0  0  0  0  0  0  0  0  0
   58.9130   33.8750   47.8660 C   0  0  0  0  0  0  0  0  0  0  0  0
   59.3550   34.7340   46.8600 C   0  0  0  0  0  0  0  0  0  0  0  0
   59.3440   34.3100   45.5290 C   0  0  0  0  0  0  0  0  0  0  0  0
   58.8850   33.0320   45.2030 C   0  0  0  0  0  0  0  0  0  0  0  0
   59.5890   29.8160   47.4140 C   0  0  0  0  0  0  0  0  0  0  0  0
   60.7540   30.3650   47.0440 O   0  0  0  0  0  0  0  0  0  0  0  0
   61.7130   30.7100   47.9050 C   0  0  0  0  0  0  0  0  0  0  0  0
   62.7920   31.1930   47.4640 O   0  0  0  0  0  0  0  0  0  0  0  0
   61.5100   30.5090   49.2820 C   0  0  0  0  0  0  0  0  0  0  0  0
   62.3730   30.8040   50.3610 C   0  0  0  0  0  0  0  0  0  0  0  0
   63.6530   31.5370   50.2670 C   0  0  0  0  0  0  0  0  0  0  0  0
   63.7210   32.7620   49.5820 C   0  0  0  0  0  0  0  0  0  0  0  0
   64.9230   33.4780   49.5340 C   0  0  0  0  0  0  0  0  0  0  0  0
   66.0580   32.9810   50.1800 C   0  0  0  0  0  0  0  0  0  0  0  0
   65.9930   31.7720   50.8780 C   0  0  0  0  0  0  0  0  0  0  0  0
   64.7930   31.0540   50.9290 C   0  0  0  0  0  0  0  0  0  0  0  0
   61.8580   30.3830   51.5920 C   0  0  0  0  0  0  0  0  0  0  0  0
   60.3380   29.6910   51.3500 S   0  0  0  0  0  0  0  0  0  0  0  0
   60.3310   29.9050   49.6850 C   0  0  0  0  0  0  0  0  0  0  0  0
   59.3400   29.5570   48.7780 C   0  0  0  0  0  0  0  0  0  0  0  0
   58.1480   28.9830   49.2130 O   0  0  0  0  0  0  0  0  0  0  0  0
   56.8220   26.7140   45.7280 C   0  0  0  0  0  0  0  0  0  0  0  0
   55.7550   25.8530   46.0250 C   0  0  0  0  0  0  0  0  0  0  0  0
   54.4530   26.3360   45.9290 O   0  0  0  0  0  0  0  0  0  0  0  0
   56.0180   24.5170   46.4160 C   0  0  0  0  0  0  0  0  0  0  0  0
   55.0120   23.5910   46.7510 O   0  0  0  0  0  0  0  0  0  0  0  0
   54.8030   23.0020   48.0310 C   0  0  0  0  0  0  0  0  0  0  0  0
   57.2960   20.7035   46.6672 H   0  0  0  0  0  0  0  0  0  0  0  0
   56.5329   21.7385   45.4130 H   0  0  0  0  0  0  0  0  0  0  0  0
   58.3121   21.4915   45.4130 H   0  0  0  0  0  0  0  0  0  0  0  0
   59.4439   24.5967   46.2565 H   0  0  0  0  0  0  0  0  0  0  0  0
   57.7243   28.9613   46.8542 H   0  0  0  0  0  0  0  0  0  0  0  0
   58.1113   31.9220   48.3452 H   0  0  0  0  0  0  0  0  0  0  0  0
   58.9265   34.2059   48.9150 H   0  0  0  0  0  0  0  0  0  0  0  0
   59.7115   35.7431   47.1141 H   0  0  0  0  0  0  0  0  0  0  0  0
   59.6979   34.9847   44.7355 H   0  0  0  0  0  0  0  0  0  0  0  0
   58.8845   32.7045   44.1529 H   0  0  0  0  0  0  0  0  0  0  0  0
   62.8260   33.1600   49.0814 H   0  0  0  0  0  0  0  0  0  0  0  0
   64.9740   34.4315   48.9879 H   0  0  0  0  0  0  0  0  0  0  0  0
   67.0034   33.5418   50.1391 H   0  0  0  0  0  0  0  0  0  0  0  0
   66.8869   31.3840   51.3883 H   0  0  0  0  0  0  0  0  0  0  0  0
   64.7427   30.1087   51.4892 H   0  0  0  0  0  0  0  0  0  0  0  0
   62.3637   30.4866   52.5634 H   0  0  0  0  0  0  0  0  0  0  0  0
   56.6149   27.7561   45.4431 H   0  0  0  0  0  0  0  0  0  0  0  0
   53.6730   25.8630   46.3720 H   0  0  0  0  0  0  0  0  0  0  0  0
   55.0609   23.7287   48.8155 H   0  0  0  0  0  0  0  0  0  0  0  0
   53.7469   22.7116   48.1330 H   0  0  0  0  0  0  0  0  0  0  0  0
   55.4398   22.1109   48.1330 H   0  0  0  0  0  0  0  0  0  0  0  0
  1  2  1  0
  2  3  1  0
  3  4  2  0
  4  5  1  0
  5  6  1  0
  6  7  1  0
  7  8  2  0
  7  9  1  0
  9 10  1  0
 10 11  2  0
 10 12  1  0
 12 13  2  0
 13 14  1  0
 14 15  2  0
 15 16  1  0
 16 17  2  0
  9 18  1  0
 18 19  1  0
 19 20  1  0
 20 21  2  0
 20 22  1  0
 22 23  1  0
 23 24  1  0
 24 25  2  0
 25 26  1  0
 26 27  2  0
 27 28  1  0
 28 29  2  0
 23 30  2  0
 30 31  1  0
 31 32  1  0
 32 33  1  0
 33 34  1  0
  5 35  2  0
 35 36  1  0
 36 37  1  0
 36 38  2  0
 38 39  1  0
 39 40  1  0
 38  3  1  0
 17 12  1  0
 33 18  2  0
 32 22  2  0
 29 24  1  0
  1 41  1  0
  1 42  1  0
  1 43  1  0
  4 44  1  0
  9 45  1  1
 13 46  1  0
 14 47  1  0
 15 48  1  0
 16 49  1  0
 17 50  1  0
 25 51  1  0
 26 52  1  0
 27 53  1  0
 28 54  1  0
 29 55  1  0
 30 56  1  0
 35 57  1  0
 37 58  1  0
 40 59  1  0
 40 60  1  0
 40 61  1  0
M  CHG  2   6  -1  34  -1
M  END
>  <UniqueID>  (80) 
73

>  <SMILES>  (80) 
COc1cc([N-]C(=O)[C@H](C(=O)c2ccccc2)c2oc(=O)c3c(-c4ccccc4)csc3c2[O-])cc(O)c1OC

>  <Energy>  (80) 
118.86309014782212

>  <Genealogy>  (80) 
COc1cc([N-]C(=O)C(C(=O)c2ccccc2)c2oc(=O)c3c(-c4ccccc4)csc3c2[O-])cc(O)c1OC (protonated)
COc1cc([N-]C(=O)[C@H](C(=O)c2ccccc2)c2oc(=O)c3c(-c4ccccc4)csc3c2[O-])cc(O)c1OC (chirality)
COc1cc([N-]C(=O)[C@H](C(=O)c2ccccc2)c2oc(=O)c3c(-c4ccccc4)csc3c2[O-])cc(O)c1OC (3D coordinates assigned)
COc1cc([N-]C(=O)[C@H](C(=O)c2ccccc2)c2oc(=O)c3c(-c4ccccc4)csc3c2[O-])cc(O)c1OC (optimized conformer: 118.86309014782212 kcal/mol)

>  <smiles>  (80) 
COc1cc(NC(=O)C(C(=O)c2ccccc2)c2oc(=O)c3c(-c4ccccc4)csc3c2O)cc(O)c1OC

>  <score_type>  (80) 
oracle

>  <origin>  (80) 
adg

>  <m_score__min__energy>  (80) 
-12.949999999999999

>  <m_primary>  (80) 
energy

$$$$
80:0
     RDKit          3D

 47 50  0  0  0  0  0  0  0  0999 V2000
   59.0580   34.9060   44.9000 C   0  0  0  0  0  0  0  0  0  0  0  0
   58.9870   33.6710   45.6800 N   0  0  0  0  0  0  0  0  0  0  0  0
   59.3550   33.4720   46.9740 C   0  0  0  0  0  0  0  0  0  0  0  0
   60.0350   34.5040   47.8310 C   0  0  0  0  0  0  0  0  0  0  0  0
   61.4770   34.2110   47.9680 N   0  0  0  0  0  0  0  0  0  0  0  0
   61.7270   33.2030   49.0340 C   0  0  0  0  0  0  0  0  0  0  0  0
   61.9310   31.7890   48.4750 C   0  0  0  0  0  0  0  0  0  0  0  0
   63.1380   31.7370   47.5230 C   0  0  0  0  0  0  0  0  0  0  0  0
   63.3910   33.0800   46.8160 C   0  0  0  0  0  0  0  0  0  0  0  0
   62.0870   33.8680   46.6550 C   0  0  0  0  0  0  0  0  0  0  0  0
   59.0780   32.2210   47.4270 N   0  0  0  0  0  0  0  0  0  0  0  0
   58.4930   31.6370   46.3650 C   0  0  0  0  0  0  0  0  0  0  0  0
   57.9840   30.3440   46.2840 C   0  0  0  0  0  0  0  0  0  0  0  0
   57.3960   29.9340   45.0670 C   0  0  0  0  0  0  0  0  0  0  0  0
   56.8420   28.6110   44.9680 N   0  0  0  0  0  0  0  0  0  0  0  0
   57.0520   27.5770   45.9440 C   0  0  0  0  0  0  0  0  0  0  0  0
   57.5450   27.8520   47.0710 O   0  0  0  0  0  0  0  0  0  0  0  0
   56.6530   26.1940   45.6460 C   0  0  0  0  0  0  0  0  0  0  0  0
   57.4080   25.2620   44.9570 C   0  0  0  0  0  0  0  0  0  0  0  0
   56.6400   24.1180   44.9180 C   0  0  0  0  0  0  0  0  0  0  0  0
   55.4680   24.4210   45.5810 C   0  0  0  0  0  0  0  0  0  0  0  0
   55.5060   25.6650   46.0020 O   0  0  0  0  0  0  0  0  0  0  0  0
   57.3050   30.8550   43.9880 C   0  0  0  0  0  0  0  0  0  0  0  0
   57.8290   32.1550   44.1050 C   0  0  0  0  0  0  0  0  0  0  0  0
   58.4280   32.5060   45.3160 C   0  0  0  0  0  0  0  0  0  0  0  0
   59.1075   35.7679   45.5817 H   0  0  0  0  0  0  0  0  0  0  0  0
   59.9566   34.8880   44.2658 H   0  0  0  0  0  0  0  0  0  0  0  0
   58.1633   34.9911   44.2658 H   0  0  0  0  0  0  0  0  0  0  0  0
   59.9114   35.4942   47.3681 H   0  0  0  0  0  0  0  0  0  0  0  0
   59.5770   34.4865   48.8310 H   0  0  0  0  0  0  0  0  0  0  0  0
   62.6299   33.4953   49.5901 H   0  0  0  0  0  0  0  0  0  0  0  0
   60.8395   33.1789   49.6835 H   0  0  0  0  0  0  0  0  0  0  0  0
   62.1024   31.0941   49.3103 H   0  0  0  0  0  0  0  0  0  0  0  0
   61.0302   31.5033   47.9120 H   0  0  0  0  0  0  0  0  0  0  0  0
   64.0335   31.4700   48.1034 H   0  0  0  0  0  0  0  0  0  0  0  0
   62.9194   30.9879   46.7477 H   0  0  0  0  0  0  0  0  0  0  0  0
   64.0989   33.6735   47.4132 H   0  0  0  0  0  0  0  0  0  0  0  0
   63.8051   32.8785   45.8171 H   0  0  0  0  0  0  0  0  0  0  0  0
   62.2996   34.7986   46.1083 H   0  0  0  0  0  0  0  0  0  0  0  0
   61.3744   33.2366   46.1040 H   0  0  0  0  0  0  0  0  0  0  0  0
   58.0382   29.6604   47.1441 H   0  0  0  0  0  0  0  0  0  0  0  0
   56.1770   28.4180   44.1860 H   0  0  0  0  0  0  0  0  0  0  0  0
   58.4115   25.4041   44.5295 H   0  0  0  0  0  0  0  0  0  0  0  0
   56.9072   23.1578   44.4526 H   0  0  0  0  0  0  0  0  0  0  0  0
   54.6291   23.7261   45.7338 H   0  0  0  0  0  0  0  0  0  0  0  0
   56.8190   30.5473   43.0504 H   0  0  0  0  0  0  0  0  0  0  0  0
   57.7689   32.8701   43.2713 H   0  0  0  0  0  0  0  0  0  0  0  0
  1  2  1  0
  2  3  1  0
  3  4  1  0
  4  5  1  0
  5  6  1  0
  6  7  1  0
  7  8  1  0
  8  9  1  0
  9 10  1  0
  3 11  2  0
 11 12  1  0
 12 13  2  0
 13 14  1  0
 14 15  1  0
 15 16  1  0
 16 17  2  0
 16 18  1  0
 18 19  2  0
 19 20  1  0
 20 21  2  0
 21 22  1  0
 14 23  2  0
 23 24  1  0
 24 25  2  0
 25  2  1  0
 10  5  1  0
 25 12  1  0
 22 18  1  0
  1 26  1  0
  1 27  1  0
  1 28  1  0
  4 29  1  0
  4 30  1  0
  6 31  1  0
  6 32  1  0
  7 33  1  0
  7 34  1  0
  8 35  1  0
  8 36  1  0
  9 37  1  0
  9 38  1  0
 10 39  1  0
 10 40  1  0
 13 41  1  0
 15 42  1  0
 19 43  1  0
 20 44  1  0
 21 45  1  0
 23 46  1  0
 24 47  1  0
M  END
>  <UniqueID>  (81) 
74

>  <SMILES>  (81) 
Cn1c(CN2CCCCC2)nc2cc(NC(=O)c3ccco3)ccc21

>  <Energy>  (81) 
121.79767283966731

>  <Genealogy>  (81) 
Cn1c(CN2CCCCC2)nc2cc(NC(=O)c3ccco3)ccc21 (3D coordinates assigned)
Cn1c(CN2CCCCC2)nc2cc(NC(=O)c3ccco3)ccc21 (nonaromatic ring conformer: 121.79767283966731 kcal/mol)

>  <smiles>  (81) 
Cn1c(CN2CCCCC2)nc2cc(NC(=O)c3ccco3)ccc21

>  <score_type>  (81) 
oracle

>  <origin>  (81) 
adg

>  <m_score__min__energy>  (81) 
-8.5800000000000001

>  <m_primary>  (81) 
energy

$$$$
81:0
     RDKit          3D

 47 49  0  0  0  0  0  0  0  0999 V2000
   64.0700   32.9270   47.1640 C   0  0  0  0  0  0  0  0  0  0  0  0
   63.0620   33.9190   46.9700 O   0  0  0  0  0  0  0  0  0  0  0  0
   61.7640   33.8180   47.4950 C   0  0  0  0  0  0  0  0  0  0  0  0
   60.6570   33.6940   46.6350 C   0  0  0  0  0  0  0  0  0  0  0  0
   59.3550   33.5940   47.1450 C   0  0  0  0  0  0  0  0  0  0  0  0
   58.2060   33.3880   46.2300 C   0  0  0  0  0  0  0  0  0  0  0  0
   57.0300   33.5330   46.6510 O   0  0  0  0  0  0  0  0  0  0  0  0
   58.4240   32.9730   44.8760 N   0  0  0  0  0  0  0  0  0  0  0  0
   57.6920   31.9420   44.2010 C   0  0  0  0  0  0  0  0  0  0  0  0
   57.6130   31.9700   42.8030 C   0  0  0  0  0  0  0  0  0  0  0  0
   56.9550   30.9480   42.1180 C   0  0  0  0  0  0  0  0  0  0  0  0
   56.3300   29.9150   42.8210 C   0  0  0  0  0  0  0  0  0  0  0  0
   56.3500   29.9050   44.2310 C   0  0  0  0  0  0  0  0  0  0  0  0
   55.7050   28.8840   45.0080 N   0  0  0  0  0  0  0  0  0  0  0  0
   56.2860   27.7280   45.6210 C   0  0  0  0  0  0  0  0  0  0  0  0
   55.5790   26.7490   45.9740 O   0  0  0  0  0  0  0  0  0  0  0  0
   57.7290   27.7130   45.8770 C   0  0  0  0  0  0  0  0  0  0  0  0
   58.7260   27.7780   44.9240 C   0  0  0  0  0  0  0  0  0  0  0  0
   59.9130   27.7240   45.6220 C   0  0  0  0  0  0  0  0  0  0  0  0
   59.5670   27.6290   46.9530 C   0  0  0  0  0  0  0  0  0  0  0  0
   58.2600   27.6290   47.0760 O   0  0  0  0  0  0  0  0  0  0  0  0
   57.0480   30.9120   44.9070 C   0  0  0  0  0  0  0  0  0  0  0  0
   59.1590   33.6540   48.5310 C   0  0  0  0  0  0  0  0  0  0  0  0
   60.2520   33.7730   49.4070 C   0  0  0  0  0  0  0  0  0  0  0  0
   60.0810   33.8340   50.8000 O   0  0  0  0  0  0  0  0  0  0  0  0
   58.9420   33.3470   51.4970 C   0  0  0  0  0  0  0  0  0  0  0  0
   61.5590   33.8330   48.8970 C   0  0  0  0  0  0  0  0  0  0  0  0
   62.6020   33.9140   49.8380 O   0  0  0  0  0  0  0  0  0  0  0  0
   63.1350   32.8490   50.6100 C   0  0  0  0  0  0  0  0  0  0  0  0
   64.2285   32.7711   48.2413 H   0  0  0  0  0  0  0  0  0  0  0  0
   63.7492   31.9826   46.7001 H   0  0  0  0  0  0  0  0  0  0  0  0
   65.0091   33.2629   46.7001 H   0  0  0  0  0  0  0  0  0  0  0  0
   60.8157   33.6753   45.5467 H   0  0  0  0  0  0  0  0  0  0  0  0
   58.0706   32.7994   42.2439 H   0  0  0  0  0  0  0  0  0  0  0  0
   56.9282   30.9556   41.0184 H   0  0  0  0  0  0  0  0  0  0  0  0
   55.8213   29.1079   42.2735 H   0  0  0  0  0  0  0  0  0  0  0  0
   58.5992   27.8566   43.8342 H   0  0  0  0  0  0  0  0  0  0  0  0
   60.9295   27.7512   45.2025 H   0  0  0  0  0  0  0  0  0  0  0  0
   60.2801   27.5630   47.7879 H   0  0  0  0  0  0  0  0  0  0  0  0
   57.0931   30.8970   46.0060 H   0  0  0  0  0  0  0  0  0  0  0  0
   58.1383   33.6075   48.9383 H   0  0  0  0  0  0  0  0  0  0  0  0
   59.1158   33.4213   52.5806 H   0  0  0  0  0  0  0  0  0  0  0  0
   58.0613   33.9472   51.2249 H   0  0  0  0  0  0  0  0  0  0  0  0
   58.7675   32.2956   51.2249 H   0  0  0  0  0  0  0  0  0  0  0  0
   63.0202   33.0783   51.6797 H   0  0  0  0  0  0  0  0  0  0  0  0
   62.5958   31.9197   50.3743 H   0  0  0  0  0  0  0  0  0  0  0  0
   64.2021   32.7236   50.3743 H   0  0  0  0  0  0  0  0  0  0  0  0
  1  2  1  0
  2  3  1  0
  3  4  2  0
  4  5  1  0
  5  6  1  0
  6  7  2  0
  6  8  1  0
  8  9  1  0
  9 10  2  0
 10 11  1  0
 11 12  2  0
 12 13  1  0
 13 14  1  0
 14 15  1  0
 15 16  2  0
 15 17  1  0
 17 18  2  0
 18 19  1  0
 19 20  2  0
 20 21  1  0
 13 22  2  0
  5 23  2  0
 23 24  1  0
 24 25  1  0
 25 26  1  0
 24 27  2  0
 27 28  1  0
 28 29  1  0
 27  3  1  0
 22  9  1  0
 21 17  1  0
  1 30  1  0
  1 31  1  0
  1 32  1  0
  4 33  1  0
 10 34  1  0
 11 35  1  0
 12 36  1  0
 18 37  1  0
 19 38  1  0
 20 39  1  0
 22 40  1  0
 23 41  1  0
 26 42  1  0
 26 43  1  0
 26 44  1  0
 29 45  1  0
 29 46  1  0
 29 47  1  0
M  CHG  2   8  -1  14  -1
M  END
>  <UniqueID>  (82) 
75

>  <SMILES>  (82) 
COc1cc(C(=O)[N-]c2cccc([N-]C(=O)c3ccco3)c2)cc(OC)c1OC

>  <Energy>  (82) 
87.05003283220552

>  <Genealogy>  (82) 
COc1cc(C(=O)[N-]c2cccc([N-]C(=O)c3ccco3)c2)cc(OC)c1OC (protonated)
COc1cc(C(=O)[N-]c2cccc([N-]C(=O)c3ccco3)c2)cc(OC)c1OC (3D coordinates assigned)
COc1cc(C(=O)[N-]c2cccc([N-]C(=O)c3ccco3)c2)cc(OC)c1OC (optimized conformer: 87.05003283220552 kcal/mol)

>  <smiles>  (82) 
COc1cc(C(=O)Nc2cccc(NC(=O)c3ccco3)c2)cc(OC)c1OC

>  <score_type>  (82) 
oracle

>  <origin>  (82) 
adg

>  <m_score__min__energy>  (82) 
-10.039999999999999

>  <m_primary>  (82) 
energy

$$$$
82:0
     RDKit          3D

 40 43  0  0  0  0  0  0  0  0999 V2000
   57.1860   19.3300   46.9000 C   0  0  0  0  0  0  0  0  0  0  0  0
   56.8700   20.3830   45.9420 N   0  0  0  0  0  0  0  0  0  0  0  0
   56.7390   20.2010   44.6320 N   0  0  0  0  0  0  0  0  0  0  0  0
   56.4530   21.3930   44.0650 C   0  0  0  0  0  0  0  0  0  0  0  0
   56.2680   21.5690   42.8310 O   0  0  0  0  0  0  0  0  0  0  0  0
   56.4010   22.3610   45.0440 C   0  0  0  0  0  0  0  0  0  0  0  0
   56.1490   23.7280   45.0090 C   0  0  0  0  0  0  0  0  0  0  0  0
   56.1750   24.4380   46.2350 C   0  0  0  0  0  0  0  0  0  0  0  0
   55.9130   25.8950   46.2620 C   0  0  0  0  0  0  0  0  0  0  0  0
   54.7640   26.3310   45.9760 O   0  0  0  0  0  0  0  0  0  0  0  0
   56.9700   26.8060   46.6130 N   0  0  0  0  0  0  0  0  0  0  0  0
   57.4470   27.7550   45.8650 C   0  0  0  0  0  0  0  0  0  0  0  0
   56.7280   28.8060   45.4130 N   0  0  0  0  0  0  0  0  0  0  0  0
   57.4870   29.6420   44.6520 C   0  0  0  0  0  0  0  0  0  0  0  0
   56.9260   30.8590   44.0480 C   0  0  0  0  0  0  0  0  0  0  0  0
   56.7100   30.8870   42.8050 O   0  0  0  0  0  0  0  0  0  0  0  0
   56.6340   31.9970   44.8780 N   0  0  0  0  0  0  0  0  0  0  0  0
   57.4890   32.8450   45.3740 C   0  0  0  0  0  0  0  0  0  0  0  0
   58.2050   33.6800   44.5070 C   0  0  0  0  0  0  0  0  0  0  0  0
   59.1240   34.5910   45.0320 C   0  0  0  0  0  0  0  0  0  0  0  0
   59.3230   34.6610   46.4120 C   0  0  0  0  0  0  0  0  0  0  0  0
   58.5940   33.8150   47.2490 C   0  0  0  0  0  0  0  0  0  0  0  0
   57.7030   32.9360   46.7180 N   0  0  0  0  0  0  0  0  0  0  0  0
   58.8180   29.2500   44.4980 C   0  0  0  0  0  0  0  0  0  0  0  0
   59.0420   27.8120   45.3440 S   0  0  0  0  0  0  0  0  0  0  0  0
   56.4530   23.7360   47.4430 C   0  0  0  0  0  0  0  0  0  0  0  0
   56.7020   22.3500   47.4360 C   0  0  0  0  0  0  0  0  0  0  0  0
   56.6670   21.6910   46.2100 C   0  0  0  0  0  0  0  0  0  0  0  0
   57.0696   19.7178   47.9228 H   0  0  0  0  0  0  0  0  0  0  0  0
   56.5031   18.4808   46.7499 H   0  0  0  0  0  0  0  0  0  0  0  0
   58.2236   18.9971   46.7499 H   0  0  0  0  0  0  0  0  0  0  0  0
   56.8440   19.2860   44.1370 H   0  0  0  0  0  0  0  0  0  0  0  0
   55.9363   24.2418   44.0599 H   0  0  0  0  0  0  0  0  0  0  0  0
   58.0446   33.6187   43.4205 H   0  0  0  0  0  0  0  0  0  0  0  0
   59.6901   35.2522   44.3594 H   0  0  0  0  0  0  0  0  0  0  0  0
   60.0458   35.3744   46.8346 H   0  0  0  0  0  0  0  0  0  0  0  0
   58.7403   33.8594   48.3383 H   0  0  0  0  0  0  0  0  0  0  0  0
   59.5869   29.7875   43.9236 H   0  0  0  0  0  0  0  0  0  0  0  0
   56.4735   24.2851   48.3960 H   0  0  0  0  0  0  0  0  0  0  0  0
   56.9169   21.8063   48.3678 H   0  0  0  0  0  0  0  0  0  0  0  0
  1  2  1  0
  2  3  1  0
  3  4  1  0
  4  5  2  0
  4  6  1  0
  6  7  2  0
  7  8  1  0
  8  9  1  0
  9 10  2  0
  9 11  1  0
 11 12  2  3
 12 13  1  0
 13 14  1  0
 14 15  1  0
 15 16  2  0
 15 17  1  0
 17 18  2  3
 18 19  1  0
 19 20  2  0
 20 21  1  0
 21 22  2  0
 22 23  1  0
 14 24  2  0
 24 25  1  0
  8 26  2  0
 26 27  1  0
 27 28  2  0
 28  2  1  0
 28  6  1  0
 25 12  1  0
 23 18  1  0
  1 29  1  0
  1 30  1  0
  1 31  1  0
  3 32  1  0
  7 33  1  0
 19 34  1  0
 20 35  1  0
 21 36  1  0
 22 37  1  0
 24 38  1  0
 26 39  1  0
 27 40  1  0
M  CHG  2  13  -1  23  -1
M  END
>  <UniqueID>  (83) 
76

>  <SMILES>  (83) 
Cn1[nH]c(=O)c2cc(C(=O)N=c3[n-]c(C(=O)N=c4cccc[n-]4)cs3)ccc21

>  <Energy>  (83) 
120.76405156838587

>  <Genealogy>  (83) 
Cn1[nH]c(=O)c2cc(C(=O)N=c3[n-]c(C(=O)N=c4cccc[n-]4)cs3)ccc21 (protonated)
Cn1[nH]c(=O)c2cc(C(=O)N=c3[n-]c(C(=O)N=c4cccc[n-]4)cs3)ccc21 (3D coordinates assigned)
Cn1[nH]c(=O)c2cc(C(=O)N=c3[n-]c(C(=O)N=c4cccc[n-]4)cs3)ccc21 (optimized conformer: 120.76405156838587 kcal/mol)

>  <smiles>  (83) 
Cn1[nH]c(=O)c2cc(C(=O)N=c3[nH]c(C(=O)N=c4cccc[nH]4)cs3)ccc21

>  <score_type>  (83) 
oracle

>  <origin>  (83) 
adg

>  <m_score__min__energy>  (83) 
-12.69

>  <m_primary>  (83) 
energy

$$$$
83:0
     RDKit          3D

 22 22  0  0  0  0  0  0  0  0999 V2000
   55.1370   29.3540   44.8740 N   0  0  0  0  0  0  0  0  0  0  0  0
   56.7690   29.5390   44.3370 S   0  0  0  0  0  0  0  0  0  0  0  0
   57.5510   30.2770   45.3860 O   0  0  0  0  0  0  0  0  0  0  0  0
   56.7880   30.3340   43.0600 O   0  0  0  0  0  0  0  0  0  0  0  0
   57.5010   27.9840   44.0700 N   0  0  0  0  0  0  0  0  0  0  0  0
   58.7370   27.8440   44.8510 C   0  0  0  0  0  0  0  0  0  0  0  0
   58.7540   26.4850   45.5620 C   0  0  0  0  0  0  0  0  0  0  0  0
   57.8100   26.4490   46.7720 C   0  0  0  0  0  0  0  0  0  0  0  0
   56.4550   25.9300   46.3980 C   0  0  0  0  0  0  0  0  0  0  0  0
   55.4360   26.7210   46.0100 N   0  0  0  0  0  0  0  0  0  0  0  0
   54.4250   25.9210   45.7200 N   0  0  0  0  0  0  0  0  0  0  0  0
   54.8660   24.6710   45.9360 C   0  0  0  0  0  0  0  0  0  0  0  0
   54.1560   23.6480   45.7560 O   0  0  0  0  0  0  0  0  0  0  0  0
   56.1420   24.6190   46.3610 N   0  0  0  0  0  0  0  0  0  0  0  0
   55.1490   28.6640   45.6580 H   0  0  0  0  0  0  0  0  0  0  0  0
   56.8140   27.2720   44.4140 H   0  0  0  0  0  0  0  0  0  0  0  0
   59.6039   27.9142   44.1776 H   0  0  0  0  0  0  0  0  0  0  0  0
   58.7837   28.6463   45.6021 H   0  0  0  0  0  0  0  0  0  0  0  0
   58.4435   25.7081   44.8478 H   0  0  0  0  0  0  0  0  0  0  0  0
   59.7765   26.3090   45.9274 H   0  0  0  0  0  0  0  0  0  0  0  0
   58.2427   25.7948   47.5432 H   0  0  0  0  0  0  0  0  0  0  0  0
   57.6936   27.4759   47.1488 H   0  0  0  0  0  0  0  0  0  0  0  0
  1  2  1  0
  2  3  2  0
  2  4  2  0
  2  5  1  0
  5  6  1  0
  6  7  1  0
  7  8  1  0
  8  9  1  0
  9 10  2  0
 10 11  1  0
 11 12  1  0
 12 13  2  0
 12 14  1  0
 14  9  1  0
  1 15  1  0
  5 16  1  0
  6 17  1  0
  6 18  1  0
  7 19  1  0
  7 20  1  0
  8 21  1  0
  8 22  1  0
M  CHG  3   1  -1  11  -1  14  -1
M  END
>  <UniqueID>  (84) 
77

>  <SMILES>  (84) 
[NH-]S(=O)(=O)NCCCc1n[n-]c(=O)[n-]1

>  <Energy>  (84) 
44.439065865325354

>  <Genealogy>  (84) 
[NH-]S(=O)(=O)NCCCc1n[n-]c(=O)[n-]1 (protonated)
[NH-]S(=O)(=O)NCCCc1n[n-]c(=O)[n-]1 (3D coordinates assigned)
[NH-]S(=O)(=O)NCCCc1n[n-]c(=O)[n-]1 (optimized conformer: 44.439065865325354 kcal/mol)

>  <smiles>  (84) 
NS(=O)(=O)NCCCc1n[nH]c(=O)[nH]1

>  <score_type>  (84) 
oracle

>  <origin>  (84) 
adg

>  <m_score__min__energy>  (84) 
-13.33

>  <m_primary>  (84) 
energy

$$$$
84:0
     RDKit          3D

 39 39  0  0  0  0  0  0  0  0999 V2000
   56.4060   23.1850   45.8110 C   0  0  0  0  0  0  0  0  0  0  0  0
   55.6510   24.2640   46.5820 C   0  0  0  0  0  0  0  0  0  0  0  0
   54.9500   25.2380   45.6300 C   0  0  0  0  0  0  0  0  0  0  0  0
   55.2320   26.6190   46.0260 N   0  0  0  0  0  0  0  0  0  0  0  0
   56.9340   26.9680   45.9260 S   0  0  0  0  0  0  0  0  0  0  0  0
   57.6140   25.9170   45.0920 O   0  0  0  0  0  0  0  0  0  0  0  0
   57.5220   26.9510   47.3080 O   0  0  0  0  0  0  0  0  0  0  0  0
   57.1840   28.5600   45.2160 C   0  0  0  0  0  0  0  0  0  0  0  0
   56.1260   29.2070   44.5640 C   0  0  0  0  0  0  0  0  0  0  0  0
   56.3170   30.4680   43.9920 C   0  0  0  0  0  0  0  0  0  0  0  0
   57.5680   31.1000   44.0730 C   0  0  0  0  0  0  0  0  0  0  0  0
   57.7720   32.4460   43.4340 C   0  0  0  0  0  0  0  0  0  0  0  0
   58.4450   33.3510   44.3630 N   0  0  0  0  0  0  0  0  0  0  0  0
   57.8440   33.7640   45.6020 C   0  0  0  0  0  0  0  0  0  0  0  0
   56.6960   33.3500   45.9120 O   0  0  0  0  0  0  0  0  0  0  0  0
   58.5280   34.6360   46.5110 N   0  0  0  0  0  0  0  0  0  0  0  0
   59.9750   34.7430   46.6610 C   0  0  0  0  0  0  0  0  0  0  0  0
   60.6120   33.3590   46.7330 C   0  0  0  0  0  0  0  0  0  0  0  0
   58.6250   30.4510   44.7300 C   0  0  0  0  0  0  0  0  0  0  0  0
   58.4330   29.1890   45.3020 C   0  0  0  0  0  0  0  0  0  0  0  0
   56.8878   22.4964   46.5207 H   0  0  0  0  0  0  0  0  0  0  0  0
   55.7013   22.6255   45.1783 H   0  0  0  0  0  0  0  0  0  0  0  0
   57.1731   23.6553   45.1783 H   0  0  0  0  0  0  0  0  0  0  0  0
   54.8972   23.7850   47.2241 H   0  0  0  0  0  0  0  0  0  0  0  0
   56.3743   24.8294   47.1879 H   0  0  0  0  0  0  0  0  0  0  0  0
   55.3147   25.0715   44.6057 H   0  0  0  0  0  0  0  0  0  0  0  0
   53.8645   25.0655   45.6734 H   0  0  0  0  0  0  0  0  0  0  0  0
   55.1413   28.7207   44.5020 H   0  0  0  0  0  0  0  0  0  0  0  0
   55.4836   30.9673   43.4762 H   0  0  0  0  0  0  0  0  0  0  0  0
   58.3883   32.3292   42.5304 H   0  0  0  0  0  0  0  0  0  0  0  0
   56.7917   32.8689   43.1691 H   0  0  0  0  0  0  0  0  0  0  0  0
   59.3970   33.6880   44.1010 H   0  0  0  0  0  0  0  0  0  0  0  0
   60.3884   35.2866   45.7987 H   0  0  0  0  0  0  0  0  0  0  0  0
   60.1955   35.2834   47.5934 H   0  0  0  0  0  0  0  0  0  0  0  0
   60.7447   33.0708   47.7862 H   0  0  0  0  0  0  0  0  0  0  0  0
   59.9595   32.6285   46.2323 H   0  0  0  0  0  0  0  0  0  0  0  0
   61.5912   33.3796   46.2323 H   0  0  0  0  0  0  0  0  0  0  0  0
   59.6095   30.9373   44.7954 H   0  0  0  0  0  0  0  0  0  0  0  0
   59.2645   28.6893   45.8205 H   0  0  0  0  0  0  0  0  0  0  0  0
  1  2  1  0
  2  3  1  0
  3  4  1  0
  4  5  1  0
  5  6  2  0
  5  7  2  0
  5  8  1  0
  8  9  2  0
  9 10  1  0
 10 11  2  0
 11 12  1  0
 12 13  1  0
 13 14  1  0
 14 15  2  0
 14 16  1  0
 16 17  1  0
 17 18  1  0
 11 19  1  0
 19 20  2  0
 20  8  1  0
  1 21  1  0
  1 22  1  0
  1 23  1  0
  2 24  1  0
  2 25  1  0
  3 26  1  0
  3 27  1  0
  9 28  1  0
 10 29  1  0
 12 30  1  0
 12 31  1  0
 13 32  1  0
 17 33  1  0
 17 34  1  0
 18 35  1  0
 18 36  1  0
 18 37  1  0
 19 38  1  0
 20 39  1  0
M  CHG  2   4  -1  16  -1
M  END
>  <UniqueID>  (85) 
78

>  <SMILES>  (85) 
CCC[N-]S(=O)(=O)c1ccc(CNC(=O)[N-]CC)cc1

>  <Energy>  (85) 
24.800463886448956

>  <Genealogy>  (85) 
CCC[N-]S(=O)(=O)c1ccc(CNC(=O)[N-]CC)cc1 (protonated)
CCC[N-]S(=O)(=O)c1ccc(CNC(=O)[N-]CC)cc1 (3D coordinates assigned)
CCC[N-]S(=O)(=O)c1ccc(CNC(=O)[N-]CC)cc1 (optimized conformer: 24.800463886448956 kcal/mol)

>  <smiles>  (85) 
CCCNS(=O)(=O)c1ccc(CNC(=O)NCC)cc1

>  <score_type>  (85) 
oracle

>  <origin>  (85) 
adg

>  <m_score__min__energy>  (85) 
-9.7300000000000004

>  <m_primary>  (85) 
energy

$$$$
85:0
     RDKit          3D

 52 55  0  0  0  0  0  0  0  0999 V2000
   61.3310   33.8770   46.1710 C   0  0  0  0  0  0  0  0  0  0  0  0
   61.9680   33.4680   47.4720 C   0  0  0  0  0  0  0  0  0  0  0  0
   63.3240   33.0980   47.4630 C   0  0  0  0  0  0  0  0  0  0  0  0
   63.9850   32.7880   48.6540 C   0  0  0  0  0  0  0  0  0  0  0  0
   63.3030   32.8580   49.8690 C   0  0  0  0  0  0  0  0  0  0  0  0
   61.9520   33.2060   49.8920 C   0  0  0  0  0  0  0  0  0  0  0  0
   61.2590   33.4620   48.7010 C   0  0  0  0  0  0  0  0  0  0  0  0
   59.8530   33.7430   48.7890 N   0  0  0  0  0  0  0  0  0  0  0  0
   58.7880   32.9370   48.2640 C   0  0  0  0  0  0  0  0  0  0  0  0
   58.1830   32.1580   49.0450 O   0  0  0  0  0  0  0  0  0  0  0  0
   58.3870   32.9850   46.8380 C   0  0  0  0  0  0  0  0  0  0  0  0
   58.0530   34.2160   46.2500 C   0  0  0  0  0  0  0  0  0  0  0  0
   57.7420   34.2880   44.8910 C   0  0  0  0  0  0  0  0  0  0  0  0
   57.7440   33.1330   44.1080 C   0  0  0  0  0  0  0  0  0  0  0  0
   58.0200   31.8880   44.6890 C   0  0  0  0  0  0  0  0  0  0  0  0
   58.0280   30.7110   43.8660 N   0  0  0  0  0  0  0  0  0  0  0  0
   57.1510   29.5950   44.0820 C   0  0  0  0  0  0  0  0  0  0  0  0
   56.1420   29.7160   44.8290 O   0  0  0  0  0  0  0  0  0  0  0  0
   57.4020   28.2910   43.3790 C   0  0  0  0  0  0  0  0  0  0  0  0
   58.6130   27.5490   43.9620 C   0  0  0  0  0  0  0  0  0  0  0  0
   58.7010   27.7100   45.4530 C   0  0  0  0  0  0  0  0  0  0  0  0
   57.9000   27.0740   46.3970 C   0  0  0  0  0  0  0  0  0  0  0  0
   58.2090   27.4980   47.6430 N   0  0  0  0  0  0  0  0  0  0  0  0
   59.1910   28.4050   47.4950 C   0  0  0  0  0  0  0  0  0  0  0  0
   59.8220   29.1390   48.4980 C   0  0  0  0  0  0  0  0  0  0  0  0
   60.8130   30.0600   48.1130 C   0  0  0  0  0  0  0  0  0  0  0  0
   61.1470   30.2250   46.7510 C   0  0  0  0  0  0  0  0  0  0  0  0
   60.4960   29.4670   45.7610 C   0  0  0  0  0  0  0  0  0  0  0  0
   59.5170   28.5630   46.1710 C   0  0  0  0  0  0  0  0  0  0  0  0
   58.3460   31.8180   46.0540 C   0  0  0  0  0  0  0  0  0  0  0  0
   60.4215   34.4609   46.3757 H   0  0  0  0  0  0  0  0  0  0  0  0
   62.0382   34.4902   45.5933 H   0  0  0  0  0  0  0  0  0  0  0  0
   61.0677   32.9787   45.5933 H   0  0  0  0  0  0  0  0  0  0  0  0
   63.8699   33.0521   46.5091 H   0  0  0  0  0  0  0  0  0  0  0  0
   65.0433   32.4887   48.6338 H   0  0  0  0  0  0  0  0  0  0  0  0
   63.8305   32.6388   50.8091 H   0  0  0  0  0  0  0  0  0  0  0  0
   61.4254   33.2802   50.8549 H   0  0  0  0  0  0  0  0  0  0  0  0
   58.0364   35.1286   46.8639 H   0  0  0  0  0  0  0  0  0  0  0  0
   57.4946   35.2584   44.4359 H   0  0  0  0  0  0  0  0  0  0  0  0
   57.5283   33.2000   43.0314 H   0  0  0  0  0  0  0  0  0  0  0  0
   58.6280   30.7140   43.0090 H   0  0  0  0  0  0  0  0  0  0  0  0
   56.5112   27.6541   43.4827 H   0  0  0  0  0  0  0  0  0  0  0  0
   57.6131   28.5093   42.3218 H   0  0  0  0  0  0  0  0  0  0  0  0
   58.5232   26.4788   43.7241 H   0  0  0  0  0  0  0  0  0  0  0  0
   59.5232   27.9778   43.5175 H   0  0  0  0  0  0  0  0  0  0  0  0
   57.1241   26.3304   46.1621 H   0  0  0  0  0  0  0  0  0  0  0  0
   57.7620   27.1940   48.5370 H   0  0  0  0  0  0  0  0  0  0  0  0
   59.5537   29.0025   49.5560 H   0  0  0  0  0  0  0  0  0  0  0  0
   61.3315   30.6560   48.8785 H   0  0  0  0  0  0  0  0  0  0  0  0
   61.9213   30.9510   46.4623 H   0  0  0  0  0  0  0  0  0  0  0  0
   60.7511   29.5837   44.6974 H   0  0  0  0  0  0  0  0  0  0  0  0
   58.5707   30.8437   46.5126 H   0  0  0  0  0  0  0  0  0  0  0  0
  1  2  1  0
  2  3  2  0
  3  4  1  0
  4  5  2  0
  5  6  1  0
  6  7  2  0
  7  8  1  0
  8  9  1  0
  9 10  2  0
  9 11  1  0
 11 12  2  0
 12 13  1  0
 13 14  2  0
 14 15  1  0
 15 16  1  0
 16 17  1  0
 17 18  2  0
 17 19  1  0
 19 20  1  0
 20 21  1  0
 21 22  2  0
 22 23  1  0
 23 24  1  0
 24 25  2  0
 25 26  1  0
 26 27  2  0
 27 28  1  0
 28 29  2  0
 15 30  2  0
  7  2  1  0
 30 11  1  0
 29 21  1  0
 29 24  1  0
  1 31  1  0
  1 32  1  0
  1 33  1  0
  3 34  1  0
  4 35  1  0
  5 36  1  0
  6 37  1  0
 12 38  1  0
 13 39  1  0
 14 40  1  0
 16 41  1  0
 19 42  1  0
 19 43  1  0
 20 44  1  0
 20 45  1  0
 22 46  1  0
 23 47  1  0
 25 48  1  0
 26 49  1  0
 27 50  1  0
 28 51  1  0
 30 52  1  0
M  CHG  1   8  -1
M  END
>  <UniqueID>  (86) 
79

>  <SMILES>  (86) 
Cc1ccccc1[N-]C(=O)c1cccc(NC(=O)CCc2c[nH]c3ccccc23)c1

>  <Energy>  (86) 
96.44738323924834

>  <Genealogy>  (86) 
Cc1ccccc1[N-]C(=O)c1cccc(NC(=O)CCc2c[nH]c3ccccc23)c1 (protonated)
Cc1ccccc1[N-]C(=O)c1cccc(NC(=O)CCc2c[nH]c3ccccc23)c1 (3D coordinates assigned)
Cc1ccccc1[N-]C(=O)c1cccc(NC(=O)CCc2c[nH]c3ccccc23)c1 (optimized conformer: 96.44738323924834 kcal/mol)

>  <smiles>  (86) 
Cc1ccccc1NC(=O)c1cccc(NC(=O)CCc2c[nH]c3ccccc23)c1

>  <score_type>  (86) 
oracle

>  <origin>  (86) 
adg

>  <m_score__min__energy>  (86) 
-12.26

>  <m_primary>  (86) 
energy

$$$$
86:0
     RDKit          3D

 56 60  0  0  0  0  0  0  0  0999 V2000
   52.4100   22.6940   44.9770 N   0  0  0  0  0  0  0  0  0  0  0  0
   51.9940   22.0940   46.5440 S   0  0  0  0  0  0  0  0  0  0  0  0
   50.9230   22.9580   47.1480 O   0  0  0  0  0  0  0  0  0  0  0  0
   51.4660   20.6910   46.4170 O   0  0  0  0  0  0  0  0  0  0  0  0
   53.4210   22.1090   47.5790 C   0  0  0  0  0  0  0  0  0  0  0  0
   53.3250   21.6710   48.9050 C   0  0  0  0  0  0  0  0  0  0  0  0
   54.4400   21.7290   49.7440 C   0  0  0  0  0  0  0  0  0  0  0  0
   55.6600   22.2050   49.2580 C   0  0  0  0  0  0  0  0  0  0  0  0
   55.7790   22.6220   47.9260 C   0  0  0  0  0  0  0  0  0  0  0  0
   57.0400   23.1490   47.4790 N   0  0  0  0  0  0  0  0  0  0  0  0
   57.2390   23.9340   46.4610 C   0  0  0  0  0  0  0  0  0  0  0  0
   57.6230   25.2190   46.6840 N   0  0  0  0  0  0  0  0  0  0  0  0
   57.8680   26.0760   45.6550 C   0  0  0  0  0  0  0  0  0  0  0  0
   57.7270   25.6270   44.3320 C   0  0  0  0  0  0  0  0  0  0  0  0
   57.3550   24.2960   44.1210 C   0  0  0  0  0  0  0  0  0  0  0  0
   57.1180   23.4820   45.1820 N   0  0  0  0  0  0  0  0  0  0  0  0
   58.0970   26.5240   43.1780 C   0  0  0  0  0  0  0  0  0  0  0  0
   57.7810   27.9950   43.4870 C   0  0  0  0  0  0  0  0  0  0  0  0
   58.2800   28.4050   44.8530 C   0  0  0  0  0  0  0  0  0  0  0  0
   58.6480   29.7380   45.0960 C   0  0  0  0  0  0  0  0  0  0  0  0
   59.0110   30.1570   46.3840 C   0  0  0  0  0  0  0  0  0  0  0  0
   59.4070   31.5230   46.5960 N   0  0  0  0  0  0  0  0  0  0  0  0
   58.5110   32.6400   46.4860 C   0  0  0  0  0  0  0  0  0  0  0  0
   57.3860   32.5100   45.9280 O   0  0  0  0  0  0  0  0  0  0  0  0
   58.9050   33.9780   47.0380 C   0  0  0  0  0  0  0  0  0  0  0  0
   60.3630   33.9730   47.4060 C   0  0  0  0  0  0  0  0  0  0  0  0
   61.3460   33.8630   46.4070 C   0  0  0  0  0  0  0  0  0  0  0  0
   62.7010   33.8160   46.7540 C   0  0  0  0  0  0  0  0  0  0  0  0
   63.0830   33.8730   48.0980 C   0  0  0  0  0  0  0  0  0  0  0  0
   62.1100   33.9700   49.0980 C   0  0  0  0  0  0  0  0  0  0  0  0
   60.7540   34.0160   48.7560 C   0  0  0  0  0  0  0  0  0  0  0  0
   59.0280   29.2210   47.4320 C   0  0  0  0  0  0  0  0  0  0  0  0
   58.6510   27.8950   47.2030 C   0  0  0  0  0  0  0  0  0  0  0  0
   58.2690   27.4770   45.9180 C   0  0  0  0  0  0  0  0  0  0  0  0
   54.6430   22.5980   47.0950 C   0  0  0  0  0  0  0  0  0  0  0  0
   53.4480   22.6130   44.8850 H   0  0  0  0  0  0  0  0  0  0  0  0
   52.3701   21.2806   49.2867 H   0  0  0  0  0  0  0  0  0  0  0  0
   54.3573   21.3990   50.7901 H   0  0  0  0  0  0  0  0  0  0  0  0
   56.5330   22.2527   49.9256 H   0  0  0  0  0  0  0  0  0  0  0  0
   57.2543   23.9084   43.0965 H   0  0  0  0  0  0  0  0  0  0  0  0
   59.1740   26.4238   42.9780 H   0  0  0  0  0  0  0  0  0  0  0  0
   57.5068   26.2203   42.3008 H   0  0  0  0  0  0  0  0  0  0  0  0
   58.2624   28.6289   42.7278 H   0  0  0  0  0  0  0  0  0  0  0  0
   56.6880   28.1185   43.4728 H   0  0  0  0  0  0  0  0  0  0  0  0
   58.6516   30.4613   44.2672 H   0  0  0  0  0  0  0  0  0  0  0  0
   60.4210   31.7170   46.7630 H   0  0  0  0  0  0  0  0  0  0  0  0
   58.7235   34.7531   46.2789 H   0  0  0  0  0  0  0  0  0  0  0  0
   58.3064   34.1886   47.9365 H   0  0  0  0  0  0  0  0  0  0  0  0
   61.0491   33.8137   45.3490 H   0  0  0  0  0  0  0  0  0  0  0  0
   63.4666   33.7341   45.9684 H   0  0  0  0  0  0  0  0  0  0  0  0
   64.1487   33.8415   48.3687 H   0  0  0  0  0  0  0  0  0  0  0  0
   62.4113   34.0102   50.1552 H   0  0  0  0  0  0  0  0  0  0  0  0
   59.9915   34.0860   49.5457 H   0  0  0  0  0  0  0  0  0  0  0  0
   59.3401   29.5341   48.4392 H   0  0  0  0  0  0  0  0  0  0  0  0
   58.6535   27.1745   48.0342 H   0  0  0  0  0  0  0  0  0  0  0  0
   54.7142   22.9648   46.0604 H   0  0  0  0  0  0  0  0  0  0  0  0
  1  2  1  0
  2  3  2  0
  2  4  2  0
  2  5  1  0
  5  6  2  0
  6  7  1  0
  7  8  2  0
  8  9  1  0
  9 10  1  0
 10 11  2  3
 11 12  1  0
 12 13  2  0
 13 14  1  0
 14 15  2  0
 15 16  1  0
 14 17  1  0
 17 18  1  0
 18 19  1  0
 19 20  2  0
 20 21  1  0
 21 22  1  0
 22 23  1  0
 23 24  2  0
 23 25  1  0
 25 26  1  0
 26 27  2  0
 27 28  1  0
 28 29  2  0
 29 30  1  0
 30 31  2  0
 21 32  2  0
 32 33  1  0
 33 34  2  0
  9 35  2  0
 35  5  1  0
 16 11  1  0
 34 19  1  0
 34 13  1  0
 31 26  1  0
  1 36  1  0
  6 37  1  0
  7 38  1  0
  8 39  1  0
 15 40  1  0
 17 41  1  0
 17 42  1  0
 18 43  1  0
 18 44  1  0
 20 45  1  0
 22 46  1  0
 25 47  1  0
 25 48  1  0
 27 49  1  0
 28 50  1  0
 29 51  1  0
 30 52  1  0
 31 53  1  0
 32 54  1  0
 33 55  1  0
 35 56  1  0
M  CHG  2   1  -1  16  -1
M  END
>  <UniqueID>  (87) 
80

>  <SMILES>  (87) 
[NH-]S(=O)(=O)c1cccc(N=c2nc3c(c[n-]2)CCc2cc(NC(=O)Cc4ccccc4)ccc2-3)c1

>  <Energy>  (87) 
74.24761827598513

>  <Genealogy>  (87) 
[NH-]S(=O)(=O)c1cccc(N=c2nc3c(c[n-]2)CCc2cc(NC(=O)Cc4ccccc4)ccc2-3)c1 (protonated)
[NH-]S(=O)(=O)c1cccc(N=c2nc3c(c[n-]2)CCc2cc(NC(=O)Cc4ccccc4)ccc2-3)c1 (3D coordinates assigned)
[NH-]S(=O)(=O)c1cccc(N=c2nc3c(c[n-]2)CCc2cc(NC(=O)Cc4ccccc4)ccc2-3)c1 (nonaromatic ring conformer: 74.24761827598513 kcal/mol)

>  <smiles>  (87) 
NS(=O)(=O)c1cccc(N=c2nc3c(c[nH]2)CCc2cc(NC(=O)Cc4ccccc4)ccc2-3)c1

>  <score_type>  (87) 
oracle

>  <origin>  (87) 
adg

>  <m_score__min__energy>  (87) 
-15.6

>  <m_primary>  (87) 
energy

$$$$
87:0
     RDKit          3D

 38 40  0  0  0  0  0  0  0  0999 V2000
   57.0890   30.9650   43.3570 O   0  0  0  0  0  0  0  0  0  0  0  0
   57.0780   30.6660   44.5800 C   0  0  0  0  0  0  0  0  0  0  0  0
   57.0400   31.7210   45.5490 N   0  0  0  0  0  0  0  0  0  0  0  0
   57.9790   32.8030   45.6540 C   0  0  0  0  0  0  0  0  0  0  0  0
   57.9670   33.8530   44.7190 C   0  0  0  0  0  0  0  0  0  0  0  0
   58.8340   34.9370   44.8640 C   0  0  0  0  0  0  0  0  0  0  0  0
   59.7090   34.9940   45.9490 C   0  0  0  0  0  0  0  0  0  0  0  0
   59.7170   33.9660   46.8950 C   0  0  0  0  0  0  0  0  0  0  0  0
   58.8550   32.8640   46.7580 C   0  0  0  0  0  0  0  0  0  0  0  0
   58.8940   31.8050   47.7340 N   0  0  0  0  0  0  0  0  0  0  0  0
   59.0990   30.4130   47.3090 C   0  0  0  0  0  0  0  0  0  0  0  0
   60.0240   29.6990   48.2990 C   0  0  0  0  0  0  0  0  0  0  0  0
   59.5120   29.7780   49.7540 C   0  0  0  0  0  0  0  0  0  0  0  0
   58.4490   30.8670   49.9830 C   0  0  0  0  0  0  0  0  0  0  0  0
   58.7360   32.1280   49.1600 C   0  0  0  0  0  0  0  0  0  0  0  0
   57.0310   29.2470   44.9790 C   0  0  0  0  0  0  0  0  0  0  0  0
   58.1320   28.4130   45.0870 C   0  0  0  0  0  0  0  0  0  0  0  0
   57.6470   27.1780   45.4520 C   0  0  0  0  0  0  0  0  0  0  0  0
   56.2800   27.3250   45.5380 C   0  0  0  0  0  0  0  0  0  0  0  0
   55.3980   26.3080   45.8810 O   0  0  0  0  0  0  0  0  0  0  0  0
   55.8890   28.5810   45.2480 N   0  0  0  0  0  0  0  0  0  0  0  0
   57.2703   33.8199   43.8684 H   0  0  0  0  0  0  0  0  0  0  0  0
   58.8274   35.7482   44.1211 H   0  0  0  0  0  0  0  0  0  0  0  0
   60.3928   35.8485   46.0597 H   0  0  0  0  0  0  0  0  0  0  0  0
   60.4028   34.0193   47.7534 H   0  0  0  0  0  0  0  0  0  0  0  0
   58.1293   29.8946   47.2763 H   0  0  0  0  0  0  0  0  0  0  0  0
   59.5590   30.4024   46.3098 H   0  0  0  0  0  0  0  0  0  0  0  0
   60.1001   28.6405   48.0094 H   0  0  0  0  0  0  0  0  0  0  0  0
   61.0020   30.2012   48.2625 H   0  0  0  0  0  0  0  0  0  0  0  0
   59.0737   28.8048   50.0202 H   0  0  0  0  0  0  0  0  0  0  0  0
   60.3762   30.0383   50.3828 H   0  0  0  0  0  0  0  0  0  0  0  0
   57.4649   30.4698   49.6936 H   0  0  0  0  0  0  0  0  0  0  0  0
   58.4677   31.1432   51.0476 H   0  0  0  0  0  0  0  0  0  0  0  0
   57.8994   32.8323   49.2783 H   0  0  0  0  0  0  0  0  0  0  0  0
   59.6729   32.5761   49.5226 H   0  0  0  0  0  0  0  0  0  0  0  0
   59.1842   28.6840   44.9152 H   0  0  0  0  0  0  0  0  0  0  0  0
   58.2297   26.2635   45.6367 H   0  0  0  0  0  0  0  0  0  0  0  0
   54.8710   26.3510   46.7440 H   0  0  0  0  0  0  0  0  0  0  0  0
  1  2  2  0
  2  3  1  0
  3  4  1  0
  4  5  2  0
  5  6  1  0
  6  7  2  0
  7  8  1  0
  8  9  2  0
  9 10  1  0
 10 11  1  0
 11 12  1  0
 12 13  1  0
 13 14  1  0
 14 15  1  0
  2 16  1  0
 16 17  2  0
 17 18  1  0
 18 19  2  0
 19 20  1  0
 19 21  1  0
  9  4  1  0
 15 10  1  0
 21 16  1  0
  5 22  1  0
  6 23  1  0
  7 24  1  0
  8 25  1  0
 11 26  1  0
 11 27  1  0
 12 28  1  0
 12 29  1  0
 13 30  1  0
 13 31  1  0
 14 32  1  0
 14 33  1  0
 15 34  1  0
 15 35  1  0
 17 36  1  0
 18 37  1  0
 20 38  1  0
M  CHG  2   3  -1  21  -1
M  END
>  <UniqueID>  (88) 
81

>  <SMILES>  (88) 
O=C([N-]c1ccccc1N1CCCCC1)c1ccc(O)[n-]1

>  <Energy>  (88) 
73.4563504383434

>  <Genealogy>  (88) 
O=C([N-]c1ccccc1N1CCCCC1)c1ccc(O)[n-]1 (protonated)
O=C([N-]c1ccccc1N1CCCCC1)c1ccc(O)[n-]1 (3D coordinates assigned)
O=C([N-]c1ccccc1N1CCCCC1)c1ccc(O)[n-]1 (nonaromatic ring conformer: 73.4563504383434 kcal/mol)

>  <smiles>  (88) 
O=C(Nc1ccccc1N1CCCCC1)c1ccc(O)[nH]1

>  <score_type>  (88) 
oracle

>  <origin>  (88) 
adg

>  <m_score__min__energy>  (88) 
-11.44

>  <m_primary>  (88) 
energy

$$$$
88:0
     RDKit          3D

 51 54  0  0  0  0  0  0  0  0999 V2000
   54.4150   26.2130   45.9860 N   0  0  0  0  0  0  0  0  0  0  0  0
   55.0780   24.6370   45.7350 S   0  0  0  0  0  0  0  0  0  0  0  0
   54.6720   24.1270   44.3810 O   0  0  0  0  0  0  0  0  0  0  0  0
   54.5440   23.7020   46.7840 O   0  0  0  0  0  0  0  0  0  0  0  0
   56.8360   24.7150   45.8320 C   0  0  0  0  0  0  0  0  0  0  0  0
   57.6150   23.5860   45.5500 C   0  0  0  0  0  0  0  0  0  0  0  0
   59.0060   23.6560   45.6380 C   0  0  0  0  0  0  0  0  0  0  0  0
   59.6280   24.8520   46.0060 C   0  0  0  0  0  0  0  0  0  0  0  0
   58.8620   25.9970   46.2900 C   0  0  0  0  0  0  0  0  0  0  0  0
   59.5110   27.2670   46.6970 C   0  0  0  0  0  0  0  0  0  0  0  0
   60.7440   27.2770   46.9600 O   0  0  0  0  0  0  0  0  0  0  0  0
   58.7420   28.4730   46.8410 N   0  0  0  0  0  0  0  0  0  0  0  0
   59.3170   29.7910   46.8100 C   0  0  0  0  0  0  0  0  0  0  0  0
   60.5620   30.0140   47.4110 C   0  0  0  0  0  0  0  0  0  0  0  0
   61.1290   31.2880   47.4190 C   0  0  0  0  0  0  0  0  0  0  0  0
   60.4590   32.3750   46.8270 C   0  0  0  0  0  0  0  0  0  0  0  0
   59.1900   32.1610   46.2410 C   0  0  0  0  0  0  0  0  0  0  0  0
   58.6250   30.8770   46.2490 C   0  0  0  0  0  0  0  0  0  0  0  0
   58.3840   33.3150   45.6950 C   0  0  0  0  0  0  0  0  0  0  0  0
   59.2630   34.5180   45.3410 C   0  0  0  0  0  0  0  0  0  0  0  0
   60.1890   34.8590   46.5080 C   0  0  0  0  0  0  0  0  0  0  0  0
   61.0370   33.7020   46.8260 N   0  0  0  0  0  0  0  0  0  0  0  0
   62.4510   33.9020   47.0100 C   0  0  0  0  0  0  0  0  0  0  0  0
   63.1640   34.2030   46.0140 O   0  0  0  0  0  0  0  0  0  0  0  0
   63.0770   33.7790   48.3470 C   0  0  0  0  0  0  0  0  0  0  0  0
   62.4500   34.3130   49.4860 C   0  0  0  0  0  0  0  0  0  0  0  0
   63.0430   34.1880   50.7460 C   0  0  0  0  0  0  0  0  0  0  0  0
   64.2650   33.5230   50.8820 C   0  0  0  0  0  0  0  0  0  0  0  0
   64.8910   32.9770   49.7590 C   0  0  0  0  0  0  0  0  0  0  0  0
   64.3010   33.1010   48.4980 C   0  0  0  0  0  0  0  0  0  0  0  0
   57.4590   25.9130   46.2080 C   0  0  0  0  0  0  0  0  0  0  0  0
   53.6560   26.3400   45.2810 H   0  0  0  0  0  0  0  0  0  0  0  0
   57.1298   22.6427   45.2587 H   0  0  0  0  0  0  0  0  0  0  0  0
   59.6148   22.7669   45.4170 H   0  0  0  0  0  0  0  0  0  0  0  0
   60.7249   24.8984   46.0741 H   0  0  0  0  0  0  0  0  0  0  0  0
   57.7320   28.3850   47.0960 H   0  0  0  0  0  0  0  0  0  0  0  0
   61.0978   29.1763   47.8812 H   0  0  0  0  0  0  0  0  0  0  0  0
   62.1094   31.4449   47.8926 H   0  0  0  0  0  0  0  0  0  0  0  0
   57.6285   30.7188   45.8109 H   0  0  0  0  0  0  0  0  0  0  0  0
   57.8576   32.9819   44.7884 H   0  0  0  0  0  0  0  0  0  0  0  0
   57.6762   33.6317   46.4752 H   0  0  0  0  0  0  0  0  0  0  0  0
   59.8690   34.2767   44.4553 H   0  0  0  0  0  0  0  0  0  0  0  0
   58.6176   35.3837   45.1311 H   0  0  0  0  0  0  0  0  0  0  0  0
   60.8251   35.7129   46.2318 H   0  0  0  0  0  0  0  0  0  0  0  0
   59.5828   35.1175   47.3887 H   0  0  0  0  0  0  0  0  0  0  0  0
   61.4859   34.8330   49.3854 H   0  0  0  0  0  0  0  0  0  0  0  0
   62.5474   34.6134   51.6311 H   0  0  0  0  0  0  0  0  0  0  0  0
   64.7334   33.4297   51.8729 H   0  0  0  0  0  0  0  0  0  0  0  0
   65.8497   32.4487   49.8672 H   0  0  0  0  0  0  0  0  0  0  0  0
   64.7967   32.6658   47.6177 H   0  0  0  0  0  0  0  0  0  0  0  0
   56.8459   26.7960   46.4412 H   0  0  0  0  0  0  0  0  0  0  0  0
  1  2  1  0
  2  3  2  0
  2  4  2  0
  2  5  1  0
  5  6  2  0
  6  7  1  0
  7  8  2  0
  8  9  1  0
  9 10  1  0
 10 11  2  0
 10 12  1  0
 12 13  1  0
 13 14  2  0
 14 15  1  0
 15 16  2  0
 16 17  1  0
 17 18  2  0
 17 19  1  0
 19 20  1  0
 20 21  1  0
 21 22  1  0
 22 23  1  0
 23 24  2  0
 23 25  1  0
 25 26  2  0
 26 27  1  0
 27 28  2  0
 28 29  1  0
 29 30  2  0
  9 31  2  0
 31  5  1  0
 18 13  1  0
 30 25  1  0
 22 16  1  0
  1 32  1  0
  6 33  1  0
  7 34  1  0
  8 35  1  0
 12 36  1  0
 14 37  1  0
 15 38  1  0
 18 39  1  0
 19 40  1  0
 19 41  1  0
 20 42  1  0
 20 43  1  0
 21 44  1  0
 21 45  1  0
 26 46  1  0
 27 47  1  0
 28 48  1  0
 29 49  1  0
 30 50  1  0
 31 51  1  0
M  CHG  1   1  -1
M  END
>  <UniqueID>  (89) 
82

>  <SMILES>  (89) 
[NH-]S(=O)(=O)c1cccc(C(=O)Nc2ccc3c(c2)CCCN3C(=O)c2ccccc2)c1

>  <Energy>  (89) 
68.24230214485661

>  <Genealogy>  (89) 
[NH-]S(=O)(=O)c1cccc(C(=O)Nc2ccc3c(c2)CCCN3C(=O)c2ccccc2)c1 (protonated)
[NH-]S(=O)(=O)c1cccc(C(=O)Nc2ccc3c(c2)CCCN3C(=O)c2ccccc2)c1 (3D coordinates assigned)
[NH-]S(=O)(=O)c1cccc(C(=O)Nc2ccc3c(c2)CCCN3C(=O)c2ccccc2)c1 (nonaromatic ring conformer: 68.24230214485661 kcal/mol)

>  <smiles>  (89) 
NS(=O)(=O)c1cccc(C(=O)Nc2ccc3c(c2)CCCN3C(=O)c2ccccc2)c1

>  <score_type>  (89) 
oracle

>  <origin>  (89) 
adg

>  <m_score__min__energy>  (89) 
-12.31

>  <m_primary>  (89) 
energy

$$$$
89:0
     RDKit          3D

 37 39  0  0  0  0  0  0  0  0999 V2000
   59.5540   35.0090   46.2080 C   0  0  0  0  0  0  0  0  0  0  0  0
   60.0130   34.0520   47.2760 C   0  0  0  0  0  0  0  0  0  0  0  0
   61.3090   34.1890   47.8050 C   0  0  0  0  0  0  0  0  0  0  0  0
   61.7750   33.3040   48.7790 C   0  0  0  0  0  0  0  0  0  0  0  0
   60.9570   32.2750   49.2390 C   0  0  0  0  0  0  0  0  0  0  0  0
   59.6620   32.1330   48.7360 C   0  0  0  0  0  0  0  0  0  0  0  0
   59.1670   33.0240   47.7680 C   0  0  0  0  0  0  0  0  0  0  0  0
   57.7770   32.7890   47.2090 C   0  0  0  0  0  0  0  0  0  0  0  0
   57.8130   32.0690   45.9250 N   0  0  0  0  0  0  0  0  0  0  0  0
   58.1900   30.7860   45.9000 N   0  0  0  0  0  0  0  0  0  0  0  0
   58.2480   30.0580   44.7530 C   0  0  0  0  0  0  0  0  0  0  0  0
   58.6940   28.6210   44.7810 C   0  0  0  0  0  0  0  0  0  0  0  0
   57.6380   27.7180   45.3530 C   0  0  0  0  0  0  0  0  0  0  0  0
   57.8790   26.0980   45.7500 S   0  0  0  0  0  0  0  0  0  0  0  0
   56.2650   25.8660   46.1510 C   0  0  0  0  0  0  0  0  0  0  0  0
   55.7850   24.7770   46.5570 O   0  0  0  0  0  0  0  0  0  0  0  0
   55.5230   26.9780   45.9810 N   0  0  0  0  0  0  0  0  0  0  0  0
   56.2790   28.0110   45.5240 C   0  0  0  0  0  0  0  0  0  0  0  0
   55.7080   29.2480   45.2390 O   0  0  0  0  0  0  0  0  0  0  0  0
   57.9400   30.6810   43.5430 C   0  0  0  0  0  0  0  0  0  0  0  0
   57.5640   32.0210   43.5470 C   0  0  0  0  0  0  0  0  0  0  0  0
   57.5050   32.7150   44.7570 C   0  0  0  0  0  0  0  0  0  0  0  0
   57.1710   33.9310   44.7590 O   0  0  0  0  0  0  0  0  0  0  0  0
   59.1241   35.9053   46.6790 H   0  0  0  0  0  0  0  0  0  0  0  0
   60.4111   35.2988   45.5824 H   0  0  0  0  0  0  0  0  0  0  0  0
   58.7915   34.5220   45.5824 H   0  0  0  0  0  0  0  0  0  0  0  0
   61.9608   35.0001   47.4483 H   0  0  0  0  0  0  0  0  0  0  0  0
   62.7911   33.4198   49.1842 H   0  0  0  0  0  0  0  0  0  0  0  0
   61.3313   31.5735   49.9992 H   0  0  0  0  0  0  0  0  0  0  0  0
   59.0228   31.3156   49.1010 H   0  0  0  0  0  0  0  0  0  0  0  0
   57.1989   32.1957   47.9327 H   0  0  0  0  0  0  0  0  0  0  0  0
   57.3104   33.7699   47.0354 H   0  0  0  0  0  0  0  0  0  0  0  0
   58.9195   28.2985   43.7538 H   0  0  0  0  0  0  0  0  0  0  0  0
   59.5850   28.5529   45.4225 H   0  0  0  0  0  0  0  0  0  0  0  0
   56.0720   30.1100   45.6260 H   0  0  0  0  0  0  0  0  0  0  0  0
   57.9937   30.1203   42.5982 H   0  0  0  0  0  0  0  0  0  0  0  0
   57.3152   32.5295   42.6039 H   0  0  0  0  0  0  0  0  0  0  0  0
  1  2  1  0
  2  3  2  0
  3  4  1  0
  4  5  2  0
  5  6  1  0
  6  7  2  0
  7  8  1  0
  8  9  1  0
  9 10  1  0
 10 11  2  0
 11 12  1  0
 12 13  1  0
 13 14  1  0
 14 15  1  0
 15 16  2  0
 15 17  1  0
 17 18  1  0
 18 19  1  0
 11 20  1  0
 20 21  2  0
 21 22  1  0
 22 23  2  0
  7  2  1  0
 22  9  1  0
 18 13  2  0
  1 24  1  0
  1 25  1  0
  1 26  1  0
  3 27  1  0
  4 28  1  0
  5 29  1  0
  6 30  1  0
  8 31  1  0
  8 32  1  0
 12 33  1  0
 12 34  1  0
 19 35  1  0
 20 36  1  0
 21 37  1  0
M  CHG  1  17  -1
M  END
>  <UniqueID>  (90) 
83

>  <SMILES>  (90) 
Cc1ccccc1Cn1nc(Cc2sc(=O)[n-]c2O)ccc1=O

>  <Energy>  (90) 
69.35235694910715

>  <Genealogy>  (90) 
Cc1ccccc1Cn1nc(Cc2sc(=O)[n-]c2O)ccc1=O (protonated)
Cc1ccccc1Cn1nc(Cc2sc(=O)[n-]c2O)ccc1=O (3D coordinates assigned)
Cc1ccccc1Cn1nc(Cc2sc(=O)[n-]c2O)ccc1=O (optimized conformer: 69.35235694910715 kcal/mol)

>  <smiles>  (90) 
Cc1ccccc1Cn1nc(Cc2sc(=O)[nH]c2O)ccc1=O

>  <score_type>  (90) 
oracle

>  <origin>  (90) 
adg

>  <m_score__min__energy>  (90) 
-11.220000000000001

>  <m_primary>  (90) 
energy

$$$$
90:0
     RDKit          3D

 39 40  0  0  0  0  0  0  0  0999 V2000
   56.3970   23.5230   43.7390 C   0  0  0  0  0  0  0  0  0  0  0  0
   56.4440   24.6580   44.7080 C   0  0  0  0  0  0  0  0  0  0  0  0
   55.4900   24.9920   45.6490 C   0  0  0  0  0  0  0  0  0  0  0  0
   55.9430   26.0230   46.3890 N   0  0  0  0  0  0  0  0  0  0  0  0
   57.1570   26.3260   45.9530 N   0  0  0  0  0  0  0  0  0  0  0  0
   57.9680   27.4130   46.4970 C   0  0  0  0  0  0  0  0  0  0  0  0
   58.5740   28.3060   45.3910 C   0  0  0  0  0  0  0  0  0  0  0  0
   58.1050   29.7100   45.3700 N   0  0  0  0  0  0  0  0  0  0  0  0
   58.1480   30.3760   46.6840 C   0  0  0  0  0  0  0  0  0  0  0  0
   58.4930   31.8320   46.5200 C   0  0  0  0  0  0  0  0  0  0  0  0
   58.7930   32.3530   45.2490 C   0  0  0  0  0  0  0  0  0  0  0  0
   59.1250   33.7040   45.1020 C   0  0  0  0  0  0  0  0  0  0  0  0
   59.4160   34.1990   43.8740 F   0  0  0  0  0  0  0  0  0  0  0  0
   59.1570   34.5430   46.2190 C   0  0  0  0  0  0  0  0  0  0  0  0
   58.8600   34.0340   47.4850 C   0  0  0  0  0  0  0  0  0  0  0  0
   58.5280   32.6830   47.6400 C   0  0  0  0  0  0  0  0  0  0  0  0
   58.2430   32.2070   48.8780 F   0  0  0  0  0  0  0  0  0  0  0  0
   56.5590   29.9280   44.5710 S   0  0  0  0  0  0  0  0  0  0  0  0
   56.6610   29.5250   42.8370 C   0  0  0  0  0  0  0  0  0  0  0  0
   55.5040   29.0740   45.2180 O   0  0  0  0  0  0  0  0  0  0  0  0
   56.1500   31.3690   44.6820 O   0  0  0  0  0  0  0  0  0  0  0  0
   57.4960   25.5190   44.9290 C   0  0  0  0  0  0  0  0  0  0  0  0
   56.3576   22.5718   44.2901 H   0  0  0  0  0  0  0  0  0  0  0  0
   55.5020   23.6177   43.1065 H   0  0  0  0  0  0  0  0  0  0  0  0
   57.2968   23.5434   43.1065 H   0  0  0  0  0  0  0  0  0  0  0  0
   54.5163   24.4959   45.7744 H   0  0  0  0  0  0  0  0  0  0  0  0
   57.3347   28.0355   47.1462 H   0  0  0  0  0  0  0  0  0  0  0  0
   58.8001   26.9624   47.0579 H   0  0  0  0  0  0  0  0  0  0  0  0
   59.6657   28.3164   45.5255 H   0  0  0  0  0  0  0  0  0  0  0  0
   58.2459   27.8662   44.4376 H   0  0  0  0  0  0  0  0  0  0  0  0
   57.1640   30.2884   47.1677 H   0  0  0  0  0  0  0  0  0  0  0  0
   58.9171   29.8935   47.3050 H   0  0  0  0  0  0  0  0  0  0  0  0
   58.7666   31.6960   44.3671 H   0  0  0  0  0  0  0  0  0  0  0  0
   59.4164   35.6054   46.1009 H   0  0  0  0  0  0  0  0  0  0  0  0
   58.8870   34.6964   48.3628 H   0  0  0  0  0  0  0  0  0  0  0  0
   56.9294   28.4644   42.7222 H   0  0  0  0  0  0  0  0  0  0  0  0
   55.6876   29.7106   42.3595 H   0  0  0  0  0  0  0  0  0  0  0  0
   57.4289   30.1513   42.3595 H   0  0  0  0  0  0  0  0  0  0  0  0
   58.4429   25.5433   44.3698 H   0  0  0  0  0  0  0  0  0  0  0  0
  1  2  1  0
  2  3  1  0
  3  4  2  0
  4  5  1  0
  5  6  1  0
  6  7  1  0
  7  8  1  0
  8  9  1  0
  9 10  1  0
 10 11  2  0
 11 12  1  0
 12 13  1  0
 12 14  2  0
 14 15  1  0
 15 16  2  0
 16 17  1  0
  8 18  1  0
 18 19  1  0
 18 20  2  0
 18 21  2  0
  5 22  1  0
 22  2  2  0
 16 10  1  0
  1 23  1  0
  1 24  1  0
  1 25  1  0
  3 26  1  0
  6 27  1  0
  6 28  1  0
  7 29  1  0
  7 30  1  0
  9 31  1  0
  9 32  1  0
 11 33  1  0
 14 34  1  0
 15 35  1  0
 19 36  1  0
 19 37  1  0
 19 38  1  0
 22 39  1  0
M  END
>  <UniqueID>  (91) 
84

>  <SMILES>  (91) 
Cc1cnn(CCN(Cc2cc(F)ccc2F)S(C)(=O)=O)c1

>  <Energy>  (91) 
65.10789462087708

>  <Genealogy>  (91) 
Cc1cnn(CCN(Cc2cc(F)ccc2F)S(C)(=O)=O)c1 (3D coordinates assigned)
Cc1cnn(CCN(Cc2cc(F)ccc2F)S(C)(=O)=O)c1 (optimized conformer: 65.10789462087708 kcal/mol)

>  <smiles>  (91) 
Cc1cnn(CCN(Cc2cc(F)ccc2F)S(C)(=O)=O)c1

>  <score_type>  (91) 
oracle

>  <origin>  (91) 
adg

>  <m_score__min__energy>  (91) 
-7.3700000000000001

>  <m_primary>  (91) 
energy

$$$$
91:0
     RDKit          3D

 37 38  0  0  0  0  0  0  0  0999 V2000
   61.2710   30.1782   46.1406 H   0  0  0  0  0  0  0  0  0  0  0  0
   60.6060   30.4120   46.9850 C   0  0  0  0  0  0  0  0  0  0  0  0
   59.3370   30.5670   46.7360 N   0  0  0  0  0  0  0  0  0  0  0  0
   58.7000   31.7230   46.1690 C   0  0  0  0  0  0  0  0  0  0  0  0
   58.8000   32.9810   46.7900 C   0  0  0  0  0  0  0  0  0  0  0  0
   59.3659   33.0849   47.7275 H   0  0  0  0  0  0  0  0  0  0  0  0
   58.1840   34.1000   46.2220 C   0  0  0  0  0  0  0  0  0  0  0  0
   58.2505   35.0773   46.7224 H   0  0  0  0  0  0  0  0  0  0  0  0
   57.4850   33.9780   45.0210 C   0  0  0  0  0  0  0  0  0  0  0  0
   56.9928   34.8576   44.5804 H   0  0  0  0  0  0  0  0  0  0  0  0
   57.4090   32.7410   44.3770 C   0  0  0  0  0  0  0  0  0  0  0  0
   56.8670   32.6516   43.4240 H   0  0  0  0  0  0  0  0  0  0  0  0
   58.0210   31.6130   44.9410 C   0  0  0  0  0  0  0  0  0  0  0  0
   57.9110   30.0390   44.0810 S   0  0  0  0  0  0  0  0  0  0  0  0
   56.2350   29.7490   44.6350 C   0  0  0  0  0  0  0  0  0  0  0  0
   55.3690   30.6520   44.4960 O   0  0  0  0  0  0  0  0  0  0  0  0
   55.8930   28.4960   45.2290 N   0  0  0  0  0  0  0  0  0  0  0  0
   56.8950   27.5430   45.6790 C   0  0  0  0  0  0  0  0  0  0  0  0
   56.9151   27.5239   46.7787 H   0  0  0  0  0  0  0  0  0  0  0  0
   56.6449   26.5413   45.2994 H   0  0  0  0  0  0  0  0  0  0  0  0
   57.8829   27.8429   45.2994 H   0  0  0  0  0  0  0  0  0  0  0  0
   61.2110   30.5300   48.3300 C   0  0  0  0  0  0  0  0  0  0  0  0
   62.2300   31.3870   48.7090 C   0  0  0  0  0  0  0  0  0  0  0  0
   62.8900   32.4130   47.8460 C   0  0  0  0  0  0  0  0  0  0  0  0
   63.3760   33.1685   48.4809 H   0  0  0  0  0  0  0  0  0  0  0  0
   63.6453   31.9270   47.2109 H   0  0  0  0  0  0  0  0  0  0  0  0
   62.1346   32.8988   47.2109 H   0  0  0  0  0  0  0  0  0  0  0  0
   62.5950   31.1340   49.9840 N   0  0  0  0  0  0  0  0  0  0  0  0
   61.8460   30.1390   50.4360 N   0  0  0  0  0  0  0  0  0  0  0  0
   61.9800   29.5950   51.7630 C   0  0  0  0  0  0  0  0  0  0  0  0
   60.8100   28.6260   52.3930 S   0  0  0  0  0  0  0  0  0  0  0  0
   63.0010   30.1010   52.6340 N   0  0  0  0  0  0  0  0  0  0  0  0
   62.5630   30.4930   53.4970 H   0  0  0  0  0  0  0  0  0  0  0  0
   63.6470   29.3190   52.8900 H   0  0  0  0  0  0  0  0  0  0  0  0
   63.5400   30.8620   52.1620 H   0  0  0  0  0  0  0  0  0  0  0  0
   61.0170   29.7390   49.4470 C   0  0  0  0  0  0  0  0  0  0  0  0
   60.2410   28.7490   49.5210 O   0  0  0  0  0  0  0  0  0  0  0  0
  1  2  1  0
  2  3  2  0
  3  4  1  0
  4  5  2  0
  5  6  1  0
  5  7  1  0
  7  8  1  0
  7  9  2  0
  9 10  1  0
  9 11  1  0
 11 12  1  0
 11 13  2  0
 13 14  1  0
 14 15  1  0
 15 16  2  0
 15 17  1  0
 17 18  1  0
 18 19  1  0
 18 20  1  0
 18 21  1  0
  2 22  1  0
 22 23  2  0
 23 24  1  0
 24 25  1  0
 24 26  1  0
 24 27  1  0
 23 28  1  0
 28 29  1  0
 29 30  1  0
 30 31  2  0
 30 32  1  0
 32 33  1  0
 32 34  1  0
 32 35  1  0
 29 36  1  0
 36 37  2  0
 13  4  1  0
 36 22  1  0
M  CHG  3  17  -1  28  -1  32   1
M  END
>  <UniqueID>  (92) 
85

>  <SMILES>  (92) 
C[N-]C(=O)Sc1ccccc1/N=C\c1c(C)[n-]n(C([NH3+])=S)c1=O

>  <Energy>  (92) 
73.6345564619151

>  <Genealogy>  (92) 
C[N-]C(=O)Sc1ccccc1N=Cc1c(C)[n-]n(C([NH3+])=S)c1=O (protonated)
C[N-]C(=O)Sc1ccccc1/N=C\c1c(C)[n-]n(C([NH3+])=S)c1=O (cis-trans isomerization)
C[N-]C(=O)Sc1ccccc1/N=C\c1c(C)[n-]n(C([NH3+])=S)c1=O (3D coordinates assigned)
C[N-]C(=O)Sc1ccccc1/N=C\c1c(C)[n-]n(C([NH3+])=S)c1=O (optimized conformer: 73.6345564619151 kcal/mol)

>  <smiles>  (92) 
CNC(=O)Sc1ccccc1N=Cc1c(C)[nH]n(C(N)=S)c1=O

>  <score_type>  (92) 
oracle

>  <origin>  (92) 
adg

>  <m_score__min__energy>  (92) 
-8.8699999999999992

>  <m_primary>  (92) 
energy

$$$$
92:0
     RDKit          3D

 38 40  0  0  0  0  0  0  0  0999 V2000
   59.9850   35.9160   45.9670 C   0  0  0  0  0  0  0  0  0  0  0  0
   59.2840   34.6190   45.7000 C   0  0  0  0  0  0  0  0  0  0  0  0
   59.7490   33.4390   46.2970 C   0  0  0  0  0  0  0  0  0  0  0  0
   59.1140   32.2210   46.0420 C   0  0  0  0  0  0  0  0  0  0  0  0
   58.0080   32.1700   45.1860 C   0  0  0  0  0  0  0  0  0  0  0  0
   57.2210   30.6450   44.8080 S   0  0  0  0  0  0  0  0  0  0  0  0
   55.7710   30.8510   44.4580 O   0  0  0  0  0  0  0  0  0  0  0  0
   57.9260   30.0190   43.6340 O   0  0  0  0  0  0  0  0  0  0  0  0
   57.3450   29.5910   46.1820 N   0  0  0  0  0  0  0  0  0  0  0  0
   58.2280   28.4630   46.2370 C   0  0  0  0  0  0  0  0  0  0  0  0
   59.6200   28.6020   46.0730 C   0  0  0  0  0  0  0  0  0  0  0  0
   60.4470   27.4730   46.1020 C   0  0  0  0  0  0  0  0  0  0  0  0
   59.8920   26.2000   46.2700 C   0  0  0  0  0  0  0  0  0  0  0  0
   58.4980   26.0470   46.4070 C   0  0  0  0  0  0  0  0  0  0  0  0
   57.8950   24.7880   46.5390 O   0  0  0  0  0  0  0  0  0  0  0  0
   56.6160   24.4480   46.0700 C   0  0  0  0  0  0  0  0  0  0  0  0
   56.4500   23.2880   45.3140 C   0  0  0  0  0  0  0  0  0  0  0  0
   55.1720   22.9210   44.8950 C   0  0  0  0  0  0  0  0  0  0  0  0
   54.0850   23.7320   45.2300 C   0  0  0  0  0  0  0  0  0  0  0  0
   52.9190   23.4290   44.8590 O   0  0  0  0  0  0  0  0  0  0  0  0
   54.2920   24.8520   45.9660 N   0  0  0  0  0  0  0  0  0  0  0  0
   55.5180   25.1960   46.3770 N   0  0  0  0  0  0  0  0  0  0  0  0
   57.6820   27.1880   46.4320 C   0  0  0  0  0  0  0  0  0  0  0  0
   57.5430   33.3470   44.5900 C   0  0  0  0  0  0  0  0  0  0  0  0
   58.1750   34.5660   44.8440 C   0  0  0  0  0  0  0  0  0  0  0  0
   60.0687   36.0708   47.0528 H   0  0  0  0  0  0  0  0  0  0  0  0
   60.9906   35.8877   45.5221 H   0  0  0  0  0  0  0  0  0  0  0  0
   59.4104   36.7417   45.5221 H   0  0  0  0  0  0  0  0  0  0  0  0
   60.6186   33.4722   46.9699 H   0  0  0  0  0  0  0  0  0  0  0  0
   59.4843   31.2997   46.5153 H   0  0  0  0  0  0  0  0  0  0  0  0
   60.0580   29.5996   45.9219 H   0  0  0  0  0  0  0  0  0  0  0  0
   61.5356   27.5871   45.9925 H   0  0  0  0  0  0  0  0  0  0  0  0
   60.5458   25.3157   46.2952 H   0  0  0  0  0  0  0  0  0  0  0  0
   57.3197   22.6681   45.0506 H   0  0  0  0  0  0  0  0  0  0  0  0
   55.0213   22.0034   44.3074 H   0  0  0  0  0  0  0  0  0  0  0  0
   56.6013   27.0801   46.6067 H   0  0  0  0  0  0  0  0  0  0  0  0
   56.6738   33.3121   43.9168 H   0  0  0  0  0  0  0  0  0  0  0  0
   57.8019   35.4866   44.3715 H   0  0  0  0  0  0  0  0  0  0  0  0
  1  2  1  0
  2  3  2  0
  3  4  1  0
  4  5  2  0
  5  6  1  0
  6  7  2  0
  6  8  2  0
  6  9  1  0
  9 10  1  0
 10 11  2  0
 11 12  1  0
 12 13  2  0
 13 14  1  0
 14 15  1  0
 15 16  1  0
 16 17  1  0
 17 18  2  0
 18 19  1  0
 19 20  2  0
 19 21  1  0
 21 22  1  0
 14 23  2  0
  5 24  1  0
 24 25  2  0
 25  2  1  0
 23 10  1  0
 22 16  2  0
  1 26  1  0
  1 27  1  0
  1 28  1  0
  3 29  1  0
  4 30  1  0
 11 31  1  0
 12 32  1  0
 13 33  1  0
 17 34  1  0
 18 35  1  0
 23 36  1  0
 24 37  1  0
 25 38  1  0
M  CHG  2   9  -1  21  -1
M  END
>  <UniqueID>  (93) 
86

>  <SMILES>  (93) 
Cc1ccc(S(=O)(=O)[N-]c2cccc(Oc3ccc(=O)[n-]n3)c2)cc1

>  <Energy>  (93) 
50.635189310987705

>  <Genealogy>  (93) 
Cc1ccc(S(=O)(=O)[N-]c2cccc(Oc3ccc(=O)[n-]n3)c2)cc1 (protonated)
Cc1ccc(S(=O)(=O)[N-]c2cccc(Oc3ccc(=O)[n-]n3)c2)cc1 (3D coordinates assigned)
Cc1ccc(S(=O)(=O)[N-]c2cccc(Oc3ccc(=O)[n-]n3)c2)cc1 (optimized conformer: 50.635189310987705 kcal/mol)

>  <smiles>  (93) 
Cc1ccc(S(=O)(=O)Nc2cccc(Oc3ccc(=O)[nH]n3)c2)cc1

>  <score_type>  (93) 
oracle

>  <origin>  (93) 
adg

>  <m_score__min__energy>  (93) 
-12.550000000000001

>  <m_primary>  (93) 
energy

$$$$
