0:0
     RDKit          3D

 50 52  0  0  0  0  0  0  0  0999 V2000
   63.3862   30.6429   47.8433 H   0  0  0  0  0  0  0  0  0  0  0  0
   62.7100   31.4680   47.5750 C   0  0  0  0  0  0  0  0  0  0  0  0
   61.4130   31.1870   47.1460 C   0  0  0  0  0  0  0  0  0  0  0  0
   61.0836   30.1402   47.0711 H   0  0  0  0  0  0  0  0  0  0  0  0
   60.5150   32.2230   46.8060 C   0  0  0  0  0  0  0  0  0  0  0  0
   60.9950   33.5600   46.8480 C   0  0  0  0  0  0  0  0  0  0  0  0
   62.2860   33.8290   47.3200 C   0  0  0  0  0  0  0  0  0  0  0  0
   62.6203   34.8722   47.4198 H   0  0  0  0  0  0  0  0  0  0  0  0
   63.1580   32.7880   47.6670 C   0  0  0  0  0  0  0  0  0  0  0  0
   64.4870   33.0470   48.1550 N   0  0  0  0  0  0  0  0  0  0  0  0
   65.2460   33.1970   47.4520 H   0  0  0  0  0  0  0  0  0  0  0  0
   64.8620   33.0780   49.5420 C   0  0  0  0  0  0  0  0  0  0  0  0
   66.1950   32.6780   49.8870 N   0  0  0  0  0  0  0  0  0  0  0  0
   66.6160   31.8770   49.3640 H   0  0  0  0  0  0  0  0  0  0  0  0
   67.0860   33.5740   50.4950 C   0  0  0  0  0  0  0  0  0  0  0  0
   67.8220   34.3130   50.9990 N   0  0  0  0  0  0  0  0  0  0  0  0
   64.0120   33.4950   50.4490 N   0  0  0  0  0  0  0  0  0  0  0  0
   64.1360   34.4500   50.8560 H   0  0  0  0  0  0  0  0  0  0  0  0
   62.8550   32.7360   50.9330 C   0  0  0  0  0  0  0  0  0  0  0  0
   62.9715   32.5524   52.0113 H   0  0  0  0  0  0  0  0  0  0  0  0
   62.8057   31.7854   50.3817 H   0  0  0  0  0  0  0  0  0  0  0  0
   61.5540   33.5030   50.6950 C   0  0  0  0  0  0  0  0  0  0  0  0
   61.1029   33.7689   51.6624 H   0  0  0  0  0  0  0  0  0  0  0  0
   61.7677   34.4196   50.1257 H   0  0  0  0  0  0  0  0  0  0  0  0
   60.8554   32.8723   50.1257 H   0  0  0  0  0  0  0  0  0  0  0  0
   60.0470   34.9610   46.2380 S   0  0  0  0  0  0  0  0  0  0  0  0
   58.4300   34.2890   46.6910 C   0  0  0  0  0  0  0  0  0  0  0  0
   58.3882   34.1174   47.7767 H   0  0  0  0  0  0  0  0  0  0  0  0
   57.6329   34.9960   46.4176 H   0  0  0  0  0  0  0  0  0  0  0  0
   58.2430   32.9720   45.9530 C   0  0  0  0  0  0  0  0  0  0  0  0
   57.1937   32.6535   46.0396 H   0  0  0  0  0  0  0  0  0  0  0  0
   58.5080   33.1144   44.8949 H   0  0  0  0  0  0  0  0  0  0  0  0
   59.1130   31.9360   46.5280 N   0  0  0  0  0  0  0  0  0  0  0  0
   58.4870   30.6700   46.9630 C   0  0  0  0  0  0  0  0  0  0  0  0
   59.0875   30.2288   47.7721 H   0  0  0  0  0  0  0  0  0  0  0  0
   57.4677   30.8814   47.3185 H   0  0  0  0  0  0  0  0  0  0  0  0
   58.4100   29.6960   45.8150 C   0  0  0  0  0  0  0  0  0  0  0  0
   57.4500   29.8750   44.8060 C   0  0  0  0  0  0  0  0  0  0  0  0
   56.7780   30.7453   44.8382 H   0  0  0  0  0  0  0  0  0  0  0  0
   57.3440   28.9530   43.7610 C   0  0  0  0  0  0  0  0  0  0  0  0
   56.5908   29.1030   42.9735 H   0  0  0  0  0  0  0  0  0  0  0  0
   58.1940   27.8360   43.7110 C   0  0  0  0  0  0  0  0  0  0  0  0
   58.0960   26.8470   42.5870 C   0  0  0  0  0  0  0  0  0  0  0  0
   57.9954   25.8322   42.9993 H   0  0  0  0  0  0  0  0  0  0  0  0
   57.2166   27.0804   41.9688 H   0  0  0  0  0  0  0  0  0  0  0  0
   59.0041   26.9033   41.9688 H   0  0  0  0  0  0  0  0  0  0  0  0
   59.1690   27.6680   44.7040 C   0  0  0  0  0  0  0  0  0  0  0  0
   59.8510   26.8060   44.6619 H   0  0  0  0  0  0  0  0  0  0  0  0
   59.2780   28.5920   45.7480 C   0  0  0  0  0  0  0  0  0  0  0  0
   60.0477   28.4542   46.5217 H   0  0  0  0  0  0  0  0  0  0  0  0
  1  2  1  0
  2  3  2  0
  3  4  1  0
  3  5  1  0
  5  6  2  0
  6  7  1  0
  7  8  1  0
  7  9  2  0
  9 10  1  0
 10 11  1  0
 10 12  1  0
 12 13  1  0
 13 14  1  0
 13 15  1  0
 15 16  3  0
 12 17  2  0
 17 18  1  0
 17 19  1  0
 19 20  1  0
 19 21  1  0
 19 22  1  0
 22 23  1  0
 22 24  1  0
 22 25  1  0
  6 26  1  0
 26 27  1  0
 27 28  1  0
 27 29  1  0
 27 30  1  0
 30 31  1  0
 30 32  1  0
 30 33  1  0
 33 34  1  0
 34 35  1  0
 34 36  1  0
 34 37  1  0
 37 38  2  0
 38 39  1  0
 38 40  1  0
 40 41  1  0
 40 42  2  0
 42 43  1  0
 43 44  1  0
 43 45  1  0
 43 46  1  0
 42 47  1  0
 47 48  1  0
 47 49  2  0
 49 50  1  0
  9  2  1  0
 49 37  1  0
 33  5  1  0
M  CHG  1  17   1
M  END
>  <UniqueID>  (1) 
1

>  <SMILES>  (1) 
CC/[NH+]=C(\NC#N)Nc1ccc2c(c1)SCCN2Cc1ccc(C)cc1

>  <Energy>  (1) 
63.88927689182617

>  <Genealogy>  (1) 
CC[NH+]=C(NC#N)Nc1ccc2c(c1)SCCN2Cc1ccc(C)cc1 (protonated)
CC/[NH+]=C(\NC#N)Nc1ccc2c(c1)SCCN2Cc1ccc(C)cc1 (cis-trans isomerization)
CC/[NH+]=C(\NC#N)Nc1ccc2c(c1)SCCN2Cc1ccc(C)cc1 (3D coordinates assigned)
CC/[NH+]=C(\NC#N)Nc1ccc2c(c1)SCCN2Cc1ccc(C)cc1 (nonaromatic ring conformer: 63.88927689182617 kcal/mol)

>  <smiles>  (1) 
CCN=C(NC#N)Nc1ccc2c(c1)SCCN2Cc1ccc(C)cc1

>  <score_type>  (1) 
oracle

>  <origin>  (1) 
adg

>  <m_score__min__energy>  (1) 
-6.8200000000000003

>  <m_primary>  (1) 
energy

$$$$
1:0
     RDKit          3D

 29 30  0  0  0  0  0  0  0  0999 V2000
   59.8670   33.9220   46.6550 C   0  0  0  0  0  0  0  0  0  0  0  0
   61.1820   33.2380   46.8540 C   0  0  0  0  0  0  0  0  0  0  0  0
   62.4250   33.8310   46.7570 C   0  0  0  0  0  0  0  0  0  0  0  0
   63.3390   32.8310   47.0150 C   0  0  0  0  0  0  0  0  0  0  0  0
   62.7100   31.7020   47.2550 O   0  0  0  0  0  0  0  0  0  0  0  0
   61.4150   31.9070   47.1680 C   0  0  0  0  0  0  0  0  0  0  0  0
   60.4110   30.8470   47.3780 C   0  0  0  0  0  0  0  0  0  0  0  0
   59.6040   30.9260   48.3430 O   0  0  0  0  0  0  0  0  0  0  0  0
   60.3830   29.7070   46.5030 N   0  0  0  0  0  0  0  0  0  0  0  0
   59.3140   28.7460   46.4670 C   0  0  0  0  0  0  0  0  0  0  0  0
   59.1780   27.7610   47.4610 C   0  0  0  0  0  0  0  0  0  0  0  0
   58.1150   26.8540   47.4180 C   0  0  0  0  0  0  0  0  0  0  0  0
   57.1610   26.9190   46.3870 C   0  0  0  0  0  0  0  0  0  0  0  0
   56.0350   25.9560   46.3420 C   0  0  0  0  0  0  0  0  0  0  0  0
   54.7810   26.3320   45.7780 N   0  0  0  0  0  0  0  0  0  0  0  0
   56.1770   24.7910   46.8020 O   0  0  0  0  0  0  0  0  0  0  0  0
   57.2870   27.9200   45.4070 C   0  0  0  0  0  0  0  0  0  0  0  0
   58.3490   28.8280   45.4540 C   0  0  0  0  0  0  0  0  0  0  0  0
   59.4222   34.1534   47.6341 H   0  0  0  0  0  0  0  0  0  0  0  0
   60.0203   34.8547   46.0923 H   0  0  0  0  0  0  0  0  0  0  0  0
   59.1914   33.2611   46.0923 H   0  0  0  0  0  0  0  0  0  0  0  0
   62.6416   34.8836   46.5224 H   0  0  0  0  0  0  0  0  0  0  0  0
   64.4315   32.9591   47.0193 H   0  0  0  0  0  0  0  0  0  0  0  0
   61.2280   29.5170   45.9180 H   0  0  0  0  0  0  0  0  0  0  0  0
   59.9127   27.7036   48.2777 H   0  0  0  0  0  0  0  0  0  0  0  0
   58.0241   26.0830   48.1973 H   0  0  0  0  0  0  0  0  0  0  0  0
   54.0310   26.7540   46.3690 H   0  0  0  0  0  0  0  0  0  0  0  0
   56.5448   27.9889   44.5980 H   0  0  0  0  0  0  0  0  0  0  0  0
   58.4279   29.6142   44.6887 H   0  0  0  0  0  0  0  0  0  0  0  0
  1  2  1  0
  2  3  1  0
  3  4  2  0
  4  5  1  0
  5  6  1  0
  6  7  1  0
  7  8  2  0
  7  9  1  0
  9 10  1  0
 10 11  2  0
 11 12  1  0
 12 13  2  0
 13 14  1  0
 14 15  1  0
 14 16  2  0
 13 17  1  0
 17 18  2  0
  6  2  2  0
 18 10  1  0
  1 19  1  0
  1 20  1  0
  1 21  1  0
  3 22  1  0
  4 23  1  0
  9 24  1  0
 11 25  1  0
 12 26  1  0
 15 27  1  0
 17 28  1  0
 18 29  1  0
M  CHG  1  15  -1
M  END
>  <UniqueID>  (2) 
2

>  <SMILES>  (2) 
Cc1ccoc1C(=O)Nc1ccc(C([NH-])=O)cc1

>  <Energy>  (2) 
58.38750304630899

>  <Genealogy>  (2) 
Cc1ccoc1C(=O)Nc1ccc(C([NH-])=O)cc1 (protonated)
Cc1ccoc1C(=O)Nc1ccc(C([NH-])=O)cc1 (3D coordinates assigned)
Cc1ccoc1C(=O)Nc1ccc(C([NH-])=O)cc1 (optimized conformer: 58.38750304630899 kcal/mol)

>  <smiles>  (2) 
Cc1ccoc1C(=O)Nc1ccc(C(N)=O)cc1

>  <score_type>  (2) 
oracle

>  <origin>  (2) 
adg

>  <m_score__min__energy>  (2) 
-9.2200000000000006

>  <m_primary>  (2) 
energy

$$$$
2:0
     RDKit          3D

 50 52  0  0  0  0  0  0  0  0999 V2000
   65.4410   32.2700   50.3160 C   0  0  0  0  0  0  0  0  0  0  0  0
   65.1430   33.1010   49.1990 O   0  0  0  0  0  0  0  0  0  0  0  0
   63.8450   33.3870   48.7490 C   0  0  0  0  0  0  0  0  0  0  0  0
   63.5230   33.4750   47.3820 C   0  0  0  0  0  0  0  0  0  0  0  0
   62.2130   33.7600   46.9830 C   0  0  0  0  0  0  0  0  0  0  0  0
   61.2010   33.9430   47.9390 C   0  0  0  0  0  0  0  0  0  0  0  0
   59.7780   34.2480   47.5130 C   0  0  0  0  0  0  0  0  0  0  0  0
   59.3600   33.5530   46.2740 N   0  0  0  0  0  0  0  0  0  0  0  0
   59.6080   32.0920   46.2690 C   0  0  0  0  0  0  0  0  0  0  0  0
   58.3010   31.2850   46.3520 C   0  0  0  0  0  0  0  0  0  0  0  0
   57.3660   31.6050   45.2430 N   0  0  0  0  0  0  0  0  0  0  0  0
   57.4350   30.5960   44.1650 C   0  0  0  0  0  0  0  0  0  0  0  0
   57.5590   29.2040   44.7400 C   0  0  0  0  0  0  0  0  0  0  0  0
   58.8360   28.6620   44.9510 C   0  0  0  0  0  0  0  0  0  0  0  0
   58.9820   27.3890   45.5030 C   0  0  0  0  0  0  0  0  0  0  0  0
   57.8570   26.6430   45.8550 C   0  0  0  0  0  0  0  0  0  0  0  0
   56.5660   27.1700   45.6570 C   0  0  0  0  0  0  0  0  0  0  0  0
   55.4070   26.4550   46.0010 O   0  0  0  0  0  0  0  0  0  0  0  0
   55.1710   25.0920   45.6640 C   0  0  0  0  0  0  0  0  0  0  0  0
   56.4230   28.4510   45.1010 C   0  0  0  0  0  0  0  0  0  0  0  0
   55.1450   28.9690   44.9160 O   0  0  0  0  0  0  0  0  0  0  0  0
   57.5310   32.9820   44.7080 C   0  0  0  0  0  0  0  0  0  0  0  0
   58.0190   33.9490   45.7910 C   0  0  0  0  0  0  0  0  0  0  0  0
   61.5340   33.8800   49.3020 C   0  0  0  0  0  0  0  0  0  0  0  0
   62.8420   33.5960   49.7010 C   0  0  0  0  0  0  0  0  0  0  0  0
   65.2431   32.8219   51.2467 H   0  0  0  0  0  0  0  0  0  0  0  0
   64.8096   31.3699   50.2821 H   0  0  0  0  0  0  0  0  0  0  0  0
   66.5005   31.9762   50.2821 H   0  0  0  0  0  0  0  0  0  0  0  0
   64.3047   33.3190   46.6240 H   0  0  0  0  0  0  0  0  0  0  0  0
   61.9738   33.8414   45.9124 H   0  0  0  0  0  0  0  0  0  0  0  0
   59.1009   33.9450   48.3252 H   0  0  0  0  0  0  0  0  0  0  0  0
   59.7317   35.3271   47.3047 H   0  0  0  0  0  0  0  0  0  0  0  0
   60.1324   31.8240   45.3399 H   0  0  0  0  0  0  0  0  0  0  0  0
   60.2148   31.8475   47.1533 H   0  0  0  0  0  0  0  0  0  0  0  0
   58.5445   30.2131   46.3104 H   0  0  0  0  0  0  0  0  0  0  0  0
   57.8034   31.5492   47.2968 H   0  0  0  0  0  0  0  0  0  0  0  0
   56.5203   30.6548   43.5569 H   0  0  0  0  0  0  0  0  0  0  0  0
   58.3204   30.8018   43.5456 H   0  0  0  0  0  0  0  0  0  0  0  0
   59.7284   29.2450   44.6792 H   0  0  0  0  0  0  0  0  0  0  0  0
   59.9876   26.9722   45.6612 H   0  0  0  0  0  0  0  0  0  0  0  0
   57.9787   25.6395   46.2888 H   0  0  0  0  0  0  0  0  0  0  0  0
   55.0683   24.4991   46.5848 H   0  0  0  0  0  0  0  0  0  0  0  0
   54.2462   25.0151   45.0734 H   0  0  0  0  0  0  0  0  0  0  0  0
   56.0161   24.7087   45.0734 H   0  0  0  0  0  0  0  0  0  0  0  0
   58.2653   32.9620   43.8892 H   0  0  0  0  0  0  0  0  0  0  0  0
   56.5526   33.3322   44.3473 H   0  0  0  0  0  0  0  0  0  0  0  0
   58.0706   34.9649   45.3724 H   0  0  0  0  0  0  0  0  0  0  0  0
   57.3146   33.9217   46.6355 H   0  0  0  0  0  0  0  0  0  0  0  0
   60.7581   34.0558   50.0617 H   0  0  0  0  0  0  0  0  0  0  0  0
   63.0851   33.5363   50.7721 H   0  0  0  0  0  0  0  0  0  0  0  0
  1  2  1  0
  2  3  1  0
  3  4  2  0
  4  5  1  0
  5  6  2  0
  6  7  1  0
  7  8  1  0
  8  9  1  0
  9 10  1  0
 10 11  1  0
 11 12  1  0
 12 13  1  0
 13 14  2  0
 14 15  1  0
 15 16  2  0
 16 17  1  0
 17 18  1  0
 18 19  1  0
 17 20  2  0
 20 21  1  0
 11 22  1  0
 22 23  1  0
  6 24  1  0
 24 25  2  0
 25  3  1  0
 23  8  1  0
 20 13  1  0
  1 26  1  0
  1 27  1  0
  1 28  1  0
  4 29  1  0
  5 30  1  0
  7 31  1  0
  7 32  1  0
  9 33  1  0
  9 34  1  0
 10 35  1  0
 10 36  1  0
 12 37  1  0
 12 38  1  0
 14 39  1  0
 15 40  1  0
 16 41  1  0
 19 42  1  0
 19 43  1  0
 19 44  1  0
 22 45  1  0
 22 46  1  0
 23 47  1  0
 23 48  1  0
 24 49  1  0
 25 50  1  0
M  CHG  1  21  -1
M  END
>  <UniqueID>  (3) 
3

>  <SMILES>  (3) 
COc1ccc(CN2CCN(Cc3cccc(OC)c3[O-])CC2)cc1

>  <Energy>  (3) 
66.49562109709926

>  <Genealogy>  (3) 
COc1ccc(CN2CCN(Cc3cccc(OC)c3[O-])CC2)cc1 (protonated)
COc1ccc(CN2CCN(Cc3cccc(OC)c3[O-])CC2)cc1 (3D coordinates assigned)
COc1ccc(CN2CCN(Cc3cccc(OC)c3[O-])CC2)cc1 (nonaromatic ring conformer: 66.49562109709926 kcal/mol)

>  <smiles>  (3) 
COc1ccc(CN2CCN(Cc3cccc(OC)c3O)CC2)cc1

>  <score_type>  (3) 
oracle

>  <origin>  (3) 
adg

>  <m_score__min__energy>  (3) 
-12.91

>  <m_primary>  (3) 
energy

$$$$
3:0
     RDKit          3D

 59 61  0  0  0  0  0  0  0  0999 V2000
   55.1720   23.9400   44.9500 C   0  0  0  0  0  0  0  0  0  0  0  0
   55.2580   25.3040   45.5660 C   0  0  0  0  0  0  0  0  0  0  0  0
   54.1980   25.9830   45.6600 O   0  0  0  0  0  0  0  0  0  0  0  0
   56.5380   25.8780   46.0600 C   0  0  0  0  0  0  0  0  0  0  0  0
   57.5090   25.0110   46.5910 C   0  0  0  0  0  0  0  0  0  0  0  0
   58.7190   25.5040   47.0830 C   0  0  0  0  0  0  0  0  0  0  0  0
   58.9930   26.8730   47.0490 C   0  0  0  0  0  0  0  0  0  0  0  0
   60.2200   27.3190   47.5630 O   0  0  0  0  0  0  0  0  0  0  0  0
   60.3600   28.3830   48.4990 C   0  0  0  0  0  0  0  0  0  0  0  0
   60.5540   29.7020   47.7490 C   0  0  0  0  0  0  0  0  0  0  0  0
   59.9370   29.6590   46.4760 O   0  0  0  0  0  0  0  0  0  0  0  0
   59.7710   30.9560   45.9270 C   0  0  0  0  0  0  0  0  0  0  0  0
   58.2840   31.1940   45.6470 C   0  0  0  0  0  0  0  0  0  0  0  0
   58.0530   32.3410   44.6530 C   0  0  0  0  0  0  0  0  0  0  0  0
   57.5880   33.5700   45.3400 N   0  0  0  0  0  0  0  0  0  0  0  0
   57.4530   33.4310   46.7970 C   0  0  0  0  0  0  0  0  0  0  0  0
   58.7960   33.2490   47.5230 C   0  0  0  0  0  0  0  0  0  0  0  0
   59.9510   33.9340   46.8980 N   0  0  0  0  0  0  0  0  0  0  0  0
   61.2610   33.8400   47.5420 C   0  0  0  0  0  0  0  0  0  0  0  0
   62.4200   33.4850   46.8060 C   0  0  0  0  0  0  0  0  0  0  0  0
   63.6700   33.4000   47.4260 C   0  0  0  0  0  0  0  0  0  0  0  0
   63.7980   33.6600   48.7880 C   0  0  0  0  0  0  0  0  0  0  0  0
   62.6750   34.0020   49.5370 C   0  0  0  0  0  0  0  0  0  0  0  0
   61.4210   34.0910   48.9280 C   0  0  0  0  0  0  0  0  0  0  0  0
   59.8550   34.5790   45.5700 C   0  0  0  0  0  0  0  0  0  0  0  0
   58.4240   34.7390   45.0450 C   0  0  0  0  0  0  0  0  0  0  0  0
   58.0380   27.7500   46.5060 C   0  0  0  0  0  0  0  0  0  0  0  0
   56.8200   27.2630   46.0060 C   0  0  0  0  0  0  0  0  0  0  0  0
   55.9110   28.1560   45.4400 O   0  0  0  0  0  0  0  0  0  0  0  0
   55.1242   23.1811   45.7448 H   0  0  0  0  0  0  0  0  0  0  0  0
   54.2680   23.8755   44.3266 H   0  0  0  0  0  0  0  0  0  0  0  0
   56.0607   23.7625   44.3266 H   0  0  0  0  0  0  0  0  0  0  0  0
   57.3126   23.9290   46.6192 H   0  0  0  0  0  0  0  0  0  0  0  0
   59.4622   24.8088   47.5006 H   0  0  0  0  0  0  0  0  0  0  0  0
   59.4550   28.4450   49.1212 H   0  0  0  0  0  0  0  0  0  0  0  0
   61.2341   28.1943   49.1395 H   0  0  0  0  0  0  0  0  0  0  0  0
   60.1090   30.5184   48.3367 H   0  0  0  0  0  0  0  0  0  0  0  0
   61.6322   29.8697   47.6096 H   0  0  0  0  0  0  0  0  0  0  0  0
   60.1365   31.7082   46.6416 H   0  0  0  0  0  0  0  0  0  0  0  0
   60.3427   31.0386   44.9909 H   0  0  0  0  0  0  0  0  0  0  0  0
   57.8509   30.2727   45.2304 H   0  0  0  0  0  0  0  0  0  0  0  0
   57.8035   31.4709   46.5970 H   0  0  0  0  0  0  0  0  0  0  0  0
   58.9972   32.5582   44.1321 H   0  0  0  0  0  0  0  0  0  0  0  0
   57.2754   32.0288   43.9403 H   0  0  0  0  0  0  0  0  0  0  0  0
   56.9650   34.3354   47.1893 H   0  0  0  0  0  0  0  0  0  0  0  0
   56.8598   32.5232   46.9817 H   0  0  0  0  0  0  0  0  0  0  0  0
   58.6843   33.6363   48.5465 H   0  0  0  0  0  0  0  0  0  0  0  0
   59.0212   32.1731   47.4811 H   0  0  0  0  0  0  0  0  0  0  0  0
   62.3340   33.2731   45.7300 H   0  0  0  0  0  0  0  0  0  0  0  0
   64.5566   33.1265   46.8352 H   0  0  0  0  0  0  0  0  0  0  0  0
   64.7841   33.5954   49.2712 H   0  0  0  0  0  0  0  0  0  0  0  0
   62.7759   34.2031   50.6137 H   0  0  0  0  0  0  0  0  0  0  0  0
   60.5433   34.3603   49.5339 H   0  0  0  0  0  0  0  0  0  0  0  0
   60.3096   35.5783   45.6394 H   0  0  0  0  0  0  0  0  0  0  0  0
   60.3767   33.9183   44.8620 H   0  0  0  0  0  0  0  0  0  0  0  0
   57.9719   35.6248   45.5151 H   0  0  0  0  0  0  0  0  0  0  0  0
   58.4771   34.8470   43.9516 H   0  0  0  0  0  0  0  0  0  0  0  0
   58.2473   28.8294   46.4725 H   0  0  0  0  0  0  0  0  0  0  0  0
   55.1190   27.8370   44.8940 H   0  0  0  0  0  0  0  0  0  0  0  0
  1  2  1  0
  2  3  2  0
  2  4  1  0
  4  5  2  0
  5  6  1  0
  6  7  2  0
  7  8  1  0
  8  9  1  0
  9 10  1  0
 10 11  1  0
 11 12  1  0
 12 13  1  0
 13 14  1  0
 14 15  1  0
 15 16  1  0
 16 17  1  0
 17 18  1  0
 18 19  1  0
 19 20  2  0
 20 21  1  0
 21 22  2  0
 22 23  1  0
 23 24  2  0
 18 25  1  0
 25 26  1  0
  7 27  1  0
 27 28  2  0
 28 29  1  0
 28  4  1  0
 26 15  1  0
 24 19  1  0
  1 30  1  0
  1 31  1  0
  1 32  1  0
  5 33  1  0
  6 34  1  0
  9 35  1  0
  9 36  1  0
 10 37  1  0
 10 38  1  0
 12 39  1  0
 12 40  1  0
 13 41  1  0
 13 42  1  0
 14 43  1  0
 14 44  1  0
 16 45  1  0
 16 46  1  0
 17 47  1  0
 17 48  1  0
 20 49  1  0
 21 50  1  0
 22 51  1  0
 23 52  1  0
 24 53  1  0
 25 54  1  0
 25 55  1  0
 26 56  1  0
 26 57  1  0
 27 58  1  0
 29 59  1  0
M  END
>  <UniqueID>  (4) 
4

>  <SMILES>  (4) 
CC(=O)c1ccc(OCCOCCCN2CCN(c3ccccc3)CC2)cc1O

>  <Energy>  (4) 
71.98786667341106

>  <Genealogy>  (4) 
CC(=O)c1ccc(OCCOCCCN2CCN(c3ccccc3)CC2)cc1O (3D coordinates assigned)
CC(=O)c1ccc(OCCOCCCN2CCN(c3ccccc3)CC2)cc1O (nonaromatic ring conformer: 71.98786667341106 kcal/mol)

>  <smiles>  (4) 
CC(=O)c1ccc(OCCOCCCN2CCN(c3ccccc3)CC2)cc1O

>  <score_type>  (4) 
oracle

>  <origin>  (4) 
adg

>  <m_score__min__energy>  (4) 
-8.8499999999999996

>  <m_primary>  (4) 
energy

$$$$
4:0
     RDKit          3D

 61 64  0  0  0  0  0  0  0  0999 V2000
   61.8330   26.0600   51.6150 C   0  0  0  0  0  0  0  0  0  0  0  0
   61.0150   26.2540   50.4660 O   0  0  0  0  0  0  0  0  0  0  0  0
   60.7320   27.5030   49.8950 C   0  0  0  0  0  0  0  0  0  0  0  0
   60.8900   28.6460   50.6860 C   0  0  0  0  0  0  0  0  0  0  0  0
   60.6110   29.9140   50.1680 C   0  0  0  0  0  0  0  0  0  0  0  0
   60.1810   30.0570   48.8400 C   0  0  0  0  0  0  0  0  0  0  0  0
   59.8700   31.3590   48.3090 N   0  0  0  0  0  0  0  0  0  0  0  0
   60.9110   32.1740   47.6710 C   0  0  0  0  0  0  0  0  0  0  0  0
   60.3950   32.8400   46.3740 C   0  0  0  0  0  0  0  0  0  0  0  0
   58.9230   32.7440   46.2270 N   0  0  0  0  0  0  0  0  0  0  0  0
   58.4630   33.6580   45.1950 C   0  0  0  0  0  0  0  0  0  0  0  0
   58.6590   34.8600   45.3210 O   0  0  0  0  0  0  0  0  0  0  0  0
   57.7460   33.1920   43.9420 C   0  0  0  0  0  0  0  0  0  0  0  0
   58.1810   31.9160   43.4720 O   0  0  0  0  0  0  0  0  0  0  0  0
   57.8670   30.6800   44.0600 C   0  0  0  0  0  0  0  0  0  0  0  0
   56.5400   30.2380   44.2380 C   0  0  0  0  0  0  0  0  0  0  0  0
   56.2820   29.0100   44.8560 C   0  0  0  0  0  0  0  0  0  0  0  0
   57.3400   28.2030   45.2940 C   0  0  0  0  0  0  0  0  0  0  0  0
   57.0190   26.6470   46.0610 S   0  0  0  0  0  0  0  0  0  0  0  0
   57.4180   26.7180   47.5080 O   0  0  0  0  0  0  0  0  0  0  0  0
   55.5530   26.3250   46.0080 O   0  0  0  0  0  0  0  0  0  0  0  0
   57.9660   25.4030   45.3050 N   0  0  0  0  0  0  0  0  0  0  0  0
   57.4920   24.2370   44.6100 C   0  0  0  0  0  0  0  0  0  0  0  0
   56.3610   24.2630   43.7730 C   0  0  0  0  0  0  0  0  0  0  0  0
   55.9440   23.1060   43.1140 C   0  0  0  0  0  0  0  0  0  0  0  0
   56.6440   21.9070   43.2940 C   0  0  0  0  0  0  0  0  0  0  0  0
   57.7680   21.8770   44.1130 C   0  0  0  0  0  0  0  0  0  0  0  0
   58.1880   23.0320   44.7750 C   0  0  0  0  0  0  0  0  0  0  0  0
   59.2820   22.9830   45.5740 F   0  0  0  0  0  0  0  0  0  0  0  0
   58.6610   28.6390   45.1080 C   0  0  0  0  0  0  0  0  0  0  0  0
   58.9200   29.8700   44.5010 C   0  0  0  0  0  0  0  0  0  0  0  0
   58.2390   33.0360   47.5050 C   0  0  0  0  0  0  0  0  0  0  0  0
   58.5360   31.9320   48.5290 C   0  0  0  0  0  0  0  0  0  0  0  0
   60.0240   28.9130   48.0430 C   0  0  0  0  0  0  0  0  0  0  0  0
   60.2950   27.6430   48.5650 C   0  0  0  0  0  0  0  0  0  0  0  0
   61.2293   26.2032   52.5233 H   0  0  0  0  0  0  0  0  0  0  0  0
   62.2436   25.0396   51.6047 H   0  0  0  0  0  0  0  0  0  0  0  0
   62.6581   26.7874   51.6047 H   0  0  0  0  0  0  0  0  0  0  0  0
   61.2369   28.5460   51.7251 H   0  0  0  0  0  0  0  0  0  0  0  0
   60.7291   30.8036   50.8042 H   0  0  0  0  0  0  0  0  0  0  0  0
   61.2307   32.9585   48.3727 H   0  0  0  0  0  0  0  0  0  0  0  0
   61.7524   31.5155   47.4093 H   0  0  0  0  0  0  0  0  0  0  0  0
   60.6786   33.9027   46.3875 H   0  0  0  0  0  0  0  0  0  0  0  0
   60.8487   32.3081   45.5247 H   0  0  0  0  0  0  0  0  0  0  0  0
   58.7010   31.7580   45.9600 H   0  0  0  0  0  0  0  0  0  0  0  0
   56.6694   33.1332   44.1597 H   0  0  0  0  0  0  0  0  0  0  0  0
   57.9754   33.9210   43.1508 H   0  0  0  0  0  0  0  0  0  0  0  0
   55.7038   30.8618   43.8893 H   0  0  0  0  0  0  0  0  0  0  0  0
   55.2436   28.6764   44.9987 H   0  0  0  0  0  0  0  0  0  0  0  0
   55.8025   25.2009   43.6375 H   0  0  0  0  0  0  0  0  0  0  0  0
   55.0652   23.1359   42.4530 H   0  0  0  0  0  0  0  0  0  0  0  0
   56.3058   20.9903   42.7887 H   0  0  0  0  0  0  0  0  0  0  0  0
   58.3284   20.9389   44.2395 H   0  0  0  0  0  0  0  0  0  0  0  0
   59.4974   28.0075   45.4423 H   0  0  0  0  0  0  0  0  0  0  0  0
   59.9592   30.2054   44.3685 H   0  0  0  0  0  0  0  0  0  0  0  0
   58.5959   34.0001   47.8962 H   0  0  0  0  0  0  0  0  0  0  0  0
   57.1540   33.0806   47.3296 H   0  0  0  0  0  0  0  0  0  0  0  0
   58.4896   32.3583   49.5420 H   0  0  0  0  0  0  0  0  0  0  0  0
   57.7873   31.1345   48.4134 H   0  0  0  0  0  0  0  0  0  0  0  0
   59.6858   29.0149   47.0013 H   0  0  0  0  0  0  0  0  0  0  0  0
   60.1659   26.7516   47.9335 H   0  0  0  0  0  0  0  0  0  0  0  0
  1  2  1  0
  2  3  1  0
  3  4  2  0
  4  5  1  0
  5  6  2  0
  6  7  1  0
  7  8  1  0
  8  9  1  0
  9 10  1  0
 10 11  1  0
 11 12  2  0
 11 13  1  0
 13 14  1  0
 14 15  1  0
 15 16  2  0
 16 17  1  0
 17 18  2  0
 18 19  1  0
 19 20  2  0
 19 21  2  0
 19 22  1  0
 22 23  1  0
 23 24  2  0
 24 25  1  0
 25 26  2  0
 26 27  1  0
 27 28  2  0
 28 29  1  0
 18 30  1  0
 30 31  2  0
 10 32  1  0
 32 33  1  0
  6 34  1  0
 34 35  2  0
 35  3  1  0
 33  7  1  0
 31 15  1  0
 28 23  1  0
  1 36  1  0
  1 37  1  0
  1 38  1  0
  4 39  1  0
  5 40  1  0
  8 41  1  0
  8 42  1  0
  9 43  1  0
  9 44  1  0
 10 45  1  0
 13 46  1  0
 13 47  1  0
 16 48  1  0
 17 49  1  0
 24 50  1  0
 25 51  1  0
 26 52  1  0
 27 53  1  0
 30 54  1  0
 31 55  1  0
 32 56  1  0
 32 57  1  0
 33 58  1  0
 33 59  1  0
 34 60  1  0
 35 61  1  0
M  CHG  2  10   1  22  -1
M  END
>  <UniqueID>  (5) 
5

>  <SMILES>  (5) 
COc1ccc(N2CC[NH+](C(=O)COc3ccc(S(=O)(=O)[N-]c4ccccc4F)cc3)CC2)cc1

>  <Energy>  (5) 
80.97183999755808

>  <Genealogy>  (5) 
COc1ccc(N2CC[NH+](C(=O)COc3ccc(S(=O)(=O)[N-]c4ccccc4F)cc3)CC2)cc1 (protonated)
COc1ccc(N2CC[NH+](C(=O)COc3ccc(S(=O)(=O)[N-]c4ccccc4F)cc3)CC2)cc1 (3D coordinates assigned)
COc1ccc(N2CC[NH+](C(=O)COc3ccc(S(=O)(=O)[N-]c4ccccc4F)cc3)CC2)cc1 (nonaromatic ring conformer: 80.97183999755808 kcal/mol)

>  <smiles>  (5) 
COc1ccc(N2CCN(C(=O)COc3ccc(S(=O)(=O)Nc4ccccc4F)cc3)CC2)cc1

>  <score_type>  (5) 
oracle

>  <origin>  (5) 
adg

>  <m_score__min__energy>  (5) 
-9.2799999999999994

>  <m_primary>  (5) 
energy

$$$$
5:0
     RDKit          3D

 63 67  0  0  1  0  0  0  0  0999 V2000
   57.3930   32.1120   41.1090 C   0  0  0  0  0  0  0  0  0  0  0  0
   57.7500   32.6790   42.4650 C   0  0  0  0  0  0  0  0  0  0  0  0
   57.7400   31.6470   43.4910 N   0  0  0  0  0  0  0  0  0  0  0  0
   57.3480   30.3600   43.3630 C   0  0  0  0  0  0  0  0  0  0  0  0
   57.5220   29.8170   44.5750 N   0  0  0  0  0  0  0  0  0  0  0  0
   57.9980   30.6980   45.4350 C   0  0  0  0  0  0  0  0  0  0  0  0
   58.3220   30.5830   46.7640 C   0  0  0  0  0  0  0  0  0  0  0  0
   58.1700   29.4730   47.3390 N   0  0  0  0  0  0  0  0  0  0  0  0
   59.0620   28.3790   47.4820 C   0  0  0  0  0  0  0  0  0  0  0  0
   58.5950   27.1900   46.6980 C   0  0  0  0  0  0  0  0  0  0  0  0
   59.4320   26.1070   46.4450 C   0  0  0  0  0  0  0  0  0  0  0  0
   59.0600   25.0040   45.7380 C   0  0  0  0  0  0  0  0  0  0  0  0
   57.7800   24.9220   45.2280 C   0  0  0  0  0  0  0  0  0  0  0  0
   57.4080   23.7330   44.4760 C   0  0  0  0  0  0  0  0  0  0  0  0
   58.1850   22.5940   44.4500 C   0  0  0  0  0  0  0  0  0  0  0  0
   57.8250   21.4700   43.7330 C   0  0  0  0  0  0  0  0  0  0  0  0
   56.6450   21.4860   43.0170 C   0  0  0  0  0  0  0  0  0  0  0  0
   55.8650   22.6000   43.0290 N   0  0  0  0  0  0  0  0  0  0  0  0
   56.2350   23.6970   43.7400 C   0  0  0  0  0  0  0  0  0  0  0  0
   56.9340   25.9770   45.4650 C   0  0  0  0  0  0  0  0  0  0  0  0
   57.3200   27.0940   46.1840 C   0  0  0  0  0  0  0  0  0  0  0  0
   58.7920   31.6860   47.3760 N   0  0  0  0  0  0  0  0  0  0  0  0
   58.9400   32.8520   46.7220 C   0  0  0  0  0  0  0  0  0  0  0  0
   59.3880   33.9220   47.2800 N   0  0  0  0  0  0  0  0  0  0  0  0
   60.7990   34.0730   47.5680 C   0  0  2  0  0  0  0  0  0  0  0  0
   61.6530   33.1930   46.6880 C   0  0  0  0  0  0  0  0  0  0  0  0
   62.4160   32.1420   47.4920 C   0  0  0  0  0  0  0  0  0  0  0  0
   63.3140   32.7640   48.5260 C   0  0  1  0  0  0  0  0  0  0  0  0
   64.4860   33.3190   47.8330 N   0  0  0  0  0  0  0  0  0  0  0  0
   62.5770   33.8800   49.2060 C   0  0  0  0  0  0  0  0  0  0  0  0
   61.0800   33.6450   49.0140 C   0  0  0  0  0  0  0  0  0  0  0  0
   58.6180   32.9630   45.4040 N   0  0  0  0  0  0  0  0  0  0  0  0
   58.1460   31.8780   44.7690 C   0  0  0  0  0  0  0  0  0  0  0  0
   56.8111   31.1877   41.2397 H   0  0  0  0  0  0  0  0  0  0  0  0
   56.7941   32.8465   40.5506 H   0  0  0  0  0  0  0  0  0  0  0  0
   58.3142   31.8894   40.5506 H   0  0  0  0  0  0  0  0  0  0  0  0
   58.7550   33.1233   42.4139 H   0  0  0  0  0  0  0  0  0  0  0  0
   57.0005   33.4390   42.7309 H   0  0  0  0  0  0  0  0  0  0  0  0
   56.9676   29.8646   42.4575 H   0  0  0  0  0  0  0  0  0  0  0  0
   60.0570   28.6782   47.1207 H   0  0  0  0  0  0  0  0  0  0  0  0
   59.1020   28.1001   48.5453 H   0  0  0  0  0  0  0  0  0  0  0  0
   60.4577   26.1443   46.8407 H   0  0  0  0  0  0  0  0  0  0  0  0
   59.7748   24.1840   45.5745 H   0  0  0  0  0  0  0  0  0  0  0  0
   59.1252   22.5803   45.0208 H   0  0  0  0  0  0  0  0  0  0  0  0
   58.4676   20.5772   43.7325 H   0  0  0  0  0  0  0  0  0  0  0  0
   56.3370   20.6019   42.4395 H   0  0  0  0  0  0  0  0  0  0  0  0
   55.5835   24.5833   43.7309 H   0  0  0  0  0  0  0  0  0  0  0  0
   55.9092   25.9323   45.0677 H   0  0  0  0  0  0  0  0  0  0  0  0
   56.6032   27.9124   46.3468 H   0  0  0  0  0  0  0  0  0  0  0  0
   59.0510   31.6550   48.3770 H   0  0  0  0  0  0  0  0  0  0  0  0
   61.0457   35.1305   47.3921 H   0  0  0  0  0  0  0  0  0  0  0  0
   61.0041   32.6816   45.9618 H   0  0  0  0  0  0  0  0  0  0  0  0
   62.3908   33.8338   46.1830 H   0  0  0  0  0  0  0  0  0  0  0  0
   61.6913   31.4878   47.9987 H   0  0  0  0  0  0  0  0  0  0  0  0
   63.0467   31.5726   46.7934 H   0  0  0  0  0  0  0  0  0  0  0  0
   63.6217   32.0160   49.2716 H   0  0  0  0  0  0  0  0  0  0  0  0
   65.3530   33.0550   48.3880 H   0  0  0  0  0  0  0  0  0  0  0  0
   64.5600   32.7190   46.9600 H   0  0  0  0  0  0  0  0  0  0  0  0
   62.8188   33.8874   50.2791 H   0  0  0  0  0  0  0  0  0  0  0  0
   62.8695   34.8488   48.7748 H   0  0  0  0  0  0  0  0  0  0  0  0
   60.8327   32.5830   49.1589 H   0  0  0  0  0  0  0  0  0  0  0  0
   60.4746   34.2086   49.7392 H   0  0  0  0  0  0  0  0  0  0  0  0
   58.7320   33.8580   44.9070 H   0  0  0  0  0  0  0  0  0  0  0  0
  1  2  1  0
  2  3  1  0
  3  4  1  0
  4  5  2  0
  5  6  1  0
  6  7  1  0
  7  8  2  0
  8  9  1  0
  9 10  1  0
 10 11  2  0
 11 12  1  0
 12 13  2  0
 13 14  1  0
 14 15  2  0
 15 16  1  0
 16 17  2  0
 17 18  1  0
 18 19  2  0
 13 20  1  0
 20 21  2  0
  7 22  1  0
 22 23  1  0
 23 24  2  0
 24 25  1  0
 25 26  1  0
 26 27  1  0
 27 28  1  0
 28 29  1  0
 28 30  1  0
 30 31  1  0
 23 32  1  0
 32 33  1  0
 33  3  1  0
 33  6  2  0
 21 10  1  0
 31 25  1  0
 19 14  1  0
  1 34  1  0
  1 35  1  0
  1 36  1  0
  2 37  1  0
  2 38  1  0
  4 39  1  0
  9 40  1  0
  9 41  1  0
 11 42  1  0
 12 43  1  0
 15 44  1  0
 16 45  1  0
 17 46  1  0
 19 47  1  0
 20 48  1  0
 21 49  1  0
 22 50  1  0
 25 51  1  1
 26 52  1  0
 26 53  1  0
 27 54  1  0
 27 55  1  0
 28 56  1  1
 29 57  1  0
 29 58  1  0
 30 59  1  0
 30 60  1  0
 31 61  1  0
 31 62  1  0
 32 63  1  0
M  END
>  <smiles>  (6) 
CCn1cnc2c(=NCc3ccc(-c4cccnc4)cc3)[nH]c(=NC3CCC(N)CC3)[nH]c21

>  <score_type>  (6) 
oracle

>  <origin>  (6) 
adg

>  <m_score__min__energy>  (6) 
-9.3499999999999996

>  <m_primary>  (6) 
energy

$$$$
6:0
     RDKit          3D

 32 33  0  0  0  0  0  0  0  0999 V2000
   57.0170   28.2180   45.2340 C   0  0  0  0  0  0  0  0  0  0  0  0
   56.8670   29.6740   45.4020 N   0  0  0  0  0  0  0  0  0  0  0  0
   58.0660   30.2170   46.0610 C   0  0  0  0  0  0  0  0  0  0  0  0
   56.6570   30.3410   44.0980 C   0  0  0  0  0  0  0  0  0  0  0  0
   57.9610   30.9450   43.5570 C   0  0  0  0  0  0  0  0  0  0  0  0
   57.7960   32.7280   43.1810 S   0  0  0  0  0  0  0  0  0  0  0  0
   58.3300   33.2860   44.7960 C   0  0  0  0  0  0  0  0  0  0  0  0
   59.5510   33.0670   45.3210 N   0  0  0  0  0  0  0  0  0  0  0  0
   59.6820   33.6340   46.5620 C   0  0  0  0  0  0  0  0  0  0  0  0
   60.9370   33.5180   47.3400 C   0  0  0  0  0  0  0  0  0  0  0  0
   60.9080   33.4760   48.7470 C   0  0  0  0  0  0  0  0  0  0  0  0
   62.0960   33.3660   49.4770 C   0  0  0  0  0  0  0  0  0  0  0  0
   63.3240   33.2970   48.8140 C   0  0  0  0  0  0  0  0  0  0  0  0
   64.8110   33.1590   49.7340 Cl  0  0  0  0  0  0  0  0  0  0  0  0
   63.3650   33.3370   47.4180 C   0  0  0  0  0  0  0  0  0  0  0  0
   62.1810   33.4470   46.6830 C   0  0  0  0  0  0  0  0  0  0  0  0
   58.6010   34.3120   47.0480 N   0  0  0  0  0  0  0  0  0  0  0  0
   57.4410   34.1880   45.8660 S   0  0  0  0  0  0  0  0  0  0  0  0
   57.0664   27.7380   46.2225 H   0  0  0  0  0  0  0  0  0  0  0  0
   56.1549   27.8224   44.6770 H   0  0  0  0  0  0  0  0  0  0  0  0
   57.9417   28.0065   44.6770 H   0  0  0  0  0  0  0  0  0  0  0  0
   57.9417   30.1607   47.1525 H   0  0  0  0  0  0  0  0  0  0  0  0
   58.9467   29.6299   45.7615 H   0  0  0  0  0  0  0  0  0  0  0  0
   58.2056   31.2662   45.7615 H   0  0  0  0  0  0  0  0  0  0  0  0
   56.2788   29.6025   43.3758 H   0  0  0  0  0  0  0  0  0  0  0  0
   55.9327   31.1565   44.2407 H   0  0  0  0  0  0  0  0  0  0  0  0
   58.7512   30.8140   44.3110 H   0  0  0  0  0  0  0  0  0  0  0  0
   58.2098   30.4249   42.6202 H   0  0  0  0  0  0  0  0  0  0  0  0
   59.9448   33.5300   49.2756 H   0  0  0  0  0  0  0  0  0  0  0  0
   62.0635   33.3337   50.5760 H   0  0  0  0  0  0  0  0  0  0  0  0
   64.3316   33.2818   46.8959 H   0  0  0  0  0  0  0  0  0  0  0  0
   62.2210   33.4783   45.5842 H   0  0  0  0  0  0  0  0  0  0  0  0
  1  2  1  0
  2  3  1  0
  2  4  1  0
  4  5  1  0
  5  6  1  0
  6  7  1  0
  7  8  2  0
  8  9  1  0
  9 10  1  0
 10 11  2  0
 11 12  1  0
 12 13  2  0
 13 14  1  0
 13 15  1  0
 15 16  2  0
  9 17  2  0
 17 18  1  0
 18  7  1  0
 16 10  1  0
  1 19  1  0
  1 20  1  0
  1 21  1  0
  3 22  1  0
  3 23  1  0
  3 24  1  0
  4 25  1  0
  4 26  1  0
  5 27  1  0
  5 28  1  0
 11 29  1  0
 12 30  1  0
 15 31  1  0
 16 32  1  0
M  END
>  <UniqueID>  (7) 
6

>  <SMILES>  (7) 
CN(C)CCSc1nc(-c2ccc(Cl)cc2)ns1

>  <Energy>  (7) 
65.31943836061188

>  <Genealogy>  (7) 
CN(C)CCSc1nc(-c2ccc(Cl)cc2)ns1 (3D coordinates assigned)
CN(C)CCSc1nc(-c2ccc(Cl)cc2)ns1 (optimized conformer: 65.31943836061188 kcal/mol)

>  <smiles>  (7) 
CN(C)CCSc1nc(-c2ccc(Cl)cc2)ns1

>  <score_type>  (7) 
oracle

>  <origin>  (7) 
adg

>  <m_score__min__energy>  (7) 
-6.7599999999999998

>  <m_primary>  (7) 
energy

$$$$
7:0
     RDKit          3D

 33 37  0  0  0  0  0  0  0  0999 V2000
   59.9990   25.8920   46.3210 C   0  0  0  0  0  0  0  0  0  0  0  0
   58.5080   25.8250   46.1750 C   0  0  0  0  0  0  0  0  0  0  0  0
   57.7400   27.0110   46.1800 C   0  0  0  0  0  0  0  0  0  0  0  0
   56.3470   26.9610   46.0060 C   0  0  0  0  0  0  0  0  0  0  0  0
   55.7460   25.7190   45.8170 C   0  0  0  0  0  0  0  0  0  0  0  0
   56.4890   24.5570   45.7970 C   0  0  0  0  0  0  0  0  0  0  0  0
   57.8750   24.5830   45.9650 C   0  0  0  0  0  0  0  0  0  0  0  0
   55.5990   23.3790   45.5590 C   0  0  1  0  0  0  0  0  0  0  0  0
   54.2680   24.0750   45.4940 C   0  0  0  0  0  0  0  0  0  0  0  0
   53.1700   23.4810   45.3250 O   0  0  0  0  0  0  0  0  0  0  0  0
   54.3570   25.4920   45.6340 N   0  0  0  0  0  0  0  0  0  0  0  0
   55.9290   22.7010   44.2430 C   0  0  0  0  0  0  0  0  0  0  0  0
   56.0030   23.1910   42.9570 C   0  0  0  0  0  0  0  0  0  0  0  0
   56.3560   22.1810   42.1280 N   0  0  0  0  0  0  0  0  0  0  0  0
   56.5120   21.0670   42.8340 N   0  0  0  0  0  0  0  0  0  0  0  0
   56.2560   21.3750   44.1150 C   0  0  0  0  0  0  0  0  0  0  0  0
   56.3130   20.4750   45.2260 N   0  0  0  0  0  0  0  0  0  0  0  0
   56.0040   21.0390   46.5050 C   0  0  0  0  0  0  0  0  0  0  0  0
   55.9870   20.4130   47.7290 C   0  0  0  0  0  0  0  0  0  0  0  0
   55.6520   21.3030   48.6900 N   0  0  0  0  0  0  0  0  0  0  0  0
   55.4620   22.4840   48.0570 C   0  0  0  0  0  0  0  0  0  0  0  0
   55.1040   23.6460   48.7320 O   0  0  0  0  0  0  0  0  0  0  0  0
   55.6700   22.3630   46.6910 C   0  0  0  0  0  0  0  0  0  0  0  0
   60.2627   25.9038   47.3889 H   0  0  0  0  0  0  0  0  0  0  0  0
   60.4543   25.0134   45.8406 H   0  0  0  0  0  0  0  0  0  0  0  0
   60.3737   26.8079   45.8406 H   0  0  0  0  0  0  0  0  0  0  0  0
   58.2373   27.9819   46.3214 H   0  0  0  0  0  0  0  0  0  0  0  0
   55.7449   27.8815   46.0187 H   0  0  0  0  0  0  0  0  0  0  0  0
   58.4613   23.6528   45.9341 H   0  0  0  0  0  0  0  0  0  0  0  0
   55.8076   24.2304   42.6545 H   0  0  0  0  0  0  0  0  0  0  0  0
   56.5670   19.4680   45.1090 H   0  0  0  0  0  0  0  0  0  0  0  0
   56.2117   19.3499   47.9003 H   0  0  0  0  0  0  0  0  0  0  0  0
   54.7740   24.4680   48.2430 H   0  0  0  0  0  0  0  0  0  0  0  0
  1  2  1  0
  2  3  2  0
  3  4  1  0
  4  5  2  0
  5  6  1  0
  6  7  2  0
  6  8  1  0
  8  9  1  6
  9 10  2  0
  9 11  1  0
  8 12  1  0
 12 13  1  0
 13 14  2  0
 14 15  1  0
 15 16  1  0
 16 17  1  0
 17 18  1  0
 18 19  2  0
 19 20  1  0
 20 21  1  0
 21 22  1  0
 21 23  2  0
  7  2  1  0
 23  8  1  0
 11  5  1  0
 16 12  2  0
 23 18  1  0
  1 24  1  0
  1 25  1  0
  1 26  1  0
  3 27  1  0
  4 28  1  0
  7 29  1  0
 13 30  1  0
 17 31  1  0
 19 32  1  0
 22 33  1  0
M  CHG  3  11  -1  15  -1  20  -1
M  END
>  <UniqueID>  (8) 
7

>  <SMILES>  (8) 
Cc1ccc2c(c1)[C@@]1(C(=O)[N-]2)c2cn[n-]c2Nc2c[n-]c(O)c21

>  <Energy>  (8) 
120.98140594044794

>  <Genealogy>  (8) 
Cc1ccc2c(c1)C1(C(=O)[N-]2)c2cn[n-]c2Nc2c[n-]c(O)c21 (protonated)
Cc1ccc2c(c1)[C@@]1(C(=O)[N-]2)c2cn[n-]c2Nc2c[n-]c(O)c21 (chirality)
Cc1ccc2c(c1)[C@@]1(C(=O)[N-]2)c2cn[n-]c2Nc2c[n-]c(O)c21 (3D coordinates assigned)
Cc1ccc2c(c1)[C@@]1(C(=O)[N-]2)c2cn[n-]c2Nc2c[n-]c(O)c21 (nonaromatic ring conformer: 120.98140594044794 kcal/mol)

>  <smiles>  (8) 
Cc1ccc2c(c1)C1(C(=O)N2)c2cn[nH]c2Nc2c[nH]c(O)c21

>  <score_type>  (8) 
oracle

>  <origin>  (8) 
adg

>  <m_score__min__energy>  (8) 
-10.85

>  <m_primary>  (8) 
energy

$$$$
8:0
     RDKit          3D

 36 37  0  0  0  0  0  0  0  0999 V2000
   56.4310   27.4570   45.6250 F   0  0  0  0  0  0  0  0  0  0  0  0
   57.3960   28.3770   45.8750 C   0  0  0  0  0  0  0  0  0  0  0  0
   58.1810   28.2700   47.0270 C   0  0  0  0  0  0  0  0  0  0  0  0
   59.1780   29.2160   47.2870 C   0  0  0  0  0  0  0  0  0  0  0  0
   59.3950   30.2780   46.3920 C   0  0  0  0  0  0  0  0  0  0  0  0
   60.4770   31.2950   46.6570 C   0  0  0  0  0  0  0  0  0  0  0  0
   60.5050   31.6680   48.0870 N   0  0  0  0  0  0  0  0  0  0  0  0
   61.8770   31.5680   48.6490 C   0  0  0  0  0  0  0  0  0  0  0  0
   62.9090   31.6480   47.5260 C   0  0  0  0  0  0  0  0  0  0  0  0
   63.3690   33.4890   47.1300 Br  0  0  0  0  0  0  0  0  0  0  0  0
   59.9230   33.0140   48.2990 C   0  0  0  0  0  0  0  0  0  0  0  0
   59.1290   33.4350   47.0910 C   0  0  0  0  0  0  0  0  0  0  0  0
   59.7200   34.2110   46.0800 C   0  0  0  0  0  0  0  0  0  0  0  0
   58.9640   34.6240   44.9790 C   0  0  0  0  0  0  0  0  0  0  0  0
   57.6160   34.2690   44.8820 C   0  0  0  0  0  0  0  0  0  0  0  0
   57.0210   33.5000   45.8860 C   0  0  0  0  0  0  0  0  0  0  0  0
   57.7730   33.0850   46.9890 C   0  0  0  0  0  0  0  0  0  0  0  0
   58.6010   30.3790   45.2380 C   0  0  0  0  0  0  0  0  0  0  0  0
   57.6060   29.4310   44.9820 C   0  0  0  0  0  0  0  0  0  0  0  0
   58.0143   27.4405   47.7300 H   0  0  0  0  0  0  0  0  0  0  0  0
   59.7939   29.1287   48.1942 H   0  0  0  0  0  0  0  0  0  0  0  0
   61.4509   30.8675   46.3763 H   0  0  0  0  0  0  0  0  0  0  0  0
   60.2692   32.1957   46.0607 H   0  0  0  0  0  0  0  0  0  0  0  0
   62.0424   32.3949   49.3553 H   0  0  0  0  0  0  0  0  0  0  0  0
   61.9844   30.6051   49.1699 H   0  0  0  0  0  0  0  0  0  0  0  0
   63.8172   31.1091   47.8338 H   0  0  0  0  0  0  0  0  0  0  0  0
   62.4772   31.1938   46.6220 H   0  0  0  0  0  0  0  0  0  0  0  0
   59.2616   32.9893   49.1776 H   0  0  0  0  0  0  0  0  0  0  0  0
   60.7377   33.7351   48.4614 H   0  0  0  0  0  0  0  0  0  0  0  0
   60.7802   34.4943   46.1549 H   0  0  0  0  0  0  0  0  0  0  0  0
   59.4309   35.2292   44.1880 H   0  0  0  0  0  0  0  0  0  0  0  0
   57.0228   34.5950   44.0149 H   0  0  0  0  0  0  0  0  0  0  0  0
   55.9598   33.2210   45.8082 H   0  0  0  0  0  0  0  0  0  0  0  0
   57.3011   32.4826   47.7792 H   0  0  0  0  0  0  0  0  0  0  0  0
   58.7627   31.2075   44.5327 H   0  0  0  0  0  0  0  0  0  0  0  0
   56.9875   29.5149   44.0762 H   0  0  0  0  0  0  0  0  0  0  0  0
  1  2  1  0
  2  3  2  0
  3  4  1  0
  4  5  2  0
  5  6  1  0
  6  7  1  0
  7  8  1  0
  8  9  1  0
  9 10  1  0
  7 11  1  0
 11 12  1  0
 12 13  2  0
 13 14  1  0
 14 15  2  0
 15 16  1  0
 16 17  2  0
  5 18  1  0
 18 19  2  0
 19  2  1  0
 17 12  1  0
  3 20  1  0
  4 21  1  0
  6 22  1  0
  6 23  1  0
  8 24  1  0
  8 25  1  0
  9 26  1  0
  9 27  1  0
 11 28  1  0
 11 29  1  0
 13 30  1  0
 14 31  1  0
 15 32  1  0
 16 33  1  0
 17 34  1  0
 18 35  1  0
 19 36  1  0
M  END
>  <UniqueID>  (9) 
8

>  <SMILES>  (9) 
Fc1ccc(CN(CCBr)Cc2ccccc2)cc1

>  <Energy>  (9) 
36.08453836259723

>  <Genealogy>  (9) 
Fc1ccc(CN(CCBr)Cc2ccccc2)cc1 (3D coordinates assigned)
Fc1ccc(CN(CCBr)Cc2ccccc2)cc1 (optimized conformer: 36.08453836259723 kcal/mol)

>  <smiles>  (9) 
Fc1ccc(CN(CCBr)Cc2ccccc2)cc1

>  <score_type>  (9) 
oracle

>  <origin>  (9) 
adg

>  <m_score__min__energy>  (9) 
-6.5199999999999996

>  <m_primary>  (9) 
energy

$$$$
9:0
     RDKit          3D

 65 69  0  0  0  0  0  0  0  0999 V2000
   67.0140   32.6260   50.1800 N   0  0  0  0  0  0  0  0  0  0  0  0
   65.9080   32.7170   49.8530 C   0  0  0  0  0  0  0  0  0  0  0  0
   64.5310   32.8290   49.4480 C   0  0  0  0  0  0  0  0  0  0  0  0
   64.0100   31.9550   48.4940 C   0  0  0  0  0  0  0  0  0  0  0  0
   62.6720   32.0600   48.0990 C   0  0  0  0  0  0  0  0  0  0  0  0
   61.8340   33.0840   48.6070 C   0  0  0  0  0  0  0  0  0  0  0  0
   60.3450   33.1840   48.1910 C   0  0  0  0  0  0  0  0  0  0  0  0
   59.3850   32.3060   49.4520 S   0  0  0  0  0  0  0  0  0  0  0  0
   59.5410   32.9720   50.7900 O   0  0  0  0  0  0  0  0  0  0  0  0
   57.9280   32.3410   49.0880 O   0  0  0  0  0  0  0  0  0  0  0  0
   59.8900   30.6200   49.5880 C   0  0  0  0  0  0  0  0  0  0  0  0
   59.3250   29.6390   48.7570 C   0  0  0  0  0  0  0  0  0  0  0  0
   59.7400   28.3070   48.8620 C   0  0  0  0  0  0  0  0  0  0  0  0
   60.7190   27.9470   49.7910 C   0  0  0  0  0  0  0  0  0  0  0  0
   61.1290   26.6550   49.8780 F   0  0  0  0  0  0  0  0  0  0  0  0
   61.2820   28.9200   50.6240 C   0  0  0  0  0  0  0  0  0  0  0  0
   60.8700   30.2530   50.5220 C   0  0  0  0  0  0  0  0  0  0  0  0
   59.8770   34.6810   48.1250 C   0  0  0  0  0  0  0  0  0  0  0  0
   58.7100   34.9000   47.1550 C   0  0  0  0  0  0  0  0  0  0  0  0
   59.0920   34.5680   45.7650 N   0  0  0  0  0  0  0  0  0  0  0  0
   57.9370   34.4310   44.8470 C   0  0  0  0  0  0  0  0  0  0  0  0
   57.7080   33.0150   44.3550 C   0  0  0  0  0  0  0  0  0  0  0  0
   57.7970   32.7090   42.9870 C   0  0  0  0  0  0  0  0  0  0  0  0
   57.6410   31.3920   42.5430 C   0  0  0  0  0  0  0  0  0  0  0  0
   57.3800   30.3700   43.4600 C   0  0  0  0  0  0  0  0  0  0  0  0
   57.2420   30.6590   44.8200 C   0  0  0  0  0  0  0  0  0  0  0  0
   57.0050   29.6030   45.7150 O   0  0  0  0  0  0  0  0  0  0  0  0
   57.8280   28.4790   45.8640 C   0  0  0  0  0  0  0  0  0  0  0  0
   59.1800   28.5740   45.5080 C   0  0  0  0  0  0  0  0  0  0  0  0
   60.0290   27.4750   45.6710 C   0  0  0  0  0  0  0  0  0  0  0  0
   59.5270   26.2710   46.1790 C   0  0  0  0  0  0  0  0  0  0  0  0
   58.1720   26.1610   46.5050 C   0  0  0  0  0  0  0  0  0  0  0  0
   57.3210   27.2580   46.3460 C   0  0  0  0  0  0  0  0  0  0  0  0
   57.3970   31.9870   45.2620 C   0  0  0  0  0  0  0  0  0  0  0  0
   60.1190   33.5070   45.6370 C   0  0  0  0  0  0  0  0  0  0  0  0
   60.0630   32.5080   46.7990 C   0  0  0  0  0  0  0  0  0  0  0  0
   62.3680   33.9020   49.6370 C   0  0  0  0  0  0  0  0  0  0  0  0
   63.7040   33.7880   50.0320 C   0  0  0  0  0  0  0  0  0  0  0  0
   64.6533   31.1806   48.0507 H   0  0  0  0  0  0  0  0  0  0  0  0
   62.2627   31.3343   47.3808 H   0  0  0  0  0  0  0  0  0  0  0  0
   58.5552   29.9182   48.0226 H   0  0  0  0  0  0  0  0  0  0  0  0
   59.2939   27.5408   48.2109 H   0  0  0  0  0  0  0  0  0  0  0  0
   62.0492   28.6366   51.3596 H   0  0  0  0  0  0  0  0  0  0  0  0
   61.3162   31.0161   51.1766 H   0  0  0  0  0  0  0  0  0  0  0  0
   59.5606   34.9943   49.1309 H   0  0  0  0  0  0  0  0  0  0  0  0
   60.7264   35.2761   47.7586 H   0  0  0  0  0  0  0  0  0  0  0  0
   57.8686   34.2592   47.4574 H   0  0  0  0  0  0  0  0  0  0  0  0
   58.4255   35.9620   47.1909 H   0  0  0  0  0  0  0  0  0  0  0  0
   57.0323   34.7643   45.3765 H   0  0  0  0  0  0  0  0  0  0  0  0
   58.1583   35.0449   43.9615 H   0  0  0  0  0  0  0  0  0  0  0  0
   57.9908   33.5111   42.2596 H   0  0  0  0  0  0  0  0  0  0  0  0
   57.7238   31.1602   41.4709 H   0  0  0  0  0  0  0  0  0  0  0  0
   57.2827   29.3321   43.1089 H   0  0  0  0  0  0  0  0  0  0  0  0
   59.5746   29.5159   45.0991 H   0  0  0  0  0  0  0  0  0  0  0  0
   61.0919   27.5566   45.3999 H   0  0  0  0  0  0  0  0  0  0  0  0
   60.1986   25.4116   46.3216 H   0  0  0  0  0  0  0  0  0  0  0  0
   57.7749   25.2091   46.8874 H   0  0  0  0  0  0  0  0  0  0  0  0
   56.2541   27.1670   46.5978 H   0  0  0  0  0  0  0  0  0  0  0  0
   57.2733   32.2227   46.3293 H   0  0  0  0  0  0  0  0  0  0  0  0
   59.9533   32.9646   44.6945 H   0  0  0  0  0  0  0  0  0  0  0  0
   61.1078   33.9887   45.6513 H   0  0  0  0  0  0  0  0  0  0  0  0
   59.0619   32.0529   46.8246 H   0  0  0  0  0  0  0  0  0  0  0  0
   60.8465   31.7548   46.6292 H   0  0  0  0  0  0  0  0  0  0  0  0
   61.7189   34.6386   50.1331 H   0  0  0  0  0  0  0  0  0  0  0  0
   64.1048   34.4578   50.8070 H   0  0  0  0  0  0  0  0  0  0  0  0
  1  2  3  0
  2  3  1  0
  3  4  2  0
  4  5  1  0
  5  6  2  0
  6  7  1  0
  7  8  1  0
  8  9  2  0
  8 10  2  0
  8 11  1  0
 11 12  2  0
 12 13  1  0
 13 14  2  0
 14 15  1  0
 14 16  1  0
 16 17  2  0
  7 18  1  0
 18 19  1  0
 19 20  1  0
 20 21  1  0
 21 22  1  0
 22 23  2  0
 23 24  1  0
 24 25  2  0
 25 26  1  0
 26 27  1  0
 27 28  1  0
 28 29  2  0
 29 30  1  0
 30 31  2  0
 31 32  1  0
 32 33  2  0
 26 34  2  0
 20 35  1  0
 35 36  1  0
  6 37  1  0
 37 38  2  0
 38  3  1  0
 36  7  1  0
 17 11  1  0
 34 22  1  0
 33 28  1  0
  4 39  1  0
  5 40  1  0
 12 41  1  0
 13 42  1  0
 16 43  1  0
 17 44  1  0
 18 45  1  0
 18 46  1  0
 19 47  1  0
 19 48  1  0
 21 49  1  0
 21 50  1  0
 23 51  1  0
 24 52  1  0
 25 53  1  0
 29 54  1  0
 30 55  1  0
 31 56  1  0
 32 57  1  0
 33 58  1  0
 34 59  1  0
 35 60  1  0
 35 61  1  0
 36 62  1  0
 36 63  1  0
 37 64  1  0
 38 65  1  0
M  END
>  <UniqueID>  (10) 
9

>  <SMILES>  (10) 
N#Cc1ccc(C2(S(=O)(=O)c3ccc(F)cc3)CCN(Cc3cccc(Oc4ccccc4)c3)CC2)cc1

>  <Energy>  (10) 
93.51399835141848

>  <Genealogy>  (10) 
N#Cc1ccc(C2(S(=O)(=O)c3ccc(F)cc3)CCN(Cc3cccc(Oc4ccccc4)c3)CC2)cc1 (3D coordinates assigned)
N#Cc1ccc(C2(S(=O)(=O)c3ccc(F)cc3)CCN(Cc3cccc(Oc4ccccc4)c3)CC2)cc1 (nonaromatic ring conformer: 93.51399835141848 kcal/mol)

>  <smiles>  (10) 
N#Cc1ccc(C2(S(=O)(=O)c3ccc(F)cc3)CCN(Cc3cccc(Oc4ccccc4)c3)CC2)cc1

>  <score_type>  (10) 
oracle

>  <origin>  (10) 
adg

>  <m_score__min__energy>  (10) 
-11.06

>  <m_primary>  (10) 
energy

$$$$
10:0
     RDKit          3D

 40 43  0  0  0  0  0  0  0  0999 V2000
   59.2741   35.3180   44.6856 H   0  0  0  0  0  0  0  0  0  0  0  0
   59.2300   34.6750   45.5770 C   0  0  0  0  0  0  0  0  0  0  0  0
   58.9300   33.3180   45.4420 C   0  0  0  0  0  0  0  0  0  0  0  0
   58.7318   32.9000   44.4440 H   0  0  0  0  0  0  0  0  0  0  0  0
   58.8790   32.4810   46.5710 C   0  0  0  0  0  0  0  0  0  0  0  0
   58.5510   31.0420   46.4080 C   0  0  0  0  0  0  0  0  0  0  0  0
   57.3940   30.6930   45.7860 N   0  0  0  0  0  0  0  0  0  0  0  0
   57.0150   29.3990   45.5850 C   0  0  0  0  0  0  0  0  0  0  0  0
   55.8910   29.1460   44.9790 N   0  0  0  0  0  0  0  0  0  0  0  0
   55.4780   29.7900   43.7350 C   0  0  0  0  0  0  0  0  0  0  0  0
   54.4063   29.8840   43.9644 H   0  0  0  0  0  0  0  0  0  0  0  0
   56.5310   30.7110   43.1480 C   0  0  0  0  0  0  0  0  0  0  0  0
   56.2277   31.6158   42.6010 H   0  0  0  0  0  0  0  0  0  0  0  0
   57.4069   31.2452   43.5448 H   0  0  0  0  0  0  0  0  0  0  0  0
   56.2920   29.3370   42.5390 C   0  0  0  0  0  0  0  0  0  0  0  0
   55.8160   29.2482   41.5513 H   0  0  0  0  0  0  0  0  0  0  0  0
   56.9238   28.4655   42.3126 H   0  0  0  0  0  0  0  0  0  0  0  0
   57.8540   28.3490   46.0340 C   0  0  0  0  0  0  0  0  0  0  0  0
   57.5550   26.9750   45.8760 C   0  0  0  0  0  0  0  0  0  0  0  0
   56.4840   26.6150   45.3100 O   0  0  0  0  0  0  0  0  0  0  0  0
   58.4280   26.0230   46.3350 N   0  0  0  0  0  0  0  0  0  0  0  0
   58.1180   24.5970   46.1700 C   0  0  0  0  0  0  0  0  0  0  0  0
   58.0159   24.1271   47.1593 H   0  0  0  0  0  0  0  0  0  0  0  0
   57.1753   24.4887   45.6135 H   0  0  0  0  0  0  0  0  0  0  0  0
   58.9306   24.1071   45.6135 H   0  0  0  0  0  0  0  0  0  0  0  0
   59.5910   26.3930   46.9450 C   0  0  0  0  0  0  0  0  0  0  0  0
   60.2846   25.6205   47.3085 H   0  0  0  0  0  0  0  0  0  0  0  0
   59.9010   27.7040   47.1080 N   0  0  0  0  0  0  0  0  0  0  0  0
   60.8020   27.9460   47.5810 H   0  0  0  0  0  0  0  0  0  0  0  0
   59.0660   28.6860   46.6740 C   0  0  0  0  0  0  0  0  0  0  0  0
   59.4140   30.0310   46.8550 C   0  0  0  0  0  0  0  0  0  0  0  0
   60.3623   30.2935   47.3468 H   0  0  0  0  0  0  0  0  0  0  0  0
   59.1140   33.0420   47.8430 C   0  0  0  0  0  0  0  0  0  0  0  0
   59.0624   32.4043   48.7378 H   0  0  0  0  0  0  0  0  0  0  0  0
   59.4130   34.4060   47.9780 C   0  0  0  0  0  0  0  0  0  0  0  0
   59.6490   34.9650   49.2720 N   0  0  0  0  0  0  0  0  0  0  0  0
   60.3830   34.5690   49.9010 H   0  0  0  0  0  0  0  0  0  0  0  0
   59.0930   35.7810   49.6120 H   0  0  0  0  0  0  0  0  0  0  0  0
   59.4740   35.2180   46.8390 C   0  0  0  0  0  0  0  0  0  0  0  0
   59.7149   36.2866   46.9393 H   0  0  0  0  0  0  0  0  0  0  0  0
  1  2  1  0
  2  3  2  0
  3  4  1  0
  3  5  1  0
  5  6  1  0
  6  7  1  0
  7  8  1  0
  8  9  2  0
  9 10  1  0
 10 11  1  0
 10 12  1  0
 12 13  1  0
 12 14  1  0
 12 15  1  0
 15 16  1  0
 15 17  1  0
  8 18  1  0
 18 19  1  0
 19 20  2  0
 19 21  1  0
 21 22  1  0
 22 23  1  0
 22 24  1  0
 22 25  1  0
 21 26  1  0
 26 27  1  0
 26 28  2  0
 28 29  1  0
 28 30  1  0
 30 31  1  0
 31 32  1  0
  5 33  2  0
 33 34  1  0
 33 35  1  0
 35 36  1  0
 36 37  1  0
 36 38  1  0
 35 39  2  0
 39 40  1  0
 39  2  1  0
 31  6  2  0
 15 10  1  0
 30 18  2  0
M  CHG  2   7  -1  28   1
M  END
>  <UniqueID>  (11) 
10

>  <SMILES>  (11) 
Cn1c[nH+]c2cc(-c3cccc(N)c3)[n-]/c(=N\C3CC3)c2c1=O

>  <Energy>  (11) 
319.14749823530576

>  <Genealogy>  (11) 
Cn1c[nH+]c2cc(-c3cccc(N)c3)[n-]c(=NC3CC3)c2c1=O (protonated)
Cn1c[nH+]c2cc(-c3cccc(N)c3)[n-]/c(=N\C3CC3)c2c1=O (cis-trans isomerization)
Cn1c[nH+]c2cc(-c3cccc(N)c3)[n-]/c(=N\C3CC3)c2c1=O (3D coordinates assigned)
Cn1c[nH+]c2cc(-c3cccc(N)c3)[n-]/c(=N\C3CC3)c2c1=O (nonaromatic ring conformer: 319.14749823530576 kcal/mol)

>  <smiles>  (11) 
Cn1cnc2cc(-c3cccc(N)c3)[nH]c(=NC3CC3)c2c1=O

>  <score_type>  (11) 
oracle

>  <origin>  (11) 
adg

>  <m_score__min__energy>  (11) 
-7.9100000000000001

>  <m_primary>  (11) 
energy

$$$$
11:0
     RDKit          3D

 50 52  0  0  0  0  0  0  0  0999 V2000
   59.2220   24.8670   45.9540 O   0  0  0  0  0  0  0  0  0  0  0  0
   58.6360   25.9230   46.3100 C   0  0  0  0  0  0  0  0  0  0  0  0
   57.4940   26.4390   45.4940 C   0  0  0  0  0  0  0  0  0  0  0  0
   57.0560   27.8170   45.9950 C   0  0  0  0  0  0  0  0  0  0  0  0
   55.8980   28.2980   45.2440 N   0  0  0  0  0  0  0  0  0  0  0  0
   55.8990   29.3940   44.3160 C   0  0  0  0  0  0  0  0  0  0  0  0
   55.0770   29.3790   43.3610 O   0  0  0  0  0  0  0  0  0  0  0  0
   56.8120   30.5440   44.4600 C   0  0  0  0  0  0  0  0  0  0  0  0
   57.0270   31.4050   43.3740 C   0  0  0  0  0  0  0  0  0  0  0  0
   57.8790   32.5040   43.5050 C   0  0  0  0  0  0  0  0  0  0  0  0
   58.5320   32.7590   44.7170 C   0  0  0  0  0  0  0  0  0  0  0  0
   59.3950   33.9020   44.8080 N   0  0  0  0  0  0  0  0  0  0  0  0
   59.7130   34.8010   46.2570 S   0  0  0  0  0  0  0  0  0  0  0  0
   60.0140   36.2300   45.9000 O   0  0  0  0  0  0  0  0  0  0  0  0
   58.4970   34.7660   47.1370 O   0  0  0  0  0  0  0  0  0  0  0  0
   61.1110   34.1190   47.0830 C   0  0  0  0  0  0  0  0  0  0  0  0
   62.2570   33.7490   46.3660 C   0  0  0  0  0  0  0  0  0  0  0  0
   63.3720   33.2410   47.0380 C   0  0  0  0  0  0  0  0  0  0  0  0
   63.3480   33.1000   48.4280 C   0  0  0  0  0  0  0  0  0  0  0  0
   62.2050   33.4670   49.1610 C   0  0  0  0  0  0  0  0  0  0  0  0
   62.1480   33.3230   50.6610 C   0  0  0  0  0  0  0  0  0  0  0  0
   63.1210   34.1180   51.2370 F   0  0  0  0  0  0  0  0  0  0  0  0
   62.3760   32.0050   51.0070 F   0  0  0  0  0  0  0  0  0  0  0  0
   60.9160   33.7030   51.1630 F   0  0  0  0  0  0  0  0  0  0  0  0
   61.0880   33.9720   48.4760 C   0  0  0  0  0  0  0  0  0  0  0  0
   58.3330   31.8840   45.8000 C   0  0  0  0  0  0  0  0  0  0  0  0
   57.4930   30.7760   45.6640 C   0  0  0  0  0  0  0  0  0  0  0  0
   59.1250   26.7130   47.4060 N   0  0  0  0  0  0  0  0  0  0  0  0
   59.7140   27.8810   47.3850 C   0  0  0  0  0  0  0  0  0  0  0  0
   59.8510   28.6980   48.5300 C   0  0  0  0  0  0  0  0  0  0  0  0
   60.4740   29.9430   48.4180 C   0  0  0  0  0  0  0  0  0  0  0  0
   60.9480   30.3760   47.1800 C   0  0  0  0  0  0  0  0  0  0  0  0
   60.7860   29.5560   46.0640 C   0  0  0  0  0  0  0  0  0  0  0  0
   60.1770   28.3450   46.1910 N   0  0  0  0  0  0  0  0  0  0  0  0
   57.8075   26.5190   44.4427 H   0  0  0  0  0  0  0  0  0  0  0  0
   56.6480   25.7420   45.5858 H   0  0  0  0  0  0  0  0  0  0  0  0
   56.7909   27.7460   47.0602 H   0  0  0  0  0  0  0  0  0  0  0  0
   57.8866   28.5241   45.8536 H   0  0  0  0  0  0  0  0  0  0  0  0
   56.5226   31.2140   42.4153 H   0  0  0  0  0  0  0  0  0  0  0  0
   58.0384   33.1752   42.6482 H   0  0  0  0  0  0  0  0  0  0  0  0
   62.2788   33.8587   45.2717 H   0  0  0  0  0  0  0  0  0  0  0  0
   64.2698   32.9517   46.4720 H   0  0  0  0  0  0  0  0  0  0  0  0
   64.2283   32.6996   48.9521 H   0  0  0  0  0  0  0  0  0  0  0  0
   60.1862   34.2549   49.0387 H   0  0  0  0  0  0  0  0  0  0  0  0
   58.8405   32.0727   46.7575 H   0  0  0  0  0  0  0  0  0  0  0  0
   57.3648   30.0809   46.5068 H   0  0  0  0  0  0  0  0  0  0  0  0
   59.4694   28.3556   49.5032 H   0  0  0  0  0  0  0  0  0  0  0  0
   60.5907   30.5817   49.3059 H   0  0  0  0  0  0  0  0  0  0  0  0
   61.4440   31.3532   47.0850 H   0  0  0  0  0  0  0  0  0  0  0  0
   61.1504   29.8877   45.0805 H   0  0  0  0  0  0  0  0  0  0  0  0
  1  2  2  0
  2  3  1  0
  3  4  1  0
  4  5  1  0
  5  6  1  0
  6  7  2  0
  6  8  1  0
  8  9  2  0
  9 10  1  0
 10 11  2  0
 11 12  1  0
 12 13  1  0
 13 14  2  0
 13 15  2  0
 13 16  1  0
 16 17  2  0
 17 18  1  0
 18 19  2  0
 19 20  1  0
 20 21  1  0
 21 22  1  0
 21 23  1  0
 21 24  1  0
 20 25  2  0
 11 26  1  0
 26 27  2  0
  2 28  1  0
 28 29  2  3
 29 30  1  0
 30 31  2  0
 31 32  1  0
 32 33  2  0
 33 34  1  0
 27  8  1  0
 34 29  1  0
 25 16  1  0
  3 35  1  0
  3 36  1  0
  4 37  1  0
  4 38  1  0
  9 39  1  0
 10 40  1  0
 17 41  1  0
 18 42  1  0
 19 43  1  0
 25 44  1  0
 26 45  1  0
 27 46  1  0
 30 47  1  0
 31 48  1  0
 32 49  1  0
 33 50  1  0
M  CHG  3   5  -1  12  -1  34  -1
M  END
>  <UniqueID>  (12) 
11

>  <SMILES>  (12) 
O=C(CC[N-]C(=O)c1ccc([N-]S(=O)(=O)c2cccc(C(F)(F)F)c2)cc1)N=c1cccc[n-]1

>  <Energy>  (12) 
64.56055399316415

>  <Genealogy>  (12) 
O=C(CC[N-]C(=O)c1ccc([N-]S(=O)(=O)c2cccc(C(F)(F)F)c2)cc1)N=c1cccc[n-]1 (protonated)
O=C(CC[N-]C(=O)c1ccc([N-]S(=O)(=O)c2cccc(C(F)(F)F)c2)cc1)N=c1cccc[n-]1 (3D coordinates assigned)
O=C(CC[N-]C(=O)c1ccc([N-]S(=O)(=O)c2cccc(C(F)(F)F)c2)cc1)N=c1cccc[n-]1 (optimized conformer: 64.56055399316415 kcal/mol)

>  <smiles>  (12) 
O=C(CCNC(=O)c1ccc(NS(=O)(=O)c2cccc(C(F)(F)F)c2)cc1)N=c1cccc[nH]1

>  <score_type>  (12) 
oracle

>  <origin>  (12) 
adg

>  <m_score__min__energy>  (12) 
-13.199999999999999

>  <m_primary>  (12) 
energy

$$$$
12:0
     RDKit          3D

 63 66  0  0  0  0  0  0  0  0999 V2000
   57.1510   33.8800   44.8720 C   0  0  0  0  0  0  0  0  0  0  0  0
   57.6030   34.4460   46.0970 O   0  0  0  0  0  0  0  0  0  0  0  0
   58.8860   34.2520   46.6340 C   0  0  0  0  0  0  0  0  0  0  0  0
   59.2730   34.7900   47.8760 C   0  0  0  0  0  0  0  0  0  0  0  0
   60.5650   34.5760   48.3640 C   0  0  0  0  0  0  0  0  0  0  0  0
   61.4840   33.8220   47.6230 C   0  0  0  0  0  0  0  0  0  0  0  0
   63.1090   33.5680   48.2540 S   0  0  0  0  0  0  0  0  0  0  0  0
   64.1280   33.7260   47.1580 O   0  0  0  0  0  0  0  0  0  0  0  0
   63.3810   34.5960   49.3160 O   0  0  0  0  0  0  0  0  0  0  0  0
   63.2340   31.9800   48.9460 N   0  0  0  0  0  0  0  0  0  0  0  0
   62.2160   31.8100   49.9860 C   0  0  0  0  0  0  0  0  0  0  0  0
   60.8330   31.6290   49.3480 C   0  0  1  0  0  0  0  0  0  0  0  0
   60.7930   30.4420   48.3430 C   0  0  0  0  0  0  0  0  0  0  0  0
   59.6880   29.5970   48.7860 N   0  0  0  0  0  0  0  0  0  0  0  0
   59.1730   28.4460   48.0860 C   0  0  0  0  0  0  0  0  0  0  0  0
   59.6990   27.1630   48.3230 C   0  0  0  0  0  0  0  0  0  0  0  0
   59.1950   26.0520   47.6400 C   0  0  0  0  0  0  0  0  0  0  0  0
   58.1530   26.2010   46.7160 C   0  0  0  0  0  0  0  0  0  0  0  0
   57.6480   25.0580   46.0080 N   0  0  0  0  0  0  0  0  0  0  0  0
   57.8450   24.9380   44.5610 C   0  0  0  0  0  0  0  0  0  0  0  0
   56.6210   24.2570   43.9360 C   0  0  0  0  0  0  0  0  0  0  0  0
   56.2770   22.9610   44.5750 N   0  0  0  0  0  0  0  0  0  0  0  0
   56.5630   21.6180   43.4890 S   0  0  0  0  0  0  0  0  0  0  0  0
   58.3070   21.2990   43.2810 C   0  0  0  0  0  0  0  0  0  0  0  0
   55.9040   20.3800   44.0320 O   0  0  0  0  0  0  0  0  0  0  0  0
   55.9630   21.9340   42.1470 O   0  0  0  0  0  0  0  0  0  0  0  0
   56.9280   22.7050   45.8780 C   0  0  0  0  0  0  0  0  0  0  0  0
   56.9940   23.9700   46.7420 C   0  0  0  0  0  0  0  0  0  0  0  0
   57.6090   27.4740   46.4910 C   0  0  0  0  0  0  0  0  0  0  0  0
   56.5780   27.6360   45.6230 F   0  0  0  0  0  0  0  0  0  0  0  0
   58.1130   28.5870   47.1740 C   0  0  0  0  0  0  0  0  0  0  0  0
   59.2140   30.1480   50.0020 C   0  0  0  0  0  0  0  0  0  0  0  0
   58.3450   29.6070   50.7340 O   0  0  0  0  0  0  0  0  0  0  0  0
   59.8650   31.3090   50.3430 O   0  0  0  0  0  0  0  0  0  0  0  0
   61.0980   33.2800   46.3900 C   0  0  0  0  0  0  0  0  0  0  0  0
   59.8070   33.4960   45.9000 C   0  0  0  0  0  0  0  0  0  0  0  0
   56.4775   33.0366   45.0842 H   0  0  0  0  0  0  0  0  0  0  0  0
   56.6113   34.6434   44.2925 H   0  0  0  0  0  0  0  0  0  0  0  0
   58.0149   33.5225   44.2925 H   0  0  0  0  0  0  0  0  0  0  0  0
   58.5558   35.3810   48.4646 H   0  0  0  0  0  0  0  0  0  0  0  0
   60.8615   35.0015   49.3341 H   0  0  0  0  0  0  0  0  0  0  0  0
   63.0280   31.3040   48.1730 H   0  0  0  0  0  0  0  0  0  0  0  0
   62.4571   30.9221   50.5890 H   0  0  0  0  0  0  0  0  0  0  0  0
   62.2024   32.7052   50.6251 H   0  0  0  0  0  0  0  0  0  0  0  0
   60.6184   32.5788   48.8363 H   0  0  0  0  0  0  0  0  0  0  0  0
   60.6121   30.8082   47.3216 H   0  0  0  0  0  0  0  0  0  0  0  0
   61.7454   29.8921   48.3208 H   0  0  0  0  0  0  0  0  0  0  0  0
   60.5131   27.0328   49.0513 H   0  0  0  0  0  0  0  0  0  0  0  0
   59.6193   25.0550   47.8294 H   0  0  0  0  0  0  0  0  0  0  0  0
   57.9715   25.9392   44.1234 H   0  0  0  0  0  0  0  0  0  0  0  0
   58.7434   24.3356   44.3608 H   0  0  0  0  0  0  0  0  0  0  0  0
   55.7587   24.9331   44.0323 H   0  0  0  0  0  0  0  0  0  0  0  0
   56.8681   24.0456   42.8851 H   0  0  0  0  0  0  0  0  0  0  0  0
   58.7841   21.2117   44.2683 H   0  0  0  0  0  0  0  0  0  0  0  0
   58.4442   20.3609   42.7233 H   0  0  0  0  0  0  0  0  0  0  0  0
   58.7674   22.1278   42.7233 H   0  0  0  0  0  0  0  0  0  0  0  0
   56.3553   21.9358   46.4167 H   0  0  0  0  0  0  0  0  0  0  0  0
   57.9577   22.3698   45.6848 H   0  0  0  0  0  0  0  0  0  0  0  0
   55.9731   24.2778   47.0123 H   0  0  0  0  0  0  0  0  0  0  0  0
   57.5763   23.7518   47.6494 H   0  0  0  0  0  0  0  0  0  0  0  0
   57.6757   29.5804   46.9954 H   0  0  0  0  0  0  0  0  0  0  0  0
   61.8133   32.6825   45.8057 H   0  0  0  0  0  0  0  0  0  0  0  0
   59.5126   33.0686   44.9301 H   0  0  0  0  0  0  0  0  0  0  0  0
  1  2  1  0
  2  3  1  0
  3  4  2  0
  4  5  1  0
  5  6  2  0
  6  7  1  0
  7  8  2  0
  7  9  2  0
  7 10  1  0
 10 11  1  0
 11 12  1  0
 12 13  1  0
 13 14  1  0
 14 15  1  0
 15 16  2  0
 16 17  1  0
 17 18  2  0
 18 19  1  0
 19 20  1  0
 20 21  1  0
 21 22  1  0
 22 23  1  0
 23 24  1  0
 23 25  2  0
 23 26  2  0
 22 27  1  0
 27 28  1  0
 18 29  1  0
 29 30  1  0
 29 31  2  0
 14 32  1  0
 32 33  2  0
 32 34  1  0
  6 35  1  0
 35 36  2  0
 36  3  1  0
 34 12  1  0
 31 15  1  0
 28 19  1  0
  1 37  1  0
  1 38  1  0
  1 39  1  0
  4 40  1  0
  5 41  1  0
 10 42  1  0
 11 43  1  0
 11 44  1  0
 12 45  1  6
 13 46  1  0
 13 47  1  0
 16 48  1  0
 17 49  1  0
 20 50  1  0
 20 51  1  0
 21 52  1  0
 21 53  1  0
 24 54  1  0
 24 55  1  0
 24 56  1  0
 27 57  1  0
 27 58  1  0
 28 59  1  0
 28 60  1  0
 31 61  1  0
 35 62  1  0
 36 63  1  0
M  END
>  <UniqueID>  (13) 
12

>  <SMILES>  (13) 
COc1ccc(S(=O)(=O)NC[C@H]2CN(c3ccc(N4CCN(S(C)(=O)=O)CC4)c(F)c3)C(=O)O2)cc1

>  <Energy>  (13) 
85.90902431084251

>  <Genealogy>  (13) 
COc1ccc(S(=O)(=O)NC[C@H]2CN(c3ccc(N4CCN(S(C)(=O)=O)CC4)c(F)c3)C(=O)O2)cc1 (chirality)
COc1ccc(S(=O)(=O)NC[C@H]2CN(c3ccc(N4CCN(S(C)(=O)=O)CC4)c(F)c3)C(=O)O2)cc1 (3D coordinates assigned)
COc1ccc(S(=O)(=O)NC[C@H]2CN(c3ccc(N4CCN(S(C)(=O)=O)CC4)c(F)c3)C(=O)O2)cc1 (nonaromatic ring conformer: 85.90902431084251 kcal/mol)

>  <smiles>  (13) 
COc1ccc(S(=O)(=O)NCC2CN(c3ccc(N4CCN(S(C)(=O)=O)CC4)c(F)c3)C(=O)O2)cc1

>  <score_type>  (13) 
oracle

>  <origin>  (13) 
adg

>  <m_score__min__energy>  (13) 
-8.7300000000000004

>  <m_primary>  (13) 
energy

$$$$
13:0
     RDKit          3D

 51 54  0  0  0  0  0  0  0  0999 V2000
   63.4636   30.7788   47.7916 H   0  0  0  0  0  0  0  0  0  0  0  0
   62.8050   31.2670   48.5250 C   0  0  0  0  0  0  0  0  0  0  0  0
   61.6630   30.6950   48.7810 N   0  0  0  0  0  0  0  0  0  0  0  0
   60.6900   30.2410   47.8350 C   0  0  0  0  0  0  0  0  0  0  0  0
   60.8640   30.4170   46.4520 C   0  0  0  0  0  0  0  0  0  0  0  0
   61.7998   30.8470   46.0654 H   0  0  0  0  0  0  0  0  0  0  0  0
   59.8490   30.0460   45.5690 C   0  0  0  0  0  0  0  0  0  0  0  0
   59.9740   30.2116   44.4887 H   0  0  0  0  0  0  0  0  0  0  0  0
   58.6710   29.4630   46.0550 C   0  0  0  0  0  0  0  0  0  0  0  0
   57.3090   29.2030   44.9730 S   0  0  0  0  0  0  0  0  0  0  0  0
   57.7830   28.8170   43.6000 O   0  0  0  0  0  0  0  0  0  0  0  0
   56.5250   30.4780   44.8680 O   0  0  0  0  0  0  0  0  0  0  0  0
   56.2840   27.9540   45.6100 N   0  0  0  0  0  0  0  0  0  0  0  0
   56.6990   26.7760   45.9600 C   0  0  0  0  0  0  0  0  0  0  0  0
   55.8270   25.8250   46.3840 N   0  0  0  0  0  0  0  0  0  0  0  0
   56.2420   24.5780   46.7200 C   0  0  0  0  0  0  0  0  0  0  0  0
   55.2500   23.5800   47.2220 C   0  0  0  0  0  0  0  0  0  0  0  0
   55.2522   23.5822   48.3220 H   0  0  0  0  0  0  0  0  0  0  0  0
   54.2467   23.8447   46.8568 H   0  0  0  0  0  0  0  0  0  0  0  0
   55.5207   22.5783   46.8568 H   0  0  0  0  0  0  0  0  0  0  0  0
   57.6020   24.2690   46.6550 C   0  0  0  0  0  0  0  0  0  0  0  0
   57.9660   23.2705   46.9387 H   0  0  0  0  0  0  0  0  0  0  0  0
   58.4870   25.2530   46.2230 C   0  0  0  0  0  0  0  0  0  0  0  0
   59.5626   25.0335   46.1533 H   0  0  0  0  0  0  0  0  0  0  0  0
   58.0220   26.4830   45.8880 N   0  0  0  0  0  0  0  0  0  0  0  0
   58.5430   29.1980   47.4250 C   0  0  0  0  0  0  0  0  0  0  0  0
   57.6473   28.6842   47.8040 H   0  0  0  0  0  0  0  0  0  0  0  0
   59.5500   29.5850   48.3080 C   0  0  0  0  0  0  0  0  0  0  0  0
   59.4469   29.3730   49.3824 H   0  0  0  0  0  0  0  0  0  0  0  0
   63.2940   32.5450   49.1550 C   0  0  0  0  0  0  0  0  0  0  0  0
   63.5625   32.3313   50.2001 H   0  0  0  0  0  0  0  0  0  0  0  0
   64.1482   32.8834   48.5501 H   0  0  0  0  0  0  0  0  0  0  0  0
   62.2940   33.6710   49.1480 C   0  0  0  0  0  0  0  0  0  0  0  0
   62.5500   34.6990   49.8290 O   0  0  0  0  0  0  0  0  0  0  0  0
   60.9900   33.5840   48.4460 C   0  0  0  0  0  0  0  0  0  0  0  0
   59.8560   33.1700   49.1570 C   0  0  0  0  0  0  0  0  0  0  0  0
   59.9537   32.8976   50.2182 H   0  0  0  0  0  0  0  0  0  0  0  0
   58.6060   33.0970   48.5440 C   0  0  0  0  0  0  0  0  0  0  0  0
   57.7292   32.7652   49.1194 H   0  0  0  0  0  0  0  0  0  0  0  0
   58.4680   33.4460   47.1970 C   0  0  0  0  0  0  0  0  0  0  0  0
   57.2140   33.3980   46.5720 C   0  0  0  0  0  0  0  0  0  0  0  0
   56.3317   33.0627   47.1369 H   0  0  0  0  0  0  0  0  0  0  0  0
   57.0830   33.7740   45.2370 C   0  0  0  0  0  0  0  0  0  0  0  0
   56.0954   33.7418   44.7537 H   0  0  0  0  0  0  0  0  0  0  0  0
   58.2030   34.1930   44.5070 C   0  0  0  0  0  0  0  0  0  0  0  0
   58.0918   34.4874   43.4530 H   0  0  0  0  0  0  0  0  0  0  0  0
   59.4590   34.2380   45.1130 C   0  0  0  0  0  0  0  0  0  0  0  0
   60.3366   34.5665   44.5370 H   0  0  0  0  0  0  0  0  0  0  0  0
   59.6020   33.8630   46.4610 C   0  0  0  0  0  0  0  0  0  0  0  0
   60.8570   33.9160   47.0840 C   0  0  0  0  0  0  0  0  0  0  0  0
   61.7425   34.2186   46.5057 H   0  0  0  0  0  0  0  0  0  0  0  0
  1  2  1  0
  2  3  2  3
  3  4  1  0
  4  5  2  0
  5  6  1  0
  5  7  1  0
  7  8  1  0
  7  9  2  0
  9 10  1  0
 10 11  2  0
 10 12  2  0
 10 13  1  0
 13 14  2  0
 14 15  1  0
 15 16  2  0
 16 17  1  0
 17 18  1  0
 17 19  1  0
 17 20  1  0
 16 21  1  0
 21 22  1  0
 21 23  2  0
 23 24  1  0
 23 25  1  0
  9 26  1  0
 26 27  1  0
 26 28  2  0
 28 29  1  0
  2 30  1  0
 30 31  1  0
 30 32  1  0
 30 33  1  0
 33 34  2  0
 33 35  1  0
 35 36  2  0
 36 37  1  0
 36 38  1  0
 38 39  1  0
 38 40  2  0
 40 41  1  0
 41 42  1  0
 41 43  2  0
 43 44  1  0
 43 45  1  0
 45 46  1  0
 45 47  2  0
 47 48  1  0
 47 49  1  0
 49 50  2  0
 50 51  1  0
 28  4  1  0
 50 35  1  0
 25 14  1  0
 49 40  1  0
M  CHG  1  25  -1
M  END
>  <UniqueID>  (14) 
13

>  <SMILES>  (14) 
Cc1cc[n-]/c(=N/S(=O)(=O)c2ccc(N=CCC(=O)c3ccc4ccccc4c3)cc2)n1

>  <Energy>  (14) 
67.49892101973715

>  <Genealogy>  (14) 
Cc1cc[n-]c(=NS(=O)(=O)c2ccc(N=CCC(=O)c3ccc4ccccc4c3)cc2)n1 (protonated)
Cc1cc[n-]/c(=N/S(=O)(=O)c2ccc(N=CCC(=O)c3ccc4ccccc4c3)cc2)n1 (cis-trans isomerization)
Cc1cc[n-]/c(=N/S(=O)(=O)c2ccc(N=CCC(=O)c3ccc4ccccc4c3)cc2)n1 (3D coordinates assigned)
Cc1cc[n-]/c(=N/S(=O)(=O)c2ccc(N=CCC(=O)c3ccc4ccccc4c3)cc2)n1 (optimized conformer: 67.49892101973715 kcal/mol)

>  <smiles>  (14) 
Cc1cc[nH]c(=NS(=O)(=O)c2ccc(N=CCC(=O)c3ccc4ccccc4c3)cc2)n1

>  <score_type>  (14) 
oracle

>  <origin>  (14) 
adg

>  <m_score__min__energy>  (14) 
-11.859999999999999

>  <m_primary>  (14) 
energy

$$$$
14:0
     RDKit          3D

 47 50  0  0  0  0  0  0  0  0999 V2000
   56.7000   31.9720   52.3680 C   0  0  0  0  0  0  0  0  0  0  0  0
   57.5990   32.9410   51.8380 O   0  0  0  0  0  0  0  0  0  0  0  0
   58.6180   32.6570   50.9170 C   0  0  0  0  0  0  0  0  0  0  0  0
   58.6010   31.4180   50.2690 C   0  0  0  0  0  0  0  0  0  0  0  0
   59.5910   31.0880   49.3400 C   0  0  0  0  0  0  0  0  0  0  0  0
   60.6260   31.9930   49.0390 C   0  0  0  0  0  0  0  0  0  0  0  0
   61.6090   31.6510   48.0190 N   0  0  2  0  0  0  0  0  0  0  0  0
   62.9390   31.9080   48.4960 C   0  0  0  0  0  0  0  0  0  0  0  0
   63.4440   31.2120   49.3650 O   0  0  0  0  0  0  0  0  0  0  0  0
   63.6880   33.0450   47.8980 C   0  0  0  0  0  0  0  0  0  0  0  0
   62.5380   33.8860   46.7800 S   0  0  0  0  0  0  0  0  0  0  0  0
   61.4590   32.4070   46.7520 C   0  0  2  0  0  0  0  0  0  0  0  0
   60.0130   32.7060   46.3780 C   0  0  0  0  0  0  0  0  0  0  0  0
   59.4500   33.9880   46.5320 C   0  0  0  0  0  0  0  0  0  0  0  0
   58.1090   34.2130   46.2170 C   0  0  0  0  0  0  0  0  0  0  0  0
   57.3070   33.1630   45.7680 C   0  0  0  0  0  0  0  0  0  0  0  0
   57.8330   31.8740   45.6510 C   0  0  0  0  0  0  0  0  0  0  0  0
   56.9960   30.8410   45.2030 O   0  0  0  0  0  0  0  0  0  0  0  0
   57.3990   29.5150   44.9830 C   0  0  0  0  0  0  0  0  0  0  0  0
   57.7650   28.6650   46.0430 C   0  0  0  0  0  0  0  0  0  0  0  0
   58.1500   27.3460   45.7870 C   0  0  0  0  0  0  0  0  0  0  0  0
   58.1600   26.8630   44.4750 C   0  0  0  0  0  0  0  0  0  0  0  0
   57.7770   27.6960   43.4200 C   0  0  0  0  0  0  0  0  0  0  0  0
   57.3920   29.0160   43.6750 C   0  0  0  0  0  0  0  0  0  0  0  0
   59.1900   31.6510   45.9460 C   0  0  0  0  0  0  0  0  0  0  0  0
   60.6400   33.2420   49.6980 C   0  0  0  0  0  0  0  0  0  0  0  0
   59.6490   33.5680   50.6270 C   0  0  0  0  0  0  0  0  0  0  0  0
   56.7310   32.0055   53.4671 H   0  0  0  0  0  0  0  0  0  0  0  0
   55.6789   32.1919   52.0232 H   0  0  0  0  0  0  0  0  0  0  0  0
   56.9957   30.9702   52.0232 H   0  0  0  0  0  0  0  0  0  0  0  0
   57.8011   30.6968   50.4926 H   0  0  0  0  0  0  0  0  0  0  0  0
   59.5612   30.1096   48.8381 H   0  0  0  0  0  0  0  0  0  0  0  0
   61.5500   30.6280   47.7950 H   0  0  0  0  0  0  0  0  0  0  0  0
   64.0249   33.7346   48.6860 H   0  0  0  0  0  0  0  0  0  0  0  0
   64.5812   32.6944   47.3602 H   0  0  0  0  0  0  0  0  0  0  0  0
   61.7991   31.7575   45.9319 H   0  0  0  0  0  0  0  0  0  0  0  0
   60.0710   34.8168   46.9028 H   0  0  0  0  0  0  0  0  0  0  0  0
   57.6829   35.2215   46.3230 H   0  0  0  0  0  0  0  0  0  0  0  0
   56.2556   33.3511   45.5049 H   0  0  0  0  0  0  0  0  0  0  0  0
   57.7480   29.0400   47.0770 H   0  0  0  0  0  0  0  0  0  0  0  0
   58.4451   26.6880   46.6177 H   0  0  0  0  0  0  0  0  0  0  0  0
   58.4694   25.8269   44.2729 H   0  0  0  0  0  0  0  0  0  0  0  0
   57.7784   27.3131   42.3888 H   0  0  0  0  0  0  0  0  0  0  0  0
   57.0820   29.6658   42.8433 H   0  0  0  0  0  0  0  0  0  0  0  0
   59.6118   30.6409   45.8376 H   0  0  0  0  0  0  0  0  0  0  0  0
   61.4390   33.9652   49.4776 H   0  0  0  0  0  0  0  0  0  0  0  0
   59.6754   34.5434   51.1348 H   0  0  0  0  0  0  0  0  0  0  0  0
  1  2  1  0
  2  3  1  0
  3  4  2  0
  4  5  1  0
  5  6  2  0
  6  7  1  0
  7  8  1  0
  8  9  2  0
  8 10  1  0
 10 11  1  0
 11 12  1  0
 12 13  1  0
 13 14  2  0
 14 15  1  0
 15 16  2  0
 16 17  1  0
 17 18  1  0
 18 19  1  0
 19 20  2  0
 20 21  1  0
 21 22  2  0
 22 23  1  0
 23 24  2  0
 17 25  2  0
  6 26  1  0
 26 27  2  0
 27  3  1  0
 12  7  1  0
 25 13  1  0
 24 19  1  0
  1 28  1  0
  1 29  1  0
  1 30  1  0
  4 31  1  0
  5 32  1  0
  7 33  1  6
 10 34  1  0
 10 35  1  0
 12 36  1  6
 14 37  1  0
 15 38  1  0
 16 39  1  0
 20 40  1  0
 21 41  1  0
 22 42  1  0
 23 43  1  0
 24 44  1  0
 25 45  1  0
 26 46  1  0
 27 47  1  0
M  CHG  1   7   1
M  END
>  <UniqueID>  (15) 
14

>  <SMILES>  (15) 
COc1ccc([N@@H+]2C(=O)CS[C@@H]2c2cccc(Oc3ccccc3)c2)cc1

>  <Energy>  (15) 
60.675597492070395

>  <Genealogy>  (15) 
COc1ccc([NH+]2C(=O)CSC2c2cccc(Oc3ccccc3)c2)cc1 (protonated)
COc1ccc([N@@H+]2C(=O)CS[C@@H]2c2cccc(Oc3ccccc3)c2)cc1 (chirality)
COc1ccc([N@@H+]2C(=O)CS[C@@H]2c2cccc(Oc3ccccc3)c2)cc1 (3D coordinates assigned)
COc1ccc([N@@H+]2C(=O)CS[C@@H]2c2cccc(Oc3ccccc3)c2)cc1 (nonaromatic ring conformer: 60.675597492070395 kcal/mol)

>  <smiles>  (15) 
COc1ccc(N2C(=O)CSC2c2cccc(Oc3ccccc3)c2)cc1

>  <score_type>  (15) 
oracle

>  <origin>  (15) 
adg

>  <m_score__min__energy>  (15) 
-6.8499999999999996

>  <m_primary>  (15) 
energy

$$$$
15:0
     RDKit          3D

 23 24  0  0  0  0  0  0  0  0999 V2000
   55.1370   27.4670   45.4630 H   0  0  0  0  0  0  0  0  0  0  0  0
   54.8630   26.6510   45.9960 O   0  0  0  0  0  0  0  0  0  0  0  0
   55.7450   25.6050   46.2710 C   0  0  0  0  0  0  0  0  0  0  0  0
   55.2420   24.4230   46.7130 N   0  0  0  0  0  0  0  0  0  0  0  0
   56.0530   23.3730   46.9930 C   0  0  0  0  0  0  0  0  0  0  0  0
   55.5600   22.2900   47.4020 O   0  0  0  0  0  0  0  0  0  0  0  0
   57.3950   23.4890   46.8350 N   0  0  0  0  0  0  0  0  0  0  0  0
   57.9540   24.6460   46.3960 C   0  0  0  0  0  0  0  0  0  0  0  0
   59.2050   24.7080   46.2640 O   0  0  0  0  0  0  0  0  0  0  0  0
   57.1330   25.7540   46.0960 C   0  0  0  0  0  0  0  0  0  0  0  0
   57.6530   27.0090   45.6280 N   0  0  0  0  0  0  0  0  0  0  0  0
   57.1790   28.1340   45.9850 N   0  0  0  0  0  0  0  0  0  0  0  0
   57.2630   29.2960   45.1520 C   0  0  0  0  0  0  0  0  0  0  0  0
   58.4520   30.0430   45.0490 C   0  0  0  0  0  0  0  0  0  0  0  0
   59.3430   29.7364   45.6166 H   0  0  0  0  0  0  0  0  0  0  0  0
   58.5040   31.1740   44.2270 C   0  0  0  0  0  0  0  0  0  0  0  0
   59.4347   31.7553   44.1506 H   0  0  0  0  0  0  0  0  0  0  0  0
   57.3750   31.5660   43.5030 C   0  0  0  0  0  0  0  0  0  0  0  0
   57.4176   32.4550   42.8566 H   0  0  0  0  0  0  0  0  0  0  0  0
   56.1920   30.8290   43.6000 C   0  0  0  0  0  0  0  0  0  0  0  0
   55.3043   31.1395   43.0295 H   0  0  0  0  0  0  0  0  0  0  0  0
   56.1330   29.6980   44.4200 C   0  0  0  0  0  0  0  0  0  0  0  0
   54.9490   28.9730   44.5070 O   0  0  0  0  0  0  0  0  0  0  0  0
  1  2  1  0
  2  3  1  0
  3  4  1  0
  4  5  1  0
  5  6  2  0
  5  7  1  0
  7  8  1  0
  8  9  2  0
  8 10  1  0
 10 11  1  0
 11 12  2  0
 12 13  1  0
 13 14  2  0
 14 15  1  0
 14 16  1  0
 16 17  1  0
 16 18  2  0
 18 19  1  0
 18 20  1  0
 20 21  1  0
 20 22  2  0
 22 23  1  0
 10  3  2  0
 22 13  1  0
M  CHG  3   4  -1   7  -1  23  -1
M  END
>  <UniqueID>  (16) 
15

>  <SMILES>  (16) 
O=c1[n-]c(O)c(/N=N/c2ccccc2[O-])c(=O)[n-]1

>  <Energy>  (16) 
27.70990837398021

>  <Genealogy>  (16) 
O=c1[n-]c(O)c(N=Nc2ccccc2[O-])c(=O)[n-]1 (protonated)
O=c1[n-]c(O)c(/N=N/c2ccccc2[O-])c(=O)[n-]1 (cis-trans isomerization)
O=c1[n-]c(O)c(/N=N/c2ccccc2[O-])c(=O)[n-]1 (3D coordinates assigned)
O=c1[n-]c(O)c(/N=N/c2ccccc2[O-])c(=O)[n-]1 (optimized conformer: 27.70990837398021 kcal/mol)

>  <smiles>  (16) 
O=c1[nH]c(O)c(N=Nc2ccccc2O)c(=O)[nH]1

>  <score_type>  (16) 
oracle

>  <origin>  (16) 
adg

>  <m_score__min__energy>  (16) 
-13.92

>  <m_primary>  (16) 
energy

$$$$
16:0
     RDKit          3D

 45 47  0  0  0  0  0  0  0  0999 V2000
   58.9440   28.7070   44.6970 C   0  0  0  0  0  0  0  0  0  0  0  0
   57.7980   28.8440   43.8010 N   0  0  0  0  0  0  0  0  0  0  0  0
   56.7000   30.0330   44.4340 S   0  0  0  0  0  0  0  0  0  0  0  0
   56.3760   31.0360   43.3620 O   0  0  0  0  0  0  0  0  0  0  0  0
   55.4290   29.3630   44.8750 O   0  0  0  0  0  0  0  0  0  0  0  0
   57.4160   30.8580   45.7810 N   0  0  0  0  0  0  0  0  0  0  0  0
   58.1660   32.0770   45.6920 C   0  0  0  0  0  0  0  0  0  0  0  0
   58.1210   32.8810   44.5400 C   0  0  0  0  0  0  0  0  0  0  0  0
   58.8340   34.0780   44.4870 C   0  0  0  0  0  0  0  0  0  0  0  0
   59.5810   34.4980   45.5850 C   0  0  0  0  0  0  0  0  0  0  0  0
   59.6270   33.7230   46.7570 C   0  0  0  0  0  0  0  0  0  0  0  0
   60.3840   34.2500   47.9550 C   0  0  0  0  0  0  0  0  0  0  0  0
   61.6320   33.4520   48.2570 C   0  0  0  0  0  0  0  0  0  0  0  0
   62.7350   33.2950   47.4130 C   0  0  0  0  0  0  0  0  0  0  0  0
   62.8610   33.8470   46.0280 C   0  0  0  0  0  0  0  0  0  0  0  0
   63.6850   32.5310   47.9970 N   0  0  0  0  0  0  0  0  0  0  0  0
   63.2090   32.2160   49.2130 C   0  0  0  0  0  0  0  0  0  0  0  0
   63.8340   31.4340   50.1800 C   0  0  0  0  0  0  0  0  0  0  0  0
   63.1540   31.2090   51.3890 C   0  0  0  0  0  0  0  0  0  0  0  0
   61.8760   31.7670   51.6150 C   0  0  0  0  0  0  0  0  0  0  0  0
   61.2360   31.4890   52.8330 O   0  0  0  0  0  0  0  0  0  0  0  0
   59.8860   31.8360   53.1250 C   0  0  0  0  0  0  0  0  0  0  0  0
   61.2780   32.5740   50.6180 C   0  0  0  0  0  0  0  0  0  0  0  0
   61.9680   32.7680   49.4190 C   0  0  0  0  0  0  0  0  0  0  0  0
   58.9450   32.4840   46.7910 C   0  0  0  0  0  0  0  0  0  0  0  0
   59.0350   31.4360   48.2090 Cl  0  0  0  0  0  0  0  0  0  0  0  0
   58.6001   28.7481   45.7411 H   0  0  0  0  0  0  0  0  0  0  0  0
   59.4407   27.7431   44.5122 H   0  0  0  0  0  0  0  0  0  0  0  0
   59.6539   29.5267   44.5122 H   0  0  0  0  0  0  0  0  0  0  0  0
   58.1480   29.2060   42.8860 H   0  0  0  0  0  0  0  0  0  0  0  0
   57.5197   32.5640   43.6751 H   0  0  0  0  0  0  0  0  0  0  0  0
   58.8065   34.6926   43.5751 H   0  0  0  0  0  0  0  0  0  0  0  0
   60.1397   35.4442   45.5347 H   0  0  0  0  0  0  0  0  0  0  0  0
   60.6729   35.2928   47.7572 H   0  0  0  0  0  0  0  0  0  0  0  0
   59.7199   34.1691   48.8281 H   0  0  0  0  0  0  0  0  0  0  0  0
   63.1055   34.9182   46.0810 H   0  0  0  0  0  0  0  0  0  0  0  0
   63.6607   33.3145   45.4924 H   0  0  0  0  0  0  0  0  0  0  0  0
   61.9094   33.7142   45.4924 H   0  0  0  0  0  0  0  0  0  0  0  0
   64.6010   32.2410   47.5880 H   0  0  0  0  0  0  0  0  0  0  0  0
   64.8312   31.0046   50.0030 H   0  0  0  0  0  0  0  0  0  0  0  0
   63.6226   30.5908   52.1689 H   0  0  0  0  0  0  0  0  0  0  0  0
   59.7444   31.8724   54.2152 H   0  0  0  0  0  0  0  0  0  0  0  0
   59.6590   32.8217   52.6927 H   0  0  0  0  0  0  0  0  0  0  0  0
   59.2119   31.0819   52.6927 H   0  0  0  0  0  0  0  0  0  0  0  0
   60.2940   33.0371   50.7832 H   0  0  0  0  0  0  0  0  0  0  0  0
  1  2  1  0
  2  3  1  0
  3  4  2  0
  3  5  2  0
  3  6  1  0
  6  7  1  0
  7  8  2  0
  8  9  1  0
  9 10  2  0
 10 11  1  0
 11 12  1  0
 12 13  1  0
 13 14  2  0
 14 15  1  0
 14 16  1  0
 16 17  1  0
 17 18  2  0
 18 19  1  0
 19 20  2  0
 20 21  1  0
 21 22  1  0
 20 23  1  0
 23 24  2  0
 11 25  2  0
 25 26  1  0
 25  7  1  0
 24 13  1  0
 24 17  1  0
  1 27  1  0
  1 28  1  0
  1 29  1  0
  2 30  1  0
  8 31  1  0
  9 32  1  0
 10 33  1  0
 12 34  1  0
 12 35  1  0
 15 36  1  0
 15 37  1  0
 15 38  1  0
 16 39  1  0
 18 40  1  0
 19 41  1  0
 22 42  1  0
 22 43  1  0
 22 44  1  0
 23 45  1  0
M  CHG  1   6  -1
M  END
>  <UniqueID>  (17) 
16

>  <SMILES>  (17) 
CNS(=O)(=O)[N-]c1cccc(Cc2c(C)[nH]c3ccc(OC)cc23)c1Cl

>  <Energy>  (17) 
76.90466915240218

>  <Genealogy>  (17) 
CNS(=O)(=O)[N-]c1cccc(Cc2c(C)[nH]c3ccc(OC)cc23)c1Cl (protonated)
CNS(=O)(=O)[N-]c1cccc(Cc2c(C)[nH]c3ccc(OC)cc23)c1Cl (3D coordinates assigned)
CNS(=O)(=O)[N-]c1cccc(Cc2c(C)[nH]c3ccc(OC)cc23)c1Cl (optimized conformer: 76.90466915240218 kcal/mol)

>  <smiles>  (17) 
CNS(=O)(=O)Nc1cccc(Cc2c(C)[nH]c3ccc(OC)cc23)c1Cl

>  <score_type>  (17) 
oracle

>  <origin>  (17) 
adg

>  <m_score__min__energy>  (17) 
-10.69

>  <m_primary>  (17) 
energy

$$$$
17:0
     RDKit          3D

 42 43  0  0  0  0  0  0  0  0999 V2000
   62.5530   33.8190   48.0260 C   0  0  0  0  0  0  0  0  0  0  0  0
   61.3000   33.1800   47.6080 N   0  0  0  0  0  0  0  0  0  0  0  0
   61.2110   31.7410   47.7190 C   0  0  0  0  0  0  0  0  0  0  0  0
   61.7620   31.0170   46.8460 O   0  0  0  0  0  0  0  0  0  0  0  0
   60.4570   31.0670   48.8340 C   0  0  0  0  0  0  0  0  0  0  0  0
   59.3420   30.3370   48.3280 O   0  0  0  0  0  0  0  0  0  0  0  0
   59.4210   29.4680   47.2320 C   0  0  0  0  0  0  0  0  0  0  0  0
   60.2180   28.4900   47.2560 O   0  0  0  0  0  0  0  0  0  0  0  0
   58.5770   29.7090   46.0420 C   0  0  0  0  0  0  0  0  0  0  0  0
   59.0740   30.4320   44.9420 C   0  0  0  0  0  0  0  0  0  0  0  0
   58.2650   30.6700   43.8280 C   0  0  0  0  0  0  0  0  0  0  0  0
   56.9510   30.1930   43.7930 C   0  0  0  0  0  0  0  0  0  0  0  0
   56.1650   30.4470   42.6690 O   0  0  0  0  0  0  0  0  0  0  0  0
   56.4470   29.4680   44.8850 C   0  0  0  0  0  0  0  0  0  0  0  0
   55.1430   28.9850   44.8690 O   0  0  0  0  0  0  0  0  0  0  0  0
   57.2570   29.2280   46.0000 C   0  0  0  0  0  0  0  0  0  0  0  0
   60.1790   33.9910   47.0810 C   0  0  0  0  0  0  0  0  0  0  0  0
   60.0030   33.7620   45.5630 C   0  0  0  0  0  0  0  0  0  0  0  0
   58.7110   34.4220   45.0680 C   0  0  0  0  0  0  0  0  0  0  0  0
   57.4540   33.8870   45.7890 C   0  0  0  0  0  0  0  0  0  0  0  0
   57.7610   33.0940   47.0720 C   0  0  0  0  0  0  0  0  0  0  0  0
   58.8770   33.7520   47.8950 C   0  0  0  0  0  0  0  0  0  0  0  0
   62.6029   33.8445   49.1246 H   0  0  0  0  0  0  0  0  0  0  0  0
   63.4057   33.2457   47.6334 H   0  0  0  0  0  0  0  0  0  0  0  0
   62.5897   34.8459   47.6334 H   0  0  0  0  0  0  0  0  0  0  0  0
   61.1324   30.3747   49.3580 H   0  0  0  0  0  0  0  0  0  0  0  0
   60.0864   31.8396   49.5237 H   0  0  0  0  0  0  0  0  0  0  0  0
   60.1060   30.8123   44.9592 H   0  0  0  0  0  0  0  0  0  0  0  0
   58.6641   31.2360   42.9734 H   0  0  0  0  0  0  0  0  0  0  0  0
   55.3960   29.8430   42.4040 H   0  0  0  0  0  0  0  0  0  0  0  0
   56.8573   28.6577   46.8515 H   0  0  0  0  0  0  0  0  0  0  0  0
   60.4229   35.0559   47.2096 H   0  0  0  0  0  0  0  0  0  0  0  0
   60.8601   34.1982   45.0291 H   0  0  0  0  0  0  0  0  0  0  0  0
   59.9472   32.6805   45.3699 H   0  0  0  0  0  0  0  0  0  0  0  0
   58.7811   35.5061   45.2407 H   0  0  0  0  0  0  0  0  0  0  0  0
   58.6062   34.1863   43.9987 H   0  0  0  0  0  0  0  0  0  0  0  0
   56.8167   34.7431   46.0552 H   0  0  0  0  0  0  0  0  0  0  0  0
   56.9592   33.1919   45.0947 H   0  0  0  0  0  0  0  0  0  0  0  0
   56.8494   33.0422   47.6854 H   0  0  0  0  0  0  0  0  0  0  0  0
   58.0986   32.0886   46.7802 H   0  0  0  0  0  0  0  0  0  0  0  0
   58.5130   34.7219   48.2649 H   0  0  0  0  0  0  0  0  0  0  0  0
   59.1267   33.0637   48.7159 H   0  0  0  0  0  0  0  0  0  0  0  0
  1  2  1  0
  2  3  1  0
  3  4  2  0
  3  5  1  0
  5  6  1  0
  6  7  1  0
  7  8  2  0
  7  9  1  0
  9 10  2  0
 10 11  1  0
 11 12  2  0
 12 13  1  0
 12 14  1  0
 14 15  1  0
 14 16  2  0
  2 17  1  0
 17 18  1  0
 18 19  1  0
 19 20  1  0
 20 21  1  0
 21 22  1  0
 16  9  1  0
 22 17  1  0
  1 23  1  0
  1 24  1  0
  1 25  1  0
  5 26  1  0
  5 27  1  0
 10 28  1  0
 11 29  1  0
 13 30  1  0
 16 31  1  0
 17 32  1  0
 18 33  1  0
 18 34  1  0
 19 35  1  0
 19 36  1  0
 20 37  1  0
 20 38  1  0
 21 39  1  0
 21 40  1  0
 22 41  1  0
 22 42  1  0
M  CHG  1  15  -1
M  END
>  <UniqueID>  (18) 
17

>  <SMILES>  (18) 
CN(C(=O)COC(=O)c1ccc(O)c([O-])c1)C1CCCCC1

>  <Energy>  (18) 
41.486515831244766

>  <Genealogy>  (18) 
CN(C(=O)COC(=O)c1ccc(O)c([O-])c1)C1CCCCC1 (protonated)
CN(C(=O)COC(=O)c1ccc(O)c([O-])c1)C1CCCCC1 (3D coordinates assigned)
CN(C(=O)COC(=O)c1ccc(O)c([O-])c1)C1CCCCC1 (nonaromatic ring conformer: 41.486515831244766 kcal/mol)

>  <smiles>  (18) 
CN(C(=O)COC(=O)c1ccc(O)c(O)c1)C1CCCCC1

>  <score_type>  (18) 
oracle

>  <origin>  (18) 
adg

>  <m_score__min__energy>  (18) 
-11.4

>  <m_primary>  (18) 
energy

$$$$
18:0
     RDKit          3D

 46 48  0  0  0  0  0  0  0  0999 V2000
   55.8690   31.1400   44.5310 O   0  0  0  0  0  0  0  0  0  0  0  0
   56.0680   29.9070   44.3700 C   0  0  0  0  0  0  0  0  0  0  0  0
   55.1530   28.9900   44.8740 O   0  0  0  0  0  0  0  0  0  0  0  0
   57.3110   29.4270   43.6910 C   0  0  0  0  0  0  0  0  0  0  0  0
   57.8350   28.1540   44.3650 C   0  0  0  0  0  0  0  0  0  0  0  0
   58.5120   28.4780   45.6730 C   0  0  0  0  0  0  0  0  0  0  0  0
   58.6220   27.4990   46.6720 C   0  0  0  0  0  0  0  0  0  0  0  0
   59.2080   27.8090   47.9020 C   0  0  0  0  0  0  0  0  0  0  0  0
   59.6830   29.1000   48.1550 C   0  0  0  0  0  0  0  0  0  0  0  0
   60.2680   29.3800   49.4350 N   0  0  0  0  0  0  0  0  0  0  0  0
   61.4910   30.0850   49.6960 C   0  0  0  0  0  0  0  0  0  0  0  0
   62.2840   29.6050   50.5490 O   0  0  0  0  0  0  0  0  0  0  0  0
   61.8200   31.3810   49.0520 C   0  0  0  0  0  0  0  0  0  0  0  0
   63.1360   31.6360   48.6260 C   0  0  0  0  0  0  0  0  0  0  0  0
   63.4630   32.8530   48.0240 C   0  0  0  0  0  0  0  0  0  0  0  0
   62.4850   33.8310   47.8410 C   0  0  0  0  0  0  0  0  0  0  0  0
   61.1700   33.6040   48.2720 C   0  0  0  0  0  0  0  0  0  0  0  0
   60.1030   34.6340   48.0120 C   0  0  0  0  0  0  0  0  0  0  0  0
   59.2270   34.1910   46.8700 C   0  0  0  0  0  0  0  0  0  0  0  0
   57.8990   33.7920   47.1040 C   0  0  0  0  0  0  0  0  0  0  0  0
   57.0700   33.4390   46.0350 C   0  0  0  0  0  0  0  0  0  0  0  0
   57.5550   33.4950   44.7250 C   0  0  0  0  0  0  0  0  0  0  0  0
   58.8710   33.8970   44.4830 C   0  0  0  0  0  0  0  0  0  0  0  0
   59.7040   34.2440   45.5520 C   0  0  0  0  0  0  0  0  0  0  0  0
   60.8450   32.3820   48.8860 C   0  0  0  0  0  0  0  0  0  0  0  0
   59.6140   30.0720   47.1420 C   0  0  0  0  0  0  0  0  0  0  0  0
   59.0220   29.7640   45.9120 C   0  0  0  0  0  0  0  0  0  0  0  0
   57.0867   29.2116   42.6359 H   0  0  0  0  0  0  0  0  0  0  0  0
   58.0803   30.2098   43.7636 H   0  0  0  0  0  0  0  0  0  0  0  0
   56.9918   27.4735   44.5546 H   0  0  0  0  0  0  0  0  0  0  0  0
   58.5689   27.6791   43.6973 H   0  0  0  0  0  0  0  0  0  0  0  0
   58.2451   26.4825   46.4860 H   0  0  0  0  0  0  0  0  0  0  0  0
   59.2963   27.0327   48.6763 H   0  0  0  0  0  0  0  0  0  0  0  0
   63.9136   30.8710   48.7681 H   0  0  0  0  0  0  0  0  0  0  0  0
   64.4950   33.0411   47.6930 H   0  0  0  0  0  0  0  0  0  0  0  0
   62.7463   34.7836   47.3569 H   0  0  0  0  0  0  0  0  0  0  0  0
   59.4883   34.7579   48.9158 H   0  0  0  0  0  0  0  0  0  0  0  0
   60.5801   35.5903   47.7513 H   0  0  0  0  0  0  0  0  0  0  0  0
   57.5108   33.7575   48.1326 H   0  0  0  0  0  0  0  0  0  0  0  0
   56.0355   33.1170   46.2248 H   0  0  0  0  0  0  0  0  0  0  0  0
   56.9001   33.2224   43.8843 H   0  0  0  0  0  0  0  0  0  0  0  0
   59.2521   33.9406   43.4520 H   0  0  0  0  0  0  0  0  0  0  0  0
   60.7395   34.5604   45.3577 H   0  0  0  0  0  0  0  0  0  0  0  0
   59.8185   32.2065   49.2402 H   0  0  0  0  0  0  0  0  0  0  0  0
   60.0262   31.0768   47.3165 H   0  0  0  0  0  0  0  0  0  0  0  0
   58.9559   30.5333   45.1285 H   0  0  0  0  0  0  0  0  0  0  0  0
  1  2  2  0
  2  3  1  0
  2  4  1  0
  4  5  1  0
  5  6  1  0
  6  7  2  0
  7  8  1  0
  8  9  2  0
  9 10  1  0
 10 11  1  0
 11 12  2  0
 11 13  1  0
 13 14  2  0
 14 15  1  0
 15 16  2  0
 16 17  1  0
 17 18  1  0
 18 19  1  0
 19 20  2  0
 20 21  1  0
 21 22  2  0
 22 23  1  0
 23 24  2  0
 17 25  2  0
  9 26  1  0
 26 27  2  0
 27  6  1  0
 25 13  1  0
 24 19  1  0
  4 28  1  0
  4 29  1  0
  5 30  1  0
  5 31  1  0
  7 32  1  0
  8 33  1  0
 14 34  1  0
 15 35  1  0
 16 36  1  0
 18 37  1  0
 18 38  1  0
 20 39  1  0
 21 40  1  0
 22 41  1  0
 23 42  1  0
 24 43  1  0
 25 44  1  0
 26 45  1  0
 27 46  1  0
M  CHG  2   3  -1  10  -1
M  END
>  <UniqueID>  (19) 
18

>  <SMILES>  (19) 
O=C([O-])CCc1ccc([N-]C(=O)c2cccc(Cc3ccccc3)c2)cc1

>  <Energy>  (19) 
47.32658283593534

>  <Genealogy>  (19) 
O=C([O-])CCc1ccc([N-]C(=O)c2cccc(Cc3ccccc3)c2)cc1 (protonated)
O=C([O-])CCc1ccc([N-]C(=O)c2cccc(Cc3ccccc3)c2)cc1 (3D coordinates assigned)
O=C([O-])CCc1ccc([N-]C(=O)c2cccc(Cc3ccccc3)c2)cc1 (optimized conformer: 47.32658283593534 kcal/mol)

>  <smiles>  (19) 
O=C(O)CCc1ccc(NC(=O)c2cccc(Cc3ccccc3)c2)cc1

>  <score_type>  (19) 
oracle

>  <origin>  (19) 
adg

>  <m_score__min__energy>  (19) 
-13.1

>  <m_primary>  (19) 
energy

$$$$
19:0
     RDKit          3D

 14 14  0  0  0  0  0  0  0  0999 V2000
   55.1470   29.0910   44.7920 O   0  0  0  0  0  0  0  0  0  0  0  0
   56.3330   29.0640   45.2160 C   0  0  0  0  0  0  0  0  0  0  0  0
   57.0560   30.2510   45.2500 O   0  0  0  0  0  0  0  0  0  0  0  0
   56.9550   27.7950   45.6720 C   0  0  0  0  0  0  0  0  0  0  0  0
   58.3590   27.6970   45.7310 C   0  0  0  0  0  0  0  0  0  0  0  0
   58.9730   26.5150   46.1570 C   0  0  0  0  0  0  0  0  0  0  0  0
   60.3590   26.4330   46.2100 O   0  0  0  0  0  0  0  0  0  0  0  0
   58.1950   25.4170   46.5300 C   0  0  0  0  0  0  0  0  0  0  0  0
   56.8030   25.4970   46.4770 C   0  0  0  0  0  0  0  0  0  0  0  0
   56.1780   26.6760   46.0520 C   0  0  0  0  0  0  0  0  0  0  0  0
   54.7880   26.7160   46.0140 O   0  0  0  0  0  0  0  0  0  0  0  0
   58.9781   28.5582   45.4393 H   0  0  0  0  0  0  0  0  0  0  0  0
   58.6798   24.4885   46.8658 H   0  0  0  0  0  0  0  0  0  0  0  0
   56.1934   24.6297   46.7705 H   0  0  0  0  0  0  0  0  0  0  0  0
  1  2  2  0
  2  3  1  0
  2  4  1  0
  4  5  2  0
  5  6  1  0
  6  7  1  0
  6  8  2  0
  8  9  1  0
  9 10  2  0
 10 11  1  0
 10  4  1  0
  5 12  1  0
  8 13  1  0
  9 14  1  0
M  CHG  3   3  -1   7  -1  11  -1
M  END
>  <UniqueID>  (20) 
19

>  <SMILES>  (20) 
O=C([O-])c1cc([O-])ccc1[O-]

>  <Energy>  (20) 
15.234948929379792

>  <Genealogy>  (20) 
O=C([O-])c1cc([O-])ccc1[O-] (protonated)
O=C([O-])c1cc([O-])ccc1[O-] (3D coordinates assigned)
O=C([O-])c1cc([O-])ccc1[O-] (optimized conformer: 15.234948929379792 kcal/mol)

>  <smiles>  (20) 
O=C(O)c1cc(O)ccc1O

>  <score_type>  (20) 
oracle

>  <origin>  (20) 
adg

>  <m_score__min__energy>  (20) 
-13.630000000000001

>  <m_primary>  (20) 
energy

$$$$
20:0
     RDKit          3D

 40 42  0  0  0  0  0  0  0  0999 V2000
   55.2980   29.3640   44.8740 N   0  0  0  0  0  0  0  0  0  0  0  0
   56.0390   30.0160   43.7940 C   0  0  0  0  0  0  0  0  0  0  0  0
   57.5670   30.1490   44.1230 C   0  0  1  0  0  0  0  0  0  0  0  0
   57.8460   31.4960   44.8060 C   0  0  0  0  0  0  0  0  0  0  0  0
   57.4070   32.6940   44.2040 C   0  0  0  0  0  0  0  0  0  0  0  0
   57.6620   33.9300   44.8010 C   0  0  0  0  0  0  0  0  0  0  0  0
   58.3790   33.9950   45.9950 C   0  0  0  0  0  0  0  0  0  0  0  0
   58.8620   32.8270   46.5820 C   0  0  0  0  0  0  0  0  0  0  0  0
   58.6280   31.5790   45.9810 C   0  0  0  0  0  0  0  0  0  0  0  0
   59.1940   30.3470   46.6140 C   0  0  0  0  0  0  0  0  0  0  0  0
   59.3370   29.2410   45.5750 C   0  0  0  0  0  0  0  0  0  0  0  0
   58.0350   28.9720   44.9240 N   0  0  2  0  0  0  0  0  0  0  0  0
   58.1510   27.7650   44.0610 C   0  0  0  0  0  0  0  0  0  0  0  0
   57.5920   26.5300   44.7310 C   0  0  0  0  0  0  0  0  0  0  0  0
   57.4600   25.3340   44.0060 C   0  0  0  0  0  0  0  0  0  0  0  0
   56.9350   24.1920   44.6190 C   0  0  0  0  0  0  0  0  0  0  0  0
   56.5370   24.2350   45.9580 C   0  0  0  0  0  0  0  0  0  0  0  0
   55.8760   22.8020   46.7240 Cl  0  0  0  0  0  0  0  0  0  0  0  0
   56.6660   25.4220   46.6870 C   0  0  0  0  0  0  0  0  0  0  0  0
   57.1920   26.5650   46.0770 C   0  0  0  0  0  0  0  0  0  0  0  0
   54.3940   29.0000   44.4960 H   0  0  0  0  0  0  0  0  0  0  0  0
   55.0710   30.0670   45.6130 H   0  0  0  0  0  0  0  0  0  0  0  0
   55.9244   29.4212   42.8758 H   0  0  0  0  0  0  0  0  0  0  0  0
   55.6305   31.0294   43.6668 H   0  0  0  0  0  0  0  0  0  0  0  0
   58.1493   30.1406   43.1898 H   0  0  0  0  0  0  0  0  0  0  0  0
   56.8569   32.6537   43.2523 H   0  0  0  0  0  0  0  0  0  0  0  0
   57.2967   34.8539   44.3287 H   0  0  0  0  0  0  0  0  0  0  0  0
   58.5634   34.9681   46.4736 H   0  0  0  0  0  0  0  0  0  0  0  0
   59.4303   32.8827   47.5222 H   0  0  0  0  0  0  0  0  0  0  0  0
   60.1825   30.5775   47.0381 H   0  0  0  0  0  0  0  0  0  0  0  0
   58.5146   30.0071   47.4096 H   0  0  0  0  0  0  0  0  0  0  0  0
   60.0659   29.5524   44.8123 H   0  0  0  0  0  0  0  0  0  0  0  0
   59.6815   28.3241   46.0755 H   0  0  0  0  0  0  0  0  0  0  0  0
   57.3340   28.7820   45.6810 H   0  0  0  0  0  0  0  0  0  0  0  0
   57.5981   27.9426   43.1268 H   0  0  0  0  0  0  0  0  0  0  0  0
   59.2193   27.5899   43.8658 H   0  0  0  0  0  0  0  0  0  0  0  0
   57.7709   25.2956   42.9516 H   0  0  0  0  0  0  0  0  0  0  0  0
   56.8351   23.2582   44.0463 H   0  0  0  0  0  0  0  0  0  0  0  0
   56.3534   25.4562   47.7411 H   0  0  0  0  0  0  0  0  0  0  0  0
   57.2930   27.4961   46.6540 H   0  0  0  0  0  0  0  0  0  0  0  0
  1  2  1  0
  2  3  1  0
  3  4  1  0
  4  5  2  0
  5  6  1  0
  6  7  2  0
  7  8  1  0
  8  9  2  0
  9 10  1  0
 10 11  1  0
 11 12  1  0
 12 13  1  0
 13 14  1  0
 14 15  2  0
 15 16  1  0
 16 17  2  0
 17 18  1  0
 17 19  1  0
 19 20  2  0
 12  3  1  0
 20 14  1  0
  9  4  1  0
  1 21  1  0
  1 22  1  0
  2 23  1  0
  2 24  1  0
  3 25  1  6
  5 26  1  0
  6 27  1  0
  7 28  1  0
  8 29  1  0
 10 30  1  0
 10 31  1  0
 11 32  1  0
 11 33  1  0
 12 34  1  1
 13 35  1  0
 13 36  1  0
 15 37  1  0
 16 38  1  0
 19 39  1  0
 20 40  1  0
M  CHG  1  12   1
M  END
>  <UniqueID>  (21) 
20

>  <SMILES>  (21) 
NC[C@H]1c2ccccc2CC[N@@H+]1Cc1ccc(Cl)cc1

>  <Energy>  (21) 
52.619715940099844

>  <Genealogy>  (21) 
NCC1c2ccccc2CC[NH+]1Cc1ccc(Cl)cc1 (protonated)
NC[C@H]1c2ccccc2CC[N@@H+]1Cc1ccc(Cl)cc1 (chirality)
NC[C@H]1c2ccccc2CC[N@@H+]1Cc1ccc(Cl)cc1 (3D coordinates assigned)
NC[C@H]1c2ccccc2CC[N@@H+]1Cc1ccc(Cl)cc1 (nonaromatic ring conformer: 52.619715940099844 kcal/mol)

>  <smiles>  (21) 
NCC1c2ccccc2CCN1Cc1ccc(Cl)cc1

>  <score_type>  (21) 
oracle

>  <origin>  (21) 
adg

>  <m_score__min__energy>  (21) 
-6.4800000000000004

>  <m_primary>  (21) 
energy

$$$$
21:0
     RDKit          3D

 29 30  0  0  0  0  0  0  0  0999 V2000
   60.7940   26.7080   46.6750 C   0  0  0  0  0  0  0  0  0  0  0  0
   59.7210   27.5100   46.0000 C   0  0  0  0  0  0  0  0  0  0  0  0
   58.3680   27.2270   46.2430 C   0  0  0  0  0  0  0  0  0  0  0  0
   57.3690   28.0000   45.6440 C   0  0  0  0  0  0  0  0  0  0  0  0
   57.7100   29.0660   44.8010 C   0  0  0  0  0  0  0  0  0  0  0  0
   56.4530   30.0490   44.0610 S   0  0  0  0  0  0  0  0  0  0  0  0
   55.1280   29.3490   44.1890 O   0  0  0  0  0  0  0  0  0  0  0  0
   56.7710   30.2450   42.6050 O   0  0  0  0  0  0  0  0  0  0  0  0
   56.3970   31.5700   44.8670 N   0  0  0  0  0  0  0  0  0  0  0  0
   57.4330   32.2920   45.1360 C   0  0  0  0  0  0  0  0  0  0  0  0
   58.0360   32.4180   46.5000 C   0  0  0  0  0  0  0  0  0  0  0  0
   59.3660   33.1370   46.3330 C   0  0  0  0  0  0  0  0  0  0  0  0
   59.2720   34.2080   44.8660 S   0  0  0  0  0  0  0  0  0  0  0  0
   58.0840   33.0930   44.0640 C   0  0  0  0  0  0  0  0  0  0  0  0
   59.0610   29.3650   44.5780 C   0  0  0  0  0  0  0  0  0  0  0  0
   60.0620   28.5950   45.1760 C   0  0  0  0  0  0  0  0  0  0  0  0
   60.6825   26.7914   47.7662 H   0  0  0  0  0  0  0  0  0  0  0  0
   60.7055   25.6529   46.3769 H   0  0  0  0  0  0  0  0  0  0  0  0
   61.7809   27.0917   46.3769 H   0  0  0  0  0  0  0  0  0  0  0  0
   58.0927   26.3943   46.9069 H   0  0  0  0  0  0  0  0  0  0  0  0
   56.3104   27.7703   45.8354 H   0  0  0  0  0  0  0  0  0  0  0  0
   57.3711   33.0005   47.1547 H   0  0  0  0  0  0  0  0  0  0  0  0
   58.1793   31.4287   46.9590 H   0  0  0  0  0  0  0  0  0  0  0  0
   59.5706   33.7480   47.2245 H   0  0  0  0  0  0  0  0  0  0  0  0
   60.1753   32.4025   46.2087 H   0  0  0  0  0  0  0  0  0  0  0  0
   57.3279   33.6777   43.5196 H   0  0  0  0  0  0  0  0  0  0  0  0
   58.5928   32.4365   43.3428 H   0  0  0  0  0  0  0  0  0  0  0  0
   59.3347   30.2100   43.9290 H   0  0  0  0  0  0  0  0  0  0  0  0
   61.1201   28.8393   45.0009 H   0  0  0  0  0  0  0  0  0  0  0  0
  1  2  1  0
  2  3  2  0
  3  4  1  0
  4  5  2  0
  5  6  1  0
  6  7  2  0
  6  8  2  0
  6  9  1  0
  9 10  2  3
 10 11  1  0
 11 12  1  0
 12 13  1  0
 13 14  1  0
  5 15  1  0
 15 16  2  0
 16  2  1  0
 14 10  1  0
  1 17  1  0
  1 18  1  0
  1 19  1  0
  3 20  1  0
  4 21  1  0
 11 22  1  0
 11 23  1  0
 12 24  1  0
 12 25  1  0
 14 26  1  0
 14 27  1  0
 15 28  1  0
 16 29  1  0
M  END
>  <UniqueID>  (22) 
21

>  <SMILES>  (22) 
Cc1ccc(S(=O)(=O)N=C2CCSC2)cc1

>  <Energy>  (22) 
26.13896026015229

>  <Genealogy>  (22) 
Cc1ccc(S(=O)(=O)N=C2CCSC2)cc1 (3D coordinates assigned)
Cc1ccc(S(=O)(=O)N=C2CCSC2)cc1 (nonaromatic ring conformer: 26.13896026015229 kcal/mol)

>  <smiles>  (22) 
Cc1ccc(S(=O)(=O)N=C2CCSC2)cc1

>  <score_type>  (22) 
oracle

>  <origin>  (22) 
adg

>  <m_score__min__energy>  (22) 
-7.0199999999999996

>  <m_primary>  (22) 
energy

$$$$
22:0
     RDKit          3D

 76 81  0  0  0  0  0  0  0  0999 V2000
   57.4190   23.1470   49.0070 O   0  0  0  0  0  0  0  0  0  0  0  0
   56.2340   22.7960   48.3720 C   0  0  0  0  0  0  0  0  0  0  0  0
   55.4140   21.7620   48.7650 C   0  0  0  0  0  0  0  0  0  0  0  0
   54.3270   21.7940   47.9110 C   0  0  0  0  0  0  0  0  0  0  0  0
   54.5400   22.8410   47.0280 C   0  0  0  0  0  0  0  0  0  0  0  0
   53.6330   23.1910   45.9080 C   0  0  0  0  0  0  0  0  0  0  0  0
   52.2570   23.3810   46.1310 C   0  0  0  0  0  0  0  0  0  0  0  0
   51.4100   23.7180   45.0710 C   0  0  0  0  0  0  0  0  0  0  0  0
   51.9260   23.8850   43.7830 C   0  0  0  0  0  0  0  0  0  0  0  0
   53.2960   23.7190   43.5560 C   0  0  0  0  0  0  0  0  0  0  0  0
   54.1480   23.3770   44.6140 C   0  0  0  0  0  0  0  0  0  0  0  0
   55.7130   23.4530   47.3150 N   0  0  0  0  0  0  0  0  0  0  0  0
   56.2410   24.6450   46.7160 C   0  0  0  0  0  0  0  0  0  0  0  0
   57.6150   24.7930   46.4970 C   0  0  0  0  0  0  0  0  0  0  0  0
   58.0810   25.9420   45.8630 C   0  0  0  0  0  0  0  0  0  0  0  0
   57.1690   26.9300   45.4670 C   0  0  0  0  0  0  0  0  0  0  0  0
   57.6220   28.1110   44.7750 N   0  0  0  0  0  0  0  0  0  0  0  0
   56.9710   29.4110   44.9780 C   0  0  0  0  0  0  0  0  0  0  0  0
   57.9800   30.4510   45.5080 C   0  0  0  0  0  0  0  0  0  0  0  0
   59.2650   29.8150   45.8360 N   0  0  0  0  0  0  0  0  0  0  0  0
   59.9060   30.0510   47.1020 C   0  0  0  0  0  0  0  0  0  0  0  0
   60.3110   31.3440   47.4650 C   0  0  0  0  0  0  0  0  0  0  0  0
   61.0080   31.5600   48.6570 C   0  0  0  0  0  0  0  0  0  0  0  0
   61.3370   30.4860   49.4900 C   0  0  0  0  0  0  0  0  0  0  0  0
   62.0960   30.7480   50.6410 O   0  0  0  0  0  0  0  0  0  0  0  0
   62.0720   29.9700   51.8380 C   0  0  0  0  0  0  0  0  0  0  0  0
   60.6540   29.8720   52.4210 C   0  0  0  0  0  0  0  0  0  0  0  0
   59.9510   31.2320   52.5120 C   0  0  0  0  0  0  0  0  0  0  0  0
   59.0470   31.4170   51.3530 N   0  0  0  0  0  0  0  0  0  0  0  0
   58.2000   30.2370   51.0870 C   0  0  0  0  0  0  0  0  0  0  0  0
   57.0120   30.1670   52.0620 C   0  0  0  0  0  0  0  0  0  0  0  0
   56.2480   31.3550   52.0070 O   0  0  0  0  0  0  0  0  0  0  0  0
   57.0440   32.4490   52.4130 C   0  0  0  0  0  0  0  0  0  0  0  0
   58.2280   32.6420   51.4530 C   0  0  0  0  0  0  0  0  0  0  0  0
   60.9080   29.1930   49.1450 C   0  0  0  0  0  0  0  0  0  0  0  0
   60.1930   28.9800   47.9630 C   0  0  0  0  0  0  0  0  0  0  0  0
   59.9260   28.9680   44.8290 C   0  0  0  0  0  0  0  0  0  0  0  0
   58.9020   28.1200   44.0590 C   0  0  0  0  0  0  0  0  0  0  0  0
   55.8430   26.7450   45.7330 N   0  0  0  0  0  0  0  0  0  0  0  0
   55.4000   25.6400   46.3340 N   0  0  0  0  0  0  0  0  0  0  0  0
   55.5881   21.0551   49.5896 H   0  0  0  0  0  0  0  0  0  0  0  0
   53.4594   21.1180   47.9289 H   0  0  0  0  0  0  0  0  0  0  0  0
   51.8455   23.2638   47.1444 H   0  0  0  0  0  0  0  0  0  0  0  0
   50.3332   23.8522   45.2515 H   0  0  0  0  0  0  0  0  0  0  0  0
   51.2566   24.1462   42.9502 H   0  0  0  0  0  0  0  0  0  0  0  0
   53.7054   23.8573   42.5444 H   0  0  0  0  0  0  0  0  0  0  0  0
   55.2256   23.2534   44.4309 H   0  0  0  0  0  0  0  0  0  0  0  0
   58.3181   24.0118   46.8215 H   0  0  0  0  0  0  0  0  0  0  0  0
   59.1567   26.0732   45.6744 H   0  0  0  0  0  0  0  0  0  0  0  0
   56.5603   29.7624   44.0200 H   0  0  0  0  0  0  0  0  0  0  0  0
   56.1661   29.2910   45.7181 H   0  0  0  0  0  0  0  0  0  0  0  0
   58.1443   31.2187   44.7375 H   0  0  0  0  0  0  0  0  0  0  0  0
   57.5693   30.9057   46.4216 H   0  0  0  0  0  0  0  0  0  0  0  0
   60.0784   32.1941   46.8068 H   0  0  0  0  0  0  0  0  0  0  0  0
   61.2997   32.5816   48.9418 H   0  0  0  0  0  0  0  0  0  0  0  0
   62.4360   28.9568   51.6124 H   0  0  0  0  0  0  0  0  0  0  0  0
   62.7161   30.4626   52.5813 H   0  0  0  0  0  0  0  0  0  0  0  0
   60.0553   29.2097   51.7784 H   0  0  0  0  0  0  0  0  0  0  0  0
   60.7441   29.4778   53.4440 H   0  0  0  0  0  0  0  0  0  0  0  0
   59.3645   31.2768   53.4415 H   0  0  0  0  0  0  0  0  0  0  0  0
   60.7086   32.0296   52.5083 H   0  0  0  0  0  0  0  0  0  0  0  0
   57.8155   30.2972   50.0582 H   0  0  0  0  0  0  0  0  0  0  0  0
   58.8127   29.3336   51.2227 H   0  0  0  0  0  0  0  0  0  0  0  0
   56.3726   29.3139   51.7910 H   0  0  0  0  0  0  0  0  0  0  0  0
   57.4006   30.0442   53.0837 H   0  0  0  0  0  0  0  0  0  0  0  0
   56.4295   33.3613   52.4171 H   0  0  0  0  0  0  0  0  0  0  0  0
   57.4343   32.2486   53.4217 H   0  0  0  0  0  0  0  0  0  0  0  0
   57.8416   32.8964   50.4550 H   0  0  0  0  0  0  0  0  0  0  0  0
   58.8622   33.4510   51.8444 H   0  0  0  0  0  0  0  0  0  0  0  0
   61.1358   28.3452   49.8078 H   0  0  0  0  0  0  0  0  0  0  0  0
   59.8528   27.9661   47.7056 H   0  0  0  0  0  0  0  0  0  0  0  0
   60.4667   29.6106   44.1185 H   0  0  0  0  0  0  0  0  0  0  0  0
   60.6218   28.2905   45.3456 H   0  0  0  0  0  0  0  0  0  0  0  0
   58.7557   28.5468   43.0558 H   0  0  0  0  0  0  0  0  0  0  0  0
   59.2764   27.0892   43.9736 H   0  0  0  0  0  0  0  0  0  0  0  0
   55.1480   27.4790   45.4760 H   0  0  0  0  0  0  0  0  0  0  0  0
  1  2  1  0
  2  3  2  0
  3  4  1  0
  4  5  2  0
  5  6  1  0
  6  7  2  0
  7  8  1  0
  8  9  2  0
  9 10  1  0
 10 11  2  0
  5 12  1  0
 12 13  1  0
 13 14  2  0
 14 15  1  0
 15 16  2  0
 16 17  1  0
 17 18  1  0
 18 19  1  0
 19 20  1  0
 20 21  1  0
 21 22  2  0
 22 23  1  0
 23 24  2  0
 24 25  1  0
 25 26  1  0
 26 27  1  0
 27 28  1  0
 28 29  1  0
 29 30  1  0
 30 31  1  0
 31 32  1  0
 32 33  1  0
 33 34  1  0
 24 35  1  0
 35 36  2  0
 20 37  1  0
 37 38  1  0
 16 39  1  0
 39 40  2  0
 12  2  1  0
 40 13  1  0
 11  6  1  0
 38 17  1  0
 36 21  1  0
 34 29  1  0
  3 41  1  0
  4 42  1  0
  7 43  1  0
  8 44  1  0
  9 45  1  0
 10 46  1  0
 11 47  1  0
 14 48  1  0
 15 49  1  0
 18 50  1  0
 18 51  1  0
 19 52  1  0
 19 53  1  0
 22 54  1  0
 23 55  1  0
 26 56  1  0
 26 57  1  0
 27 58  1  0
 27 59  1  0
 28 60  1  0
 28 61  1  0
 30 62  1  0
 30 63  1  0
 31 64  1  0
 31 65  1  0
 33 66  1  0
 33 67  1  0
 34 68  1  0
 34 69  1  0
 35 70  1  0
 36 71  1  0
 37 72  1  0
 37 73  1  0
 38 74  1  0
 38 75  1  0
 39 76  1  0
M  CHG  2   1  -1  39   1
M  END
>  <UniqueID>  (23) 
22

>  <SMILES>  (23) 
[O-]c1ccc(-c2ccccc2)n1-c1ccc(N2CCN(c3ccc(OCCCN4CCOCC4)cc3)CC2)[nH+]n1

>  <Energy>  (23) 
136.89057752824368

>  <Genealogy>  (23) 
[O-]c1ccc(-c2ccccc2)n1-c1ccc(N2CCN(c3ccc(OCCCN4CCOCC4)cc3)CC2)[nH+]n1 (protonated)
[O-]c1ccc(-c2ccccc2)n1-c1ccc(N2CCN(c3ccc(OCCCN4CCOCC4)cc3)CC2)[nH+]n1 (3D coordinates assigned)
[O-]c1ccc(-c2ccccc2)n1-c1ccc(N2CCN(c3ccc(OCCCN4CCOCC4)cc3)CC2)[nH+]n1 (nonaromatic ring conformer: 136.89057752824368 kcal/mol)

>  <smiles>  (23) 
Oc1ccc(-c2ccccc2)n1-c1ccc(N2CCN(c3ccc(OCCCN4CCOCC4)cc3)CC2)nn1

>  <score_type>  (23) 
oracle

>  <origin>  (23) 
adg

>  <m_score__min__energy>  (23) 
-9.6199999999999992

>  <m_primary>  (23) 
energy

$$$$
23:0
     RDKit          3D

 55 58  0  0  0  0  0  0  0  0999 V2000
   63.7290   32.5920   48.1580 C   0  0  0  0  0  0  0  0  0  0  0  0
   63.6280   33.1350   46.8780 C   0  0  0  0  0  0  0  0  0  0  0  0
   62.4750   33.7810   46.4510 C   0  0  0  0  0  0  0  0  0  0  0  0
   61.4280   33.8670   47.3420 C   0  0  0  0  0  0  0  0  0  0  0  0
   60.1570   34.5480   46.9680 C   0  0  0  0  0  0  0  0  0  0  0  0
   59.2290   33.7320   46.3250 N   0  0  0  0  0  0  0  0  0  0  0  0
   59.5730   32.3840   46.1600 C   0  0  0  0  0  0  0  0  0  0  0  0
   58.4040   31.5030   45.7620 C   0  0  0  0  0  0  0  0  0  0  0  0
   57.6630   32.0540   44.5760 C   0  0  0  0  0  0  0  0  0  0  0  0
   58.4300   31.7580   43.2860 C   0  0  0  0  0  0  0  0  0  0  0  0
   57.4190   31.7720   42.1510 C   0  0  0  0  0  0  0  0  0  0  0  0
   56.6030   30.4840   42.2600 C   0  0  0  0  0  0  0  0  0  0  0  0
   56.3380   30.1930   43.6080 N   0  0  0  0  0  0  0  0  0  0  0  0
   56.6850   28.9610   44.1670 C   0  0  0  0  0  0  0  0  0  0  0  0
   58.1230   28.5610   44.0590 C   0  0  0  0  0  0  0  0  0  0  0  0
   58.8120   28.3710   45.3350 C   0  0  0  0  0  0  0  0  0  0  0  0
   60.1490   28.2170   45.6480 C   0  0  0  0  0  0  0  0  0  0  0  0
   60.2740   28.0350   46.9590 N   0  0  0  0  0  0  0  0  0  0  0  0
   59.0600   28.0690   47.5000 C   0  0  0  0  0  0  0  0  0  0  0  0
   58.1720   28.2720   46.5190 N   0  0  0  0  0  0  0  0  0  0  0  0
   56.3470   31.3210   44.4970 C   0  0  0  0  0  0  0  0  0  0  0  0
   57.4570   33.5290   44.6410 C   0  0  0  0  0  0  0  0  0  0  0  0
   58.0140   34.2250   45.8380 C   0  0  0  0  0  0  0  0  0  0  0  0
   61.5190   33.3240   48.6290 C   0  0  0  0  0  0  0  0  0  0  0  0
   62.6710   32.6900   49.0290 C   0  0  0  0  0  0  0  0  0  0  0  0
   64.6544   32.0858   48.4702 H   0  0  0  0  0  0  0  0  0  0  0  0
   64.4819   33.0498   46.1898 H   0  0  0  0  0  0  0  0  0  0  0  0
   62.4007   34.2077   45.4398 H   0  0  0  0  0  0  0  0  0  0  0  0
   59.6933   34.9373   47.8864 H   0  0  0  0  0  0  0  0  0  0  0  0
   60.4260   35.3384   46.2518 H   0  0  0  0  0  0  0  0  0  0  0  0
   60.3428   32.3149   45.3773 H   0  0  0  0  0  0  0  0  0  0  0  0
   59.9330   32.0215   47.1342 H   0  0  0  0  0  0  0  0  0  0  0  0
   58.7833   30.5017   45.5101 H   0  0  0  0  0  0  0  0  0  0  0  0
   57.7051   31.4614   46.6104 H   0  0  0  0  0  0  0  0  0  0  0  0
   59.1967   32.5286   43.1177 H   0  0  0  0  0  0  0  0  0  0  0  0
   58.9365   30.7835   43.3468 H   0  0  0  0  0  0  0  0  0  0  0  0
   56.7582   32.6464   42.2450 H   0  0  0  0  0  0  0  0  0  0  0  0
   57.9253   31.8334   41.1764 H   0  0  0  0  0  0  0  0  0  0  0  0
   55.6522   30.6090   41.7211 H   0  0  0  0  0  0  0  0  0  0  0  0
   57.1772   29.6558   41.8191 H   0  0  0  0  0  0  0  0  0  0  0  0
   56.4265   28.9940   45.2357 H   0  0  0  0  0  0  0  0  0  0  0  0
   56.1292   28.2104   43.5860 H   0  0  0  0  0  0  0  0  0  0  0  0
   58.1723   27.6144   43.5009 H   0  0  0  0  0  0  0  0  0  0  0  0
   58.6355   29.3939   43.5554 H   0  0  0  0  0  0  0  0  0  0  0  0
   60.9789   28.2412   44.9264 H   0  0  0  0  0  0  0  0  0  0  0  0
   61.1550   27.8910   47.4930 H   0  0  0  0  0  0  0  0  0  0  0  0
   58.8259   27.9508   48.5683 H   0  0  0  0  0  0  0  0  0  0  0  0
   55.5796   32.0315   44.1560 H   0  0  0  0  0  0  0  0  0  0  0  0
   56.1534   30.9230   45.5040 H   0  0  0  0  0  0  0  0  0  0  0  0
   57.9242   33.9717   43.7490 H   0  0  0  0  0  0  0  0  0  0  0  0
   56.3677   33.6694   44.7021 H   0  0  0  0  0  0  0  0  0  0  0  0
   58.1618   35.2825   45.5737 H   0  0  0  0  0  0  0  0  0  0  0  0
   57.2832   34.0596   46.6434 H   0  0  0  0  0  0  0  0  0  0  0  0
   60.6677   33.4048   49.3209 H   0  0  0  0  0  0  0  0  0  0  0  0
   62.7455   32.2637   50.0403 H   0  0  0  0  0  0  0  0  0  0  0  0
  1  2  2  0
  2  3  1  0
  3  4  2  0
  4  5  1  0
  5  6  1  0
  6  7  1  0
  7  8  1  0
  8  9  1  0
  9 10  1  0
 10 11  1  0
 11 12  1  0
 12 13  1  0
 13 14  1  0
 14 15  1  0
 15 16  1  0
 16 17  2  0
 17 18  1  0
 18 19  1  0
 19 20  2  0
 13 21  1  0
  9 22  1  0
 22 23  1  0
  4 24  1  0
 24 25  2  0
 25  1  1  0
 23  6  1  0
 21  9  1  0
 20 16  1  0
  1 26  1  0
  2 27  1  0
  3 28  1  0
  5 29  1  0
  5 30  1  0
  7 31  1  0
  7 32  1  0
  8 33  1  0
  8 34  1  0
 10 35  1  0
 10 36  1  0
 11 37  1  0
 11 38  1  0
 12 39  1  0
 12 40  1  0
 14 41  1  0
 14 42  1  0
 15 43  1  0
 15 44  1  0
 17 45  1  0
 18 46  1  0
 19 47  1  0
 21 48  1  0
 21 49  1  0
 22 50  1  0
 22 51  1  0
 23 52  1  0
 23 53  1  0
 24 54  1  0
 25 55  1  0
M  END
>  <smiles>  (24) 
c1ccc(CN2CCC3(CCCN(CCc4c[nH]cn4)C3)CC2)cc1

>  <score_type>  (24) 
oracle

>  <origin>  (24) 
adg

>  <m_score__min__energy>  (24) 
-9.4199999999999999

>  <m_primary>  (24) 
energy

$$$$
24:0
     RDKit          3D

 38 40  0  0  0  0  0  0  0  0999 V2000
   57.3940   31.4220   42.8330 C   0  0  0  0  0  0  0  0  0  0  0  0
   56.7280   30.9700   44.4640 S   0  0  0  0  0  0  0  0  0  0  0  0
   58.1780   31.5630   45.3560 C   0  0  0  0  0  0  0  0  0  0  0  0
   59.1260   30.6650   45.8820 C   0  0  0  0  0  0  0  0  0  0  0  0
   59.0070   29.2480   45.6850 N   0  0  0  0  0  0  0  0  0  0  0  0
   58.1680   28.4280   46.5620 C   0  0  0  0  0  0  0  0  0  0  0  0
   57.1770   27.6310   45.7070 C   0  0  0  0  0  0  0  0  0  0  0  0
   57.8520   26.9090   44.6910 O   0  0  0  0  0  0  0  0  0  0  0  0
   58.4760   27.8080   43.7890 C   0  0  0  0  0  0  0  0  0  0  0  0
   59.5720   28.6110   44.4950 C   0  0  0  0  0  0  0  0  0  0  0  0
   60.1690   31.1450   46.6090 N   0  0  0  0  0  0  0  0  0  0  0  0
   60.3310   32.4740   46.8330 C   0  0  0  0  0  0  0  0  0  0  0  0
   61.4940   32.9390   47.6160 C   0  0  0  0  0  0  0  0  0  0  0  0
   62.7870   32.6950   47.1220 C   0  0  0  0  0  0  0  0  0  0  0  0
   63.9120   33.1300   47.8280 C   0  0  0  0  0  0  0  0  0  0  0  0
   63.7570   33.8030   49.0410 C   0  0  0  0  0  0  0  0  0  0  0  0
   62.4780   34.0340   49.5550 C   0  0  0  0  0  0  0  0  0  0  0  0
   61.3440   33.6050   48.8540 C   0  0  0  0  0  0  0  0  0  0  0  0
   59.7670   33.8460   49.6000 Cl  0  0  0  0  0  0  0  0  0  0  0  0
   59.4460   33.3620   46.2970 N   0  0  0  0  0  0  0  0  0  0  0  0
   58.3730   32.9350   45.5770 C   0  0  0  0  0  0  0  0  0  0  0  0
   57.2520   34.1310   44.9340 Cl  0  0  0  0  0  0  0  0  0  0  0  0
   58.2978   32.0354   42.9632 H   0  0  0  0  0  0  0  0  0  0  0  0
   57.6479   30.5088   42.2747 H   0  0  0  0  0  0  0  0  0  0  0  0
   56.6391   31.9952   42.2747 H   0  0  0  0  0  0  0  0  0  0  0  0
   58.8014   27.7344   47.1345 H   0  0  0  0  0  0  0  0  0  0  0  0
   57.6175   29.0760   47.2599 H   0  0  0  0  0  0  0  0  0  0  0  0
   56.6334   26.9239   46.3508 H   0  0  0  0  0  0  0  0  0  0  0  0
   56.4772   28.3346   45.2324 H   0  0  0  0  0  0  0  0  0  0  0  0
   58.9230   27.2371   42.9618 H   0  0  0  0  0  0  0  0  0  0  0  0
   57.7178   28.5066   43.4054 H   0  0  0  0  0  0  0  0  0  0  0  0
   60.3897   27.9373   44.7908 H   0  0  0  0  0  0  0  0  0  0  0  0
   59.9651   29.3802   43.8140 H   0  0  0  0  0  0  0  0  0  0  0  0
   62.9147   32.1568   46.1712 H   0  0  0  0  0  0  0  0  0  0  0  0
   64.9193   32.9421   47.4279 H   0  0  0  0  0  0  0  0  0  0  0  0
   64.6423   34.1519   49.5929 H   0  0  0  0  0  0  0  0  0  0  0  0
   62.3613   34.5560   50.5162 H   0  0  0  0  0  0  0  0  0  0  0  0
   59.5930   34.3880   46.4240 H   0  0  0  0  0  0  0  0  0  0  0  0
  1  2  1  0
  2  3  1  0
  3  4  2  0
  4  5  1  0
  5  6  1  0
  6  7  1  0
  7  8  1  0
  8  9  1  0
  9 10  1  0
  4 11  1  0
 11 12  2  0
 12 13  1  0
 13 14  2  0
 14 15  1  0
 15 16  2  0
 16 17  1  0
 17 18  2  0
 18 19  1  0
 12 20  1  0
 20 21  2  0
 21 22  1  0
 21  3  1  0
 10  5  1  0
 18 13  1  0
  1 23  1  0
  1 24  1  0
  1 25  1  0
  6 26  1  0
  6 27  1  0
  7 28  1  0
  7 29  1  0
  9 30  1  0
  9 31  1  0
 10 32  1  0
 10 33  1  0
 14 34  1  0
 15 35  1  0
 16 36  1  0
 17 37  1  0
 20 38  1  0
M  CHG  1  20   1
M  END
>  <UniqueID>  (25) 
23

>  <SMILES>  (25) 
CSc1c(N2CCOCC2)nc(-c2ccccc2Cl)[nH+]c1Cl

>  <Energy>  (25) 
49.70525529950948

>  <Genealogy>  (25) 
CSc1c(N2CCOCC2)nc(-c2ccccc2Cl)[nH+]c1Cl (protonated)
CSc1c(N2CCOCC2)nc(-c2ccccc2Cl)[nH+]c1Cl (3D coordinates assigned)
CSc1c(N2CCOCC2)nc(-c2ccccc2Cl)[nH+]c1Cl (nonaromatic ring conformer: 49.70525529950948 kcal/mol)

>  <smiles>  (25) 
CSc1c(Cl)nc(-c2ccccc2Cl)nc1N1CCOCC1

>  <score_type>  (25) 
oracle

>  <origin>  (25) 
adg

>  <m_score__min__energy>  (25) 
-5.9900000000000002

>  <m_primary>  (25) 
energy

$$$$
25:0
     RDKit          3D

 66 69  0  0  0  0  0  0  0  0999 V2000
   57.2200   27.4630   45.2700 C   0  0  0  0  0  0  0  0  0  0  0  0
   56.8290   28.7030   44.6140 N   0  0  0  0  0  0  0  0  0  0  0  0
   57.6110   29.4510   43.8160 C   0  0  0  0  0  0  0  0  0  0  0  0
   56.9190   30.6030   43.5070 C   0  0  0  0  0  0  0  0  0  0  0  0
   57.3980   31.7440   42.7070 C   0  0  0  0  0  0  0  0  0  0  0  0
   57.5680   31.6030   41.4670 O   0  0  0  0  0  0  0  0  0  0  0  0
   57.6480   33.0210   43.3060 N   0  0  0  0  0  0  0  0  0  0  0  0
   58.0510   33.2210   44.6690 C   0  0  0  0  0  0  0  0  0  0  0  0
   57.1200   33.0220   45.6930 C   0  0  0  0  0  0  0  0  0  0  0  0
   57.4930   33.2000   47.0290 C   0  0  0  0  0  0  0  0  0  0  0  0
   58.7950   33.5920   47.3490 C   0  0  0  0  0  0  0  0  0  0  0  0
   59.7320   33.8280   46.3300 C   0  0  0  0  0  0  0  0  0  0  0  0
   61.1440   34.2400   46.6680 C   0  0  0  0  0  0  0  0  0  0  0  0
   61.7180   33.3940   47.7370 N   0  0  0  0  0  0  0  0  0  0  0  0
   62.9620   32.7320   47.2850 C   0  0  0  0  0  0  0  0  0  0  0  0
   63.6300   31.9000   48.4080 C   0  0  0  0  0  0  0  0  0  0  0  0
   62.8090   31.8920   49.7250 C   0  0  0  0  0  0  0  0  0  0  0  0
   63.6410   31.2170   50.8310 C   0  0  0  0  0  0  0  0  0  0  0  0
   61.5100   31.1040   49.5640 C   0  0  0  0  0  0  0  0  0  0  0  0
   60.5170   31.3700   50.2960 O   0  0  0  0  0  0  0  0  0  0  0  0
   61.3830   30.0960   48.5450 N   0  0  0  0  0  0  0  0  0  0  0  0
   60.2430   29.1680   48.4860 C   0  0  0  0  0  0  0  0  0  0  0  0
   58.9020   29.9390   48.3660 C   0  0  0  0  0  0  0  0  0  0  0  0
   58.4610   30.2110   46.9100 C   0  0  0  0  0  0  0  0  0  0  0  0
   59.6420   30.2270   45.9320 C   0  0  0  0  0  0  0  0  0  0  0  0
   60.4090   28.8910   45.9430 C   0  0  0  0  0  0  0  0  0  0  0  0
   60.3960   28.1820   47.3110 C   0  0  0  0  0  0  0  0  0  0  0  0
   62.5330   33.3720   50.1090 C   0  0  0  0  0  0  0  0  0  0  0  0
   61.9910   34.2180   48.9340 C   0  0  0  0  0  0  0  0  0  0  0  0
   59.3500   33.6510   44.9910 C   0  0  0  0  0  0  0  0  0  0  0  0
   55.7020   30.4820   44.1520 C   0  0  0  0  0  0  0  0  0  0  0  0
   55.6780   29.3200   44.8330 N   0  0  0  0  0  0  0  0  0  0  0  0
   57.1780   27.5963   46.3611 H   0  0  0  0  0  0  0  0  0  0  0  0
   56.5321   26.6579   44.9722 H   0  0  0  0  0  0  0  0  0  0  0  0
   58.2453   27.1981   44.9722 H   0  0  0  0  0  0  0  0  0  0  0  0
   58.6225   29.1904   43.4711 H   0  0  0  0  0  0  0  0  0  0  0  0
   56.0901   32.7242   45.4468 H   0  0  0  0  0  0  0  0  0  0  0  0
   56.7588   33.0308   47.8304 H   0  0  0  0  0  0  0  0  0  0  0  0
   59.0872   33.7162   48.4022 H   0  0  0  0  0  0  0  0  0  0  0  0
   61.7679   34.1482   45.7667 H   0  0  0  0  0  0  0  0  0  0  0  0
   61.1220   35.2795   47.0270 H   0  0  0  0  0  0  0  0  0  0  0  0
   62.7213   32.0632   46.4455 H   0  0  0  0  0  0  0  0  0  0  0  0
   63.6699   33.5183   46.9839 H   0  0  0  0  0  0  0  0  0  0  0  0
   63.7412   30.8632   48.0576 H   0  0  0  0  0  0  0  0  0  0  0  0
   64.6024   32.3646   48.6285 H   0  0  0  0  0  0  0  0  0  0  0  0
   63.2606   31.5256   51.8159 H   0  0  0  0  0  0  0  0  0  0  0  0
   63.5625   30.1241   50.7336 H   0  0  0  0  0  0  0  0  0  0  0  0
   64.6942   31.5191   50.7336 H   0  0  0  0  0  0  0  0  0  0  0  0
   62.0890   30.0760   47.7800 H   0  0  0  0  0  0  0  0  0  0  0  0
   60.2315   28.5948   49.4248 H   0  0  0  0  0  0  0  0  0  0  0  0
   58.1174   29.3472   48.8602 H   0  0  0  0  0  0  0  0  0  0  0  0
   59.0553   30.9195   48.8404 H   0  0  0  0  0  0  0  0  0  0  0  0
   57.7580   29.4233   46.6013 H   0  0  0  0  0  0  0  0  0  0  0  0
   57.9914   31.2053   46.8832 H   0  0  0  0  0  0  0  0  0  0  0  0
   59.2614   30.4112   44.9165 H   0  0  0  0  0  0  0  0  0  0  0  0
   60.3346   31.0226   46.2438 H   0  0  0  0  0  0  0  0  0  0  0  0
   59.9511   28.2213   45.2001 H   0  0  0  0  0  0  0  0  0  0  0  0
   61.4591   29.1206   45.7093 H   0  0  0  0  0  0  0  0  0  0  0  0
   59.5547   27.4737   47.3331 H   0  0  0  0  0  0  0  0  0  0  0  0
   61.3611   27.6678   47.4299 H   0  0  0  0  0  0  0  0  0  0  0  0
   61.7926   33.3894   50.9224 H   0  0  0  0  0  0  0  0  0  0  0  0
   63.4933   33.8141   50.4129 H   0  0  0  0  0  0  0  0  0  0  0  0
   61.0572   34.7064   49.2493 H   0  0  0  0  0  0  0  0  0  0  0  0
   62.7582   34.9599   48.6676 H   0  0  0  0  0  0  0  0  0  0  0  0
   60.0734   33.8505   44.1867 H   0  0  0  0  0  0  0  0  0  0  0  0
   54.8844   31.2169   44.1150 H   0  0  0  0  0  0  0  0  0  0  0  0
  1  2  1  0
  2  3  1  0
  3  4  2  0
  4  5  1  0
  5  6  2  0
  5  7  1  0
  7  8  1  0
  8  9  2  0
  9 10  1  0
 10 11  2  0
 11 12  1  0
 12 13  1  0
 13 14  1  0
 14 15  1  0
 15 16  1  0
 16 17  1  0
 17 18  1  0
 17 19  1  0
 19 20  2  0
 19 21  1  0
 21 22  1  0
 22 23  1  0
 23 24  1  0
 24 25  1  0
 25 26  1  0
 26 27  1  0
 17 28  1  0
 28 29  1  0
 12 30  2  0
  4 31  1  0
 31 32  2  0
 32  2  1  0
 30  8  1  0
 29 14  1  0
 27 22  1  0
  1 33  1  0
  1 34  1  0
  1 35  1  0
  3 36  1  0
  9 37  1  0
 10 38  1  0
 11 39  1  0
 13 40  1  0
 13 41  1  0
 15 42  1  0
 15 43  1  0
 16 44  1  0
 16 45  1  0
 18 46  1  0
 18 47  1  0
 18 48  1  0
 21 49  1  0
 22 50  1  0
 23 51  1  0
 23 52  1  0
 24 53  1  0
 24 54  1  0
 25 55  1  0
 25 56  1  0
 26 57  1  0
 26 58  1  0
 27 59  1  0
 27 60  1  0
 28 61  1  0
 28 62  1  0
 29 63  1  0
 29 64  1  0
 30 65  1  0
 31 66  1  0
M  CHG  1   7  -1
M  END
>  <UniqueID>  (26) 
24

>  <SMILES>  (26) 
Cn1cc(C(=O)[N-]c2cccc(CN3CCC(C)(C(=O)NC4CCCCC4)CC3)c2)cn1

>  <Energy>  (26) 
105.85164131333251

>  <Genealogy>  (26) 
Cn1cc(C(=O)[N-]c2cccc(CN3CCC(C)(C(=O)NC4CCCCC4)CC3)c2)cn1 (protonated)
Cn1cc(C(=O)[N-]c2cccc(CN3CCC(C)(C(=O)NC4CCCCC4)CC3)c2)cn1 (3D coordinates assigned)
Cn1cc(C(=O)[N-]c2cccc(CN3CCC(C)(C(=O)NC4CCCCC4)CC3)c2)cn1 (nonaromatic ring conformer: 105.85164131333251 kcal/mol)

>  <smiles>  (26) 
Cn1cc(C(=O)Nc2cccc(CN3CCC(C)(C(=O)NC4CCCCC4)CC3)c2)cn1

>  <score_type>  (26) 
oracle

>  <origin>  (26) 
adg

>  <m_score__min__energy>  (26) 
-11.300000000000001

>  <m_primary>  (26) 
energy

$$$$
26:0
     RDKit          3D

 44 48  0  0  0  0  0  0  0  0999 V2000
   59.2750   29.3370   46.8160 O   0  0  0  0  0  0  0  0  0  0  0  0
   58.7230   30.1710   46.0450 C   0  0  0  0  0  0  0  0  0  0  0  0
   57.4570   29.8270   45.3900 C   0  0  0  0  0  0  0  0  0  0  0  0
   56.6660   30.7940   44.8580 C   0  0  0  0  0  0  0  0  0  0  0  0
   55.5020   30.2670   44.4370 N   0  0  0  0  0  0  0  0  0  0  0  0
   55.5290   28.9670   44.7080 N   0  0  0  0  0  0  0  0  0  0  0  0
   56.7120   28.6660   45.2920 C   0  0  0  0  0  0  0  0  0  0  0  0
   57.0900   27.3010   45.7060 C   0  0  0  0  0  0  0  0  0  0  0  0
   58.4250   26.8670   45.6350 C   0  0  0  0  0  0  0  0  0  0  0  0
   58.7630   25.5620   46.0100 C   0  0  0  0  0  0  0  0  0  0  0  0
   57.7720   24.6780   46.4440 C   0  0  0  0  0  0  0  0  0  0  0  0
   56.4390   25.0940   46.4950 C   0  0  0  0  0  0  0  0  0  0  0  0
   56.0960   26.3970   46.1210 C   0  0  0  0  0  0  0  0  0  0  0  0
   57.0870   32.2220   44.7720 C   0  0  0  0  0  0  0  0  0  0  0  0
   58.2000   32.5160   45.8110 C   0  0  0  0  0  0  0  0  0  0  0  0
   59.2920   31.4960   45.8000 N   0  0  1  0  0  0  0  0  0  0  0  0
   60.3870   31.8030   46.7760 C   0  0  1  0  0  0  0  0  0  0  0  0
   61.0970   33.1410   46.4080 C   0  0  0  0  0  0  0  0  0  0  0  0
   60.5480   34.2210   47.3520 C   0  0  0  0  0  0  0  0  0  0  0  0
   59.9730   33.4380   48.4640 C   0  0  0  0  0  0  0  0  0  0  0  0
   59.6120   33.9250   49.7240 C   0  0  0  0  0  0  0  0  0  0  0  0
   59.2010   33.0130   50.7060 C   0  0  0  0  0  0  0  0  0  0  0  0
   59.1820   31.6360   50.4280 C   0  0  0  0  0  0  0  0  0  0  0  0
   58.8180   30.7550   51.3910 F   0  0  0  0  0  0  0  0  0  0  0  0
   59.5540   31.1690   49.1570 C   0  0  0  0  0  0  0  0  0  0  0  0
   59.9020   32.0990   48.1670 C   0  0  0  0  0  0  0  0  0  0  0  0
   59.2071   27.5559   45.2833 H   0  0  0  0  0  0  0  0  0  0  0  0
   59.8111   25.2314   45.9630 H   0  0  0  0  0  0  0  0  0  0  0  0
   58.0410   23.6549   46.7455 H   0  0  0  0  0  0  0  0  0  0  0  0
   55.6582   24.3953   46.8299 H   0  0  0  0  0  0  0  0  0  0  0  0
   55.0438   26.7163   46.1516 H   0  0  0  0  0  0  0  0  0  0  0  0
   57.4698   32.4277   43.7615 H   0  0  0  0  0  0  0  0  0  0  0  0
   56.2199   32.8651   44.9833 H   0  0  0  0  0  0  0  0  0  0  0  0
   58.6373   33.5003   45.5875 H   0  0  0  0  0  0  0  0  0  0  0  0
   57.7353   32.4904   46.8077 H   0  0  0  0  0  0  0  0  0  0  0  0
   59.6990   31.4890   44.8340 H   0  0  0  0  0  0  0  0  0  0  0  0
   61.0192   30.9038   46.7354 H   0  0  0  0  0  0  0  0  0  0  0  0
   62.1841   33.0402   46.5424 H   0  0  0  0  0  0  0  0  0  0  0  0
   60.9077   33.4075   45.3577 H   0  0  0  0  0  0  0  0  0  0  0  0
   61.3537   34.8795   47.7087 H   0  0  0  0  0  0  0  0  0  0  0  0
   59.8159   34.8845   46.8684 H   0  0  0  0  0  0  0  0  0  0  0  0
   59.6498   35.0028   49.9404 H   0  0  0  0  0  0  0  0  0  0  0  0
   58.8924   33.3766   51.6973 H   0  0  0  0  0  0  0  0  0  0  0  0
   59.5721   30.0905   48.9414 H   0  0  0  0  0  0  0  0  0  0  0  0
  1  2  2  0
  2  3  1  0
  3  4  1  0
  4  5  2  0
  5  6  1  0
  6  7  1  0
  7  8  1  0
  8  9  2  0
  9 10  1  0
 10 11  2  0
 11 12  1  0
 12 13  2  0
  4 14  1  0
 14 15  1  0
 15 16  1  0
 16 17  1  0
 17 18  1  0
 18 19  1  0
 19 20  1  0
 20 21  2  0
 21 22  1  0
 22 23  2  0
 23 24  1  0
 23 25  1  0
 25 26  2  0
 16  2  1  0
 26 17  1  0
  7  3  2  0
 13  8  1  0
 26 20  1  0
  9 27  1  0
 10 28  1  0
 11 29  1  0
 12 30  1  0
 13 31  1  0
 14 32  1  0
 14 33  1  0
 15 34  1  0
 15 35  1  0
 16 36  1  6
 17 37  1  1
 18 38  1  0
 18 39  1  0
 19 40  1  0
 19 41  1  0
 21 42  1  0
 22 43  1  0
 25 44  1  0
M  CHG  2   6  -1  16   1
M  END
>  <UniqueID>  (27) 
25

>  <SMILES>  (27) 
O=C1c2c(n[n-]c2-c2ccccc2)CC[N@H+]1[C@H]1CCc2ccc(F)cc21

>  <Energy>  (27) 
109.40935098989718

>  <Genealogy>  (27) 
O=C1c2c(n[n-]c2-c2ccccc2)CC[NH+]1C1CCc2ccc(F)cc21 (protonated)
O=C1c2c(n[n-]c2-c2ccccc2)CC[N@H+]1[C@H]1CCc2ccc(F)cc21 (chirality)
O=C1c2c(n[n-]c2-c2ccccc2)CC[N@H+]1[C@H]1CCc2ccc(F)cc21 (3D coordinates assigned)
O=C1c2c(n[n-]c2-c2ccccc2)CC[N@H+]1[C@H]1CCc2ccc(F)cc21 (nonaromatic ring conformer: 109.40935098989718 kcal/mol)

>  <smiles>  (27) 
O=C1c2c(n[nH]c2-c2ccccc2)CCN1C1CCc2ccc(F)cc21

>  <score_type>  (27) 
oracle

>  <origin>  (27) 
adg

>  <m_score__min__energy>  (27) 
-8.5199999999999996

>  <m_primary>  (27) 
energy

$$$$
27:0
     RDKit          3D

 41 44  0  0  0  0  0  0  0  0999 V2000
   55.7500   26.6750   45.8520 O   0  0  0  0  0  0  0  0  0  0  0  0
   56.2580   27.8030   45.6170 C   0  0  0  0  0  0  0  0  0  0  0  0
   55.5970   28.8340   44.8920 N   0  0  0  0  0  0  0  0  0  0  0  0
   56.5060   29.9850   44.8370 C   0  0  0  0  0  0  0  0  0  0  0  0
   57.7250   29.5230   45.5790 C   0  0  0  0  0  0  0  0  0  0  0  0
   58.8980   30.2340   45.8400 C   0  0  0  0  0  0  0  0  0  0  0  0
   59.9290   29.5970   46.5710 C   0  0  0  0  0  0  0  0  0  0  0  0
   61.1540   30.2690   46.8940 N   0  0  0  0  0  0  0  0  0  0  0  0
   61.4880   30.8870   48.1450 C   0  0  0  0  0  0  0  0  0  0  0  0
   62.6770   31.2310   48.3860 O   0  0  0  0  0  0  0  0  0  0  0  0
   60.4330   31.0930   49.1650 C   0  0  0  0  0  0  0  0  0  0  0  0
   60.1820   30.0690   50.0980 C   0  0  0  0  0  0  0  0  0  0  0  0
   59.1460   30.1900   51.0270 C   0  0  0  0  0  0  0  0  0  0  0  0
   58.3450   31.3310   51.0370 C   0  0  0  0  0  0  0  0  0  0  0  0
   58.5890   32.3640   50.1310 C   0  0  0  0  0  0  0  0  0  0  0  0
   59.6410   32.2700   49.2090 C   0  0  0  0  0  0  0  0  0  0  0  0
   59.8930   33.3880   48.3430 N   0  0  0  0  0  0  0  0  0  0  0  0
   59.1260   33.6710   47.1570 C   0  0  0  0  0  0  0  0  0  0  0  0
   57.8020   33.2130   47.0690 C   0  0  0  0  0  0  0  0  0  0  0  0
   57.0370   33.4710   45.9290 C   0  0  0  0  0  0  0  0  0  0  0  0
   57.5850   34.1950   44.8670 C   0  0  0  0  0  0  0  0  0  0  0  0
   58.8970   34.6670   44.9480 C   0  0  0  0  0  0  0  0  0  0  0  0
   59.6660   34.4120   46.0870 C   0  0  0  0  0  0  0  0  0  0  0  0
   59.7340   28.2830   47.0500 C   0  0  0  0  0  0  0  0  0  0  0  0
   58.5450   27.5880   46.7780 C   0  0  0  0  0  0  0  0  0  0  0  0
   57.5630   28.2380   46.0350 C   0  0  0  0  0  0  0  0  0  0  0  0
   56.7547   30.2370   43.7955 H   0  0  0  0  0  0  0  0  0  0  0  0
   56.0647   30.8932   45.2733 H   0  0  0  0  0  0  0  0  0  0  0  0
   59.0183   31.2681   45.4847 H   0  0  0  0  0  0  0  0  0  0  0  0
   60.8081   29.1645   50.0953 H   0  0  0  0  0  0  0  0  0  0  0  0
   58.9618   29.3835   51.7520 H   0  0  0  0  0  0  0  0  0  0  0  0
   57.5201   31.4171   51.7595 H   0  0  0  0  0  0  0  0  0  0  0  0
   57.9505   33.2597   50.1403 H   0  0  0  0  0  0  0  0  0  0  0  0
   60.7590   33.9460   48.5180 H   0  0  0  0  0  0  0  0  0  0  0  0
   57.3636   32.6467   47.9040 H   0  0  0  0  0  0  0  0  0  0  0  0
   56.0020   33.1038   45.8673 H   0  0  0  0  0  0  0  0  0  0  0  0
   56.9834   34.3931   43.9676 H   0  0  0  0  0  0  0  0  0  0  0  0
   59.3262   35.2408   44.1134 H   0  0  0  0  0  0  0  0  0  0  0  0
   60.6967   34.7912   46.1483 H   0  0  0  0  0  0  0  0  0  0  0  0
   60.5232   27.7982   47.6434 H   0  0  0  0  0  0  0  0  0  0  0  0
   58.3936   26.5607   47.1410 H   0  0  0  0  0  0  0  0  0  0  0  0
  1  2  2  0
  2  3  1  0
  3  4  1  0
  4  5  1  0
  5  6  2  0
  6  7  1  0
  7  8  1  0
  8  9  1  0
  9 10  2  0
  9 11  1  0
 11 12  2  0
 12 13  1  0
 13 14  2  0
 14 15  1  0
 15 16  2  0
 16 17  1  0
 17 18  1  0
 18 19  2  0
 19 20  1  0
 20 21  2  0
 21 22  1  0
 22 23  2  0
  7 24  2  0
 24 25  1  0
 25 26  2  0
 26  2  1  0
 26  5  1  0
 16 11  1  0
 23 18  1  0
  4 27  1  0
  4 28  1  0
  6 29  1  0
 12 30  1  0
 13 31  1  0
 14 32  1  0
 15 33  1  0
 17 34  1  0
 19 35  1  0
 20 36  1  0
 21 37  1  0
 22 38  1  0
 23 39  1  0
 24 40  1  0
 25 41  1  0
M  CHG  2   3  -1   8  -1
M  END
>  <UniqueID>  (28) 
26

>  <SMILES>  (28) 
O=C1[N-]Cc2cc([N-]C(=O)c3ccccc3Nc3ccccc3)ccc21

>  <Energy>  (28) 
81.30395860702787

>  <Genealogy>  (28) 
O=C1[N-]Cc2cc([N-]C(=O)c3ccccc3Nc3ccccc3)ccc21 (protonated)
O=C1[N-]Cc2cc([N-]C(=O)c3ccccc3Nc3ccccc3)ccc21 (3D coordinates assigned)
O=C1[N-]Cc2cc([N-]C(=O)c3ccccc3Nc3ccccc3)ccc21 (nonaromatic ring conformer: 81.30395860702787 kcal/mol)

>  <smiles>  (28) 
O=C1NCc2cc(NC(=O)c3ccccc3Nc3ccccc3)ccc21

>  <score_type>  (28) 
oracle

>  <origin>  (28) 
adg

>  <m_score__min__energy>  (28) 
-11.949999999999999

>  <m_primary>  (28) 
energy

$$$$
28:0
     RDKit          3D

 65 70  0  0  0  0  0  0  0  0999 V2000
   67.4980   32.5189   50.8920 H   0  0  0  0  0  0  0  0  0  0  0  0
   66.4470   32.2050   50.8090 C   0  0  0  0  0  0  0  0  0  0  0  0
   65.6510   32.7440   49.8490 N   0  0  0  0  0  0  0  0  0  0  0  0
   64.3410   32.3890   49.7060 C   0  0  0  0  0  0  0  0  0  0  0  0
   63.5270   32.9930   48.6230 C   0  0  0  0  0  0  0  0  0  0  0  0
   62.1720   33.0450   48.7370 N   0  0  0  0  0  0  0  0  0  0  0  0
   61.3890   33.5540   47.7500 C   0  0  0  0  0  0  0  0  0  0  0  0
   60.1000   33.5730   47.9070 N   0  0  0  0  0  0  0  0  0  0  0  0
   59.1320   32.9500   47.0490 C   0  0  0  0  0  0  0  0  0  0  0  0
   58.1460   33.7040   46.3880 C   0  0  0  0  0  0  0  0  0  0  0  0
   58.0629   34.7837   46.5815 H   0  0  0  0  0  0  0  0  0  0  0  0
   57.2710   33.0910   45.4870 C   0  0  0  0  0  0  0  0  0  0  0  0
   56.4979   33.6876   44.9806 H   0  0  0  0  0  0  0  0  0  0  0  0
   57.3760   31.7220   45.2280 C   0  0  0  0  0  0  0  0  0  0  0  0
   56.5560   31.1330   44.3180 N   0  0  0  0  0  0  0  0  0  0  0  0
   56.6360   29.8080   44.0290 C   0  0  0  0  0  0  0  0  0  0  0  0
   55.9704   29.3730   43.2689 H   0  0  0  0  0  0  0  0  0  0  0  0
   57.5650   28.9890   44.6960 C   0  0  0  0  0  0  0  0  0  0  0  0
   57.7220   27.5500   44.3820 C   0  0  0  0  0  0  0  0  0  0  0  0
   57.9220   27.2260   43.1800 O   0  0  0  0  0  0  0  0  0  0  0  0
   57.7530   26.5240   45.4040 N   0  0  0  0  0  0  0  0  0  0  0  0
   58.6830   25.3930   45.2600 C   0  0  0  0  0  0  0  0  0  0  0  0
   59.4896   25.4883   46.0019 H   0  0  0  0  0  0  0  0  0  0  0  0
   59.1059   25.4014   44.2446 H   0  0  0  0  0  0  0  0  0  0  0  0
   57.9420   24.0710   45.4840 C   0  0  0  0  0  0  0  0  0  0  0  0
   58.6788   23.2714   45.6505 H   0  0  0  0  0  0  0  0  0  0  0  0
   57.3323   23.8605   44.5930 H   0  0  0  0  0  0  0  0  0  0  0  0
   57.0480   24.1480   46.6490 N   0  0  0  0  0  0  0  0  0  0  0  0
   56.0620   23.1180   46.8480 C   0  0  0  0  0  0  0  0  0  0  0  0
   54.9320   23.0690   46.0150 C   0  0  0  0  0  0  0  0  0  0  0  0
   54.7907   23.8373   45.2406 H   0  0  0  0  0  0  0  0  0  0  0  0
   53.9870   22.0520   46.1630 C   0  0  0  0  0  0  0  0  0  0  0  0
   53.1063   22.0198   45.5047 H   0  0  0  0  0  0  0  0  0  0  0  0
   54.1590   21.0770   47.1450 C   0  0  0  0  0  0  0  0  0  0  0  0
   53.4160   20.2736   47.2565 H   0  0  0  0  0  0  0  0  0  0  0  0
   55.2720   21.1180   47.9870 C   0  0  0  0  0  0  0  0  0  0  0  0
   55.4008   20.3466   48.7606 H   0  0  0  0  0  0  0  0  0  0  0  0
   56.2320   22.1420   47.8520 C   0  0  0  0  0  0  0  0  0  0  0  0
   57.3470   22.2270   48.6990 O   0  0  0  0  0  0  0  0  0  0  0  0
   57.3180   21.9840   50.1030 C   0  0  0  0  0  0  0  0  0  0  0  0
   57.4316   22.9360   50.6423 H   0  0  0  0  0  0  0  0  0  0  0  0
   56.3582   21.5207   50.3752 H   0  0  0  0  0  0  0  0  0  0  0  0
   58.1418   21.3078   50.3752 H   0  0  0  0  0  0  0  0  0  0  0  0
   57.0350   25.3550   47.4820 C   0  0  0  0  0  0  0  0  0  0  0  0
   57.9768   25.4193   48.0468 H   0  0  0  0  0  0  0  0  0  0  0  0
   56.1870   25.3054   48.1808 H   0  0  0  0  0  0  0  0  0  0  0  0
   56.8880   26.5960   46.5940 C   0  0  0  0  0  0  0  0  0  0  0  0
   57.1611   27.4866   47.1791 H   0  0  0  0  0  0  0  0  0  0  0  0
   55.8433   26.6507   46.2539 H   0  0  0  0  0  0  0  0  0  0  0  0
   58.4420   29.5850   45.6150 C   0  0  0  0  0  0  0  0  0  0  0  0
   59.1993   28.9714   46.1249 H   0  0  0  0  0  0  0  0  0  0  0  0
   58.3590   30.9560   45.8870 C   0  0  0  0  0  0  0  0  0  0  0  0
   59.2420   31.5780   46.7840 C   0  0  0  0  0  0  0  0  0  0  0  0
   60.0241   30.9856   47.2814 H   0  0  0  0  0  0  0  0  0  0  0  0
   61.9690   34.0540   46.6250 N   0  0  0  0  0  0  0  0  0  0  0  0
   63.3160   34.0380   46.4660 C   0  0  0  0  0  0  0  0  0  0  0  0
   63.7664   34.4523   45.5519 H   0  0  0  0  0  0  0  0  0  0  0  0
   64.1300   33.4970   47.4600 C   0  0  0  0  0  0  0  0  0  0  0  0
   65.2225   33.4657   47.3355 H   0  0  0  0  0  0  0  0  0  0  0  0
   63.7930   31.4350   50.5810 C   0  0  0  0  0  0  0  0  0  0  0  0
   62.7387   31.1365   50.4844 H   0  0  0  0  0  0  0  0  0  0  0  0
   64.5950   30.8690   51.5730 C   0  0  0  0  0  0  0  0  0  0  0  0
   64.1748   30.1214   52.2618 H   0  0  0  0  0  0  0  0  0  0  0  0
   65.9320   31.2540   51.6890 C   0  0  0  0  0  0  0  0  0  0  0  0
   66.5723   30.8117   52.4664 H   0  0  0  0  0  0  0  0  0  0  0  0
  1  2  1  0
  2  3  2  0
  3  4  1  0
  4  5  1  0
  5  6  2  0
  6  7  1  0
  7  8  2  0
  8  9  1  0
  9 10  2  0
 10 11  1  0
 10 12  1  0
 12 13  1  0
 12 14  2  0
 14 15  1  0
 15 16  2  0
 16 17  1  0
 16 18  1  0
 18 19  1  0
 19 20  2  0
 19 21  1  0
 21 22  1  0
 22 23  1  0
 22 24  1  0
 22 25  1  0
 25 26  1  0
 25 27  1  0
 25 28  1  0
 28 29  1  0
 29 30  2  0
 30 31  1  0
 30 32  1  0
 32 33  1  0
 32 34  2  0
 34 35  1  0
 34 36  1  0
 36 37  1  0
 36 38  2  0
 38 39  1  0
 39 40  1  0
 40 41  1  0
 40 42  1  0
 40 43  1  0
 28 44  1  0
 44 45  1  0
 44 46  1  0
 44 47  1  0
 47 48  1  0
 47 49  1  0
 18 50  2  0
 50 51  1  0
 50 52  1  0
 52 53  2  0
 53 54  1  0
  7 55  1  0
 55 56  1  0
 56 57  1  0
 56 58  2  0
 58 59  1  0
  4 60  2  0
 60 61  1  0
 60 62  1  0
 62 63  1  0
 62 64  2  0
 64 65  1  0
 64  2  1  0
 58  5  1  0
 53  9  1  0
 52 14  1  0
 47 21  1  0
 38 29  1  0
M  CHG  1  55  -1
M  END
>  <UniqueID>  (29) 
27

>  <SMILES>  (29) 
COc1ccccc1N1CCN(C(=O)c2cnc3ccc(/N=c4/nc(-c5ccccn5)cc[n-]4)cc3c2)CC1

>  <Energy>  (29) 
101.21271550644187

>  <Genealogy>  (29) 
COc1ccccc1N1CCN(C(=O)c2cnc3ccc(N=c4nc(-c5ccccn5)cc[n-]4)cc3c2)CC1 (protonated)
COc1ccccc1N1CCN(C(=O)c2cnc3ccc(/N=c4/nc(-c5ccccn5)cc[n-]4)cc3c2)CC1 (cis-trans isomerization)
COc1ccccc1N1CCN(C(=O)c2cnc3ccc(/N=c4/nc(-c5ccccn5)cc[n-]4)cc3c2)CC1 (3D coordinates assigned)
COc1ccccc1N1CCN(C(=O)c2cnc3ccc(/N=c4/nc(-c5ccccn5)cc[n-]4)cc3c2)CC1 (nonaromatic ring conformer: 101.21271550644187 kcal/mol)

>  <smiles>  (29) 
COc1ccccc1N1CCN(C(=O)c2cnc3ccc(N=c4nc(-c5ccccn5)cc[nH]4)cc3c2)CC1

>  <score_type>  (29) 
oracle

>  <origin>  (29) 
adg

>  <m_score__min__energy>  (29) 
-11.59

>  <m_primary>  (29) 
energy

$$$$
29:0
     RDKit          3D

 44 47  0  0  0  0  0  0  0  0999 V2000
   56.1060   22.0090   41.5530 H   0  0  0  0  0  0  0  0  0  0  0  0
   55.9020   21.8260   42.5650 N   0  0  0  0  0  0  0  0  0  0  0  0
   55.8870   22.7970   43.4310 C   0  0  0  0  0  0  0  0  0  0  0  0
   54.8580   22.9150   44.3160 N   0  0  0  0  0  0  0  0  0  0  0  0
   54.7820   23.9470   45.2010 C   0  0  0  0  0  0  0  0  0  0  0  0
   53.9565   23.9897   45.9267 H   0  0  0  0  0  0  0  0  0  0  0  0
   55.7580   24.9570   45.1870 C   0  0  0  0  0  0  0  0  0  0  0  0
   55.6560   26.1210   46.0230 N   0  0  0  0  0  0  0  0  0  0  0  0
   56.4530   27.3110   45.8840 C   0  0  0  0  0  0  0  0  0  0  0  0
   56.0090   28.3080   45.2450 O   0  0  0  0  0  0  0  0  0  0  0  0
   57.8380   27.3460   46.4030 C   0  0  0  0  0  0  0  0  0  0  0  0
   58.7040   26.2560   46.1920 C   0  0  0  0  0  0  0  0  0  0  0  0
   58.3603   25.3911   45.6056 H   0  0  0  0  0  0  0  0  0  0  0  0
   59.9940   26.2650   46.7210 C   0  0  0  0  0  0  0  0  0  0  0  0
   60.6657   25.4118   46.5453 H   0  0  0  0  0  0  0  0  0  0  0  0
   60.4340   27.3550   47.4730 C   0  0  0  0  0  0  0  0  0  0  0  0
   61.4589   27.3675   47.8722 H   0  0  0  0  0  0  0  0  0  0  0  0
   59.5730   28.4360   47.7220 C   0  0  0  0  0  0  0  0  0  0  0  0
   60.0050   29.5420   48.5190 N   0  0  0  0  0  0  0  0  0  0  0  0
   59.2330   30.7430   48.6550 C   0  0  0  0  0  0  0  0  0  0  0  0
   58.3260   30.8050   49.5200 O   0  0  0  0  0  0  0  0  0  0  0  0
   59.5450   31.9400   47.8370 C   0  0  0  0  0  0  0  0  0  0  0  0
   58.4820   32.6470   47.2580 C   0  0  0  0  0  0  0  0  0  0  0  0
   57.4462   32.3452   47.4726 H   0  0  0  0  0  0  0  0  0  0  0  0
   58.7250   33.7300   46.4120 C   0  0  0  0  0  0  0  0  0  0  0  0
   57.8820   34.2871   45.9772 H   0  0  0  0  0  0  0  0  0  0  0  0
   60.0340   34.1070   46.1170 C   0  0  0  0  0  0  0  0  0  0  0  0
   60.2194   34.9359   45.4181 H   0  0  0  0  0  0  0  0  0  0  0  0
   61.1140   33.4380   46.7040 C   0  0  0  0  0  0  0  0  0  0  0  0
   62.4330   33.8370   46.4250 C   0  0  0  0  0  0  0  0  0  0  0  0
   62.6166   34.6784   45.7406 H   0  0  0  0  0  0  0  0  0  0  0  0
   63.5120   33.1710   47.0120 C   0  0  0  0  0  0  0  0  0  0  0  0
   64.5410   33.4837   46.7809 H   0  0  0  0  0  0  0  0  0  0  0  0
   63.2880   32.1110   47.8900 C   0  0  0  0  0  0  0  0  0  0  0  0
   64.1402   31.5934   48.3546 H   0  0  0  0  0  0  0  0  0  0  0  0
   61.9850   31.7060   48.1800 C   0  0  0  0  0  0  0  0  0  0  0  0
   61.8164   30.8873   48.8951 H   0  0  0  0  0  0  0  0  0  0  0  0
   60.8820   32.3340   47.5670 C   0  0  0  0  0  0  0  0  0  0  0  0
   58.2870   28.4400   47.1620 C   0  0  0  0  0  0  0  0  0  0  0  0
   57.6257   29.3051   47.3180 H   0  0  0  0  0  0  0  0  0  0  0  0
   56.8560   24.8220   44.3280 C   0  0  0  0  0  0  0  0  0  0  0  0
   57.6698   25.5616   44.3553 H   0  0  0  0  0  0  0  0  0  0  0  0
   56.9180   23.7450   43.4340 C   0  0  0  0  0  0  0  0  0  0  0  0
   57.7672   23.6451   42.7420 H   0  0  0  0  0  0  0  0  0  0  0  0
  1  2  1  0
  2  3  2  0
  3  4  1  0
  4  5  1  0
  5  6  1  0
  5  7  2  0
  7  8  1  0
  8  9  1  0
  9 10  2  0
  9 11  1  0
 11 12  2  0
 12 13  1  0
 12 14  1  0
 14 15  1  0
 14 16  2  0
 16 17  1  0
 16 18  1  0
 18 19  1  0
 19 20  1  0
 20 21  2  0
 20 22  1  0
 22 23  2  0
 23 24  1  0
 23 25  1  0
 25 26  1  0
 25 27  2  0
 27 28  1  0
 27 29  1  0
 29 30  2  0
 30 31  1  0
 30 32  1  0
 32 33  1  0
 32 34  2  0
 34 35  1  0
 34 36  1  0
 36 37  1  0
 36 38  2  0
 18 39  2  0
 39 40  1  0
  7 41  1  0
 41 42  1  0
 41 43  2  0
 43 44  1  0
 43  3  1  0
 39 11  1  0
 38 22  1  0
 38 29  1  0
M  CHG  3   4  -1   8  -1  19  -1
M  END
>  <UniqueID>  (30) 
28

>  <SMILES>  (30) 
[H]/N=c1/ccc([N-]C(=O)c2cccc([N-]C(=O)c3cccc4ccccc34)c2)c[n-]1

>  <Energy>  (30) 
70.87453510882783

>  <Genealogy>  (30) 
N=c1ccc([N-]C(=O)c2cccc([N-]C(=O)c3cccc4ccccc34)c2)c[n-]1 (protonated)
[H]/N=c1/ccc([N-]C(=O)c2cccc([N-]C(=O)c3cccc4ccccc34)c2)c[n-]1 (cis-trans isomerization)
[H]/N=c1/ccc([N-]C(=O)c2cccc([N-]C(=O)c3cccc4ccccc34)c2)c[n-]1 (3D coordinates assigned)
[H]/N=c1/ccc([N-]C(=O)c2cccc([N-]C(=O)c3cccc4ccccc34)c2)c[n-]1 (optimized conformer: 70.87453510882783 kcal/mol)

>  <smiles>  (30) 
N=c1ccc(NC(=O)c2cccc(NC(=O)c3cccc4ccccc34)c2)c[nH]1

>  <score_type>  (30) 
oracle

>  <origin>  (30) 
adg

>  <m_score__min__energy>  (30) 
-14.49

>  <m_primary>  (30) 
energy

$$$$
30:0
     RDKit          3D

 49 52  0  0  0  0  0  0  0  0999 V2000
   55.9010   26.1350   45.9780 C   0  0  0  0  0  0  0  0  0  0  0  0
   56.7840   27.2940   45.6260 C   0  0  0  0  0  0  0  0  0  0  0  0
   56.1940   28.4690   45.2470 N   0  0  0  0  0  0  0  0  0  0  0  0
   56.9730   29.5310   44.9340 C   0  0  0  0  0  0  0  0  0  0  0  0
   56.5320   30.7390   44.5420 N   0  0  0  0  0  0  0  0  0  0  0  0
   57.7130   31.3910   44.3620 C   0  0  0  0  0  0  0  0  0  0  0  0
   57.8160   33.0810   43.7740 S   0  0  0  0  0  0  0  0  0  0  0  0
   57.3130   33.8130   45.3700 C   0  0  0  0  0  0  0  0  0  0  0  0
   58.5080   34.0580   46.2480 C   0  0  0  0  0  0  0  0  0  0  0  0
   58.8980   35.2440   46.4380 O   0  0  0  0  0  0  0  0  0  0  0  0
   59.2220   32.9610   46.8480 N   0  0  0  0  0  0  0  0  0  0  0  0
   58.5280   31.9410   47.6160 C   0  0  0  0  0  0  0  0  0  0  0  0
   58.5510   32.3100   49.0990 C   0  0  0  0  0  0  0  0  0  0  0  0
   59.7900   32.9910   49.5600 N   0  0  0  0  0  0  0  0  0  0  0  0
   59.9280   33.2970   50.9860 C   0  0  0  0  0  0  0  0  0  0  0  0
   61.1640   33.1220   51.6620 C   0  0  0  0  0  0  0  0  0  0  0  0
   61.2890   33.4050   53.0260 C   0  0  0  0  0  0  0  0  0  0  0  0
   60.1940   33.8740   53.7490 C   0  0  0  0  0  0  0  0  0  0  0  0
   58.9720   34.0680   53.1090 C   0  0  0  0  0  0  0  0  0  0  0  0
   58.8370   33.7880   51.7450 C   0  0  0  0  0  0  0  0  0  0  0  0
   60.8140   33.5130   48.6190 C   0  0  0  0  0  0  0  0  0  0  0  0
   60.6370   33.0780   47.1600 C   0  0  0  0  0  0  0  0  0  0  0  0
   58.8010   30.6280   44.6280 N   0  0  0  0  0  0  0  0  0  0  0  0
   58.3000   29.4620   44.9860 N   0  0  0  0  0  0  0  0  0  0  0  0
   58.9660   28.3430   45.3540 C   0  0  0  0  0  0  0  0  0  0  0  0
   60.2270   28.3330   45.3790 O   0  0  0  0  0  0  0  0  0  0  0  0
   58.2070   27.2000   45.7040 C   0  0  0  0  0  0  0  0  0  0  0  0
   58.8790   25.9150   46.1220 C   0  0  0  0  0  0  0  0  0  0  0  0
   55.8326   26.0452   47.0722 H   0  0  0  0  0  0  0  0  0  0  0  0
   54.8968   26.2989   45.5601 H   0  0  0  0  0  0  0  0  0  0  0  0
   56.3256   25.2103   45.5601 H   0  0  0  0  0  0  0  0  0  0  0  0
   56.8017   34.7688   45.1827 H   0  0  0  0  0  0  0  0  0  0  0  0
   56.6389   33.1105   45.8819 H   0  0  0  0  0  0  0  0  0  0  0  0
   57.4854   31.8706   47.2726 H   0  0  0  0  0  0  0  0  0  0  0  0
   59.0295   30.9724   47.4732 H   0  0  0  0  0  0  0  0  0  0  0  0
   57.7005   32.9790   49.2970 H   0  0  0  0  0  0  0  0  0  0  0  0
   58.4992   31.3605   49.6520 H   0  0  0  0  0  0  0  0  0  0  0  0
   62.0386   32.7575   51.1033 H   0  0  0  0  0  0  0  0  0  0  0  0
   62.2555   33.2568   53.5300 H   0  0  0  0  0  0  0  0  0  0  0  0
   60.2943   34.0906   54.8228 H   0  0  0  0  0  0  0  0  0  0  0  0
   58.1091   34.4431   53.6788 H   0  0  0  0  0  0  0  0  0  0  0  0
   57.8668   33.9519   51.2532 H   0  0  0  0  0  0  0  0  0  0  0  0
   60.7801   34.6119   48.6536 H   0  0  0  0  0  0  0  0  0  0  0  0
   61.7760   33.0942   48.9494 H   0  0  0  0  0  0  0  0  0  0  0  0
   61.0961   33.8267   46.4977 H   0  0  0  0  0  0  0  0  0  0  0  0
   61.1231   32.1026   47.0109 H   0  0  0  0  0  0  0  0  0  0  0  0
   58.9092   25.8573   47.2201 H   0  0  0  0  0  0  0  0  0  0  0  0
   58.3129   25.0593   45.7253 H   0  0  0  0  0  0  0  0  0  0  0  0
   59.9047   25.8917   45.7253 H   0  0  0  0  0  0  0  0  0  0  0  0
  1  2  1  0
  2  3  1  0
  3  4  1  0
  4  5  2  0
  5  6  1  0
  6  7  1  0
  7  8  1  0
  8  9  1  0
  9 10  2  0
  9 11  1  0
 11 12  1  0
 12 13  1  0
 13 14  1  0
 14 15  1  0
 15 16  2  0
 16 17  1  0
 17 18  2  0
 18 19  1  0
 19 20  2  0
 14 21  1  0
 21 22  1  0
  6 23  2  0
 23 24  1  0
 24 25  1  0
 25 26  2  0
 25 27  1  0
 27 28  1  0
 27  2  2  0
 24  4  1  0
 22 11  1  0
 20 15  1  0
  1 29  1  0
  1 30  1  0
  1 31  1  0
  8 32  1  0
  8 33  1  0
 12 34  1  0
 12 35  1  0
 13 36  1  0
 13 37  1  0
 16 38  1  0
 17 39  1  0
 18 40  1  0
 19 41  1  0
 20 42  1  0
 21 43  1  0
 21 44  1  0
 22 45  1  0
 22 46  1  0
 28 47  1  0
 28 48  1  0
 28 49  1  0
M  CHG  1   3  -1
M  END
>  <UniqueID>  (31) 
29

>  <SMILES>  (31) 
Cc1[n-]c2nc(SCC(=O)N3CCN(c4ccccc4)CC3)nn2c(=O)c1C

>  <Energy>  (31) 
99.65344040006825

>  <Genealogy>  (31) 
Cc1[n-]c2nc(SCC(=O)N3CCN(c4ccccc4)CC3)nn2c(=O)c1C (protonated)
Cc1[n-]c2nc(SCC(=O)N3CCN(c4ccccc4)CC3)nn2c(=O)c1C (3D coordinates assigned)
Cc1[n-]c2nc(SCC(=O)N3CCN(c4ccccc4)CC3)nn2c(=O)c1C (nonaromatic ring conformer: 99.65344040006825 kcal/mol)

>  <smiles>  (31) 
Cc1[nH]c2nc(SCC(=O)N3CCN(c4ccccc4)CC3)nn2c(=O)c1C

>  <score_type>  (31) 
oracle

>  <origin>  (31) 
adg

>  <m_score__min__energy>  (31) 
-9.5800000000000001

>  <m_primary>  (31) 
energy

$$$$
31:0
     RDKit          3D

 62 66  0  0  0  0  0  0  0  0999 V2000
   58.6921   26.1375   42.7050 H   0  0  0  0  0  0  0  0  0  0  0  0
   58.1310   26.5140   43.5730 C   0  0  0  0  0  0  0  0  0  0  0  0
   58.0170   27.8910   43.7870 C   0  0  0  0  0  0  0  0  0  0  0  0
   58.4809   28.5946   43.0800 H   0  0  0  0  0  0  0  0  0  0  0  0
   57.3120   28.3820   44.9020 C   0  0  0  0  0  0  0  0  0  0  0  0
   57.1920   29.8430   45.1270 C   0  0  0  0  0  0  0  0  0  0  0  0
   56.2430   30.4830   44.5990 O   0  0  0  0  0  0  0  0  0  0  0  0
   58.1370   30.5470   45.9530 N   0  0  0  0  0  0  0  0  0  0  0  0
   58.4140   31.8790   45.9350 C   0  0  0  0  0  0  0  0  0  0  0  0
   57.7730   32.8740   45.0100 C   0  0  0  0  0  0  0  0  0  0  0  0
   57.2707   33.6537   45.6014 H   0  0  0  0  0  0  0  0  0  0  0  0
   58.5445   33.3349   44.3756 H   0  0  0  0  0  0  0  0  0  0  0  0
   57.0344   32.3620   44.3756 H   0  0  0  0  0  0  0  0  0  0  0  0
   59.3870   32.1830   46.8910 C   0  0  0  0  0  0  0  0  0  0  0  0
   59.9600   33.5420   47.2020 C   0  0  0  0  0  0  0  0  0  0  0  0
   59.7906   34.2023   46.3387 H   0  0  0  0  0  0  0  0  0  0  0  0
   59.4561   33.9188   48.1042 H   0  0  0  0  0  0  0  0  0  0  0  0
   61.4540   33.4920   47.4930 C   0  0  0  0  0  0  0  0  0  0  0  0
   62.3490   33.5070   46.4130 C   0  0  0  0  0  0  0  0  0  0  0  0
   61.9673   33.5904   45.3847 H   0  0  0  0  0  0  0  0  0  0  0  0
   63.7120   33.4170   46.6390 C   0  0  0  0  0  0  0  0  0  0  0  0
   64.4114   33.4561   45.7909 H   0  0  0  0  0  0  0  0  0  0  0  0
   64.1880   33.2810   47.9000 N   0  0  0  0  0  0  0  0  0  0  0  0
   65.2190   33.1540   48.0200 H   0  0  0  0  0  0  0  0  0  0  0  0
   63.3780   33.2690   48.9980 C   0  0  0  0  0  0  0  0  0  0  0  0
   63.9560   32.9900   50.1410 N   0  0  0  0  0  0  0  0  0  0  0  0
   65.2400   33.3790   50.7290 C   0  0  0  0  0  0  0  0  0  0  0  0
   65.1420   34.4719   50.8070 H   0  0  0  0  0  0  0  0  0  0  0  0
   66.4310   32.7660   49.9920 C   0  0  0  0  0  0  0  0  0  0  0  0
   66.1573   32.2025   49.0878 H   0  0  0  0  0  0  0  0  0  0  0  0
   67.2120   33.4119   49.5643 H   0  0  0  0  0  0  0  0  0  0  0  0
   66.7330   31.8920   51.2000 C   0  0  0  0  0  0  0  0  0  0  0  0
   66.6275   30.8135   51.0113 H   0  0  0  0  0  0  0  0  0  0  0  0
   67.7371   31.8918   51.6492 H   0  0  0  0  0  0  0  0  0  0  0  0
   65.5580   32.5100   51.9430 C   0  0  0  0  0  0  0  0  0  0  0  0
   64.7644   31.7936   52.2017 H   0  0  0  0  0  0  0  0  0  0  0  0
   65.7064   32.9701   52.9311 H   0  0  0  0  0  0  0  0  0  0  0  0
   61.9740   33.4980   48.8210 C   0  0  0  0  0  0  0  0  0  0  0  0
   61.0500   33.8350   49.9700 C   0  0  0  0  0  0  0  0  0  0  0  0
   61.5662   33.6467   50.9230 H   0  0  0  0  0  0  0  0  0  0  0  0
   60.7636   34.8955   49.9114 H   0  0  0  0  0  0  0  0  0  0  0  0
   60.1482   33.2079   49.9114 H   0  0  0  0  0  0  0  0  0  0  0  0
   59.6690   30.9870   47.5280 C   0  0  0  0  0  0  0  0  0  0  0  0
   60.5350   30.6950   48.5830 C   0  0  0  0  0  0  0  0  0  0  0  0
   61.1436   31.4839   49.0491 H   0  0  0  0  0  0  0  0  0  0  0  0
   60.6090   29.3560   49.0370 C   0  0  0  0  0  0  0  0  0  0  0  0
   61.4430   28.9710   50.0970 O   0  0  0  0  0  0  0  0  0  0  0  0
   62.2170   29.8770   50.8780 C   0  0  0  0  0  0  0  0  0  0  0  0
   62.0469   29.6779   51.9464 H   0  0  0  0  0  0  0  0  0  0  0  0
   63.2837   29.7429   50.6453 H   0  0  0  0  0  0  0  0  0  0  0  0
   61.9179   30.9097   50.6453 H   0  0  0  0  0  0  0  0  0  0  0  0
   59.8200   28.3630   48.4140 C   0  0  0  0  0  0  0  0  0  0  0  0
   59.8848   27.3216   48.7623 H   0  0  0  0  0  0  0  0  0  0  0  0
   58.9530   28.6870   47.3550 C   0  0  0  0  0  0  0  0  0  0  0  0
   58.3406   27.9136   46.8683 H   0  0  0  0  0  0  0  0  0  0  0  0
   58.8920   30.0190   46.9390 C   0  0  0  0  0  0  0  0  0  0  0  0
   56.7080   27.4690   45.7850 C   0  0  0  0  0  0  0  0  0  0  0  0
   56.1424   27.8401   46.6524 H   0  0  0  0  0  0  0  0  0  0  0  0
   56.8220   26.0920   45.5670 C   0  0  0  0  0  0  0  0  0  0  0  0
   56.3523   25.3844   46.2661 H   0  0  0  0  0  0  0  0  0  0  0  0
   57.5320   25.6140   44.4620 C   0  0  0  0  0  0  0  0  0  0  0  0
   57.6720   23.8850   44.1880 Cl  0  0  0  0  0  0  0  0  0  0  0  0
  1  2  1  0
  2  3  2  0
  3  4  1  0
  3  5  1  0
  5  6  1  0
  6  7  2  0
  6  8  1  0
  8  9  1  0
  9 10  1  0
 10 11  1  0
 10 12  1  0
 10 13  1  0
  9 14  2  0
 14 15  1  0
 15 16  1  0
 15 17  1  0
 15 18  1  0
 18 19  1  0
 19 20  1  0
 19 21  2  0
 21 22  1  0
 21 23  1  0
 23 24  1  0
 23 25  1  0
 25 26  2  0
 26 27  1  0
 27 28  1  0
 27 29  1  0
 29 30  1  0
 29 31  1  0
 29 32  1  0
 32 33  1  0
 32 34  1  0
 32 35  1  0
 35 36  1  0
 35 37  1  0
 25 38  1  0
 38 39  1  0
 39 40  1  0
 39 41  1  0
 39 42  1  0
 14 43  1  0
 43 44  2  0
 44 45  1  0
 44 46  1  0
 46 47  1  0
 47 48  1  0
 48 49  1  0
 48 50  1  0
 48 51  1  0
 46 52  2  0
 52 53  1  0
 52 54  1  0
 54 55  1  0
 54 56  2  0
  5 57  2  0
 57 58  1  0
 57 59  1  0
 59 60  1  0
 59 61  2  0
 61 62  1  0
 61  2  1  0
 56  8  1  0
 38 18  2  0
 56 43  1  0
 35 27  1  0
M  END
>  <UniqueID>  (32) 
30

>  <SMILES>  (32) 
COc1ccc2c(c1)c(Cc1cc[nH]/c(=N/C3CCC3)c1C)c(C)n2C(=O)c1ccc(Cl)cc1

>  <Energy>  (32) 
181.99593794332904

>  <Genealogy>  (32) 
COc1ccc2c(c1)c(Cc1cc[nH]/c(=N/C3CCC3)c1C)c(C)n2C(=O)c1ccc(Cl)cc1 (cis-trans isomerization)
COc1ccc2c(c1)c(Cc1cc[nH]/c(=N/C3CCC3)c1C)c(C)n2C(=O)c1ccc(Cl)cc1 (3D coordinates assigned)
COc1ccc2c(c1)c(Cc1cc[nH]/c(=N/C3CCC3)c1C)c(C)n2C(=O)c1ccc(Cl)cc1 (nonaromatic ring conformer: 181.99593794332904 kcal/mol)

>  <smiles>  (32) 
COc1ccc2c(c1)c(Cc1cc[nH]c(=NC3CCC3)c1C)c(C)n2C(=O)c1ccc(Cl)cc1

>  <score_type>  (32) 
oracle

>  <origin>  (32) 
adg

>  <m_score__min__energy>  (32) 
-9.8000000000000007

>  <m_primary>  (32) 
energy

$$$$
32:0
     RDKit          3D

 51 55  0  0  0  0  0  0  0  0999 V2000
   59.2790   29.3590   49.7150 C   0  0  0  0  0  0  0  0  0  0  0  0
   59.7290   29.6480   48.3530 N   0  0  0  0  0  0  0  0  0  0  0  0
   59.6510   28.6100   47.3260 C   0  0  0  0  0  0  0  0  0  0  0  0
   58.6340   28.9980   46.3050 C   0  0  0  0  0  0  0  0  0  0  0  0
   57.7020   28.1690   45.6670 C   0  0  0  0  0  0  0  0  0  0  0  0
   57.6170   26.6960   45.7690 C   0  0  0  0  0  0  0  0  0  0  0  0
   58.7080   25.9300   45.6730 C   0  0  0  0  0  0  0  0  0  0  0  0
   58.5830   24.4370   45.8170 C   0  0  0  0  0  0  0  0  0  0  0  0
   57.3910   23.8750   45.1190 N   0  0  0  0  0  0  0  0  0  0  0  0
   57.7510   23.2060   43.8530 C   0  0  0  0  0  0  0  0  0  0  0  0
   57.0180   21.9030   43.7240 C   0  0  0  0  0  0  0  0  0  0  0  0
   57.5360   20.7130   44.3190 N   0  0  0  0  0  0  0  0  0  0  0  0
   55.9300   21.8600   43.0900 O   0  0  0  0  0  0  0  0  0  0  0  0
   56.2600   24.8230   44.9180 C   0  0  0  0  0  0  0  0  0  0  0  0
   56.2890   26.0020   45.8990 C   0  0  0  0  0  0  0  0  0  0  0  0
   56.8440   28.9110   44.9280 N   0  0  0  0  0  0  0  0  0  0  0  0
   57.2380   30.1840   45.0850 C   0  0  0  0  0  0  0  0  0  0  0  0
   56.6340   31.2660   44.5420 N   0  0  0  0  0  0  0  0  0  0  0  0
   57.1260   32.5070   44.8160 C   0  0  0  0  0  0  0  0  0  0  0  0
   58.2570   32.6650   45.6430 C   0  0  0  0  0  0  0  0  0  0  0  0
   58.9120   31.5360   46.1990 C   0  0  0  0  0  0  0  0  0  0  0  0
   58.3340   30.2870   45.9040 C   0  0  0  0  0  0  0  0  0  0  0  0
   60.1650   31.6980   47.0080 C   0  0  0  0  0  0  0  0  0  0  0  0
   61.0340   32.7730   46.7250 C   0  0  0  0  0  0  0  0  0  0  0  0
   62.1710   33.0060   47.5000 C   0  0  0  0  0  0  0  0  0  0  0  0
   62.9890   34.0490   47.2100 F   0  0  0  0  0  0  0  0  0  0  0  0
   62.4700   32.1670   48.5700 C   0  0  0  0  0  0  0  0  0  0  0  0
   61.6460   31.0810   48.8540 C   0  0  0  0  0  0  0  0  0  0  0  0
   60.5030   30.8250   48.0780 C   0  0  0  0  0  0  0  0  0  0  0  0
   59.9785   29.8082   50.4353 H   0  0  0  0  0  0  0  0  0  0  0  0
   58.2748   29.7815   49.8668 H   0  0  0  0  0  0  0  0  0  0  0  0
   59.2454   28.2700   49.8668 H   0  0  0  0  0  0  0  0  0  0  0  0
   60.6325   28.4980   46.8422 H   0  0  0  0  0  0  0  0  0  0  0  0
   59.3606   27.6557   47.7896 H   0  0  0  0  0  0  0  0  0  0  0  0
   59.6913   26.3879   45.4899 H   0  0  0  0  0  0  0  0  0  0  0  0
   59.4859   23.9690   45.3979 H   0  0  0  0  0  0  0  0  0  0  0  0
   58.4643   24.2218   46.8892 H   0  0  0  0  0  0  0  0  0  0  0  0
   57.4823   23.8583   43.0090 H   0  0  0  0  0  0  0  0  0  0  0  0
   58.8332   23.0090   43.8483 H   0  0  0  0  0  0  0  0  0  0  0  0
   58.4320   20.7300   44.8560 H   0  0  0  0  0  0  0  0  0  0  0  0
   57.0180   19.8110   44.2280 H   0  0  0  0  0  0  0  0  0  0  0  0
   56.3109   25.2180   43.8926 H   0  0  0  0  0  0  0  0  0  0  0  0
   55.3275   24.2675   45.0964 H   0  0  0  0  0  0  0  0  0  0  0  0
   55.4776   26.7049   45.6590 H   0  0  0  0  0  0  0  0  0  0  0  0
   56.1512   25.6401   46.9286 H   0  0  0  0  0  0  0  0  0  0  0  0
   56.0480   28.5730   44.3430 H   0  0  0  0  0  0  0  0  0  0  0  0
   56.6361   33.3939   44.3879 H   0  0  0  0  0  0  0  0  0  0  0  0
   58.6357   33.6748   45.8595 H   0  0  0  0  0  0  0  0  0  0  0  0
   60.8113   33.4392   45.8785 H   0  0  0  0  0  0  0  0  0  0  0  0
   63.3569   32.3619   49.1909 H   0  0  0  0  0  0  0  0  0  0  0  0
   61.8926   30.4163   49.6950 H   0  0  0  0  0  0  0  0  0  0  0  0
  1  2  1  0
  2  3  1  0
  3  4  1  0
  4  5  2  0
  5  6  1  0
  6  7  2  0
  7  8  1  0
  8  9  1  0
  9 10  1  0
 10 11  1  0
 11 12  1  0
 11 13  2  0
  9 14  1  0
 14 15  1  0
  5 16  1  0
 16 17  1  0
 17 18  2  0
 18 19  1  0
 19 20  2  0
 20 21  1  0
 21 22  2  0
 21 23  1  0
 23 24  2  0
 24 25  1  0
 25 26  1  0
 25 27  2  0
 27 28  1  0
 28 29  2  0
 29  2  1  0
 22  4  1  0
 29 23  1  0
 15  6  1  0
 22 17  1  0
  1 30  1  0
  1 31  1  0
  1 32  1  0
  3 33  1  0
  3 34  1  0
  7 35  1  0
  8 36  1  0
  8 37  1  0
 10 38  1  0
 10 39  1  0
 12 40  1  0
 12 41  1  0
 14 42  1  0
 14 43  1  0
 15 44  1  0
 15 45  1  0
 16 46  1  0
 19 47  1  0
 20 48  1  0
 24 49  1  0
 27 50  1  0
 28 51  1  0
M  END
>  <UniqueID>  (33) 
31

>  <SMILES>  (33) 
CN1Cc2c(C3=CCN(CC(N)=O)CC3)[nH]c3nccc(c23)-c2cc(F)ccc21

>  <Energy>  (33) 
115.86542817963424

>  <Genealogy>  (33) 
CN1Cc2c(C3=CCN(CC(N)=O)CC3)[nH]c3nccc(c23)-c2cc(F)ccc21 (3D coordinates assigned)
CN1Cc2c(C3=CCN(CC(N)=O)CC3)[nH]c3nccc(c23)-c2cc(F)ccc21 (nonaromatic ring conformer: 115.86542817963424 kcal/mol)

>  <smiles>  (33) 
CN1Cc2c(C3=CCN(CC(N)=O)CC3)[nH]c3nccc(c23)-c2cc(F)ccc21

>  <score_type>  (33) 
oracle

>  <origin>  (33) 
adg

>  <m_score__min__energy>  (33) 
-9.8200000000000003

>  <m_primary>  (33) 
energy

$$$$
33:0
     RDKit          3D

 44 47  0  0  0  0  0  0  0  0999 V2000
   57.6940   32.3400   41.6570 C   0  0  0  0  0  0  0  0  0  0  0  0
   57.8780   32.2280   43.1420 C   0  0  0  0  0  0  0  0  0  0  0  0
   57.4610   31.0730   43.8200 C   0  0  0  0  0  0  0  0  0  0  0  0
   57.5900   30.9880   45.2090 C   0  0  0  0  0  0  0  0  0  0  0  0
   58.1270   32.0560   45.9310 C   0  0  0  0  0  0  0  0  0  0  0  0
   58.5430   33.2200   45.2660 C   0  0  0  0  0  0  0  0  0  0  0  0
   59.0680   34.3940   46.0480 C   0  0  0  0  0  0  0  0  0  0  0  0
   60.2070   33.9860   46.8650 N   0  0  0  0  0  0  0  0  0  0  0  0
   61.5810   33.8370   46.3590 C   0  0  0  0  0  0  0  0  0  0  0  0
   62.3140   33.3710   47.6120 C   0  0  1  0  0  0  0  0  0  0  0  0
   63.7810   33.4670   47.9590 C   0  0  0  0  0  0  0  0  0  0  0  0
   63.7320   33.4120   49.4310 N   0  0  0  0  0  0  0  0  0  0  0  0
   64.8840   33.1620   50.2530 C   0  0  0  0  0  0  0  0  0  0  0  0
   64.7520   33.1430   51.6080 N   0  0  0  0  0  0  0  0  0  0  0  0
   65.8160   32.9100   52.4180 C   0  0  0  0  0  0  0  0  0  0  0  0
   67.0730   32.6860   51.8620 C   0  0  0  0  0  0  0  0  0  0  0  0
   68.1490   32.4530   52.6540 F   0  0  0  0  0  0  0  0  0  0  0  0
   67.2010   32.7100   50.4750 C   0  0  0  0  0  0  0  0  0  0  0  0
   66.1130   32.9470   49.6940 N   0  0  0  0  0  0  0  0  0  0  0  0
   62.3660   33.6390   49.9370 C   0  0  0  0  0  0  0  0  0  0  0  0
   61.6800   34.1880   48.7070 C   0  0  2  0  0  0  0  0  0  0  0  0
   60.2700   34.0940   48.2920 C   0  0  0  0  0  0  0  0  0  0  0  0
   59.2700   34.2460   49.0420 O   0  0  0  0  0  0  0  0  0  0  0  0
   58.4020   33.3070   43.8710 C   0  0  0  0  0  0  0  0  0  0  0  0
   56.7723   32.9010   41.4430 H   0  0  0  0  0  0  0  0  0  0  0  0
   58.5544   32.8677   41.2197 H   0  0  0  0  0  0  0  0  0  0  0  0
   57.6204   31.3334   41.2197 H   0  0  0  0  0  0  0  0  0  0  0  0
   57.0312   30.2316   43.2567 H   0  0  0  0  0  0  0  0  0  0  0  0
   57.2676   30.0773   45.7350 H   0  0  0  0  0  0  0  0  0  0  0  0
   58.2243   31.9848   47.0244 H   0  0  0  0  0  0  0  0  0  0  0  0
   59.3853   35.1829   45.3502 H   0  0  0  0  0  0  0  0  0  0  0  0
   58.2716   34.7727   46.7055 H   0  0  0  0  0  0  0  0  0  0  0  0
   61.6355   33.0851   45.5579 H   0  0  0  0  0  0  0  0  0  0  0  0
   61.9961   34.7508   45.9088 H   0  0  0  0  0  0  0  0  0  0  0  0
   62.2313   32.2859   47.4514 H   0  0  0  0  0  0  0  0  0  0  0  0
   64.3496   32.6223   47.5429 H   0  0  0  0  0  0  0  0  0  0  0  0
   64.2821   34.3601   47.5573 H   0  0  0  0  0  0  0  0  0  0  0  0
   65.6858   32.8981   53.5102 H   0  0  0  0  0  0  0  0  0  0  0  0
   68.1832   32.5371   50.0109 H   0  0  0  0  0  0  0  0  0  0  0  0
   66.2410   32.9690   48.6590 H   0  0  0  0  0  0  0  0  0  0  0  0
   61.9001   32.7007   50.2726 H   0  0  0  0  0  0  0  0  0  0  0  0
   62.3154   34.3015   50.8137 H   0  0  0  0  0  0  0  0  0  0  0  0
   61.7715   35.2626   48.9233 H   0  0  0  0  0  0  0  0  0  0  0  0
   58.7039   34.2259   43.3470 H   0  0  0  0  0  0  0  0  0  0  0  0
  1  2  1  0
  2  3  2  0
  3  4  1  0
  4  5  2  0
  5  6  1  0
  6  7  1  0
  7  8  1  0
  8  9  1  0
  9 10  1  0
 10 11  1  0
 11 12  1  0
 12 13  1  0
 13 14  2  0
 14 15  1  0
 15 16  2  0
 16 17  1  0
 16 18  1  0
 18 19  2  0
 12 20  1  0
 20 21  1  0
 21 22  1  0
 22 23  2  0
  6 24  2  0
 24  2  1  0
 22  8  1  0
 21 10  1  0
 19 13  1  0
  1 25  1  0
  1 26  1  0
  1 27  1  0
  3 28  1  0
  4 29  1  0
  5 30  1  0
  7 31  1  0
  7 32  1  0
  9 33  1  0
  9 34  1  0
 10 35  1  1
 11 36  1  0
 11 37  1  0
 15 38  1  0
 18 39  1  0
 19 40  1  0
 20 41  1  0
 20 42  1  0
 21 43  1  6
 24 44  1  0
M  CHG  1  19   1
M  END
>  <UniqueID>  (34) 
32

>  <SMILES>  (34) 
Cc1cccc(CN2C[C@H]3CN(c4ncc(F)c[nH+]4)C[C@@H]3C2=O)c1

>  <Energy>  (34) 
91.8618582975565

>  <Genealogy>  (34) 
Cc1cccc(CN2CC3CN(c4ncc(F)c[nH+]4)CC3C2=O)c1 (protonated)
Cc1cccc(CN2C[C@H]3CN(c4ncc(F)c[nH+]4)C[C@@H]3C2=O)c1 (chirality)
Cc1cccc(CN2C[C@H]3CN(c4ncc(F)c[nH+]4)C[C@@H]3C2=O)c1 (3D coordinates assigned)
Cc1cccc(CN2C[C@H]3CN(c4ncc(F)c[nH+]4)C[C@@H]3C2=O)c1 (nonaromatic ring conformer: 91.8618582975565 kcal/mol)

>  <smiles>  (34) 
Cc1cccc(CN2CC3CN(c4ncc(F)cn4)CC3C2=O)c1

>  <score_type>  (34) 
oracle

>  <origin>  (34) 
adg

>  <m_score__min__energy>  (34) 
-6.5800000000000001

>  <m_primary>  (34) 
energy

$$$$
34:0
     RDKit          3D

 53 55  0  0  0  0  0  0  0  0999 V2000
   56.6000   22.2250   42.8630 C   0  0  0  0  0  0  0  0  0  0  0  0
   56.6460   21.7670   44.2840 C   0  0  0  0  0  0  0  0  0  0  0  0
   57.2380   20.6330   44.7010 N   0  0  0  0  0  0  0  0  0  0  0  0
   57.0320   20.4960   46.0030 N   0  0  0  0  0  0  0  0  0  0  0  0
   57.5800   19.4030   46.8000 C   0  0  0  0  0  0  0  0  0  0  0  0
   56.2960   21.5430   46.4510 C   0  0  0  0  0  0  0  0  0  0  0  0
   55.9720   21.8070   47.8930 C   0  0  0  0  0  0  0  0  0  0  0  0
   56.0110   22.3570   45.3590 C   0  0  0  0  0  0  0  0  0  0  0  0
   55.2670   23.5810   45.3060 N   0  0  0  0  0  0  0  0  0  0  0  0
   55.8540   25.1210   45.8360 S   0  0  0  0  0  0  0  0  0  0  0  0
   56.2740   25.0020   47.2740 O   0  0  0  0  0  0  0  0  0  0  0  0
   54.7640   26.1480   45.7340 O   0  0  0  0  0  0  0  0  0  0  0  0
   57.2930   25.5720   44.8680 C   0  0  0  0  0  0  0  0  0  0  0  0
   58.5490   25.7610   45.7290 C   0  0  0  0  0  0  0  0  0  0  0  0
   58.7470   27.2000   46.1390 C   0  0  0  0  0  0  0  0  0  0  0  0
   59.0420   28.1820   45.1800 C   0  0  0  0  0  0  0  0  0  0  0  0
   59.2540   29.5080   45.5700 C   0  0  0  0  0  0  0  0  0  0  0  0
   59.1610   29.8750   46.9170 C   0  0  0  0  0  0  0  0  0  0  0  0
   59.4120   31.2090   47.2690 O   0  0  0  0  0  0  0  0  0  0  0  0
   59.0530   32.3330   46.5070 C   0  0  0  0  0  0  0  0  0  0  0  0
   57.8100   32.3950   45.8490 C   0  0  0  0  0  0  0  0  0  0  0  0
   57.4690   33.5140   45.0880 C   0  0  0  0  0  0  0  0  0  0  0  0
   58.3640   34.5780   44.9690 C   0  0  0  0  0  0  0  0  0  0  0  0
   59.6090   34.5210   45.5990 C   0  0  0  0  0  0  0  0  0  0  0  0
   59.9730   33.3950   46.3640 C   0  0  0  0  0  0  0  0  0  0  0  0
   61.3140   33.3280   47.0570 C   0  0  0  0  0  0  0  0  0  0  0  0
   61.2350   33.7440   48.3750 F   0  0  0  0  0  0  0  0  0  0  0  0
   61.7790   32.0260   47.0350 F   0  0  0  0  0  0  0  0  0  0  0  0
   62.2180   34.1420   46.3990 F   0  0  0  0  0  0  0  0  0  0  0  0
   58.8720   28.8910   47.8800 C   0  0  0  0  0  0  0  0  0  0  0  0
   58.6540   27.5670   47.4900 C   0  0  0  0  0  0  0  0  0  0  0  0
   56.4901   23.3191   42.8338 H   0  0  0  0  0  0  0  0  0  0  0  0
   57.5317   21.9363   42.3544 H   0  0  0  0  0  0  0  0  0  0  0  0
   55.7444   21.7568   42.3544 H   0  0  0  0  0  0  0  0  0  0  0  0
   57.7780   19.9650   44.1070 H   0  0  0  0  0  0  0  0  0  0  0  0
   57.4638   19.6347   47.8690 H   0  0  0  0  0  0  0  0  0  0  0  0
   57.0417   18.4727   46.5658 H   0  0  0  0  0  0  0  0  0  0  0  0
   58.6475   19.2778   46.5658 H   0  0  0  0  0  0  0  0  0  0  0  0
   56.6651   21.2423   48.5339 H   0  0  0  0  0  0  0  0  0  0  0  0
   56.0741   22.8824   48.1008 H   0  0  0  0  0  0  0  0  0  0  0  0
   54.9394   21.4898   48.1008 H   0  0  0  0  0  0  0  0  0  0  0  0
   57.4863   24.7767   44.1330 H   0  0  0  0  0  0  0  0  0  0  0  0
   57.0771   26.5334   44.3790 H   0  0  0  0  0  0  0  0  0  0  0  0
   58.4538   25.1443   46.6349 H   0  0  0  0  0  0  0  0  0  0  0  0
   59.4193   25.4578   45.1284 H   0  0  0  0  0  0  0  0  0  0  0  0
   59.1067   27.9070   44.1169 H   0  0  0  0  0  0  0  0  0  0  0  0
   59.4956   30.2680   44.8124 H   0  0  0  0  0  0  0  0  0  0  0  0
   57.1033   31.5564   45.9352 H   0  0  0  0  0  0  0  0  0  0  0  0
   56.4936   33.5573   44.5814 H   0  0  0  0  0  0  0  0  0  0  0  0
   58.0882   35.4636   44.3776 H   0  0  0  0  0  0  0  0  0  0  0  0
   60.3110   35.3617   45.4973 H   0  0  0  0  0  0  0  0  0  0  0  0
   58.8174   29.1649   48.9440 H   0  0  0  0  0  0  0  0  0  0  0  0
   58.4079   26.8077   48.2469 H   0  0  0  0  0  0  0  0  0  0  0  0
  1  2  1  0
  2  3  2  0
  3  4  1  0
  4  5  1  0
  4  6  1  0
  6  7  1  0
  6  8  2  0
  8  9  1  0
  9 10  1  0
 10 11  2  0
 10 12  2  0
 10 13  1  0
 13 14  1  0
 14 15  1  0
 15 16  2  0
 16 17  1  0
 17 18  2  0
 18 19  1  0
 19 20  1  0
 20 21  2  0
 21 22  1  0
 22 23  2  0
 23 24  1  0
 24 25  2  0
 25 26  1  0
 26 27  1  0
 26 28  1  0
 26 29  1  0
 18 30  1  0
 30 31  2  0
  8  2  1  0
 31 15  1  0
 25 20  1  0
  1 32  1  0
  1 33  1  0
  1 34  1  0
  3 35  1  0
  5 36  1  0
  5 37  1  0
  5 38  1  0
  7 39  1  0
  7 40  1  0
  7 41  1  0
 13 42  1  0
 13 43  1  0
 14 44  1  0
 14 45  1  0
 16 46  1  0
 17 47  1  0
 21 48  1  0
 22 49  1  0
 23 50  1  0
 24 51  1  0
 30 52  1  0
 31 53  1  0
M  CHG  2   3   1   9  -1
M  END
>  <UniqueID>  (35) 
33

>  <SMILES>  (35) 
Cc1[nH+]n(C)c(C)c1[N-]S(=O)(=O)CCc1ccc(Oc2ccccc2C(F)(F)F)cc1

>  <Energy>  (35) 
92.05502254749595

>  <Genealogy>  (35) 
Cc1[nH+]n(C)c(C)c1[N-]S(=O)(=O)CCc1ccc(Oc2ccccc2C(F)(F)F)cc1 (protonated)
Cc1[nH+]n(C)c(C)c1[N-]S(=O)(=O)CCc1ccc(Oc2ccccc2C(F)(F)F)cc1 (3D coordinates assigned)
Cc1[nH+]n(C)c(C)c1[N-]S(=O)(=O)CCc1ccc(Oc2ccccc2C(F)(F)F)cc1 (optimized conformer: 92.05502254749595 kcal/mol)

>  <smiles>  (35) 
Cc1nn(C)c(C)c1NS(=O)(=O)CCc1ccc(Oc2ccccc2C(F)(F)F)cc1

>  <score_type>  (35) 
oracle

>  <origin>  (35) 
adg

>  <m_score__min__energy>  (35) 
-9.0800000000000001

>  <m_primary>  (35) 
energy

$$$$
35:0
     RDKit          3D

 49 52  0  0  0  0  0  0  0  0999 V2000
   66.5830   31.9700   50.7670 C   0  0  0  0  0  0  0  0  0  0  0  0
   65.5890   32.9590   51.0160 O   0  0  0  0  0  0  0  0  0  0  0  0
   64.4810   33.1930   50.1880 C   0  0  0  0  0  0  0  0  0  0  0  0
   64.3560   32.6150   48.9110 C   0  0  0  0  0  0  0  0  0  0  0  0
   63.2310   32.8800   48.1250 C   0  0  0  0  0  0  0  0  0  0  0  0
   62.2140   33.7210   48.6000 C   0  0  0  0  0  0  0  0  0  0  0  0
   61.0570   33.9980   47.7880 N   0  0  0  0  0  0  0  0  0  0  0  0
   59.7610   34.1550   48.4030 C   0  0  0  0  0  0  0  0  0  0  0  0
   59.6590   34.2010   49.6600 O   0  0  0  0  0  0  0  0  0  0  0  0
   58.5140   34.3210   47.5760 C   0  0  0  0  0  0  0  0  0  0  0  0
   58.6920   33.9420   46.0880 C   0  0  0  0  0  0  0  0  0  0  0  0
   58.5200   32.4540   45.8010 C   0  0  0  0  0  0  0  0  0  0  0  0
   59.2110   31.4600   46.5220 C   0  0  0  0  0  0  0  0  0  0  0  0
   59.0570   30.1100   46.2010 C   0  0  0  0  0  0  0  0  0  0  0  0
   58.2200   29.7150   45.1440 C   0  0  0  0  0  0  0  0  0  0  0  0
   58.0580   28.2790   44.8030 C   0  0  0  0  0  0  0  0  0  0  0  0
   57.8210   27.3260   45.8120 C   0  0  0  0  0  0  0  0  0  0  0  0
   57.6700   25.9740   45.4880 C   0  0  0  0  0  0  0  0  0  0  0  0
   57.7530   25.5580   44.1580 C   0  0  0  0  0  0  0  0  0  0  0  0
   57.9880   26.4940   43.1480 C   0  0  0  0  0  0  0  0  0  0  0  0
   58.1400   27.8470   43.4650 C   0  0  0  0  0  0  0  0  0  0  0  0
   57.5420   30.7050   44.4130 C   0  0  0  0  0  0  0  0  0  0  0  0
   57.6960   32.0550   44.7340 C   0  0  0  0  0  0  0  0  0  0  0  0
   60.0120   34.4820   45.5170 C   0  0  0  0  0  0  0  0  0  0  0  0
   61.1800   34.0640   46.3560 C   0  0  0  0  0  0  0  0  0  0  0  0
   62.2770   33.7970   45.7940 O   0  0  0  0  0  0  0  0  0  0  0  0
   62.3400   34.2980   49.8730 C   0  0  0  0  0  0  0  0  0  0  0  0
   63.4650   34.0340   50.6600 C   0  0  0  0  0  0  0  0  0  0  0  0
   66.9675   31.5875   51.7240 H   0  0  0  0  0  0  0  0  0  0  0  0
   66.1412   31.1426   50.1923 H   0  0  0  0  0  0  0  0  0  0  0  0
   67.4081   32.4160   50.1923 H   0  0  0  0  0  0  0  0  0  0  0  0
   65.1468   31.9521   48.5299 H   0  0  0  0  0  0  0  0  0  0  0  0
   63.1426   32.4259   47.1270 H   0  0  0  0  0  0  0  0  0  0  0  0
   57.7274   33.6822   48.0040 H   0  0  0  0  0  0  0  0  0  0  0  0
   58.2534   35.3893   47.6036 H   0  0  0  0  0  0  0  0  0  0  0  0
   57.8646   34.4387   45.5601 H   0  0  0  0  0  0  0  0  0  0  0  0
   59.8788   31.7507   47.3464 H   0  0  0  0  0  0  0  0  0  0  0  0
   59.5967   29.3475   46.7818 H   0  0  0  0  0  0  0  0  0  0  0  0
   57.7542   27.6470   46.8620 H   0  0  0  0  0  0  0  0  0  0  0  0
   57.4854   25.2366   46.2830 H   0  0  0  0  0  0  0  0  0  0  0  0
   57.6335   24.4941   43.9055 H   0  0  0  0  0  0  0  0  0  0  0  0
   58.0536   26.1655   42.1003 H   0  0  0  0  0  0  0  0  0  0  0  0
   58.3248   28.5786   42.6646 H   0  0  0  0  0  0  0  0  0  0  0  0
   56.8843   30.4140   43.5807 H   0  0  0  0  0  0  0  0  0  0  0  0
   57.1654   32.8169   44.1440 H   0  0  0  0  0  0  0  0  0  0  0  0
   60.1465   34.0934   44.4968 H   0  0  0  0  0  0  0  0  0  0  0  0
   59.9640   35.5809   45.5121 H   0  0  0  0  0  0  0  0  0  0  0  0
   61.5495   34.9615   50.2536 H   0  0  0  0  0  0  0  0  0  0  0  0
   63.5530   34.4900   51.6571 H   0  0  0  0  0  0  0  0  0  0  0  0
  1  2  1  0
  2  3  1  0
  3  4  2  0
  4  5  1  0
  5  6  2  0
  6  7  1  0
  7  8  1  0
  8  9  2  0
  8 10  1  0
 10 11  1  0
 11 12  1  0
 12 13  2  0
 13 14  1  0
 14 15  2  0
 15 16  1  0
 16 17  2  0
 17 18  1  0
 18 19  2  0
 19 20  1  0
 20 21  2  0
 15 22  1  0
 22 23  2  0
 11 24  1  0
 24 25  1  0
 25 26  2  0
  6 27  1  0
 27 28  2  0
 28  3  1  0
 25  7  1  0
 23 12  1  0
 21 16  1  0
  1 29  1  0
  1 30  1  0
  1 31  1  0
  4 32  1  0
  5 33  1  0
 10 34  1  0
 10 35  1  0
 11 36  1  0
 13 37  1  0
 14 38  1  0
 17 39  1  0
 18 40  1  0
 19 41  1  0
 20 42  1  0
 21 43  1  0
 22 44  1  0
 23 45  1  0
 24 46  1  0
 24 47  1  0
 27 48  1  0
 28 49  1  0
M  END
>  <UniqueID>  (36) 
34

>  <SMILES>  (36) 
COc1ccc(N2C(=O)CC(c3ccc(-c4ccccc4)cc3)CC2=O)cc1

>  <Energy>  (36) 
66.00907740051615

>  <Genealogy>  (36) 
COc1ccc(N2C(=O)CC(c3ccc(-c4ccccc4)cc3)CC2=O)cc1 (3D coordinates assigned)
COc1ccc(N2C(=O)CC(c3ccc(-c4ccccc4)cc3)CC2=O)cc1 (nonaromatic ring conformer: 66.00907740051615 kcal/mol)

>  <smiles>  (36) 
COc1ccc(N2C(=O)CC(c3ccc(-c4ccccc4)cc3)CC2=O)cc1

>  <score_type>  (36) 
oracle

>  <origin>  (36) 
adg

>  <m_score__min__energy>  (36) 
-8.4199999999999999

>  <m_primary>  (36) 
energy

$$$$
36:0
     RDKit          3D

 68 73  0  0  0  0  0  0  0  0999 V2000
   51.2230   24.4520   44.5590 C   0  0  0  0  0  0  0  0  0  0  0  0
   52.2540   23.5310   45.1230 C   0  0  0  0  0  0  0  0  0  0  0  0
   52.0990   22.1920   45.2480 N   0  0  0  0  0  0  0  0  0  0  0  0
   53.2190   21.6720   45.7460 N   0  0  0  0  0  0  0  0  0  0  0  0
   54.0840   22.6860   45.9300 C   0  0  0  0  0  0  0  0  0  0  0  0
   55.3860   22.6190   46.4140 C   0  0  0  0  0  0  0  0  0  0  0  0
   56.1120   23.8220   46.5040 C   0  0  0  0  0  0  0  0  0  0  0  0
   55.5260   25.0580   46.1240 C   0  0  0  0  0  0  0  0  0  0  0  0
   56.3060   26.2630   46.2170 N   0  0  0  0  0  0  0  0  0  0  0  0
   57.7240   26.3150   45.9790 C   0  0  0  0  0  0  0  0  0  0  0  0
   58.2890   25.3820   45.3460 O   0  0  0  0  0  0  0  0  0  0  0  0
   58.5250   27.4790   46.4290 C   0  0  0  0  0  0  0  0  0  0  0  0
   59.6490   27.2850   47.2440 C   0  0  0  0  0  0  0  0  0  0  0  0
   60.4060   28.3730   47.6790 C   0  0  0  0  0  0  0  0  0  0  0  0
   60.0500   29.6830   47.3220 C   0  0  0  0  0  0  0  0  0  0  0  0
   60.8450   30.8050   47.8730 C   0  0  0  0  0  0  0  0  0  0  0  0
   61.6230   31.6090   47.0250 C   0  0  0  0  0  0  0  0  0  0  0  0
   62.3350   32.6960   47.5400 C   0  0  0  0  0  0  0  0  0  0  0  0
   62.2690   33.0010   48.9090 C   0  0  0  0  0  0  0  0  0  0  0  0
   62.9590   34.2240   49.4550 C   0  0  0  0  0  0  0  0  0  0  0  0
   63.9560   33.8570   50.4760 N   0  0  0  0  0  0  0  0  0  0  0  0
   65.1640   33.2420   49.8980 C   0  0  0  0  0  0  0  0  0  0  0  0
   65.4790   31.9310   50.5740 C   0  0  0  0  0  0  0  0  0  0  0  0
   64.4440   31.1050   51.0460 C   0  0  0  0  0  0  0  0  0  0  0  0
   64.7390   29.8610   51.6110 C   0  0  0  0  0  0  0  0  0  0  0  0
   66.0670   29.4410   51.7240 C   0  0  0  0  0  0  0  0  0  0  0  0
   67.1020   30.2650   51.2770 C   0  0  0  0  0  0  0  0  0  0  0  0
   66.8120   31.5100   50.7100 C   0  0  0  0  0  0  0  0  0  0  0  0
   61.5130   32.1800   49.7610 C   0  0  0  0  0  0  0  0  0  0  0  0
   60.7980   31.0970   49.2460 C   0  0  0  0  0  0  0  0  0  0  0  0
   58.9200   29.8930   46.4930 C   0  0  0  0  0  0  0  0  0  0  0  0
   58.5240   31.2460   46.0320 C   0  0  0  0  0  0  0  0  0  0  0  0
   58.2090   32.2470   46.9640 C   0  0  0  0  0  0  0  0  0  0  0  0
   57.8370   33.5140   46.5140 C   0  0  0  0  0  0  0  0  0  0  0  0
   57.7730   33.7750   45.1810 N   0  0  0  0  0  0  0  0  0  0  0  0
   58.0630   32.8230   44.2550 C   0  0  0  0  0  0  0  0  0  0  0  0
   58.4390   31.5410   44.6610 C   0  0  0  0  0  0  0  0  0  0  0  0
   58.1650   28.7870   46.0630 C   0  0  0  0  0  0  0  0  0  0  0  0
   54.2050   25.0780   45.6170 C   0  0  0  0  0  0  0  0  0  0  0  0
   53.5190   23.8670   45.5480 C   0  0  0  0  0  0  0  0  0  0  0  0
   50.6777   24.9392   45.3807 H   0  0  0  0  0  0  0  0  0  0  0  0
   51.7142   25.2175   43.9404 H   0  0  0  0  0  0  0  0  0  0  0  0
   50.5175   23.8779   43.9404 H   0  0  0  0  0  0  0  0  0  0  0  0
   55.8328   21.6602   46.7158 H   0  0  0  0  0  0  0  0  0  0  0  0
   57.1478   23.8039   46.8739 H   0  0  0  0  0  0  0  0  0  0  0  0
   55.7950   27.1660   46.3260 H   0  0  0  0  0  0  0  0  0  0  0  0
   59.9365   26.2662   47.5430 H   0  0  0  0  0  0  0  0  0  0  0  0
   61.2916   28.2024   48.3087 H   0  0  0  0  0  0  0  0  0  0  0  0
   61.6725   31.3824   45.9497 H   0  0  0  0  0  0  0  0  0  0  0  0
   62.9496   33.3151   46.8700 H   0  0  0  0  0  0  0  0  0  0  0  0
   63.4644   34.7495   48.6314 H   0  0  0  0  0  0  0  0  0  0  0  0
   62.2034   34.8736   49.9210 H   0  0  0  0  0  0  0  0  0  0  0  0
   63.5110   33.1400   51.0960 H   0  0  0  0  0  0  0  0  0  0  0  0
   64.9985   33.0631   48.8253 H   0  0  0  0  0  0  0  0  0  0  0  0
   66.0119   33.9265   50.0480 H   0  0  0  0  0  0  0  0  0  0  0  0
   63.3986   31.4387   50.9704 H   0  0  0  0  0  0  0  0  0  0  0  0
   63.9252   29.2121   51.9669 H   0  0  0  0  0  0  0  0  0  0  0  0
   66.2973   28.4602   52.1656 H   0  0  0  0  0  0  0  0  0  0  0  0
   68.1469   29.9343   51.3710 H   0  0  0  0  0  0  0  0  0  0  0  0
   67.6303   32.1615   50.3695 H   0  0  0  0  0  0  0  0  0  0  0  0
   61.4839   32.3912   50.8401 H   0  0  0  0  0  0  0  0  0  0  0  0
   60.1950   30.4695   49.9188 H   0  0  0  0  0  0  0  0  0  0  0  0
   58.2551   32.0339   48.0422 H   0  0  0  0  0  0  0  0  0  0  0  0
   57.5947   34.3043   47.2397 H   0  0  0  0  0  0  0  0  0  0  0  0
   58.0013   33.0631   43.1833 H   0  0  0  0  0  0  0  0  0  0  0  0
   58.6670   30.7676   43.9128 H   0  0  0  0  0  0  0  0  0  0  0  0
   57.2795   28.9484   45.4307 H   0  0  0  0  0  0  0  0  0  0  0  0
   53.7358   26.0172   45.2887 H   0  0  0  0  0  0  0  0  0  0  0  0
  1  2  1  0
  2  3  1  0
  3  4  1  0
  4  5  2  0
  5  6  1  0
  6  7  2  0
  7  8  1  0
  8  9  1  0
  9 10  1  0
 10 11  2  0
 10 12  1  0
 12 13  2  0
 13 14  1  0
 14 15  2  0
 15 16  1  0
 16 17  2  0
 17 18  1  0
 18 19  2  0
 19 20  1  0
 20 21  1  0
 21 22  1  0
 22 23  1  0
 23 24  2  0
 24 25  1  0
 25 26  2  0
 26 27  1  0
 27 28  2  0
 19 29  1  0
 29 30  2  0
 15 31  1  0
 31 32  1  0
 32 33  2  0
 33 34  1  0
 34 35  2  0
 35 36  1  0
 36 37  2  0
 31 38  2  0
  8 39  2  0
 39 40  1  0
 40  2  2  0
 40  5  1  0
 38 12  1  0
 30 16  1  0
 37 32  1  0
 28 23  1  0
  1 41  1  0
  1 42  1  0
  1 43  1  0
  6 44  1  0
  7 45  1  0
  9 46  1  0
 13 47  1  0
 14 48  1  0
 17 49  1  0
 18 50  1  0
 20 51  1  0
 20 52  1  0
 21 53  1  0
 22 54  1  0
 22 55  1  0
 24 56  1  0
 25 57  1  0
 26 58  1  0
 27 59  1  0
 28 60  1  0
 29 61  1  0
 30 62  1  0
 33 63  1  0
 34 64  1  0
 36 65  1  0
 37 66  1  0
 38 67  1  0
 39 68  1  0
M  CHG  1   3  -1
M  END
>  <UniqueID>  (37) 
35

>  <SMILES>  (37) 
Cc1[n-]nc2ccc(NC(=O)c3ccc(-c4ccc(CNCc5ccccc5)cc4)c(-c4ccncc4)c3)cc12

>  <Energy>  (37) 
128.3688756982571

>  <Genealogy>  (37) 
Cc1[n-]nc2ccc(NC(=O)c3ccc(-c4ccc(CNCc5ccccc5)cc4)c(-c4ccncc4)c3)cc12 (protonated)
Cc1[n-]nc2ccc(NC(=O)c3ccc(-c4ccc(CNCc5ccccc5)cc4)c(-c4ccncc4)c3)cc12 (3D coordinates assigned)
Cc1[n-]nc2ccc(NC(=O)c3ccc(-c4ccc(CNCc5ccccc5)cc4)c(-c4ccncc4)c3)cc12 (optimized conformer: 128.3688756982571 kcal/mol)

>  <smiles>  (37) 
Cc1[nH]nc2ccc(NC(=O)c3ccc(-c4ccc(CNCc5ccccc5)cc4)c(-c4ccncc4)c3)cc12

>  <score_type>  (37) 
oracle

>  <origin>  (37) 
adg

>  <m_score__min__energy>  (37) 
-11.58

>  <m_primary>  (37) 
energy

$$$$
37:0
     RDKit          3D

 49 51  0  0  0  0  0  0  0  0999 V2000
   59.6500   32.9850   50.3450 C   0  0  0  0  0  0  0  0  0  0  0  0
   60.9180   33.8320   50.4020 C   0  0  0  0  0  0  0  0  0  0  0  0
   61.7180   33.6850   49.1310 C   0  0  0  0  0  0  0  0  0  0  0  0
   63.0140   33.1460   49.1900 C   0  0  0  0  0  0  0  0  0  0  0  0
   63.7640   32.9810   48.0240 C   0  0  0  0  0  0  0  0  0  0  0  0
   63.2250   33.3410   46.7890 C   0  0  0  0  0  0  0  0  0  0  0  0
   61.9320   33.8620   46.7130 C   0  0  0  0  0  0  0  0  0  0  0  0
   61.1630   34.0370   47.8810 C   0  0  0  0  0  0  0  0  0  0  0  0
   59.8540   34.5510   47.8420 O   0  0  0  0  0  0  0  0  0  0  0  0
   59.1820   35.0140   46.6710 C   0  0  0  0  0  0  0  0  0  0  0  0
   58.6780   33.8590   45.8620 C   0  0  0  0  0  0  0  0  0  0  0  0
   58.4950   33.8500   44.4850 C   0  0  0  0  0  0  0  0  0  0  0  0
   58.0340   32.6210   43.9960 C   0  0  0  0  0  0  0  0  0  0  0  0
   57.8760   31.6580   44.9890 C   0  0  0  0  0  0  0  0  0  0  0  0
   57.3700   30.2890   44.8040 C   0  0  0  0  0  0  0  0  0  0  0  0
   56.1290   30.0810   44.8660 O   0  0  0  0  0  0  0  0  0  0  0  0
   58.2620   29.1930   44.5460 N   0  0  0  0  0  0  0  0  0  0  0  0
   57.7670   28.0260   43.8080 C   0  0  0  0  0  0  0  0  0  0  0  0
   59.6920   29.3280   44.8490 C   0  0  0  0  0  0  0  0  0  0  0  0
   59.9130   29.4650   46.3320 C   0  0  0  0  0  0  0  0  0  0  0  0
   60.9050   30.3300   46.8240 C   0  0  0  0  0  0  0  0  0  0  0  0
   61.0950   30.4740   48.2020 C   0  0  0  0  0  0  0  0  0  0  0  0
   60.2960   29.7590   49.0980 C   0  0  0  0  0  0  0  0  0  0  0  0
   59.3060   28.8970   48.6180 C   0  0  0  0  0  0  0  0  0  0  0  0
   59.1140   28.7500   47.2410 C   0  0  0  0  0  0  0  0  0  0  0  0
   58.2870   32.3410   46.4730 S   0  0  0  0  0  0  0  0  0  0  0  0
   59.3131   32.7600   51.3677 H   0  0  0  0  0  0  0  0  0  0  0  0
   58.8625   33.5391   49.8131 H   0  0  0  0  0  0  0  0  0  0  0  0
   59.8603   32.0454   49.8131 H   0  0  0  0  0  0  0  0  0  0  0  0
   60.6405   34.8883   50.5334 H   0  0  0  0  0  0  0  0  0  0  0  0
   61.5330   33.4897   51.2474 H   0  0  0  0  0  0  0  0  0  0  0  0
   63.4404   32.8522   50.1605 H   0  0  0  0  0  0  0  0  0  0  0  0
   64.7814   32.5665   48.0794 H   0  0  0  0  0  0  0  0  0  0  0  0
   63.8201   33.2141   45.8726 H   0  0  0  0  0  0  0  0  0  0  0  0
   61.5107   34.1377   45.7350 H   0  0  0  0  0  0  0  0  0  0  0  0
   58.3319   35.6459   46.9679 H   0  0  0  0  0  0  0  0  0  0  0  0
   59.8908   35.5926   46.0604 H   0  0  0  0  0  0  0  0  0  0  0  0
   58.6924   34.7210   43.8428 H   0  0  0  0  0  0  0  0  0  0  0  0
   57.8183   32.4353   42.9335 H   0  0  0  0  0  0  0  0  0  0  0  0
   57.4395   27.2539   44.5198 H   0  0  0  0  0  0  0  0  0  0  0  0
   56.9183   28.3252   43.1754 H   0  0  0  0  0  0  0  0  0  0  0  0
   58.5720   27.6237   43.1754 H   0  0  0  0  0  0  0  0  0  0  0  0
   60.2235   28.4360   44.4859 H   0  0  0  0  0  0  0  0  0  0  0  0
   60.0747   30.2307   44.3503 H   0  0  0  0  0  0  0  0  0  0  0  0
   61.5349   30.8964   46.1222 H   0  0  0  0  0  0  0  0  0  0  0  0
   61.8746   31.1511   48.5811 H   0  0  0  0  0  0  0  0  0  0  0  0
   60.4462   29.8746   50.1816 H   0  0  0  0  0  0  0  0  0  0  0  0
   58.6777   28.3340   49.3239 H   0  0  0  0  0  0  0  0  0  0  0  0
   58.3335   28.0712   46.8669 H   0  0  0  0  0  0  0  0  0  0  0  0
  1  2  1  0
  2  3  1  0
  3  4  2  0
  4  5  1  0
  5  6  2  0
  6  7  1  0
  7  8  2  0
  8  9  1  0
  9 10  1  0
 10 11  1  0
 11 12  2  0
 12 13  1  0
 13 14  2  0
 14 15  1  0
 15 16  2  0
 15 17  1  0
 17 18  1  0
 17 19  1  0
 19 20  1  0
 20 21  2  0
 21 22  1  0
 22 23  2  0
 23 24  1  0
 24 25  2  0
 14 26  1  0
  8  3  1  0
 26 11  1  0
 25 20  1  0
  1 27  1  0
  1 28  1  0
  1 29  1  0
  2 30  1  0
  2 31  1  0
  4 32  1  0
  5 33  1  0
  6 34  1  0
  7 35  1  0
 10 36  1  0
 10 37  1  0
 12 38  1  0
 13 39  1  0
 18 40  1  0
 18 41  1  0
 18 42  1  0
 19 43  1  0
 19 44  1  0
 21 45  1  0
 22 46  1  0
 23 47  1  0
 24 48  1  0
 25 49  1  0
M  END
>  <UniqueID>  (38) 
36

>  <SMILES>  (38) 
CCc1ccccc1OCc1ccc(C(=O)N(C)Cc2ccccc2)s1

>  <Energy>  (38) 
75.10178465938615

>  <Genealogy>  (38) 
CCc1ccccc1OCc1ccc(C(=O)N(C)Cc2ccccc2)s1 (3D coordinates assigned)
CCc1ccccc1OCc1ccc(C(=O)N(C)Cc2ccccc2)s1 (optimized conformer: 75.10178465938615 kcal/mol)

>  <smiles>  (38) 
CCc1ccccc1OCc1ccc(C(=O)N(C)Cc2ccccc2)s1

>  <score_type>  (38) 
oracle

>  <origin>  (38) 
adg

>  <m_score__min__energy>  (38) 
-8.5600000000000005

>  <m_primary>  (38) 
energy

$$$$
38:0
     RDKit          3D

 46 48  0  0  0  0  0  0  0  0999 V2000
   60.1080   34.2420   48.5700 C   0  0  0  0  0  0  0  0  0  0  0  0
   59.5440   34.0350   47.1870 C   0  0  0  0  0  0  0  0  0  0  0  0
   59.5820   35.1070   46.2730 C   0  0  0  0  0  0  0  0  0  0  0  0
   59.0930   34.9530   44.9720 C   0  0  0  0  0  0  0  0  0  0  0  0
   58.5620   33.7300   44.5640 C   0  0  0  0  0  0  0  0  0  0  0  0
   58.5090   32.6580   45.4570 C   0  0  0  0  0  0  0  0  0  0  0  0
   58.9820   32.7940   46.7770 C   0  0  0  0  0  0  0  0  0  0  0  0
   58.8810   31.5950   47.6980 C   0  0  0  0  0  0  0  0  0  0  0  0
   60.0450   30.7110   47.5290 N   0  0  0  0  0  0  0  0  0  0  0  0
   60.2200   29.9520   46.2860 C   0  0  0  0  0  0  0  0  0  0  0  0
   59.1500   28.9030   46.1860 C   0  0  0  0  0  0  0  0  0  0  0  0
   59.1780   27.7840   47.0310 C   0  0  0  0  0  0  0  0  0  0  0  0
   58.1500   26.8410   46.9800 C   0  0  0  0  0  0  0  0  0  0  0  0
   57.0790   27.0140   46.0940 C   0  0  0  0  0  0  0  0  0  0  0  0
   56.0260   26.0340   46.0370 C   0  0  0  0  0  0  0  0  0  0  0  0
   55.1780   25.2470   45.9960 N   0  0  0  0  0  0  0  0  0  0  0  0
   57.0370   28.1380   45.2630 C   0  0  0  0  0  0  0  0  0  0  0  0
   58.0680   29.0800   45.3100 C   0  0  0  0  0  0  0  0  0  0  0  0
   61.0430   30.6060   48.5610 C   0  0  0  0  0  0  0  0  0  0  0  0
   60.9260   29.7210   49.4500 O   0  0  0  0  0  0  0  0  0  0  0  0
   62.2260   31.4930   48.5810 C   0  0  0  0  0  0  0  0  0  0  0  0
   62.5380   32.2820   47.4630 C   0  0  0  0  0  0  0  0  0  0  0  0
   63.6700   33.1030   47.4940 C   0  0  0  0  0  0  0  0  0  0  0  0
   64.4810   33.1280   48.6260 C   0  0  0  0  0  0  0  0  0  0  0  0
   64.1530   32.3170   49.7160 C   0  0  0  0  0  0  0  0  0  0  0  0
   63.0500   31.5160   49.6720 N   0  0  0  0  0  0  0  0  0  0  0  0
   59.3522   33.9646   49.3195 H   0  0  0  0  0  0  0  0  0  0  0  0
   61.0011   33.6131   48.6997 H   0  0  0  0  0  0  0  0  0  0  0  0
   60.3822   35.2994   48.6997 H   0  0  0  0  0  0  0  0  0  0  0  0
   60.0006   36.0748   46.5862 H   0  0  0  0  0  0  0  0  0  0  0  0
   59.1273   35.7984   44.2691 H   0  0  0  0  0  0  0  0  0  0  0  0
   58.1846   33.6096   43.5378 H   0  0  0  0  0  0  0  0  0  0  0  0
   58.0927   31.6952   45.1257 H   0  0  0  0  0  0  0  0  0  0  0  0
   58.8399   31.9429   48.7407 H   0  0  0  0  0  0  0  0  0  0  0  0
   57.9697   31.0321   47.4478 H   0  0  0  0  0  0  0  0  0  0  0  0
   60.1464   30.6342   45.4262 H   0  0  0  0  0  0  0  0  0  0  0  0
   61.2084   29.4691   46.2869 H   0  0  0  0  0  0  0  0  0  0  0  0
   60.0119   27.6491   47.7355 H   0  0  0  0  0  0  0  0  0  0  0  0
   58.1811   25.9596   47.6374 H   0  0  0  0  0  0  0  0  0  0  0  0
   56.1926   28.2805   44.5726 H   0  0  0  0  0  0  0  0  0  0  0  0
   58.0313   29.9646   44.6572 H   0  0  0  0  0  0  0  0  0  0  0  0
   61.8972   32.2549   46.5693 H   0  0  0  0  0  0  0  0  0  0  0  0
   63.9197   33.7288   46.6245 H   0  0  0  0  0  0  0  0  0  0  0  0
   65.3681   33.7775   48.6617 H   0  0  0  0  0  0  0  0  0  0  0  0
   64.7879   32.3248   50.6142 H   0  0  0  0  0  0  0  0  0  0  0  0
   62.8310   30.9200   50.5060 H   0  0  0  0  0  0  0  0  0  0  0  0
  1  2  1  0
  2  3  2  0
  3  4  1  0
  4  5  2  0
  5  6  1  0
  6  7  2  0
  7  8  1  0
  8  9  1  0
  9 10  1  0
 10 11  1  0
 11 12  2  0
 12 13  1  0
 13 14  2  0
 14 15  1  0
 15 16  3  0
 14 17  1  0
 17 18  2  0
  9 19  1  0
 19 20  2  0
 19 21  1  0
 21 22  2  0
 22 23  1  0
 23 24  2  0
 24 25  1  0
 25 26  2  0
  7  2  1  0
 18 11  1  0
 26 21  1  0
  1 27  1  0
  1 28  1  0
  1 29  1  0
  3 30  1  0
  4 31  1  0
  5 32  1  0
  6 33  1  0
  8 34  1  0
  8 35  1  0
 10 36  1  0
 10 37  1  0
 12 38  1  0
 13 39  1  0
 17 40  1  0
 18 41  1  0
 22 42  1  0
 23 43  1  0
 24 44  1  0
 25 45  1  0
 26 46  1  0
M  CHG  1  26   1
M  END
>  <UniqueID>  (39) 
37

>  <SMILES>  (39) 
Cc1ccccc1CN(Cc1ccc(C#N)cc1)C(=O)c1cccc[nH+]1

>  <Energy>  (39) 
50.325801866650195

>  <Genealogy>  (39) 
Cc1ccccc1CN(Cc1ccc(C#N)cc1)C(=O)c1cccc[nH+]1 (protonated)
Cc1ccccc1CN(Cc1ccc(C#N)cc1)C(=O)c1cccc[nH+]1 (3D coordinates assigned)
Cc1ccccc1CN(Cc1ccc(C#N)cc1)C(=O)c1cccc[nH+]1 (optimized conformer: 50.325801866650195 kcal/mol)

>  <smiles>  (39) 
Cc1ccccc1CN(Cc1ccc(C#N)cc1)C(=O)c1ccccn1

>  <score_type>  (39) 
oracle

>  <origin>  (39) 
adg

>  <m_score__min__energy>  (39) 
-6.7000000000000002

>  <m_primary>  (39) 
energy

$$$$
39:0
     RDKit          3D

 54 57  0  0  0  0  0  0  0  0999 V2000
   51.8360   24.0780   44.4340 C   0  0  0  0  0  0  0  0  0  0  0  0
   52.8960   23.1770   44.7320 O   0  0  0  0  0  0  0  0  0  0  0  0
   54.2480   23.5440   44.8120 C   0  0  0  0  0  0  0  0  0  0  0  0
   55.0540   23.3630   43.6830 C   0  0  0  0  0  0  0  0  0  0  0  0
   56.4050   23.7210   43.7100 C   0  0  0  0  0  0  0  0  0  0  0  0
   56.9720   24.2690   44.8660 C   0  0  0  0  0  0  0  0  0  0  0  0
   58.3280   24.6340   44.8320 O   0  0  0  0  0  0  0  0  0  0  0  0
   59.1400   24.8870   45.9790 C   0  0  0  0  0  0  0  0  0  0  0  0
   59.5390   26.3310   46.0350 C   0  0  0  0  0  0  0  0  0  0  0  0
   60.5060   26.6810   46.7630 O   0  0  0  0  0  0  0  0  0  0  0  0
   58.8510   27.2970   45.2280 N   0  0  0  0  0  0  0  0  0  0  0  0
   58.7290   28.6840   45.5780 C   0  0  0  0  0  0  0  0  0  0  0  0
   59.1750   29.1190   46.8520 C   0  0  0  0  0  0  0  0  0  0  0  0
   59.1130   30.4750   47.2190 C   0  0  0  0  0  0  0  0  0  0  0  0
   58.6090   31.3840   46.2830 C   0  0  0  0  0  0  0  0  0  0  0  0
   58.1930   30.9660   45.0460 C   0  0  0  0  0  0  0  0  0  0  0  0
   58.2410   29.6330   44.6490 C   0  0  0  0  0  0  0  0  0  0  0  0
   57.8140   32.1130   44.3910 C   0  0  0  0  0  0  0  0  0  0  0  0
   57.3930   32.1840   43.2050 O   0  0  0  0  0  0  0  0  0  0  0  0
   57.9850   33.1710   45.2160 N   0  0  0  0  0  0  0  0  0  0  0  0
   57.7700   34.5740   44.8610 C   0  0  0  0  0  0  0  0  0  0  0  0
   58.4780   32.7290   46.3770 N   0  0  0  0  0  0  0  0  0  0  0  0
   58.8830   33.5780   47.5050 C   0  0  0  0  0  0  0  0  0  0  0  0
   60.3790   33.5570   47.6720 C   0  0  0  0  0  0  0  0  0  0  0  0
   60.9460   33.2720   48.9240 C   0  0  0  0  0  0  0  0  0  0  0  0
   62.3360   33.2410   49.0800 C   0  0  0  0  0  0  0  0  0  0  0  0
   63.1680   33.4940   47.9850 C   0  0  0  0  0  0  0  0  0  0  0  0
   64.5160   33.4630   48.1370 F   0  0  0  0  0  0  0  0  0  0  0  0
   62.6110   33.7800   46.7360 C   0  0  0  0  0  0  0  0  0  0  0  0
   61.2230   33.8120   46.5780 C   0  0  0  0  0  0  0  0  0  0  0  0
   56.1670   24.4410   46.0080 C   0  0  0  0  0  0  0  0  0  0  0  0
   54.8160   24.0850   45.9800 C   0  0  0  0  0  0  0  0  0  0  0  0
   51.3973   24.4509   45.3713 H   0  0  0  0  0  0  0  0  0  0  0  0
   52.2273   24.9242   43.8502 H   0  0  0  0  0  0  0  0  0  0  0  0
   51.0639   23.5555   43.8502 H   0  0  0  0  0  0  0  0  0  0  0  0
   54.6211   22.9355   42.7666 H   0  0  0  0  0  0  0  0  0  0  0  0
   57.0273   23.5708   42.8155 H   0  0  0  0  0  0  0  0  0  0  0  0
   58.5727   24.6333   46.8866 H   0  0  0  0  0  0  0  0  0  0  0  0
   60.0485   24.2704   45.9133 H   0  0  0  0  0  0  0  0  0  0  0  0
   58.3970   26.9640   44.3460 H   0  0  0  0  0  0  0  0  0  0  0  0
   59.5761   28.3835   47.5649 H   0  0  0  0  0  0  0  0  0  0  0  0
   59.4502   30.8103   48.2109 H   0  0  0  0  0  0  0  0  0  0  0  0
   57.9103   29.3271   43.6455 H   0  0  0  0  0  0  0  0  0  0  0  0
   57.6780   35.1743   45.7781 H   0  0  0  0  0  0  0  0  0  0  0  0
   58.6230   34.9373   44.2690 H   0  0  0  0  0  0  0  0  0  0  0  0
   56.8474   34.6652   44.2690 H   0  0  0  0  0  0  0  0  0  0  0  0
   58.5545   34.6108   47.3166 H   0  0  0  0  0  0  0  0  0  0  0  0
   58.4176   33.1930   48.4243 H   0  0  0  0  0  0  0  0  0  0  0  0
   60.2940   33.0720   49.7871 H   0  0  0  0  0  0  0  0  0  0  0  0
   62.7743   33.0176   50.0639 H   0  0  0  0  0  0  0  0  0  0  0  0
   63.2663   33.9803   45.8755 H   0  0  0  0  0  0  0  0  0  0  0  0
   60.7892   34.0378   45.5927 H   0  0  0  0  0  0  0  0  0  0  0  0
   56.6039   24.8579   46.9274 H   0  0  0  0  0  0  0  0  0  0  0  0
   54.1935   24.2284   46.8755 H   0  0  0  0  0  0  0  0  0  0  0  0
  1  2  1  0
  2  3  1  0
  3  4  2  0
  4  5  1  0
  5  6  2  0
  6  7  1  0
  7  8  1  0
  8  9  1  0
  9 10  2  0
  9 11  1  0
 11 12  1  0
 12 13  2  0
 13 14  1  0
 14 15  2  0
 15 16  1  0
 16 17  2  0
 16 18  1  0
 18 19  2  0
 18 20  1  0
 20 21  1  0
 20 22  1  0
 22 23  1  0
 23 24  1  0
 24 25  2  0
 25 26  1  0
 26 27  2  0
 27 28  1  0
 27 29  1  0
 29 30  2  0
  6 31  1  0
 31 32  2  0
 32  3  1  0
 17 12  1  0
 30 24  1  0
 22 15  1  0
  1 33  1  0
  1 34  1  0
  1 35  1  0
  4 36  1  0
  5 37  1  0
  8 38  1  0
  8 39  1  0
 11 40  1  0
 13 41  1  0
 14 42  1  0
 17 43  1  0
 21 44  1  0
 21 45  1  0
 21 46  1  0
 23 47  1  0
 23 48  1  0
 25 49  1  0
 26 50  1  0
 29 51  1  0
 30 52  1  0
 31 53  1  0
 32 54  1  0
M  END
>  <UniqueID>  (40) 
38

>  <SMILES>  (40) 
COc1ccc(OCC(=O)Nc2ccc3c(c2)c(=O)n(C)n3Cc2ccc(F)cc2)cc1

>  <Energy>  (40) 
100.69924359020449

>  <Genealogy>  (40) 
COc1ccc(OCC(=O)Nc2ccc3c(c2)c(=O)n(C)n3Cc2ccc(F)cc2)cc1 (3D coordinates assigned)
COc1ccc(OCC(=O)Nc2ccc3c(c2)c(=O)n(C)n3Cc2ccc(F)cc2)cc1 (optimized conformer: 100.69924359020449 kcal/mol)

>  <smiles>  (40) 
COc1ccc(OCC(=O)Nc2ccc3c(c2)c(=O)n(C)n3Cc2ccc(F)cc2)cc1

>  <score_type>  (40) 
oracle

>  <origin>  (40) 
adg

>  <m_score__min__energy>  (40) 
-8.0600000000000005

>  <m_primary>  (40) 
energy

$$$$
40:0
     RDKit          3D

 30 31  0  0  1  0  0  0  0  0999 V2000
   59.2820   33.5880   48.4250 C   0  0  0  0  0  0  0  0  0  0  0  0
   59.3690   34.1290   46.7350 S   0  0  0  0  0  0  0  0  0  0  0  0
   59.0610   32.8760   45.4960 C   0  0  1  0  0  0  0  0  0  0  0  0
   59.2180   31.4660   46.0190 C   0  0  0  0  0  0  0  0  0  0  0  0
   58.1920   30.7640   45.1640 C   0  0  1  0  0  0  0  0  0  0  0  0
   57.7990   29.4760   45.6060 N   0  0  0  0  0  0  0  0  0  0  0  0
   58.5730   28.6880   46.3690 C   0  0  0  0  0  0  0  0  0  0  0  0
   58.0970   27.4520   46.7450 C   0  0  0  0  0  0  0  0  0  0  0  0
   58.8440   26.6120   47.5210 F   0  0  0  0  0  0  0  0  0  0  0  0
   56.5660   29.0260   45.2280 C   0  0  0  0  0  0  0  0  0  0  0  0
   56.3620   25.8680   46.6800 N   0  0  0  0  0  0  0  0  0  0  0  0
   56.1070   27.8170   45.6000 N   0  0  0  0  0  0  0  0  0  0  0  0
   56.8640   27.0080   46.3640 C   0  0  0  0  0  0  0  0  0  0  0  0
   55.8270   29.7550   44.5120 O   0  0  0  0  0  0  0  0  0  0  0  0
   57.1690   31.7140   45.1530 O   0  0  0  0  0  0  0  0  0  0  0  0
   57.7700   32.8940   44.9270 N   0  0  0  0  0  0  0  0  0  0  0  0
   57.0240   34.0400   45.3640 C   0  0  0  0  0  0  0  0  0  0  0  0
   59.4207   34.4504   49.0937 H   0  0  0  0  0  0  0  0  0  0  0  0
   58.2990   33.1319   48.6139 H   0  0  0  0  0  0  0  0  0  0  0  0
   60.0725   32.8467   48.6139 H   0  0  0  0  0  0  0  0  0  0  0  0
   59.8190   33.1361   44.7425 H   0  0  0  0  0  0  0  0  0  0  0  0
   60.2317   31.0754   45.8464 H   0  0  0  0  0  0  0  0  0  0  0  0
   59.0782   31.3522   47.1041 H   0  0  0  0  0  0  0  0  0  0  0  0
   58.5699   30.4927   44.1672 H   0  0  0  0  0  0  0  0  0  0  0  0
   59.5705   29.0241   46.6884 H   0  0  0  0  0  0  0  0  0  0  0  0
   55.5120   25.7760   47.2720 H   0  0  0  0  0  0  0  0  0  0  0  0
   55.1440   27.5290   45.2720 H   0  0  0  0  0  0  0  0  0  0  0  0
   57.0057   34.0681   46.4635 H   0  0  0  0  0  0  0  0  0  0  0  0
   57.5001   34.9550   44.9817 H   0  0  0  0  0  0  0  0  0  0  0  0
   55.9946   33.9750   44.9817 H   0  0  0  0  0  0  0  0  0  0  0  0
  1  2  1  0
  2  3  1  0
  3  4  1  0
  4  5  1  0
  5  6  1  0
  6  7  1  0
  7  8  2  0
  8  9  1  0
  8 10  1  0
 10 11  2  3
 10 12  1  0
 12 13  1  0
 13 14  2  0
  5 15  1  0
 15 16  1  0
 16 17  1  0
 16  3  1  0
 13  6  1  0
  1 18  1  0
  1 19  1  0
  1 20  1  0
  3 21  1  6
  4 22  1  0
  4 23  1  0
  5 24  1  6
  7 25  1  0
 11 26  1  0
 12 27  1  0
 17 28  1  0
 17 29  1  0
 17 30  1  0
M  END
>  <smiles>  (41) 
CSC1CC(n2cc(F)c(=N)[nH]c2=O)ON1C

>  <score_type>  (41) 
oracle

>  <origin>  (41) 
adg

>  <m_score__min__energy>  (41) 
-6.6600000000000001

>  <m_primary>  (41) 
energy

$$$$
41:0
     RDKit          3D

 50 52  0  0  0  0  0  0  0  0999 V2000
   58.3810   27.1200   43.7510 C   0  0  0  0  0  0  0  0  0  0  0  0
   58.1400   26.9690   45.1470 O   0  0  0  0  0  0  0  0  0  0  0  0
   58.7030   27.7830   46.1430 C   0  0  0  0  0  0  0  0  0  0  0  0
   59.8560   27.4060   46.8520 C   0  0  0  0  0  0  0  0  0  0  0  0
   60.3910   28.2450   47.8310 C   0  0  0  0  0  0  0  0  0  0  0  0
   59.7640   29.4610   48.1530 C   0  0  0  0  0  0  0  0  0  0  0  0
   60.3060   30.3310   49.1740 N   0  0  0  0  0  0  0  0  0  0  0  0
   59.7390   31.6710   49.3850 C   0  0  0  0  0  0  0  0  0  0  0  0
   60.7070   32.5580   50.1810 C   0  0  0  0  0  0  0  0  0  0  0  0
   62.1140   32.3300   49.7880 N   0  0  0  0  0  0  0  0  0  0  0  0
   62.4440   32.8970   48.1620 S   0  0  0  0  0  0  0  0  0  0  0  0
   63.3190   34.1180   48.2350 O   0  0  0  0  0  0  0  0  0  0  0  0
   63.1730   31.8390   47.3840 O   0  0  0  0  0  0  0  0  0  0  0  0
   60.9500   33.3330   47.3330 C   0  0  0  0  0  0  0  0  0  0  0  0
   60.3350   34.5730   47.5640 C   0  0  0  0  0  0  0  0  0  0  0  0
   59.1540   34.9070   46.8950 C   0  0  0  0  0  0  0  0  0  0  0  0
   58.5820   34.0070   45.9880 C   0  0  0  0  0  0  0  0  0  0  0  0
   57.1040   34.4300   45.1440 Cl  0  0  0  0  0  0  0  0  0  0  0  0
   59.1950   32.7720   45.7500 C   0  0  0  0  0  0  0  0  0  0  0  0
   60.3730   32.4330   46.4220 C   0  0  0  0  0  0  0  0  0  0  0  0
   62.5620   30.9270   49.9740 C   0  0  0  0  0  0  0  0  0  0  0  0
   61.4090   29.9080   50.0480 C   0  0  0  0  0  0  0  0  0  0  0  0
   58.6150   29.8340   47.4370 C   0  0  0  0  0  0  0  0  0  0  0  0
   58.0950   29.0160   46.4180 C   0  0  0  0  0  0  0  0  0  0  0  0
   56.9760   29.3880   45.6560 O   0  0  0  0  0  0  0  0  0  0  0  0
   57.0250   30.3730   44.2550 S   0  0  0  0  0  0  0  0  0  0  0  0
   56.2370   29.5390   42.8890 C   0  0  0  0  0  0  0  0  0  0  0  0
   58.4490   30.7030   43.9020 O   0  0  0  0  0  0  0  0  0  0  0  0
   56.2880   31.6510   44.5350 O   0  0  0  0  0  0  0  0  0  0  0  0
   59.3042   27.6984   43.5987 H   0  0  0  0  0  0  0  0  0  0  0  0
   58.4893   26.1280   43.2882 H   0  0  0  0  0  0  0  0  0  0  0  0
   57.5356   27.6502   43.2882 H   0  0  0  0  0  0  0  0  0  0  0  0
   60.3405   26.4428   46.6340 H   0  0  0  0  0  0  0  0  0  0  0  0
   61.3123   27.9516   48.3556 H   0  0  0  0  0  0  0  0  0  0  0  0
   59.5443   32.1373   48.4079 H   0  0  0  0  0  0  0  0  0  0  0  0
   58.8046   31.5705   49.9566 H   0  0  0  0  0  0  0  0  0  0  0  0
   60.4536   33.6129   49.9995 H   0  0  0  0  0  0  0  0  0  0  0  0
   60.6051   32.3031   51.2462 H   0  0  0  0  0  0  0  0  0  0  0  0
   60.7835   35.2841   48.2734 H   0  0  0  0  0  0  0  0  0  0  0  0
   58.6733   35.8786   47.0815 H   0  0  0  0  0  0  0  0  0  0  0  0
   58.7493   32.0668   45.0330 H   0  0  0  0  0  0  0  0  0  0  0  0
   60.8493   31.4589   46.2369 H   0  0  0  0  0  0  0  0  0  0  0  0
   63.2104   30.6555   49.1279 H   0  0  0  0  0  0  0  0  0  0  0  0
   63.0876   30.8850   50.9394 H   0  0  0  0  0  0  0  0  0  0  0  0
   61.7731   28.9221   49.7234 H   0  0  0  0  0  0  0  0  0  0  0  0
   61.0455   29.8494   51.0846 H   0  0  0  0  0  0  0  0  0  0  0  0
   58.1128   30.7827   47.6774 H   0  0  0  0  0  0  0  0  0  0  0  0
   55.5297   28.7904   43.2753 H   0  0  0  0  0  0  0  0  0  0  0  0
   55.6949   30.2730   42.2747 H   0  0  0  0  0  0  0  0  0  0  0  0
   57.0006   29.0394   42.2747 H   0  0  0  0  0  0  0  0  0  0  0  0
  1  2  1  0
  2  3  1  0
  3  4  2  0
  4  5  1  0
  5  6  2  0
  6  7  1  0
  7  8  1  0
  8  9  1  0
  9 10  1  0
 10 11  1  0
 11 12  2  0
 11 13  2  0
 11 14  1  0
 14 15  2  0
 15 16  1  0
 16 17  2  0
 17 18  1  0
 17 19  1  0
 19 20  2  0
 10 21  1  0
 21 22  1  0
  6 23  1  0
 23 24  2  0
 24 25  1  0
 25 26  1  0
 26 27  1  0
 26 28  2  0
 26 29  2  0
 24  3  1  0
 22  7  1  0
 20 14  1  0
  1 30  1  0
  1 31  1  0
  1 32  1  0
  4 33  1  0
  5 34  1  0
  8 35  1  0
  8 36  1  0
  9 37  1  0
  9 38  1  0
 15 39  1  0
 16 40  1  0
 19 41  1  0
 20 42  1  0
 21 43  1  0
 21 44  1  0
 22 45  1  0
 22 46  1  0
 23 47  1  0
 27 48  1  0
 27 49  1  0
 27 50  1  0
M  END
>  <UniqueID>  (42) 
39

>  <SMILES>  (42) 
COc1ccc(N2CCN(S(=O)(=O)c3ccc(Cl)cc3)CC2)cc1OS(C)(=O)=O

>  <Energy>  (42) 
57.09714170953595

>  <Genealogy>  (42) 
COc1ccc(N2CCN(S(=O)(=O)c3ccc(Cl)cc3)CC2)cc1OS(C)(=O)=O (3D coordinates assigned)
COc1ccc(N2CCN(S(=O)(=O)c3ccc(Cl)cc3)CC2)cc1OS(C)(=O)=O (nonaromatic ring conformer: 57.09714170953595 kcal/mol)

>  <smiles>  (42) 
COc1ccc(N2CCN(S(=O)(=O)c3ccc(Cl)cc3)CC2)cc1OS(C)(=O)=O

>  <score_type>  (42) 
oracle

>  <origin>  (42) 
adg

>  <m_score__min__energy>  (42) 
-8.5500000000000007

>  <m_primary>  (42) 
energy

$$$$
42:0
     RDKit          3D

 86 91  0  0  0  0  0  0  0  0999 V2000
   56.6030   21.6390   42.7350 C   0  0  0  0  0  0  0  0  0  0  0  0
   57.1190   21.5070   44.1710 C   0  0  0  0  0  0  0  0  0  0  0  0
   58.6380   21.7350   44.2730 C   0  0  0  0  0  0  0  0  0  0  0  0
   59.0380   22.7040   45.3630 C   0  0  0  0  0  0  0  0  0  0  0  0
   60.2560   22.9450   45.5880 O   0  0  0  0  0  0  0  0  0  0  0  0
   58.0590   23.3560   46.1760 N   0  0  0  0  0  0  0  0  0  0  0  0
   56.9310   22.5510   47.2190 S   0  0  0  0  0  0  0  0  0  0  0  0
   57.3300   21.1070   47.3490 O   0  0  0  0  0  0  0  0  0  0  0  0
   56.9950   23.2050   48.5700 O   0  0  0  0  0  0  0  0  0  0  0  0
   55.2840   22.6830   46.5800 C   0  0  0  0  0  0  0  0  0  0  0  0
   54.3510   21.6900   46.9190 C   0  0  0  0  0  0  0  0  0  0  0  0
   53.0250   21.7830   46.4930 C   0  0  0  0  0  0  0  0  0  0  0  0
   52.6120   22.8680   45.7190 C   0  0  0  0  0  0  0  0  0  0  0  0
   53.5280   23.8580   45.3600 C   0  0  0  0  0  0  0  0  0  0  0  0
   54.8720   23.7730   45.7690 C   0  0  0  0  0  0  0  0  0  0  0  0
   55.8090   24.8150   45.2940 C   0  0  0  0  0  0  0  0  0  0  0  0
   56.0010   25.9910   46.0360 C   0  0  0  0  0  0  0  0  0  0  0  0
   56.9600   26.9270   45.6400 C   0  0  0  0  0  0  0  0  0  0  0  0
   57.7690   26.6840   44.5190 C   0  0  0  0  0  0  0  0  0  0  0  0
   58.8840   27.6290   44.1580 C   0  0  0  0  0  0  0  0  0  0  0  0
   58.8340   28.8250   45.0120 N   0  0  0  0  0  0  0  0  0  0  0  0
   58.2790   30.0420   44.7340 C   0  0  0  0  0  0  0  0  0  0  0  0
   57.6450   30.4250   43.4240 C   0  0  0  0  0  0  0  0  0  0  0  0
   56.2570   29.7890   43.2540 C   0  0  0  0  0  0  0  0  0  0  0  0
   55.4770   29.7390   44.5640 C   0  0  0  0  0  0  0  0  0  0  0  0
   58.3570   30.9180   45.7690 N   0  0  0  0  0  0  0  0  0  0  0  0
   58.9710   30.2050   46.7290 C   0  0  0  0  0  0  0  0  0  0  0  0
   59.2770   30.6240   48.0190 C   0  0  0  0  0  0  0  0  0  0  0  0
   59.9230   29.7110   48.8840 C   0  0  0  0  0  0  0  0  0  0  0  0
   60.2800   30.0710   50.2300 N   0  0  0  0  0  0  0  0  0  0  0  0
   60.5260   31.7060   50.7620 S   0  0  0  0  0  0  0  0  0  0  0  0
   61.8780   31.8220   51.4070 O   0  0  0  0  0  0  0  0  0  0  0  0
   59.4830   32.0350   51.7950 O   0  0  0  0  0  0  0  0  0  0  0  0
   60.4420   32.8380   49.3980 C   0  0  0  0  0  0  0  0  0  0  0  0
   59.2600   33.5660   49.2200 C   0  0  0  0  0  0  0  0  0  0  0  0
   59.1090   34.4410   48.1500 C   0  0  0  0  0  0  0  0  0  0  0  0
   60.1380   34.6220   47.2190 C   0  0  0  0  0  0  0  0  0  0  0  0
   59.9120   35.5780   46.0730 C   0  0  0  0  0  0  0  0  0  0  0  0
   61.3570   33.9110   47.3820 C   0  0  0  0  0  0  0  0  0  0  0  0
   62.4230   34.0710   46.4710 C   0  0  0  0  0  0  0  0  0  0  0  0
   63.6180   33.3750   46.6430 C   0  0  0  0  0  0  0  0  0  0  0  0
   63.7810   32.5210   47.7290 C   0  0  0  0  0  0  0  0  0  0  0  0
   62.7440   32.3420   48.6430 C   0  0  0  0  0  0  0  0  0  0  0  0
   61.5130   33.0180   48.4840 C   0  0  0  0  0  0  0  0  0  0  0  0
   60.2360   28.4100   48.4100 C   0  0  0  0  0  0  0  0  0  0  0  0
   59.8980   28.0140   47.1030 C   0  0  0  0  0  0  0  0  0  0  0  0
   59.2610   28.9500   46.2840 C   0  0  0  0  0  0  0  0  0  0  0  0
   57.5570   25.5230   43.7600 C   0  0  0  0  0  0  0  0  0  0  0  0
   56.5910   24.5920   44.1480 C   0  0  0  0  0  0  0  0  0  0  0  0
   55.5374   21.9116   42.7519 H   0  0  0  0  0  0  0  0  0  0  0  0
   57.1731   22.4202   42.2109 H   0  0  0  0  0  0  0  0  0  0  0  0
   56.7279   20.6800   42.2109 H   0  0  0  0  0  0  0  0  0  0  0  0
   56.6073   22.2505   44.7998 H   0  0  0  0  0  0  0  0  0  0  0  0
   56.9108   20.4811   44.5088 H   0  0  0  0  0  0  0  0  0  0  0  0
   59.1211   20.7676   44.4746 H   0  0  0  0  0  0  0  0  0  0  0  0
   58.9606   22.1759   43.3182 H   0  0  0  0  0  0  0  0  0  0  0  0
   54.6683   20.8297   47.5267 H   0  0  0  0  0  0  0  0  0  0  0  0
   52.3040   20.9991   46.7681 H   0  0  0  0  0  0  0  0  0  0  0  0
   51.5645   22.9431   45.3918 H   0  0  0  0  0  0  0  0  0  0  0  0
   53.1964   24.7125   44.7518 H   0  0  0  0  0  0  0  0  0  0  0  0
   55.3933   26.1767   46.9339 H   0  0  0  0  0  0  0  0  0  0  0  0
   57.0816   27.8598   46.2102 H   0  0  0  0  0  0  0  0  0  0  0  0
   59.8499   27.1219   44.2994 H   0  0  0  0  0  0  0  0  0  0  0  0
   58.7695   27.9338   43.1073 H   0  0  0  0  0  0  0  0  0  0  0  0
   57.5423   31.5195   43.3847 H   0  0  0  0  0  0  0  0  0  0  0  0
   58.2905   30.0589   42.6120 H   0  0  0  0  0  0  0  0  0  0  0  0
   55.6844   30.3800   42.5240 H   0  0  0  0  0  0  0  0  0  0  0  0
   56.4016   28.7544   42.9095 H   0  0  0  0  0  0  0  0  0  0  0  0
   56.1783   29.7840   45.4103 H   0  0  0  0  0  0  0  0  0  0  0  0
   54.7877   30.5948   44.6132 H   0  0  0  0  0  0  0  0  0  0  0  0
   54.9026   28.8022   44.6132 H   0  0  0  0  0  0  0  0  0  0  0  0
   59.0231   31.6393   48.3577 H   0  0  0  0  0  0  0  0  0  0  0  0
   60.2680   29.3310   50.9690 H   0  0  0  0  0  0  0  0  0  0  0  0
   58.4364   33.4439   49.9389 H   0  0  0  0  0  0  0  0  0  0  0  0
   58.1679   34.9985   48.0337 H   0  0  0  0  0  0  0  0  0  0  0  0
   59.6759   36.5765   46.4696 H   0  0  0  0  0  0  0  0  0  0  0  0
   60.8217   35.6337   45.4571 H   0  0  0  0  0  0  0  0  0  0  0  0
   59.0736   35.2205   45.4571 H   0  0  0  0  0  0  0  0  0  0  0  0
   62.3093   34.7529   45.6154 H   0  0  0  0  0  0  0  0  0  0  0  0
   64.4352   33.5013   45.9176 H   0  0  0  0  0  0  0  0  0  0  0  0
   64.7317   31.9851   47.8669 H   0  0  0  0  0  0  0  0  0  0  0  0
   62.8855   31.6659   49.4991 H   0  0  0  0  0  0  0  0  0  0  0  0
   60.7507   27.7007   49.0748 H   0  0  0  0  0  0  0  0  0  0  0  0
   60.1274   27.0019   46.7382 H   0  0  0  0  0  0  0  0  0  0  0  0
   58.1551   25.3451   42.8541 H   0  0  0  0  0  0  0  0  0  0  0  0
   56.4414   23.6789   43.5531 H   0  0  0  0  0  0  0  0  0  0  0  0
  1  2  1  0
  2  3  1  0
  3  4  1  0
  4  5  2  0
  4  6  1  0
  6  7  1  0
  7  8  2  0
  7  9  2  0
  7 10  1  0
 10 11  2  0
 11 12  1  0
 12 13  2  0
 13 14  1  0
 14 15  2  0
 15 16  1  0
 16 17  2  0
 17 18  1  0
 18 19  2  0
 19 20  1  0
 20 21  1  0
 21 22  1  0
 22 23  1  0
 23 24  1  0
 24 25  1  0
 22 26  2  0
 26 27  1  0
 27 28  2  0
 28 29  1  0
 29 30  1  0
 30 31  1  0
 31 32  2  0
 31 33  2  0
 31 34  1  0
 34 35  2  0
 35 36  1  0
 36 37  2  0
 37 38  1  0
 37 39  1  0
 39 40  2  0
 40 41  1  0
 41 42  2  0
 42 43  1  0
 43 44  2  0
 29 45  2  0
 45 46  1  0
 46 47  2  0
 19 48  1  0
 48 49  2  0
 15 10  1  0
 49 16  1  0
 47 21  1  0
 47 27  1  0
 44 34  1  0
 44 39  1  0
  1 50  1  0
  1 51  1  0
  1 52  1  0
  2 53  1  0
  2 54  1  0
  3 55  1  0
  3 56  1  0
 11 57  1  0
 12 58  1  0
 13 59  1  0
 14 60  1  0
 17 61  1  0
 18 62  1  0
 20 63  1  0
 20 64  1  0
 23 65  1  0
 23 66  1  0
 24 67  1  0
 24 68  1  0
 25 69  1  0
 25 70  1  0
 25 71  1  0
 28 72  1  0
 30 73  1  0
 35 74  1  0
 36 75  1  0
 38 76  1  0
 38 77  1  0
 38 78  1  0
 40 79  1  0
 41 80  1  0
 42 81  1  0
 43 82  1  0
 45 83  1  0
 46 84  1  0
 48 85  1  0
 49 86  1  0
M  CHG  1   6  -1
M  END
>  <UniqueID>  (43) 
40

>  <SMILES>  (43) 
CCCC(=O)[N-]S(=O)(=O)c1ccccc1-c1ccc(Cn2c(CCC)nc3cc(NS(=O)(=O)c4ccc(C)c5ccccc45)ccc32)cc1

>  <Energy>  (43) 
142.41405564341972

>  <Genealogy>  (43) 
CCCC(=O)[N-]S(=O)(=O)c1ccccc1-c1ccc(Cn2c(CCC)nc3cc(NS(=O)(=O)c4ccc(C)c5ccccc45)ccc32)cc1 (protonated)
CCCC(=O)[N-]S(=O)(=O)c1ccccc1-c1ccc(Cn2c(CCC)nc3cc(NS(=O)(=O)c4ccc(C)c5ccccc45)ccc32)cc1 (3D coordinates assigned)
CCCC(=O)[N-]S(=O)(=O)c1ccccc1-c1ccc(Cn2c(CCC)nc3cc(NS(=O)(=O)c4ccc(C)c5ccccc45)ccc32)cc1 (optimized conformer: 142.41405564341972 kcal/mol)

>  <smiles>  (43) 
CCCC(=O)NS(=O)(=O)c1ccccc1-c1ccc(Cn2c(CCC)nc3cc(NS(=O)(=O)c4ccc(C)c5ccccc45)ccc32)cc1

>  <score_type>  (43) 
oracle

>  <origin>  (43) 
adg

>  <m_score__min__energy>  (43) 
-14.01

>  <m_primary>  (43) 
energy

$$$$
43:0
     RDKit          3D

 53 57  0  0  0  0  0  0  0  0999 V2000
   55.6591   25.9031   45.7881 H   0  0  0  0  0  0  0  0  0  0  0  0
   56.3170   26.7730   45.9310 C   0  0  0  0  0  0  0  0  0  0  0  0
   56.0780   27.9200   45.2480 N   0  0  0  0  0  0  0  0  0  0  0  0
   56.8600   29.0200   45.4060 C   0  0  0  0  0  0  0  0  0  0  0  0
   56.5780   30.1810   44.6920 C   0  0  0  0  0  0  0  0  0  0  0  0
   55.7264   30.2060   43.9962 H   0  0  0  0  0  0  0  0  0  0  0  0
   57.3740   31.3100   44.8590 C   0  0  0  0  0  0  0  0  0  0  0  0
   57.1565   32.2251   44.2886 H   0  0  0  0  0  0  0  0  0  0  0  0
   58.4570   31.2820   45.7570 C   0  0  0  0  0  0  0  0  0  0  0  0
   59.2820   32.4570   45.9470 N   0  0  0  0  0  0  0  0  0  0  0  0
   58.8080   33.8200   45.7500 C   0  0  0  0  0  0  0  0  0  0  0  0
   58.5933   33.9975   44.6859 H   0  0  0  0  0  0  0  0  0  0  0  0
   57.8797   34.0031   46.3111 H   0  0  0  0  0  0  0  0  0  0  0  0
   59.9280   34.7410   46.2220 C   0  0  0  0  0  0  0  0  0  0  0  0
   60.0939   35.5483   45.4934 H   0  0  0  0  0  0  0  0  0  0  0  0
   59.6841   35.2191   47.1822 H   0  0  0  0  0  0  0  0  0  0  0  0
   61.1780   33.8510   46.3310 C   0  0  1  0  0  0  0  0  0  0  0  0
   61.8210   34.0335   45.4573 H   0  0  0  0  0  0  0  0  0  0  0  0
   62.0830   34.1670   47.4700 N   0  0  0  0  0  0  0  0  0  0  0  0
   63.3970   33.4770   47.4890 C   0  0  0  0  0  0  0  0  0  0  0  0
   63.4878   32.8651   46.5794 H   0  0  0  0  0  0  0  0  0  0  0  0
   64.1799   34.2482   47.5360 H   0  0  0  0  0  0  0  0  0  0  0  0
   63.5630   32.5660   48.7150 C   0  0  0  0  0  0  0  0  0  0  0  0
   64.3548   31.8284   48.5178 H   0  0  0  0  0  0  0  0  0  0  0  0
   63.8360   33.1768   49.5882 H   0  0  0  0  0  0  0  0  0  0  0  0
   62.3510   31.8940   48.9760 O   0  0  0  0  0  0  0  0  0  0  0  0
   61.3730   32.8000   49.4580 C   0  0  0  0  0  0  0  0  0  0  0  0
   60.3804   32.3577   49.2876 H   0  0  0  0  0  0  0  0  0  0  0  0
   61.5926   32.9620   50.5236 H   0  0  0  0  0  0  0  0  0  0  0  0
   61.4050   34.1930   48.7830 C   0  0  0  0  0  0  0  0  0  0  0  0
   60.3711   34.5401   48.6399 H   0  0  0  0  0  0  0  0  0  0  0  0
   61.9704   34.8710   49.4393 H   0  0  0  0  0  0  0  0  0  0  0  0
   60.6710   32.4080   46.3830 C   0  0  0  0  0  0  0  0  0  0  0  0
   61.2615   31.7704   45.7086 H   0  0  0  0  0  0  0  0  0  0  0  0
   60.7623   31.9840   47.3939 H   0  0  0  0  0  0  0  0  0  0  0  0
   58.7190   30.1270   46.4470 N   0  0  0  0  0  0  0  0  0  0  0  0
   59.5170   30.1110   47.1180 H   0  0  0  0  0  0  0  0  0  0  0  0
   57.9580   28.9980   46.2930 C   0  0  0  0  0  0  0  0  0  0  0  0
   58.2490   27.8020   46.9910 C   0  0  0  0  0  0  0  0  0  0  0  0
   59.2750   27.7650   47.7980 N   0  0  0  0  0  0  0  0  0  0  0  0
   59.5660   28.6410   48.9000 C   0  0  0  0  0  0  0  0  0  0  0  0
   58.6120   29.5580   49.3740 C   0  0  0  0  0  0  0  0  0  0  0  0
   57.6374   29.6444   48.8712 H   0  0  0  0  0  0  0  0  0  0  0  0
   58.8980   30.3610   50.4830 C   0  0  0  0  0  0  0  0  0  0  0  0
   58.1580   31.0939   50.8369 H   0  0  0  0  0  0  0  0  0  0  0  0
   60.1250   30.2320   51.1420 C   0  0  0  0  0  0  0  0  0  0  0  0
   60.4790   31.2350   52.5370 Cl  0  0  0  0  0  0  0  0  0  0  0  0
   61.0580   29.2890   50.7020 C   0  0  0  0  0  0  0  0  0  0  0  0
   62.0163   29.1766   51.2303 H   0  0  0  0  0  0  0  0  0  0  0  0
   60.7750   28.4880   49.5910 C   0  0  0  0  0  0  0  0  0  0  0  0
   61.5046   27.7349   49.2585 H   0  0  0  0  0  0  0  0  0  0  0  0
   57.3950   26.6920   46.8150 C   0  0  0  0  0  0  0  0  0  0  0  0
   57.5787   25.7628   47.3744 H   0  0  0  0  0  0  0  0  0  0  0  0
  1  2  1  0
  2  3  1  0
  3  4  1  0
  4  5  2  0
  5  6  1  0
  5  7  1  0
  7  8  1  0
  7  9  2  0
  9 10  1  0
 10 11  1  0
 11 12  1  0
 11 13  1  0
 11 14  1  0
 14 15  1  0
 14 16  1  0
 14 17  1  0
 17 18  1  6
 17 19  1  0
 19 20  1  0
 20 21  1  0
 20 22  1  0
 20 23  1  0
 23 24  1  0
 23 25  1  0
 23 26  1  0
 26 27  1  0
 27 28  1  0
 27 29  1  0
 27 30  1  0
 30 31  1  0
 30 32  1  0
 17 33  1  0
 33 34  1  0
 33 35  1  0
  9 36  1  0
 36 37  1  0
 36 38  2  0
 38 39  1  0
 39 40  2  0
 40 41  1  0
 41 42  2  0
 42 43  1  0
 42 44  1  0
 44 45  1  0
 44 46  2  0
 46 47  1  0
 46 48  1  0
 48 49  1  0
 48 50  2  0
 50 51  1  0
 39 52  1  0
 52 53  1  0
 52  2  2  0
 38  4  1  0
 50 41  1  0
 33 10  1  0
 30 19  1  0
M  CHG  2   3  -1  36   1
M  END
>  <UniqueID>  (44) 
41

>  <SMILES>  (44) 
Clc1ccc(/N=c2\cc[n-]c3ccc(N4CC[C@@H](N5CCOCC5)C4)[nH+]c23)cc1

>  <Energy>  (44) 
92.74539550132829

>  <Genealogy>  (44) 
Clc1ccc(N=c2cc[n-]c3ccc(N4CCC(N5CCOCC5)C4)[nH+]c23)cc1 (protonated)
Clc1ccc(N=c2cc[n-]c3ccc(N4CC[C@@H](N5CCOCC5)C4)[nH+]c23)cc1 (chirality)
Clc1ccc(/N=c2\cc[n-]c3ccc(N4CC[C@@H](N5CCOCC5)C4)[nH+]c23)cc1 (cis-trans isomerization)
Clc1ccc(/N=c2\cc[n-]c3ccc(N4CC[C@@H](N5CCOCC5)C4)[nH+]c23)cc1 (3D coordinates assigned)
Clc1ccc(/N=c2\cc[n-]c3ccc(N4CC[C@@H](N5CCOCC5)C4)[nH+]c23)cc1 (nonaromatic ring conformer: 92.74539550132829 kcal/mol)

>  <smiles>  (44) 
Clc1ccc(N=c2cc[nH]c3ccc(N4CCC(N5CCOCC5)C4)nc23)cc1

>  <score_type>  (44) 
oracle

>  <origin>  (44) 
adg

>  <m_score__min__energy>  (44) 
-8.0600000000000005

>  <m_primary>  (44) 
energy

$$$$
44:0
     RDKit          3D

 53 55  0  0  0  0  0  0  0  0999 V2000
   63.7350   33.0460   47.1200 C   0  0  0  0  0  0  0  0  0  0  0  0
   63.3440   33.4610   48.5270 C   0  0  0  0  0  0  0  0  0  0  0  0
   62.0800   34.1140   48.4920 O   0  0  0  0  0  0  0  0  0  0  0  0
   60.9560   33.6260   47.8090 C   0  0  0  0  0  0  0  0  0  0  0  0
   60.1590   32.5820   48.3150 C   0  0  0  0  0  0  0  0  0  0  0  0
   59.0440   32.1340   47.5970 C   0  0  0  0  0  0  0  0  0  0  0  0
   58.7150   32.7120   46.3590 C   0  0  0  0  0  0  0  0  0  0  0  0
   57.5320   32.2310   45.6050 C   0  0  0  0  0  0  0  0  0  0  0  0
   56.4820   32.9280   45.5930 O   0  0  0  0  0  0  0  0  0  0  0  0
   57.5560   31.0150   44.8440 N   0  0  0  0  0  0  0  0  0  0  0  0
   57.7490   29.6950   45.3740 C   0  0  0  0  0  0  0  0  0  0  0  0
   58.9540   29.3360   46.0020 C   0  0  0  0  0  0  0  0  0  0  0  0
   59.1420   28.0350   46.5010 C   0  0  0  0  0  0  0  0  0  0  0  0
   60.3480   27.6350   47.0990 O   0  0  0  0  0  0  0  0  0  0  0  0
   60.5110   27.3700   48.4880 C   0  0  0  0  0  0  0  0  0  0  0  0
   58.1050   27.0980   46.3910 C   0  0  0  0  0  0  0  0  0  0  0  0
   58.3040   25.7730   46.9080 N   0  0  0  0  0  0  0  0  0  0  0  0
   57.3730   24.6850   46.8110 C   0  0  0  0  0  0  0  0  0  0  0  0
   56.6800   24.3940   47.8230 O   0  0  0  0  0  0  0  0  0  0  0  0
   57.2390   23.8720   45.5780 C   0  0  0  0  0  0  0  0  0  0  0  0
   56.3340   24.2420   44.5660 C   0  0  0  0  0  0  0  0  0  0  0  0
   56.2180   23.4690   43.4060 C   0  0  0  0  0  0  0  0  0  0  0  0
   57.0140   22.3350   43.2370 C   0  0  0  0  0  0  0  0  0  0  0  0
   57.9290   21.9710   44.2260 C   0  0  0  0  0  0  0  0  0  0  0  0
   58.0450   22.7350   45.3910 C   0  0  0  0  0  0  0  0  0  0  0  0
   56.8820   27.4740   45.8130 C   0  0  0  0  0  0  0  0  0  0  0  0
   56.7010   28.7680   45.2930 C   0  0  0  0  0  0  0  0  0  0  0  0
   55.5020   29.1630   44.6790 O   0  0  0  0  0  0  0  0  0  0  0  0
   55.4100   29.7170   43.3700 C   0  0  0  0  0  0  0  0  0  0  0  0
   59.5080   33.7610   45.8630 C   0  0  0  0  0  0  0  0  0  0  0  0
   60.6210   34.2080   46.5810 C   0  0  0  0  0  0  0  0  0  0  0  0
   64.4886   32.2462   47.1697 H   0  0  0  0  0  0  0  0  0  0  0  0
   62.8462   32.6797   46.5854 H   0  0  0  0  0  0  0  0  0  0  0  0
   64.1536   33.9115   46.5854 H   0  0  0  0  0  0  0  0  0  0  0  0
   63.2791   32.5695   49.1681 H   0  0  0  0  0  0  0  0  0  0  0  0
   64.1018   34.1478   48.9320 H   0  0  0  0  0  0  0  0  0  0  0  0
   60.4134   32.1163   49.2785 H   0  0  0  0  0  0  0  0  0  0  0  0
   58.4211   31.3241   48.0045 H   0  0  0  0  0  0  0  0  0  0  0  0
   59.7578   30.0800   46.1041 H   0  0  0  0  0  0  0  0  0  0  0  0
   60.0228   28.1637   49.0725 H   0  0  0  0  0  0  0  0  0  0  0  0
   60.0531   26.4002   48.7325 H   0  0  0  0  0  0  0  0  0  0  0  0
   61.5831   27.3413   48.7325 H   0  0  0  0  0  0  0  0  0  0  0  0
   55.7150   25.1431   44.6877 H   0  0  0  0  0  0  0  0  0  0  0  0
   55.4979   23.7554   42.6253 H   0  0  0  0  0  0  0  0  0  0  0  0
   56.9202   21.7282   42.3243 H   0  0  0  0  0  0  0  0  0  0  0  0
   58.5604   21.0808   44.0885 H   0  0  0  0  0  0  0  0  0  0  0  0
   58.7705   22.4452   46.1654 H   0  0  0  0  0  0  0  0  0  0  0  0
   56.0564   26.7486   45.7664 H   0  0  0  0  0  0  0  0  0  0  0  0
   55.2302   30.7998   43.4419 H   0  0  0  0  0  0  0  0  0  0  0  0
   56.3504   29.5366   42.8286 H   0  0  0  0  0  0  0  0  0  0  0  0
   54.5784   29.2424   42.8286 H   0  0  0  0  0  0  0  0  0  0  0  0
   59.2511   34.2334   44.9034 H   0  0  0  0  0  0  0  0  0  0  0  0
   61.2386   35.0239   46.1775 H   0  0  0  0  0  0  0  0  0  0  0  0
  1  2  1  0
  2  3  1  0
  3  4  1  0
  4  5  2  0
  5  6  1  0
  6  7  2  0
  7  8  1  0
  8  9  2  0
  8 10  1  0
 10 11  1  0
 11 12  2  0
 12 13  1  0
 13 14  1  0
 14 15  1  0
 13 16  2  0
 16 17  1  0
 17 18  1  0
 18 19  2  0
 18 20  1  0
 20 21  2  0
 21 22  1  0
 22 23  2  0
 23 24  1  0
 24 25  2  0
 16 26  1  0
 26 27  2  0
 27 28  1  0
 28 29  1  0
  7 30  1  0
 30 31  2  0
 31  4  1  0
 27 11  1  0
 25 20  1  0
  1 32  1  0
  1 33  1  0
  1 34  1  0
  2 35  1  0
  2 36  1  0
  5 37  1  0
  6 38  1  0
 12 39  1  0
 15 40  1  0
 15 41  1  0
 15 42  1  0
 21 43  1  0
 22 44  1  0
 23 45  1  0
 24 46  1  0
 25 47  1  0
 26 48  1  0
 29 49  1  0
 29 50  1  0
 29 51  1  0
 30 52  1  0
 31 53  1  0
M  CHG  2  10  -1  17  -1
M  END
>  <UniqueID>  (45) 
42

>  <SMILES>  (45) 
CCOc1ccc(C(=O)[N-]c2cc(OC)c([N-]C(=O)c3ccccc3)cc2OC)cc1

>  <Energy>  (45) 
63.58428643259776

>  <Genealogy>  (45) 
CCOc1ccc(C(=O)[N-]c2cc(OC)c([N-]C(=O)c3ccccc3)cc2OC)cc1 (protonated)
CCOc1ccc(C(=O)[N-]c2cc(OC)c([N-]C(=O)c3ccccc3)cc2OC)cc1 (3D coordinates assigned)
CCOc1ccc(C(=O)[N-]c2cc(OC)c([N-]C(=O)c3ccccc3)cc2OC)cc1 (optimized conformer: 63.58428643259776 kcal/mol)

>  <smiles>  (45) 
CCOc1ccc(C(=O)Nc2cc(OC)c(NC(=O)c3ccccc3)cc2OC)cc1

>  <score_type>  (45) 
oracle

>  <origin>  (45) 
adg

>  <m_score__min__energy>  (45) 
-10.77

>  <m_primary>  (45) 
energy

$$$$
45:0
     RDKit          3D

 42 44  0  0  0  0  0  0  0  0999 V2000
   56.2060   30.0220   45.1980 O   0  0  0  0  0  0  0  0  0  0  0  0
   57.1940   30.4750   44.5560 C   0  0  0  0  0  0  0  0  0  0  0  0
   58.2210   29.5930   44.0850 N   0  0  0  0  0  0  0  0  0  0  0  0
   58.3220   28.2100   44.4650 C   0  0  0  0  0  0  0  0  0  0  0  0
   57.7760   27.2050   43.6450 C   0  0  0  0  0  0  0  0  0  0  0  0
   57.8120   25.8670   44.0470 C   0  0  0  0  0  0  0  0  0  0  0  0
   58.3790   25.5190   45.2730 C   0  0  0  0  0  0  0  0  0  0  0  0
   58.9110   26.5080   46.1030 C   0  0  0  0  0  0  0  0  0  0  0  0
   58.8880   27.8540   45.7080 C   0  0  0  0  0  0  0  0  0  0  0  0
   59.4680   28.8510   46.5620 N   0  0  0  0  0  0  0  0  0  0  0  0
   60.5750   29.6980   46.1590 C   0  0  0  0  0  0  0  0  0  0  0  0
   60.6790   30.7710   47.2360 C   0  0  0  0  0  0  0  0  0  0  0  0
   59.8560   30.2620   48.4200 C   0  0  0  0  0  0  0  0  0  0  0  0
   58.9080   29.2150   47.8500 C   0  0  0  0  0  0  0  0  0  0  0  0
   57.2820   31.8410   44.2620 O   0  0  0  0  0  0  0  0  0  0  0  0
   56.7780   32.8590   45.1220 C   0  0  0  0  0  0  0  0  0  0  0  0
   57.9100   33.5790   45.8030 C   0  0  0  0  0  0  0  0  0  0  0  0
   58.6310   34.5790   45.1300 C   0  0  0  0  0  0  0  0  0  0  0  0
   59.6680   35.2570   45.7790 C   0  0  0  0  0  0  0  0  0  0  0  0
   59.9870   34.9470   47.1040 C   0  0  0  0  0  0  0  0  0  0  0  0
   59.2710   33.9550   47.7830 C   0  0  0  0  0  0  0  0  0  0  0  0
   59.6700   33.5690   49.4470 Cl  0  0  0  0  0  0  0  0  0  0  0  0
   58.2350   33.2740   47.1350 C   0  0  0  0  0  0  0  0  0  0  0  0
   58.8930   29.9700   43.3780 H   0  0  0  0  0  0  0  0  0  0  0  0
   57.3181   27.4742   42.6818 H   0  0  0  0  0  0  0  0  0  0  0  0
   57.3923   25.0866   43.3952 H   0  0  0  0  0  0  0  0  0  0  0  0
   58.4071   24.4649   45.5862 H   0  0  0  0  0  0  0  0  0  0  0  0
   59.3507   26.2301   47.0722 H   0  0  0  0  0  0  0  0  0  0  0  0
   61.5061   29.1147   46.1062 H   0  0  0  0  0  0  0  0  0  0  0  0
   60.4135   30.1343   45.1622 H   0  0  0  0  0  0  0  0  0  0  0  0
   61.7284   30.9135   47.5333 H   0  0  0  0  0  0  0  0  0  0  0  0
   60.3074   31.7413   46.8748 H   0  0  0  0  0  0  0  0  0  0  0  0
   60.5138   29.8107   49.1774 H   0  0  0  0  0  0  0  0  0  0  0  0
   59.3072   31.0789   48.9113 H   0  0  0  0  0  0  0  0  0  0  0  0
   58.8609   28.3373   48.5114 H   0  0  0  0  0  0  0  0  0  0  0  0
   57.8815   29.5992   47.7567 H   0  0  0  0  0  0  0  0  0  0  0  0
   56.1955   33.5790   44.5286 H   0  0  0  0  0  0  0  0  0  0  0  0
   56.1388   32.3949   45.8875 H   0  0  0  0  0  0  0  0  0  0  0  0
   58.3792   34.8298   44.0890 H   0  0  0  0  0  0  0  0  0  0  0  0
   60.2334   36.0354   45.2458 H   0  0  0  0  0  0  0  0  0  0  0  0
   60.8014   35.4832   47.6133 H   0  0  0  0  0  0  0  0  0  0  0  0
   57.6721   32.4958   47.6713 H   0  0  0  0  0  0  0  0  0  0  0  0
  1  2  2  0
  2  3  1  0
  3  4  1  0
  4  5  2  0
  5  6  1  0
  6  7  2  0
  7  8  1  0
  8  9  2  0
  9 10  1  0
 10 11  1  0
 11 12  1  0
 12 13  1  0
 13 14  1  0
  2 15  1  0
 15 16  1  0
 16 17  1  0
 17 18  2  0
 18 19  1  0
 19 20  2  0
 20 21  1  0
 21 22  1  0
 21 23  2  0
  9  4  1  0
 14 10  1  0
 23 17  1  0
  3 24  1  0
  5 25  1  0
  6 26  1  0
  7 27  1  0
  8 28  1  0
 11 29  1  0
 11 30  1  0
 12 31  1  0
 12 32  1  0
 13 33  1  0
 13 34  1  0
 14 35  1  0
 14 36  1  0
 16 37  1  0
 16 38  1  0
 18 39  1  0
 19 40  1  0
 20 41  1  0
 23 42  1  0
M  END
>  <UniqueID>  (46) 
43

>  <SMILES>  (46) 
O=C(Nc1ccccc1N1CCCC1)OCc1cccc(Cl)c1

>  <Energy>  (46) 
49.68335729677344

>  <Genealogy>  (46) 
O=C(Nc1ccccc1N1CCCC1)OCc1cccc(Cl)c1 (3D coordinates assigned)
O=C(Nc1ccccc1N1CCCC1)OCc1cccc(Cl)c1 (nonaromatic ring conformer: 49.68335729677344 kcal/mol)

>  <smiles>  (46) 
O=C(Nc1ccccc1N1CCCC1)OCc1cccc(Cl)c1

>  <score_type>  (46) 
oracle

>  <origin>  (46) 
adg

>  <m_score__min__energy>  (46) 
-7.71

>  <m_primary>  (46) 
energy

$$$$
46:0
     RDKit          3D

 47 50  0  0  0  0  0  0  0  0999 V2000
   54.6430   23.4770   47.1010 H   0  0  0  0  0  0  0  0  0  0  0  0
   55.2000   23.8150   46.2840 N   0  0  0  0  0  0  0  0  0  0  0  0
   56.0600   24.7790   46.3820 C   0  0  0  0  0  0  0  0  0  0  0  0
   55.7160   26.0250   45.9630 N   0  0  0  0  0  0  0  0  0  0  0  0
   56.5770   27.0760   46.0420 C   0  0  0  0  0  0  0  0  0  0  0  0
   56.2598   28.0703   45.6945 H   0  0  0  0  0  0  0  0  0  0  0  0
   57.8690   26.8980   46.5650 C   0  0  0  0  0  0  0  0  0  0  0  0
   58.8170   28.0370   46.6580 C   0  0  0  0  0  0  0  0  0  0  0  0
   59.4830   28.5100   45.5140 C   0  0  0  0  0  0  0  0  0  0  0  0
   59.3082   28.0256   44.5420 H   0  0  0  0  0  0  0  0  0  0  0  0
   60.3650   29.5900   45.6010 C   0  0  0  0  0  0  0  0  0  0  0  0
   60.8871   29.9424   44.6992 H   0  0  0  0  0  0  0  0  0  0  0  0
   60.5900   30.2290   46.8310 C   0  0  0  0  0  0  0  0  0  0  0  0
   61.5180   31.3850   46.9100 C   0  0  0  0  0  0  0  0  0  0  0  0
   62.8880   31.1400   47.1120 C   0  0  0  0  0  0  0  0  0  0  0  0
   63.2497   30.1043   47.1920 H   0  0  0  0  0  0  0  0  0  0  0  0
   63.7930   32.1970   47.2120 C   0  0  0  0  0  0  0  0  0  0  0  0
   64.8618   31.9910   47.3709 H   0  0  0  0  0  0  0  0  0  0  0  0
   63.3460   33.5140   47.1110 C   0  0  0  0  0  0  0  0  0  0  0  0
   64.0613   34.3453   47.1960 H   0  0  0  0  0  0  0  0  0  0  0  0
   61.9910   33.7780   46.9020 C   0  0  0  0  0  0  0  0  0  0  0  0
   61.6435   34.8190   46.8276 H   0  0  0  0  0  0  0  0  0  0  0  0
   61.0680   32.7260   46.7860 C   0  0  0  0  0  0  0  0  0  0  0  0
   59.6500   33.0640   46.5330 C   0  0  0  0  0  0  0  0  0  0  0  0
   59.2440   33.2360   45.1990 C   0  0  0  0  0  0  0  0  0  0  0  0
   59.9700   33.0903   44.3855 H   0  0  0  0  0  0  0  0  0  0  0  0
   57.9280   33.5900   44.8960 C   0  0  0  0  0  0  0  0  0  0  0  0
   57.6232   33.7307   43.8485 H   0  0  0  0  0  0  0  0  0  0  0  0
   57.0010   33.7650   45.9210 C   0  0  0  0  0  0  0  0  0  0  0  0
   55.9673   34.0560   45.6825 H   0  0  0  0  0  0  0  0  0  0  0  0
   57.3810   33.5720   47.2490 C   0  0  0  0  0  0  0  0  0  0  0  0
   56.6407   33.7074   48.0513 H   0  0  0  0  0  0  0  0  0  0  0  0
   58.6970   33.2070   47.5740 C   0  0  0  0  0  0  0  0  0  0  0  0
   59.0690   32.9230   49.2830 S   0  0  0  0  0  0  0  0  0  0  0  0
   59.3470   34.2080   50.0110 O   0  0  0  0  0  0  0  0  0  0  0  0
   60.2940   32.0550   49.3780 O   0  0  0  0  0  0  0  0  0  0  0  0
   57.7400   32.1140   50.0340 N   0  0  0  0  0  0  0  0  0  0  0  0
   56.9010   32.7250   49.9170 H   0  0  0  0  0  0  0  0  0  0  0  0
   57.9440   32.0700   51.0570 H   0  0  0  0  0  0  0  0  0  0  0  0
   59.9510   29.7370   47.9800 C   0  0  0  0  0  0  0  0  0  0  0  0
   60.1481   30.2043   48.9561 H   0  0  0  0  0  0  0  0  0  0  0  0
   59.0670   28.6590   47.8940 C   0  0  0  0  0  0  0  0  0  0  0  0
   58.5623   28.2937   48.8005 H   0  0  0  0  0  0  0  0  0  0  0  0
   58.2390   25.6150   47.0020 C   0  0  0  0  0  0  0  0  0  0  0  0
   59.2434   25.4465   47.4176 H   0  0  0  0  0  0  0  0  0  0  0  0
   57.3380   24.5540   46.9110 C   0  0  0  0  0  0  0  0  0  0  0  0
   57.6282   23.5491   47.2516 H   0  0  0  0  0  0  0  0  0  0  0  0
  1  2  1  0
  2  3  2  0
  3  4  1  0
  4  5  1  0
  5  6  1  0
  5  7  2  0
  7  8  1  0
  8  9  2  0
  9 10  1  0
  9 11  1  0
 11 12  1  0
 11 13  2  0
 13 14  1  0
 14 15  2  0
 15 16  1  0
 15 17  1  0
 17 18  1  0
 17 19  2  0
 19 20  1  0
 19 21  1  0
 21 22  1  0
 21 23  2  0
 23 24  1  0
 24 25  2  0
 25 26  1  0
 25 27  1  0
 27 28  1  0
 27 29  2  0
 29 30  1  0
 29 31  1  0
 31 32  1  0
 31 33  2  0
 33 34  1  0
 34 35  2  0
 34 36  2  0
 34 37  1  0
 37 38  1  0
 37 39  1  0
 13 40  1  0
 40 41  1  0
 40 42  2  0
 42 43  1  0
  7 44  1  0
 44 45  1  0
 44 46  2  0
 46 47  1  0
 46  3  1  0
 42  8  1  0
 23 14  1  0
 33 24  1  0
M  CHG  1   4  -1
M  END
>  <UniqueID>  (47) 
44

>  <SMILES>  (47) 
[H]/N=c1\ccc(-c2ccc(-c3ccccc3-c3ccccc3S(N)(=O)=O)cc2)c[n-]1

>  <Energy>  (47) 
71.40670145998183

>  <Genealogy>  (47) 
N=c1ccc(-c2ccc(-c3ccccc3-c3ccccc3S(N)(=O)=O)cc2)c[n-]1 (protonated)
[H]/N=c1\ccc(-c2ccc(-c3ccccc3-c3ccccc3S(N)(=O)=O)cc2)c[n-]1 (cis-trans isomerization)
[H]/N=c1\ccc(-c2ccc(-c3ccccc3-c3ccccc3S(N)(=O)=O)cc2)c[n-]1 (3D coordinates assigned)
[H]/N=c1\ccc(-c2ccc(-c3ccccc3-c3ccccc3S(N)(=O)=O)cc2)c[n-]1 (optimized conformer: 71.40670145998183 kcal/mol)

>  <smiles>  (47) 
N=c1ccc(-c2ccc(-c3ccccc3-c3ccccc3S(N)(=O)=O)cc2)c[nH]1

>  <score_type>  (47) 
oracle

>  <origin>  (47) 
adg

>  <m_score__min__energy>  (47) 
-10.49

>  <m_primary>  (47) 
energy

$$$$
47:0
     RDKit          3D

 65 68  0  0  0  0  0  0  0  0999 V2000
   59.4240   34.1330   53.4340 C   0  0  0  0  0  0  0  0  0  0  0  0
   60.1740   34.1190   52.2250 O   0  0  0  0  0  0  0  0  0  0  0  0
   59.6970   33.6290   51.0000 C   0  0  0  0  0  0  0  0  0  0  0  0
   58.8480   32.5170   51.0160 C   0  0  0  0  0  0  0  0  0  0  0  0
   58.3370   31.9890   49.8280 C   0  0  0  0  0  0  0  0  0  0  0  0
   58.6730   32.5710   48.5990 C   0  0  0  0  0  0  0  0  0  0  0  0
   58.1540   32.0580   47.4010 C   0  0  0  0  0  0  0  0  0  0  0  0
   58.4640   32.6680   46.1770 C   0  0  0  0  0  0  0  0  0  0  0  0
   57.7440   32.0890   44.6780 S   0  0  0  0  0  0  0  0  0  0  0  0
   58.0190   33.0560   43.5580 O   0  0  0  0  0  0  0  0  0  0  0  0
   56.2560   31.9890   44.8600 O   0  0  0  0  0  0  0  0  0  0  0  0
   58.3790   30.5080   44.3100 N   0  0  0  0  0  0  0  0  0  0  0  0
   58.3700   29.6170   45.4750 C   0  0  2  0  0  0  0  0  0  0  0  0
   59.7830   29.0420   45.6880 C   0  0  0  0  0  0  0  0  0  0  0  0
   60.4290   29.5760   46.9420 C   0  0  0  0  0  0  0  0  0  0  0  0
   60.0950   29.0400   48.1940 C   0  0  0  0  0  0  0  0  0  0  0  0
   60.6600   29.5630   49.3570 C   0  0  0  0  0  0  0  0  0  0  0  0
   61.5660   30.6250   49.2820 C   0  0  0  0  0  0  0  0  0  0  0  0
   61.9120   31.1790   48.0360 C   0  0  0  0  0  0  0  0  0  0  0  0
   62.8820   32.2990   47.9440 C   0  0  0  0  0  0  0  0  0  0  0  0
   63.0470   33.1900   49.0540 N   0  0  0  0  0  0  0  0  0  0  0  0
   63.5910   32.4780   46.8680 N   0  0  0  0  0  0  0  0  0  0  0  0
   61.3340   30.6470   46.8690 C   0  0  0  0  0  0  0  0  0  0  0  0
   57.3160   28.5270   45.3610 C   0  0  0  0  0  0  0  0  0  0  0  0
   56.1920   28.8600   44.8940 O   0  0  0  0  0  0  0  0  0  0  0  0
   57.5130   27.1620   45.8040 N   0  0  0  0  0  0  0  0  0  0  0  0
   58.8480   26.5540   45.9460 C   0  0  0  0  0  0  0  0  0  0  0  0
   58.7900   25.0520   45.6570 C   0  0  0  0  0  0  0  0  0  0  0  0
   57.7980   24.3210   46.5780 C   0  0  0  0  0  0  0  0  0  0  0  0
   56.6330   25.2080   47.0500 C   0  0  0  0  0  0  0  0  0  0  0  0
   56.3190   26.3360   46.0610 C   0  0  0  0  0  0  0  0  0  0  0  0
   59.3170   33.7790   46.1510 C   0  0  0  0  0  0  0  0  0  0  0  0
   59.8550   34.2860   47.3370 C   0  0  0  0  0  0  0  0  0  0  0  0
   59.5320   33.6950   48.5670 C   0  0  0  0  0  0  0  0  0  0  0  0
   60.0400   34.2180   49.7670 C   0  0  0  0  0  0  0  0  0  0  0  0
   60.1118   34.1202   54.2923 H   0  0  0  0  0  0  0  0  0  0  0  0
   58.8069   35.0428   53.4722 H   0  0  0  0  0  0  0  0  0  0  0  0
   58.7734   33.2468   53.4722 H   0  0  0  0  0  0  0  0  0  0  0  0
   58.5795   32.0526   51.9763 H   0  0  0  0  0  0  0  0  0  0  0  0
   57.6698   31.1149   49.8577 H   0  0  0  0  0  0  0  0  0  0  0  0
   57.5008   31.1732   47.4218 H   0  0  0  0  0  0  0  0  0  0  0  0
   58.0903   30.2032   46.3628 H   0  0  0  0  0  0  0  0  0  0  0  0
   59.7127   27.9469   45.7638 H   0  0  0  0  0  0  0  0  0  0  0  0
   60.4043   29.3434   44.8318 H   0  0  0  0  0  0  0  0  0  0  0  0
   59.3841   28.2031   48.2592 H   0  0  0  0  0  0  0  0  0  0  0  0
   60.3920   29.1387   50.3358 H   0  0  0  0  0  0  0  0  0  0  0  0
   62.0111   31.0299   50.2028 H   0  0  0  0  0  0  0  0  0  0  0  0
   62.4270   33.1310   49.8900 H   0  0  0  0  0  0  0  0  0  0  0  0
   63.7580   33.9550   49.0230 H   0  0  0  0  0  0  0  0  0  0  0  0
   64.5470   32.0670   46.7850 H   0  0  0  0  0  0  0  0  0  0  0  0
   63.2200   33.0090   46.0490 H   0  0  0  0  0  0  0  0  0  0  0  0
   61.5937   31.0744   45.8893 H   0  0  0  0  0  0  0  0  0  0  0  0
   59.5401   27.0320   45.2371 H   0  0  0  0  0  0  0  0  0  0  0  0
   59.1973   26.7030   46.9784 H   0  0  0  0  0  0  0  0  0  0  0  0
   58.4786   24.9040   44.6124 H   0  0  0  0  0  0  0  0  0  0  0  0
   59.7910   24.6341   45.8394 H   0  0  0  0  0  0  0  0  0  0  0  0
   57.3824   23.4621   46.0307 H   0  0  0  0  0  0  0  0  0  0  0  0
   58.3551   24.0131   47.4751 H   0  0  0  0  0  0  0  0  0  0  0  0
   55.7367   24.5811   47.1669 H   0  0  0  0  0  0  0  0  0  0  0  0
   56.9287   25.6706   48.0032 H   0  0  0  0  0  0  0  0  0  0  0  0
   55.9743   25.8974   45.1129 H   0  0  0  0  0  0  0  0  0  0  0  0
   55.5376   26.9761   46.4965 H   0  0  0  0  0  0  0  0  0  0  0  0
   59.5649   34.2553   45.1910 H   0  0  0  0  0  0  0  0  0  0  0  0
   60.5337   35.1511   47.3056 H   0  0  0  0  0  0  0  0  0  0  0  0
   60.7086   35.0912   49.7443 H   0  0  0  0  0  0  0  0  0  0  0  0
  1  2  1  0
  2  3  1  0
  3  4  2  0
  4  5  1  0
  5  6  2  0
  6  7  1  0
  7  8  2  0
  8  9  1  0
  9 10  2  0
  9 11  2  0
  9 12  1  0
 12 13  1  0
 13 14  1  0
 14 15  1  0
 15 16  2  0
 16 17  1  0
 17 18  2  0
 18 19  1  0
 19 20  1  0
 20 21  1  0
 20 22  2  0
 19 23  2  0
 13 24  1  0
 24 25  2  0
 24 26  1  0
 26 27  1  0
 27 28  1  0
 28 29  1  0
 29 30  1  0
 30 31  1  0
  8 32  1  0
 32 33  2  0
 33 34  1  0
 34 35  2  0
 35  3  1  0
 34  6  1  0
 23 15  1  0
 31 26  1  0
  1 36  1  0
  1 37  1  0
  1 38  1  0
  4 39  1  0
  5 40  1  0
  7 41  1  0
 13 42  1  1
 14 43  1  0
 14 44  1  0
 16 45  1  0
 17 46  1  0
 18 47  1  0
 21 48  1  0
 21 49  1  0
 22 50  1  0
 22 51  1  0
 23 52  1  0
 27 53  1  0
 27 54  1  0
 28 55  1  0
 28 56  1  0
 29 57  1  0
 29 58  1  0
 30 59  1  0
 30 60  1  0
 31 61  1  0
 31 62  1  0
 32 63  1  0
 33 64  1  0
 35 65  1  0
M  CHG  2  12  -1  22   1
M  END
>  <UniqueID>  (48) 
45

>  <SMILES>  (48) 
COc1ccc2cc(S(=O)(=O)[N-][C@H](Cc3cccc(C(N)=[NH2+])c3)C(=O)N3CCCCC3)ccc2c1

>  <Energy>  (48) 
68.4924423308969

>  <Genealogy>  (48) 
COc1ccc2cc(S(=O)(=O)[N-]C(Cc3cccc(C(N)=[NH2+])c3)C(=O)N3CCCCC3)ccc2c1 (protonated)
COc1ccc2cc(S(=O)(=O)[N-][C@H](Cc3cccc(C(N)=[NH2+])c3)C(=O)N3CCCCC3)ccc2c1 (chirality)
COc1ccc2cc(S(=O)(=O)[N-][C@H](Cc3cccc(C(N)=[NH2+])c3)C(=O)N3CCCCC3)ccc2c1 (3D coordinates assigned)
COc1ccc2cc(S(=O)(=O)[N-][C@H](Cc3cccc(C(N)=[NH2+])c3)C(=O)N3CCCCC3)ccc2c1 (nonaromatic ring conformer: 68.4924423308969 kcal/mol)

>  <smiles>  (48) 
COc1ccc2cc(S(=O)(=O)NC(Cc3cccc(C(=N)N)c3)C(=O)N3CCCCC3)ccc2c1

>  <score_type>  (48) 
oracle

>  <origin>  (48) 
adg

>  <m_score__min__energy>  (48) 
-9.9000000000000004

>  <m_primary>  (48) 
energy

$$$$
48:0
     RDKit          3D

 25 26  0  0  0  0  0  0  0  0999 V2000
   58.5190   32.1740   41.9080 O   0  0  0  0  0  0  0  0  0  0  0  0
   58.0680   32.2800   43.0820 C   0  0  0  0  0  0  0  0  0  0  0  0
   58.1360   33.5060   43.7600 O   0  0  0  0  0  0  0  0  0  0  0  0
   58.4810   33.6720   45.1090 C   0  0  0  0  0  0  0  0  0  0  0  0
   57.6680   33.1970   46.1580 C   0  0  0  0  0  0  0  0  0  0  0  0
   58.0470   33.3980   47.4880 C   0  0  0  0  0  0  0  0  0  0  0  0
   59.2310   34.0820   47.7850 C   0  0  0  0  0  0  0  0  0  0  0  0
   59.6070   34.2790   49.1080 O   0  0  0  0  0  0  0  0  0  0  0  0
   60.0320   34.5710   46.7490 C   0  0  0  0  0  0  0  0  0  0  0  0
   59.6540   34.3720   45.4180 C   0  0  0  0  0  0  0  0  0  0  0  0
   57.4090   31.1230   43.7280 C   0  0  0  0  0  0  0  0  0  0  0  0
   56.0890   30.7770   43.3880 C   0  0  0  0  0  0  0  0  0  0  0  0
   55.4640   29.6840   43.9980 C   0  0  0  0  0  0  0  0  0  0  0  0
   56.1490   28.9270   44.9510 C   0  0  0  0  0  0  0  0  0  0  0  0
   55.5250   27.8420   45.5550 O   0  0  0  0  0  0  0  0  0  0  0  0
   57.4600   29.2610   45.2980 C   0  0  0  0  0  0  0  0  0  0  0  0
   58.0890   30.3530   44.6910 C   0  0  0  0  0  0  0  0  0  0  0  0
   56.7321   32.6663   45.9289 H   0  0  0  0  0  0  0  0  0  0  0  0
   57.4134   33.0178   48.3029 H   0  0  0  0  0  0  0  0  0  0  0  0
   60.9606   35.1129   46.9813 H   0  0  0  0  0  0  0  0  0  0  0  0
   60.2827   34.7683   44.6070 H   0  0  0  0  0  0  0  0  0  0  0  0
   55.5446   31.3694   42.6379 H   0  0  0  0  0  0  0  0  0  0  0  0
   54.4311   29.4204   43.7265 H   0  0  0  0  0  0  0  0  0  0  0  0
   57.9984   28.6647   46.0494 H   0  0  0  0  0  0  0  0  0  0  0  0
   59.1216   30.6119   44.9678 H   0  0  0  0  0  0  0  0  0  0  0  0
  1  2  2  0
  2  3  1  0
  3  4  1  0
  4  5  2  0
  5  6  1  0
  6  7  2  0
  7  8  1  0
  7  9  1  0
  9 10  2  0
  2 11  1  0
 11 12  2  0
 12 13  1  0
 13 14  2  0
 14 15  1  0
 14 16  1  0
 16 17  2  0
 10  4  1  0
 17 11  1  0
  5 18  1  0
  6 19  1  0
  9 20  1  0
 10 21  1  0
 12 22  1  0
 13 23  1  0
 16 24  1  0
 17 25  1  0
M  CHG  2   8  -1  15  -1
M  END
>  <UniqueID>  (49) 
46

>  <SMILES>  (49) 
O=C(Oc1ccc([O-])cc1)c1ccc([O-])cc1

>  <Energy>  (49) 
31.21819629643982

>  <Genealogy>  (49) 
O=C(Oc1ccc([O-])cc1)c1ccc([O-])cc1 (protonated)
O=C(Oc1ccc([O-])cc1)c1ccc([O-])cc1 (3D coordinates assigned)
O=C(Oc1ccc([O-])cc1)c1ccc([O-])cc1 (optimized conformer: 31.21819629643982 kcal/mol)

>  <smiles>  (49) 
O=C(Oc1ccc(O)cc1)c1ccc(O)cc1

>  <score_type>  (49) 
oracle

>  <origin>  (49) 
adg

>  <m_score__min__energy>  (49) 
-10.4

>  <m_primary>  (49) 
energy

$$$$
49:0
     RDKit          3D

 44 47  0  0  0  0  0  0  0  0999 V2000
   48.8509   22.9346   45.3208 H   0  0  0  0  0  0  0  0  0  0  0  0
   49.9330   23.1320   45.3100 C   0  0  0  0  0  0  0  0  0  0  0  0
   50.5100   23.8010   44.2280 C   0  0  0  0  0  0  0  0  0  0  0  0
   49.8818   24.1286   43.3865 H   0  0  0  0  0  0  0  0  0  0  0  0
   51.8860   24.0550   44.2130 C   0  0  0  0  0  0  0  0  0  0  0  0
   52.3358   24.5836   43.3596 H   0  0  0  0  0  0  0  0  0  0  0  0
   52.6960   23.6380   45.2830 C   0  0  0  0  0  0  0  0  0  0  0  0
   54.1460   23.9080   45.2590 C   0  0  0  0  0  0  0  0  0  0  0  0
   55.0520   23.1790   44.5740 N   0  0  0  0  0  0  0  0  0  0  0  0
   56.2330   23.7290   44.8040 N   0  0  0  0  0  0  0  0  0  0  0  0
   56.0000   24.7710   45.6210 C   0  0  0  0  0  0  0  0  0  0  0  0
   56.9390   25.5510   46.0660 N   0  0  0  0  0  0  0  0  0  0  0  0
   56.9400   26.9860   45.9760 C   0  0  0  0  0  0  0  0  0  0  0  0
   55.8980   27.5950   45.6050 O   0  0  0  0  0  0  0  0  0  0  0  0
   58.1510   27.7680   46.3500 C   0  0  0  0  0  0  0  0  0  0  0  0
   58.7840   27.4850   47.5760 C   0  0  0  0  0  0  0  0  0  0  0  0
   58.3700   26.7068   48.2341 H   0  0  0  0  0  0  0  0  0  0  0  0
   59.9290   28.1790   47.9660 C   0  0  0  0  0  0  0  0  0  0  0  0
   60.4118   27.9460   48.9265 H   0  0  0  0  0  0  0  0  0  0  0  0
   60.4620   29.1660   47.1420 C   0  0  0  0  0  0  0  0  0  0  0  0
   61.3699   29.7061   47.4485 H   0  0  0  0  0  0  0  0  0  0  0  0
   59.8470   29.4710   45.9290 C   0  0  0  0  0  0  0  0  0  0  0  0
   60.2741   30.2531   45.2841 H   0  0  0  0  0  0  0  0  0  0  0  0
   58.6850   28.7890   45.5200 C   0  0  0  0  0  0  0  0  0  0  0  0
   58.0250   29.1330   44.2900 N   0  0  0  0  0  0  0  0  0  0  0  0
   56.9590   30.4800   44.0530 S   0  0  0  0  0  0  0  0  0  0  0  0
   55.6430   30.1940   44.7200 O   0  0  0  0  0  0  0  0  0  0  0  0
   56.7210   30.6750   42.5820 O   0  0  0  0  0  0  0  0  0  0  0  0
   57.6580   31.9250   44.7780 C   0  0  0  0  0  0  0  0  0  0  0  0
   58.0660   33.0050   43.9790 C   0  0  0  0  0  0  0  0  0  0  0  0
   57.9424   32.9578   42.8870 H   0  0  0  0  0  0  0  0  0  0  0  0
   58.6290   34.1400   44.5690 C   0  0  0  0  0  0  0  0  0  0  0  0
   58.9538   34.9820   43.9400 H   0  0  0  0  0  0  0  0  0  0  0  0
   58.7800   34.2070   45.9570 C   0  0  0  0  0  0  0  0  0  0  0  0
   59.2222   35.1016   46.4197 H   0  0  0  0  0  0  0  0  0  0  0  0
   58.3690   33.1370   46.7570 C   0  0  0  0  0  0  0  0  0  0  0  0
   58.4867   33.1904   47.8494 H   0  0  0  0  0  0  0  0  0  0  0  0
   57.8080   31.9980   46.1690 C   0  0  0  0  0  0  0  0  0  0  0  0
   57.4839   31.1577   46.8006 H   0  0  0  0  0  0  0  0  0  0  0  0
   54.7260   24.8910   45.9080 O   0  0  0  0  0  0  0  0  0  0  0  0
   52.1070   22.9640   46.3680 C   0  0  0  0  0  0  0  0  0  0  0  0
   52.7313   22.6328   47.2109 H   0  0  0  0  0  0  0  0  0  0  0  0
   50.7310   22.7130   46.3800 C   0  0  0  0  0  0  0  0  0  0  0  0
   50.2760   22.1857   47.2314 H   0  0  0  0  0  0  0  0  0  0  0  0
  1  2  1  0
  2  3  2  0
  3  4  1  0
  3  5  1  0
  5  6  1  0
  5  7  2  0
  7  8  1  0
  8  9  2  0
  9 10  1  0
 10 11  1  0
 11 12  2  0
 12 13  1  0
 13 14  2  0
 13 15  1  0
 15 16  2  0
 16 17  1  0
 16 18  1  0
 18 19  1  0
 18 20  2  0
 20 21  1  0
 20 22  1  0
 22 23  1  0
 22 24  2  0
 24 25  1  0
 25 26  1  0
 26 27  2  0
 26 28  2  0
 26 29  1  0
 29 30  2  0
 30 31  1  0
 30 32  1  0
 32 33  1  0
 32 34  2  0
 34 35  1  0
 34 36  1  0
 36 37  1  0
 36 38  2  0
 38 39  1  0
 11 40  1  0
  7 41  1  0
 41 42  1  0
 41 43  2  0
 43 44  1  0
 43  2  1  0
 40  8  1  0
 24 15  1  0
 38 29  1  0
M  CHG  2  10  -1  25  -1
M  END
>  <UniqueID>  (50) 
47

>  <SMILES>  (50) 
O=C(/N=c1/[n-]nc(-c2ccccc2)o1)c1ccccc1[N-]S(=O)(=O)c1ccccc1

>  <Energy>  (50) 
92.50659561849002

>  <Genealogy>  (50) 
O=C(N=c1[n-]nc(-c2ccccc2)o1)c1ccccc1[N-]S(=O)(=O)c1ccccc1 (protonated)
O=C(/N=c1/[n-]nc(-c2ccccc2)o1)c1ccccc1[N-]S(=O)(=O)c1ccccc1 (cis-trans isomerization)
O=C(/N=c1/[n-]nc(-c2ccccc2)o1)c1ccccc1[N-]S(=O)(=O)c1ccccc1 (3D coordinates assigned)
O=C(/N=c1/[n-]nc(-c2ccccc2)o1)c1ccccc1[N-]S(=O)(=O)c1ccccc1 (optimized conformer: 92.50659561849002 kcal/mol)

>  <smiles>  (50) 
O=C(N=c1[nH]nc(-c2ccccc2)o1)c1ccccc1NS(=O)(=O)c1ccccc1

>  <score_type>  (50) 
oracle

>  <origin>  (50) 
adg

>  <m_score__min__energy>  (50) 
-12.630000000000001

>  <m_primary>  (50) 
energy

$$$$
50:0
     RDKit          3D

 43 45  0  0  0  0  0  0  0  0999 V2000
   56.2580   29.7020   42.8090 C   0  0  0  0  0  0  0  0  0  0  0  0
   55.8840   30.1770   44.2100 C   0  0  0  0  0  0  0  0  0  0  0  0
   57.0240   30.8490   44.8770 N   0  0  0  0  0  0  0  0  0  0  0  0
   57.4060   32.1250   44.2250 C   0  0  0  0  0  0  0  0  0  0  0  0
   58.0300   33.0580   45.2240 C   0  0  0  0  0  0  0  0  0  0  0  0
   58.9950   33.9970   44.8260 C   0  0  0  0  0  0  0  0  0  0  0  0
   59.5680   34.8350   45.7830 C   0  0  0  0  0  0  0  0  0  0  0  0
   59.1890   34.7260   47.1220 C   0  0  0  0  0  0  0  0  0  0  0  0
   58.2370   33.7690   47.4850 C   0  0  0  0  0  0  0  0  0  0  0  0
   57.6880   32.9630   46.5380 N   0  0  0  0  0  0  0  0  0  0  0  0
   58.1830   29.9370   45.0220 C   0  0  0  0  0  0  0  0  0  0  0  0
   58.6860   29.8590   46.4360 C   0  0  0  0  0  0  0  0  0  0  0  0
   58.5280   28.7900   47.2400 N   0  0  0  0  0  0  0  0  0  0  0  0
   59.0830   29.1130   48.3990 N   0  0  0  0  0  0  0  0  0  0  0  0
   59.5510   30.3670   48.2550 C   0  0  0  0  0  0  0  0  0  0  0  0
   60.2810   31.1180   49.3190 C   0  0  0  0  0  0  0  0  0  0  0  0
   61.3840   31.9330   48.7050 C   0  0  0  0  0  0  0  0  0  0  0  0
   62.2290   31.3650   47.7370 C   0  0  0  0  0  0  0  0  0  0  0  0
   63.2340   32.1340   47.1410 C   0  0  0  0  0  0  0  0  0  0  0  0
   63.3960   33.4760   47.5000 C   0  0  0  0  0  0  0  0  0  0  0  0
   62.5500   34.0510   48.4530 C   0  0  0  0  0  0  0  0  0  0  0  0
   61.5440   33.2850   49.0510 C   0  0  0  0  0  0  0  0  0  0  0  0
   59.3150   30.8320   47.0520 O   0  0  0  0  0  0  0  0  0  0  0  0
   56.9369   28.8397   42.8832 H   0  0  0  0  0  0  0  0  0  0  0  0
   55.3477   29.4063   42.2669 H   0  0  0  0  0  0  0  0  0  0  0  0
   56.7590   30.5175   42.2669 H   0  0  0  0  0  0  0  0  0  0  0  0
   55.0454   30.8849   44.1356 H   0  0  0  0  0  0  0  0  0  0  0  0
   55.6023   29.2985   44.8090 H   0  0  0  0  0  0  0  0  0  0  0  0
   58.1281   31.9192   43.4211 H   0  0  0  0  0  0  0  0  0  0  0  0
   56.5034   32.5980   43.8107 H   0  0  0  0  0  0  0  0  0  0  0  0
   59.2961   34.0712   43.7706 H   0  0  0  0  0  0  0  0  0  0  0  0
   60.3181   35.5813   45.4825 H   0  0  0  0  0  0  0  0  0  0  0  0
   59.6340   35.3850   47.8821 H   0  0  0  0  0  0  0  0  0  0  0  0
   57.9321   33.6681   48.5371 H   0  0  0  0  0  0  0  0  0  0  0  0
   57.8806   28.9296   44.6999 H   0  0  0  0  0  0  0  0  0  0  0  0
   58.9988   30.3349   44.4005 H   0  0  0  0  0  0  0  0  0  0  0  0
   59.5799   31.7868   49.8397 H   0  0  0  0  0  0  0  0  0  0  0  0
   60.7141   30.4033   50.0343 H   0  0  0  0  0  0  0  0  0  0  0  0
   62.0998   30.3119   47.4468 H   0  0  0  0  0  0  0  0  0  0  0  0
   63.8978   31.6826   46.3889 H   0  0  0  0  0  0  0  0  0  0  0  0
   64.1887   34.0788   47.0327 H   0  0  0  0  0  0  0  0  0  0  0  0
   62.6757   35.1073   48.7329 H   0  0  0  0  0  0  0  0  0  0  0  0
   60.8756   33.7430   49.7950 H   0  0  0  0  0  0  0  0  0  0  0  0
  1  2  1  0
  2  3  1  0
  3  4  1  0
  4  5  1  0
  5  6  2  0
  6  7  1  0
  7  8  2  0
  8  9  1  0
  9 10  2  0
  3 11  1  0
 11 12  1  0
 12 13  2  0
 13 14  1  0
 14 15  2  0
 15 16  1  0
 16 17  1  0
 17 18  2  0
 18 19  1  0
 19 20  2  0
 20 21  1  0
 21 22  2  0
 15 23  1  0
 10  5  1  0
 23 12  1  0
 22 17  1  0
  1 24  1  0
  1 25  1  0
  1 26  1  0
  2 27  1  0
  2 28  1  0
  4 29  1  0
  4 30  1  0
  6 31  1  0
  7 32  1  0
  8 33  1  0
  9 34  1  0
 11 35  1  0
 11 36  1  0
 16 37  1  0
 16 38  1  0
 18 39  1  0
 19 40  1  0
 20 41  1  0
 21 42  1  0
 22 43  1  0
M  END
>  <UniqueID>  (51) 
48

>  <SMILES>  (51) 
CCN(Cc1ccccn1)Cc1nnc(Cc2ccccc2)o1

>  <Energy>  (51) 
79.47611907842958

>  <Genealogy>  (51) 
CCN(Cc1ccccn1)Cc1nnc(Cc2ccccc2)o1 (3D coordinates assigned)
CCN(Cc1ccccn1)Cc1nnc(Cc2ccccc2)o1 (optimized conformer: 79.47611907842958 kcal/mol)

>  <smiles>  (51) 
CCN(Cc1ccccn1)Cc1nnc(Cc2ccccc2)o1

>  <score_type>  (51) 
oracle

>  <origin>  (51) 
adg

>  <m_score__min__energy>  (51) 
-8.3399999999999999

>  <m_primary>  (51) 
energy

$$$$
51:0
     RDKit          3D

 54 57  0  0  1  0  0  0  0  0999 V2000
   62.4140   33.8690   48.9590 C   0  0  0  0  0  0  0  0  0  0  0  0
   61.1910   34.5780   48.8930 O   0  0  0  0  0  0  0  0  0  0  0  0
   60.2570   34.1960   47.9610 C   0  0  0  0  0  0  0  0  0  0  0  0
   60.2450   34.6320   46.6500 C   0  0  0  0  0  0  0  0  0  0  0  0
   59.2750   34.2140   45.7430 C   0  0  0  0  0  0  0  0  0  0  0  0
   58.2990   33.3430   46.1660 C   0  0  0  0  0  0  0  0  0  0  0  0
   57.2150   32.8320   45.2850 C   0  0  0  0  0  0  0  0  0  0  0  0
   57.3180   31.4160   45.2190 N   0  0  0  0  0  0  0  0  0  0  0  0
   58.4480   30.8730   44.5620 C   0  0  0  0  0  0  0  0  0  0  0  0
   58.7240   29.4160   44.8180 C   0  0  2  0  0  0  0  0  0  0  0  0
   57.4930   28.7730   44.8870 O   0  0  0  0  0  0  0  0  0  0  0  0
   57.5960   27.6660   45.6860 C   0  0  1  0  0  0  0  0  0  0  0  0
   57.3350   26.4760   44.8980 N   0  0  0  0  0  0  0  0  0  0  0  0
   57.8310   26.2020   43.6540 C   0  0  0  0  0  0  0  0  0  0  0  0
   57.3850   25.0220   43.2260 N   0  0  0  0  0  0  0  0  0  0  0  0
   56.5950   24.5000   44.1630 C   0  0  0  0  0  0  0  0  0  0  0  0
   55.8910   23.3180   44.2230 C   0  0  0  0  0  0  0  0  0  0  0  0
   55.9410   22.4880   43.2280 N   0  0  0  0  0  0  0  0  0  0  0  0
   55.1770   23.0690   45.3130 N   0  0  0  0  0  0  0  0  0  0  0  0
   55.1290   23.9470   46.3580 C   0  0  0  0  0  0  0  0  0  0  0  0
   55.8250   25.1200   46.3020 N   0  0  0  0  0  0  0  0  0  0  0  0
   56.5700   25.4100   45.1990 C   0  0  0  0  0  0  0  0  0  0  0  0
   58.9330   27.6780   46.3510 C   0  0  2  0  0  0  0  0  0  0  0  0
   58.8690   27.3570   47.7040 O   0  0  0  0  0  0  0  0  0  0  0  0
   59.3060   29.1560   46.1730 C   0  0  2  0  0  0  0  0  0  0  0  0
   58.6120   29.8570   47.1260 O   0  0  0  0  0  0  0  0  0  0  0  0
   58.3060   32.9020   47.4840 C   0  0  0  0  0  0  0  0  0  0  0  0
   59.2680   33.3120   48.3940 C   0  0  0  0  0  0  0  0  0  0  0  0
   59.2710   32.8660   49.7150 O   0  0  0  0  0  0  0  0  0  0  0  0
   58.9940   31.5000   49.9390 C   0  0  0  0  0  0  0  0  0  0  0  0
   62.6890   33.7096   50.0121 H   0  0  0  0  0  0  0  0  0  0  0  0
   62.3013   32.8962   48.4581 H   0  0  0  0  0  0  0  0  0  0  0  0
   63.2022   34.4502   48.4581 H   0  0  0  0  0  0  0  0  0  0  0  0
   61.0252   35.3303   46.3128 H   0  0  0  0  0  0  0  0  0  0  0  0
   59.2893   34.5750   44.7040 H   0  0  0  0  0  0  0  0  0  0  0  0
   56.2359   33.1140   45.6995 H   0  0  0  0  0  0  0  0  0  0  0  0
   57.3119   33.2645   44.2782 H   0  0  0  0  0  0  0  0  0  0  0  0
   57.0150   30.9130   46.0750 H   0  0  0  0  0  0  0  0  0  0  0  0
   58.3022   31.0026   43.4794 H   0  0  0  0  0  0  0  0  0  0  0  0
   59.3152   31.4145   44.9679 H   0  0  0  0  0  0  0  0  0  0  0  0
   59.4103   29.0808   44.0264 H   0  0  0  0  0  0  0  0  0  0  0  0
   56.8428   27.6702   46.4876 H   0  0  0  0  0  0  0  0  0  0  0  0
   58.5033   26.8624   43.0867 H   0  0  0  0  0  0  0  0  0  0  0  0
   56.2840   22.8390   42.3000 H   0  0  0  0  0  0  0  0  0  0  0  0
   54.6320   22.1700   45.3760 H   0  0  0  0  0  0  0  0  0  0  0  0
   54.5276   23.7082   47.2476 H   0  0  0  0  0  0  0  0  0  0  0  0
   59.6398   26.9447   45.9353 H   0  0  0  0  0  0  0  0  0  0  0  0
   58.8580   28.1650   48.2670 H   0  0  0  0  0  0  0  0  0  0  0  0
   60.3711   29.4166   46.2611 H   0  0  0  0  0  0  0  0  0  0  0  0
   57.6580   29.9940   46.8400 H   0  0  0  0  0  0  0  0  0  0  0  0
   57.5226   32.2048   47.8159 H   0  0  0  0  0  0  0  0  0  0  0  0
   58.9548   31.3065   51.0211 H   0  0  0  0  0  0  0  0  0  0  0  0
   58.0255   31.2431   49.4852 H   0  0  0  0  0  0  0  0  0  0  0  0
   59.7859   30.8861   49.4852 H   0  0  0  0  0  0  0  0  0  0  0  0
  1  2  1  0
  2  3  1  0
  3  4  2  0
  4  5  1  0
  5  6  2  0
  6  7  1  0
  7  8  1  0
  8  9  1  0
  9 10  1  0
 10 11  1  0
 11 12  1  0
 12 13  1  0
 13 14  1  0
 14 15  2  0
 15 16  1  0
 16 17  1  0
 17 18  2  3
 17 19  1  0
 19 20  1  0
 20 21  2  0
 21 22  1  0
 12 23  1  0
 23 24  1  0
 23 25  1  0
 25 26  1  0
  6 27  1  0
 27 28  2  0
 28 29  1  0
 29 30  1  0
 28  3  1  0
 25 10  1  0
 22 13  1  0
 22 16  2  0
  1 31  1  0
  1 32  1  0
  1 33  1  0
  4 34  1  0
  5 35  1  0
  7 36  1  0
  7 37  1  0
  8 38  1  0
  9 39  1  0
  9 40  1  0
 10 41  1  6
 12 42  1  1
 14 43  1  0
 18 44  1  0
 19 45  1  0
 20 46  1  0
 23 47  1  6
 24 48  1  0
 25 49  1  6
 26 50  1  0
 27 51  1  0
 30 52  1  0
 30 53  1  0
 30 54  1  0
M  END
>  <smiles>  (52) 
COc1ccc(CNCC2OC(n3cnc4c(=N)[nH]cnc43)C(O)C2O)cc1OC

>  <score_type>  (52) 
oracle

>  <origin>  (52) 
adg

>  <m_score__min__energy>  (52) 
-8.0999999999999996

>  <m_primary>  (52) 
energy

$$$$
52:0
     RDKit          3D

 36 37  0  0  0  0  0  0  0  0999 V2000
   63.8010   32.7060   48.1280 C   0  0  0  0  0  0  0  0  0  0  0  0
   63.1360   33.6540   47.1890 C   0  0  0  0  0  0  0  0  0  0  0  0
   63.6510   33.8730   46.0600 O   0  0  0  0  0  0  0  0  0  0  0  0
   61.8650   34.2180   47.5390 N   0  0  0  0  0  0  0  0  0  0  0  0
   60.5770   33.6380   47.2880 C   0  0  0  0  0  0  0  0  0  0  0  0
   59.5150   34.4860   46.9510 C   0  0  0  0  0  0  0  0  0  0  0  0
   58.2520   33.9600   46.6710 C   0  0  0  0  0  0  0  0  0  0  0  0
   58.0400   32.5810   46.7180 C   0  0  0  0  0  0  0  0  0  0  0  0
   59.0940   31.7130   47.0530 C   0  0  0  0  0  0  0  0  0  0  0  0
   58.9150   30.2860   47.0620 N   0  0  0  0  0  0  0  0  0  0  0  0
   59.0670   29.4510   45.8980 C   0  0  0  0  0  0  0  0  0  0  0  0
   59.3020   29.9740   44.7740 O   0  0  0  0  0  0  0  0  0  0  0  0
   58.9470   27.9760   45.9900 C   0  0  0  0  0  0  0  0  0  0  0  0
   60.1060   27.1820   45.9940 C   0  0  0  0  0  0  0  0  0  0  0  0
   60.0110   25.7910   46.0720 C   0  0  0  0  0  0  0  0  0  0  0  0
   58.7600   25.1730   46.1410 C   0  0  0  0  0  0  0  0  0  0  0  0
   58.6920   23.8180   46.2030 F   0  0  0  0  0  0  0  0  0  0  0  0
   57.5920   25.9490   46.1310 C   0  0  0  0  0  0  0  0  0  0  0  0
   56.0090   25.1730   46.1910 S   0  0  0  0  0  0  0  0  0  0  0  0
   54.7530   26.3410   45.9690 N   0  0  0  0  0  0  0  0  0  0  0  0
   55.8170   24.5120   47.5280 O   0  0  0  0  0  0  0  0  0  0  0  0
   55.9190   24.1410   45.1040 O   0  0  0  0  0  0  0  0  0  0  0  0
   57.6890   27.3460   46.0440 C   0  0  0  0  0  0  0  0  0  0  0  0
   60.3660   32.2460   47.3100 C   0  0  0  0  0  0  0  0  0  0  0  0
   63.5894   33.0076   49.1645 H   0  0  0  0  0  0  0  0  0  0  0  0
   63.4168   31.6897   47.9562 H   0  0  0  0  0  0  0  0  0  0  0  0
   64.8874   32.7212   47.9562 H   0  0  0  0  0  0  0  0  0  0  0  0
   59.6765   35.5732   46.9065 H   0  0  0  0  0  0  0  0  0  0  0  0
   57.4220   34.6341   46.4127 H   0  0  0  0  0  0  0  0  0  0  0  0
   57.0442   32.1719   46.4920 H   0  0  0  0  0  0  0  0  0  0  0  0
   58.6070   29.8560   47.9610 H   0  0  0  0  0  0  0  0  0  0  0  0
   61.0953   27.6594   45.9353 H   0  0  0  0  0  0  0  0  0  0  0  0
   60.9252   25.1792   46.0791 H   0  0  0  0  0  0  0  0  0  0  0  0
   54.9000   27.0870   46.6860 H   0  0  0  0  0  0  0  0  0  0  0  0
   56.7733   27.9550   46.0177 H   0  0  0  0  0  0  0  0  0  0  0  0
   61.2058   31.5706   47.5306 H   0  0  0  0  0  0  0  0  0  0  0  0
  1  2  1  0
  2  3  2  0
  2  4  1  0
  4  5  1  0
  5  6  2  0
  6  7  1  0
  7  8  2  0
  8  9  1  0
  9 10  1  0
 10 11  1  0
 11 12  2  0
 11 13  1  0
 13 14  2  0
 14 15  1  0
 15 16  2  0
 16 17  1  0
 16 18  1  0
 18 19  1  0
 19 20  1  0
 19 21  2  0
 19 22  2  0
 18 23  2  0
  9 24  2  0
 24  5  1  0
 23 13  1  0
  1 25  1  0
  1 26  1  0
  1 27  1  0
  6 28  1  0
  7 29  1  0
  8 30  1  0
 10 31  1  0
 14 32  1  0
 15 33  1  0
 20 34  1  0
 23 35  1  0
 24 36  1  0
M  CHG  2   4  -1  20  -1
M  END
>  <UniqueID>  (53) 
49

>  <SMILES>  (53) 
CC(=O)[N-]c1cccc(NC(=O)c2ccc(F)c(S([NH-])(=O)=O)c2)c1

>  <Energy>  (53) 
45.41607022965192

>  <Genealogy>  (53) 
CC(=O)[N-]c1cccc(NC(=O)c2ccc(F)c(S([NH-])(=O)=O)c2)c1 (protonated)
CC(=O)[N-]c1cccc(NC(=O)c2ccc(F)c(S([NH-])(=O)=O)c2)c1 (3D coordinates assigned)
CC(=O)[N-]c1cccc(NC(=O)c2ccc(F)c(S([NH-])(=O)=O)c2)c1 (optimized conformer: 45.41607022965192 kcal/mol)

>  <smiles>  (53) 
CC(=O)Nc1cccc(NC(=O)c2ccc(F)c(S(N)(=O)=O)c2)c1

>  <score_type>  (53) 
oracle

>  <origin>  (53) 
adg

>  <m_score__min__energy>  (53) 
-11.23

>  <m_primary>  (53) 
energy

$$$$
53:0
     RDKit          3D

 46 49  0  0  0  0  0  0  0  0999 V2000
   57.3850   33.0310   47.1450 C   0  0  0  0  0  0  0  0  0  0  0  0
   58.8100   33.1220   46.5500 C   0  0  1  0  0  0  0  0  0  0  0  0
   59.8440   32.3940   47.4210 C   0  0  0  0  0  0  0  0  0  0  0  0
   59.5610   30.8710   47.4240 C   0  0  0  0  0  0  0  0  0  0  0  0
   59.4260   30.2110   45.9990 C   0  0  2  0  0  0  0  0  0  0  0  0
   58.6350   31.0730   44.9560 C   0  0  1  0  0  0  0  0  0  0  0  0
   57.1990   30.6700   44.8950 C   0  0  0  0  0  0  0  0  0  0  0  0
   56.2700   31.5110   44.7730 O   0  0  0  0  0  0  0  0  0  0  0  0
   56.9000   29.2460   44.7990 C   0  0  0  0  0  0  0  0  0  0  0  0
   57.7830   28.3090   45.1710 C   0  0  0  0  0  0  0  0  0  0  0  0
   57.3930   26.8540   45.0200 C   0  0  0  0  0  0  0  0  0  0  0  0
   57.4770   26.1170   46.3270 C   0  0  0  0  0  0  0  0  0  0  0  0
   56.9550   25.0160   46.4190 O   0  0  0  0  0  0  0  0  0  0  0  0
   58.2590   26.6420   47.5120 C   0  0  0  0  0  0  0  0  0  0  0  0
   58.6590   28.1330   47.4360 C   0  0  0  0  0  0  0  0  0  0  0  0
   59.0280   28.6500   46.0140 C   0  0  2  0  0  0  0  0  0  0  0  0
   60.2450   27.8450   45.4890 C   0  0  0  0  0  0  0  0  0  0  0  0
   58.9610   32.5750   45.1230 C   0  0  1  0  0  0  0  0  0  0  0  0
   58.4090   33.6600   44.1910 C   0  0  0  0  0  0  0  0  0  0  0  0
   58.8650   34.9680   44.8720 C   0  0  0  0  0  0  0  0  0  0  0  0
   59.0920   34.5680   46.3020 C   0  0  0  0  0  0  0  0  0  0  0  0
   59.3740   35.3600   47.1980 O   0  0  0  0  0  0  0  0  0  0  0  0
   57.4453   33.0349   48.2433 H   0  0  0  0  0  0  0  0  0  0  0  0
   56.7909   33.8930   46.8074 H   0  0  0  0  0  0  0  0  0  0  0  0
   56.9054   32.1004   46.8074 H   0  0  0  0  0  0  0  0  0  0  0  0
   60.8513   32.5759   47.0183 H   0  0  0  0  0  0  0  0  0  0  0  0
   59.7780   32.7741   48.4511 H   0  0  0  0  0  0  0  0  0  0  0  0
   60.3865   30.3725   47.9532 H   0  0  0  0  0  0  0  0  0  0  0  0
   58.5844   30.7428   47.9137 H   0  0  0  0  0  0  0  0  0  0  0  0
   60.4569   30.2114   45.6153 H   0  0  0  0  0  0  0  0  0  0  0  0
   58.9792   30.8613   43.9329 H   0  0  0  0  0  0  0  0  0  0  0  0
   55.9205   28.9315   44.4096 H   0  0  0  0  0  0  0  0  0  0  0  0
   56.3602   26.7989   44.6455 H   0  0  0  0  0  0  0  0  0  0  0  0
   58.0938   26.3827   44.3152 H   0  0  0  0  0  0  0  0  0  0  0  0
   57.6442   26.5014   48.4132 H   0  0  0  0  0  0  0  0  0  0  0  0
   59.2022   26.0761   47.5267 H   0  0  0  0  0  0  0  0  0  0  0  0
   57.8136   28.7312   47.8066 H   0  0  0  0  0  0  0  0  0  0  0  0
   59.5703   28.2354   48.0435 H   0  0  0  0  0  0  0  0  0  0  0  0
   60.8256   27.4610   46.3407 H   0  0  0  0  0  0  0  0  0  0  0  0
   59.8908   27.0024   44.8769 H   0  0  0  0  0  0  0  0  0  0  0  0
   60.8818   28.5006   44.8769 H   0  0  0  0  0  0  0  0  0  0  0  0
   60.0001   32.4316   44.7918 H   0  0  0  0  0  0  0  0  0  0  0  0
   58.8373   33.5696   43.1818 H   0  0  0  0  0  0  0  0  0  0  0  0
   57.3193   33.6000   44.0537 H   0  0  0  0  0  0  0  0  0  0  0  0
   59.7941   35.3428   44.4179 H   0  0  0  0  0  0  0  0  0  0  0  0
   58.1296   35.7796   44.7692 H   0  0  0  0  0  0  0  0  0  0  0  0
  2  1  1  1
  2  3  1  0
  3  4  1  0
  4  5  1  0
  5  6  1  0
  6  7  1  0
  7  8  2  0
  7  9  1  0
  9 10  2  0
 10 11  1  0
 11 12  1  0
 12 13  2  0
 12 14  1  0
 14 15  1  0
 15 16  1  0
 16 17  1  6
  6 18  1  0
 18 19  1  0
 19 20  1  0
 20 21  1  0
 21 22  2  0
 18  2  1  0
 21  2  1  0
 16  5  1  0
 16 10  1  0
  1 23  1  0
  1 24  1  0
  1 25  1  0
  3 26  1  0
  3 27  1  0
  4 28  1  0
  4 29  1  0
  5 30  1  6
  6 31  1  6
  9 32  1  0
 11 33  1  0
 11 34  1  0
 14 35  1  0
 14 36  1  0
 15 37  1  0
 15 38  1  0
 17 39  1  0
 17 40  1  0
 17 41  1  0
 18 42  1  6
 19 43  1  0
 19 44  1  0
 20 45  1  0
 20 46  1  0
M  END
>  <UniqueID>  (54) 
50

>  <SMILES>  (54) 
CC12CCC(=O)CC1=CC(=O)C1C3CCC(=O)[C@]3(C)CC[C@H]12

>  <Energy>  (54) 
88.33114803273587

>  <Genealogy>  (54) 
CC12CCC(=O)CC1=CC(=O)C1C3CCC(=O)[C@]3(C)CC[C@H]12 (chirality)
CC12CCC(=O)CC1=CC(=O)C1C3CCC(=O)[C@]3(C)CC[C@H]12 (3D coordinates assigned)
CC12CCC(=O)CC1=CC(=O)C1C3CCC(=O)[C@]3(C)CC[C@H]12 (nonaromatic ring conformer: 88.33114803273587 kcal/mol)

>  <smiles>  (54) 
CC12CCC3C(C(=O)C=C4CC(=O)CCC43C)C1CCC2=O

>  <score_type>  (54) 
oracle

>  <origin>  (54) 
adg

>  <m_score__min__energy>  (54) 
-9.0899999999999999

>  <m_primary>  (54) 
energy

$$$$
54:0
     RDKit          3D

 54 58  0  0  0  0  0  0  0  0999 V2000
   60.9410   26.5400   56.0270 C   0  0  0  0  0  0  0  0  0  0  0  0
   61.9580   26.7870   55.0640 O   0  0  0  0  0  0  0  0  0  0  0  0
   61.6800   27.2400   53.7710 C   0  0  0  0  0  0  0  0  0  0  0  0
   62.0750   26.4720   52.6750 C   0  0  0  0  0  0  0  0  0  0  0  0
   61.8000   26.9240   51.3830 C   0  0  0  0  0  0  0  0  0  0  0  0
   61.1360   28.1490   51.1860 C   0  0  0  0  0  0  0  0  0  0  0  0
   60.8230   28.6610   49.8270 C   0  0  0  0  0  0  0  0  0  0  0  0
   59.9820   27.9640   48.9460 C   0  0  0  0  0  0  0  0  0  0  0  0
   59.7370   28.4990   47.6770 C   0  0  0  0  0  0  0  0  0  0  0  0
   58.8700   27.8160   46.7560 N   0  0  0  0  0  0  0  0  0  0  0  0
   58.3810   28.5310   45.5460 C   0  0  0  0  0  0  0  0  0  0  0  0
   56.8730   28.2670   45.2360 C   0  0  0  0  0  0  0  0  0  0  0  0
   56.3570   27.1000   46.0720 C   0  0  1  0  0  0  0  0  0  0  0  0
   55.1850   26.4470   45.6250 O   0  0  0  0  0  0  0  0  0  0  0  0
   55.3310   25.1150   45.9860 C   0  0  0  0  0  0  0  0  0  0  0  0
   54.4010   24.2710   45.9150 O   0  0  0  0  0  0  0  0  0  0  0  0
   56.6410   24.7930   46.4460 N   0  0  0  0  0  0  0  0  0  0  0  0
   57.3940   25.9830   46.0820 C   0  0  2  0  0  0  0  0  0  0  0  0
   58.5300   26.3950   47.0090 C   0  0  0  0  0  0  0  0  0  0  0  0
   60.3170   29.6790   47.3190 N   0  0  0  0  0  0  0  0  0  0  0  0
   61.1470   30.3440   48.1750 C   0  0  0  0  0  0  0  0  0  0  0  0
   61.7670   31.5920   47.7950 N   0  0  0  0  0  0  0  0  0  0  0  0
   63.2070   31.7760   48.0230 C   0  0  0  0  0  0  0  0  0  0  0  0
   63.7720   32.8230   47.0590 C   0  0  0  0  0  0  0  0  0  0  0  0
   63.0010   34.0070   47.0950 O   0  0  0  0  0  0  0  0  0  0  0  0
   61.7070   33.7420   46.5910 C   0  0  0  0  0  0  0  0  0  0  0  0
   60.9510   32.7790   47.5110 C   0  0  0  0  0  0  0  0  0  0  0  0
   61.3830   29.8270   49.4100 N   0  0  0  0  0  0  0  0  0  0  0  0
   60.7480   28.8810   52.3220 C   0  0  0  0  0  0  0  0  0  0  0  0
   61.0280   28.4180   53.5690 N   0  0  0  0  0  0  0  0  0  0  0  0
   61.3612   26.6421   57.0384 H   0  0  0  0  0  0  0  0  0  0  0  0
   60.1256   27.2662   55.8937 H   0  0  0  0  0  0  0  0  0  0  0  0
   60.5496   25.5207   55.8937 H   0  0  0  0  0  0  0  0  0  0  0  0
   62.5994   25.5172   52.8279 H   0  0  0  0  0  0  0  0  0  0  0  0
   62.1037   26.3200   50.5153 H   0  0  0  0  0  0  0  0  0  0  0  0
   59.5225   27.0115   49.2487 H   0  0  0  0  0  0  0  0  0  0  0  0
   58.5216   29.6112   45.6988 H   0  0  0  0  0  0  0  0  0  0  0  0
   58.9593   28.1532   44.6899 H   0  0  0  0  0  0  0  0  0  0  0  0
   56.2903   29.1692   45.4737 H   0  0  0  0  0  0  0  0  0  0  0  0
   56.7650   28.0187   44.1698 H   0  0  0  0  0  0  0  0  0  0  0  0
   56.1434   27.5833   47.0368 H   0  0  0  0  0  0  0  0  0  0  0  0
   57.9003   25.7756   45.1277 H   0  0  0  0  0  0  0  0  0  0  0  0
   58.2146   26.2722   48.0556 H   0  0  0  0  0  0  0  0  0  0  0  0
   59.4106   25.7634   46.8202 H   0  0  0  0  0  0  0  0  0  0  0  0
   60.0830   30.0870   46.3870 H   0  0  0  0  0  0  0  0  0  0  0  0
   63.3699   32.1113   49.0579 H   0  0  0  0  0  0  0  0  0  0  0  0
   63.7203   30.8186   47.8499 H   0  0  0  0  0  0  0  0  0  0  0  0
   64.8070   33.0578   47.3480 H   0  0  0  0  0  0  0  0  0  0  0  0
   63.7426   32.4143   46.0382 H   0  0  0  0  0  0  0  0  0  0  0  0
   61.1475   34.6864   46.5197 H   0  0  0  0  0  0  0  0  0  0  0  0
   61.8038   33.2780   45.5984 H   0  0  0  0  0  0  0  0  0  0  0  0
   60.7154   33.2908   48.4557 H   0  0  0  0  0  0  0  0  0  0  0  0
   60.0244   32.4621   47.0101 H   0  0  0  0  0  0  0  0  0  0  0  0
   60.2141   29.8351   52.2008 H   0  0  0  0  0  0  0  0  0  0  0  0
  1  2  1  0
  2  3  1  0
  3  4  2  0
  4  5  1  0
  5  6  2  0
  6  7  1  0
  7  8  2  0
  8  9  1  0
  9 10  1  0
 10 11  1  0
 11 12  1  0
 12 13  1  0
 13 14  1  0
 14 15  1  0
 15 16  2  0
 15 17  1  0
 17 18  1  0
 18 19  1  0
  9 20  2  0
 20 21  1  0
 21 22  1  0
 22 23  1  0
 23 24  1  0
 24 25  1  0
 25 26  1  0
 26 27  1  0
 21 28  2  0
  6 29  1  0
 29 30  2  0
 30  3  1  0
 28  7  1  0
 19 10  1  0
 27 22  1  0
 18 13  1  0
  1 31  1  0
  1 32  1  0
  1 33  1  0
  4 34  1  0
  5 35  1  0
  8 36  1  0
 11 37  1  0
 11 38  1  0
 12 39  1  0
 12 40  1  0
 13 41  1  1
 18 42  1  6
 19 43  1  0
 19 44  1  0
 20 45  1  0
 23 46  1  0
 23 47  1  0
 24 48  1  0
 24 49  1  0
 26 50  1  0
 26 51  1  0
 27 52  1  0
 27 53  1  0
 29 54  1  0
M  CHG  2  17  -1  20   1
M  END
>  <UniqueID>  (55) 
51

>  <SMILES>  (55) 
COc1ccc(-c2cc(N3CC[C@H]4OC(=O)[N-][C@@H]4C3)[nH+]c(N3CCOCC3)n2)cn1

>  <Energy>  (55) 
99.32963423333194

>  <Genealogy>  (55) 
COc1ccc(-c2cc(N3CCC4OC(=O)[N-]C4C3)[nH+]c(N3CCOCC3)n2)cn1 (protonated)
COc1ccc(-c2cc(N3CC[C@H]4OC(=O)[N-][C@@H]4C3)[nH+]c(N3CCOCC3)n2)cn1 (chirality)
COc1ccc(-c2cc(N3CC[C@H]4OC(=O)[N-][C@@H]4C3)[nH+]c(N3CCOCC3)n2)cn1 (3D coordinates assigned)
COc1ccc(-c2cc(N3CC[C@H]4OC(=O)[N-][C@@H]4C3)[nH+]c(N3CCOCC3)n2)cn1 (nonaromatic ring conformer: 99.32963423333194 kcal/mol)

>  <smiles>  (55) 
COc1ccc(-c2cc(N3CCC4OC(=O)NC4C3)nc(N3CCOCC3)n2)cn1

>  <score_type>  (55) 
oracle

>  <origin>  (55) 
adg

>  <m_score__min__energy>  (55) 
-6.79

>  <m_primary>  (55) 
energy

$$$$
55:0
     RDKit          3D

 29 30  0  0  0  0  0  0  0  0999 V2000
   56.9330   29.3910   43.3840 C   0  0  0  0  0  0  0  0  0  0  0  0
   55.8960   29.1780   44.8640 S   0  0  0  0  0  0  0  0  0  0  0  0
   57.0610   28.0660   45.6660 C   0  0  0  0  0  0  0  0  0  0  0  0
   58.3820   28.4880   45.8590 C   0  0  0  0  0  0  0  0  0  0  0  0
   59.3060   27.6430   46.4800 C   0  0  0  0  0  0  0  0  0  0  0  0
   58.9150   26.3720   46.9030 C   0  0  0  0  0  0  0  0  0  0  0  0
   57.5980   25.9450   46.7170 C   0  0  0  0  0  0  0  0  0  0  0  0
   56.6530   26.7960   46.1160 C   0  0  0  0  0  0  0  0  0  0  0  0
   55.2980   26.3750   45.8860 N   0  0  0  0  0  0  0  0  0  0  0  0
   54.8420   25.0380   45.6410 C   0  0  0  0  0  0  0  0  0  0  0  0
   53.6740   24.6950   45.9720 O   0  0  0  0  0  0  0  0  0  0  0  0
   55.7270   24.0720   44.9480 C   0  0  0  0  0  0  0  0  0  0  0  0
   56.4690   23.1250   45.6750 C   0  0  0  0  0  0  0  0  0  0  0  0
   57.2960   22.2210   45.0080 C   0  0  0  0  0  0  0  0  0  0  0  0
   57.3800   22.2670   43.6160 C   0  0  0  0  0  0  0  0  0  0  0  0
   56.6590   23.1850   42.9190 N   0  0  0  0  0  0  0  0  0  0  0  0
   55.8440   24.0780   43.5460 C   0  0  0  0  0  0  0  0  0  0  0  0
   57.9682   29.6036   43.6891 H   0  0  0  0  0  0  0  0  0  0  0  0
   56.9095   28.4693   42.7841 H   0  0  0  0  0  0  0  0  0  0  0  0
   56.5481   30.2288   42.7841 H   0  0  0  0  0  0  0  0  0  0  0  0
   58.6935   29.4874   45.5209 H   0  0  0  0  0  0  0  0  0  0  0  0
   60.3416   27.9799   46.6353 H   0  0  0  0  0  0  0  0  0  0  0  0
   59.6455   25.7049   47.3840 H   0  0  0  0  0  0  0  0  0  0  0  0
   57.2984   24.9378   47.0423 H   0  0  0  0  0  0  0  0  0  0  0  0
   56.3974   23.0967   46.7723 H   0  0  0  0  0  0  0  0  0  0  0  0
   57.8769   21.4783   45.5746 H   0  0  0  0  0  0  0  0  0  0  0  0
   58.0307   21.5592   43.0816 H   0  0  0  0  0  0  0  0  0  0  0  0
   56.7320   23.2060   41.8770 H   0  0  0  0  0  0  0  0  0  0  0  0
   55.2739   24.8082   42.9528 H   0  0  0  0  0  0  0  0  0  0  0  0
  1  2  1  0
  2  3  1  0
  3  4  2  0
  4  5  1  0
  5  6  2  0
  6  7  1  0
  7  8  2  0
  8  9  1  0
  9 10  1  0
 10 11  2  0
 10 12  1  0
 12 13  2  0
 13 14  1  0
 14 15  2  0
 15 16  1  0
 16 17  2  0
  8  3  1  0
 17 12  1  0
  1 18  1  0
  1 19  1  0
  1 20  1  0
  4 21  1  0
  5 22  1  0
  6 23  1  0
  7 24  1  0
 13 25  1  0
 14 26  1  0
 15 27  1  0
 16 28  1  0
 17 29  1  0
M  CHG  2   9  -1  16   1
M  END
>  <UniqueID>  (56) 
52

>  <SMILES>  (56) 
CSc1ccccc1[N-]C(=O)c1ccc[nH+]c1

>  <Energy>  (56) 
29.8808211306237

>  <Genealogy>  (56) 
CSc1ccccc1[N-]C(=O)c1ccc[nH+]c1 (protonated)
CSc1ccccc1[N-]C(=O)c1ccc[nH+]c1 (3D coordinates assigned)
CSc1ccccc1[N-]C(=O)c1ccc[nH+]c1 (optimized conformer: 29.8808211306237 kcal/mol)

>  <smiles>  (56) 
CSc1ccccc1NC(=O)c1cccnc1

>  <score_type>  (56) 
oracle

>  <origin>  (56) 
adg

>  <m_score__min__energy>  (56) 
-6.8700000000000001

>  <m_primary>  (56) 
energy

$$$$
56:0
     RDKit          3D

 46 48  0  0  0  0  0  0  0  0999 V2000
   59.2830   34.6720   47.4340 C   0  0  0  0  0  0  0  0  0  0  0  0
   59.7590   33.8540   48.4960 O   0  0  0  0  0  0  0  0  0  0  0  0
   61.1150   33.6060   48.7660 C   0  0  0  0  0  0  0  0  0  0  0  0
   62.0490   33.3780   47.7360 C   0  0  0  0  0  0  0  0  0  0  0  0
   63.3840   33.1080   48.0400 C   0  0  0  0  0  0  0  0  0  0  0  0
   63.8080   33.0780   49.3690 C   0  0  0  0  0  0  0  0  0  0  0  0
   65.4860   32.7320   49.7460 Cl  0  0  0  0  0  0  0  0  0  0  0  0
   62.8950   33.3130   50.3990 C   0  0  0  0  0  0  0  0  0  0  0  0
   61.5420   33.5650   50.1070 C   0  0  0  0  0  0  0  0  0  0  0  0
   60.5860   33.7620   51.1670 N   0  0  0  0  0  0  0  0  0  0  0  0
   60.8550   33.4270   52.5680 C   0  0  0  0  0  0  0  0  0  0  0  0
   59.5810   33.5450   53.4080 C   0  0  0  0  0  0  0  0  0  0  0  0
   58.5610   34.3090   52.6710 N   0  0  0  0  0  0  0  0  0  0  0  0
   57.3610   33.5160   52.3710 C   0  0  0  0  0  0  0  0  0  0  0  0
   57.6900   32.2920   51.5650 C   0  0  0  0  0  0  0  0  0  0  0  0
   57.4460   30.9840   51.9220 C   0  0  0  0  0  0  0  0  0  0  0  0
   57.9210   30.2170   50.9680 O   0  0  0  0  0  0  0  0  0  0  0  0
   58.4500   31.0010   50.0500 C   0  0  0  0  0  0  0  0  0  0  0  0
   59.0870   30.4900   48.8130 C   0  0  0  0  0  0  0  0  0  0  0  0
   59.8720   29.3250   48.8680 C   0  0  0  0  0  0  0  0  0  0  0  0
   60.4770   28.8210   47.7120 C   0  0  0  0  0  0  0  0  0  0  0  0
   60.3020   29.4710   46.4890 C   0  0  0  0  0  0  0  0  0  0  0  0
   60.8850   28.9780   45.3680 F   0  0  0  0  0  0  0  0  0  0  0  0
   59.5220   30.6280   46.4200 C   0  0  0  0  0  0  0  0  0  0  0  0
   58.9180   31.1380   47.5740 C   0  0  0  0  0  0  0  0  0  0  0  0
   58.3330   32.3040   50.3840 N   0  0  0  0  0  0  0  0  0  0  0  0
   58.7709   35.5520   47.8502 H   0  0  0  0  0  0  0  0  0  0  0  0
   60.1313   35.0000   46.8153 H   0  0  0  0  0  0  0  0  0  0  0  0
   58.5787   34.0965   46.8153 H   0  0  0  0  0  0  0  0  0  0  0  0
   61.7239   33.4130   46.6857 H   0  0  0  0  0  0  0  0  0  0  0  0
   64.1037   32.9184   47.2300 H   0  0  0  0  0  0  0  0  0  0  0  0
   63.2356   33.3010   51.4449 H   0  0  0  0  0  0  0  0  0  0  0  0
   59.5990   33.9990   50.9150 H   0  0  0  0  0  0  0  0  0  0  0  0
   61.2315   32.3951   52.6264 H   0  0  0  0  0  0  0  0  0  0  0  0
   61.6039   34.1300   52.9617 H   0  0  0  0  0  0  0  0  0  0  0  0
   59.1947   32.5387   53.6272 H   0  0  0  0  0  0  0  0  0  0  0  0
   59.8149   34.0675   54.3473 H   0  0  0  0  0  0  0  0  0  0  0  0
   58.9740   34.6710   51.7780 H   0  0  0  0  0  0  0  0  0  0  0  0
   56.8939   33.2047   53.3170 H   0  0  0  0  0  0  0  0  0  0  0  0
   56.6761   34.1415   51.7797 H   0  0  0  0  0  0  0  0  0  0  0  0
   56.9442   30.6438   52.8399 H   0  0  0  0  0  0  0  0  0  0  0  0
   60.0115   28.8058   49.8277 H   0  0  0  0  0  0  0  0  0  0  0  0
   61.0920   27.9106   47.7667 H   0  0  0  0  0  0  0  0  0  0  0  0
   59.3825   31.1391   45.4560 H   0  0  0  0  0  0  0  0  0  0  0  0
   58.3072   32.0508   47.5134 H   0  0  0  0  0  0  0  0  0  0  0  0
   58.6710   33.1470   49.8670 H   0  0  0  0  0  0  0  0  0  0  0  0
  1  2  1  0
  2  3  1  0
  3  4  2  0
  4  5  1  0
  5  6  2  0
  6  7  1  0
  6  8  1  0
  8  9  2  0
  9 10  1  0
 10 11  1  0
 11 12  1  0
 12 13  1  0
 13 14  1  0
 14 15  1  0
 15 16  2  0
 16 17  1  0
 17 18  1  0
 18 19  1  0
 19 20  2  0
 20 21  1  0
 21 22  2  0
 22 23  1  0
 22 24  1  0
 24 25  2  0
 18 26  2  0
  9  3  1  0
 26 15  1  0
 25 19  1  0
  1 27  1  0
  1 28  1  0
  1 29  1  0
  4 30  1  0
  5 31  1  0
  8 32  1  0
 10 33  1  0
 11 34  1  0
 11 35  1  0
 12 36  1  0
 12 37  1  0
 13 38  1  0
 14 39  1  0
 14 40  1  0
 16 41  1  0
 20 42  1  0
 21 43  1  0
 24 44  1  0
 25 45  1  0
 26 46  1  0
M  CHG  1  26   1
M  END
>  <UniqueID>  (57) 
53

>  <SMILES>  (57) 
COc1ccc(Cl)cc1NCCNCc1coc(-c2ccc(F)cc2)[nH+]1

>  <Energy>  (57) 
78.53763817651854

>  <Genealogy>  (57) 
COc1ccc(Cl)cc1NCCNCc1coc(-c2ccc(F)cc2)[nH+]1 (protonated)
COc1ccc(Cl)cc1NCCNCc1coc(-c2ccc(F)cc2)[nH+]1 (3D coordinates assigned)
COc1ccc(Cl)cc1NCCNCc1coc(-c2ccc(F)cc2)[nH+]1 (optimized conformer: 78.53763817651854 kcal/mol)

>  <smiles>  (57) 
COc1ccc(Cl)cc1NCCNCc1coc(-c2ccc(F)cc2)n1

>  <score_type>  (57) 
oracle

>  <origin>  (57) 
adg

>  <m_score__min__energy>  (57) 
-6.6299999999999999

>  <m_primary>  (57) 
energy

$$$$
57:0
     RDKit          3D

 32 33  0  0  0  0  0  0  0  0999 V2000
   55.1710   26.6720   46.0040 N   0  0  0  0  0  0  0  0  0  0  0  0
   56.5500   27.0270   45.9100 C   0  0  0  0  0  0  0  0  0  0  0  0
   57.4250   26.1580   46.1690 O   0  0  0  0  0  0  0  0  0  0  0  0
   56.9490   28.3970   45.5140 C   0  0  0  0  0  0  0  0  0  0  0  0
   56.2900   29.0620   44.4660 C   0  0  0  0  0  0  0  0  0  0  0  0
   56.6700   30.3540   44.0930 C   0  0  0  0  0  0  0  0  0  0  0  0
   57.7040   31.0150   44.7700 C   0  0  0  0  0  0  0  0  0  0  0  0
   58.0960   32.3320   44.3440 N   0  0  0  0  0  0  0  0  0  0  0  0
   57.7390   33.5400   45.0360 C   0  0  0  0  0  0  0  0  0  0  0  0
   56.6740   33.5900   45.7080 O   0  0  0  0  0  0  0  0  0  0  0  0
   58.5420   34.7680   44.8850 C   0  0  0  0  0  0  0  0  0  0  0  0
   59.6470   35.0600   45.5900 C   0  0  0  0  0  0  0  0  0  0  0  0
   60.1030   34.3360   46.7970 C   0  0  0  0  0  0  0  0  0  0  0  0
   61.2400   33.5110   46.7780 C   0  0  0  0  0  0  0  0  0  0  0  0
   61.6280   32.8310   47.9320 C   0  0  0  0  0  0  0  0  0  0  0  0
   60.8610   32.9570   49.0910 C   0  0  0  0  0  0  0  0  0  0  0  0
   59.7430   33.7310   49.0850 N   0  0  0  0  0  0  0  0  0  0  0  0
   59.3470   34.4080   47.9740 C   0  0  0  0  0  0  0  0  0  0  0  0
   58.3790   30.3470   45.8070 C   0  0  0  0  0  0  0  0  0  0  0  0
   58.0000   29.0540   46.1780 C   0  0  0  0  0  0  0  0  0  0  0  0
   54.5520   27.1070   46.7250 H   0  0  0  0  0  0  0  0  0  0  0  0
   55.4676   28.5610   43.9344 H   0  0  0  0  0  0  0  0  0  0  0  0
   56.1536   30.8561   43.2616 H   0  0  0  0  0  0  0  0  0  0  0  0
   58.6390   32.4230   43.4550 H   0  0  0  0  0  0  0  0  0  0  0  0
   58.2097   35.5021   44.1362 H   0  0  0  0  0  0  0  0  0  0  0  0
   60.2614   35.9038   45.2428 H   0  0  0  0  0  0  0  0  0  0  0  0
   61.8244   33.4014   45.8525 H   0  0  0  0  0  0  0  0  0  0  0  0
   62.5300   32.2014   47.9287 H   0  0  0  0  0  0  0  0  0  0  0  0
   61.1607   32.4304   50.0091 H   0  0  0  0  0  0  0  0  0  0  0  0
   58.4296   35.0144   47.9998 H   0  0  0  0  0  0  0  0  0  0  0  0
   59.2096   30.8447   46.3289 H   0  0  0  0  0  0  0  0  0  0  0  0
   58.5290   28.5453   46.9974 H   0  0  0  0  0  0  0  0  0  0  0  0
  1  2  1  0
  2  3  2  0
  2  4  1  0
  4  5  2  0
  5  6  1  0
  6  7  2  0
  7  8  1  0
  8  9  1  0
  9 10  2  0
  9 11  1  0
 11 12  2  3
 12 13  1  0
 13 14  2  0
 14 15  1  0
 15 16  2  0
 16 17  1  0
 17 18  2  0
  7 19  1  0
 19 20  2  0
 20  4  1  0
 18 13  1  0
  1 21  1  0
  5 22  1  0
  6 23  1  0
  8 24  1  0
 11 25  1  0
 12 26  1  0
 14 27  1  0
 15 28  1  0
 16 29  1  0
 18 30  1  0
 19 31  1  0
 20 32  1  0
M  CHG  1   1  -1
M  END
>  <UniqueID>  (58) 
54

>  <SMILES>  (58) 
[NH-]C(=O)c1ccc(NC(=O)C=Cc2cccnc2)cc1

>  <Energy>  (58) 
43.908564988696845

>  <Genealogy>  (58) 
[NH-]C(=O)c1ccc(NC(=O)C=Cc2cccnc2)cc1 (protonated)
[NH-]C(=O)c1ccc(NC(=O)C=Cc2cccnc2)cc1 (3D coordinates assigned)
[NH-]C(=O)c1ccc(NC(=O)C=Cc2cccnc2)cc1 (optimized conformer: 43.908564988696845 kcal/mol)

>  <smiles>  (58) 
NC(=O)c1ccc(NC(=O)C=Cc2cccnc2)cc1

>  <score_type>  (58) 
oracle

>  <origin>  (58) 
adg

>  <m_score__min__energy>  (58) 
-10.35

>  <m_primary>  (58) 
energy

$$$$
58:0
     RDKit          3D

 49 51  0  0  0  0  0  0  0  0999 V2000
   62.1480   31.4060   48.8730 C   0  0  0  0  0  0  0  0  0  0  0  0
   61.9780   32.0550   47.6160 O   0  0  0  0  0  0  0  0  0  0  0  0
   60.7640   32.5900   47.1580 C   0  0  0  0  0  0  0  0  0  0  0  0
   60.4490   33.9080   47.5070 C   0  0  0  0  0  0  0  0  0  0  0  0
   59.2630   34.4920   47.0620 C   0  0  0  0  0  0  0  0  0  0  0  0
   58.3630   33.7540   46.2870 C   0  0  0  0  0  0  0  0  0  0  0  0
   58.6430   32.4180   45.9510 C   0  0  0  0  0  0  0  0  0  0  0  0
   57.6530   31.6110   45.2010 C   0  0  0  0  0  0  0  0  0  0  0  0
   56.4430   31.9680   45.1640 O   0  0  0  0  0  0  0  0  0  0  0  0
   58.0640   30.4290   44.5070 N   0  0  0  0  0  0  0  0  0  0  0  0
   57.9440   29.0830   44.9940 C   0  0  0  0  0  0  0  0  0  0  0  0
   59.1070   28.4250   45.4040 C   0  0  0  0  0  0  0  0  0  0  0  0
   59.0400   27.1450   45.9560 C   0  0  0  0  0  0  0  0  0  0  0  0
   57.8050   26.5300   46.1530 C   0  0  0  0  0  0  0  0  0  0  0  0
   56.6220   27.1930   45.8030 C   0  0  0  0  0  0  0  0  0  0  0  0
   55.3740   26.5930   46.1750 N   0  0  0  0  0  0  0  0  0  0  0  0
   54.9050   25.3290   45.6860 C   0  0  0  0  0  0  0  0  0  0  0  0
   53.6690   25.0960   45.6040 O   0  0  0  0  0  0  0  0  0  0  0  0
   55.8720   24.3120   45.2360 C   0  0  0  0  0  0  0  0  0  0  0  0
   56.0060   24.0840   43.8560 C   0  0  0  0  0  0  0  0  0  0  0  0
   56.9640   23.1890   43.3760 C   0  0  0  0  0  0  0  0  0  0  0  0
   57.7870   22.5010   44.2680 C   0  0  0  0  0  0  0  0  0  0  0  0
   57.6510   22.7000   45.6430 C   0  0  0  0  0  0  0  0  0  0  0  0
   56.6900   23.5970   46.1450 C   0  0  0  0  0  0  0  0  0  0  0  0
   56.5770   23.7910   47.6350 C   0  0  0  0  0  0  0  0  0  0  0  0
   56.6850   28.4580   45.1640 C   0  0  0  0  0  0  0  0  0  0  0  0
   55.5260   29.1150   44.7230 O   0  0  0  0  0  0  0  0  0  0  0  0
   55.4210   29.7140   43.4340 C   0  0  0  0  0  0  0  0  0  0  0  0
   59.8570   31.8460   46.3750 C   0  0  0  0  0  0  0  0  0  0  0  0
   61.9599   32.1241   49.6848 H   0  0  0  0  0  0  0  0  0  0  0  0
   61.4388   30.5689   48.9523 H   0  0  0  0  0  0  0  0  0  0  0  0
   63.1765   31.0240   48.9523 H   0  0  0  0  0  0  0  0  0  0  0  0
   61.1409   34.4871   48.1362 H   0  0  0  0  0  0  0  0  0  0  0  0
   59.0350   35.5363   47.3215 H   0  0  0  0  0  0  0  0  0  0  0  0
   57.4304   34.2216   45.9382 H   0  0  0  0  0  0  0  0  0  0  0  0
   60.0828   28.9200   45.2907 H   0  0  0  0  0  0  0  0  0  0  0  0
   59.9649   26.6198   46.2365 H   0  0  0  0  0  0  0  0  0  0  0  0
   57.7592   25.5195   46.5852 H   0  0  0  0  0  0  0  0  0  0  0  0
   55.3514   24.6145   43.1488 H   0  0  0  0  0  0  0  0  0  0  0  0
   57.0700   23.0261   42.2933 H   0  0  0  0  0  0  0  0  0  0  0  0
   58.5446   21.8003   43.8871 H   0  0  0  0  0  0  0  0  0  0  0  0
   58.3008   22.1508   46.3402 H   0  0  0  0  0  0  0  0  0  0  0  0
   57.0657   22.9521   48.1521 H   0  0  0  0  0  0  0  0  0  0  0  0
   57.0675   24.7333   47.9203 H   0  0  0  0  0  0  0  0  0  0  0  0
   55.5153   23.8292   47.9203 H   0  0  0  0  0  0  0  0  0  0  0  0
   55.2320   30.7920   43.5449 H   0  0  0  0  0  0  0  0  0  0  0  0
   56.3596   29.5612   42.8811 H   0  0  0  0  0  0  0  0  0  0  0  0
   54.5903   29.2511   42.8811 H   0  0  0  0  0  0  0  0  0  0  0  0
   60.1003   30.8108   46.0936 H   0  0  0  0  0  0  0  0  0  0  0  0
  1  2  1  0
  2  3  1  0
  3  4  2  0
  4  5  1  0
  5  6  2  0
  6  7  1  0
  7  8  1  0
  8  9  2  0
  8 10  1  0
 10 11  1  0
 11 12  2  0
 12 13  1  0
 13 14  2  0
 14 15  1  0
 15 16  1  0
 16 17  1  0
 17 18  2  0
 17 19  1  0
 19 20  2  0
 20 21  1  0
 21 22  2  0
 22 23  1  0
 23 24  2  0
 24 25  1  0
 15 26  2  0
 26 27  1  0
 27 28  1  0
  7 29  2  0
 29  3  1  0
 26 11  1  0
 24 19  1  0
  1 30  1  0
  1 31  1  0
  1 32  1  0
  4 33  1  0
  5 34  1  0
  6 35  1  0
 12 36  1  0
 13 37  1  0
 14 38  1  0
 20 39  1  0
 21 40  1  0
 22 41  1  0
 23 42  1  0
 25 43  1  0
 25 44  1  0
 25 45  1  0
 28 46  1  0
 28 47  1  0
 28 48  1  0
 29 49  1  0
M  CHG  2  10  -1  16  -1
M  END
>  <UniqueID>  (59) 
55

>  <SMILES>  (59) 
COc1cccc(C(=O)[N-]c2cccc([N-]C(=O)c3ccccc3C)c2OC)c1

>  <Energy>  (59) 
75.04443871059718

>  <Genealogy>  (59) 
COc1cccc(C(=O)[N-]c2cccc([N-]C(=O)c3ccccc3C)c2OC)c1 (protonated)
COc1cccc(C(=O)[N-]c2cccc([N-]C(=O)c3ccccc3C)c2OC)c1 (3D coordinates assigned)
COc1cccc(C(=O)[N-]c2cccc([N-]C(=O)c3ccccc3C)c2OC)c1 (optimized conformer: 75.04443871059718 kcal/mol)

>  <smiles>  (59) 
COc1cccc(C(=O)Nc2cccc(NC(=O)c3ccccc3C)c2OC)c1

>  <score_type>  (59) 
oracle

>  <origin>  (59) 
adg

>  <m_score__min__energy>  (59) 
-12.81

>  <m_primary>  (59) 
energy

$$$$
59:0
     RDKit          3D

 36 37  0  0  0  0  0  0  0  0999 V2000
   60.5440   30.5500   46.4820 C   0  0  0  0  0  0  0  0  0  0  0  0
   59.4610   29.5180   46.3730 C   0  0  0  0  0  0  0  0  0  0  0  0
   59.6210   28.2660   46.9780 C   0  0  0  0  0  0  0  0  0  0  0  0
   58.5990   27.3130   46.8940 C   0  0  0  0  0  0  0  0  0  0  0  0
   58.7840   25.9640   47.5410 C   0  0  0  0  0  0  0  0  0  0  0  0
   57.4150   27.6320   46.1980 C   0  0  0  0  0  0  0  0  0  0  0  0
   56.3450   26.6670   46.0840 C   0  0  0  0  0  0  0  0  0  0  0  0
   55.4880   25.8940   45.9920 N   0  0  0  0  0  0  0  0  0  0  0  0
   57.2890   28.9060   45.6120 C   0  0  0  0  0  0  0  0  0  0  0  0
   55.8080   29.3700   44.6890 S   0  0  0  0  0  0  0  0  0  0  0  0
   56.7160   29.9070   43.1980 C   0  0  0  0  0  0  0  0  0  0  0  0
   57.2300   31.3000   43.3690 C   0  0  0  0  0  0  0  0  0  0  0  0
   57.6430   31.9420   42.3660 O   0  0  0  0  0  0  0  0  0  0  0  0
   57.1960   31.9130   44.6620 N   0  0  0  0  0  0  0  0  0  0  0  0
   57.3170   33.3490   44.8770 C   0  0  0  0  0  0  0  0  0  0  0  0
   58.2480   33.6280   46.0130 C   0  0  0  0  0  0  0  0  0  0  0  0
   59.2890   34.5470   46.0020 C   0  0  0  0  0  0  0  0  0  0  0  0
   59.9750   34.6160   47.2210 C   0  0  0  0  0  0  0  0  0  0  0  0
   59.4730   33.7570   48.1910 C   0  0  0  0  0  0  0  0  0  0  0  0
   58.1760   32.9130   47.5330 S   0  0  0  0  0  0  0  0  0  0  0  0
   58.2960   29.8150   45.7320 N   0  0  0  0  0  0  0  0  0  0  0  0
   60.7542   30.7503   47.5430 H   0  0  0  0  0  0  0  0  0  0  0  0
   61.4556   30.1781   45.9915 H   0  0  0  0  0  0  0  0  0  0  0  0
   60.2164   31.4785   45.9915 H   0  0  0  0  0  0  0  0  0  0  0  0
   60.5494   28.0310   47.5192 H   0  0  0  0  0  0  0  0  0  0  0  0
   58.7685   26.0769   48.6351 H   0  0  0  0  0  0  0  0  0  0  0  0
   57.9694   25.2934   47.2300 H   0  0  0  0  0  0  0  0  0  0  0  0
   59.7491   25.5374   47.2300 H   0  0  0  0  0  0  0  0  0  0  0  0
   57.5637   29.2273   43.0265 H   0  0  0  0  0  0  0  0  0  0  0  0
   56.0306   29.8847   42.3379 H   0  0  0  0  0  0  0  0  0  0  0  0
   57.7079   33.8208   43.9635 H   0  0  0  0  0  0  0  0  0  0  0  0
   56.3253   33.7590   45.1188 H   0  0  0  0  0  0  0  0  0  0  0  0
   59.5484   35.1585   45.1252 H   0  0  0  0  0  0  0  0  0  0  0  0
   60.8298   35.2864   47.3941 H   0  0  0  0  0  0  0  0  0  0  0  0
   59.8586   33.6477   49.2154 H   0  0  0  0  0  0  0  0  0  0  0  0
   58.1750   30.7600   45.3030 H   0  0  0  0  0  0  0  0  0  0  0  0
  1  2  1  0
  2  3  2  0
  3  4  1  0
  4  5  1  0
  4  6  2  0
  6  7  1  0
  7  8  3  0
  6  9  1  0
  9 10  1  0
 10 11  1  0
 11 12  1  0
 12 13  2  0
 12 14  1  0
 14 15  1  0
 15 16  1  0
 16 17  2  0
 17 18  1  0
 18 19  2  0
 19 20  1  0
  9 21  2  0
 21  2  1  0
 20 16  1  0
  1 22  1  0
  1 23  1  0
  1 24  1  0
  3 25  1  0
  5 26  1  0
  5 27  1  0
  5 28  1  0
 11 29  1  0
 11 30  1  0
 15 31  1  0
 15 32  1  0
 17 33  1  0
 18 34  1  0
 19 35  1  0
 21 36  1  0
M  CHG  2  14  -1  21   1
M  END
>  <UniqueID>  (60) 
56

>  <SMILES>  (60) 
Cc1cc(C)c(C#N)c(SCC(=O)[N-]Cc2cccs2)[nH+]1

>  <Energy>  (60) 
52.579245557793016

>  <Genealogy>  (60) 
Cc1cc(C)c(C#N)c(SCC(=O)[N-]Cc2cccs2)[nH+]1 (protonated)
Cc1cc(C)c(C#N)c(SCC(=O)[N-]Cc2cccs2)[nH+]1 (3D coordinates assigned)
Cc1cc(C)c(C#N)c(SCC(=O)[N-]Cc2cccs2)[nH+]1 (optimized conformer: 52.579245557793016 kcal/mol)

>  <smiles>  (60) 
Cc1cc(C)c(C#N)c(SCC(=O)NCc2cccs2)n1

>  <score_type>  (60) 
oracle

>  <origin>  (60) 
adg

>  <m_score__min__energy>  (60) 
-7.3099999999999996

>  <m_primary>  (60) 
energy

$$$$
60:0
     RDKit          3D

 36 38  0  0  0  0  0  0  0  0999 V2000
   57.0246   19.3125   47.0139 H   0  0  0  0  0  0  0  0  0  0  0  0
   57.0060   20.2120   46.3810 C   0  0  0  0  0  0  0  0  0  0  0  0
   57.4010   21.4070   46.8880 N   0  0  0  0  0  0  0  0  0  0  0  0
   57.4100   22.5580   46.1610 C   0  0  0  0  0  0  0  0  0  0  0  0
   57.7640   23.6450   46.7910 N   0  0  0  0  0  0  0  0  0  0  0  0
   57.0270   24.8500   47.0360 C   0  0  0  0  0  0  0  0  0  0  0  0
   56.0780   24.8340   47.8660 O   0  0  0  0  0  0  0  0  0  0  0  0
   57.4340   26.1310   46.3970 C   0  0  0  0  0  0  0  0  0  0  0  0
   56.4680   27.0280   45.9160 C   0  0  0  0  0  0  0  0  0  0  0  0
   55.1130   26.7090   45.9980 O   0  0  0  0  0  0  0  0  0  0  0  0
   56.8610   28.2390   45.3330 C   0  0  0  0  0  0  0  0  0  0  0  0
   55.8970   29.1480   44.8560 C   0  0  0  0  0  0  0  0  0  0  0  0
   54.8278   28.9040   44.9419 H   0  0  0  0  0  0  0  0  0  0  0  0
   56.2860   30.3540   44.2760 C   0  0  0  0  0  0  0  0  0  0  0  0
   55.5247   31.0576   43.9080 H   0  0  0  0  0  0  0  0  0  0  0  0
   57.6370   30.6690   44.1620 C   0  0  0  0  0  0  0  0  0  0  0  0
   57.9406   31.6222   43.7045 H   0  0  0  0  0  0  0  0  0  0  0  0
   58.6080   29.7800   44.6260 C   0  0  0  0  0  0  0  0  0  0  0  0
   59.6722   30.0412   44.5295 H   0  0  0  0  0  0  0  0  0  0  0  0
   58.2430   28.5450   45.2200 C   0  0  0  0  0  0  0  0  0  0  0  0
   59.1880   27.6500   45.6830 N   0  0  0  0  0  0  0  0  0  0  0  0
   60.6280   27.9610   45.5600 C   0  0  0  0  0  0  0  0  0  0  0  0
   61.0695   28.0564   46.5630 H   0  0  0  0  0  0  0  0  0  0  0  0
   61.1326   27.1511   45.0127 H   0  0  0  0  0  0  0  0  0  0  0  0
   60.7534   28.9069   45.0127 H   0  0  0  0  0  0  0  0  0  0  0  0
   58.7980   26.4670   46.2710 C   0  0  0  0  0  0  0  0  0  0  0  0
   59.6670   25.6710   46.7260 O   0  0  0  0  0  0  0  0  0  0  0  0
   57.0530   22.4940   44.7760 C   0  0  0  0  0  0  0  0  0  0  0  0
   57.2120   23.6320   43.7970 C   0  0  0  0  0  0  0  0  0  0  0  0
   57.3437   24.5745   44.3486 H   0  0  0  0  0  0  0  0  0  0  0  0
   58.0936   23.4511   43.1645 H   0  0  0  0  0  0  0  0  0  0  0  0
   56.3146   23.6996   43.1645 H   0  0  0  0  0  0  0  0  0  0  0  0
   56.6040   21.2640   44.2630 C   0  0  0  0  0  0  0  0  0  0  0  0
   56.2692   21.2015   43.2171 H   0  0  0  0  0  0  0  0  0  0  0  0
   56.5780   20.1250   45.0620 C   0  0  0  0  0  0  0  0  0  0  0  0
   56.2228   19.1671   44.6542 H   0  0  0  0  0  0  0  0  0  0  0  0
  1  2  1  0
  2  3  1  0
  3  4  1  0
  4  5  2  0
  5  6  1  0
  6  7  2  0
  6  8  1  0
  8  9  2  0
  9 10  1  0
  9 11  1  0
 11 12  2  0
 12 13  1  0
 12 14  1  0
 14 15  1  0
 14 16  2  0
 16 17  1  0
 16 18  1  0
 18 19  1  0
 18 20  2  0
 20 21  1  0
 21 22  1  0
 22 23  1  0
 22 24  1  0
 22 25  1  0
 21 26  1  0
 26 27  2  0
  4 28  1  0
 28 29  1  0
 29 30  1  0
 29 31  1  0
 29 32  1  0
 28 33  2  0
 33 34  1  0
 33 35  1  0
 35 36  1  0
 35  2  2  0
 26  8  1  0
 20 11  1  0
M  CHG  2   3  -1  10  -1
M  END
>  <UniqueID>  (61) 
57

>  <SMILES>  (61) 
Cc1ccc[n-]/c1=N/C(=O)c1c([O-])c2ccccc2n(C)c1=O

>  <Energy>  (61) 
72.35178398974216

>  <Genealogy>  (61) 
Cc1ccc[n-]c1=NC(=O)c1c([O-])c2ccccc2n(C)c1=O (protonated)
Cc1ccc[n-]/c1=N/C(=O)c1c([O-])c2ccccc2n(C)c1=O (cis-trans isomerization)
Cc1ccc[n-]/c1=N/C(=O)c1c([O-])c2ccccc2n(C)c1=O (3D coordinates assigned)
Cc1ccc[n-]/c1=N/C(=O)c1c([O-])c2ccccc2n(C)c1=O (optimized conformer: 72.35178398974216 kcal/mol)

>  <smiles>  (61) 
Cc1ccc[nH]c1=NC(=O)c1c(O)c2ccccc2n(C)c1=O

>  <score_type>  (61) 
oracle

>  <origin>  (61) 
adg

>  <m_score__min__energy>  (61) 
-12.33

>  <m_primary>  (61) 
energy

$$$$
61:0
     RDKit          3D

 31 33  0  0  0  0  0  0  0  0999 V2000
   57.5570   25.8200   46.6530 O   0  0  0  0  0  0  0  0  0  0  0  0
   57.5270   26.8940   45.9890 C   0  0  0  0  0  0  0  0  0  0  0  0
   58.7200   27.5340   45.6320 C   0  0  0  0  0  0  0  0  0  0  0  0
   59.9810   27.0220   45.9860 C   0  0  0  0  0  0  0  0  0  0  0  0
   61.1390   27.6980   45.6020 C   0  0  0  0  0  0  0  0  0  0  0  0
   61.0290   28.8800   44.8710 C   0  0  0  0  0  0  0  0  0  0  0  0
   59.8040   29.3630   44.5380 N   0  0  0  0  0  0  0  0  0  0  0  0
   58.6480   28.7300   44.8930 C   0  0  0  0  0  0  0  0  0  0  0  0
   57.4280   29.2500   44.5360 N   0  0  0  0  0  0  0  0  0  0  0  0
   57.3600   30.4880   43.7300 C   0  0  0  0  0  0  0  0  0  0  0  0
   57.7260   31.6870   44.5690 C   0  0  0  0  0  0  0  0  0  0  0  0
   58.0560   32.9060   43.9540 C   0  0  0  0  0  0  0  0  0  0  0  0
   58.4200   34.0110   44.7290 C   0  0  0  0  0  0  0  0  0  0  0  0
   58.4570   33.9080   46.1220 C   0  0  0  0  0  0  0  0  0  0  0  0
   58.1310   32.6990   46.7420 C   0  0  0  0  0  0  0  0  0  0  0  0
   57.7670   31.5910   45.9710 C   0  0  0  0  0  0  0  0  0  0  0  0
   56.2770   28.5920   44.8980 C   0  0  0  0  0  0  0  0  0  0  0  0
   55.1490   29.0560   44.5710 O   0  0  0  0  0  0  0  0  0  0  0  0
   56.3300   27.4330   45.6170 N   0  0  0  0  0  0  0  0  0  0  0  0
   55.1430   26.8140   45.9580 O   0  0  0  0  0  0  0  0  0  0  0  0
   60.0540   26.0896   46.5650 H   0  0  0  0  0  0  0  0  0  0  0  0
   62.1290   27.3025   45.8732 H   0  0  0  0  0  0  0  0  0  0  0  0
   61.9354   29.4221   44.5635 H   0  0  0  0  0  0  0  0  0  0  0  0
   58.0613   30.4093   42.8862 H   0  0  0  0  0  0  0  0  0  0  0  0
   56.3321   30.6144   43.3592 H   0  0  0  0  0  0  0  0  0  0  0  0
   58.0279   32.9915   42.8577 H   0  0  0  0  0  0  0  0  0  0  0  0
   58.6776   34.9629   44.2416 H   0  0  0  0  0  0  0  0  0  0  0  0
   58.7428   34.7787   46.7305 H   0  0  0  0  0  0  0  0  0  0  0  0
   58.1608   32.6188   47.8387 H   0  0  0  0  0  0  0  0  0  0  0  0
   57.5118   30.6409   46.4630 H   0  0  0  0  0  0  0  0  0  0  0  0
   55.0660   26.1960   46.7590 H   0  0  0  0  0  0  0  0  0  0  0  0
  1  2  2  0
  2  3  1  0
  3  4  2  0
  4  5  1  0
  5  6  2  0
  6  7  1  0
  7  8  2  0
  8  9  1  0
  9 10  1  0
 10 11  1  0
 11 12  2  0
 12 13  1  0
 13 14  2  0
 14 15  1  0
 15 16  2  0
  9 17  1  0
 17 18  2  0
 17 19  1  0
 19 20  1  0
 19  2  1  0
  8  3  1  0
 16 11  1  0
  4 21  1  0
  5 22  1  0
  6 23  1  0
 10 24  1  0
 10 25  1  0
 12 26  1  0
 13 27  1  0
 14 28  1  0
 15 29  1  0
 16 30  1  0
 20 31  1  0
M  END
>  <UniqueID>  (62) 
58

>  <SMILES>  (62) 
O=c1c2cccnc2n(Cc2ccccc2)c(=O)n1O

>  <Energy>  (62) 
43.30462549496009

>  <Genealogy>  (62) 
O=c1c2cccnc2n(Cc2ccccc2)c(=O)n1O (3D coordinates assigned)
O=c1c2cccnc2n(Cc2ccccc2)c(=O)n1O (optimized conformer: 43.30462549496009 kcal/mol)

>  <smiles>  (62) 
O=c1c2cccnc2n(Cc2ccccc2)c(=O)n1O

>  <score_type>  (62) 
oracle

>  <origin>  (62) 
adg

>  <m_score__min__energy>  (62) 
-7.8700000000000001

>  <m_primary>  (62) 
energy

$$$$
62:0
     RDKit          3D

 49 53  0  0  0  0  0  0  0  0999 V2000
   62.0640   33.4320   52.1300 C   0  0  0  0  0  0  0  0  0  0  0  0
   61.6510   32.4090   51.2290 O   0  0  0  0  0  0  0  0  0  0  0  0
   62.1440   32.2310   49.9290 C   0  0  0  0  0  0  0  0  0  0  0  0
   63.5060   32.4710   49.6460 C   0  0  0  0  0  0  0  0  0  0  0  0
   64.0080   32.3190   48.3560 C   0  0  0  0  0  0  0  0  0  0  0  0
   63.1630   31.9340   47.3220 C   0  0  0  0  0  0  0  0  0  0  0  0
   61.8170   31.6860   47.5760 C   0  0  0  0  0  0  0  0  0  0  0  0
   61.2790   31.7990   48.8780 C   0  0  0  0  0  0  0  0  0  0  0  0
   59.8420   31.5600   49.0300 N   0  0  2  0  0  0  0  0  0  0  0  0
   59.6820   30.1600   49.2780 C   0  0  0  0  0  0  0  0  0  0  0  0
   60.0190   29.6000   50.3570 O   0  0  0  0  0  0  0  0  0  0  0  0
   59.1470   29.4720   48.1430 C   0  0  0  0  0  0  0  0  0  0  0  0
   59.1120   27.8240   47.8540 S   0  0  0  0  0  0  0  0  0  0  0  0
   58.6340   27.5320   46.2640 C   0  0  0  0  0  0  0  0  0  0  0  0
   58.5030   26.2160   45.8050 C   0  0  0  0  0  0  0  0  0  0  0  0
   58.1440   25.9710   44.4800 C   0  0  0  0  0  0  0  0  0  0  0  0
   57.9220   27.0380   43.6110 C   0  0  0  0  0  0  0  0  0  0  0  0
   58.0540   28.3550   44.0590 C   0  0  0  0  0  0  0  0  0  0  0  0
   58.4090   28.6370   45.4000 C   0  0  0  0  0  0  0  0  0  0  0  0
   58.5450   30.0030   45.8250 C   0  0  0  0  0  0  0  0  0  0  0  0
   58.4540   30.8950   44.9450 O   0  0  0  0  0  0  0  0  0  0  0  0
   58.8270   30.3880   47.1740 C   0  0  0  0  0  0  0  0  0  0  0  0
   58.9200   31.7720   47.8640 C   0  0  2  0  0  0  0  0  0  0  0  0
   59.0480   33.0720   47.0220 C   0  0  0  0  0  0  0  0  0  0  0  0
   58.1450   33.2200   45.9470 C   0  0  0  0  0  0  0  0  0  0  0  0
   58.2830   34.2490   45.0150 C   0  0  0  0  0  0  0  0  0  0  0  0
   59.2660   35.2140   45.1910 C   0  0  0  0  0  0  0  0  0  0  0  0
   60.0220   35.2200   46.3590 C   0  0  0  0  0  0  0  0  0  0  0  0
   59.8490   34.2160   47.3320 C   0  0  0  0  0  0  0  0  0  0  0  0
   60.2600   34.5280   48.6670 N   0  0  0  0  0  0  0  0  0  0  0  0
   59.5320   34.2070   49.6300 O   0  0  0  0  0  0  0  0  0  0  0  0
   61.5850   34.8090   48.9070 O   0  0  0  0  0  0  0  0  0  0  0  0
   61.9247   33.0870   53.1652 H   0  0  0  0  0  0  0  0  0  0  0  0
   63.1259   33.6633   51.9603 H   0  0  0  0  0  0  0  0  0  0  0  0
   61.4603   34.3357   51.9603 H   0  0  0  0  0  0  0  0  0  0  0  0
   64.1810   32.7828   50.4567 H   0  0  0  0  0  0  0  0  0  0  0  0
   65.0737   32.5037   48.1554 H   0  0  0  0  0  0  0  0  0  0  0  0
   63.5584   31.8251   46.3013 H   0  0  0  0  0  0  0  0  0  0  0  0
   61.1575   31.3956   46.7449 H   0  0  0  0  0  0  0  0  0  0  0  0
   59.4630   32.0730   49.8600 H   0  0  0  0  0  0  0  0  0  0  0  0
   58.6834   25.3745   46.4901 H   0  0  0  0  0  0  0  0  0  0  0  0
   58.0361   24.9369   44.1210 H   0  0  0  0  0  0  0  0  0  0  0  0
   57.6411   26.8420   42.5657 H   0  0  0  0  0  0  0  0  0  0  0  0
   57.8794   29.1853   43.3589 H   0  0  0  0  0  0  0  0  0  0  0  0
   57.9185   32.0837   48.1954 H   0  0  0  0  0  0  0  0  0  0  0  0
   57.3135   32.5076   45.8418 H   0  0  0  0  0  0  0  0  0  0  0  0
   57.6146   34.2958   44.1426 H   0  0  0  0  0  0  0  0  0  0  0  0
   59.4459   35.9691   44.4116 H   0  0  0  0  0  0  0  0  0  0  0  0
   60.7622   36.0167   46.5244 H   0  0  0  0  0  0  0  0  0  0  0  0
  1  2  1  0
  2  3  1  0
  3  4  2  0
  4  5  1  0
  5  6  2  0
  6  7  1  0
  7  8  2  0
  8  9  1  0
  9 10  1  0
 10 11  2  0
 10 12  1  0
 12 13  1  0
 13 14  1  0
 14 15  2  0
 15 16  1  0
 16 17  2  0
 17 18  1  0
 18 19  2  0
 19 20  1  0
 20 21  2  0
 20 22  1  0
 22 23  1  0
 23 24  1  0
 24 25  2  0
 25 26  1  0
 26 27  2  0
 27 28  1  0
 28 29  2  0
 29 30  1  0
 30 31  2  0
 30 32  1  0
  8  3  1  0
 23  9  1  0
 29 24  1  0
 22 12  2  0
 19 14  1  0
  1 33  1  0
  1 34  1  0
  1 35  1  0
  4 36  1  0
  5 37  1  0
  6 38  1  0
  7 39  1  0
  9 40  1  1
 15 41  1  0
 16 42  1  0
 17 43  1  0
 18 44  1  0
 23 45  1  1
 25 46  1  0
 26 47  1  0
 27 48  1  0
 28 49  1  0
M  CHG  3   9   1  30   1  32  -1
M  END
>  <UniqueID>  (63) 
59

>  <SMILES>  (63) 
COc1ccccc1[N@@H+]1C(=O)c2sc3ccccc3c(=O)c2[C@@H]1c1ccccc1[N+](=O)[O-]

>  <Energy>  (63) 
132.7740217780805

>  <Genealogy>  (63) 
COc1ccccc1[NH+]1C(=O)c2sc3ccccc3c(=O)c2C1c1ccccc1[N+](=O)[O-] (protonated)
COc1ccccc1[N@@H+]1C(=O)c2sc3ccccc3c(=O)c2[C@@H]1c1ccccc1[N+](=O)[O-] (chirality)
COc1ccccc1[N@@H+]1C(=O)c2sc3ccccc3c(=O)c2[C@@H]1c1ccccc1[N+](=O)[O-] (3D coordinates assigned)
COc1ccccc1[N@@H+]1C(=O)c2sc3ccccc3c(=O)c2[C@@H]1c1ccccc1[N+](=O)[O-] (nonaromatic ring conformer: 132.7740217780805 kcal/mol)

>  <smiles>  (63) 
COc1ccccc1N1C(=O)c2sc3ccccc3c(=O)c2C1c1ccccc1[N+](=O)[O-]

>  <score_type>  (63) 
oracle

>  <origin>  (63) 
adg

>  <m_score__min__energy>  (63) 
-7.1900000000000004

>  <m_primary>  (63) 
energy

$$$$
63:0
     RDKit          3D

 38 41  0  0  0  0  0  0  0  0999 V2000
   65.2460   33.0940   50.6770 C   0  0  0  0  0  0  0  0  0  0  0  0
   63.9910   33.3750   49.9140 C   0  0  0  0  0  0  0  0  0  0  0  0
   64.0240   33.4800   48.5100 C   0  0  0  0  0  0  0  0  0  0  0  0
   62.8280   33.7160   47.8080 C   0  0  0  0  0  0  0  0  0  0  0  0
   62.8460   33.7840   46.3060 C   0  0  0  0  0  0  0  0  0  0  0  0
   61.6830   33.8660   48.5410 N   0  0  0  0  0  0  0  0  0  0  0  0
   60.3930   34.0960   48.2120 C   0  0  0  0  0  0  0  0  0  0  0  0
   59.8590   34.4080   46.8770 C   0  0  0  0  0  0  0  0  0  0  0  0
   60.0090   35.5690   46.4110 O   0  0  0  0  0  0  0  0  0  0  0  0
   59.1450   33.4210   46.1180 N   0  0  0  0  0  0  0  0  0  0  0  0
   58.5670   33.6870   44.7990 C   0  0  0  0  0  0  0  0  0  0  0  0
   58.0640   32.3570   44.3800 C   0  0  0  0  0  0  0  0  0  0  0  0
   57.4110   32.0220   43.1920 C   0  0  0  0  0  0  0  0  0  0  0  0
   57.0200   30.6870   42.9960 C   0  0  0  0  0  0  0  0  0  0  0  0
   57.2870   29.7170   43.9820 C   0  0  0  0  0  0  0  0  0  0  0  0
   57.9450   30.0770   45.1690 C   0  0  0  0  0  0  0  0  0  0  0  0
   58.3250   31.4080   45.3420 C   0  0  0  0  0  0  0  0  0  0  0  0
   59.0220   32.0120   46.5030 C   0  0  0  0  0  0  0  0  0  0  0  0
   59.6460   34.0850   49.3780 C   0  0  0  0  0  0  0  0  0  0  0  0
   60.4520   33.8560   50.4390 N   0  0  0  0  0  0  0  0  0  0  0  0
   61.6710   33.7320   49.8810 C   0  0  0  0  0  0  0  0  0  0  0  0
   62.8070   33.4900   50.5780 N   0  0  0  0  0  0  0  0  0  0  0  0
   65.0373   33.1407   51.7560 H   0  0  0  0  0  0  0  0  0  0  0  0
   65.6157   32.0908   50.4181 H   0  0  0  0  0  0  0  0  0  0  0  0
   66.0082   33.8437   50.4181 H   0  0  0  0  0  0  0  0  0  0  0  0
   64.9756   33.3785   47.9676 H   0  0  0  0  0  0  0  0  0  0  0  0
   63.1155   34.8020   45.9883 H   0  0  0  0  0  0  0  0  0  0  0  0
   63.5861   33.0700   45.9155 H   0  0  0  0  0  0  0  0  0  0  0  0
   61.8496   33.5297   45.9155 H   0  0  0  0  0  0  0  0  0  0  0  0
   57.7464   34.4164   44.8669 H   0  0  0  0  0  0  0  0  0  0  0  0
   59.2874   34.1207   44.0899 H   0  0  0  0  0  0  0  0  0  0  0  0
   57.2074   32.7859   42.4272 H   0  0  0  0  0  0  0  0  0  0  0  0
   56.5033   30.3980   42.0689 H   0  0  0  0  0  0  0  0  0  0  0  0
   56.9788   28.6734   43.8214 H   0  0  0  0  0  0  0  0  0  0  0  0
   58.1561   29.3264   45.9449 H   0  0  0  0  0  0  0  0  0  0  0  0
   58.4266   31.9038   47.4216 H   0  0  0  0  0  0  0  0  0  0  0  0
   59.9895   31.5369   46.7227 H   0  0  0  0  0  0  0  0  0  0  0  0
   58.5583   34.2396   49.4328 H   0  0  0  0  0  0  0  0  0  0  0  0
  1  2  1  0
  2  3  1  0
  3  4  2  0
  4  5  1  0
  4  6  1  0
  6  7  1  0
  7  8  1  0
  8  9  2  0
  8 10  1  0
 10 11  1  0
 11 12  1  0
 12 13  2  0
 13 14  1  0
 14 15  2  0
 15 16  1  0
 16 17  2  0
 17 18  1  0
  7 19  2  0
 19 20  1  0
 20 21  2  0
 21 22  1  0
 22  2  2  0
 21  6  1  0
 18 10  1  0
 17 12  1  0
  1 23  1  0
  1 24  1  0
  1 25  1  0
  3 26  1  0
  5 27  1  0
  5 28  1  0
  5 29  1  0
 11 30  1  0
 11 31  1  0
 13 32  1  0
 14 33  1  0
 15 34  1  0
 16 35  1  0
 18 36  1  0
 18 37  1  0
 19 38  1  0
M  END
>  <UniqueID>  (64) 
60

>  <SMILES>  (64) 
Cc1cc(C)n2c(C(=O)N3Cc4ccccc4C3)cnc2n1

>  <Energy>  (64) 
93.7527606856371

>  <Genealogy>  (64) 
Cc1cc(C)n2c(C(=O)N3Cc4ccccc4C3)cnc2n1 (3D coordinates assigned)
Cc1cc(C)n2c(C(=O)N3Cc4ccccc4C3)cnc2n1 (nonaromatic ring conformer: 93.7527606856371 kcal/mol)

>  <smiles>  (64) 
Cc1cc(C)n2c(C(=O)N3Cc4ccccc4C3)cnc2n1

>  <score_type>  (64) 
oracle

>  <origin>  (64) 
adg

>  <m_score__min__energy>  (64) 
-7.6600000000000001

>  <m_primary>  (64) 
energy

$$$$
64:0
     RDKit          3D

 56 59  0  0  0  0  0  0  0  0999 V2000
   62.3450   30.0780   50.9640 C   0  0  0  0  0  0  0  0  0  0  0  0
   61.4890   29.7440   49.7500 C   0  0  0  0  0  0  0  0  0  0  0  0
   60.9970   30.9710   49.1150 N   0  0  0  0  0  0  0  0  0  0  0  0
   59.7180   31.4240   49.0730 C   0  0  0  0  0  0  0  0  0  0  0  0
   58.7530   30.8370   49.6360 O   0  0  0  0  0  0  0  0  0  0  0  0
   59.5800   32.5630   48.3450 N   0  0  0  0  0  0  0  0  0  0  0  0
   58.3400   33.2690   48.0160 C   0  0  0  0  0  0  0  0  0  0  0  0
   58.1030   33.2150   46.5380 C   0  0  0  0  0  0  0  0  0  0  0  0
   58.2240   34.2660   45.8520 O   0  0  0  0  0  0  0  0  0  0  0  0
   57.8410   31.9540   45.9050 N   0  0  0  0  0  0  0  0  0  0  0  0
   57.6880   31.8030   44.4830 C   0  0  0  0  0  0  0  0  0  0  0  0
   58.2710   32.7350   43.6060 C   0  0  0  0  0  0  0  0  0  0  0  0
   58.0730   32.6250   42.2270 C   0  0  0  0  0  0  0  0  0  0  0  0
   57.2890   31.5920   41.7110 C   0  0  0  0  0  0  0  0  0  0  0  0
   56.6970   30.6660   42.5710 C   0  0  0  0  0  0  0  0  0  0  0  0
   56.8840   30.7660   43.9590 C   0  0  0  0  0  0  0  0  0  0  0  0
   56.2810   29.7530   44.8480 C   0  0  0  0  0  0  0  0  0  0  0  0
   55.1170   29.3400   44.6080 O   0  0  0  0  0  0  0  0  0  0  0  0
   57.0020   29.1910   45.9490 N   0  0  0  0  0  0  0  0  0  0  0  0
   57.4770   27.8100   45.9990 C   0  0  0  0  0  0  0  0  0  0  0  0
   59.0090   27.7680   46.0530 C   0  0  2  0  0  0  0  0  0  0  0  0
   59.5850   28.8040   47.0230 C   0  0  0  0  0  0  0  0  0  0  0  0
   60.3140   29.7610   46.1270 C   0  0  0  0  0  0  0  0  0  0  0  0
   60.5620   28.9410   44.8800 C   0  0  0  0  0  0  0  0  0  0  0  0
   59.5380   27.9870   44.7600 O   0  0  0  0  0  0  0  0  0  0  0  0
   60.8260   32.8110   47.8830 C   0  0  0  0  0  0  0  0  0  0  0  0
   61.2590   33.8310   47.0290 C   0  0  0  0  0  0  0  0  0  0  0  0
   62.6200   33.8450   46.6600 C   0  0  0  0  0  0  0  0  0  0  0  0
   63.5040   32.8500   47.1390 C   0  0  0  0  0  0  0  0  0  0  0  0
   63.0380   31.8310   47.9940 C   0  0  0  0  0  0  0  0  0  0  0  0
   61.6840   31.8470   48.3490 C   0  0  0  0  0  0  0  0  0  0  0  0
   61.7808   29.8578   51.8823 H   0  0  0  0  0  0  0  0  0  0  0  0
   63.2628   29.4720   50.9434 H   0  0  0  0  0  0  0  0  0  0  0  0
   62.6099   31.1454   50.9434 H   0  0  0  0  0  0  0  0  0  0  0  0
   62.0934   29.1787   49.0254 H   0  0  0  0  0  0  0  0  0  0  0  0
   60.6278   29.1426   50.0766 H   0  0  0  0  0  0  0  0  0  0  0  0
   57.4981   32.7915   48.5387 H   0  0  0  0  0  0  0  0  0  0  0  0
   58.4247   34.3191   48.3324 H   0  0  0  0  0  0  0  0  0  0  0  0
   57.9060   31.0900   46.4890 H   0  0  0  0  0  0  0  0  0  0  0  0
   58.8856   33.5543   44.0073 H   0  0  0  0  0  0  0  0  0  0  0  0
   58.5363   33.3545   41.5464 H   0  0  0  0  0  0  0  0  0  0  0  0
   57.1375   31.5076   40.6248 H   0  0  0  0  0  0  0  0  0  0  0  0
   56.0805   29.8533   42.1592 H   0  0  0  0  0  0  0  0  0  0  0  0
   57.0700   27.3199   46.8958 H   0  0  0  0  0  0  0  0  0  0  0  0
   57.1395   27.2858   45.0928 H   0  0  0  0  0  0  0  0  0  0  0  0
   59.2977   26.7720   46.4199 H   0  0  0  0  0  0  0  0  0  0  0  0
   58.7817   29.3158   47.5732 H   0  0  0  0  0  0  0  0  0  0  0  0
   60.2355   28.3564   47.7889 H   0  0  0  0  0  0  0  0  0  0  0  0
   59.6951   30.6425   45.9035 H   0  0  0  0  0  0  0  0  0  0  0  0
   61.2373   30.1561   46.5758 H   0  0  0  0  0  0  0  0  0  0  0  0
   60.5613   29.5983   43.9980 H   0  0  0  0  0  0  0  0  0  0  0  0
   61.5379   28.4381   44.9488 H   0  0  0  0  0  0  0  0  0  0  0  0
   60.5614   34.5962   46.6579 H   0  0  0  0  0  0  0  0  0  0  0  0
   62.9970   34.6357   45.9946 H   0  0  0  0  0  0  0  0  0  0  0  0
   64.5629   32.8717   46.8420 H   0  0  0  0  0  0  0  0  0  0  0  0
   63.7152   31.0498   48.3695 H   0  0  0  0  0  0  0  0  0  0  0  0
  1  2  1  0
  2  3  1  0
  3  4  1  0
  4  5  2  0
  4  6  1  0
  6  7  1  0
  7  8  1  0
  8  9  2  0
  8 10  1  0
 10 11  1  0
 11 12  2  0
 12 13  1  0
 13 14  2  0
 14 15  1  0
 15 16  2  0
 16 17  1  0
 17 18  2  0
 17 19  1  0
 19 20  1  0
 20 21  1  0
 21 22  1  0
 22 23  1  0
 23 24  1  0
 24 25  1  0
  6 26  1  0
 26 27  2  0
 27 28  1  0
 28 29  2  0
 29 30  1  0
 30 31  2  0
 31  3  1  0
 16 11  1  0
 25 21  1  0
 31 26  1  0
  1 32  1  0
  1 33  1  0
  1 34  1  0
  2 35  1  0
  2 36  1  0
  7 37  1  0
  7 38  1  0
 10 39  1  0
 12 40  1  0
 13 41  1  0
 14 42  1  0
 15 43  1  0
 20 44  1  0
 20 45  1  0
 21 46  1  1
 22 47  1  0
 22 48  1  0
 23 49  1  0
 23 50  1  0
 24 51  1  0
 24 52  1  0
 27 53  1  0
 28 54  1  0
 29 55  1  0
 30 56  1  0
M  CHG  1  19  -1
M  END
>  <UniqueID>  (65) 
61

>  <SMILES>  (65) 
CCn1c(=O)n(CC(=O)Nc2ccccc2C(=O)[N-]C[C@@H]2CCCO2)c2ccccc21

>  <Energy>  (65) 
100.38263925515545

>  <Genealogy>  (65) 
CCn1c(=O)n(CC(=O)Nc2ccccc2C(=O)[N-]CC2CCCO2)c2ccccc21 (protonated)
CCn1c(=O)n(CC(=O)Nc2ccccc2C(=O)[N-]C[C@@H]2CCCO2)c2ccccc21 (chirality)
CCn1c(=O)n(CC(=O)Nc2ccccc2C(=O)[N-]C[C@@H]2CCCO2)c2ccccc21 (3D coordinates assigned)
CCn1c(=O)n(CC(=O)Nc2ccccc2C(=O)[N-]C[C@@H]2CCCO2)c2ccccc21 (nonaromatic ring conformer: 100.38263925515545 kcal/mol)

>  <smiles>  (65) 
CCn1c(=O)n(CC(=O)Nc2ccccc2C(=O)NCC2CCCO2)c2ccccc21

>  <score_type>  (65) 
oracle

>  <origin>  (65) 
adg

>  <m_score__min__energy>  (65) 
-11.06

>  <m_primary>  (65) 
energy

$$$$
65:0
     RDKit          3D

 44 45  0  0  0  0  0  0  0  0999 V2000
   57.6762   23.5303   43.1595 H   0  0  0  0  0  0  0  0  0  0  0  0
   56.6540   23.8270   43.4370 C   0  0  0  0  0  0  0  0  0  0  0  0
   55.9734   24.2340   42.6747 H   0  0  0  0  0  0  0  0  0  0  0  0
   56.2390   23.6930   44.7000 C   0  0  0  0  0  0  0  0  0  0  0  0
   56.9325   23.2842   45.4497 H   0  0  0  0  0  0  0  0  0  0  0  0
   54.8510   24.0850   45.1260 C   0  0  0  0  0  0  0  0  0  0  0  0
   54.2648   24.3654   44.2384 H   0  0  0  0  0  0  0  0  0  0  0  0
   54.3794   23.2319   45.6358 H   0  0  0  0  0  0  0  0  0  0  0  0
   54.9030   25.2200   46.0480 N   0  0  0  0  0  0  0  0  0  0  0  0
   55.9280   26.0080   46.1920 C   0  0  0  0  0  0  0  0  0  0  0  0
   55.9540   27.2360   45.6100 N   0  0  0  0  0  0  0  0  0  0  0  0
   57.0270   28.0550   45.7660 C   0  0  0  0  0  0  0  0  0  0  0  0
   57.0440   29.3560   45.1450 N   0  0  0  0  0  0  0  0  0  0  0  0
   56.0260   29.7250   44.1460 C   0  0  0  0  0  0  0  0  0  0  0  0
   55.5831   28.8094   43.7271 H   0  0  0  0  0  0  0  0  0  0  0  0
   55.2528   30.3333   44.6381 H   0  0  0  0  0  0  0  0  0  0  0  0
   56.6500   30.5460   43.0120 C   0  0  0  0  0  0  0  0  0  0  0  0
   57.2846   29.8871   42.4012 H   0  0  0  0  0  0  0  0  0  0  0  0
   55.8363   30.9755   42.4091 H   0  0  0  0  0  0  0  0  0  0  0  0
   57.4870   31.6730   43.5440 C   0  0  0  0  0  0  0  0  0  0  0  0
   57.8910   32.5940   42.7210 N   0  0  0  0  0  0  0  0  0  0  0  0
   58.2080   32.3220   41.4080 O   0  0  0  0  0  0  0  0  0  0  0  0
   57.3320   32.7120   40.3650 C   0  0  0  0  0  0  0  0  0  0  0  0
   56.4078   33.1235   40.7970 H   0  0  0  0  0  0  0  0  0  0  0  0
   57.8193   33.4782   39.7441 H   0  0  0  0  0  0  0  0  0  0  0  0
   57.0887   31.8372   39.7441 H   0  0  0  0  0  0  0  0  0  0  0  0
   57.7790   31.7470   45.0210 C   0  0  0  0  0  0  0  0  0  0  0  0
   58.6670   32.3756   45.1830 H   0  0  0  0  0  0  0  0  0  0  0  0
   56.9076   32.1804   45.5337 H   0  0  0  0  0  0  0  0  0  0  0  0
   58.0420   30.3460   45.5900 C   0  0  0  0  0  0  0  0  0  0  0  0
   59.0380   30.0139   45.2619 H   0  0  0  0  0  0  0  0  0  0  0  0
   57.9773   30.4143   46.6860 H   0  0  0  0  0  0  0  0  0  0  0  0
   58.0810   27.6280   46.5110 N   0  0  0  0  0  0  0  0  0  0  0  0
   58.0660   26.4010   47.0950 C   0  0  0  0  0  0  0  0  0  0  0  0
   59.0710   25.9870   47.8080 N   0  0  0  0  0  0  0  0  0  0  0  0
   60.3330   26.7110   47.9670 C   0  0  0  0  0  0  0  0  0  0  0  0
   61.0523   26.0685   48.4960 H   0  0  0  0  0  0  0  0  0  0  0  0
   60.7139   26.9752   46.9695 H   0  0  0  0  0  0  0  0  0  0  0  0
   60.1320   27.9760   48.7540 C   0  0  0  0  0  0  0  0  0  0  0  0
   59.8236   27.9097   49.8078 H   0  0  0  0  0  0  0  0  0  0  0  0
   60.3190   29.1780   48.2040 C   0  0  0  0  0  0  0  0  0  0  0  0
   60.1647   30.0872   48.8036 H   0  0  0  0  0  0  0  0  0  0  0  0
   60.6274   29.2592   47.1512 H   0  0  0  0  0  0  0  0  0  0  0  0
   56.9870   25.5950   46.9330 N   0  0  0  0  0  0  0  0  0  0  0  0
  1  2  1  0
  2  3  1  0
  2  4  2  0
  4  5  1  0
  4  6  1  0
  6  7  1  0
  6  8  1  0
  6  9  1  0
  9 10  2  3
 10 11  1  0
 11 12  1  0
 12 13  1  0
 13 14  1  0
 14 15  1  0
 14 16  1  0
 14 17  1  0
 17 18  1  0
 17 19  1  0
 17 20  1  0
 20 21  2  3
 21 22  1  0
 22 23  1  0
 23 24  1  0
 23 25  1  0
 23 26  1  0
 20 27  1  0
 27 28  1  0
 27 29  1  0
 27 30  1  0
 30 31  1  0
 30 32  1  0
 12 33  2  0
 33 34  1  0
 34 35  2  0
 35 36  1  0
 36 37  1  0
 36 38  1  0
 36 39  1  0
 39 40  1  0
 39 41  2  0
 41 42  1  0
 41 43  1  0
 34 44  1  0
 44 10  1  0
 30 13  1  0
M  CHG  2  11  -1  44  -1
M  END
>  <UniqueID>  (66) 
62

>  <SMILES>  (66) 
C=CCN=c1[n-]c(N2CCC(=NOC)CC2)n/c(=N\CC=C)[n-]1

>  <Energy>  (66) 
32.09191152348876

>  <Genealogy>  (66) 
C=CCN=c1nc(N2CCC(=NOC)CC2)[n-]c(=NCC=C)[n-]1 (protonated)
C=CCN=c1[n-]c(N2CCC(=NOC)CC2)n/c(=N\CC=C)[n-]1 (cis-trans isomerization)
C=CCN=c1[n-]c(N2CCC(=NOC)CC2)n/c(=N\CC=C)[n-]1 (3D coordinates assigned)
C=CCN=c1[n-]c(N2CCC(=NOC)CC2)n/c(=N\CC=C)[n-]1 (nonaromatic ring conformer: 32.09191152348876 kcal/mol)

>  <smiles>  (66) 
C=CCN=c1nc(N2CCC(=NOC)CC2)[nH]c(=NCC=C)[nH]1

>  <score_type>  (66) 
oracle

>  <origin>  (66) 
adg

>  <m_score__min__energy>  (66) 
-9.5099999999999998

>  <m_primary>  (66) 
energy

$$$$
66:0
     RDKit          3D

 33 35  0  0  0  0  0  0  0  0999 V2000
   56.7079   35.2060   46.1206 H   0  0  0  0  0  0  0  0  0  0  0  0
   57.2510   34.2670   45.9380 C   0  0  0  0  0  0  0  0  0  0  0  0
   56.6500   33.2570   45.2580 N   0  0  0  0  0  0  0  0  0  0  0  0
   57.2970   32.0870   45.0210 C   0  0  0  0  0  0  0  0  0  0  0  0
   56.6820   31.1440   44.3700 N   0  0  0  0  0  0  0  0  0  0  0  0
   56.4420   29.7970   44.8160 C   0  0  0  0  0  0  0  0  0  0  0  0
   55.2670   29.3390   44.8720 O   0  0  0  0  0  0  0  0  0  0  0  0
   57.5840   28.9360   45.2100 C   0  0  0  0  0  0  0  0  0  0  0  0
   57.4400   27.9790   46.2340 C   0  0  0  0  0  0  0  0  0  0  0  0
   56.4730   27.8685   46.7465 H   0  0  0  0  0  0  0  0  0  0  0  0
   58.5180   27.1690   46.6030 C   0  0  0  0  0  0  0  0  0  0  0  0
   58.3956   26.4246   47.4035 H   0  0  0  0  0  0  0  0  0  0  0  0
   59.7510   27.3020   45.9580 C   0  0  0  0  0  0  0  0  0  0  0  0
   61.1010   26.2840   46.4230 Cl  0  0  0  0  0  0  0  0  0  0  0  0
   59.9050   28.2490   44.9400 C   0  0  0  0  0  0  0  0  0  0  0  0
   60.8744   28.3551   44.4311 H   0  0  0  0  0  0  0  0  0  0  0  0
   58.8290   29.0610   44.5680 C   0  0  0  0  0  0  0  0  0  0  0  0
   58.9574   29.8036   43.7667 H   0  0  0  0  0  0  0  0  0  0  0  0
   58.5720   31.9250   45.4700 N   0  0  0  0  0  0  0  0  0  0  0  0
   59.2250   32.9070   46.1500 C   0  0  0  0  0  0  0  0  0  0  0  0
   60.6160   32.6660   46.6190 C   0  0  0  0  0  0  0  0  0  0  0  0
   61.0070   31.4220   47.1530 C   0  0  0  0  0  0  0  0  0  0  0  0
   60.2760   30.6029   47.2218 H   0  0  0  0  0  0  0  0  0  0  0  0
   62.3180   31.2220   47.5960 C   0  0  0  0  0  0  0  0  0  0  0  0
   62.6153   30.2454   48.0057 H   0  0  0  0  0  0  0  0  0  0  0  0
   63.2510   32.2580   47.5200 C   0  0  0  0  0  0  0  0  0  0  0  0
   64.2826   32.0964   47.8660 H   0  0  0  0  0  0  0  0  0  0  0  0
   62.8730   33.5000   47.0040 C   0  0  0  0  0  0  0  0  0  0  0  0
   63.6072   34.3171   46.9464 H   0  0  0  0  0  0  0  0  0  0  0  0
   61.5640   33.7060   46.5610 C   0  0  0  0  0  0  0  0  0  0  0  0
   61.2713   34.6890   46.1635 H   0  0  0  0  0  0  0  0  0  0  0  0
   58.5560   34.1150   46.4050 C   0  0  0  0  0  0  0  0  0  0  0  0
   59.0511   34.9244   46.9615 H   0  0  0  0  0  0  0  0  0  0  0  0
  1  2  1  0
  2  3  1  0
  3  4  1  0
  4  5  2  0
  5  6  1  0
  6  7  2  0
  6  8  1  0
  8  9  2  0
  9 10  1  0
  9 11  1  0
 11 12  1  0
 11 13  2  0
 13 14  1  0
 13 15  1  0
 15 16  1  0
 15 17  2  0
 17 18  1  0
  4 19  1  0
 19 20  2  0
 20 21  1  0
 21 22  2  0
 22 23  1  0
 22 24  1  0
 24 25  1  0
 24 26  2  0
 26 27  1  0
 26 28  1  0
 28 29  1  0
 28 30  2  0
 30 31  1  0
 20 32  1  0
 32 33  1  0
 32  2  2  0
 17  8  1  0
 30 21  1  0
M  CHG  1   3  -1
M  END
>  <UniqueID>  (67) 
63

>  <SMILES>  (67) 
O=C(/N=c1\nc(-c2ccccc2)cc[n-]1)c1ccc(Cl)cc1

>  <Energy>  (67) 
44.056779760928684

>  <Genealogy>  (67) 
O=C(N=c1nc(-c2ccccc2)cc[n-]1)c1ccc(Cl)cc1 (protonated)
O=C(/N=c1\nc(-c2ccccc2)cc[n-]1)c1ccc(Cl)cc1 (cis-trans isomerization)
O=C(/N=c1\nc(-c2ccccc2)cc[n-]1)c1ccc(Cl)cc1 (3D coordinates assigned)
O=C(/N=c1\nc(-c2ccccc2)cc[n-]1)c1ccc(Cl)cc1 (optimized conformer: 44.056779760928684 kcal/mol)

>  <smiles>  (67) 
O=C(N=c1nc(-c2ccccc2)cc[nH]1)c1ccc(Cl)cc1

>  <score_type>  (67) 
oracle

>  <origin>  (67) 
adg

>  <m_score__min__energy>  (67) 
-9.5099999999999998

>  <m_primary>  (67) 
energy

$$$$
67:0
     RDKit          3D

 55 58  0  0  0  0  0  0  0  0999 V2000
   55.1930   28.7120   45.6310 H   0  0  0  0  0  0  0  0  0  0  0  0
   55.1740   29.3370   44.7950 N   0  0  0  0  0  0  0  0  0  0  0  0
   56.3750   29.8920   44.2690 C   0  0  0  0  0  0  0  0  0  0  0  0
   56.4290   30.2160   43.0530 O   0  0  0  0  0  0  0  0  0  0  0  0
   57.5140   30.1520   45.1680 C   0  0  0  0  0  0  0  0  0  0  0  0
   57.7550   31.3640   45.7840 C   0  0  0  0  0  0  0  0  0  0  0  0
   57.0526   32.2095   45.8256 H   0  0  0  0  0  0  0  0  0  0  0  0
   58.9930   31.3450   46.3280 N   0  0  0  0  0  0  0  0  0  0  0  0
   59.6090   32.4280   47.1290 C   0  0  0  0  0  0  0  0  0  0  0  0
   58.5140   33.5270   47.2990 C   0  0  0  0  0  0  0  0  0  0  0  0
   58.8387   34.2097   48.0981 H   0  0  0  0  0  0  0  0  0  0  0  0
   57.5800   32.9931   47.5283 H   0  0  0  0  0  0  0  0  0  0  0  0
   58.2390   34.3310   46.0980 C   0  0  0  0  0  0  0  0  0  0  0  0
   58.0180   34.9540   45.1480 N   0  0  0  0  0  0  0  0  0  0  0  0
   60.8660   32.9690   46.3600 C   0  0  0  0  0  0  0  0  0  0  0  0
   61.1450   32.2305   45.5939 H   0  0  0  0  0  0  0  0  0  0  0  0
   60.5789   33.9414   45.9333 H   0  0  0  0  0  0  0  0  0  0  0  0
   62.0920   33.2250   47.2500 C   0  0  0  0  0  0  0  0  0  0  0  0
   62.6279   32.2786   47.4145 H   0  0  0  0  0  0  0  0  0  0  0  0
   62.7576   33.9461   46.7530 H   0  0  0  0  0  0  0  0  0  0  0  0
   61.6620   33.7730   48.5430 N   0  0  0  0  0  0  0  0  0  0  0  0
   62.7370   34.4710   49.2850 C   0  0  0  0  0  0  0  0  0  0  0  0
   63.3517   35.0273   48.5620 H   0  0  0  0  0  0  0  0  0  0  0  0
   62.2445   35.1291   50.0160 H   0  0  0  0  0  0  0  0  0  0  0  0
   63.6440   33.5450   50.0690 C   0  0  0  0  0  0  0  0  0  0  0  0
   63.6620   33.5840   51.4750 C   0  0  0  0  0  0  0  0  0  0  0  0
   63.0140   34.2935   52.0104 H   0  0  0  0  0  0  0  0  0  0  0  0
   64.4980   32.7270   52.1960 C   0  0  0  0  0  0  0  0  0  0  0  0
   64.5104   32.7682   53.2952 H   0  0  0  0  0  0  0  0  0  0  0  0
   65.3190   31.8170   51.5220 C   0  0  0  0  0  0  0  0  0  0  0  0
   66.1280   30.9870   52.2240 F   0  0  0  0  0  0  0  0  0  0  0  0
   65.2970   31.7600   50.1270 C   0  0  0  0  0  0  0  0  0  0  0  0
   65.9388   31.0408   49.5971 H   0  0  0  0  0  0  0  0  0  0  0  0
   64.4610   32.6150   49.4020 C   0  0  0  0  0  0  0  0  0  0  0  0
   64.4424   32.5597   48.3035 H   0  0  0  0  0  0  0  0  0  0  0  0
   60.9290   32.7850   49.3620 C   0  0  0  0  0  0  0  0  0  0  0  0
   61.6594   32.1702   49.9083 H   0  0  0  0  0  0  0  0  0  0  0  0
   60.2729   33.3432   50.0461 H   0  0  0  0  0  0  0  0  0  0  0  0
   60.0340   31.8530   48.5160 C   0  0  0  0  0  0  0  0  0  0  0  0
   60.5840   30.9162   48.3431 H   0  0  0  0  0  0  0  0  0  0  0  0
   59.1054   31.7146   49.0892 H   0  0  0  0  0  0  0  0  0  0  0  0
   59.5430   30.1570   46.1190 N   0  0  0  0  0  0  0  0  0  0  0  0
   58.6700   29.4090   45.4240 C   0  0  0  0  0  0  0  0  0  0  0  0
   58.9270   28.1680   45.1180 N   0  0  0  0  0  0  0  0  0  0  0  0
   58.1890   26.9980   45.4970 C   0  0  0  0  0  0  0  0  0  0  0  0
   57.7500   26.1130   44.5040 C   0  0  0  0  0  0  0  0  0  0  0  0
   57.9329   26.3431   43.4440 H   0  0  0  0  0  0  0  0  0  0  0  0
   57.0800   24.9380   44.8570 C   0  0  0  0  0  0  0  0  0  0  0  0
   56.7181   24.2559   44.0735 H   0  0  0  0  0  0  0  0  0  0  0  0
   56.8690   24.6280   46.2040 C   0  0  0  0  0  0  0  0  0  0  0  0
   56.3333   23.7076   46.4795 H   0  0  0  0  0  0  0  0  0  0  0  0
   57.3390   25.4880   47.2000 C   0  0  0  0  0  0  0  0  0  0  0  0
   57.1815   25.2392   48.2599 H   0  0  0  0  0  0  0  0  0  0  0  0
   58.0090   26.6640   46.8510 C   0  0  0  0  0  0  0  0  0  0  0  0
   58.3961   27.3293   47.6368 H   0  0  0  0  0  0  0  0  0  0  0  0
  1  2  1  0
  2  3  1  0
  3  4  2  0
  3  5  1  0
  5  6  2  0
  6  7  1  0
  6  8  1  0
  8  9  1  0
  9 10  1  0
 10 11  1  0
 10 12  1  0
 10 13  1  0
 13 14  3  0
  9 15  1  0
 15 16  1  0
 15 17  1  0
 15 18  1  0
 18 19  1  0
 18 20  1  0
 18 21  1  0
 21 22  1  0
 22 23  1  0
 22 24  1  0
 22 25  1  0
 25 26  2  0
 26 27  1  0
 26 28  1  0
 28 29  1  0
 28 30  2  0
 30 31  1  0
 30 32  1  0
 32 33  1  0
 32 34  2  0
 34 35  1  0
 21 36  1  0
 36 37  1  0
 36 38  1  0
 36 39  1  0
 39 40  1  0
 39 41  1  0
  8 42  1  0
 42 43  1  0
 43 44  2  0
 44 45  1  0
 45 46  2  0
 46 47  1  0
 46 48  1  0
 48 49  1  0
 48 50  2  0
 50 51  1  0
 50 52  1  0
 52 53  1  0
 52 54  2  0
 54 55  1  0
 43  5  1  0
 54 45  1  0
 39  9  1  0
 34 25  1  0
M  CHG  2   2  -1  42  -1
M  END
>  <UniqueID>  (68) 
64

>  <SMILES>  (68) 
N#CCC1(n2cc(C([NH-])=O)/c(=N\c3ccccc3)[n-]2)CCN(Cc2ccc(F)cc2)CC1

>  <Energy>  (68) 
117.6468355952495

>  <Genealogy>  (68) 
N#CCC1(n2cc(C([NH-])=O)c(=Nc3ccccc3)[n-]2)CCN(Cc2ccc(F)cc2)CC1 (protonated)
N#CCC1(n2cc(C([NH-])=O)/c(=N\c3ccccc3)[n-]2)CCN(Cc2ccc(F)cc2)CC1 (cis-trans isomerization)
N#CCC1(n2cc(C([NH-])=O)/c(=N\c3ccccc3)[n-]2)CCN(Cc2ccc(F)cc2)CC1 (3D coordinates assigned)
N#CCC1(n2cc(C([NH-])=O)/c(=N\c3ccccc3)[n-]2)CCN(Cc2ccc(F)cc2)CC1 (nonaromatic ring conformer: 117.6468355952495 kcal/mol)

>  <smiles>  (68) 
N#CCC1(n2cc(C(N)=O)c(=Nc3ccccc3)[nH]2)CCN(Cc2ccc(F)cc2)CC1

>  <score_type>  (68) 
oracle

>  <origin>  (68) 
adg

>  <m_score__min__energy>  (68) 
-13.4

>  <m_primary>  (68) 
energy

$$$$
68:0
     RDKit          3D

 45 47  0  0  0  0  0  0  0  0999 V2000
   55.9300   30.0800   44.6030 O   0  0  0  0  0  0  0  0  0  0  0  0
   56.9230   30.1810   43.8340 C   0  0  0  0  0  0  0  0  0  0  0  0
   57.0080   31.3470   42.8920 C   0  0  0  0  0  0  0  0  0  0  0  0
   58.1540   32.2950   43.2690 C   0  0  0  0  0  0  0  0  0  0  0  0
   58.1940   32.5720   44.7530 C   0  0  0  0  0  0  0  0  0  0  0  0
   58.9380   31.7400   45.6070 C   0  0  0  0  0  0  0  0  0  0  0  0
   58.9320   31.9640   46.9880 C   0  0  0  0  0  0  0  0  0  0  0  0
   58.1840   33.0150   47.5240 C   0  0  0  0  0  0  0  0  0  0  0  0
   57.4350   33.8420   46.6830 C   0  0  0  0  0  0  0  0  0  0  0  0
   57.4370   33.6220   45.3020 C   0  0  0  0  0  0  0  0  0  0  0  0
   58.0130   29.2500   43.9160 N   0  0  0  0  0  0  0  0  0  0  0  0
   58.0960   28.2190   44.9090 C   0  0  0  0  0  0  0  0  0  0  0  0
   59.3100   27.9170   45.5460 C   0  0  0  0  0  0  0  0  0  0  0  0
   59.3560   26.9290   46.5340 C   0  0  0  0  0  0  0  0  0  0  0  0
   58.1910   26.2490   46.9020 C   0  0  0  0  0  0  0  0  0  0  0  0
   56.9680   26.5590   46.2950 C   0  0  0  0  0  0  0  0  0  0  0  0
   55.7960   25.8280   46.6860 N   0  0  0  0  0  0  0  0  0  0  0  0
   55.1710   24.7570   45.9610 C   0  0  0  0  0  0  0  0  0  0  0  0
   53.9150   24.6740   45.9770 O   0  0  0  0  0  0  0  0  0  0  0  0
   55.9510   23.7840   45.1610 C   0  0  0  0  0  0  0  0  0  0  0  0
   55.7370   23.6800   43.7760 C   0  0  0  0  0  0  0  0  0  0  0  0
   56.4500   22.7460   43.0180 C   0  0  0  0  0  0  0  0  0  0  0  0
   57.3900   21.9160   43.6340 C   0  0  0  0  0  0  0  0  0  0  0  0
   57.6250   22.0250   45.0070 C   0  0  0  0  0  0  0  0  0  0  0  0
   56.9140   22.9570   45.7680 C   0  0  0  0  0  0  0  0  0  0  0  0
   56.9310   27.5360   45.2850 C   0  0  0  0  0  0  0  0  0  0  0  0
   57.1768   30.9706   41.8723 H   0  0  0  0  0  0  0  0  0  0  0  0
   56.0636   31.9077   42.9523 H   0  0  0  0  0  0  0  0  0  0  0  0
   59.1076   31.8370   42.9674 H   0  0  0  0  0  0  0  0  0  0  0  0
   57.9895   33.2504   42.7493 H   0  0  0  0  0  0  0  0  0  0  0  0
   59.5267   30.9104   45.1885 H   0  0  0  0  0  0  0  0  0  0  0  0
   59.5172   31.3115   47.6527 H   0  0  0  0  0  0  0  0  0  0  0  0
   58.1847   33.1918   48.6097 H   0  0  0  0  0  0  0  0  0  0  0  0
   56.8434   34.6666   47.1074 H   0  0  0  0  0  0  0  0  0  0  0  0
   56.8441   34.2729   44.6427 H   0  0  0  0  0  0  0  0  0  0  0  0
   58.8680   29.4460   43.3490 H   0  0  0  0  0  0  0  0  0  0  0  0
   60.2261   28.4584   45.2674 H   0  0  0  0  0  0  0  0  0  0  0  0
   60.3109   26.6860   47.0230 H   0  0  0  0  0  0  0  0  0  0  0  0
   58.2356   25.4658   47.6731 H   0  0  0  0  0  0  0  0  0  0  0  0
   55.0042   24.3373   43.2852 H   0  0  0  0  0  0  0  0  0  0  0  0
   56.2706   22.6647   41.9358 H   0  0  0  0  0  0  0  0  0  0  0  0
   57.9451   21.1766   43.0380 H   0  0  0  0  0  0  0  0  0  0  0  0
   58.3708   21.3763   45.4897 H   0  0  0  0  0  0  0  0  0  0  0  0
   57.1083   23.0445   46.8472 H   0  0  0  0  0  0  0  0  0  0  0  0
   55.9788   27.7668   44.7849 H   0  0  0  0  0  0  0  0  0  0  0  0
  1  2  2  0
  2  3  1  0
  3  4  1  0
  4  5  1  0
  5  6  2  0
  6  7  1  0
  7  8  2  0
  8  9  1  0
  9 10  2  0
  2 11  1  0
 11 12  1  0
 12 13  2  0
 13 14  1  0
 14 15  2  0
 15 16  1  0
 16 17  1  0
 17 18  1  0
 18 19  2  0
 18 20  1  0
 20 21  2  0
 21 22  1  0
 22 23  2  0
 23 24  1  0
 24 25  2  0
 16 26  2  0
 10  5  1  0
 26 12  1  0
 25 20  1  0
  3 27  1  0
  3 28  1  0
  4 29  1  0
  4 30  1  0
  6 31  1  0
  7 32  1  0
  8 33  1  0
  9 34  1  0
 10 35  1  0
 11 36  1  0
 13 37  1  0
 14 38  1  0
 15 39  1  0
 21 40  1  0
 22 41  1  0
 23 42  1  0
 24 43  1  0
 25 44  1  0
 26 45  1  0
M  CHG  1  17  -1
M  END
>  <UniqueID>  (69) 
65

>  <SMILES>  (69) 
O=C(CCc1ccccc1)Nc1cccc([N-]C(=O)c2ccccc2)c1

>  <Energy>  (69) 
50.54179504433591

>  <Genealogy>  (69) 
O=C(CCc1ccccc1)Nc1cccc([N-]C(=O)c2ccccc2)c1 (protonated)
O=C(CCc1ccccc1)Nc1cccc([N-]C(=O)c2ccccc2)c1 (3D coordinates assigned)
O=C(CCc1ccccc1)Nc1cccc([N-]C(=O)c2ccccc2)c1 (optimized conformer: 50.54179504433591 kcal/mol)

>  <smiles>  (69) 
O=C(CCc1ccccc1)Nc1cccc(NC(=O)c2ccccc2)c1

>  <score_type>  (69) 
oracle

>  <origin>  (69) 
adg

>  <m_score__min__energy>  (69) 
-11.91

>  <m_primary>  (69) 
energy

$$$$
69:0
     RDKit          3D

 48 51  0  0  0  0  0  0  0  0999 V2000
   60.7790   28.7420   49.1460 C   0  0  0  0  0  0  0  0  0  0  0  0
   60.2360   28.4620   47.8040 N   0  0  0  0  0  0  0  0  0  0  0  0
   60.3290   29.4160   46.8190 C   0  0  0  0  0  0  0  0  0  0  0  0
   61.1290   31.0070   47.1170 S   0  0  0  0  0  0  0  0  0  0  0  0
   59.6080   31.7850   47.7530 C   0  0  0  0  0  0  0  0  0  0  0  0
   58.9450   32.5630   46.6510 C   0  0  0  0  0  0  0  0  0  0  0  0
   59.3060   33.9010   46.4040 C   0  0  0  0  0  0  0  0  0  0  0  0
   60.2410   34.5190   47.1720 F   0  0  0  0  0  0  0  0  0  0  0  0
   58.7070   34.6090   45.3570 C   0  0  0  0  0  0  0  0  0  0  0  0
   57.7560   33.9890   44.5430 C   0  0  0  0  0  0  0  0  0  0  0  0
   57.4040   32.6570   44.7700 C   0  0  0  0  0  0  0  0  0  0  0  0
   57.9970   31.9410   45.8140 C   0  0  0  0  0  0  0  0  0  0  0  0
   57.6520   30.6420   46.0050 F   0  0  0  0  0  0  0  0  0  0  0  0
   59.8210   29.1790   45.5800 N   0  0  0  0  0  0  0  0  0  0  0  0
   59.2340   27.9930   45.2700 C   0  0  0  0  0  0  0  0  0  0  0  0
   58.7200   27.7690   43.9840 C   0  0  0  0  0  0  0  0  0  0  0  0
   58.1250   26.5480   43.6670 C   0  0  0  0  0  0  0  0  0  0  0  0
   58.0390   25.5250   44.6270 C   0  0  0  0  0  0  0  0  0  0  0  0
   57.4240   24.2640   44.3030 N   0  0  0  0  0  0  0  0  0  0  0  0
   56.0110   24.2180   43.9140 C   0  0  0  0  0  0  0  0  0  0  0  0
   55.7690   23.0120   43.0000 C   0  0  0  0  0  0  0  0  0  0  0  0
   56.2530   21.8230   43.5970 O   0  0  0  0  0  0  0  0  0  0  0  0
   57.6600   21.8930   43.7320 C   0  0  0  0  0  0  0  0  0  0  0  0
   58.0590   23.0060   44.7060 C   0  0  0  0  0  0  0  0  0  0  0  0
   58.5500   25.7510   45.9160 C   0  0  0  0  0  0  0  0  0  0  0  0
   59.1490   26.9820   46.2440 C   0  0  0  0  0  0  0  0  0  0  0  0
   59.6700   27.2430   47.5230 C   0  0  0  0  0  0  0  0  0  0  0  0
   59.6140   26.3450   48.4110 O   0  0  0  0  0  0  0  0  0  0  0  0
   60.0751   28.3790   49.9094 H   0  0  0  0  0  0  0  0  0  0  0  0
   61.7451   28.2297   49.2649 H   0  0  0  0  0  0  0  0  0  0  0  0
   60.9219   29.8262   49.2649 H   0  0  0  0  0  0  0  0  0  0  0  0
   58.9217   31.0058   48.1160 H   0  0  0  0  0  0  0  0  0  0  0  0
   59.8617   32.4643   48.5802 H   0  0  0  0  0  0  0  0  0  0  0  0
   58.9856   35.6573   45.1740 H   0  0  0  0  0  0  0  0  0  0  0  0
   57.2843   34.5503   43.7230 H   0  0  0  0  0  0  0  0  0  0  0  0
   56.6578   32.1696   44.1254 H   0  0  0  0  0  0  0  0  0  0  0  0
   59.8970   29.9260   44.8520 H   0  0  0  0  0  0  0  0  0  0  0  0
   58.7865   28.5598   43.2223 H   0  0  0  0  0  0  0  0  0  0  0  0
   57.7198   26.3843   42.6575 H   0  0  0  0  0  0  0  0  0  0  0  0
   55.3861   24.1262   44.8146 H   0  0  0  0  0  0  0  0  0  0  0  0
   55.7494   25.1418   43.3772 H   0  0  0  0  0  0  0  0  0  0  0  0
   54.6893   22.9096   42.8165 H   0  0  0  0  0  0  0  0  0  0  0  0
   56.3049   23.1743   42.0532 H   0  0  0  0  0  0  0  0  0  0  0  0
   58.0341   20.9307   44.1114 H   0  0  0  0  0  0  0  0  0  0  0  0
   58.0979   22.1130   42.7472 H   0  0  0  0  0  0  0  0  0  0  0  0
   57.7304   22.7390   45.7213 H   0  0  0  0  0  0  0  0  0  0  0  0
   59.1521   23.1282   44.6926 H   0  0  0  0  0  0  0  0  0  0  0  0
   58.4814   24.9587   46.6760 H   0  0  0  0  0  0  0  0  0  0  0  0
  1  2  1  0
  2  3  1  0
  3  4  1  0
  4  5  1  0
  5  6  1  0
  6  7  2  0
  7  8  1  0
  7  9  1  0
  9 10  2  0
 10 11  1  0
 11 12  2  0
 12 13  1  0
  3 14  2  0
 14 15  1  0
 15 16  2  0
 16 17  1  0
 17 18  2  0
 18 19  1  0
 19 20  1  0
 20 21  1  0
 21 22  1  0
 22 23  1  0
 23 24  1  0
 18 25  1  0
 25 26  2  0
 26 27  1  0
 27 28  2  0
 27  2  1  0
 12  6  1  0
 26 15  1  0
 24 19  1  0
  1 29  1  0
  1 30  1  0
  1 31  1  0
  5 32  1  0
  5 33  1  0
  9 34  1  0
 10 35  1  0
 11 36  1  0
 14 37  1  0
 16 38  1  0
 17 39  1  0
 20 40  1  0
 20 41  1  0
 21 42  1  0
 21 43  1  0
 23 44  1  0
 23 45  1  0
 24 46  1  0
 24 47  1  0
 25 48  1  0
M  CHG  1  14   1
M  END
>  <UniqueID>  (70) 
66

>  <SMILES>  (70) 
Cn1c(SCc2c(F)cccc2F)[nH+]c2ccc(N3CCOCC3)cc2c1=O

>  <Energy>  (70) 
61.3075679565791

>  <Genealogy>  (70) 
Cn1c(SCc2c(F)cccc2F)[nH+]c2ccc(N3CCOCC3)cc2c1=O (protonated)
Cn1c(SCc2c(F)cccc2F)[nH+]c2ccc(N3CCOCC3)cc2c1=O (3D coordinates assigned)
Cn1c(SCc2c(F)cccc2F)[nH+]c2ccc(N3CCOCC3)cc2c1=O (nonaromatic ring conformer: 61.3075679565791 kcal/mol)

>  <smiles>  (70) 
Cn1c(SCc2c(F)cccc2F)nc2ccc(N3CCOCC3)cc2c1=O

>  <score_type>  (70) 
oracle

>  <origin>  (70) 
adg

>  <m_score__min__energy>  (70) 
-6.4199999999999999

>  <m_primary>  (70) 
energy

$$$$
70:0
     RDKit          3D

 47 50  0  0  1  0  0  0  0  0999 V2000
   58.8330   34.2410   46.5910 Cl  0  0  0  0  0  0  0  0  0  0  0  0
   58.2670   33.1800   45.3120 C   0  0  0  0  0  0  0  0  0  0  0  0
   58.5810   33.5120   44.0010 C   0  0  0  0  0  0  0  0  0  0  0  0
   58.1430   32.6890   42.9940 C   0  0  0  0  0  0  0  0  0  0  0  0
   59.9640   29.8150   48.8310 C   0  0  0  0  0  0  0  0  0  0  0  0
   60.1580   29.2280   47.5780 C   0  0  0  0  0  0  0  0  0  0  0  0
   59.5710   27.9520   47.3140 N   0  0  0  0  0  0  0  0  0  0  0  0
   58.4270   27.9510   46.6750 C   0  0  0  0  0  0  0  0  0  0  0  0
   56.0560   27.8920   45.3720 N   0  0  0  0  0  0  0  0  0  0  0  0
   56.4390   26.7520   45.9750 C   0  0  0  0  0  0  0  0  0  0  0  0
   57.6610   26.7900   46.6450 C   0  0  0  0  0  0  0  0  0  0  0  0
   56.7880   29.0200   45.3940 C   0  0  0  0  0  0  0  0  0  0  0  0
   56.3310   30.0410   44.7900 N   0  0  0  0  0  0  0  0  0  0  0  0
   57.0910   31.2250   44.6160 C   0  0  0  0  0  0  0  0  0  0  0  0
   57.4080   31.5600   43.2980 C   0  0  0  0  0  0  0  0  0  0  0  0
   60.5110   31.0470   49.1350 C   0  0  0  0  0  0  0  0  0  0  0  0
   61.2600   31.7210   48.2010 C   0  0  0  0  0  0  0  0  0  0  0  0
   61.8820   33.0490   48.4480 C   0  0  1  0  0  0  0  0  0  0  0  0
   62.0850   33.3310   49.9260 C   0  0  0  0  0  0  0  0  0  0  0  0
   63.2340   34.2290   50.1160 N   0  0  0  0  0  0  0  0  0  0  0  0
   64.4380   33.4380   49.8170 C   0  0  0  0  0  0  0  0  0  0  0  0
   64.0200   32.4370   48.7430 C   0  0  0  0  0  0  0  0  0  0  0  0
   63.1350   33.0220   47.8370 O   0  0  0  0  0  0  0  0  0  0  0  0
   61.4660   31.1610   46.9550 C   0  0  0  0  0  0  0  0  0  0  0  0
   57.5220   32.0370   45.6140 C   0  0  0  0  0  0  0  0  0  0  0  0
   57.9740   29.0600   46.0430 N   0  0  0  0  0  0  0  0  0  0  0  0
   60.9040   29.9160   46.6730 C   0  0  0  0  0  0  0  0  0  0  0  0
   59.1677   34.4145   43.7746 H   0  0  0  0  0  0  0  0  0  0  0  0
   58.3770   32.9282   41.9461 H   0  0  0  0  0  0  0  0  0  0  0  0
   59.3656   29.2874   49.5884 H   0  0  0  0  0  0  0  0  0  0  0  0
   55.1450   27.8710   44.8710 H   0  0  0  0  0  0  0  0  0  0  0  0
   55.8228   25.8414   45.9413 H   0  0  0  0  0  0  0  0  0  0  0  0
   58.0253   25.8877   47.1580 H   0  0  0  0  0  0  0  0  0  0  0  0
   57.0637   30.9083   42.4814 H   0  0  0  0  0  0  0  0  0  0  0  0
   60.3462   31.4897   50.1284 H   0  0  0  0  0  0  0  0  0  0  0  0
   61.2201   33.8323   48.0501 H   0  0  0  0  0  0  0  0  0  0  0  0
   61.1805   33.8064   50.3333 H   0  0  0  0  0  0  0  0  0  0  0  0
   62.2782   32.3834   50.4501 H   0  0  0  0  0  0  0  0  0  0  0  0
   63.1710   34.9500   49.3460 H   0  0  0  0  0  0  0  0  0  0  0  0
   65.2412   34.0894   49.4421 H   0  0  0  0  0  0  0  0  0  0  0  0
   64.8241   32.9323   50.7143 H   0  0  0  0  0  0  0  0  0  0  0  0
   64.9144   32.0936   48.2026 H   0  0  0  0  0  0  0  0  0  0  0  0
   63.5165   31.5884   49.2292 H   0  0  0  0  0  0  0  0  0  0  0  0
   62.0638   31.6887   46.1973 H   0  0  0  0  0  0  0  0  0  0  0  0
   57.2850   31.7955   46.6607 H   0  0  0  0  0  0  0  0  0  0  0  0
   58.5160   29.9290   46.0470 H   0  0  0  0  0  0  0  0  0  0  0  0
   61.0708   29.4735   45.6798 H   0  0  0  0  0  0  0  0  0  0  0  0
  1  2  1  0
  2  3  2  0
  3  4  1  0
  4  5  2  0
  5  6  1  0
  6  7  1  0
  7  8  2  0
  8  9  1  0
  9 10  1  0
 10 11  2  0
 11 12  1  0
 12 13  2  0
 13 14  1  0
 14 15  2  0
 15 16  1  0
 16 17  2  0
 17 18  1  0
 18 19  1  0
 19 20  1  0
 20 21  1  0
 21 22  1  0
 22 23  1  0
 17 24  1  0
 24 25  2  0
 12 26  1  0
  6 27  2  0
 27  2  1  0
 26  8  1  0
 25 14  1  0
 23 18  1  0
  3 28  1  0
  4 29  1  0
  5 30  1  0
  9 31  1  0
 10 32  1  0
 11 33  1  0
 15 34  1  0
 16 35  1  0
 18 36  1  6
 19 37  1  0
 19 38  1  0
 20 39  1  0
 21 40  1  0
 21 41  1  0
 22 42  1  0
 22 43  1  0
 24 44  1  0
 25 45  1  0
 26 46  1  0
 27 47  1  0
M  END
>  <smiles>  (71) 
Clc1cccc(N=c2[nH]ccc(=Nc3ccc(C4CNCCO4)cc3)[nH]2)c1

>  <score_type>  (71) 
oracle

>  <origin>  (71) 
adg

>  <m_score__min__energy>  (71) 
-8.9800000000000004

>  <m_primary>  (71) 
energy

$$$$
71:0
     RDKit          3D

 40 42  0  0  0  0  0  0  0  0999 V2000
   56.5990   30.2010   42.5750 C   0  0  0  0  0  0  0  0  0  0  0  0
   56.6400   29.3850   43.8640 C   0  0  0  0  0  0  0  0  0  0  0  0
   57.6760   29.9090   44.7800 N   0  0  0  0  0  0  0  0  0  0  0  0
   58.7140   29.1130   45.2180 C   0  0  0  0  0  0  0  0  0  0  0  0
   58.8880   27.6900   44.7630 C   0  0  0  0  0  0  0  0  0  0  0  0
   59.6450   29.6150   46.0710 N   0  0  0  0  0  0  0  0  0  0  0  0
   59.5830   30.8860   46.5320 C   0  0  0  0  0  0  0  0  0  0  0  0
   60.5630   31.3580   47.4110 C   0  0  0  0  0  0  0  0  0  0  0  0
   60.5060   32.6750   47.8920 C   0  0  0  0  0  0  0  0  0  0  0  0
   61.5420   33.1680   48.8250 C   0  0  0  0  0  0  0  0  0  0  0  0
   61.1820   33.4050   50.1630 C   0  0  0  0  0  0  0  0  0  0  0  0
   62.1320   33.8480   51.0850 C   0  0  0  0  0  0  0  0  0  0  0  0
   63.4510   34.0570   50.6820 C   0  0  0  0  0  0  0  0  0  0  0  0
   63.8230   33.8370   49.3550 C   0  0  0  0  0  0  0  0  0  0  0  0
   62.8760   33.4060   48.4090 C   0  0  0  0  0  0  0  0  0  0  0  0
   63.3230   33.1940   46.9820 C   0  0  0  0  0  0  0  0  0  0  0  0
   63.7830   31.8820   46.8080 O   0  0  0  0  0  0  0  0  0  0  0  0
   59.4470   33.5110   47.4980 C   0  0  0  0  0  0  0  0  0  0  0  0
   59.3730   34.7870   47.9530 F   0  0  0  0  0  0  0  0  0  0  0  0
   58.4680   33.0380   46.6200 C   0  0  0  0  0  0  0  0  0  0  0  0
   58.5310   31.7210   46.1280 C   0  0  0  0  0  0  0  0  0  0  0  0
   57.5720   31.2020   45.2420 C   0  0  0  0  0  0  0  0  0  0  0  0
   56.6090   31.9330   44.8720 O   0  0  0  0  0  0  0  0  0  0  0  0
   56.5452   31.2719   42.8205 H   0  0  0  0  0  0  0  0  0  0  0  0
   57.5081   30.0047   41.9877 H   0  0  0  0  0  0  0  0  0  0  0  0
   55.7141   29.9146   41.9877 H   0  0  0  0  0  0  0  0  0  0  0  0
   55.6589   29.4408   44.3583 H   0  0  0  0  0  0  0  0  0  0  0  0
   56.8823   28.3413   43.6150 H   0  0  0  0  0  0  0  0  0  0  0  0
   58.9685   27.0317   45.6406 H   0  0  0  0  0  0  0  0  0  0  0  0
   58.0199   27.3898   44.1578 H   0  0  0  0  0  0  0  0  0  0  0  0
   59.8029   27.6078   44.1578 H   0  0  0  0  0  0  0  0  0  0  0  0
   61.3816   30.6944   47.7265 H   0  0  0  0  0  0  0  0  0  0  0  0
   60.1435   33.2401   50.4861 H   0  0  0  0  0  0  0  0  0  0  0  0
   61.8404   34.0323   52.1295 H   0  0  0  0  0  0  0  0  0  0  0  0
   64.2003   34.3963   51.4124 H   0  0  0  0  0  0  0  0  0  0  0  0
   64.8658   34.0021   49.0464 H   0  0  0  0  0  0  0  0  0  0  0  0
   62.4748   33.3743   46.3051 H   0  0  0  0  0  0  0  0  0  0  0  0
   64.1407   33.8938   46.7547 H   0  0  0  0  0  0  0  0  0  0  0  0
   64.7740   31.9330   46.7550 H   0  0  0  0  0  0  0  0  0  0  0  0
   57.6440   33.6984   46.3119 H   0  0  0  0  0  0  0  0  0  0  0  0
  1  2  1  0
  2  3  1  0
  3  4  1  0
  4  5  1  0
  4  6  2  0
  6  7  1  0
  7  8  2  0
  8  9  1  0
  9 10  1  0
 10 11  2  0
 11 12  1  0
 12 13  2  0
 13 14  1  0
 14 15  2  0
 15 16  1  0
 16 17  1  0
  9 18  2  0
 18 19  1  0
 18 20  1  0
 20 21  2  0
 21 22  1  0
 22 23  2  0
 22  3  1  0
 21  7  1  0
 15 10  1  0
  1 24  1  0
  1 25  1  0
  1 26  1  0
  2 27  1  0
  2 28  1  0
  5 29  1  0
  5 30  1  0
  5 31  1  0
  8 32  1  0
 11 33  1  0
 12 34  1  0
 13 35  1  0
 14 36  1  0
 16 37  1  0
 16 38  1  0
 17 39  1  0
 20 40  1  0
M  END
>  <UniqueID>  (72) 
67

>  <SMILES>  (72) 
CCn1c(C)nc2cc(-c3ccccc3CO)c(F)cc2c1=O

>  <Energy>  (72) 
55.649239730288784

>  <Genealogy>  (72) 
CCn1c(C)nc2cc(-c3ccccc3CO)c(F)cc2c1=O (3D coordinates assigned)
CCn1c(C)nc2cc(-c3ccccc3CO)c(F)cc2c1=O (optimized conformer: 55.649239730288784 kcal/mol)

>  <smiles>  (72) 
CCn1c(C)nc2cc(-c3ccccc3CO)c(F)cc2c1=O

>  <score_type>  (72) 
oracle

>  <origin>  (72) 
adg

>  <m_score__min__energy>  (72) 
-7.8399999999999999

>  <m_primary>  (72) 
energy

$$$$
72:0
     RDKit          3D

 45 47  0  0  0  0  0  0  0  0999 V2000
   57.0723   29.7457   42.3876 H   0  0  0  0  0  0  0  0  0  0  0  0
   56.9840   29.3200   43.3980 C   0  0  0  0  0  0  0  0  0  0  0  0
   56.1060   29.9900   44.3780 C   0  0  0  0  0  0  0  0  0  0  0  0
   55.1530   29.3380   44.8790 O   0  0  0  0  0  0  0  0  0  0  0  0
   56.3160   31.3430   44.8070 N   0  0  0  0  0  0  0  0  0  0  0  0
   57.4700   31.8410   45.4990 C   0  0  0  0  0  0  0  0  0  0  0  0
   58.2070   31.0340   46.3800 C   0  0  0  0  0  0  0  0  0  0  0  0
   57.8950   29.9949   46.5614 H   0  0  0  0  0  0  0  0  0  0  0  0
   59.3340   31.5440   47.0270 C   0  0  0  0  0  0  0  0  0  0  0  0
   59.8994   30.9072   47.7233 H   0  0  0  0  0  0  0  0  0  0  0  0
   59.7500   32.8630   46.7950 C   0  0  0  0  0  0  0  0  0  0  0  0
   60.9200   33.3620   47.4570 N   0  0  0  0  0  0  0  0  0  0  0  0
   60.7700   34.1510   48.6810 C   0  0  0  0  0  0  0  0  0  0  0  0
   60.5904   35.2042   48.4191 H   0  0  0  0  0  0  0  0  0  0  0  0
   59.9184   33.7686   49.2628 H   0  0  0  0  0  0  0  0  0  0  0  0
   62.0490   34.0430   49.5150 C   0  0  0  0  0  0  0  0  0  0  0  0
   61.9838   34.7360   50.3667 H   0  0  0  0  0  0  0  0  0  0  0  0
   62.1514   33.0074   49.8713 H   0  0  0  0  0  0  0  0  0  0  0  0
   63.1860   34.3700   48.7360 O   0  0  0  0  0  0  0  0  0  0  0  0
   63.3510   33.4160   47.7030 C   0  0  0  0  0  0  0  0  0  0  0  0
   64.2854   33.6279   47.1626 H   0  0  0  0  0  0  0  0  0  0  0  0
   63.3872   32.4128   48.1527 H   0  0  0  0  0  0  0  0  0  0  0  0
   62.1790   33.4700   46.7190 C   0  0  0  0  0  0  0  0  0  0  0  0
   62.2030   34.4238   46.1716 H   0  0  0  0  0  0  0  0  0  0  0  0
   62.2595   32.6368   46.0053 H   0  0  0  0  0  0  0  0  0  0  0  0
   59.0170   33.6810   45.9090 C   0  0  0  0  0  0  0  0  0  0  0  0
   59.4390   35.0980   45.6310 C   0  0  0  0  0  0  0  0  0  0  0  0
   59.5966   35.6270   46.5825 H   0  0  0  0  0  0  0  0  0  0  0  0
   60.3753   35.0952   45.0536 H   0  0  0  0  0  0  0  0  0  0  0  0
   58.6537   35.6079   45.0536 H   0  0  0  0  0  0  0  0  0  0  0  0
   57.8950   33.1520   45.2510 C   0  0  0  0  0  0  0  0  0  0  0  0
   57.3431   33.7751   44.5319 H   0  0  0  0  0  0  0  0  0  0  0  0
   57.6780   28.2110   43.6950 C   0  0  0  0  0  0  0  0  0  0  0  0
   57.7479   27.4228   42.9309 H   0  0  0  0  0  0  0  0  0  0  0  0
   58.3560   27.9870   44.9940 C   0  0  0  0  0  0  0  0  0  0  0  0
   57.7040   27.3970   46.0970 C   0  0  0  0  0  0  0  0  0  0  0  0
   56.6488   27.0977   46.0134 H   0  0  0  0  0  0  0  0  0  0  0  0
   58.3930   27.1910   47.2960 C   0  0  0  0  0  0  0  0  0  0  0  0
   57.8755   26.7370   48.1540 H   0  0  0  0  0  0  0  0  0  0  0  0
   59.7350   27.5590   47.4090 C   0  0  0  0  0  0  0  0  0  0  0  0
   60.2718   27.4003   48.3559 H   0  0  0  0  0  0  0  0  0  0  0  0
   60.3950   28.1290   46.3180 C   0  0  0  0  0  0  0  0  0  0  0  0
   61.4539   28.4141   46.4049 H   0  0  0  0  0  0  0  0  0  0  0  0
   59.7130   28.3380   45.1160 C   0  0  0  0  0  0  0  0  0  0  0  0
   60.2414   28.7804   44.2586 H   0  0  0  0  0  0  0  0  0  0  0  0
  1  2  1  0
  2  3  1  0
  3  4  2  0
  3  5  1  0
  5  6  1  0
  6  7  2  0
  7  8  1  0
  7  9  1  0
  9 10  1  0
  9 11  2  0
 11 12  1  0
 12 13  1  0
 13 14  1  0
 13 15  1  0
 13 16  1  0
 16 17  1  0
 16 18  1  0
 16 19  1  0
 19 20  1  0
 20 21  1  0
 20 22  1  0
 20 23  1  0
 23 24  1  0
 23 25  1  0
 11 26  1  0
 26 27  1  0
 27 28  1  0
 27 29  1  0
 27 30  1  0
 26 31  2  0
 31 32  1  0
  2 33  2  0
 33 34  1  0
 33 35  1  0
 35 36  2  0
 36 37  1  0
 36 38  1  0
 38 39  1  0
 38 40  2  0
 40 41  1  0
 40 42  1  0
 42 43  1  0
 42 44  2  0
 44 45  1  0
 31  6  1  0
 44 35  1  0
 23 12  1  0
M  CHG  1   5  -1
M  END
>  <UniqueID>  (73) 
68

>  <SMILES>  (73) 
Cc1cc([N-]C(=O)/C=C/c2ccccc2)ccc1N1CCOCC1

>  <Energy>  (73) 
59.354987166226735

>  <Genealogy>  (73) 
Cc1cc([N-]C(=O)C=Cc2ccccc2)ccc1N1CCOCC1 (protonated)
Cc1cc([N-]C(=O)/C=C/c2ccccc2)ccc1N1CCOCC1 (cis-trans isomerization)
Cc1cc([N-]C(=O)/C=C/c2ccccc2)ccc1N1CCOCC1 (3D coordinates assigned)
Cc1cc([N-]C(=O)/C=C/c2ccccc2)ccc1N1CCOCC1 (nonaromatic ring conformer: 59.354987166226735 kcal/mol)

>  <smiles>  (73) 
Cc1cc(NC(=O)C=Cc2ccccc2)ccc1N1CCOCC1

>  <score_type>  (73) 
oracle

>  <origin>  (73) 
adg

>  <m_score__min__energy>  (73) 
-10.039999999999999

>  <m_primary>  (73) 
energy

$$$$
73:0
     RDKit          3D

 44 46  0  0  1  0  0  0  0  0999 V2000
   59.7190   33.6590   50.2960 C   0  0  0  0  0  0  0  0  0  0  0  0
   58.8750   33.0900   49.3230 O   0  0  0  0  0  0  0  0  0  0  0  0
   58.9640   33.4140   47.9830 C   0  0  0  0  0  0  0  0  0  0  0  0
   59.4230   34.6980   47.6700 C   0  0  0  0  0  0  0  0  0  0  0  0
   59.5280   35.0670   46.3250 C   0  0  0  0  0  0  0  0  0  0  0  0
   59.1750   34.1550   45.3780 C   0  0  0  0  0  0  0  0  0  0  0  0
   58.7180   32.8800   45.6900 C   0  0  0  0  0  0  0  0  0  0  0  0
   58.3770   32.0380   44.6000 N   0  0  0  0  0  0  0  0  0  0  0  0
   57.5710   31.0390   44.6840 C   0  0  0  0  0  0  0  0  0  0  0  0
   57.9690   29.8490   45.2500 C   0  0  0  0  0  0  0  0  0  0  0  0
   57.1110   28.7480   45.3570 C   0  0  0  0  0  0  0  0  0  0  0  0
   57.5370   27.5220   45.9130 N   0  0  0  0  0  0  0  0  0  0  0  0
   57.2740   26.2390   45.3950 C   0  0  0  0  0  0  0  0  0  0  0  0
   56.6310   25.2540   46.1310 C   0  0  0  0  0  0  0  0  0  0  0  0
   56.3690   24.0110   45.5720 C   0  0  0  0  0  0  0  0  0  0  0  0
   56.7550   23.7540   44.2630 C   0  0  0  0  0  0  0  0  0  0  0  0
   56.4110   22.1750   43.6000 S   0  0  0  0  0  0  0  0  0  0  0  0
   57.9060   21.2370   43.3830 C   0  0  0  0  0  0  0  0  0  0  0  0
   55.5330   21.4720   44.6300 O   0  0  0  0  0  0  0  0  0  0  0  0
   55.6870   22.3470   42.3130 O   0  0  0  0  0  0  0  0  0  0  0  0
   57.3940   24.7350   43.5380 C   0  0  0  0  0  0  0  0  0  0  0  0
   57.6650   25.9930   44.0870 C   0  0  0  0  0  0  0  0  0  0  0  0
   55.8630   28.9480   44.8600 N   0  0  0  0  0  0  0  0  0  0  0  0
   55.5110   30.1230   44.3140 C   0  0  0  0  0  0  0  0  0  0  0  0
   56.3360   31.1740   44.2140 N   0  0  0  0  0  0  0  0  0  0  0  0
   58.6120   32.5040   47.0110 C   0  0  0  0  0  0  0  0  0  0  0  0
   59.3446   33.4066   51.2990 H   0  0  0  0  0  0  0  0  0  0  0  0
   60.7379   33.2627   50.1745 H   0  0  0  0  0  0  0  0  0  0  0  0
   59.7338   34.7522   50.1745 H   0  0  0  0  0  0  0  0  0  0  0  0
   59.6964   35.4047   48.4674 H   0  0  0  0  0  0  0  0  0  0  0  0
   59.8862   36.0673   46.0401 H   0  0  0  0  0  0  0  0  0  0  0  0
   59.2550   34.4398   44.3185 H   0  0  0  0  0  0  0  0  0  0  0  0
   58.9969   29.7601   45.6315 H   0  0  0  0  0  0  0  0  0  0  0  0
   58.1060   27.5750   46.8000 H   0  0  0  0  0  0  0  0  0  0  0  0
   56.3260   25.4603   47.1675 H   0  0  0  0  0  0  0  0  0  0  0  0
   55.8592   23.2349   46.1616 H   0  0  0  0  0  0  0  0  0  0  0  0
   58.3215   20.9763   44.3676 H   0  0  0  0  0  0  0  0  0  0  0  0
   57.6833   20.3164   42.8236 H   0  0  0  0  0  0  0  0  0  0  0  0
   58.6380   21.8380   42.8236 H   0  0  0  0  0  0  0  0  0  0  0  0
   57.6987   24.5245   42.5022 H   0  0  0  0  0  0  0  0  0  0  0  0
   58.1755   26.7678   43.4961 H   0  0  0  0  0  0  0  0  0  0  0  0
   55.1510   28.2020   44.8770 H   0  0  0  0  0  0  0  0  0  0  0  0
   54.4869   30.2288   43.9267 H   0  0  0  0  0  0  0  0  0  0  0  0
   58.2544   31.5000   47.2833 H   0  0  0  0  0  0  0  0  0  0  0  0
  1  2  1  0
  2  3  1  0
  3  4  2  0
  4  5  1  0
  5  6  2  0
  6  7  1  0
  7  8  1  0
  8  9  2  0
  9 10  1  0
 10 11  2  0
 11 12  1  0
 12 13  1  0
 13 14  2  0
 14 15  1  0
 15 16  2  0
 16 17  1  0
 17 18  1  0
 17 19  2  0
 17 20  2  0
 16 21  1  0
 21 22  2  0
 11 23  1  0
 23 24  1  0
 24 25  2  0
  7 26  2  0
 26  3  1  0
 25  9  1  0
 22 13  1  0
  1 27  1  0
  1 28  1  0
  1 29  1  0
  4 30  1  0
  5 31  1  0
  6 32  1  0
 10 33  1  0
 12 34  1  0
 14 35  1  0
 15 36  1  0
 18 37  1  0
 18 38  1  0
 18 39  1  0
 21 40  1  0
 22 41  1  0
 23 42  1  0
 24 43  1  0
 26 44  1  0
M  END
>  <smiles>  (74) 
COc1cccc(N=c2cc(Nc3ccc(S(C)(=O)=O)cc3)[nH]cn2)c1

>  <score_type>  (74) 
oracle

>  <origin>  (74) 
adg

>  <m_score__min__energy>  (74) 
-8.8300000000000001

>  <m_primary>  (74) 
energy

$$$$
74:0
     RDKit          3D

 45 48  0  0  0  0  0  0  0  0999 V2000
   65.1330   32.2640   50.1190 C   0  0  0  0  0  0  0  0  0  0  0  0
   64.7170   33.3540   49.3020 O   0  0  0  0  0  0  0  0  0  0  0  0
   63.4710   33.4320   48.6630 C   0  0  0  0  0  0  0  0  0  0  0  0
   63.2550   32.9420   47.3600 C   0  0  0  0  0  0  0  0  0  0  0  0
   62.0000   33.0640   46.7550 C   0  0  0  0  0  0  0  0  0  0  0  0
   60.9460   33.6680   47.4440 C   0  0  0  0  0  0  0  0  0  0  0  0
   59.3690   33.8590   46.6820 S   0  0  0  0  0  0  0  0  0  0  0  0
   58.3040   33.4970   47.6790 O   0  0  0  0  0  0  0  0  0  0  0  0
   59.1550   35.2800   46.2350 O   0  0  0  0  0  0  0  0  0  0  0  0
   59.2380   32.8080   45.3080 N   0  0  0  0  0  0  0  0  0  0  0  0
   58.2910   31.7400   45.1720 C   0  0  0  0  0  0  0  0  0  0  0  0
   57.1540   31.8480   44.3550 C   0  0  0  0  0  0  0  0  0  0  0  0
   56.2410   30.7940   44.2770 C   0  0  0  0  0  0  0  0  0  0  0  0
   56.4530   29.6240   45.0040 C   0  0  0  0  0  0  0  0  0  0  0  0
   55.5190   28.5980   44.9370 O   0  0  0  0  0  0  0  0  0  0  0  0
   57.5980   29.4880   45.8010 C   0  0  0  0  0  0  0  0  0  0  0  0
   57.7330   28.3290   46.6370 N   0  0  0  0  0  0  0  0  0  0  0  0
   58.7310   28.0350   47.4180 C   0  0  0  0  0  0  0  0  0  0  0  0
   59.4970   26.7900   47.5400 C   0  0  0  0  0  0  0  0  0  0  0  0
   59.2810   25.7230   46.9050 O   0  0  0  0  0  0  0  0  0  0  0  0
   60.4860   26.8960   48.5690 N   0  0  0  0  0  0  0  0  0  0  0  0
   60.2890   28.2130   49.0870 C   0  0  0  0  0  0  0  0  0  0  0  0
   61.0140   28.8040   50.1210 C   0  0  0  0  0  0  0  0  0  0  0  0
   60.6830   30.1140   50.5050 C   0  0  0  0  0  0  0  0  0  0  0  0
   59.6390   30.8110   49.8580 C   0  0  0  0  0  0  0  0  0  0  0  0
   59.3300   32.1080   50.2570 O   0  0  0  0  0  0  0  0  0  0  0  0
   58.9190   30.1960   48.8160 C   0  0  0  0  0  0  0  0  0  0  0  0
   59.2680   28.8960   48.4550 C   0  0  0  0  0  0  0  0  0  0  0  0
   58.4980   30.5630   45.8980 C   0  0  0  0  0  0  0  0  0  0  0  0
   61.1560   34.1490   48.7440 C   0  0  0  0  0  0  0  0  0  0  0  0
   62.4110   34.0280   49.3510 C   0  0  0  0  0  0  0  0  0  0  0  0
   65.0280   32.5392   51.1788 H   0  0  0  0  0  0  0  0  0  0  0  0
   64.5070   31.3853   49.9046 H   0  0  0  0  0  0  0  0  0  0  0  0
   66.1853   32.0257   49.9046 H   0  0  0  0  0  0  0  0  0  0  0  0
   64.0795   32.4599   46.8144 H   0  0  0  0  0  0  0  0  0  0  0  0
   61.8428   32.6836   45.7349 H   0  0  0  0  0  0  0  0  0  0  0  0
   56.9818   32.7662   43.7743 H   0  0  0  0  0  0  0  0  0  0  0  0
   55.3501   30.8878   43.6386 H   0  0  0  0  0  0  0  0  0  0  0  0
   61.8255   28.2576   50.6239 H   0  0  0  0  0  0  0  0  0  0  0  0
   61.2422   30.6015   51.3172 H   0  0  0  0  0  0  0  0  0  0  0  0
   58.9940   32.7970   49.5960 H   0  0  0  0  0  0  0  0  0  0  0  0
   58.1042   30.7265   48.3015 H   0  0  0  0  0  0  0  0  0  0  0  0
   59.3770   30.4774   46.5538 H   0  0  0  0  0  0  0  0  0  0  0  0
   60.3285   34.6248   49.2906 H   0  0  0  0  0  0  0  0  0  0  0  0
   62.5636   34.4035   50.3736 H   0  0  0  0  0  0  0  0  0  0  0  0
  1  2  1  0
  2  3  1  0
  3  4  2  0
  4  5  1  0
  5  6  2  0
  6  7  1  0
  7  8  2  0
  7  9  2  0
  7 10  1  0
 10 11  1  0
 11 12  2  0
 12 13  1  0
 13 14  2  0
 14 15  1  0
 14 16  1  0
 16 17  1  0
 17 18  2  3
 18 19  1  0
 19 20  2  0
 19 21  1  0
 21 22  1  0
 22 23  2  0
 23 24  1  0
 24 25  2  0
 25 26  1  0
 25 27  1  0
 27 28  2  0
 16 29  2  0
  6 30  1  0
 30 31  2  0
 31  3  1  0
 29 11  1  0
 28 18  1  0
 28 22  1  0
  1 32  1  0
  1 33  1  0
  1 34  1  0
  4 35  1  0
  5 36  1  0
 12 37  1  0
 13 38  1  0
 23 39  1  0
 24 40  1  0
 26 41  1  0
 27 42  1  0
 29 43  1  0
 30 44  1  0
 31 45  1  0
M  CHG  3  10  -1  15  -1  21  -1
M  END
>  <UniqueID>  (75) 
69

>  <SMILES>  (75) 
COc1ccc(S(=O)(=O)[N-]c2ccc([O-])c(N=C3C(=O)[N-]c4ccc(O)cc43)c2)cc1

>  <Energy>  (75) 
90.47939554524275

>  <Genealogy>  (75) 
COc1ccc(S(=O)(=O)[N-]c2ccc([O-])c(N=C3C(=O)[N-]c4ccc(O)cc43)c2)cc1 (protonated)
COc1ccc(S(=O)(=O)[N-]c2ccc([O-])c(N=C3C(=O)[N-]c4ccc(O)cc43)c2)cc1 (3D coordinates assigned)
COc1ccc(S(=O)(=O)[N-]c2ccc([O-])c(N=C3C(=O)[N-]c4ccc(O)cc43)c2)cc1 (nonaromatic ring conformer: 90.47939554524275 kcal/mol)

>  <smiles>  (75) 
COc1ccc(S(=O)(=O)Nc2ccc(O)c(N=C3C(=O)Nc4ccc(O)cc43)c2)cc1

>  <score_type>  (75) 
oracle

>  <origin>  (75) 
adg

>  <m_score__min__energy>  (75) 
-14.109999999999999

>  <m_primary>  (75) 
energy

$$$$
75:0
     RDKit          3D

 52 54  0  0  0  0  0  0  0  0999 V2000
   54.3940   29.3650   45.4060 H   0  0  0  0  0  0  0  0  0  0  0  0
   55.2530   29.1100   44.8680 N   0  0  0  0  0  0  0  0  0  0  0  0
   56.3810   29.9820   44.8280 C   0  0  0  0  0  0  0  0  0  0  0  0
   56.2150   31.1830   44.4790 O   0  0  0  0  0  0  0  0  0  0  0  0
   57.7310   29.4870   45.1890 C   0  0  0  0  0  0  0  0  0  0  0  0
   58.2560   28.3300   44.5820 C   0  0  0  0  0  0  0  0  0  0  0  0
   57.6523   27.7760   43.8481 H   0  0  0  0  0  0  0  0  0  0  0  0
   59.5390   27.8810   44.9060 C   0  0  0  0  0  0  0  0  0  0  0  0
   59.9455   26.9825   44.4188 H   0  0  0  0  0  0  0  0  0  0  0  0
   60.3050   28.5700   45.8460 C   0  0  0  0  0  0  0  0  0  0  0  0
   61.3186   28.2182   46.0887 H   0  0  0  0  0  0  0  0  0  0  0  0
   59.7910   29.7090   46.4840 C   0  0  0  0  0  0  0  0  0  0  0  0
   60.5750   30.4230   47.4550 N   0  0  0  0  0  0  0  0  0  0  0  0
   61.5840   31.2130   47.1310 N   0  0  0  0  0  0  0  0  0  0  0  0
   62.0830   31.7430   48.2690 C   0  0  0  0  0  0  0  0  0  0  0  0
   63.2960   32.6550   48.3290 C   0  0  0  0  0  0  0  0  0  0  0  0
   63.7790   32.9770   46.9000 C   0  0  0  0  0  0  0  0  0  0  0  0
   64.6933   33.5865   46.9506 H   0  0  0  0  0  0  0  0  0  0  0  0
   63.9923   32.0398   46.3651 H   0  0  0  0  0  0  0  0  0  0  0  0
   62.9959   33.5344   46.3651 H   0  0  0  0  0  0  0  0  0  0  0  0
   62.9100   33.9580   49.0510 C   0  0  0  0  0  0  0  0  0  0  0  0
   62.9562   33.8019   50.1389 H   0  0  0  0  0  0  0  0  0  0  0  0
   63.6101   34.7568   48.7651 H   0  0  0  0  0  0  0  0  0  0  0  0
   61.8878   34.2466   48.7651 H   0  0  0  0  0  0  0  0  0  0  0  0
   64.4480   31.9710   49.0980 C   0  0  0  0  0  0  0  0  0  0  0  0
   64.2775   32.0722   50.1800 H   0  0  0  0  0  0  0  0  0  0  0  0
   64.4849   30.9046   48.8308 H   0  0  0  0  0  0  0  0  0  0  0  0
   65.4019   32.4491   48.8308 H   0  0  0  0  0  0  0  0  0  0  0  0
   61.3650   31.2680   49.3600 C   0  0  0  0  0  0  0  0  0  0  0  0
   61.5208   31.4961   50.4248 H   0  0  0  0  0  0  0  0  0  0  0  0
   60.4080   30.4410   48.7960 C   0  0  0  0  0  0  0  0  0  0  0  0
   59.4380   29.8140   49.4030 N   0  0  0  0  0  0  0  0  0  0  0  0
   58.5210   30.3200   50.3920 C   0  0  0  0  0  0  0  0  0  0  0  0
   58.0330   29.5680   51.2750 O   0  0  0  0  0  0  0  0  0  0  0  0
   58.2130   31.7180   50.4310 N   0  0  0  0  0  0  0  0  0  0  0  0
   58.5270   32.6480   49.3860 C   0  0  0  0  0  0  0  0  0  0  0  0
   59.4440   33.6740   49.6350 C   0  0  0  0  0  0  0  0  0  0  0  0
   59.9043   33.7674   50.6297 H   0  0  0  0  0  0  0  0  0  0  0  0
   59.7790   34.5830   48.6240 C   0  0  0  0  0  0  0  0  0  0  0  0
   60.5084   35.3820   48.8231 H   0  0  0  0  0  0  0  0  0  0  0  0
   59.1870   34.4760   47.3610 C   0  0  0  0  0  0  0  0  0  0  0  0
   59.6340   35.6250   46.0570 S   0  0  0  0  0  0  0  0  0  0  0  0
   59.1640   34.4820   44.7210 C   0  0  0  0  0  0  0  0  0  0  0  0
   58.7798   33.5476   45.1561 H   0  0  0  0  0  0  0  0  0  0  0  0
   58.3834   34.9453   44.0997 H   0  0  0  0  0  0  0  0  0  0  0  0
   60.0447   34.2622   44.0997 H   0  0  0  0  0  0  0  0  0  0  0  0
   58.2380   33.4770   47.1190 C   0  0  0  0  0  0  0  0  0  0  0  0
   57.7559   33.4037   46.1330 H   0  0  0  0  0  0  0  0  0  0  0  0
   57.9020   32.5710   48.1310 C   0  0  0  0  0  0  0  0  0  0  0  0
   57.1452   31.7953   47.9426 H   0  0  0  0  0  0  0  0  0  0  0  0
   58.5120   30.1730   46.1370 C   0  0  0  0  0  0  0  0  0  0  0  0
   58.1163   31.0830   46.6117 H   0  0  0  0  0  0  0  0  0  0  0  0
  1  2  1  0
  2  3  1  0
  3  4  2  0
  3  5  1  0
  5  6  2  0
  6  7  1  0
  6  8  1  0
  8  9  1  0
  8 10  2  0
 10 11  1  0
 10 12  1  0
 12 13  1  0
 13 14  1  0
 14 15  1  0
 15 16  1  0
 16 17  1  0
 17 18  1  0
 17 19  1  0
 17 20  1  0
 16 21  1  0
 21 22  1  0
 21 23  1  0
 21 24  1  0
 16 25  1  0
 25 26  1  0
 25 27  1  0
 25 28  1  0
 15 29  2  0
 29 30  1  0
 29 31  1  0
 31 32  2  0
 32 33  1  0
 33 34  2  0
 33 35  1  0
 35 36  1  0
 36 37  2  0
 37 38  1  0
 37 39  1  0
 39 40  1  0
 39 41  2  0
 41 42  1  0
 42 43  1  0
 43 44  1  0
 43 45  1  0
 43 46  1  0
 41 47  1  0
 47 48  1  0
 47 49  2  0
 49 50  1  0
 12 51  2  0
 51 52  1  0
 51  5  1  0
 31 13  1  0
 49 36  1  0
M  CHG  3   2  -1  14  -1  35  -1
M  END
>  <UniqueID>  (76) 
70

>  <SMILES>  (76) 
CSc1ccc([N-]C(=O)/N=c2\cc(C(C)(C)C)[n-]n2-c2cccc(C([NH-])=O)c2)cc1

>  <Energy>  (76) 
87.3421904571621

>  <Genealogy>  (76) 
CSc1ccc([N-]C(=O)N=c2cc(C(C)(C)C)[n-]n2-c2cccc(C([NH-])=O)c2)cc1 (protonated)
CSc1ccc([N-]C(=O)/N=c2\cc(C(C)(C)C)[n-]n2-c2cccc(C([NH-])=O)c2)cc1 (cis-trans isomerization)
CSc1ccc([N-]C(=O)/N=c2\cc(C(C)(C)C)[n-]n2-c2cccc(C([NH-])=O)c2)cc1 (3D coordinates assigned)
CSc1ccc([N-]C(=O)/N=c2\cc(C(C)(C)C)[n-]n2-c2cccc(C([NH-])=O)c2)cc1 (optimized conformer: 87.3421904571621 kcal/mol)

>  <smiles>  (76) 
CSc1ccc(NC(=O)N=c2cc(C(C)(C)C)[nH]n2-c2cccc(C(N)=O)c2)cc1

>  <score_type>  (76) 
oracle

>  <origin>  (76) 
adg

>  <m_score__min__energy>  (76) 
-13.789999999999999

>  <m_primary>  (76) 
energy

$$$$
76:0
     RDKit          3D

 36 38  0  0  1  0  0  0  0  0999 V2000
   56.1490   24.0280   47.1050 C   0  0  0  0  0  0  0  0  0  0  0  0
   57.0190   25.0760   46.6060 N   0  0  0  0  0  0  0  0  0  0  0  0
   56.4280   26.2390   46.0400 C   0  0  0  0  0  0  0  0  0  0  0  0
   55.1930   26.3140   45.9930 O   0  0  0  0  0  0  0  0  0  0  0  0
   57.2240   27.3440   45.5110 C   0  0  0  0  0  0  0  0  0  0  0  0
   58.5190   27.0510   45.1330 C   0  0  0  0  0  0  0  0  0  0  0  0
   59.3580   28.0410   44.6150 C   0  0  0  0  0  0  0  0  0  0  0  0
   58.8740   29.3430   44.4820 C   0  0  0  0  0  0  0  0  0  0  0  0
   57.5810   29.6370   44.8600 C   0  0  0  0  0  0  0  0  0  0  0  0
   57.0130   30.9400   44.7550 N   0  0  0  0  0  0  0  0  0  0  0  0
   57.6350   31.9370   45.2540 C   0  0  0  0  0  0  0  0  0  0  0  0
   58.9100   31.8640   45.7250 N   0  0  0  0  0  0  0  0  0  0  0  0
   59.5170   32.9610   46.2450 C   0  0  0  0  0  0  0  0  0  0  0  0
   60.9020   32.8550   46.7510 C   0  0  0  0  0  0  0  0  0  0  0  0
   61.8470   33.7430   46.6220 C   0  0  0  0  0  0  0  0  0  0  0  0
   63.1080   33.5520   47.1300 C   0  0  0  0  0  0  0  0  0  0  0  0
   62.9830   31.8620   47.9240 S   0  0  0  0  0  0  0  0  0  0  0  0
   61.2250   31.6290   47.4630 C   0  0  0  0  0  0  0  0  0  0  0  0
   58.8660   34.1780   46.3110 C   0  0  0  0  0  0  0  0  0  0  0  0
   59.4920   35.2710   46.8360 F   0  0  0  0  0  0  0  0  0  0  0  0
   57.5800   34.2240   45.8280 C   0  0  0  0  0  0  0  0  0  0  0  0
   56.9930   33.1240   45.3150 N   0  0  0  0  0  0  0  0  0  0  0  0
   56.7690   28.6200   45.3730 C   0  0  0  0  0  0  0  0  0  0  0  0
   56.1570   24.0376   48.2049 H   0  0  0  0  0  0  0  0  0  0  0  0
   55.1241   24.1995   46.7442 H   0  0  0  0  0  0  0  0  0  0  0  0
   56.5062   23.0522   46.7442 H   0  0  0  0  0  0  0  0  0  0  0  0
   58.0570   24.9800   46.6600 H   0  0  0  0  0  0  0  0  0  0  0  0
   58.8958   26.0232   45.2412 H   0  0  0  0  0  0  0  0  0  0  0  0
   60.3879   27.7969   44.3156 H   0  0  0  0  0  0  0  0  0  0  0  0
   59.5227   30.1333   44.0764 H   0  0  0  0  0  0  0  0  0  0  0  0
   61.6265   34.6786   46.0872 H   0  0  0  0  0  0  0  0  0  0  0  0
   63.9765   34.2254   47.0822 H   0  0  0  0  0  0  0  0  0  0  0  0
   60.5718   30.7694   47.6739 H   0  0  0  0  0  0  0  0  0  0  0  0
   57.0220   35.1714   45.8604 H   0  0  0  0  0  0  0  0  0  0  0  0
   56.0150   33.2010   44.9590 H   0  0  0  0  0  0  0  0  0  0  0  0
   55.7374   28.8569   45.6723 H   0  0  0  0  0  0  0  0  0  0  0  0
  1  2  1  0
  2  3  1  0
  3  4  2  0
  3  5  1  0
  5  6  2  0
  6  7  1  0
  7  8  2  0
  8  9  1  0
  9 10  1  0
 10 11  2  0
 11 12  1  0
 12 13  2  0
 13 14  1  0
 14 15  1  0
 15 16  2  0
 16 17  1  0
 17 18  1  0
 13 19  1  0
 19 20  1  0
 19 21  2  0
 21 22  1  0
  9 23  2  0
 23  5  1  0
 22 11  1  0
 18 14  2  0
  1 24  1  0
  1 25  1  0
  1 26  1  0
  2 27  1  0
  6 28  1  0
  7 29  1  0
  8 30  1  0
 15 31  1  0
 16 32  1  0
 18 33  1  0
 21 34  1  0
 22 35  1  0
 23 36  1  0
M  END
>  <smiles>  (77) 
CNC(=O)c1cccc(N=c2nc(-c3ccsc3)c(F)c[nH]2)c1

>  <score_type>  (77) 
oracle

>  <origin>  (77) 
adg

>  <m_score__min__energy>  (77) 
-7.8899999999999997

>  <m_primary>  (77) 
energy

$$$$
77:0
     RDKit          3D

 32 33  0  0  1  0  0  0  0  0999 V2000
   56.5990   29.6010   42.5930 N   0  0  0  0  0  0  0  0  0  0  0  0
   56.2330   29.8070   43.9530 C   0  0  0  0  0  0  0  0  0  0  0  0
   55.1290   29.3510   44.3860 O   0  0  0  0  0  0  0  0  0  0  0  0
   57.1210   30.5370   44.8500 C   0  0  0  0  0  0  0  0  0  0  0  0
   57.3360   31.8830   44.6530 C   0  0  0  0  0  0  0  0  0  0  0  0
   58.1760   32.5790   45.4990 C   0  0  0  0  0  0  0  0  0  0  0  0
   58.3730   33.8200   45.3160 N   0  0  0  0  0  0  0  0  0  0  0  0
   59.6040   34.5050   45.5290 C   0  0  0  0  0  0  0  0  0  0  0  0
   59.8280   34.9370   46.9720 C   0  0  0  0  0  0  0  0  0  0  0  0
   61.0700   34.2140   47.4240 C   0  0  0  0  0  0  0  0  0  0  0  0
   61.2800   33.9350   48.7600 C   0  0  0  0  0  0  0  0  0  0  0  0
   62.4580   33.2610   49.0940 C   0  0  0  0  0  0  0  0  0  0  0  0
   63.3740   32.8940   48.1050 C   0  0  0  0  0  0  0  0  0  0  0  0
   63.1290   33.1930   46.7610 C   0  0  0  0  0  0  0  0  0  0  0  0
   61.9560   33.8620   46.4370 C   0  0  0  0  0  0  0  0  0  0  0  0
   58.7970   31.9690   46.5220 N   0  0  0  0  0  0  0  0  0  0  0  0
   58.5680   30.6580   46.6870 C   0  0  0  0  0  0  0  0  0  0  0  0
   57.7570   29.9380   45.8900 N   0  0  0  0  0  0  0  0  0  0  0  0
   57.5830   29.7560   42.2880 H   0  0  0  0  0  0  0  0  0  0  0  0
   55.8680   29.2940   41.9080 H   0  0  0  0  0  0  0  0  0  0  0  0
   56.8384   32.4035   43.8215 H   0  0  0  0  0  0  0  0  0  0  0  0
   60.4273   33.8371   45.2356 H   0  0  0  0  0  0  0  0  0  0  0  0
   59.5680   35.4223   44.9230 H   0  0  0  0  0  0  0  0  0  0  0  0
   59.9756   36.0256   47.0283 H   0  0  0  0  0  0  0  0  0  0  0  0
   58.9631   34.6961   47.6076 H   0  0  0  0  0  0  0  0  0  0  0  0
   60.5510   34.2307   49.5289 H   0  0  0  0  0  0  0  0  0  0  0  0
   62.6660   33.0170   50.1462 H   0  0  0  0  0  0  0  0  0  0  0  0
   64.2965   32.3649   48.3861 H   0  0  0  0  0  0  0  0  0  0  0  0
   63.8478   32.9053   45.9796 H   0  0  0  0  0  0  0  0  0  0  0  0
   61.7368   34.1100   45.3880 H   0  0  0  0  0  0  0  0  0  0  0  0
   59.4240   32.5160   47.1430 H   0  0  0  0  0  0  0  0  0  0  0  0
   59.0704   30.1430   47.5191 H   0  0  0  0  0  0  0  0  0  0  0  0
  1  2  1  0
  2  3  2  0
  2  4  1  0
  4  5  2  0
  5  6  1  0
  6  7  2  0
  7  8  1  0
  8  9  1  0
  9 10  1  0
 10 11  2  0
 11 12  1  0
 12 13  2  0
 13 14  1  0
 14 15  2  0
  6 16  1  0
 16 17  1  0
 17 18  2  0
 18  4  1  0
 15 10  1  0
  1 19  1  0
  1 20  1  0
  5 21  1  0
  8 22  1  0
  8 23  1  0
  9 24  1  0
  9 25  1  0
 11 26  1  0
 12 27  1  0
 13 28  1  0
 14 29  1  0
 15 30  1  0
 16 31  1  0
 17 32  1  0
M  END
>  <smiles>  (78) 
NC(=O)c1cc(=NCCc2ccccc2)[nH]cn1

>  <score_type>  (78) 
oracle

>  <origin>  (78) 
adg

>  <m_score__min__energy>  (78) 
-7

>  <m_primary>  (78) 
energy

$$$$
78:0
     RDKit          3D

 46 48  0  0  0  0  0  0  0  0999 V2000
   56.3910   22.9680   42.8800 C   0  0  0  0  0  0  0  0  0  0  0  0
   56.4020   22.3370   44.2120 N   0  0  0  0  0  0  0  0  0  0  0  0
   55.1520   22.6020   44.9550 C   0  0  0  0  0  0  0  0  0  0  0  0
   55.0330   24.0790   45.3660 C   0  0  0  0  0  0  0  0  0  0  0  0
   56.3270   24.6060   45.8080 N   0  0  0  0  0  0  0  0  0  0  0  0
   56.4700   26.0160   46.0660 C   0  0  0  0  0  0  0  0  0  0  0  0
   55.4540   26.6980   46.3700 O   0  0  0  0  0  0  0  0  0  0  0  0
   57.7760   26.6920   45.9140 C   0  0  0  0  0  0  0  0  0  0  0  0
   58.9520   25.9430   46.0910 C   0  0  0  0  0  0  0  0  0  0  0  0
   60.2040   26.5530   45.9960 C   0  0  0  0  0  0  0  0  0  0  0  0
   60.2970   27.9170   45.7260 C   0  0  0  0  0  0  0  0  0  0  0  0
   59.1380   28.6770   45.5510 C   0  0  0  0  0  0  0  0  0  0  0  0
   57.8720   28.0770   45.6400 C   0  0  0  0  0  0  0  0  0  0  0  0
   56.7010   28.8910   45.5240 N   0  0  0  0  0  0  0  0  0  0  0  0
   56.5980   30.1010   44.2900 S   0  0  0  0  0  0  0  0  0  0  0  0
   57.1540   29.5690   42.9990 O   0  0  0  0  0  0  0  0  0  0  0  0
   55.1560   30.4670   44.0750 O   0  0  0  0  0  0  0  0  0  0  0  0
   57.4980   31.5250   44.8020 C   0  0  0  0  0  0  0  0  0  0  0  0
   57.8500   31.6840   46.1490 C   0  0  0  0  0  0  0  0  0  0  0  0
   58.5240   32.8360   46.5680 C   0  0  0  0  0  0  0  0  0  0  0  0
   58.8490   33.8330   45.6440 C   0  0  0  0  0  0  0  0  0  0  0  0
   59.6750   35.2870   46.1740 Cl  0  0  0  0  0  0  0  0  0  0  0  0
   58.5020   33.6770   44.2970 C   0  0  0  0  0  0  0  0  0  0  0  0
   57.8220   32.5290   43.8780 C   0  0  0  0  0  0  0  0  0  0  0  0
   57.3950   23.6560   46.1420 C   0  0  0  0  0  0  0  0  0  0  0  0
   57.6310   22.6800   44.9750 C   0  0  0  0  0  0  0  0  0  0  0  0
   56.3719   24.0620   42.9927 H   0  0  0  0  0  0  0  0  0  0  0  0
   57.2944   22.6721   42.3266 H   0  0  0  0  0  0  0  0  0  0  0  0
   55.4984   22.6408   42.3266 H   0  0  0  0  0  0  0  0  0  0  0  0
   54.2958   22.3404   44.3159 H   0  0  0  0  0  0  0  0  0  0  0  0
   55.1633   21.9926   45.8707 H   0  0  0  0  0  0  0  0  0  0  0  0
   54.6810   24.6651   44.5043 H   0  0  0  0  0  0  0  0  0  0  0  0
   54.3199   24.1548   46.2001 H   0  0  0  0  0  0  0  0  0  0  0  0
   58.8852   24.8664   46.3063 H   0  0  0  0  0  0  0  0  0  0  0  0
   61.1179   25.9566   46.1344 H   0  0  0  0  0  0  0  0  0  0  0  0
   61.2844   28.3959   45.6506 H   0  0  0  0  0  0  0  0  0  0  0  0
   59.2180   29.7540   45.3418 H   0  0  0  0  0  0  0  0  0  0  0  0
   56.0110   28.9320   46.3070 H   0  0  0  0  0  0  0  0  0  0  0  0
   57.5957   30.9011   46.8787 H   0  0  0  0  0  0  0  0  0  0  0  0
   58.7986   32.9573   47.6262 H   0  0  0  0  0  0  0  0  0  0  0  0
   58.7642   34.4576   43.5677 H   0  0  0  0  0  0  0  0  0  0  0  0
   57.5405   32.4132   42.8209 H   0  0  0  0  0  0  0  0  0  0  0  0
   58.3232   24.2107   46.3437 H   0  0  0  0  0  0  0  0  0  0  0  0
   57.0961   23.0821   47.0316 H   0  0  0  0  0  0  0  0  0  0  0  0
   58.3513   23.1386   44.2815 H   0  0  0  0  0  0  0  0  0  0  0  0
   58.0025   21.7430   45.4155 H   0  0  0  0  0  0  0  0  0  0  0  0
  1  2  1  0
  2  3  1  0
  3  4  1  0
  4  5  1  0
  5  6  1  0
  6  7  2  0
  6  8  1  0
  8  9  2  0
  9 10  1  0
 10 11  2  0
 11 12  1  0
 12 13  2  0
 13 14  1  0
 14 15  1  0
 15 16  2  0
 15 17  2  0
 15 18  1  0
 18 19  2  0
 19 20  1  0
 20 21  2  0
 21 22  1  0
 21 23  1  0
 23 24  2  0
  5 25  1  0
 25 26  1  0
 26  2  1  0
 13  8  1  0
 24 18  1  0
  1 27  1  0
  1 28  1  0
  1 29  1  0
  3 30  1  0
  3 31  1  0
  4 32  1  0
  4 33  1  0
  9 34  1  0
 10 35  1  0
 11 36  1  0
 12 37  1  0
 14 38  1  0
 19 39  1  0
 20 40  1  0
 23 41  1  0
 24 42  1  0
 25 43  1  0
 25 44  1  0
 26 45  1  0
 26 46  1  0
M  END
>  <UniqueID>  (79) 
71

>  <SMILES>  (79) 
CN1CCN(C(=O)c2ccccc2NS(=O)(=O)c2ccc(Cl)cc2)CC1

>  <Energy>  (79) 
63.788648863623926

>  <Genealogy>  (79) 
CN1CCN(C(=O)c2ccccc2NS(=O)(=O)c2ccc(Cl)cc2)CC1 (3D coordinates assigned)
CN1CCN(C(=O)c2ccccc2NS(=O)(=O)c2ccc(Cl)cc2)CC1 (nonaromatic ring conformer: 63.788648863623926 kcal/mol)

>  <smiles>  (79) 
CN1CCN(C(=O)c2ccccc2NS(=O)(=O)c2ccc(Cl)cc2)CC1

>  <score_type>  (79) 
oracle

>  <origin>  (79) 
adg

>  <m_score__min__energy>  (79) 
-9.8499999999999996

>  <m_primary>  (79) 
energy

$$$$
79:0
     RDKit          3D

 68 72  0  0  0  0  0  0  0  0999 V2000
   61.1890   29.0830   52.0110 C   0  0  0  0  0  0  0  0  0  0  0  0
   61.5710   29.9620   50.8610 C   0  0  0  0  0  0  0  0  0  0  0  0
   62.4480   30.9880   50.9760 N   0  0  0  0  0  0  0  0  0  0  0  0
   62.5410   31.5320   49.7520 C   0  0  0  0  0  0  0  0  0  0  0  0
   63.3460   32.6090   49.3750 C   0  0  0  0  0  0  0  0  0  0  0  0
   63.3250   33.0060   48.0270 C   0  0  0  0  0  0  0  0  0  0  0  0
   62.5130   32.3270   47.0940 C   0  0  0  0  0  0  0  0  0  0  0  0
   61.7130   31.2430   47.4990 C   0  0  0  0  0  0  0  0  0  0  0  0
   61.7410   30.8730   48.8490 C   0  0  0  0  0  0  0  0  0  0  0  0
   61.0990   29.8570   49.5470 C   0  0  0  0  0  0  0  0  0  0  0  0
   60.1350   28.8650   49.0210 C   0  0  0  0  0  0  0  0  0  0  0  0
   58.9070   28.9870   49.2720 O   0  0  0  0  0  0  0  0  0  0  0  0
   60.5940   27.7660   48.2280 N   0  0  0  0  0  0  0  0  0  0  0  0
   60.4150   27.6720   46.7840 C   0  0  0  0  0  0  0  0  0  0  0  0
   60.2670   26.2080   46.3500 C   0  0  0  0  0  0  0  0  0  0  0  0
   58.9910   25.9750   45.5330 C   0  0  0  0  0  0  0  0  0  0  0  0
   58.0420   27.0980   45.7350 N   0  0  0  0  0  0  0  0  0  0  0  0
   56.9930   26.7330   46.7030 C   0  0  0  0  0  0  0  0  0  0  0  0
   57.4260   27.5500   44.4690 C   0  0  0  0  0  0  0  0  0  0  0  0
   57.9970   28.9100   44.0380 C   0  0  0  0  0  0  0  0  0  0  0  0
   56.8890   29.9380   43.8090 C   0  0  0  0  0  0  0  0  0  0  0  0
   56.8000   30.8450   44.9510 N   0  0  0  0  0  0  0  0  0  0  0  0
   57.7850   30.9700   45.9840 C   0  0  0  0  0  0  0  0  0  0  0  0
   58.0570   29.9610   46.6860 O   0  0  0  0  0  0  0  0  0  0  0  0
   58.4640   32.2530   46.2730 C   0  0  0  0  0  0  0  0  0  0  0  0
   58.7600   33.1370   45.2210 C   0  0  0  0  0  0  0  0  0  0  0  0
   59.3630   34.3730   45.4750 C   0  0  0  0  0  0  0  0  0  0  0  0
   59.6630   34.7520   46.7850 C   0  0  0  0  0  0  0  0  0  0  0  0
   59.3560   33.8980   47.8470 C   0  0  0  0  0  0  0  0  0  0  0  0
   59.6280   34.2700   49.1270 N   0  0  0  0  0  0  0  0  0  0  0  0
   59.3320   33.4560   50.1730 C   0  0  0  0  0  0  0  0  0  0  0  0
   59.6090   33.8520   51.4870 C   0  0  0  0  0  0  0  0  0  0  0  0
   59.2960   33.0010   52.5520 C   0  0  0  0  0  0  0  0  0  0  0  0
   58.7080   31.7540   52.3080 C   0  0  0  0  0  0  0  0  0  0  0  0
   58.4260   31.3530   50.9970 C   0  0  0  0  0  0  0  0  0  0  0  0
   58.7350   32.2010   49.9280 C   0  0  0  0  0  0  0  0  0  0  0  0
   58.4640   31.8290   48.6490 N   0  0  0  0  0  0  0  0  0  0  0  0
   58.7520   32.6440   47.5970 C   0  0  0  0  0  0  0  0  0  0  0  0
   61.4130   29.5984   52.9566 H   0  0  0  0  0  0  0  0  0  0  0  0
   60.1129   28.8603   51.9607 H   0  0  0  0  0  0  0  0  0  0  0  0
   61.7604   28.1444   51.9607 H   0  0  0  0  0  0  0  0  0  0  0  0
   62.9530   31.2890   51.8380 H   0  0  0  0  0  0  0  0  0  0  0  0
   63.9768   33.1303   50.1101 H   0  0  0  0  0  0  0  0  0  0  0  0
   63.9459   33.8519   47.6970 H   0  0  0  0  0  0  0  0  0  0  0  0
   62.5054   32.6477   46.0418 H   0  0  0  0  0  0  0  0  0  0  0  0
   61.0841   30.7022   46.7765 H   0  0  0  0  0  0  0  0  0  0  0  0
   59.5104   28.2274   46.4954 H   0  0  0  0  0  0  0  0  0  0  0  0
   61.2996   28.0997   46.2894 H   0  0  0  0  0  0  0  0  0  0  0  0
   61.1367   25.9303   45.7364 H   0  0  0  0  0  0  0  0  0  0  0  0
   60.2055   25.5901   47.2579 H   0  0  0  0  0  0  0  0  0  0  0  0
   59.2500   25.9054   44.4662 H   0  0  0  0  0  0  0  0  0  0  0  0
   58.5171   25.0398   45.8657 H   0  0  0  0  0  0  0  0  0  0  0  0
   57.3755   26.8661   47.7257 H   0  0  0  0  0  0  0  0  0  0  0  0
   56.1150   27.3785   46.5530 H   0  0  0  0  0  0  0  0  0  0  0  0
   56.7053   25.6819   46.5530 H   0  0  0  0  0  0  0  0  0  0  0  0
   57.6308   26.8078   43.6834 H   0  0  0  0  0  0  0  0  0  0  0  0
   56.3420   27.6561   44.6231 H   0  0  0  0  0  0  0  0  0  0  0  0
   58.6704   29.2802   44.8251 H   0  0  0  0  0  0  0  0  0  0  0  0
   58.5390   28.7713   43.0909 H   0  0  0  0  0  0  0  0  0  0  0  0
   57.1126   30.5174   42.9011 H   0  0  0  0  0  0  0  0  0  0  0  0
   55.9298   29.4125   43.6917 H   0  0  0  0  0  0  0  0  0  0  0  0
   58.5147   32.8536   44.1868 H   0  0  0  0  0  0  0  0  0  0  0  0
   59.6017   35.0486   44.6404 H   0  0  0  0  0  0  0  0  0  0  0  0
   60.1411   35.7231   46.9807 H   0  0  0  0  0  0  0  0  0  0  0  0
   60.0720   34.8307   51.6815 H   0  0  0  0  0  0  0  0  0  0  0  0
   59.5125   33.3124   53.5845 H   0  0  0  0  0  0  0  0  0  0  0  0
   58.4669   31.0874   53.1492 H   0  0  0  0  0  0  0  0  0  0  0  0
   57.9626   30.3735   50.8076 H   0  0  0  0  0  0  0  0  0  0  0  0
  1  2  1  0
  2  3  1  0
  3  4  1  0
  4  5  2  0
  5  6  1  0
  6  7  2  0
  7  8  1  0
  8  9  2  0
  9 10  1  0
 10 11  1  0
 11 12  2  0
 11 13  1  0
 13 14  1  0
 14 15  1  0
 15 16  1  0
 16 17  1  0
 17 18  1  0
 17 19  1  0
 19 20  1  0
 20 21  1  0
 21 22  1  0
 22 23  1  0
 23 24  2  0
 23 25  1  0
 25 26  2  0
 26 27  1  0
 27 28  2  0
 28 29  1  0
 29 30  2  0
 30 31  1  0
 31 32  2  0
 32 33  1  0
 33 34  2  0
 34 35  1  0
 35 36  2  0
 36 37  1  0
 37 38  2  0
 10  2  2  0
 38 25  1  0
  9  4  1  0
 38 29  1  0
 36 31  1  0
  1 39  1  0
  1 40  1  0
  1 41  1  0
  3 42  1  0
  5 43  1  0
  6 44  1  0
  7 45  1  0
  8 46  1  0
 14 47  1  0
 14 48  1  0
 15 49  1  0
 15 50  1  0
 16 51  1  0
 16 52  1  0
 18 53  1  0
 18 54  1  0
 18 55  1  0
 19 56  1  0
 19 57  1  0
 20 58  1  0
 20 59  1  0
 21 60  1  0
 21 61  1  0
 26 62  1  0
 27 63  1  0
 28 64  1  0
 32 65  1  0
 33 66  1  0
 34 67  1  0
 35 68  1  0
M  CHG  2  13  -1  22  -1
M  END
>  <UniqueID>  (80) 
72

>  <SMILES>  (80) 
Cc1[nH]c2ccccc2c1C(=O)[N-]CCCN(C)CCC[N-]C(=O)c1cccc2nc3ccccc3nc12

>  <Energy>  (80) 
113.06926775692895

>  <Genealogy>  (80) 
Cc1[nH]c2ccccc2c1C(=O)[N-]CCCN(C)CCC[N-]C(=O)c1cccc2nc3ccccc3nc12 (protonated)
Cc1[nH]c2ccccc2c1C(=O)[N-]CCCN(C)CCC[N-]C(=O)c1cccc2nc3ccccc3nc12 (3D coordinates assigned)
Cc1[nH]c2ccccc2c1C(=O)[N-]CCCN(C)CCC[N-]C(=O)c1cccc2nc3ccccc3nc12 (optimized conformer: 113.06926775692895 kcal/mol)

>  <smiles>  (80) 
Cc1[nH]c2ccccc2c1C(=O)NCCCN(C)CCCNC(=O)c1cccc2nc3ccccc3nc12

>  <score_type>  (80) 
oracle

>  <origin>  (80) 
adg

>  <m_score__min__energy>  (80) 
-12.630000000000001

>  <m_primary>  (80) 
energy

$$$$
80:0
     RDKit          3D

 55 57  0  0  0  0  0  0  0  0999 V2000
   57.8200   26.1780   42.9660 C   0  0  0  0  0  0  0  0  0  0  0  0
   57.1820   25.3440   43.9310 O   0  0  0  0  0  0  0  0  0  0  0  0
   57.1190   23.9440   43.8580 C   0  0  0  0  0  0  0  0  0  0  0  0
   56.6050   23.2830   42.7180 C   0  0  0  0  0  0  0  0  0  0  0  0
   56.6210   21.8900   42.6410 C   0  0  0  0  0  0  0  0  0  0  0  0
   57.1550   21.1400   43.6890 C   0  0  0  0  0  0  0  0  0  0  0  0
   57.6530   21.7800   44.8280 C   0  0  0  0  0  0  0  0  0  0  0  0
   57.6080   23.1730   44.9370 C   0  0  0  0  0  0  0  0  0  0  0  0
   58.0950   23.7700   46.1450 N   0  0  0  0  0  0  0  0  0  0  0  0
   57.2110   24.9070   47.1120 S   0  0  0  0  0  0  0  0  0  0  0  0
   57.6970   24.8760   48.5360 O   0  0  0  0  0  0  0  0  0  0  0  0
   55.7480   24.5580   47.0850 O   0  0  0  0  0  0  0  0  0  0  0  0
   57.4850   26.5260   46.4660 C   0  0  0  0  0  0  0  0  0  0  0  0
   58.7660   27.1000   46.5150 C   0  0  0  0  0  0  0  0  0  0  0  0
   58.9940   28.3830   45.9840 C   0  0  0  0  0  0  0  0  0  0  0  0
   60.3450   28.9890   46.0440 C   0  0  0  0  0  0  0  0  0  0  0  0
   61.1920   28.6970   45.1570 O   0  0  0  0  0  0  0  0  0  0  0  0
   60.7130   29.8990   47.1000 N   0  0  0  0  0  0  0  0  0  0  0  0
   60.7830   29.3670   48.4650 C   0  0  0  0  0  0  0  0  0  0  0  0
   61.2330   31.2400   46.7570 C   0  0  0  0  0  0  0  0  0  0  0  0
   62.2080   31.7530   47.8480 C   0  0  0  0  0  0  0  0  0  0  0  0
   61.8100   33.1170   48.4050 C   0  0  0  0  0  0  0  0  0  0  0  0
   60.3840   33.0850   48.7530 N   0  0  0  0  0  0  0  0  0  0  0  0
   60.0380   34.2100   49.6350 C   0  0  0  0  0  0  0  0  0  0  0  0
   59.5430   33.1050   47.5370 C   0  0  0  0  0  0  0  0  0  0  0  0
   60.0940   32.2280   46.3840 C   0  0  0  0  0  0  0  0  0  0  0  0
   57.9170   29.0940   45.4240 C   0  0  0  0  0  0  0  0  0  0  0  0
   56.6400   28.5320   45.3860 C   0  0  0  0  0  0  0  0  0  0  0  0
   56.4190   27.2540   45.9060 C   0  0  0  0  0  0  0  0  0  0  0  0
   55.1350   26.7170   45.8670 O   0  0  0  0  0  0  0  0  0  0  0  0
   58.4104   26.9498   43.4815 H   0  0  0  0  0  0  0  0  0  0  0  0
   58.4842   25.5680   42.3361 H   0  0  0  0  0  0  0  0  0  0  0  0
   57.0575   26.6594   42.3361 H   0  0  0  0  0  0  0  0  0  0  0  0
   56.1898   23.8713   41.8864 H   0  0  0  0  0  0  0  0  0  0  0  0
   56.2126   21.3833   41.7541 H   0  0  0  0  0  0  0  0  0  0  0  0
   57.1844   20.0426   43.6191 H   0  0  0  0  0  0  0  0  0  0  0  0
   58.0837   21.1825   45.6450 H   0  0  0  0  0  0  0  0  0  0  0  0
   59.5970   26.5425   46.9718 H   0  0  0  0  0  0  0  0  0  0  0  0
   60.6746   30.1909   49.1857 H   0  0  0  0  0  0  0  0  0  0  0  0
   59.9730   28.6384   48.6165 H   0  0  0  0  0  0  0  0  0  0  0  0
   61.7539   28.8727   48.6165 H   0  0  0  0  0  0  0  0  0  0  0  0
   61.8347   31.1608   45.8396 H   0  0  0  0  0  0  0  0  0  0  0  0
   62.2236   31.0272   48.6744 H   0  0  0  0  0  0  0  0  0  0  0  0
   63.1981   31.8626   47.3814 H   0  0  0  0  0  0  0  0  0  0  0  0
   62.4054   33.3382   49.3031 H   0  0  0  0  0  0  0  0  0  0  0  0
   61.9949   33.8978   47.6525 H   0  0  0  0  0  0  0  0  0  0  0  0
   60.1346   33.8960   50.6848 H   0  0  0  0  0  0  0  0  0  0  0  0
   60.7188   35.0517   49.4399 H   0  0  0  0  0  0  0  0  0  0  0  0
   59.0019   34.5237   49.4399 H   0  0  0  0  0  0  0  0  0  0  0  0
   58.5400   32.7396   47.8024 H   0  0  0  0  0  0  0  0  0  0  0  0
   59.5288   34.1429   47.1729 H   0  0  0  0  0  0  0  0  0  0  0  0
   59.2570   31.6385   45.9814 H   0  0  0  0  0  0  0  0  0  0  0  0
   60.5391   32.9323   45.6658 H   0  0  0  0  0  0  0  0  0  0  0  0
   58.0826   30.1007   45.0129 H   0  0  0  0  0  0  0  0  0  0  0  0
   55.8052   29.0967   44.9454 H   0  0  0  0  0  0  0  0  0  0  0  0
  1  2  1  0
  2  3  1  0
  3  4  2  0
  4  5  1  0
  5  6  2  0
  6  7  1  0
  7  8  2  0
  8  9  1  0
  9 10  1  0
 10 11  2  0
 10 12  2  0
 10 13  1  0
 13 14  2  0
 14 15  1  0
 15 16  1  0
 16 17  2  0
 16 18  1  0
 18 19  1  0
 18 20  1  0
 20 21  1  0
 21 22  1  0
 22 23  1  0
 23 24  1  0
 23 25  1  0
 25 26  1  0
 15 27  2  0
 27 28  1  0
 28 29  2  0
 29 30  1  0
  8  3  1  0
 29 13  1  0
 26 20  1  0
  1 31  1  0
  1 32  1  0
  1 33  1  0
  4 34  1  0
  5 35  1  0
  6 36  1  0
  7 37  1  0
 14 38  1  0
 19 39  1  0
 19 40  1  0
 19 41  1  0
 20 42  1  0
 21 43  1  0
 21 44  1  0
 22 45  1  0
 22 46  1  0
 24 47  1  0
 24 48  1  0
 24 49  1  0
 25 50  1  0
 25 51  1  0
 26 52  1  0
 26 53  1  0
 27 54  1  0
 28 55  1  0
M  CHG  2   9  -1  30  -1
M  END
>  <UniqueID>  (81) 
73

>  <SMILES>  (81) 
COc1ccccc1[N-]S(=O)(=O)c1cc(C(=O)N(C)C2CCN(C)CC2)ccc1[O-]

>  <Energy>  (81) 
78.84465814090214

>  <Genealogy>  (81) 
COc1ccccc1[N-]S(=O)(=O)c1cc(C(=O)N(C)C2CCN(C)CC2)ccc1[O-] (protonated)
COc1ccccc1[N-]S(=O)(=O)c1cc(C(=O)N(C)C2CCN(C)CC2)ccc1[O-] (3D coordinates assigned)
COc1ccccc1[N-]S(=O)(=O)c1cc(C(=O)N(C)C2CCN(C)CC2)ccc1[O-] (nonaromatic ring conformer: 78.84465814090214 kcal/mol)

>  <smiles>  (81) 
COc1ccccc1NS(=O)(=O)c1cc(C(=O)N(C)C2CCN(C)CC2)ccc1O

>  <score_type>  (81) 
oracle

>  <origin>  (81) 
adg

>  <m_score__min__energy>  (81) 
-12.65

>  <m_primary>  (81) 
energy

$$$$
81:0
     RDKit          3D

 37 39  0  0  0  0  0  0  0  0999 V2000
   56.3804   33.6569   44.6163 H   0  0  0  0  0  0  0  0  0  0  0  0
   57.2460   33.7840   45.2830 C   0  0  0  0  0  0  0  0  0  0  0  0
   58.3030   34.6110   44.9040 C   0  0  0  0  0  0  0  0  0  0  0  0
   58.2648   35.1442   43.9426 H   0  0  0  0  0  0  0  0  0  0  0  0
   59.4090   34.7640   45.7410 C   0  0  0  0  0  0  0  0  0  0  0  0
   60.2296   35.4326   45.4416 H   0  0  0  0  0  0  0  0  0  0  0  0
   59.4860   34.0710   46.9660 C   0  0  0  0  0  0  0  0  0  0  0  0
   60.6770   34.2670   47.8840 C   0  0  0  0  0  0  0  0  0  0  0  0
   60.3620   34.0666   48.9187 H   0  0  0  0  0  0  0  0  0  0  0  0
   61.0270   35.3027   47.7622 H   0  0  0  0  0  0  0  0  0  0  0  0
   61.7960   33.3740   47.5500 N   0  0  0  0  0  0  0  0  0  0  0  0
   62.9640   33.8080   47.0280 C   0  0  0  0  0  0  0  0  0  0  0  0
   63.2251   34.8590   46.8352 H   0  0  0  0  0  0  0  0  0  0  0  0
   63.7750   32.7250   46.7760 C   0  0  0  0  0  0  0  0  0  0  0  0
   64.7880   32.7672   46.3494 H   0  0  0  0  0  0  0  0  0  0  0  0
   63.1230   31.6080   47.1380 N   0  0  0  0  0  0  0  0  0  0  0  0
   63.4770   30.6280   47.0720 H   0  0  0  0  0  0  0  0  0  0  0  0
   61.9290   32.0170   47.6070 C   0  0  0  0  0  0  0  0  0  0  0  0
   61.0560   31.1590   48.0600 N   0  0  0  0  0  0  0  0  0  0  0  0
   60.7890   29.7910   47.6320 C   0  0  0  0  0  0  0  0  0  0  0  0
   60.5573   29.1682   48.5086 H   0  0  0  0  0  0  0  0  0  0  0  0
   61.6732   29.3801   47.1228 H   0  0  0  0  0  0  0  0  0  0  0  0
   59.6170   29.7960   46.6930 C   0  0  0  0  0  0  0  0  0  0  0  0
   58.5880   28.8530   46.8390 C   0  0  0  0  0  0  0  0  0  0  0  0
   58.6262   28.1235   47.6614 H   0  0  0  0  0  0  0  0  0  0  0  0
   57.5140   28.8370   45.9430 C   0  0  0  0  0  0  0  0  0  0  0  0
   56.7057   28.1015   46.0680 H   0  0  0  0  0  0  0  0  0  0  0  0
   57.4660   29.7540   44.8890 C   0  0  0  0  0  0  0  0  0  0  0  0
   56.1190   29.7310   43.7650 Cl  0  0  0  0  0  0  0  0  0  0  0  0
   58.4960   30.6870   44.7280 C   0  0  0  0  0  0  0  0  0  0  0  0
   58.4601   31.4071   43.8973 H   0  0  0  0  0  0  0  0  0  0  0  0
   59.5710   30.7050   45.6220 C   0  0  0  0  0  0  0  0  0  0  0  0
   60.3840   31.4335   45.4865 H   0  0  0  0  0  0  0  0  0  0  0  0
   58.3910   33.2630   47.3580 C   0  0  0  0  0  0  0  0  0  0  0  0
   58.3580   32.4140   48.9010 Cl  0  0  0  0  0  0  0  0  0  0  0  0
   57.2870   33.1180   46.5080 C   0  0  0  0  0  0  0  0  0  0  0  0
   56.4469   32.4747   46.8085 H   0  0  0  0  0  0  0  0  0  0  0  0
  1  2  1  0
  2  3  2  0
  3  4  1  0
  3  5  1  0
  5  6  1  0
  5  7  2  0
  7  8  1  0
  8  9  1  0
  8 10  1  0
  8 11  1  0
 11 12  1  0
 12 13  1  0
 12 14  2  0
 14 15  1  0
 14 16  1  0
 16 17  1  0
 16 18  1  0
 18 19  2  0
 19 20  1  0
 20 21  1  0
 20 22  1  0
 20 23  1  0
 23 24  2  0
 24 25  1  0
 24 26  1  0
 26 27  1  0
 26 28  2  0
 28 29  1  0
 28 30  1  0
 30 31  1  0
 30 32  2  0
 32 33  1  0
  7 34  1  0
 34 35  1  0
 34 36  2  0
 36 37  1  0
 36  2  1  0
 18 11  1  0
 32 23  1  0
M  END
>  <UniqueID>  (82) 
74

>  <SMILES>  (82) 
Clc1ccc(C/N=c2/[nH]ccn2Cc2ccccc2Cl)cc1

>  <Energy>  (82) 
76.62070324021357

>  <Genealogy>  (82) 
Clc1ccc(C/N=c2/[nH]ccn2Cc2ccccc2Cl)cc1 (cis-trans isomerization)
Clc1ccc(C/N=c2/[nH]ccn2Cc2ccccc2Cl)cc1 (3D coordinates assigned)
Clc1ccc(C/N=c2/[nH]ccn2Cc2ccccc2Cl)cc1 (optimized conformer: 76.62070324021357 kcal/mol)

>  <smiles>  (82) 
Clc1ccc(CN=c2[nH]ccn2Cc2ccccc2Cl)cc1

>  <score_type>  (82) 
oracle

>  <origin>  (82) 
adg

>  <m_score__min__energy>  (82) 
-7.0499999999999998

>  <m_primary>  (82) 
energy

$$$$
82:0
     RDKit          3D

 39 40  0  0  0  0  0  0  0  0999 V2000
   60.3218   30.1595   45.4977 H   0  0  0  0  0  0  0  0  0  0  0  0
   59.2730   29.8340   45.5610 C   0  0  0  0  0  0  0  0  0  0  0  0
   58.3170   30.7780   45.4370 C   0  0  0  0  0  0  0  0  0  0  0  0
   57.0150   30.4600   44.8950 C   0  0  0  0  0  0  0  0  0  0  0  0
   55.9730   30.2050   44.4580 N   0  0  0  0  0  0  0  0  0  0  0  0
   58.5940   32.1910   45.8090 C   0  0  0  0  0  0  0  0  0  0  0  0
   58.4760   33.2300   44.8640 C   0  0  0  0  0  0  0  0  0  0  0  0
   58.1812   32.9969   43.8302 H   0  0  0  0  0  0  0  0  0  0  0  0
   58.7310   34.5550   45.2310 C   0  0  0  0  0  0  0  0  0  0  0  0
   58.6408   35.3582   44.4848 H   0  0  0  0  0  0  0  0  0  0  0  0
   59.1000   34.8610   46.5430 C   0  0  0  0  0  0  0  0  0  0  0  0
   59.3021   35.9037   46.8293 H   0  0  0  0  0  0  0  0  0  0  0  0
   59.2120   33.8410   47.4910 C   0  0  0  0  0  0  0  0  0  0  0  0
   59.5007   34.0819   48.5247 H   0  0  0  0  0  0  0  0  0  0  0  0
   58.9580   32.5150   47.1290 C   0  0  0  0  0  0  0  0  0  0  0  0
   59.0434   31.7181   47.8824 H   0  0  0  0  0  0  0  0  0  0  0  0
   59.0140   28.3920   45.7760 C   0  0  0  0  0  0  0  0  0  0  0  0
   60.0970   27.5110   45.8380 C   0  0  0  0  0  0  0  0  0  0  0  0
   61.1200   27.8931   45.7060 H   0  0  0  0  0  0  0  0  0  0  0  0
   59.8900   26.1510   46.0660 C   0  0  0  0  0  0  0  0  0  0  0  0
   60.7510   25.4669   46.0932 H   0  0  0  0  0  0  0  0  0  0  0  0
   58.5900   25.6430   46.2620 C   0  0  0  0  0  0  0  0  0  0  0  0
   58.3580   24.2710   46.4640 O   0  0  0  0  0  0  0  0  0  0  0  0
   58.3920   23.2550   45.4600 C   0  0  0  0  0  0  0  0  0  0  0  0
   58.6357   22.2921   45.9326 H   0  0  0  0  0  0  0  0  0  0  0  0
   59.1551   23.5272   44.7160 H   0  0  0  0  0  0  0  0  0  0  0  0
   57.0400   23.1330   44.7450 C   0  0  0  0  0  0  0  0  0  0  0  0
   56.2369   23.3671   45.4594 H   0  0  0  0  0  0  0  0  0  0  0  0
   56.9448   22.1046   44.3664 H   0  0  0  0  0  0  0  0  0  0  0  0
   56.9390   24.0870   43.5580 C   0  0  0  0  0  0  0  0  0  0  0  0
   56.8298   25.1183   43.9247 H   0  0  0  0  0  0  0  0  0  0  0  0
   57.8503   24.0097   42.9469 H   0  0  0  0  0  0  0  0  0  0  0  0
   56.0640   23.8206   42.9469 H   0  0  0  0  0  0  0  0  0  0  0  0
   57.4890   26.5340   46.2360 C   0  0  0  0  0  0  0  0  0  0  0  0
   56.1400   26.0720   46.4580 N   0  0  0  0  0  0  0  0  0  0  0  0
   55.1590   26.6960   46.0050 O   0  0  0  0  0  0  0  0  0  0  0  0
   55.9130   24.8940   47.1340 O   0  0  0  0  0  0  0  0  0  0  0  0
   57.7170   27.9010   45.9990 C   0  0  0  0  0  0  0  0  0  0  0  0
   56.8656   28.5975   45.9880 H   0  0  0  0  0  0  0  0  0  0  0  0
  1  2  1  0
  2  3  2  0
  3  4  1  0
  4  5  3  0
  3  6  1  0
  6  7  2  0
  7  8  1  0
  7  9  1  0
  9 10  1  0
  9 11  2  0
 11 12  1  0
 11 13  1  0
 13 14  1  0
 13 15  2  0
 15 16  1  0
  2 17  1  0
 17 18  2  0
 18 19  1  0
 18 20  1  0
 20 21  1  0
 20 22  2  0
 22 23  1  0
 23 24  1  0
 24 25  1  0
 24 26  1  0
 24 27  1  0
 27 28  1  0
 27 29  1  0
 27 30  1  0
 30 31  1  0
 30 32  1  0
 30 33  1  0
 22 34  1  0
 34 35  1  0
 35 36  2  0
 35 37  1  0
 34 38  2  0
 38 39  1  0
 15  6  1  0
 38 17  1  0
M  CHG  2  35   1  37  -1
M  END
>  <UniqueID>  (83) 
75

>  <SMILES>  (83) 
CCCOc1ccc(/C=C(\C#N)c2ccccc2)cc1[N+](=O)[O-]

>  <Energy>  (83) 
48.61429384322429

>  <Genealogy>  (83) 
CCCOc1ccc(/C=C(\C#N)c2ccccc2)cc1[N+](=O)[O-] (cis-trans isomerization)
CCCOc1ccc(/C=C(\C#N)c2ccccc2)cc1[N+](=O)[O-] (3D coordinates assigned)
CCCOc1ccc(/C=C(\C#N)c2ccccc2)cc1[N+](=O)[O-] (optimized conformer: 48.61429384322429 kcal/mol)

>  <smiles>  (83) 
CCCOc1ccc(C=C(C#N)c2ccccc2)cc1[N+](=O)[O-]

>  <score_type>  (83) 
oracle

>  <origin>  (83) 
adg

>  <m_score__min__energy>  (83) 
-8.3499999999999996

>  <m_primary>  (83) 
energy

$$$$
83:0
     RDKit          3D

 43 45  0  0  0  0  0  0  0  0999 V2000
   66.0400   33.1150   50.5150 C   0  0  0  0  0  0  0  0  0  0  0  0
   64.8150   33.6650   50.0410 O   0  0  0  0  0  0  0  0  0  0  0  0
   63.8950   32.9750   49.2380 C   0  0  0  0  0  0  0  0  0  0  0  0
   63.1630   31.8690   49.7090 C   0  0  0  0  0  0  0  0  0  0  0  0
   62.2570   31.2160   48.8670 C   0  0  0  0  0  0  0  0  0  0  0  0
   62.0530   31.6630   47.5550 C   0  0  0  0  0  0  0  0  0  0  0  0
   61.1330   30.9570   46.7070 N   0  0  0  0  0  0  0  0  0  0  0  0
   59.7370   31.2770   46.5860 C   0  0  0  0  0  0  0  0  0  0  0  0
   59.2360   32.2270   47.2460 O   0  0  0  0  0  0  0  0  0  0  0  0
   58.8710   30.4890   45.6860 C   0  0  0  0  0  0  0  0  0  0  0  0
   58.8970   29.1450   45.7980 C   0  0  0  0  0  0  0  0  0  0  0  0
   58.0780   28.1890   44.9960 C   0  0  0  0  0  0  0  0  0  0  0  0
   58.3000   26.7280   45.1440 C   0  0  0  0  0  0  0  0  0  0  0  0
   59.3940   26.2310   45.8800 C   0  0  0  0  0  0  0  0  0  0  0  0
   59.5960   24.8520   46.0040 C   0  0  0  0  0  0  0  0  0  0  0  0
   58.7170   23.9550   45.3930 C   0  0  0  0  0  0  0  0  0  0  0  0
   58.9170   22.6200   45.5150 F   0  0  0  0  0  0  0  0  0  0  0  0
   57.6350   24.4360   44.6520 C   0  0  0  0  0  0  0  0  0  0  0  0
   57.4280   25.8130   44.5230 C   0  0  0  0  0  0  0  0  0  0  0  0
   57.1410   28.5910   44.1920 N   0  0  0  0  0  0  0  0  0  0  0  0
   56.7910   30.2550   43.9350 S   0  0  0  0  0  0  0  0  0  0  0  0
   56.7980   30.5380   42.4590 O   0  0  0  0  0  0  0  0  0  0  0  0
   55.4530   30.5970   44.5280 O   0  0  0  0  0  0  0  0  0  0  0  0
   58.0320   31.1580   44.7220 N   0  0  0  0  0  0  0  0  0  0  0  0
   58.2910   32.5370   44.3020 C   0  0  0  0  0  0  0  0  0  0  0  0
   62.8030   32.7520   47.0790 C   0  0  0  0  0  0  0  0  0  0  0  0
   63.7100   33.4050   47.9190 C   0  0  0  0  0  0  0  0  0  0  0  0
   66.0405   33.1148   51.6150 H   0  0  0  0  0  0  0  0  0  0  0  0
   66.1450   32.0833   50.1481 H   0  0  0  0  0  0  0  0  0  0  0  0
   66.8808   33.7220   50.1481 H   0  0  0  0  0  0  0  0  0  0  0  0
   63.3038   31.5173   50.7417 H   0  0  0  0  0  0  0  0  0  0  0  0
   61.6995   30.3435   49.2383 H   0  0  0  0  0  0  0  0  0  0  0  0
   61.4900   30.1150   46.2000 H   0  0  0  0  0  0  0  0  0  0  0  0
   59.5811   28.7164   46.5452 H   0  0  0  0  0  0  0  0  0  0  0  0
   60.0934   26.9313   46.3600 H   0  0  0  0  0  0  0  0  0  0  0  0
   60.4500   24.4731   46.5847 H   0  0  0  0  0  0  0  0  0  0  0  0
   56.9439   23.7298   44.1687 H   0  0  0  0  0  0  0  0  0  0  0  0
   56.5777   26.1842   43.9321 H   0  0  0  0  0  0  0  0  0  0  0  0
   58.4107   33.1745   45.1904 H   0  0  0  0  0  0  0  0  0  0  0  0
   59.2111   32.5703   43.7001 H   0  0  0  0  0  0  0  0  0  0  0  0
   57.4457   32.9019   43.7001 H   0  0  0  0  0  0  0  0  0  0  0  0
   62.6758   33.0922   46.0407 H   0  0  0  0  0  0  0  0  0  0  0  0
   64.2831   34.2640   47.5400 H   0  0  0  0  0  0  0  0  0  0  0  0
  1  2  1  0
  2  3  1  0
  3  4  2  0
  4  5  1  0
  5  6  2  0
  6  7  1  0
  7  8  1  0
  8  9  2  0
  8 10  1  0
 10 11  2  0
 11 12  1  0
 12 13  1  0
 13 14  2  0
 14 15  1  0
 15 16  2  0
 16 17  1  0
 16 18  1  0
 18 19  2  0
 12 20  2  0
 20 21  1  0
 21 22  2  0
 21 23  2  0
 21 24  1  0
 24 25  1  0
  6 26  1  0
 26 27  2  0
 27  3  1  0
 24 10  1  0
 19 13  1  0
  1 28  1  0
  1 29  1  0
  1 30  1  0
  4 31  1  0
  5 32  1  0
  7 33  1  0
 11 34  1  0
 14 35  1  0
 15 36  1  0
 18 37  1  0
 19 38  1  0
 25 39  1  0
 25 40  1  0
 25 41  1  0
 26 42  1  0
 27 43  1  0
M  END
>  <UniqueID>  (84) 
76

>  <SMILES>  (84) 
COc1ccc(NC(=O)C2=CC(c3ccc(F)cc3)=NS(=O)(=O)N2C)cc1

>  <Energy>  (84) 
61.845226120119236

>  <Genealogy>  (84) 
COc1ccc(NC(=O)C2=CC(c3ccc(F)cc3)=NS(=O)(=O)N2C)cc1 (3D coordinates assigned)
COc1ccc(NC(=O)C2=CC(c3ccc(F)cc3)=NS(=O)(=O)N2C)cc1 (nonaromatic ring conformer: 61.845226120119236 kcal/mol)

>  <smiles>  (84) 
COc1ccc(NC(=O)C2=CC(c3ccc(F)cc3)=NS(=O)(=O)N2C)cc1

>  <score_type>  (84) 
oracle

>  <origin>  (84) 
adg

>  <m_score__min__energy>  (84) 
-7.6799999999999997

>  <m_primary>  (84) 
energy

$$$$
84:0
     RDKit          3D

 55 58  0  0  0  0  0  0  0  0999 V2000
   57.3720   25.3000   44.9180 C   0  0  0  0  0  0  0  0  0  0  0  0
   56.6500   25.9730   46.0800 C   0  0  0  0  0  0  0  0  0  0  0  0
   56.8850   27.4270   46.0460 N   0  0  0  0  0  0  0  0  0  0  0  0
   57.4860   27.8740   44.7810 C   0  0  0  0  0  0  0  0  0  0  0  0
   57.1410   29.3040   44.5040 C   0  0  0  0  0  0  0  0  0  0  0  0
   57.9930   30.2740   44.0270 C   0  0  0  0  0  0  0  0  0  0  0  0
   57.2890   31.4200   44.0410 N   0  0  0  0  0  0  0  0  0  0  0  0
   57.7820   32.7500   43.6930 C   0  0  0  0  0  0  0  0  0  0  0  0
   57.8380   33.6640   44.9370 C   0  0  0  0  0  0  0  0  0  0  0  0
   57.6190   32.8230   46.2190 C   0  0  0  0  0  0  0  0  0  0  0  0
   58.2190   33.5240   47.4460 C   0  0  0  0  0  0  0  0  0  0  0  0
   59.6810   33.7410   47.3110 N   0  0  0  0  0  0  0  0  0  0  0  0
   60.5130   32.8850   48.1880 C   0  0  0  0  0  0  0  0  0  0  0  0
   60.2430   31.4030   48.0310 C   0  0  0  0  0  0  0  0  0  0  0  0
   59.5580   30.6900   49.0470 C   0  0  0  0  0  0  0  0  0  0  0  0
   59.3150   29.3140   48.9170 C   0  0  0  0  0  0  0  0  0  0  0  0
   59.7500   28.6740   47.7610 C   0  0  0  0  0  0  0  0  0  0  0  0
   60.3920   29.3510   46.7650 C   0  0  0  0  0  0  0  0  0  0  0  0
   60.6450   30.7180   46.8620 C   0  0  0  0  0  0  0  0  0  0  0  0
   60.7280   28.4200   45.6570 C   0  0  0  0  0  0  0  0  0  0  0  0
   60.1740   27.0680   46.1700 C   0  0  0  0  0  0  0  0  0  0  0  0
   59.6050   27.3410   47.4510 O   0  0  0  0  0  0  0  0  0  0  0  0
   60.1820   33.8260   45.9200 C   0  0  0  0  0  0  0  0  0  0  0  0
   59.1530   34.4880   44.9990 C   0  0  0  0  0  0  0  0  0  0  0  0
   56.0750   31.1640   44.5030 N   0  0  0  0  0  0  0  0  0  0  0  0
   55.9570   29.8770   44.7970 N   0  0  0  0  0  0  0  0  0  0  0  0
   58.1238   24.5992   45.3099 H   0  0  0  0  0  0  0  0  0  0  0  0
   56.6441   24.7506   44.3028 H   0  0  0  0  0  0  0  0  0  0  0  0
   57.8689   26.0646   44.3028 H   0  0  0  0  0  0  0  0  0  0  0  0
   55.5706   25.7767   46.0008 H   0  0  0  0  0  0  0  0  0  0  0  0
   57.0348   25.5674   47.0273 H   0  0  0  0  0  0  0  0  0  0  0  0
   57.5620   27.6670   46.8080 H   0  0  0  0  0  0  0  0  0  0  0  0
   58.5794   27.7730   44.8458 H   0  0  0  0  0  0  0  0  0  0  0  0
   57.0914   27.2518   43.9642 H   0  0  0  0  0  0  0  0  0  0  0  0
   59.0351   30.1397   43.7014 H   0  0  0  0  0  0  0  0  0  0  0  0
   58.7925   32.6590   43.2680 H   0  0  0  0  0  0  0  0  0  0  0  0
   57.0941   33.1976   42.9606 H   0  0  0  0  0  0  0  0  0  0  0  0
   57.0235   34.3995   44.8611 H   0  0  0  0  0  0  0  0  0  0  0  0
   56.5395   32.6825   46.3770 H   0  0  0  0  0  0  0  0  0  0  0  0
   58.1193   31.8518   46.0907 H   0  0  0  0  0  0  0  0  0  0  0  0
   57.7266   34.4995   47.5722 H   0  0  0  0  0  0  0  0  0  0  0  0
   58.0540   32.8752   48.3188 H   0  0  0  0  0  0  0  0  0  0  0  0
   61.5710   33.0716   47.9519 H   0  0  0  0  0  0  0  0  0  0  0  0
   60.2601   33.1483   49.2256 H   0  0  0  0  0  0  0  0  0  0  0  0
   59.2134   31.2209   49.9466 H   0  0  0  0  0  0  0  0  0  0  0  0
   58.7940   28.7559   49.7088 H   0  0  0  0  0  0  0  0  0  0  0  0
   61.1483   31.2540   46.0438 H   0  0  0  0  0  0  0  0  0  0  0  0
   60.2343   28.7219   44.7215 H   0  0  0  0  0  0  0  0  0  0  0  0
   61.8021   28.3909   45.4213 H   0  0  0  0  0  0  0  0  0  0  0  0
   59.4052   26.6839   45.4834 H   0  0  0  0  0  0  0  0  0  0  0  0
   60.9636   26.3047   46.2323 H   0  0  0  0  0  0  0  0  0  0  0  0
   61.1081   34.4194   45.9081 H   0  0  0  0  0  0  0  0  0  0  0  0
   60.3698   32.8055   45.5550 H   0  0  0  0  0  0  0  0  0  0  0  0
   58.9271   35.4951   45.3795 H   0  0  0  0  0  0  0  0  0  0  0  0
   59.5775   34.5408   43.9856 H   0  0  0  0  0  0  0  0  0  0  0  0
  1  2  1  0
  2  3  1  0
  3  4  1  0
  4  5  1  0
  5  6  2  0
  6  7  1  0
  7  8  1  0
  8  9  1  0
  9 10  1  0
 10 11  1  0
 11 12  1  0
 12 13  1  0
 13 14  1  0
 14 15  2  0
 15 16  1  0
 16 17  2  0
 17 18  1  0
 18 19  2  0
 18 20  1  0
 20 21  1  0
 21 22  1  0
 12 23  1  0
 23 24  1  0
  7 25  1  0
 25 26  2  0
 26  5  1  0
 24  9  1  0
 19 14  1  0
 22 17  1  0
  1 27  1  0
  1 28  1  0
  1 29  1  0
  2 30  1  0
  2 31  1  0
  3 32  1  0
  4 33  1  0
  4 34  1  0
  6 35  1  0
  8 36  1  0
  8 37  1  0
  9 38  1  0
 10 39  1  0
 10 40  1  0
 11 41  1  0
 11 42  1  0
 13 43  1  0
 13 44  1  0
 15 45  1  0
 16 46  1  0
 19 47  1  0
 20 48  1  0
 20 49  1  0
 21 50  1  0
 21 51  1  0
 23 52  1  0
 23 53  1  0
 24 54  1  0
 24 55  1  0
M  END
>  <UniqueID>  (85) 
77

>  <SMILES>  (85) 
CCNCc1cn(CC2CCN(Cc3ccc4c(c3)CCO4)CC2)nn1

>  <Energy>  (85) 
112.00325719126799

>  <Genealogy>  (85) 
CCNCc1cn(CC2CCN(Cc3ccc4c(c3)CCO4)CC2)nn1 (3D coordinates assigned)
CCNCc1cn(CC2CCN(Cc3ccc4c(c3)CCO4)CC2)nn1 (nonaromatic ring conformer: 112.00325719126799 kcal/mol)

>  <smiles>  (85) 
CCNCc1cn(CC2CCN(Cc3ccc4c(c3)CCO4)CC2)nn1

>  <score_type>  (85) 
oracle

>  <origin>  (85) 
adg

>  <m_score__min__energy>  (85) 
-9.3599999999999994

>  <m_primary>  (85) 
energy

$$$$
85:0
     RDKit          3D

 50 52  0  0  0  0  0  0  0  0999 V2000
   57.3274   31.5395   40.8000 H   0  0  0  0  0  0  0  0  0  0  0  0
   57.3750   31.6050   41.8970 C   0  0  0  0  0  0  0  0  0  0  0  0
   58.0760   32.6470   42.5010 C   0  0  0  0  0  0  0  0  0  0  0  0
   58.5926   33.3943   41.8807 H   0  0  0  0  0  0  0  0  0  0  0  0
   58.1230   32.7430   43.8950 C   0  0  0  0  0  0  0  0  0  0  0  0
   58.6755   33.5684   44.3678 H   0  0  0  0  0  0  0  0  0  0  0  0
   57.4670   31.7890   44.6980 C   0  0  0  0  0  0  0  0  0  0  0  0
   57.4370   31.8960   46.0970 O   0  0  0  0  0  0  0  0  0  0  0  0
   57.7900   33.0690   46.8270 C   0  0  0  0  0  0  0  0  0  0  0  0
   57.7278   32.8622   47.9056 H   0  0  0  0  0  0  0  0  0  0  0  0
   58.8173   33.3660   46.5693 H   0  0  0  0  0  0  0  0  0  0  0  0
   57.0972   33.8836   46.5693 H   0  0  0  0  0  0  0  0  0  0  0  0
   56.7980   30.7100   44.0770 C   0  0  0  0  0  0  0  0  0  0  0  0
   56.1170   29.7010   44.8420 N   0  0  0  0  0  0  0  0  0  0  0  0
   56.6870   28.7070   45.4570 C   0  0  0  0  0  0  0  0  0  0  0  0
   57.9310   28.8690   45.9740 N   0  0  0  0  0  0  0  0  0  0  0  0
   58.5440   27.8490   46.6340 C   0  0  0  0  0  0  0  0  0  0  0  0
   59.8690   28.0250   47.1820 N   0  0  0  0  0  0  0  0  0  0  0  0
   60.5740   26.8860   47.7920 C   0  0  0  0  0  0  0  0  0  0  0  0
   61.5662   26.7860   47.3276 H   0  0  0  0  0  0  0  0  0  0  0  0
   59.9791   25.9755   47.6273 H   0  0  0  0  0  0  0  0  0  0  0  0
   60.7440   27.0920   49.2940 C   0  0  0  0  0  0  0  0  0  0  0  0
   60.1350   26.3540   49.8366 H   0  0  0  0  0  0  0  0  0  0  0  0
   61.8025   26.9636   49.5642 H   0  0  0  0  0  0  0  0  0  0  0  0
   60.4171   28.1069   49.5642 H   0  0  0  0  0  0  0  0  0  0  0  0
   60.5030   29.3500   47.1690 C   0  0  0  0  0  0  0  0  0  0  0  0
   61.5470   29.2544   47.5022 H   0  0  0  0  0  0  0  0  0  0  0  0
   60.4652   29.7510   46.1454 H   0  0  0  0  0  0  0  0  0  0  0  0
   59.7660   30.3070   48.0990 C   0  0  0  0  0  0  0  0  0  0  0  0
   59.9748   30.0359   49.1444 H   0  0  0  0  0  0  0  0  0  0  0  0
   60.1073   31.3358   47.9118 H   0  0  0  0  0  0  0  0  0  0  0  0
   58.6841   30.2398   47.9118 H   0  0  0  0  0  0  0  0  0  0  0  0
   57.8930   26.6660   46.7820 N   0  0  0  0  0  0  0  0  0  0  0  0
   56.6440   26.4960   46.2760 C   0  0  0  0  0  0  0  0  0  0  0  0
   55.9670   25.2410   46.4300 N   0  0  0  0  0  0  0  0  0  0  0  0
   56.3050   24.2720   47.4560 C   0  0  0  0  0  0  0  0  0  0  0  0
   57.3708   24.0063   47.3976 H   0  0  0  0  0  0  0  0  0  0  0  0
   56.1286   24.6693   48.4665 H   0  0  0  0  0  0  0  0  0  0  0  0
   55.4360   23.0540   47.1680 C   0  0  0  0  0  0  0  0  0  0  0  0
   56.0352   22.2599   46.6986 H   0  0  0  0  0  0  0  0  0  0  0  0
   55.0080   22.6380   48.0920 H   0  0  0  0  0  0  0  0  0  0  0  0
   54.3430   23.5300   46.2110 C   0  0  0  0  0  0  0  0  0  0  0  0
   54.1655   22.7769   45.4291 H   0  0  0  0  0  0  0  0  0  0  0  0
   53.3893   23.6872   46.7361 H   0  0  0  0  0  0  0  0  0  0  0  0
   54.8580   24.8240   45.5920 C   0  0  0  0  0  0  0  0  0  0  0  0
   55.2001   24.6475   44.5615 H   0  0  0  0  0  0  0  0  0  0  0  0
   54.0729   25.5929   45.5421 H   0  0  0  0  0  0  0  0  0  0  0  0
   56.0430   27.5210   45.6220 N   0  0  0  0  0  0  0  0  0  0  0  0
   56.7330   30.6440   42.6800 C   0  0  0  0  0  0  0  0  0  0  0  0
   56.1728   29.8301   42.1966 H   0  0  0  0  0  0  0  0  0  0  0  0
  1  2  1  0
  2  3  2  0
  3  4  1  0
  3  5  1  0
  5  6  1  0
  5  7  2  0
  7  8  1  0
  8  9  1  0
  9 10  1  0
  9 11  1  0
  9 12  1  0
  7 13  1  0
 13 14  1  0
 14 15  2  0
 15 16  1  0
 16 17  2  0
 17 18  1  0
 18 19  1  0
 19 20  1  0
 19 21  1  0
 19 22  1  0
 22 23  1  0
 22 24  1  0
 22 25  1  0
 18 26  1  0
 26 27  1  0
 26 28  1  0
 26 29  1  0
 29 30  1  0
 29 31  1  0
 29 32  1  0
 17 33  1  0
 33 34  1  0
 34 35  1  0
 35 36  1  0
 36 37  1  0
 36 38  1  0
 36 39  1  0
 39 40  1  0
 39 41  1  0
 39 42  1  0
 42 43  1  0
 42 44  1  0
 42 45  1  0
 45 46  1  0
 45 47  1  0
 34 48  2  0
 13 49  2  0
 49 50  1  0
 49  2  1  0
 48 15  1  0
 45 35  1  0
M  CHG  1  33  -1
M  END
>  <UniqueID>  (86) 
78

>  <SMILES>  (86) 
CCN(CC)c1n/c(=N/c2ccccc2OC)nc(N2CCCC2)[n-]1

>  <Energy>  (86) 
48.75137700960086

>  <Genealogy>  (86) 
CCN(CC)c1nc(=Nc2ccccc2OC)nc(N2CCCC2)[n-]1 (protonated)
CCN(CC)c1n/c(=N/c2ccccc2OC)nc(N2CCCC2)[n-]1 (cis-trans isomerization)
CCN(CC)c1n/c(=N/c2ccccc2OC)nc(N2CCCC2)[n-]1 (3D coordinates assigned)
CCN(CC)c1n/c(=N/c2ccccc2OC)nc(N2CCCC2)[n-]1 (nonaromatic ring conformer: 48.75137700960086 kcal/mol)

>  <smiles>  (86) 
CCN(CC)c1nc(=Nc2ccccc2OC)nc(N2CCCC2)[nH]1

>  <score_type>  (86) 
oracle

>  <origin>  (86) 
adg

>  <m_score__min__energy>  (86) 
-8.4199999999999999

>  <m_primary>  (86) 
energy

$$$$
86:0
     RDKit          3D

 60 64  0  0  0  0  0  0  0  0999 V2000
   55.6220   29.9530   52.4070 C   0  0  0  0  0  0  0  0  0  0  0  0
   56.7970   30.1590   51.6280 O   0  0  0  0  0  0  0  0  0  0  0  0
   57.5790   31.3270   51.6560 C   0  0  0  0  0  0  0  0  0  0  0  0
   57.3320   32.3650   52.5770 C   0  0  0  0  0  0  0  0  0  0  0  0
   58.1360   33.5070   52.5850 C   0  0  0  0  0  0  0  0  0  0  0  0
   59.1920   33.6280   51.6800 C   0  0  0  0  0  0  0  0  0  0  0  0
   59.4470   32.6080   50.7620 C   0  0  0  0  0  0  0  0  0  0  0  0
   58.6430   31.4560   50.7380 C   0  0  0  0  0  0  0  0  0  0  0  0
   58.9390   30.3500   49.7600 C   0  0  0  0  0  0  0  0  0  0  0  0
   59.4230   30.8990   48.5360 O   0  0  0  0  0  0  0  0  0  0  0  0
   58.6090   31.5570   47.6120 C   0  0  0  0  0  0  0  0  0  0  0  0
   57.9390   32.5630   47.9770 O   0  0  0  0  0  0  0  0  0  0  0  0
   58.5420   31.1370   46.1920 C   0  0  0  0  0  0  0  0  0  0  0  0
   58.0790   31.8660   45.1430 C   0  0  0  0  0  0  0  0  0  0  0  0
   57.7170   33.3340   45.1970 C   0  0  0  0  0  0  0  0  0  0  0  0
   59.1710   34.3900   44.8690 S   0  0  0  0  0  0  0  0  0  0  0  0
   59.6800   34.5310   46.5830 C   0  0  0  0  0  0  0  0  0  0  0  0
   58.9080   35.0340   47.5640 N   0  0  0  0  0  0  0  0  0  0  0  0
   59.6420   34.9260   48.6650 N   0  0  0  0  0  0  0  0  0  0  0  0
   60.8140   34.3770   48.3810 N   0  0  0  0  0  0  0  0  0  0  0  0
   60.8550   34.1190   47.0860 N   0  0  0  0  0  0  0  0  0  0  0  0
   61.9750   33.5060   46.3880 C   0  0  0  0  0  0  0  0  0  0  0  0
   58.1010   31.2120   43.7510 C   0  0  0  0  0  0  0  0  0  0  0  0
   57.9280   29.7960   43.7810 O   0  0  0  0  0  0  0  0  0  0  0  0
   58.9610   29.2170   44.5560 C   0  0  2  0  0  0  0  0  0  0  0  0
   58.7280   27.8780   45.0710 C   0  0  2  0  0  0  0  0  0  0  0  0
   57.4000   27.3080   44.7980 N   0  0  0  0  0  0  0  0  0  0  0  0
   57.0290   25.9640   45.1680 C   0  0  0  0  0  0  0  0  0  0  0  0
   56.3930   25.6760   46.3930 C   0  0  0  0  0  0  0  0  0  0  0  0
   56.0490   24.3600   46.7190 C   0  0  0  0  0  0  0  0  0  0  0  0
   56.3340   23.3190   45.8330 C   0  0  0  0  0  0  0  0  0  0  0  0
   56.9650   23.5930   44.6170 C   0  0  0  0  0  0  0  0  0  0  0  0
   57.3100   24.9070   44.2850 C   0  0  0  0  0  0  0  0  0  0  0  0
   58.7930   28.4610   46.4530 C   0  0  0  0  0  0  0  0  0  0  0  0
   58.7040   28.0040   47.6220 O   0  0  0  0  0  0  0  0  0  0  0  0
   58.9290   29.8110   45.8650 N   0  0  0  0  0  0  0  0  0  0  0  0
   55.8781   29.9979   53.4758 H   0  0  0  0  0  0  0  0  0  0  0  0
   54.8852   30.7357   52.1733 H   0  0  0  0  0  0  0  0  0  0  0  0
   55.1954   28.9664   52.1733 H   0  0  0  0  0  0  0  0  0  0  0  0
   56.5018   32.2752   53.2931 H   0  0  0  0  0  0  0  0  0  0  0  0
   57.9366   34.3132   53.3063 H   0  0  0  0  0  0  0  0  0  0  0  0
   59.8239   34.5283   51.6904 H   0  0  0  0  0  0  0  0  0  0  0  0
   60.2823   32.7066   50.0531 H   0  0  0  0  0  0  0  0  0  0  0  0
   59.7013   29.6811   50.1860 H   0  0  0  0  0  0  0  0  0  0  0  0
   58.0159   29.7852   49.5628 H   0  0  0  0  0  0  0  0  0  0  0  0
   56.9461   33.5408   44.4401 H   0  0  0  0  0  0  0  0  0  0  0  0
   57.3434   33.5621   46.2062 H   0  0  0  0  0  0  0  0  0  0  0  0
   62.6936   33.1127   47.1221 H   0  0  0  0  0  0  0  0  0  0  0  0
   61.6078   32.6831   45.7571 H   0  0  0  0  0  0  0  0  0  0  0  0
   62.4702   34.2588   45.7571 H   0  0  0  0  0  0  0  0  0  0  0  0
   57.2903   31.6485   43.1491 H   0  0  0  0  0  0  0  0  0  0  0  0
   59.0942   31.4060   43.3198 H   0  0  0  0  0  0  0  0  0  0  0  0
   59.8227   29.3105   43.8787 H   0  0  0  0  0  0  0  0  0  0  0  0
   59.3595   27.0454   44.7274 H   0  0  0  0  0  0  0  0  0  0  0  0
   56.6700   27.8860   44.3250 H   0  0  0  0  0  0  0  0  0  0  0  0
   56.1661   26.4908   47.0963 H   0  0  0  0  0  0  0  0  0  0  0  0
   55.5523   24.1444   47.6765 H   0  0  0  0  0  0  0  0  0  0  0  0
   56.0622   22.2851   46.0920 H   0  0  0  0  0  0  0  0  0  0  0  0
   57.1910   22.7733   43.9191 H   0  0  0  0  0  0  0  0  0  0  0  0
   57.8053   25.1151   43.3251 H   0  0  0  0  0  0  0  0  0  0  0  0
  1  2  1  0
  2  3  1  0
  3  4  2  0
  4  5  1  0
  5  6  2  0
  6  7  1  0
  7  8  2  0
  8  9  1  0
  9 10  1  0
 10 11  1  0
 11 12  2  0
 11 13  1  0
 13 14  2  0
 14 15  1  0
 15 16  1  0
 16 17  1  0
 17 18  2  0
 18 19  1  0
 19 20  2  0
 20 21  1  0
 21 22  1  0
 14 23  1  0
 23 24  1  0
 24 25  1  0
 25 26  1  0
 26 27  1  0
 27 28  1  0
 28 29  2  0
 29 30  1  0
 30 31  2  0
 31 32  1  0
 32 33  2  0
 26 34  1  0
 34 35  2  0
 34 36  1  0
  8  3  1  0
 36 13  1  0
 21 17  1  0
 36 25  1  0
 33 28  1  0
  1 37  1  0
  1 38  1  0
  1 39  1  0
  4 40  1  0
  5 41  1  0
  6 42  1  0
  7 43  1  0
  9 44  1  0
  9 45  1  0
 15 46  1  0
 15 47  1  0
 22 48  1  0
 22 49  1  0
 22 50  1  0
 23 51  1  0
 23 52  1  0
 25 53  1  6
 26 54  1  1
 27 55  1  0
 29 56  1  0
 30 57  1  0
 31 58  1  0
 32 59  1  0
 33 60  1  0
M  END
>  <UniqueID>  (87) 
79

>  <SMILES>  (87) 
COc1ccccc1COC(=O)C1=C(CSc2nnnn2C)CO[C@@H]2[C@H](Nc3ccccc3)C(=O)N12

>  <Energy>  (87) 
151.89668773405063

>  <Genealogy>  (87) 
COc1ccccc1COC(=O)C1=C(CSc2nnnn2C)CO[C@@H]2[C@H](Nc3ccccc3)C(=O)N12 (chirality)
COc1ccccc1COC(=O)C1=C(CSc2nnnn2C)CO[C@@H]2[C@H](Nc3ccccc3)C(=O)N12 (3D coordinates assigned)
COc1ccccc1COC(=O)C1=C(CSc2nnnn2C)CO[C@@H]2[C@H](Nc3ccccc3)C(=O)N12 (nonaromatic ring conformer: 151.89668773405063 kcal/mol)

>  <smiles>  (87) 
COc1ccccc1COC(=O)C1=C(CSc2nnnn2C)COC2C(Nc3ccccc3)C(=O)N12

>  <score_type>  (87) 
oracle

>  <origin>  (87) 
adg

>  <m_score__min__energy>  (87) 
-9.3499999999999996

>  <m_primary>  (87) 
energy

$$$$
87:0
     RDKit          3D

 32 35  0  0  0  0  0  0  0  0999 V2000
   58.2292   25.5733   47.2259 H   0  0  0  0  0  0  0  0  0  0  0  0
   57.3810   26.0710   46.7330 C   0  0  0  0  0  0  0  0  0  0  0  0
   56.1270   25.5830   46.6640 N   0  0  0  0  0  0  0  0  0  0  0  0
   55.3750   26.4460   45.9970 N   0  0  0  0  0  0  0  0  0  0  0  0
   56.1580   27.4740   45.6230 C   0  0  0  0  0  0  0  0  0  0  0  0
   55.6980   28.6750   44.9840 N   0  0  0  0  0  0  0  0  0  0  0  0
   56.3890   29.6990   44.5630 C   0  0  0  0  0  0  0  0  0  0  0  0
   57.2320   30.3070   45.4400 N   0  0  0  0  0  0  0  0  0  0  0  0
   58.0060   31.3790   45.1100 C   0  0  0  0  0  0  0  0  0  0  0  0
   58.8880   31.9730   46.1410 C   0  0  0  0  0  0  0  0  0  0  0  0
   60.1950   31.5560   46.3930 C   0  0  0  0  0  0  0  0  0  0  0  0
   60.7514   30.7539   45.8860 H   0  0  0  0  0  0  0  0  0  0  0  0
   60.6380   32.3680   47.4160 C   0  0  0  0  0  0  0  0  0  0  0  0
   61.8550   32.4260   48.0900 C   0  0  0  0  0  0  0  0  0  0  0  0
   62.7980   31.6430   47.7960 O   0  0  0  0  0  0  0  0  0  0  0  0
   62.0040   33.3560   49.0820 N   0  0  0  0  0  0  0  0  0  0  0  0
   62.9100   33.4160   49.6000 H   0  0  0  0  0  0  0  0  0  0  0  0
   60.9910   34.2190   49.4180 C   0  0  0  0  0  0  0  0  0  0  0  0
   61.1449   34.9553   50.2206 H   0  0  0  0  0  0  0  0  0  0  0  0
   59.7580   34.1690   48.7440 C   0  0  0  0  0  0  0  0  0  0  0  0
   58.9366   34.8536   49.0020 H   0  0  0  0  0  0  0  0  0  0  0  0
   59.6190   33.2180   47.7370 C   0  0  0  0  0  0  0  0  0  0  0  0
   58.5410   32.9930   46.9690 N   0  0  0  0  0  0  0  0  0  0  0  0
   57.6350   33.5070   47.0170 H   0  0  0  0  0  0  0  0  0  0  0  0
   57.9460   31.8840   43.8030 C   0  0  0  0  0  0  0  0  0  0  0  0
   58.5561   32.7530   43.5158 H   0  0  0  0  0  0  0  0  0  0  0  0
   57.1060   31.2750   42.8700 C   0  0  0  0  0  0  0  0  0  0  0  0
   57.0583   31.6609   41.8410 H   0  0  0  0  0  0  0  0  0  0  0  0
   56.3270   30.1790   43.2380 C   0  0  0  0  0  0  0  0  0  0  0  0
   55.6699   29.6929   42.5018 H   0  0  0  0  0  0  0  0  0  0  0  0
   57.4380   27.2900   46.0910 C   0  0  0  0  0  0  0  0  0  0  0  0
   58.3043   27.9586   45.9793 H   0  0  0  0  0  0  0  0  0  0  0  0
  1  2  1  0
  2  3  1  0
  3  4  1  0
  4  5  2  0
  5  6  1  0
  6  7  2  0
  7  8  1  0
  8  9  1  0
  9 10  1  0
 10 11  2  0
 11 12  1  0
 11 13  1  0
 13 14  1  0
 14 15  2  0
 14 16  1  0
 16 17  1  0
 16 18  1  0
 18 19  1  0
 18 20  2  0
 20 21  1  0
 20 22  1  0
 22 23  1  0
 23 24  1  0
  9 25  2  0
 25 26  1  0
 25 27  1  0
 27 28  1  0
 27 29  2  0
 29 30  1  0
  5 31  1  0
 31 32  1  0
 31  2  2  0
 29  7  1  0
 23 10  1  0
 22 13  2  0
M  CHG  2   3  -1   8  -1
M  END
>  <UniqueID>  (88) 
80

>  <SMILES>  (88) 
O=c1[nH]ccc2[nH]c(-c3ccc/c(=N\c4cc[n-]n4)[n-]3)cc12

>  <Energy>  (88) 
109.35930717892447

>  <Genealogy>  (88) 
O=c1[nH]ccc2[nH]c(-c3cccc(=Nc4cc[n-]n4)[n-]3)cc12 (protonated)
O=c1[nH]ccc2[nH]c(-c3ccc/c(=N\c4cc[n-]n4)[n-]3)cc12 (cis-trans isomerization)
O=c1[nH]ccc2[nH]c(-c3ccc/c(=N\c4cc[n-]n4)[n-]3)cc12 (3D coordinates assigned)
O=c1[nH]ccc2[nH]c(-c3ccc/c(=N\c4cc[n-]n4)[n-]3)cc12 (optimized conformer: 109.35930717892447 kcal/mol)

>  <smiles>  (88) 
O=c1[nH]ccc2[nH]c(-c3cccc(=Nc4cc[nH]n4)[nH]3)cc12

>  <score_type>  (88) 
oracle

>  <origin>  (88) 
adg

>  <m_score__min__energy>  (88) 
-11.130000000000001

>  <m_primary>  (88) 
energy

$$$$
88:0
     RDKit          3D

 22 23  0  0  0  0  0  0  0  0999 V2000
   53.9600   25.6630   46.3930 H   0  0  0  0  0  0  0  0  0  0  0  0
   54.7780   25.2640   45.8800 N   0  0  0  0  0  0  0  0  0  0  0  0
   55.8640   25.9450   45.7130 C   0  0  0  0  0  0  0  0  0  0  0  0
   57.3630   25.2640   45.3840 S   0  0  0  0  0  0  0  0  0  0  0  0
   58.1400   26.7610   45.3270 C   0  0  0  0  0  0  0  0  0  0  0  0
   59.2097   26.9275   45.1323 H   0  0  0  0  0  0  0  0  0  0  0  0
   57.1880   27.7490   45.5700 C   0  0  0  0  0  0  0  0  0  0  0  0
   57.5100   29.1500   45.5940 C   0  0  0  0  0  0  0  0  0  0  0  0
   57.7780   30.3240   45.6150 C   0  0  0  0  0  0  0  0  0  0  0  0
   58.0990   31.7280   45.6390 C   0  0  0  0  0  0  0  0  0  0  0  0
   58.5230   32.3260   46.8340 C   0  0  0  0  0  0  0  0  0  0  0  0
   58.6095   31.7224   47.7495 H   0  0  0  0  0  0  0  0  0  0  0  0
   58.8360   33.6880   46.8640 C   0  0  0  0  0  0  0  0  0  0  0  0
   59.1685   34.1546   47.8030 H   0  0  0  0  0  0  0  0  0  0  0  0
   58.7270   34.4580   45.7020 C   0  0  0  0  0  0  0  0  0  0  0  0
   58.9731   35.5298   45.7271 H   0  0  0  0  0  0  0  0  0  0  0  0
   58.3050   33.8650   44.5080 C   0  0  0  0  0  0  0  0  0  0  0  0
   58.2204   34.4714   43.5941 H   0  0  0  0  0  0  0  0  0  0  0  0
   57.9900   32.5020   44.4730 C   0  0  0  0  0  0  0  0  0  0  0  0
   57.5810   31.9390   43.3080 F   0  0  0  0  0  0  0  0  0  0  0  0
   55.9250   27.2920   45.7840 N   0  0  0  0  0  0  0  0  0  0  0  0
   55.1040   27.9080   45.9790 H   0  0  0  0  0  0  0  0  0  0  0  0
  1  2  1  0
  2  3  2  0
  3  4  1  0
  4  5  1  0
  5  6  1  0
  5  7  2  0
  7  8  1  0
  8  9  3  0
  9 10  1  0
 10 11  2  0
 11 12  1  0
 11 13  1  0
 13 14  1  0
 13 15  2  0
 15 16  1  0
 15 17  1  0
 17 18  1  0
 17 19  2  0
 19 20  1  0
  7 21  1  0
 21 22  1  0
 21  3  1  0
 19 10  1  0
M  END
>  <UniqueID>  (89) 
81

>  <SMILES>  (89) 
[H]/N=c1\[nH]c(C#Cc2ccccc2F)cs1

>  <Energy>  (89) 
48.76391379702421

>  <Genealogy>  (89) 
[H]/N=c1\[nH]c(C#Cc2ccccc2F)cs1 (cis-trans isomerization)
[H]/N=c1\[nH]c(C#Cc2ccccc2F)cs1 (3D coordinates assigned)
[H]/N=c1\[nH]c(C#Cc2ccccc2F)cs1 (optimized conformer: 48.76391379702421 kcal/mol)

>  <smiles>  (89) 
N=c1[nH]c(C#Cc2ccccc2F)cs1

>  <score_type>  (89) 
oracle

>  <origin>  (89) 
adg

>  <m_score__min__energy>  (89) 
-5.9800000000000004

>  <m_primary>  (89) 
energy

$$$$
89:0
     RDKit          3D

 52 56  0  0  0  0  0  0  0  0999 V2000
   61.0880   30.4940   46.6080 C   0  0  0  0  0  0  0  0  0  0  0  0
   59.9760   30.4200   45.7240 O   0  0  0  0  0  0  0  0  0  0  0  0
   59.0090   29.4040   45.7520 C   0  0  0  0  0  0  0  0  0  0  0  0
   59.2610   28.1270   46.3080 C   0  0  0  0  0  0  0  0  0  0  0  0
   58.2610   27.1310   46.3050 C   0  0  0  0  0  0  0  0  0  0  0  0
   58.5210   25.9120   46.8400 F   0  0  0  0  0  0  0  0  0  0  0  0
   56.9990   27.3900   45.7470 C   0  0  0  0  0  0  0  0  0  0  0  0
   56.7710   28.6540   45.2070 C   0  0  0  0  0  0  0  0  0  0  0  0
   55.6360   29.0940   44.6370 N   0  0  0  0  0  0  0  0  0  0  0  0
   55.8720   30.3720   44.2690 C   0  0  0  0  0  0  0  0  0  0  0  0
   57.1680   30.7460   44.6130 C   0  0  0  0  0  0  0  0  0  0  0  0
   57.7750   32.1050   44.4120 C   0  0  0  0  0  0  0  0  0  0  0  0
   57.3000   33.1490   45.4500 C   0  0  0  0  0  0  0  0  0  0  0  0
   58.1910   33.3360   46.6180 N   0  0  0  0  0  0  0  0  0  0  0  0
   58.3670   32.1410   47.4620 C   0  0  0  0  0  0  0  0  0  0  0  0
   59.0120   32.5410   48.7910 C   0  0  0  0  0  0  0  0  0  0  0  0
   60.1860   33.3940   48.5660 N   0  0  0  0  0  0  0  0  0  0  0  0
   61.0930   33.6250   49.6520 C   0  0  0  0  0  0  0  0  0  0  0  0
   62.4080   33.9040   49.4230 N   0  0  0  0  0  0  0  0  0  0  0  0
   63.1020   34.0730   50.9290 S   0  0  0  0  0  0  0  0  0  0  0  0
   61.7630   33.8050   51.8770 C   0  0  0  0  0  0  0  0  0  0  0  0
   61.6220   33.8190   53.2600 C   0  0  0  0  0  0  0  0  0  0  0  0
   60.3410   33.5950   53.7870 C   0  0  0  0  0  0  0  0  0  0  0  0
   59.2450   33.3770   52.9270 C   0  0  0  0  0  0  0  0  0  0  0  0
   59.4220   33.3730   51.5310 C   0  0  0  0  0  0  0  0  0  0  0  0
   60.7070   33.5750   51.0120 C   0  0  0  0  0  0  0  0  0  0  0  0
   60.6230   33.6890   47.2000 C   0  0  0  0  0  0  0  0  0  0  0  0
   59.4240   34.1100   46.3340 C   0  0  0  0  0  0  0  0  0  0  0  0
   57.7370   29.6310   45.2110 C   0  0  0  0  0  0  0  0  0  0  0  0
   60.7316   30.4703   47.6484 H   0  0  0  0  0  0  0  0  0  0  0  0
   61.7558   29.6383   46.4296 H   0  0  0  0  0  0  0  0  0  0  0  0
   61.6365   31.4306   46.4296 H   0  0  0  0  0  0  0  0  0  0  0  0
   60.2458   27.9087   46.7467 H   0  0  0  0  0  0  0  0  0  0  0  0
   56.2146   26.6189   45.7365 H   0  0  0  0  0  0  0  0  0  0  0  0
   54.7480   28.5600   44.5060 H   0  0  0  0  0  0  0  0  0  0  0  0
   55.1426   31.0254   43.7679 H   0  0  0  0  0  0  0  0  0  0  0  0
   58.8687   32.0128   44.4854 H   0  0  0  0  0  0  0  0  0  0  0  0
   57.4536   32.4613   43.4222 H   0  0  0  0  0  0  0  0  0  0  0  0
   57.2048   34.1177   44.9376 H   0  0  0  0  0  0  0  0  0  0  0  0
   56.3506   32.7656   45.8520 H   0  0  0  0  0  0  0  0  0  0  0  0
   57.3864   31.6814   47.6548 H   0  0  0  0  0  0  0  0  0  0  0  0
   59.0162   31.4201   46.9434 H   0  0  0  0  0  0  0  0  0  0  0  0
   58.2773   33.0914   49.3970 H   0  0  0  0  0  0  0  0  0  0  0  0
   59.3345   31.6289   49.3146 H   0  0  0  0  0  0  0  0  0  0  0  0
   62.4847   33.9994   53.9182 H   0  0  0  0  0  0  0  0  0  0  0  0
   60.1910   33.5894   54.8767 H   0  0  0  0  0  0  0  0  0  0  0  0
   58.2439   33.2088   53.3507 H   0  0  0  0  0  0  0  0  0  0  0  0
   58.5658   33.2140   50.8589 H   0  0  0  0  0  0  0  0  0  0  0  0
   61.3585   34.5066   47.2231 H   0  0  0  0  0  0  0  0  0  0  0  0
   61.0767   32.7853   46.7670 H   0  0  0  0  0  0  0  0  0  0  0  0
   59.2175   35.1746   46.5184 H   0  0  0  0  0  0  0  0  0  0  0  0
   59.6959   33.9144   45.2862 H   0  0  0  0  0  0  0  0  0  0  0  0
  1  2  1  0
  2  3  1  0
  3  4  2  0
  4  5  1  0
  5  6  1  0
  5  7  2  0
  7  8  1  0
  8  9  1  0
  9 10  1  0
 10 11  2  0
 11 12  1  0
 12 13  1  0
 13 14  1  0
 14 15  1  0
 15 16  1  0
 16 17  1  0
 17 18  1  0
 18 19  2  0
 19 20  1  0
 20 21  1  0
 21 22  2  0
 22 23  1  0
 23 24  2  0
 24 25  1  0
 25 26  2  0
 17 27  1  0
 27 28  1  0
 11 29  1  0
 29  3  1  0
 29  8  2  0
 28 14  1  0
 26 18  1  0
 26 21  1  0
  1 30  1  0
  1 31  1  0
  1 32  1  0
  4 33  1  0
  7 34  1  0
  9 35  1  0
 10 36  1  0
 12 37  1  0
 12 38  1  0
 13 39  1  0
 13 40  1  0
 15 41  1  0
 15 42  1  0
 16 43  1  0
 16 44  1  0
 22 45  1  0
 23 46  1  0
 24 47  1  0
 25 48  1  0
 27 49  1  0
 27 50  1  0
 28 51  1  0
 28 52  1  0
M  END
>  <UniqueID>  (90) 
82

>  <SMILES>  (90) 
COc1cc(F)cc2[nH]cc(CCN3CCN(c4nsc5ccccc45)CC3)c12

>  <Energy>  (90) 
139.49653947115016

>  <Genealogy>  (90) 
COc1cc(F)cc2[nH]cc(CCN3CCN(c4nsc5ccccc45)CC3)c12 (3D coordinates assigned)
COc1cc(F)cc2[nH]cc(CCN3CCN(c4nsc5ccccc45)CC3)c12 (nonaromatic ring conformer: 139.49653947115016 kcal/mol)

>  <smiles>  (90) 
COc1cc(F)cc2[nH]cc(CCN3CCN(c4nsc5ccccc45)CC3)c12

>  <score_type>  (90) 
oracle

>  <origin>  (90) 
adg

>  <m_score__min__energy>  (90) 
-7.8499999999999996

>  <m_primary>  (90) 
energy

$$$$
90:0
     RDKit          3D

 52 55  0  0  1  0  0  0  0  0999 V2000
   56.8970   30.4670   42.8030 C   0  0  0  0  0  0  0  0  0  0  0  0
   57.2800   29.9170   44.1260 C   0  0  0  0  0  0  0  0  0  0  0  0
   58.0990   30.5010   44.9880 N   0  0  0  0  0  0  0  0  0  0  0  0
   58.4130   29.9630   46.1700 C   0  0  0  0  0  0  0  0  0  0  0  0
   59.1880   30.5680   46.9460 N   0  0  0  0  0  0  0  0  0  0  0  0
   59.2640   31.9350   47.3090 C   0  0  2  0  0  0  0  0  0  0  0  0
   58.3700   32.9290   46.7510 C   0  0  0  0  0  0  0  0  0  0  0  0
   59.0220   33.7420   45.6650 C   0  0  0  0  0  0  0  0  0  0  0  0
   60.0990   34.6010   46.3620 C   0  0  0  0  0  0  0  0  0  0  0  0
   61.1200   33.5780   46.7550 C   0  0  0  0  0  0  0  0  0  0  0  0
   62.4520   33.8560   46.6810 C   0  0  0  0  0  0  0  0  0  0  0  0
   63.4210   32.9370   47.0220 C   0  0  0  0  0  0  0  0  0  0  0  0
   62.9910   31.7000   47.4490 C   0  0  0  0  0  0  0  0  0  0  0  0
   61.6370   31.4160   47.5250 C   0  0  0  0  0  0  0  0  0  0  0  0
   60.6710   32.3610   47.1740 C   0  0  0  0  0  0  0  0  0  0  0  0
   57.8800   28.7550   46.5300 C   0  0  0  0  0  0  0  0  0  0  0  0
   57.0240   28.1510   45.6220 C   0  0  0  0  0  0  0  0  0  0  0  0
   56.4630   26.8660   46.0210 C   0  0  0  0  0  0  0  0  0  0  0  0
   55.2380   26.5960   45.9810 O   0  0  0  0  0  0  0  0  0  0  0  0
   57.3790   25.8700   46.4830 N   0  0  0  0  0  0  0  0  0  0  0  0
   56.9460   24.5500   46.9080 C   0  0  0  0  0  0  0  0  0  0  0  0
   57.4840   23.5680   45.8930 C   0  0  0  0  0  0  0  0  0  0  0  0
   58.7370   24.0140   45.2200 C   0  0  0  0  0  0  0  0  0  0  0  0
   59.6030   24.9360   46.0150 C   0  0  0  0  0  0  0  0  0  0  0  0
   58.8190   26.1240   46.5530 C   0  0  0  0  0  0  0  0  0  0  0  0
   56.7230   28.7110   44.4430 N   0  0  0  0  0  0  0  0  0  0  0  0
   56.2736   31.3622   42.9446 H   0  0  0  0  0  0  0  0  0  0  0  0
   57.8037   30.7366   42.2416 H   0  0  0  0  0  0  0  0  0  0  0  0
   56.3296   29.7101   42.2416 H   0  0  0  0  0  0  0  0  0  0  0  0
   58.8686   31.9216   48.3354 H   0  0  0  0  0  0  0  0  0  0  0  0
   57.4916   32.4177   46.3304 H   0  0  0  0  0  0  0  0  0  0  0  0
   58.0864   33.6173   47.5608 H   0  0  0  0  0  0  0  0  0  0  0  0
   59.4855   33.0802   44.9186 H   0  0  0  0  0  0  0  0  0  0  0  0
   58.2884   34.3682   45.1361 H   0  0  0  0  0  0  0  0  0  0  0  0
   60.5248   35.3434   45.6710 H   0  0  0  0  0  0  0  0  0  0  0  0
   59.7139   35.1866   47.2098 H   0  0  0  0  0  0  0  0  0  0  0  0
   62.7660   34.8521   46.3358 H   0  0  0  0  0  0  0  0  0  0  0  0
   64.4916   33.1809   46.9560 H   0  0  0  0  0  0  0  0  0  0  0  0
   63.7271   30.9329   47.7314 H   0  0  0  0  0  0  0  0  0  0  0  0
   61.3154   30.4223   47.8701 H   0  0  0  0  0  0  0  0  0  0  0  0
   58.1197   28.2850   47.4952 H   0  0  0  0  0  0  0  0  0  0  0  0
   57.3485   24.3222   47.9060 H   0  0  0  0  0  0  0  0  0  0  0  0
   55.8491   24.4943   46.9691 H   0  0  0  0  0  0  0  0  0  0  0  0
   57.6874   22.6168   46.4067 H   0  0  0  0  0  0  0  0  0  0  0  0
   56.7192   23.4718   45.1082 H   0  0  0  0  0  0  0  0  0  0  0  0
   59.3284   23.1187   44.9779 H   0  0  0  0  0  0  0  0  0  0  0  0
   58.4172   24.5874   44.3374 H   0  0  0  0  0  0  0  0  0  0  0  0
   60.0323   24.3799   46.8614 H   0  0  0  0  0  0  0  0  0  0  0  0
   60.3930   25.3194   45.3525 H   0  0  0  0  0  0  0  0  0  0  0  0
   59.1039   26.2996   47.6009 H   0  0  0  0  0  0  0  0  0  0  0  0
   59.0519   27.0073   45.9402 H   0  0  0  0  0  0  0  0  0  0  0  0
   56.0750   28.2170   43.7940 H   0  0  0  0  0  0  0  0  0  0  0  0
  1  2  1  0
  2  3  2  0
  3  4  1  0
  4  5  2  0
  5  6  1  0
  6  7  1  0
  7  8  1  0
  8  9  1  0
  9 10  1  0
 10 11  2  0
 11 12  1  0
 12 13  2  0
 13 14  1  0
 14 15  2  0
  4 16  1  0
 16 17  2  0
 17 18  1  0
 18 19  2  0
 18 20  1  0
 20 21  1  0
 21 22  1  0
 22 23  1  0
 23 24  1  0
 24 25  1  0
 17 26  1  0
 26  2  1  0
 15  6  1  0
 25 20  1  0
 15 10  1  0
  1 27  1  0
  1 28  1  0
  1 29  1  0
  6 30  1  1
  7 31  1  0
  7 32  1  0
  8 33  1  0
  8 34  1  0
  9 35  1  0
  9 36  1  0
 11 37  1  0
 12 38  1  0
 13 39  1  0
 14 40  1  0
 16 41  1  0
 21 42  1  0
 21 43  1  0
 22 44  1  0
 22 45  1  0
 23 46  1  0
 23 47  1  0
 24 48  1  0
 24 49  1  0
 25 50  1  0
 25 51  1  0
 26 52  1  0
M  END
>  <smiles>  (91) 
Cc1nc(=NC2CCCc3ccccc32)cc(C(=O)N2CCCCC2)[nH]1

>  <score_type>  (91) 
oracle

>  <origin>  (91) 
adg

>  <m_score__min__energy>  (91) 
-9.4499999999999993

>  <m_primary>  (91) 
energy

$$$$
91:0
     RDKit          3D

 41 43  0  0  0  0  0  0  0  0999 V2000
   56.8310   27.2460   45.7170 C   0  0  0  0  0  0  0  0  0  0  0  0
   56.0010   28.3030   45.2460 O   0  0  0  0  0  0  0  0  0  0  0  0
   56.4640   29.4060   44.5150 C   0  0  0  0  0  0  0  0  0  0  0  0
   56.3260   29.5030   43.1200 C   0  0  0  0  0  0  0  0  0  0  0  0
   56.7920   30.5980   42.4640 N   0  0  0  0  0  0  0  0  0  0  0  0
   57.3970   31.6250   43.1170 C   0  0  0  0  0  0  0  0  0  0  0  0
   57.5610   31.5800   44.5110 C   0  0  0  0  0  0  0  0  0  0  0  0
   58.2220   32.6960   45.2350 C   0  0  0  0  0  0  0  0  0  0  0  0
   58.6500   33.8420   44.5420 C   0  0  0  0  0  0  0  0  0  0  0  0
   59.2800   34.8850   45.2230 C   0  0  0  0  0  0  0  0  0  0  0  0
   59.4860   34.8020   46.6010 C   0  0  0  0  0  0  0  0  0  0  0  0
   59.0560   33.6730   47.3190 C   0  0  0  0  0  0  0  0  0  0  0  0
   59.2860   33.5980   48.7820 C   0  0  0  0  0  0  0  0  0  0  0  0
   60.1320   34.3680   49.3140 O   0  0  0  0  0  0  0  0  0  0  0  0
   58.5490   32.6770   49.6040 N   0  0  0  0  0  0  0  0  0  0  0  0
   58.8160   32.5190   51.0310 C   0  0  0  0  0  0  0  0  0  0  0  0
   57.9330   31.4570   51.6060 C   0  0  0  0  0  0  0  0  0  0  0  0
   57.4970   31.3820   52.9140 C   0  0  0  0  0  0  0  0  0  0  0  0
   56.6860   30.2690   52.9110 C   0  0  0  0  0  0  0  0  0  0  0  0
   55.9260   29.7300   54.0760 C   0  0  0  0  0  0  0  0  0  0  0  0
   56.6530   29.7620   51.7010 O   0  0  0  0  0  0  0  0  0  0  0  0
   57.3940   30.4550   50.8850 N   0  0  0  0  0  0  0  0  0  0  0  0
   58.4340   32.6200   46.6240 C   0  0  0  0  0  0  0  0  0  0  0  0
   57.0860   30.4540   45.2020 C   0  0  0  0  0  0  0  0  0  0  0  0
   56.8329   27.2436   46.8170 H   0  0  0  0  0  0  0  0  0  0  0  0
   56.4442   26.2843   45.3489 H   0  0  0  0  0  0  0  0  0  0  0  0
   57.8570   27.3936   45.3489 H   0  0  0  0  0  0  0  0  0  0  0  0
   55.8402   28.6916   42.5583 H   0  0  0  0  0  0  0  0  0  0  0  0
   57.7599   32.4956   42.5509 H   0  0  0  0  0  0  0  0  0  0  0  0
   58.4874   33.9171   43.4567 H   0  0  0  0  0  0  0  0  0  0  0  0
   59.6154   35.7757   44.6715 H   0  0  0  0  0  0  0  0  0  0  0  0
   59.9884   35.6261   47.1287 H   0  0  0  0  0  0  0  0  0  0  0  0
   57.7500   32.1410   49.1990 H   0  0  0  0  0  0  0  0  0  0  0  0
   59.8686   32.2337   51.1745 H   0  0  0  0  0  0  0  0  0  0  0  0
   58.6126   33.4714   51.5424 H   0  0  0  0  0  0  0  0  0  0  0  0
   57.7388   32.0493   53.7544 H   0  0  0  0  0  0  0  0  0  0  0  0
   56.3998   30.0661   55.0101 H   0  0  0  0  0  0  0  0  0  0  0  0
   54.8893   30.0959   54.0385 H   0  0  0  0  0  0  0  0  0  0  0  0
   55.9284   28.6306   54.0385 H   0  0  0  0  0  0  0  0  0  0  0  0
   58.1088   31.7246   47.1740 H   0  0  0  0  0  0  0  0  0  0  0  0
   57.2040   30.3952   46.2941 H   0  0  0  0  0  0  0  0  0  0  0  0
  1  2  1  0
  2  3  1  0
  3  4  2  0
  4  5  1  0
  5  6  2  0
  6  7  1  0
  7  8  1  0
  8  9  2  0
  9 10  1  0
 10 11  2  0
 11 12  1  0
 12 13  1  0
 13 14  2  0
 13 15  1  0
 15 16  1  0
 16 17  1  0
 17 18  1  0
 18 19  2  0
 19 20  1  0
 19 21  1  0
 21 22  1  0
 12 23  2  0
  7 24  2  0
 24  3  1  0
 23  8  1  0
 22 17  2  0
  1 25  1  0
  1 26  1  0
  1 27  1  0
  4 28  1  0
  6 29  1  0
  9 30  1  0
 10 31  1  0
 11 32  1  0
 15 33  1  0
 16 34  1  0
 16 35  1  0
 18 36  1  0
 20 37  1  0
 20 38  1  0
 20 39  1  0
 23 40  1  0
 24 41  1  0
M  END
>  <UniqueID>  (92) 
83

>  <SMILES>  (92) 
COc1cncc(-c2cccc(C(=O)NCc3cc(C)on3)c2)c1

>  <Energy>  (92) 
77.07613617285152

>  <Genealogy>  (92) 
COc1cncc(-c2cccc(C(=O)NCc3cc(C)on3)c2)c1 (3D coordinates assigned)
COc1cncc(-c2cccc(C(=O)NCc3cc(C)on3)c2)c1 (optimized conformer: 77.07613617285152 kcal/mol)

>  <smiles>  (92) 
COc1cncc(-c2cccc(C(=O)NCc3cc(C)on3)c2)c1

>  <score_type>  (92) 
oracle

>  <origin>  (92) 
adg

>  <m_score__min__energy>  (92) 
-8.4299999999999997

>  <m_primary>  (92) 
energy

$$$$
92:0
     RDKit          3D

 36 38  0  0  0  0  0  0  0  0999 V2000
   58.5710   28.2960   44.8300 C   0  0  0  0  0  0  0  0  0  0  0  0
   57.4830   28.6440   45.8340 C   0  0  0  0  0  0  0  0  0  0  0  0
   56.6440   29.6610   45.2930 O   0  0  0  0  0  0  0  0  0  0  0  0
   57.0790   30.6600   44.4100 C   0  0  0  0  0  0  0  0  0  0  0  0
   56.9460   30.5430   43.0130 C   0  0  0  0  0  0  0  0  0  0  0  0
   57.3890   31.5710   42.1770 C   0  0  0  0  0  0  0  0  0  0  0  0
   57.9720   32.7170   42.7200 C   0  0  0  0  0  0  0  0  0  0  0  0
   58.1300   32.8380   44.1120 C   0  0  0  0  0  0  0  0  0  0  0  0
   58.6960   33.9790   44.6990 O   0  0  0  0  0  0  0  0  0  0  0  0
   59.4110   34.0030   45.9050 C   0  0  0  0  0  0  0  0  0  0  0  0
   58.7820   34.2540   47.1380 C   0  0  0  0  0  0  0  0  0  0  0  0
   59.5260   34.2870   48.3190 C   0  0  0  0  0  0  0  0  0  0  0  0
   60.9120   34.0800   48.2860 C   0  0  0  0  0  0  0  0  0  0  0  0
   61.6700   34.1100   49.4670 C   0  0  0  0  0  0  0  0  0  0  0  0
   63.0530   33.9090   49.4180 C   0  0  0  0  0  0  0  0  0  0  0  0
   63.6870   33.6780   48.1950 C   0  0  0  0  0  0  0  0  0  0  0  0
   62.9440   33.6460   47.0120 C   0  0  0  0  0  0  0  0  0  0  0  0
   61.5560   33.8460   47.0470 C   0  0  0  0  0  0  0  0  0  0  0  0
   60.7980   33.8160   45.8660 C   0  0  0  0  0  0  0  0  0  0  0  0
   57.6660   31.8130   44.9460 C   0  0  0  0  0  0  0  0  0  0  0  0
   59.4854   28.0035   45.3669 H   0  0  0  0  0  0  0  0  0  0  0  0
   58.2336   27.4609   44.1985 H   0  0  0  0  0  0  0  0  0  0  0  0
   58.7809   29.1718   44.1985 H   0  0  0  0  0  0  0  0  0  0  0  0
   56.8816   27.7481   46.0480 H   0  0  0  0  0  0  0  0  0  0  0  0
   57.9451   29.0067   46.7640 H   0  0  0  0  0  0  0  0  0  0  0  0
   56.4922   29.6399   42.5788 H   0  0  0  0  0  0  0  0  0  0  0  0
   57.2779   31.4768   41.0867 H   0  0  0  0  0  0  0  0  0  0  0  0
   58.3088   33.5277   42.0572 H   0  0  0  0  0  0  0  0  0  0  0  0
   57.6960   34.4255   47.1719 H   0  0  0  0  0  0  0  0  0  0  0  0
   59.0228   34.4761   49.2787 H   0  0  0  0  0  0  0  0  0  0  0  0
   61.1754   34.2919   50.4325 H   0  0  0  0  0  0  0  0  0  0  0  0
   63.6436   33.9329   50.3457 H   0  0  0  0  0  0  0  0  0  0  0  0
   64.7752   33.5207   48.1630 H   0  0  0  0  0  0  0  0  0  0  0  0
   63.4484   33.4637   46.0516 H   0  0  0  0  0  0  0  0  0  0  0  0
   61.2981   33.6441   44.9014 H   0  0  0  0  0  0  0  0  0  0  0  0
   57.7640   31.9150   46.0369 H   0  0  0  0  0  0  0  0  0  0  0  0
  1  2  1  0
  2  3  1  0
  3  4  1  0
  4  5  2  0
  5  6  1  0
  6  7  2  0
  7  8  1  0
  8  9  1  0
  9 10  1  0
 10 11  2  0
 11 12  1  0
 12 13  2  0
 13 14  1  0
 14 15  2  0
 15 16  1  0
 16 17  2  0
 17 18  1  0
 18 19  2  0
  8 20  2  0
 20  4  1  0
 19 10  1  0
 18 13  1  0
  1 21  1  0
  1 22  1  0
  1 23  1  0
  2 24  1  0
  2 25  1  0
  5 26  1  0
  6 27  1  0
  7 28  1  0
 11 29  1  0
 12 30  1  0
 14 31  1  0
 15 32  1  0
 16 33  1  0
 17 34  1  0
 19 35  1  0
 20 36  1  0
M  END
>  <UniqueID>  (93) 
84

>  <SMILES>  (93) 
CCOc1cccc(Oc2ccc3ccccc3c2)c1

>  <Energy>  (93) 
44.531267291661884

>  <Genealogy>  (93) 
CCOc1cccc(Oc2ccc3ccccc3c2)c1 (3D coordinates assigned)
CCOc1cccc(Oc2ccc3ccccc3c2)c1 (optimized conformer: 44.531267291661884 kcal/mol)

>  <smiles>  (93) 
CCOc1cccc(Oc2ccc3ccccc3c2)c1

>  <score_type>  (93) 
oracle

>  <origin>  (93) 
adg

>  <m_score__min__energy>  (93) 
-7.54

>  <m_primary>  (93) 
energy

$$$$
93:0
     RDKit          3D

 36 38  0  0  0  0  0  0  0  0999 V2000
   65.9860   33.0530   50.2180 C   0  0  0  0  0  0  0  0  0  0  0  0
   65.2320   32.1930   49.3700 O   0  0  0  0  0  0  0  0  0  0  0  0
   63.9620   32.4990   48.8600 C   0  0  0  0  0  0  0  0  0  0  0  0
   63.7740   33.0640   47.5850 C   0  0  0  0  0  0  0  0  0  0  0  0
   62.4880   33.3510   47.1220 C   0  0  0  0  0  0  0  0  0  0  0  0
   61.3580   33.0880   47.9270 C   0  0  0  0  0  0  0  0  0  0  0  0
   60.0100   33.3550   47.4540 N   0  0  1  0  0  0  0  0  0  0  0  0
   59.5320   34.6040   47.9550 C   0  0  0  0  0  0  0  0  0  0  0  0
   59.3390   34.8140   49.1810 O   0  0  0  0  0  0  0  0  0  0  0  0
   59.2600   35.5830   46.9770 N   0  0  0  0  0  0  0  0  0  0  0  0
   59.5920   35.0060   45.6930 C   0  0  0  0  0  0  0  0  0  0  0  0
   59.9550   33.5250   45.9760 C   0  0  2  0  0  0  0  0  0  0  0  0
   58.9470   32.5740   45.3440 C   0  0  0  0  0  0  0  0  0  0  0  0
   58.3120   32.9150   44.1370 C   0  0  0  0  0  0  0  0  0  0  0  0
   57.3990   32.0390   43.5460 C   0  0  0  0  0  0  0  0  0  0  0  0
   57.1120   30.8100   44.1490 C   0  0  0  0  0  0  0  0  0  0  0  0
   55.9630   29.7180   43.3940 Cl  0  0  0  0  0  0  0  0  0  0  0  0
   57.7430   30.4560   45.3460 C   0  0  0  0  0  0  0  0  0  0  0  0
   57.4750   29.2650   45.9360 F   0  0  0  0  0  0  0  0  0  0  0  0
   58.6570   31.3320   45.9400 C   0  0  0  0  0  0  0  0  0  0  0  0
   61.5550   32.5130   49.1950 C   0  0  0  0  0  0  0  0  0  0  0  0
   62.8430   32.2270   49.6550 C   0  0  0  0  0  0  0  0  0  0  0  0
   65.7730   32.8100   51.2695 H   0  0  0  0  0  0  0  0  0  0  0  0
   67.0591   32.9146   50.0198 H   0  0  0  0  0  0  0  0  0  0  0  0
   65.7084   34.0988   50.0198 H   0  0  0  0  0  0  0  0  0  0  0  0
   64.6451   33.2809   46.9492 H   0  0  0  0  0  0  0  0  0  0  0  0
   62.3541   33.7861   46.1206 H   0  0  0  0  0  0  0  0  0  0  0  0
   59.3510   32.6090   47.7870 H   0  0  0  0  0  0  0  0  0  0  0  0
   58.7302   35.0657   45.0120 H   0  0  0  0  0  0  0  0  0  0  0  0
   60.4234   35.5416   45.2114 H   0  0  0  0  0  0  0  0  0  0  0  0
   60.9291   33.2796   45.5277 H   0  0  0  0  0  0  0  0  0  0  0  0
   58.5358   33.8781   43.6550 H   0  0  0  0  0  0  0  0  0  0  0  0
   56.9041   32.3163   42.6036 H   0  0  0  0  0  0  0  0  0  0  0  0
   59.1531   31.0485   46.8800 H   0  0  0  0  0  0  0  0  0  0  0  0
   60.6866   32.2861   49.8310 H   0  0  0  0  0  0  0  0  0  0  0  0
   62.9788   31.7834   50.6524 H   0  0  0  0  0  0  0  0  0  0  0  0
  1  2  1  0
  2  3  1  0
  3  4  2  0
  4  5  1  0
  5  6  2  0
  6  7  1  0
  7  8  1  0
  8  9  2  0
  8 10  1  0
 10 11  1  0
 11 12  1  0
 12 13  1  0
 13 14  2  0
 14 15  1  0
 15 16  2  0
 16 17  1  0
 16 18  1  0
 18 19  1  0
 18 20  2  0
  6 21  1  0
 21 22  2  0
 22  3  1  0
 12  7  1  0
 20 13  1  0
  1 23  1  0
  1 24  1  0
  1 25  1  0
  4 26  1  0
  5 27  1  0
  7 28  1  6
 11 29  1  0
 11 30  1  0
 12 31  1  6
 14 32  1  0
 15 33  1  0
 20 34  1  0
 21 35  1  0
 22 36  1  0
M  CHG  2   7   1  10  -1
M  END
>  <UniqueID>  (94) 
85

>  <SMILES>  (94) 
COc1ccc([N@H+]2C(=O)[N-]C[C@@H]2c2ccc(Cl)c(F)c2)cc1

>  <Energy>  (94) 
53.60343670794178

>  <Genealogy>  (94) 
COc1ccc([NH+]2C(=O)[N-]CC2c2ccc(Cl)c(F)c2)cc1 (protonated)
COc1ccc([N@H+]2C(=O)[N-]C[C@@H]2c2ccc(Cl)c(F)c2)cc1 (chirality)
COc1ccc([N@H+]2C(=O)[N-]C[C@@H]2c2ccc(Cl)c(F)c2)cc1 (3D coordinates assigned)
COc1ccc([N@H+]2C(=O)[N-]C[C@@H]2c2ccc(Cl)c(F)c2)cc1 (nonaromatic ring conformer: 53.60343670794178 kcal/mol)

>  <smiles>  (94) 
COc1ccc(N2C(=O)NCC2c2ccc(Cl)c(F)c2)cc1

>  <score_type>  (94) 
oracle

>  <origin>  (94) 
adg

>  <m_score__min__energy>  (94) 
-6.4000000000000004

>  <m_primary>  (94) 
energy

$$$$
