0:0
     RDKit          3D

 60 63  0  0  0  0  0  0  0  0999 V2000
   55.5810   31.1200   53.8160 O   0  0  0  0  0  0  0  0  0  0  0  0
   55.6210   30.5630   52.6860 C   0  0  0  0  0  0  0  0  0  0  0  0
   56.2870   31.2560   51.5380 C   0  0  0  0  0  0  0  0  0  0  0  0
   57.4840   32.0410   52.0040 C   0  0  0  0  0  0  0  0  0  0  0  0
   57.3660   32.8510   52.9620 O   0  0  0  0  0  0  0  0  0  0  0  0
   58.7720   31.8600   51.4040 N   0  0  0  0  0  0  0  0  0  0  0  0
   59.0760   30.9990   50.2940 C   0  0  0  0  0  0  0  0  0  0  0  0
   59.2100   29.6150   50.4840 C   0  0  0  0  0  0  0  0  0  0  0  0
   59.5080   28.7740   49.4110 C   0  0  0  0  0  0  0  0  0  0  0  0
   59.6520   29.3020   48.1180 C   0  0  0  0  0  0  0  0  0  0  0  0
   59.9790   28.4750   46.9910 N   0  0  0  0  0  0  0  0  0  0  0  0
   59.0730   28.0010   45.9850 C   0  0  0  0  0  0  0  0  0  0  0  0
   58.9690   26.7650   45.7610 O   0  0  0  0  0  0  0  0  0  0  0  0
   58.2270   28.9580   45.2350 C   0  0  0  0  0  0  0  0  0  0  0  0
   58.7990   30.0850   44.6180 C   0  0  0  0  0  0  0  0  0  0  0  0
   57.9980   30.9960   43.9200 C   0  0  0  0  0  0  0  0  0  0  0  0
   56.6190   30.7890   43.8270 C   0  0  0  0  0  0  0  0  0  0  0  0
   56.0400   29.6730   44.4320 C   0  0  0  0  0  0  0  0  0  0  0  0
   56.8350   28.7610   45.1320 C   0  0  0  0  0  0  0  0  0  0  0  0
   59.5250   30.6810   47.9250 C   0  0  0  0  0  0  0  0  0  0  0  0
   59.2110   31.5360   48.9940 C   0  0  0  0  0  0  0  0  0  0  0  0
   59.1010   32.9930   48.7370 C   0  0  0  0  0  0  0  0  0  0  0  0
   59.3460   33.7920   49.6820 O   0  0  0  0  0  0  0  0  0  0  0  0
   58.7310   33.5390   47.4090 C   0  0  0  0  0  0  0  0  0  0  0  0
   59.6530   34.3160   46.6830 C   0  0  0  0  0  0  0  0  0  0  0  0
   59.3090   34.8390   45.4330 C   0  0  0  0  0  0  0  0  0  0  0  0
   58.0470   34.5840   44.8900 C   0  0  0  0  0  0  0  0  0  0  0  0
   57.1290   33.8020   45.5930 C   0  0  0  0  0  0  0  0  0  0  0  0
   57.4680   33.2760   46.8440 C   0  0  0  0  0  0  0  0  0  0  0  0
   55.0580   29.2610   52.4970 N   0  0  0  0  0  0  0  0  0  0  0  0
   53.6360   28.9700   52.6350 C   0  0  0  0  0  0  0  0  0  0  0  0
   52.8310   29.8970   51.7670 C   0  0  0  0  0  0  0  0  0  0  0  0
   52.6080   29.5930   50.4130 C   0  0  0  0  0  0  0  0  0  0  0  0
   51.8210   30.4360   49.6240 C   0  0  0  0  0  0  0  0  0  0  0  0
   51.2490   31.5870   50.1760 C   0  0  0  0  0  0  0  0  0  0  0  0
   50.4680   32.4130   49.3760 O   0  0  0  0  0  0  0  0  0  0  0  0
   51.4630   31.8960   51.5300 C   0  0  0  0  0  0  0  0  0  0  0  0
   50.9030   33.0340   52.1060 O   0  0  0  0  0  0  0  0  0  0  0  0
   52.2490   31.0500   52.3190 C   0  0  0  0  0  0  0  0  0  0  0  0
   56.6130   30.5044   50.8040 H   0  0  0  0  0  0  0  0  0  0  0  0
   55.5668   31.9516   51.0825 H   0  0  0  0  0  0  0  0  0  0  0  0
   59.0787   29.1886   51.4894 H   0  0  0  0  0  0  0  0  0  0  0  0
   59.6305   27.6938   49.5788 H   0  0  0  0  0  0  0  0  0  0  0  0
   59.8843   30.2517   44.6845 H   0  0  0  0  0  0  0  0  0  0  0  0
   58.4545   31.8763   43.4439 H   0  0  0  0  0  0  0  0  0  0  0  0
   55.9906   31.5053   43.2773 H   0  0  0  0  0  0  0  0  0  0  0  0
   54.9546   29.5104   44.3579 H   0  0  0  0  0  0  0  0  0  0  0  0
   56.3711   27.8833   45.6059 H   0  0  0  0  0  0  0  0  0  0  0  0
   59.6734   31.1029   46.9200 H   0  0  0  0  0  0  0  0  0  0  0  0
   60.6508   34.5131   47.1019 H   0  0  0  0  0  0  0  0  0  0  0  0
   60.0328   35.4521   44.8761 H   0  0  0  0  0  0  0  0  0  0  0  0
   57.7768   34.9997   43.9081 H   0  0  0  0  0  0  0  0  0  0  0  0
   56.1373   33.5990   45.1625 H   0  0  0  0  0  0  0  0  0  0  0  0
   56.7439   32.6533   47.3897 H   0  0  0  0  0  0  0  0  0  0  0  0
   53.4464   27.9302   52.3302 H   0  0  0  0  0  0  0  0  0  0  0  0
   53.3400   29.1129   53.6848 H   0  0  0  0  0  0  0  0  0  0  0  0
   53.0543   28.6889   49.9732 H   0  0  0  0  0  0  0  0  0  0  0  0
   51.6506   30.1936   48.5647 H   0  0  0  0  0  0  0  0  0  0  0  0
   50.6460   33.8440   51.5550 H   0  0  0  0  0  0  0  0  0  0  0  0
   52.4127   31.2894   53.3801 H   0  0  0  0  0  0  0  0  0  0  0  0
  1  2  2  0
  2  3  1  0
  3  4  1  0
  4  5  2  0
  4  6  1  0
  6  7  1  0
  7  8  2  0
  8  9  1  0
  9 10  2  0
 10 11  1  0
 11 12  1  0
 12 13  2  0
 12 14  1  0
 14 15  2  0
 15 16  1  0
 16 17  2  0
 17 18  1  0
 18 19  2  0
 10 20  1  0
 20 21  2  0
 21 22  1  0
 22 23  2  0
 22 24  1  0
 24 25  2  0
 25 26  1  0
 26 27  2  0
 27 28  1  0
 28 29  2  0
  2 30  1  0
 30 31  1  0
 31 32  1  0
 32 33  2  0
 33 34  1  0
 34 35  2  0
 35 36  1  0
 35 37  1  0
 37 38  1  0
 37 39  2  0
 21  7  1  0
 29 24  1  0
 39 32  1  0
 19 14  1  0
  3 40  1  0
  3 41  1  0
  8 42  1  0
  9 43  1  0
 15 44  1  0
 16 45  1  0
 17 46  1  0
 18 47  1  0
 19 48  1  0
 20 49  1  0
 25 50  1  0
 26 51  1  0
 27 52  1  0
 28 53  1  0
 29 54  1  0
 31 55  1  0
 31 56  1  0
 33 57  1  0
 34 58  1  0
 38 59  1  0
 39 60  1  0
M  CHG  4   6  -1  11  -1  30  -1  36  -1
M  END
>  <UniqueID>  (1) 
1

>  <SMILES>  (1) 
O=C(CC(=O)[N-]c1ccc([N-]C(=O)c2ccccc2)cc1C(=O)c1ccccc1)[N-]Cc1ccc([O-])c(O)c1

>  <Energy>  (1) 
78.44355488443206

>  <Genealogy>  (1) 
O=C(CC(=O)[N-]c1ccc([N-]C(=O)c2ccccc2)cc1C(=O)c1ccccc1)[N-]Cc1ccc([O-])c(O)c1 (protonated)
O=C(CC(=O)[N-]c1ccc([N-]C(=O)c2ccccc2)cc1C(=O)c1ccccc1)[N-]Cc1ccc([O-])c(O)c1 (3D coordinates assigned)
O=C(CC(=O)[N-]c1ccc([N-]C(=O)c2ccccc2)cc1C(=O)c1ccccc1)[N-]Cc1ccc([O-])c(O)c1 (optimized conformer: 78.44355488443206 kcal/mol)

>  <smiles>  (1) 
O=C(CC(=O)Nc1ccc(NC(=O)c2ccccc2)cc1C(=O)c1ccccc1)NCc1ccc(O)c(O)c1

>  <score_type>  (1) 
oracle

>  <origin>  (1) 
adg

>  <m_score__min__energy>  (1) 
-18.559999999999999

>  <m_primary>  (1) 
energy

$$$$
1:0
     RDKit          3D

 44 46  0  0  0  0  0  0  0  0999 V2000
   55.5450   28.8330   44.9730 N   0  0  0  0  0  0  0  0  0  0  0  0
   56.8620   29.9240   44.7280 S   0  0  0  0  0  0  0  0  0  0  0  0
   57.7580   29.3920   43.6450 O   0  0  0  0  0  0  0  0  0  0  0  0
   56.3130   31.2590   44.3090 O   0  0  0  0  0  0  0  0  0  0  0  0
   57.7830   30.0960   46.2190 C   0  0  0  0  0  0  0  0  0  0  0  0
   58.1480   28.9640   46.9600 C   0  0  0  0  0  0  0  0  0  0  0  0
   58.8700   29.1050   48.1480 C   0  0  0  0  0  0  0  0  0  0  0  0
   59.2460   30.3740   48.6050 C   0  0  0  0  0  0  0  0  0  0  0  0
   59.9690   30.4740   49.8410 N   0  0  0  0  0  0  0  0  0  0  0  0
   59.4170   30.3850   51.1590 C   0  0  0  0  0  0  0  0  0  0  0  0
   59.7850   31.1830   52.0630 O   0  0  0  0  0  0  0  0  0  0  0  0
   58.5190   29.3120   51.4600 N   0  0  0  0  0  0  0  0  0  0  0  0
   57.4300   29.3470   52.4000 C   0  0  0  0  0  0  0  0  0  0  0  0
   56.2110   29.9650   52.0670 C   0  0  0  0  0  0  0  0  0  0  0  0
   55.1620   30.0420   52.9980 C   0  0  0  0  0  0  0  0  0  0  0  0
   53.8820   30.7070   52.6390 C   0  0  0  0  0  0  0  0  0  0  0  0
   52.8560   30.8480   53.5930 C   0  0  0  0  0  0  0  0  0  0  0  0
   51.6530   31.4740   53.2510 C   0  0  0  0  0  0  0  0  0  0  0  0
   51.4600   31.9650   51.9570 C   0  0  0  0  0  0  0  0  0  0  0  0
   50.2630   32.5860   51.6210 O   0  0  0  0  0  0  0  0  0  0  0  0
   52.4710   31.8300   51.0020 C   0  0  0  0  0  0  0  0  0  0  0  0
   53.6760   31.2060   51.3390 C   0  0  0  0  0  0  0  0  0  0  0  0
   55.3400   29.4830   54.2720 C   0  0  0  0  0  0  0  0  0  0  0  0
   56.5340   28.8410   54.6030 C   0  0  0  0  0  0  0  0  0  0  0  0
   57.5780   28.7430   53.6690 C   0  0  0  0  0  0  0  0  0  0  0  0
   58.8210   28.0390   54.0600 C   0  0  0  0  0  0  0  0  0  0  0  0
   60.0990   28.4760   53.5930 N   0  0  0  0  0  0  0  0  0  0  0  0
   58.7530   27.0120   54.7870 O   0  0  0  0  0  0  0  0  0  0  0  0
   58.8510   31.5110   47.8770 C   0  0  0  0  0  0  0  0  0  0  0  0
   58.1280   31.3690   46.6880 C   0  0  0  0  0  0  0  0  0  0  0  0
   54.7140   29.4110   45.2320 H   0  0  0  0  0  0  0  0  0  0  0  0
   57.8654   27.9618   46.6055 H   0  0  0  0  0  0  0  0  0  0  0  0
   59.1451   28.2122   48.7287 H   0  0  0  0  0  0  0  0  0  0  0  0
   56.0773   30.3942   51.0630 H   0  0  0  0  0  0  0  0  0  0  0  0
   53.0015   30.4635   54.6133 H   0  0  0  0  0  0  0  0  0  0  0  0
   50.8568   31.5801   54.0025 H   0  0  0  0  0  0  0  0  0  0  0  0
   52.3186   32.2154   49.9831 H   0  0  0  0  0  0  0  0  0  0  0  0
   54.4685   31.1043   50.5830 H   0  0  0  0  0  0  0  0  0  0  0  0
   54.5324   29.5512   55.0158 H   0  0  0  0  0  0  0  0  0  0  0  0
   56.6587   28.4071   55.6061 H   0  0  0  0  0  0  0  0  0  0  0  0
   60.9680   27.9980   53.9190 H   0  0  0  0  0  0  0  0  0  0  0  0
   60.1830   29.2110   52.8570 H   0  0  0  0  0  0  0  0  0  0  0  0
   59.1115   32.5148   48.2438 H   0  0  0  0  0  0  0  0  0  0  0  0
   57.8292   32.2617   46.1190 H   0  0  0  0  0  0  0  0  0  0  0  0
  1  2  1  0
  2  3  2  0
  2  4  2  0
  2  5  1  0
  5  6  2  0
  6  7  1  0
  7  8  2  0
  8  9  1  0
  9 10  1  0
 10 11  2  0
 10 12  1  0
 12 13  1  0
 13 14  2  0
 14 15  1  0
 15 16  1  0
 16 17  2  0
 17 18  1  0
 18 19  2  0
 19 20  1  0
 19 21  1  0
 21 22  2  0
 15 23  2  0
 23 24  1  0
 24 25  2  0
 25 26  1  0
 26 27  1  0
 26 28  2  0
  8 29  1  0
 29 30  2  0
 30  5  1  0
 25 13  1  0
 22 16  1  0
  1 31  1  0
  6 32  1  0
  7 33  1  0
 14 34  1  0
 17 35  1  0
 18 36  1  0
 21 37  1  0
 22 38  1  0
 23 39  1  0
 24 40  1  0
 27 41  1  0
 27 42  1  0
 29 43  1  0
 30 44  1  0
M  CHG  4   1  -1   9  -1  12  -1  20  -1
M  END
>  <UniqueID>  (2) 
2

>  <SMILES>  (2) 
[NH-]S(=O)(=O)c1ccc([N-]C(=O)[N-]c2cc(-c3ccc([O-])cc3)ccc2C(N)=O)cc1

>  <Energy>  (2) 
62.613729402511

>  <Genealogy>  (2) 
[NH-]S(=O)(=O)c1ccc([N-]C(=O)[N-]c2cc(-c3ccc([O-])cc3)ccc2C(N)=O)cc1 (protonated)
[NH-]S(=O)(=O)c1ccc([N-]C(=O)[N-]c2cc(-c3ccc([O-])cc3)ccc2C(N)=O)cc1 (3D coordinates assigned)
[NH-]S(=O)(=O)c1ccc([N-]C(=O)[N-]c2cc(-c3ccc([O-])cc3)ccc2C(N)=O)cc1 (optimized conformer: 62.613729402511 kcal/mol)

>  <smiles>  (2) 
NC(=O)c1ccc(-c2ccc(O)cc2)cc1NC(=O)Nc1ccc(S(N)(=O)=O)cc1

>  <score_type>  (2) 
oracle

>  <origin>  (2) 
adg

>  <m_score__min__energy>  (2) 
-15.49

>  <m_primary>  (2) 
energy

$$$$
2:0
     RDKit          3D

 49 52  0  0  0  0  0  0  0  0999 V2000
   58.6169   33.9182   52.6693 H   0  0  0  0  0  0  0  0  0  0  0  0
   58.8500   33.2630   51.8170 C   0  0  0  0  0  0  0  0  0  0  0  0
   58.3650   31.9530   51.7890 C   0  0  0  0  0  0  0  0  0  0  0  0
   57.7539   31.5758   52.6222 H   0  0  0  0  0  0  0  0  0  0  0  0
   58.6550   31.1210   50.7040 C   0  0  0  0  0  0  0  0  0  0  0  0
   58.2787   30.0874   50.6912 H   0  0  0  0  0  0  0  0  0  0  0  0
   59.4250   31.5980   49.6290 C   0  0  0  0  0  0  0  0  0  0  0  0
   59.7360   30.7080   48.4900 C   0  0  0  0  0  0  0  0  0  0  0  0
   58.7780   29.3980   48.0290 S   0  0  0  0  0  0  0  0  0  0  0  0
   59.8380   28.8990   46.8310 C   0  0  0  0  0  0  0  0  0  0  0  0
   59.6020   27.8820   46.0550 N   0  0  0  0  0  0  0  0  0  0  0  0
   58.7480   27.8540   44.9020 C   0  0  0  0  0  0  0  0  0  0  0  0
   59.2180   27.6660   43.7470 O   0  0  0  0  0  0  0  0  0  0  0  0
   57.2660   27.9570   45.0850 C   0  0  0  0  0  0  0  0  0  0  0  0
   56.7760   27.8643   44.1045 H   0  0  0  0  0  0  0  0  0  0  0  0
   56.9411   27.1503   45.7585 H   0  0  0  0  0  0  0  0  0  0  0  0
   56.8950   29.2400   45.6850 N   0  0  0  0  0  0  0  0  0  0  0  0
   56.7620   30.4910   44.4810 S   0  0  0  0  0  0  0  0  0  0  0  0
   57.3440   29.9900   43.1900 O   0  0  0  0  0  0  0  0  0  0  0  0
   55.3130   30.8200   44.2480 O   0  0  0  0  0  0  0  0  0  0  0  0
   57.6370   31.9420   44.9720 C   0  0  0  0  0  0  0  0  0  0  0  0
   58.1900   32.8000   44.0100 C   0  0  0  0  0  0  0  0  0  0  0  0
   58.0909   32.5623   42.9406 H   0  0  0  0  0  0  0  0  0  0  0  0
   58.8670   33.9570   44.4080 C   0  0  0  0  0  0  0  0  0  0  0  0
   59.3005   34.6281   43.6519 H   0  0  0  0  0  0  0  0  0  0  0  0
   58.9930   34.2610   45.7670 C   0  0  0  0  0  0  0  0  0  0  0  0
   59.5288   35.1695   46.0793 H   0  0  0  0  0  0  0  0  0  0  0  0
   58.4390   33.4120   46.7290 C   0  0  0  0  0  0  0  0  0  0  0  0
   58.5366   33.6539   47.7976 H   0  0  0  0  0  0  0  0  0  0  0  0
   57.7600   32.2540   46.3330 C   0  0  0  0  0  0  0  0  0  0  0  0
   57.3222   31.5877   47.0909 H   0  0  0  0  0  0  0  0  0  0  0  0
   60.9140   29.7180   46.7460 N   0  0  0  0  0  0  0  0  0  0  0  0
   61.6630   29.6480   46.0250 H   0  0  0  0  0  0  0  0  0  0  0  0
   60.8690   30.7330   47.6570 C   0  0  0  0  0  0  0  0  0  0  0  0
   61.9010   31.7940   47.6690 C   0  0  0  0  0  0  0  0  0  0  0  0
   62.9500   31.7700   48.6050 C   0  0  0  0  0  0  0  0  0  0  0  0
   63.0135   30.9494   49.3347 H   0  0  0  0  0  0  0  0  0  0  0  0
   63.9120   32.7830   48.6130 C   0  0  0  0  0  0  0  0  0  0  0  0
   64.7358   32.7525   49.3413 H   0  0  0  0  0  0  0  0  0  0  0  0
   63.8290   33.8350   47.6970 C   0  0  0  0  0  0  0  0  0  0  0  0
   64.5886   34.6306   47.7026 H   0  0  0  0  0  0  0  0  0  0  0  0
   62.7810   33.8760   46.7740 C   0  0  0  0  0  0  0  0  0  0  0  0
   62.7144   34.7062   46.0554 H   0  0  0  0  0  0  0  0  0  0  0  0
   61.8170   32.8640   46.7620 C   0  0  0  0  0  0  0  0  0  0  0  0
   60.9888   32.9053   46.0393 H   0  0  0  0  0  0  0  0  0  0  0  0
   59.9240   32.9120   49.6750 C   0  0  0  0  0  0  0  0  0  0  0  0
   60.5478   33.2898   48.8515 H   0  0  0  0  0  0  0  0  0  0  0  0
   59.6310   33.7400   50.7620 C   0  0  0  0  0  0  0  0  0  0  0  0
   60.0165   34.7700   50.7867 H   0  0  0  0  0  0  0  0  0  0  0  0
  1  2  1  0
  2  3  2  0
  3  4  1  0
  3  5  1  0
  5  6  1  0
  5  7  2  0
  7  8  1  0
  8  9  1  0
  9 10  1  0
 10 11  2  0
 11 12  1  0
 12 13  2  0
 12 14  1  0
 14 15  1  0
 14 16  1  0
 14 17  1  0
 17 18  1  0
 18 19  2  0
 18 20  2  0
 18 21  1  0
 21 22  2  0
 22 23  1  0
 22 24  1  0
 24 25  1  0
 24 26  2  0
 26 27  1  0
 26 28  1  0
 28 29  1  0
 28 30  2  0
 30 31  1  0
 10 32  1  0
 32 33  1  0
 32 34  1  0
 34 35  1  0
 35 36  2  0
 36 37  1  0
 36 38  1  0
 38 39  1  0
 38 40  2  0
 40 41  1  0
 40 42  1  0
 42 43  1  0
 42 44  2  0
 44 45  1  0
  7 46  1  0
 46 47  1  0
 46 48  2  0
 48 49  1  0
 48  2  1  0
 34  8  2  0
 44 35  1  0
 30 21  1  0
M  CHG  1  17  -1
M  END
>  <UniqueID>  (3) 
3

>  <SMILES>  (3) 
O=C(C[N-]S(=O)(=O)c1ccccc1)/N=c1\[nH]c(-c2ccccc2)c(-c2ccccc2)s1

>  <Energy>  (3) 
95.26389591107784

>  <Genealogy>  (3) 
O=C(C[N-]S(=O)(=O)c1ccccc1)N=c1[nH]c(-c2ccccc2)c(-c2ccccc2)s1 (protonated)
O=C(C[N-]S(=O)(=O)c1ccccc1)/N=c1\[nH]c(-c2ccccc2)c(-c2ccccc2)s1 (cis-trans isomerization)
O=C(C[N-]S(=O)(=O)c1ccccc1)/N=c1\[nH]c(-c2ccccc2)c(-c2ccccc2)s1 (3D coordinates assigned)
O=C(C[N-]S(=O)(=O)c1ccccc1)/N=c1\[nH]c(-c2ccccc2)c(-c2ccccc2)s1 (optimized conformer: 95.26389591107784 kcal/mol)

>  <smiles>  (3) 
O=C(CNS(=O)(=O)c1ccccc1)N=c1[nH]c(-c2ccccc2)c(-c2ccccc2)s1

>  <score_type>  (3) 
oracle

>  <origin>  (3) 
adg

>  <m_score__min__energy>  (3) 
-11.119999999999999

>  <m_primary>  (3) 
energy

$$$$
3:0
     RDKit          3D

 52 56  0  0  0  0  0  0  0  0999 V2000
   57.4050   31.3730   42.6410 C   0  0  0  0  0  0  0  0  0  0  0  0
   57.5750   30.5810   43.9050 C   0  0  0  0  0  0  0  0  0  0  0  0
   58.0330   31.1040   45.0590 C   0  0  0  0  0  0  0  0  0  0  0  0
   58.5610   32.4540   45.3670 C   0  0  0  0  0  0  0  0  0  0  0  0
   58.4570   33.6190   44.5220 N   0  0  0  0  0  0  0  0  0  0  0  0
   58.8260   34.8840   45.1960 C   0  0  0  0  0  0  0  0  0  0  0  0
   57.4220   34.6070   44.9110 C   0  0  0  0  0  0  0  0  0  0  0  0
   58.9920   32.4850   46.6260 C   0  0  0  0  0  0  0  0  0  0  0  0
   58.8580   31.1610   47.2130 C   0  0  0  0  0  0  0  0  0  0  0  0
   59.2020   30.8700   48.3890 O   0  0  0  0  0  0  0  0  0  0  0  0
   58.1910   30.2220   46.2630 C   0  0  2  0  0  0  0  0  0  0  0  0
   58.9850   28.9300   45.8740 C   0  0  1  0  0  0  0  0  0  0  0  0
   60.4570   29.2910   45.5270 C   0  0  0  0  0  0  0  0  0  0  0  0
   58.9900   27.9360   47.0270 C   0  0  0  0  0  0  0  0  0  0  0  0
   60.0280   27.7890   47.7300 O   0  0  0  0  0  0  0  0  0  0  0  0
   57.7680   27.2640   47.3800 N   0  0  0  0  0  0  0  0  0  0  0  0
   57.1600   26.3110   46.7340 C   0  0  0  0  0  0  0  0  0  0  0  0
   57.7330   25.2650   46.0280 C   0  0  0  0  0  0  0  0  0  0  0  0
   56.6360   24.5820   45.5320 C   0  0  0  0  0  0  0  0  0  0  0  0
   56.6360   23.3630   44.6900 C   0  0  0  0  0  0  0  0  0  0  0  0
   56.2680   23.4080   43.3310 C   0  0  0  0  0  0  0  0  0  0  0  0
   56.2750   22.2420   42.5580 C   0  0  0  0  0  0  0  0  0  0  0  0
   56.6510   21.0240   43.1300 C   0  0  0  0  0  0  0  0  0  0  0  0
   57.0190   20.9680   44.4750 C   0  0  0  0  0  0  0  0  0  0  0  0
   57.0120   22.1310   45.2530 C   0  0  0  0  0  0  0  0  0  0  0  0
   55.5420   25.2000   45.9250 O   0  0  0  0  0  0  0  0  0  0  0  0
   55.8200   26.2450   46.6490 N   0  0  0  0  0  0  0  0  0  0  0  0
   58.3110   28.2540   44.6180 C   0  0  0  0  0  0  0  0  0  0  0  0
   57.2250   29.1080   43.9130 C   0  0  0  0  0  0  0  0  0  0  0  0
   57.1802   32.4202   42.8919 H   0  0  0  0  0  0  0  0  0  0  0  0
   58.3332   31.3281   42.0525 H   0  0  0  0  0  0  0  0  0  0  0  0
   56.5770   30.9511   42.0525 H   0  0  0  0  0  0  0  0  0  0  0  0
   58.6560   33.5680   43.4970 H   0  0  0  0  0  0  0  0  0  0  0  0
   59.1886   34.8666   46.2344 H   0  0  0  0  0  0  0  0  0  0  0  0
   59.5140   35.7112   44.9672 H   0  0  0  0  0  0  0  0  0  0  0  0
   56.7290   34.3805   45.7347 H   0  0  0  0  0  0  0  0  0  0  0  0
   56.6190   35.1388   44.3796 H   0  0  0  0  0  0  0  0  0  0  0  0
   59.3874   33.3726   47.1415 H   0  0  0  0  0  0  0  0  0  0  0  0
   57.2778   29.8009   46.7089 H   0  0  0  0  0  0  0  0  0  0  0  0
   61.0289   29.4313   46.4561 H   0  0  0  0  0  0  0  0  0  0  0  0
   60.9057   28.4763   44.9397 H   0  0  0  0  0  0  0  0  0  0  0  0
   60.4778   30.2209   44.9397 H   0  0  0  0  0  0  0  0  0  0  0  0
   58.8001   25.0338   45.8943 H   0  0  0  0  0  0  0  0  0  0  0  0
   55.9736   24.3649   42.8752 H   0  0  0  0  0  0  0  0  0  0  0  0
   55.9840   22.2842   41.4980 H   0  0  0  0  0  0  0  0  0  0  0  0
   56.6570   20.1087   42.5199 H   0  0  0  0  0  0  0  0  0  0  0  0
   57.3149   20.0084   44.9241 H   0  0  0  0  0  0  0  0  0  0  0  0
   57.3028   22.0809   46.3127 H   0  0  0  0  0  0  0  0  0  0  0  0
   59.1009   28.0346   43.8846 H   0  0  0  0  0  0  0  0  0  0  0  0
   57.7982   27.3558   44.9926 H   0  0  0  0  0  0  0  0  0  0  0  0
   57.1213   28.7624   42.8738 H   0  0  0  0  0  0  0  0  0  0  0  0
   56.2842   28.9864   44.4698 H   0  0  0  0  0  0  0  0  0  0  0  0
  1  2  1  0
  2  3  2  0
  3  4  1  0
  4  5  1  0
  5  6  1  0
  6  7  1  0
  4  8  2  0
  8  9  1  0
  9 10  2  0
  9 11  1  0
 11 12  1  0
 12 13  1  6
 12 14  1  0
 14 15  2  0
 14 16  1  0
 16 17  2  3
 17 18  1  0
 18 19  2  0
 19 20  1  0
 20 21  2  0
 21 22  1  0
 22 23  2  0
 23 24  1  0
 24 25  2  0
 19 26  1  0
 26 27  1  0
 12 28  1  0
 28 29  1  0
 29  2  1  0
 11  3  1  0
 27 17  1  0
  7  5  1  0
 25 20  1  0
  1 30  1  0
  1 31  1  0
  1 32  1  0
  5 33  1  0
  6 34  1  0
  6 35  1  0
  7 36  1  0
  7 37  1  0
  8 38  1  0
 11 39  1  1
 13 40  1  0
 13 41  1  0
 13 42  1  0
 18 43  1  0
 21 44  1  0
 22 45  1  0
 23 46  1  0
 24 47  1  0
 25 48  1  0
 28 49  1  0
 28 50  1  0
 29 51  1  0
 29 52  1  0
M  CHG  2   5   1  27  -1
M  END
>  <UniqueID>  (4) 
4

>  <SMILES>  (4) 
CC1=C2C([NH+]3CC3)=CC(=O)[C@@H]2[C@@](C)(C(=O)N=c2cc(-c3ccccc3)o[n-]2)CC1

>  <Energy>  (4) 
466.1715136055126

>  <Genealogy>  (4) 
CC1=C2C([NH+]3CC3)=CC(=O)C2C(C)(C(=O)N=c2cc(-c3ccccc3)o[n-]2)CC1 (protonated)
CC1=C2C([NH+]3CC3)=CC(=O)[C@@H]2[C@@](C)(C(=O)N=c2cc(-c3ccccc3)o[n-]2)CC1 (chirality)
CC1=C2C([NH+]3CC3)=CC(=O)[C@@H]2[C@@](C)(C(=O)N=c2cc(-c3ccccc3)o[n-]2)CC1 (3D coordinates assigned)
CC1=C2C([NH+]3CC3)=CC(=O)[C@@H]2[C@@](C)(C(=O)N=c2cc(-c3ccccc3)o[n-]2)CC1 (nonaromatic ring conformer: 466.1715136055126 kcal/mol)

>  <smiles>  (4) 
CC1=C2C(N3CC3)=CC(=O)C2C(C)(C(=O)N=c2cc(-c3ccccc3)o[nH]2)CC1

>  <score_type>  (4) 
oracle

>  <origin>  (4) 
adg

>  <m_score__min__energy>  (4) 
-11.15

>  <m_primary>  (4) 
energy

$$$$
4:0
     RDKit          3D

 24 25  0  0  0  0  0  0  0  0999 V2000
   50.6530   32.1600   49.6070 O   0  0  0  0  0  0  0  0  0  0  0  0
   51.3260   31.5790   50.5020 C   0  0  0  0  0  0  0  0  0  0  0  0
   52.1450   30.5360   50.0710 C   0  0  0  0  0  0  0  0  0  0  0  0
   53.0180   29.7310   50.7920 C   0  0  0  0  0  0  0  0  0  0  0  0
   53.3190   29.7400   52.1500 C   0  0  0  0  0  0  0  0  0  0  0  0
   54.2770   28.7940   52.5560 O   0  0  0  0  0  0  0  0  0  0  0  0
   55.4650   29.0920   53.2360 C   0  0  0  0  0  0  0  0  0  0  0  0
   56.6290   29.0570   52.6840 N   0  0  0  0  0  0  0  0  0  0  0  0
   57.6460   29.3940   53.6740 C   0  0  0  0  0  0  0  0  0  0  0  0
   56.8720   29.6300   54.9820 C   0  0  0  0  0  0  0  0  0  0  0  0
   55.4880   29.4170   54.6080 N   0  0  0  0  0  0  0  0  0  0  0  0
   52.7240   30.5520   53.1180 C   0  0  0  0  0  0  0  0  0  0  0  0
   51.7830   31.5640   52.9630 C   0  0  0  0  0  0  0  0  0  0  0  0
   51.1670   32.0440   51.8110 C   0  0  0  0  0  0  0  0  0  0  0  0
   50.2820   33.1030   51.9980 O   0  0  0  0  0  0  0  0  0  0  0  0
   52.0916   30.3169   48.9944 H   0  0  0  0  0  0  0  0  0  0  0  0
   53.5513   28.9726   50.2001 H   0  0  0  0  0  0  0  0  0  0  0  0
   58.3593   28.5650   53.7920 H   0  0  0  0  0  0  0  0  0  0  0  0
   58.2320   30.2765   53.3778 H   0  0  0  0  0  0  0  0  0  0  0  0
   57.1834   28.9135   55.7563 H   0  0  0  0  0  0  0  0  0  0  0  0
   57.0490   30.6292   55.4066 H   0  0  0  0  0  0  0  0  0  0  0  0
   54.6580   29.4850   55.2390 H   0  0  0  0  0  0  0  0  0  0  0  0
   53.0464   30.3638   54.1527 H   0  0  0  0  0  0  0  0  0  0  0  0
   51.4783   32.0623   53.8952 H   0  0  0  0  0  0  0  0  0  0  0  0
  1  2  2  0
  2  3  1  0
  3  4  2  0
  4  5  1  0
  5  6  1  0
  6  7  1  0
  7  8  2  0
  8  9  1  0
  9 10  1  0
 10 11  1  0
  5 12  2  0
 12 13  1  0
 13 14  2  0
 14 15  1  0
 14  2  1  0
 11  7  1  0
  3 16  1  0
  4 17  1  0
  9 18  1  0
  9 19  1  0
 10 20  1  0
 10 21  1  0
 11 22  1  0
 12 23  1  0
 13 24  1  0
M  CHG  1  15  -1
M  END
>  <UniqueID>  (5) 
5

>  <SMILES>  (5) 
O=c1ccc(OC2=NCCN2)ccc1[O-]

>  <Energy>  (5) 
60.30225348561032

>  <Genealogy>  (5) 
O=c1ccc(OC2=NCCN2)ccc1[O-] (protonated)
O=c1ccc(OC2=NCCN2)ccc1[O-] (3D coordinates assigned)
O=c1ccc(OC2=NCCN2)ccc1[O-] (nonaromatic ring conformer: 60.30225348561032 kcal/mol)

>  <smiles>  (5) 
O=c1ccc(OC2=NCCN2)ccc1O

>  <score_type>  (5) 
oracle

>  <origin>  (5) 
adg

>  <m_score__min__energy>  (5) 
-9.9499999999999993

>  <m_primary>  (5) 
energy

$$$$
5:0
     RDKit          3D

 67 71  0  0  0  0  0  0  0  0999 V2000
   57.6180   26.2220   43.2190 C   0  0  0  0  0  0  0  0  0  0  0  0
   58.0350   25.9610   44.4680 C   0  0  0  0  0  0  0  0  0  0  0  0
   57.5310   24.9710   45.3280 C   0  0  0  0  0  0  0  0  0  0  0  0
   56.6810   23.9480   45.1060 C   0  0  0  0  0  0  0  0  0  0  0  0
   55.2280   23.9650   45.3350 C   0  0  0  0  0  0  0  0  0  0  0  0
   54.4280   22.9110   45.0960 N   0  0  0  0  0  0  0  0  0  0  0  0
   53.1880   23.4060   45.3020 C   0  0  0  0  0  0  0  0  0  0  0  0
   52.1510   22.7030   45.1840 O   0  0  0  0  0  0  0  0  0  0  0  0
   53.1450   24.7160   45.6250 N   0  0  0  0  0  0  0  0  0  0  0  0
   54.4430   25.0620   45.6250 C   0  0  0  0  0  0  0  0  0  0  0  0
   54.9020   26.3530   45.8560 O   0  0  0  0  0  0  0  0  0  0  0  0
   58.1060   25.2030   46.5630 C   0  0  0  0  0  0  0  0  0  0  0  0
   58.9840   26.2550   46.4100 C   0  0  0  0  0  0  0  0  0  0  0  0
   59.8560   26.7390   47.4980 C   0  0  0  0  0  0  0  0  0  0  0  0
   61.0940   26.5120   47.4710 O   0  0  0  0  0  0  0  0  0  0  0  0
   59.2730   27.4030   48.6230 N   0  0  0  0  0  0  0  0  0  0  0  0
   59.9310   28.4680   49.3760 C   0  0  0  0  0  0  0  0  0  0  0  0
   59.8060   29.7900   48.6690 C   0  0  0  0  0  0  0  0  0  0  0  0
   60.6020   30.0770   47.5490 C   0  0  0  0  0  0  0  0  0  0  0  0
   60.4840   31.3050   46.8940 C   0  0  0  0  0  0  0  0  0  0  0  0
   59.5660   32.2690   47.3450 C   0  0  0  0  0  0  0  0  0  0  0  0
   59.4430   33.5350   46.6710 N   0  0  0  0  0  0  0  0  0  0  0  0
   59.0000   33.7020   45.2950 C   0  0  0  0  0  0  0  0  0  0  0  0
   59.2250   35.1870   44.9480 C   0  0  0  0  0  0  0  0  0  0  0  0
   59.6490   35.9010   46.2390 C   0  0  0  0  0  0  0  0  0  0  0  0
   59.7810   34.8000   47.2130 C   0  0  0  0  0  0  0  0  0  0  0  0
   60.1000   34.9750   48.4200 O   0  0  0  0  0  0  0  0  0  0  0  0
   58.7560   31.9730   48.4530 C   0  0  0  0  0  0  0  0  0  0  0  0
   58.8830   30.7480   49.1160 C   0  0  0  0  0  0  0  0  0  0  0  0
   58.9460   26.7250   45.1350 N   0  0  0  0  0  0  0  0  0  0  0  0
   59.5710   27.9700   44.6480 C   0  0  0  0  0  0  0  0  0  0  0  0
   58.6850   29.1920   44.9360 C   0  0  0  0  0  0  0  0  0  0  0  0
   58.2030   29.8050   43.6780 N   0  0  0  0  0  0  0  0  0  0  0  0
   56.9950   29.1380   43.1420 C   0  0  0  0  0  0  0  0  0  0  0  0
   55.6900   29.8140   43.6110 C   0  0  0  0  0  0  0  0  0  0  0  0
   55.8860   30.4690   44.8450 O   0  0  0  0  0  0  0  0  0  0  0  0
   56.7510   31.5800   44.6740 C   0  0  0  0  0  0  0  0  0  0  0  0
   57.9910   31.2590   43.8060 C   0  0  0  0  0  0  0  0  0  0  0  0
   58.0916   27.0271   42.6380 H   0  0  0  0  0  0  0  0  0  0  0  0
   56.8027   25.6308   42.7765 H   0  0  0  0  0  0  0  0  0  0  0  0
   57.1142   23.0144   44.7177 H   0  0  0  0  0  0  0  0  0  0  0  0
   54.7680   27.0810   45.1650 H   0  0  0  0  0  0  0  0  0  0  0  0
   57.9017   24.6521   47.4930 H   0  0  0  0  0  0  0  0  0  0  0  0
   59.4645   28.5465   50.3691 H   0  0  0  0  0  0  0  0  0  0  0  0
   60.9990   28.2214   49.4681 H   0  0  0  0  0  0  0  0  0  0  0  0
   61.3231   29.3303   47.1850 H   0  0  0  0  0  0  0  0  0  0  0  0
   61.1144   31.5193   46.0184 H   0  0  0  0  0  0  0  0  0  0  0  0
   59.5896   33.0600   44.6240 H   0  0  0  0  0  0  0  0  0  0  0  0
   57.9438   33.4183   45.1767 H   0  0  0  0  0  0  0  0  0  0  0  0
   60.0163   35.2802   44.1896 H   0  0  0  0  0  0  0  0  0  0  0  0
   58.3062   35.6342   44.5407 H   0  0  0  0  0  0  0  0  0  0  0  0
   60.6076   36.4230   46.1031 H   0  0  0  0  0  0  0  0  0  0  0  0
   58.9322   36.6720   46.5579 H   0  0  0  0  0  0  0  0  0  0  0  0
   58.0168   32.7092   48.8018 H   0  0  0  0  0  0  0  0  0  0  0  0
   58.2553   30.5341   49.9936 H   0  0  0  0  0  0  0  0  0  0  0  0
   60.5402   28.1042   45.1506 H   0  0  0  0  0  0  0  0  0  0  0  0
   59.7040   27.8877   43.5592 H   0  0  0  0  0  0  0  0  0  0  0  0
   57.8196   28.8755   45.5367 H   0  0  0  0  0  0  0  0  0  0  0  0
   59.2817   29.9368   45.4830 H   0  0  0  0  0  0  0  0  0  0  0  0
   57.0332   29.1689   42.0431 H   0  0  0  0  0  0  0  0  0  0  0  0
   56.9896   28.1041   43.5174 H   0  0  0  0  0  0  0  0  0  0  0  0
   55.3730   30.5499   42.8574 H   0  0  0  0  0  0  0  0  0  0  0  0
   54.9165   29.0422   43.7380 H   0  0  0  0  0  0  0  0  0  0  0  0
   56.1867   32.3914   44.1910 H   0  0  0  0  0  0  0  0  0  0  0  0
   57.1155   31.8671   45.6714 H   0  0  0  0  0  0  0  0  0  0  0  0
   57.8458   31.6881   42.8036 H   0  0  0  0  0  0  0  0  0  0  0  0
   58.8751   31.6937   44.2953 H   0  0  0  0  0  0  0  0  0  0  0  0
  1  2  2  0
  2  3  1  0
  3  4  2  3
  4  5  1  0
  5  6  1  0
  6  7  1  0
  7  8  2  0
  7  9  1  0
  9 10  1  0
 10 11  1  0
  3 12  1  0
 12 13  2  0
 13 14  1  0
 14 15  2  0
 14 16  1  0
 16 17  1  0
 17 18  1  0
 18 19  2  0
 19 20  1  0
 20 21  2  0
 21 22  1  0
 22 23  1  0
 23 24  1  0
 24 25  1  0
 25 26  1  0
 26 27  2  0
 21 28  1  0
 28 29  2  0
 13 30  1  0
 30 31  1  0
 31 32  1  0
 32 33  1  0
 33 34  1  0
 34 35  1  0
 35 36  1  0
 36 37  1  0
 37 38  1  0
 30  2  1  0
 38 33  1  0
 10  5  2  0
 29 18  1  0
 26 22  1  0
  1 39  1  0
  1 40  1  0
  4 41  1  0
 11 42  1  0
 12 43  1  0
 17 44  1  0
 17 45  1  0
 19 46  1  0
 20 47  1  0
 23 48  1  0
 23 49  1  0
 24 50  1  0
 24 51  1  0
 25 52  1  0
 25 53  1  0
 28 54  1  0
 29 55  1  0
 31 56  1  0
 31 57  1  0
 32 58  1  0
 32 59  1  0
 34 60  1  0
 34 61  1  0
 35 62  1  0
 35 63  1  0
 37 64  1  0
 37 65  1  0
 38 66  1  0
 38 67  1  0
M  CHG  3   6  -1   9  -1  16  -1
M  END
>  <UniqueID>  (6) 
6

>  <SMILES>  (6) 
C=c1c(=Cc2[n-]c(=O)[n-]c2O)cc(C(=O)[N-]Cc2ccc(N3CCCC3=O)cc2)n1CCN1CCOCC1

>  <Energy>  (6) 
159.25309752284616

>  <Genealogy>  (6) 
C=c1c(=Cc2[n-]c(=O)[n-]c2O)cc(C(=O)[N-]Cc2ccc(N3CCCC3=O)cc2)n1CCN1CCOCC1 (protonated)
C=c1c(=Cc2[n-]c(=O)[n-]c2O)cc(C(=O)[N-]Cc2ccc(N3CCCC3=O)cc2)n1CCN1CCOCC1 (3D coordinates assigned)
C=c1c(=Cc2[n-]c(=O)[n-]c2O)cc(C(=O)[N-]Cc2ccc(N3CCCC3=O)cc2)n1CCN1CCOCC1 (nonaromatic ring conformer: 159.25309752284616 kcal/mol)

>  <smiles>  (6) 
C=c1c(=Cc2[nH]c(=O)[nH]c2O)cc(C(=O)NCc2ccc(N3CCCC3=O)cc2)n1CCN1CCOCC1

>  <score_type>  (6) 
oracle

>  <origin>  (6) 
adg

>  <m_score__min__energy>  (6) 
-15.380000000000001

>  <m_primary>  (6) 
energy

$$$$
6:0
     RDKit          3D

 50 52  0  0  0  0  0  0  0  0999 V2000
   57.6580   27.9210   47.3130 O   0  0  0  0  0  0  0  0  0  0  0  0
   57.5140   28.0470   46.0700 C   0  0  0  0  0  0  0  0  0  0  0  0
   58.3710   27.2170   45.1460 C   0  0  0  0  0  0  0  0  0  0  0  0
   57.5570   26.3940   44.1340 C   0  0  0  0  0  0  0  0  0  0  0  0
   56.8110   25.2470   44.7820 C   0  0  0  0  0  0  0  0  0  0  0  0
   57.2900   23.9400   44.5720 C   0  0  0  0  0  0  0  0  0  0  0  0
   56.6340   22.8420   45.1330 C   0  0  0  0  0  0  0  0  0  0  0  0
   55.4950   23.0330   45.9130 C   0  0  0  0  0  0  0  0  0  0  0  0
   55.0120   24.3230   46.1420 C   0  0  0  0  0  0  0  0  0  0  0  0
   55.6630   25.4360   45.5940 C   0  0  0  0  0  0  0  0  0  0  0  0
   55.1450   26.7000   45.8890 O   0  0  0  0  0  0  0  0  0  0  0  0
   56.6450   29.0800   45.5840 N   0  0  0  0  0  0  0  0  0  0  0  0
   56.9710   30.1120   44.6460 C   0  0  0  0  0  0  0  0  0  0  0  0
   56.6920   29.9750   43.2760 C   0  0  0  0  0  0  0  0  0  0  0  0
   57.0010   31.0100   42.3890 C   0  0  0  0  0  0  0  0  0  0  0  0
   57.5690   32.1950   42.8630 C   0  0  0  0  0  0  0  0  0  0  0  0
   57.8160   32.3560   44.2330 C   0  0  0  0  0  0  0  0  0  0  0  0
   58.5420   33.8390   44.8470 S   0  0  0  0  0  0  0  0  0  0  0  0
   59.6450   34.2910   43.9300 O   0  0  0  0  0  0  0  0  0  0  0  0
   57.4870   34.9090   44.8940 O   0  0  0  0  0  0  0  0  0  0  0  0
   59.1740   33.5640   46.4520 N   0  0  0  0  0  0  0  0  0  0  0  0
   60.4530   32.8270   46.3680 C   0  0  0  0  0  0  0  0  0  0  0  0
   61.2380   32.8470   47.6990 C   0  0  0  0  0  0  0  0  0  0  0  0
   60.3450   33.2480   48.8740 C   0  0  0  0  0  0  0  0  0  0  0  0
   59.6910   34.6180   48.6300 C   0  0  0  0  0  0  0  0  0  0  0  0
   59.3490   34.8500   47.1450 C   0  0  0  0  0  0  0  0  0  0  0  0
   57.5090   31.3150   45.1200 C   0  0  0  0  0  0  0  0  0  0  0  0
   59.0390   27.8914   44.5902 H   0  0  0  0  0  0  0  0  0  0  0  0
   58.9275   26.5040   45.7720 H   0  0  0  0  0  0  0  0  0  0  0  0
   56.8279   27.0574   43.6458 H   0  0  0  0  0  0  0  0  0  0  0  0
   58.2638   25.9643   43.4089 H   0  0  0  0  0  0  0  0  0  0  0  0
   58.1901   23.7819   43.9598 H   0  0  0  0  0  0  0  0  0  0  0  0
   57.0167   21.8255   44.9590 H   0  0  0  0  0  0  0  0  0  0  0  0
   54.9759   22.1666   46.3487 H   0  0  0  0  0  0  0  0  0  0  0  0
   54.1122   24.4667   46.7582 H   0  0  0  0  0  0  0  0  0  0  0  0
   55.1630   27.4800   45.2490 H   0  0  0  0  0  0  0  0  0  0  0  0
   56.2291   29.0506   42.9003 H   0  0  0  0  0  0  0  0  0  0  0  0
   56.7964   30.8912   41.3148 H   0  0  0  0  0  0  0  0  0  0  0  0
   57.8226   33.0024   42.1603 H   0  0  0  0  0  0  0  0  0  0  0  0
   60.2404   31.7816   46.0999 H   0  0  0  0  0  0  0  0  0  0  0  0
   61.0740   33.3223   45.6071 H   0  0  0  0  0  0  0  0  0  0  0  0
   61.6465   31.8432   47.8875 H   0  0  0  0  0  0  0  0  0  0  0  0
   62.0447   33.5896   47.6112 H   0  0  0  0  0  0  0  0  0  0  0  0
   59.5569   32.4912   49.0009 H   0  0  0  0  0  0  0  0  0  0  0  0
   60.9670   33.3140   49.7789 H   0  0  0  0  0  0  0  0  0  0  0  0
   58.7641   34.6769   49.2193 H   0  0  0  0  0  0  0  0  0  0  0  0
   60.4113   35.3921   48.9331 H   0  0  0  0  0  0  0  0  0  0  0  0
   58.4169   35.4297   47.0740 H   0  0  0  0  0  0  0  0  0  0  0  0
   60.1742   35.4015   46.6707 H   0  0  0  0  0  0  0  0  0  0  0  0
   57.6921   31.4440   46.1970 H   0  0  0  0  0  0  0  0  0  0  0  0
  1  2  2  0
  2  3  1  0
  3  4  1  0
  4  5  1  0
  5  6  2  0
  6  7  1  0
  7  8  2  0
  8  9  1  0
  9 10  2  0
 10 11  1  0
  2 12  1  0
 12 13  1  0
 13 14  2  0
 14 15  1  0
 15 16  2  0
 16 17  1  0
 17 18  1  0
 18 19  2  0
 18 20  2  0
 18 21  1  0
 21 22  1  0
 22 23  1  0
 23 24  1  0
 24 25  1  0
 25 26  1  0
 17 27  2  0
 10  5  1  0
 27 13  1  0
 26 21  1  0
  3 28  1  0
  3 29  1  0
  4 30  1  0
  4 31  1  0
  6 32  1  0
  7 33  1  0
  8 34  1  0
  9 35  1  0
 11 36  1  0
 14 37  1  0
 15 38  1  0
 16 39  1  0
 22 40  1  0
 22 41  1  0
 23 42  1  0
 23 43  1  0
 24 44  1  0
 24 45  1  0
 25 46  1  0
 25 47  1  0
 26 48  1  0
 26 49  1  0
 27 50  1  0
M  CHG  1  12  -1
M  END
>  <UniqueID>  (7) 
7

>  <SMILES>  (7) 
O=C(CCc1ccccc1O)[N-]c1cccc(S(=O)(=O)N2CCCCC2)c1

>  <Energy>  (7) 
59.15068113912904

>  <Genealogy>  (7) 
O=C(CCc1ccccc1O)[N-]c1cccc(S(=O)(=O)N2CCCCC2)c1 (protonated)
O=C(CCc1ccccc1O)[N-]c1cccc(S(=O)(=O)N2CCCCC2)c1 (3D coordinates assigned)
O=C(CCc1ccccc1O)[N-]c1cccc(S(=O)(=O)N2CCCCC2)c1 (nonaromatic ring conformer: 59.15068113912904 kcal/mol)

>  <smiles>  (7) 
O=C(CCc1ccccc1O)Nc1cccc(S(=O)(=O)N2CCCCC2)c1

>  <score_type>  (7) 
oracle

>  <origin>  (7) 
adg

>  <m_score__min__energy>  (7) 
-12.67

>  <m_primary>  (7) 
energy

$$$$
7:0
     RDKit          3D

 53 56  0  0  0  0  0  0  0  0999 V2000
   57.6880   28.0970   43.5590 N   0  0  0  0  0  0  0  0  0  0  0  0
   56.9510   28.5860   45.0440 S   0  0  0  0  0  0  0  0  0  0  0  0
   56.1690   27.4380   45.6190 O   0  0  0  0  0  0  0  0  0  0  0  0
   56.0080   29.7280   44.7830 O   0  0  0  0  0  0  0  0  0  0  0  0
   58.1950   29.0870   46.1850 C   0  0  0  0  0  0  0  0  0  0  0  0
   58.2270   28.5390   47.4890 C   0  0  0  0  0  0  0  0  0  0  0  0
   59.2090   28.9400   48.4120 C   0  0  0  0  0  0  0  0  0  0  0  0
   60.1320   29.9090   48.0040 C   0  0  0  0  0  0  0  0  0  0  0  0
   60.1070   30.4270   46.7410 C   0  0  0  0  0  0  0  0  0  0  0  0
   59.1530   30.0480   45.8030 C   0  0  0  0  0  0  0  0  0  0  0  0
   61.1260   31.2820   46.5600 N   0  0  0  0  0  0  0  0  0  0  0  0
   61.7630   31.2640   47.7590 C   0  0  0  0  0  0  0  0  0  0  0  0
   63.0280   32.0430   47.9880 C   0  0  0  0  0  0  0  0  0  0  0  0
   62.8070   33.5050   47.7160 C   0  0  0  0  0  0  0  0  0  0  0  0
   63.6920   34.1440   47.0880 O   0  0  0  0  0  0  0  0  0  0  0  0
   61.5960   34.1830   48.0790 N   0  0  0  0  0  0  0  0  0  0  0  0
   60.3190   34.0470   47.4470 C   0  0  0  0  0  0  0  0  0  0  0  0
   60.1300   34.5890   46.1700 C   0  0  0  0  0  0  0  0  0  0  0  0
   58.8900   34.4780   45.5350 C   0  0  0  0  0  0  0  0  0  0  0  0
   57.8240   33.8510   46.1850 C   0  0  0  0  0  0  0  0  0  0  0  0
   57.9970   33.3400   47.4750 C   0  0  0  0  0  0  0  0  0  0  0  0
   59.2370   33.4430   48.1080 C   0  0  0  0  0  0  0  0  0  0  0  0
   61.1600   30.4610   48.6840 N   0  0  0  0  0  0  0  0  0  0  0  0
   61.6230   30.1660   50.0480 C   0  0  0  0  0  0  0  0  0  0  0  0
   61.4720   31.3380   50.9830 C   0  0  0  0  0  0  0  0  0  0  0  0
   62.5140   31.8770   51.4440 O   0  0  0  0  0  0  0  0  0  0  0  0
   60.1840   31.8820   51.3250 N   0  0  0  0  0  0  0  0  0  0  0  0
   60.0360   33.1030   52.0980 C   0  0  0  0  0  0  0  0  0  0  0  0
   58.5630   33.4680   52.0150 C   0  0  0  0  0  0  0  0  0  0  0  0
   57.8460   32.2000   51.5590 C   0  0  0  0  0  0  0  0  0  0  0  0
   58.9090   31.3440   50.8840 C   0  0  0  0  0  0  0  0  0  0  0  0
   56.9490   27.6230   42.9940 H   0  0  0  0  0  0  0  0  0  0  0  0
   57.9440   28.9710   43.0450 H   0  0  0  0  0  0  0  0  0  0  0  0
   57.4758   27.7915   47.7838 H   0  0  0  0  0  0  0  0  0  0  0  0
   59.2502   28.5060   49.4219 H   0  0  0  0  0  0  0  0  0  0  0  0
   59.1461   30.4848   44.7935 H   0  0  0  0  0  0  0  0  0  0  0  0
   63.3476   31.9141   49.0326 H   0  0  0  0  0  0  0  0  0  0  0  0
   63.8033   31.6686   47.3033 H   0  0  0  0  0  0  0  0  0  0  0  0
   60.9604   35.1040   45.6648 H   0  0  0  0  0  0  0  0  0  0  0  0
   58.7531   34.8848   44.5222 H   0  0  0  0  0  0  0  0  0  0  0  0
   56.8498   33.7595   45.6825 H   0  0  0  0  0  0  0  0  0  0  0  0
   57.1550   32.8562   47.9917 H   0  0  0  0  0  0  0  0  0  0  0  0
   59.3669   33.0501   49.1272 H   0  0  0  0  0  0  0  0  0  0  0  0
   61.0368   29.3233   50.4434 H   0  0  0  0  0  0  0  0  0  0  0  0
   62.6948   29.9259   49.9889 H   0  0  0  0  0  0  0  0  0  0  0  0
   60.3302   32.9324   53.1441 H   0  0  0  0  0  0  0  0  0  0  0  0
   60.6759   33.9089   51.7094 H   0  0  0  0  0  0  0  0  0  0  0  0
   58.1908   33.7854   53.0003 H   0  0  0  0  0  0  0  0  0  0  0  0
   58.3911   34.3029   51.3197 H   0  0  0  0  0  0  0  0  0  0  0  0
   57.4185   31.6697   52.4227 H   0  0  0  0  0  0  0  0  0  0  0  0
   57.0147   32.4278   50.8756 H   0  0  0  0  0  0  0  0  0  0  0  0
   58.8085   30.2931   51.1930 H   0  0  0  0  0  0  0  0  0  0  0  0
   58.8148   31.3683   49.7883 H   0  0  0  0  0  0  0  0  0  0  0  0
  1  2  1  0
  2  3  2  0
  2  4  2  0
  2  5  1  0
  5  6  2  0
  6  7  1  0
  7  8  2  0
  8  9  1  0
  9 10  2  0
  9 11  1  0
 11 12  2  0
 12 13  1  0
 13 14  1  0
 14 15  2  0
 14 16  1  0
 16 17  1  0
 17 18  2  0
 18 19  1  0
 19 20  2  0
 20 21  1  0
 21 22  2  0
 12 23  1  0
 23 24  1  0
 24 25  1  0
 25 26  2  0
 25 27  1  0
 27 28  1  0
 28 29  1  0
 29 30  1  0
 30 31  1  0
 10  5  1  0
 22 17  1  0
 31 27  1  0
 23  8  1  0
  1 32  1  0
  1 33  1  0
  6 34  1  0
  7 35  1  0
 10 36  1  0
 13 37  1  0
 13 38  1  0
 18 39  1  0
 19 40  1  0
 20 41  1  0
 21 42  1  0
 22 43  1  0
 24 44  1  0
 24 45  1  0
 28 46  1  0
 28 47  1  0
 29 48  1  0
 29 49  1  0
 30 50  1  0
 30 51  1  0
 31 52  1  0
 31 53  1  0
M  CHG  1  16  -1
M  END
>  <UniqueID>  (8) 
8

>  <SMILES>  (8) 
NS(=O)(=O)c1ccc2c(c1)nc(CC(=O)[N-]c1ccccc1)n2CC(=O)N1CCCC1

>  <Energy>  (8) 
92.80758951278185

>  <Genealogy>  (8) 
NS(=O)(=O)c1ccc2c(c1)nc(CC(=O)[N-]c1ccccc1)n2CC(=O)N1CCCC1 (protonated)
NS(=O)(=O)c1ccc2c(c1)nc(CC(=O)[N-]c1ccccc1)n2CC(=O)N1CCCC1 (3D coordinates assigned)
NS(=O)(=O)c1ccc2c(c1)nc(CC(=O)[N-]c1ccccc1)n2CC(=O)N1CCCC1 (nonaromatic ring conformer: 92.80758951278185 kcal/mol)

>  <smiles>  (8) 
NS(=O)(=O)c1ccc2c(c1)nc(CC(=O)Nc1ccccc1)n2CC(=O)N1CCCC1

>  <score_type>  (8) 
oracle

>  <origin>  (8) 
adg

>  <m_score__min__energy>  (8) 
-11.19

>  <m_primary>  (8) 
energy

$$$$
8:0
     RDKit          3D

 37 39  0  0  1  0  0  0  0  0999 V2000
   63.8030   33.0470   46.4320 N   0  0  0  0  0  0  0  0  0  0  0  0
   62.9660   33.3470   47.5680 C   0  0  0  0  0  0  0  0  0  0  0  0
   63.5470   33.5140   48.8300 C   0  0  0  0  0  0  0  0  0  0  0  0
   62.7000   33.8020   49.8970 C   0  0  0  0  0  0  0  0  0  0  0  0
   58.9910   30.0940   44.7510 C   0  0  0  0  0  0  0  0  0  0  0  0
   57.6320   30.2490   44.9280 C   0  0  0  0  0  0  0  0  0  0  0  0
   59.3620   33.8680   48.2420 N   0  0  0  0  0  0  0  0  0  0  0  0
   58.8850   33.7440   47.0540 C   0  0  0  0  0  0  0  0  0  0  0  0
   59.1230   34.7500   46.1930 N   0  0  0  0  0  0  0  0  0  0  0  0
   58.6370   34.6650   44.9230 C   0  0  0  0  0  0  0  0  0  0  0  0
   57.9170   33.5640   44.5380 C   0  0  0  0  0  0  0  0  0  0  0  0
   57.6790   32.5410   45.4250 C   0  0  0  0  0  0  0  0  0  0  0  0
   57.0000   31.5180   45.0380 N   0  0  0  0  0  0  0  0  0  0  0  0
   60.7620   33.7560   48.4770 C   0  0  0  0  0  0  0  0  0  0  0  0
   61.3310   33.9210   49.7240 C   0  0  0  0  0  0  0  0  0  0  0  0
   59.6080   28.8650   44.6450 C   0  0  0  0  0  0  0  0  0  0  0  0
   58.8340   27.7020   44.7160 C   0  0  0  0  0  0  0  0  0  0  0  0
   57.4650   27.8290   44.8940 C   0  0  0  0  0  0  0  0  0  0  0  0
   56.8710   29.0750   44.9990 C   0  0  0  0  0  0  0  0  0  0  0  0
   55.4870   29.2110   45.1790 O   0  0  0  0  0  0  0  0  0  0  0  0
   58.1770   32.6650   46.6720 N   0  0  0  0  0  0  0  0  0  0  0  0
   61.6060   33.4700   47.4200 C   0  0  0  0  0  0  0  0  0  0  0  0
   63.5820   33.5710   45.5330 H   0  0  0  0  0  0  0  0  0  0  0  0
   64.5830   32.3560   46.4920 H   0  0  0  0  0  0  0  0  0  0  0  0
   64.6336   33.4211   48.9739 H   0  0  0  0  0  0  0  0  0  0  0  0
   63.1283   33.9382   50.9010 H   0  0  0  0  0  0  0  0  0  0  0  0
   59.6154   30.9977   44.6913 H   0  0  0  0  0  0  0  0  0  0  0  0
   59.6690   35.5890   46.4780 H   0  0  0  0  0  0  0  0  0  0  0  0
   58.8223   35.4794   44.2071 H   0  0  0  0  0  0  0  0  0  0  0  0
   57.5267   33.4985   43.5117 H   0  0  0  0  0  0  0  0  0  0  0  0
   60.6907   34.1493   50.5888 H   0  0  0  0  0  0  0  0  0  0  0  0
   60.6973   28.8001   44.5061 H   0  0  0  0  0  0  0  0  0  0  0  0
   59.3008   26.7095   44.6325 H   0  0  0  0  0  0  0  0  0  0  0  0
   56.8408   26.9252   44.9527 H   0  0  0  0  0  0  0  0  0  0  0  0
   55.1800   30.0910   45.6140 H   0  0  0  0  0  0  0  0  0  0  0  0
   58.0080   31.9100   47.3460 H   0  0  0  0  0  0  0  0  0  0  0  0
   61.1703   33.3354   46.4190 H   0  0  0  0  0  0  0  0  0  0  0  0
  1  2  1  0
  2  3  2  0
  3  4  1  0
  4  5  2  0
  5  6  1  0
  6  7  1  0
  7  8  2  0
  8  9  1  0
  9 10  1  0
 10 11  2  0
 11 12  1  0
 12 13  2  0
 13 14  1  0
 14 15  2  0
 15 16  1  0
 16 17  2  0
 17 18  1  0
 18 19  2  0
 19 20  1  0
 12 21  1  0
  6 22  2  0
 22  2  1  0
 21  8  1  0
 19 14  1  0
  1 23  1  0
  1 24  1  0
  3 25  1  0
  4 26  1  0
  5 27  1  0
  9 28  1  0
 10 29  1  0
 11 30  1  0
 15 31  1  0
 16 32  1  0
 17 33  1  0
 18 34  1  0
 20 35  1  0
 21 36  1  0
 22 37  1  0
M  END
>  <smiles>  (9) 
Nc1cccc(N=c2[nH]ccc(=Nc3ccccc3O)[nH]2)c1

>  <score_type>  (9) 
oracle

>  <origin>  (9) 
adg

>  <m_score__min__energy>  (9) 
-8.6999999999999993

>  <m_primary>  (9) 
energy

$$$$
9:0
     RDKit          3D

 53 55  0  0  0  0  0  0  0  0999 V2000
   59.8060   34.0250   48.1630 C   0  0  0  0  0  0  0  0  0  0  0  0
   58.7980   34.5270   47.2180 N   0  0  0  0  0  0  0  0  0  0  0  0
   57.7770   33.4860   46.9540 C   0  0  0  0  0  0  0  0  0  0  0  0
   57.0300   33.7560   45.6410 C   0  0  0  0  0  0  0  0  0  0  0  0
   57.9490   33.7750   44.4790 N   0  0  0  0  0  0  0  0  0  0  0  0
   57.8010   32.6260   43.5560 C   0  0  0  0  0  0  0  0  0  0  0  0
   57.7100   31.2840   44.2550 C   0  0  0  0  0  0  0  0  0  0  0  0
   56.5790   30.4750   44.0850 C   0  0  0  0  0  0  0  0  0  0  0  0
   56.4920   29.2350   44.7170 C   0  0  0  0  0  0  0  0  0  0  0  0
   57.5280   28.7770   45.5460 C   0  0  0  0  0  0  0  0  0  0  0  0
   57.3740   27.4640   46.2120 C   0  0  0  0  0  0  0  0  0  0  0  0
   57.7770   27.3130   47.3990 O   0  0  0  0  0  0  0  0  0  0  0  0
   56.7590   26.3660   45.5210 N   0  0  0  0  0  0  0  0  0  0  0  0
   56.6600   25.0310   46.1060 C   0  0  0  0  0  0  0  0  0  0  0  0
   56.7980   23.9840   45.0350 C   0  0  0  0  0  0  0  0  0  0  0  0
   55.8950   23.9370   43.9600 C   0  0  0  0  0  0  0  0  0  0  0  0
   56.0120   22.9390   42.9860 C   0  0  0  0  0  0  0  0  0  0  0  0
   57.0280   21.9840   43.0800 C   0  0  0  0  0  0  0  0  0  0  0  0
   57.9270   22.0220   44.1480 C   0  0  0  0  0  0  0  0  0  0  0  0
   57.8130   23.0170   45.1250 C   0  0  0  0  0  0  0  0  0  0  0  0
   58.6760   29.5890   45.7290 C   0  0  0  0  0  0  0  0  0  0  0  0
   59.8390   29.1550   46.5880 C   0  0  0  0  0  0  0  0  0  0  0  0
   59.5510   29.4240   47.9320 O   0  0  0  0  0  0  0  0  0  0  0  0
   58.7390   30.8450   45.1020 C   0  0  0  0  0  0  0  0  0  0  0  0
   59.3560   34.0910   44.8130 C   0  0  0  0  0  0  0  0  0  0  0  0
   59.4310   35.0730   45.9900 C   0  0  0  0  0  0  0  0  0  0  0  0
   59.4607   34.1970   49.1931 H   0  0  0  0  0  0  0  0  0  0  0  0
   59.9554   32.9472   48.0015 H   0  0  0  0  0  0  0  0  0  0  0  0
   60.7562   34.5552   48.0015 H   0  0  0  0  0  0  0  0  0  0  0  0
   58.2730   32.5063   46.8888 H   0  0  0  0  0  0  0  0  0  0  0  0
   57.0473   33.4996   47.7770 H   0  0  0  0  0  0  0  0  0  0  0  0
   56.2801   32.9657   45.4890 H   0  0  0  0  0  0  0  0  0  0  0  0
   56.5531   34.7444   45.7160 H   0  0  0  0  0  0  0  0  0  0  0  0
   56.8843   32.7718   42.9657 H   0  0  0  0  0  0  0  0  0  0  0  0
   58.7060   32.5998   42.9313 H   0  0  0  0  0  0  0  0  0  0  0  0
   55.7522   30.8210   43.4473 H   0  0  0  0  0  0  0  0  0  0  0  0
   55.6010   28.6084   44.5641 H   0  0  0  0  0  0  0  0  0  0  0  0
   56.4240   26.5000   44.5400 H   0  0  0  0  0  0  0  0  0  0  0  0
   57.4608   24.8992   46.8485 H   0  0  0  0  0  0  0  0  0  0  0  0
   55.6781   24.9227   46.5900 H   0  0  0  0  0  0  0  0  0  0  0  0
   55.0937   24.6867   43.8836 H   0  0  0  0  0  0  0  0  0  0  0  0
   55.3034   22.9062   42.1453 H   0  0  0  0  0  0  0  0  0  0  0  0
   57.1197   21.2017   42.3121 H   0  0  0  0  0  0  0  0  0  0  0  0
   58.7255   21.2690   44.2212 H   0  0  0  0  0  0  0  0  0  0  0  0
   58.5208   23.0422   45.9667 H   0  0  0  0  0  0  0  0  0  0  0  0
   60.0087   28.0760   46.4580 H   0  0  0  0  0  0  0  0  0  0  0  0
   60.7426   29.7063   46.2886 H   0  0  0  0  0  0  0  0  0  0  0  0
   59.2080   28.5760   48.3150 H   0  0  0  0  0  0  0  0  0  0  0  0
   59.6091   31.4946   45.2780 H   0  0  0  0  0  0  0  0  0  0  0  0
   59.8792   33.1623   45.0846 H   0  0  0  0  0  0  0  0  0  0  0  0
   59.8300   34.5559   43.9360 H   0  0  0  0  0  0  0  0  0  0  0  0
   60.4880   35.2904   46.2031 H   0  0  0  0  0  0  0  0  0  0  0  0
   58.8843   35.9840   45.7049 H   0  0  0  0  0  0  0  0  0  0  0  0
  1  2  1  0
  2  3  1  0
  3  4  1  0
  4  5  1  0
  5  6  1  0
  6  7  1  0
  7  8  2  0
  8  9  1  0
  9 10  2  0
 10 11  1  0
 11 12  2  0
 11 13  1  0
 13 14  1  0
 14 15  1  0
 15 16  2  0
 16 17  1  0
 17 18  2  0
 18 19  1  0
 19 20  2  0
 10 21  1  0
 21 22  1  0
 22 23  1  0
 21 24  2  0
  5 25  1  0
 25 26  1  0
 26  2  1  0
 24  7  1  0
 20 15  1  0
  1 27  1  0
  1 28  1  0
  1 29  1  0
  3 30  1  0
  3 31  1  0
  4 32  1  0
  4 33  1  0
  6 34  1  0
  6 35  1  0
  8 36  1  0
  9 37  1  0
 13 38  1  0
 14 39  1  0
 14 40  1  0
 16 41  1  0
 17 42  1  0
 18 43  1  0
 19 44  1  0
 20 45  1  0
 22 46  1  0
 22 47  1  0
 23 48  1  0
 24 49  1  0
 25 50  1  0
 25 51  1  0
 26 52  1  0
 26 53  1  0
M  END
>  <UniqueID>  (10) 
9

>  <SMILES>  (10) 
CN1CCN(Cc2ccc(C(=O)NCc3ccccc3)c(CO)c2)CC1

>  <Energy>  (10) 
70.24609249121907

>  <Genealogy>  (10) 
CN1CCN(Cc2ccc(C(=O)NCc3ccccc3)c(CO)c2)CC1 (3D coordinates assigned)
CN1CCN(Cc2ccc(C(=O)NCc3ccccc3)c(CO)c2)CC1 (nonaromatic ring conformer: 70.24609249121907 kcal/mol)

>  <smiles>  (10) 
CN1CCN(Cc2ccc(C(=O)NCc3ccccc3)c(CO)c2)CC1

>  <score_type>  (10) 
oracle

>  <origin>  (10) 
adg

>  <m_score__min__energy>  (10) 
-8.1300000000000008

>  <m_primary>  (10) 
energy

$$$$
10:0
     RDKit          3D

 86 91  0  0  0  0  0  0  0  0999 V2000
   59.5630   31.5270   49.7570 O   0  0  0  0  0  0  0  0  0  0  0  0
   59.1700   30.8520   50.6980 C   0  0  0  0  0  0  0  0  0  0  0  0
   57.6580   30.8020   50.9720 C   0  0  1  0  0  0  0  0  0  0  0  0
   57.2700   29.6770   51.8290 N   0  0  0  0  0  0  0  0  0  0  0  0
   56.0200   30.0560   52.4970 C   0  0  0  0  0  0  0  0  0  0  0  0
   55.7630   31.5370   52.2410 C   0  0  0  0  0  0  0  0  0  0  0  0
   57.0560   32.0610   51.6350 C   0  0  1  0  0  0  0  0  0  0  0  0
   57.9110   32.7230   52.7130 C   0  0  0  0  0  0  0  0  0  0  0  0
   58.4640   33.9940   52.4730 C   0  0  0  0  0  0  0  0  0  0  0  0
   59.2260   34.6350   53.4530 C   0  0  0  0  0  0  0  0  0  0  0  0
   59.4330   34.0190   54.6910 C   0  0  0  0  0  0  0  0  0  0  0  0
   58.8960   32.7550   54.9400 C   0  0  0  0  0  0  0  0  0  0  0  0
   58.1340   32.1110   53.9640 C   0  0  0  0  0  0  0  0  0  0  0  0
   60.1780   30.1130   51.4590 N   0  0  0  0  0  0  0  0  0  0  0  0
   61.0500   29.3260   50.5540 C   0  0  0  0  0  0  0  0  0  0  0  0
   62.2930   30.0940   50.1000 C   0  0  0  0  0  0  0  0  0  0  0  0
   63.0020   30.6810   51.2400 N   0  0  0  0  0  0  0  0  0  0  0  0
   64.2370   31.3890   50.9890 C   0  0  0  0  0  0  0  0  0  0  0  0
   65.4470   30.7530   51.3260 C   0  0  0  0  0  0  0  0  0  0  0  0
   66.6680   31.4150   51.2220 C   0  0  0  0  0  0  0  0  0  0  0  0
   66.7060   32.7290   50.7680 C   0  0  0  0  0  0  0  0  0  0  0  0
   65.5250   33.3840   50.4140 C   0  0  0  0  0  0  0  0  0  0  0  0
   64.2770   32.7270   50.5010 C   0  0  0  0  0  0  0  0  0  0  0  0
   63.0340   33.5370   50.1580 C   0  0  2  0  0  0  0  0  0  0  0  0
   61.8740   32.7860   50.4270 O   0  0  0  0  0  0  0  0  0  0  0  0
   63.0300   33.9620   48.6720 C   0  0  0  0  0  0  0  0  0  0  0  0
   61.6900   33.7280   48.0870 N   0  0  0  0  0  0  0  0  0  0  0  0
   60.6500   34.5910   48.6760 C   0  0  0  0  0  0  0  0  0  0  0  0
   59.2490   34.0870   48.2730 C   0  0  0  0  0  0  0  0  0  0  0  0
   59.2810   33.1900   47.0120 C   0  0  0  0  0  0  0  0  0  0  0  0
   57.8780   33.0070   46.3950 C   0  0  0  0  0  0  0  0  0  0  0  0
   57.7800   31.6970   45.6530 C   0  0  0  0  0  0  0  0  0  0  0  0
   57.0610   31.6230   44.4470 C   0  0  0  0  0  0  0  0  0  0  0  0
   57.0470   30.4360   43.7060 C   0  0  0  0  0  0  0  0  0  0  0  0
   57.7490   29.3190   44.1640 C   0  0  0  0  0  0  0  0  0  0  0  0
   58.4610   29.3810   45.3640 C   0  0  0  0  0  0  0  0  0  0  0  0
   58.4830   30.5660   46.1040 C   0  0  0  0  0  0  0  0  0  0  0  0
   60.2830   33.7640   46.0010 C   0  0  0  0  0  0  0  0  0  0  0  0
   61.7040   33.8510   46.6100 C   0  0  0  0  0  0  0  0  0  0  0  0
   62.4090   30.6060   52.5800 C   0  0  0  0  0  0  0  0  0  0  0  0
   60.8920   30.8710   52.5340 C   0  0  0  0  0  0  0  0  0  0  0  0
   57.2562   30.7040   49.9527 H   0  0  0  0  0  0  0  0  0  0  0  0
   57.0630   28.8390   51.2410 H   0  0  0  0  0  0  0  0  0  0  0  0
   55.1883   29.4601   52.0932 H   0  0  0  0  0  0  0  0  0  0  0  0
   56.0993   29.8691   53.5781 H   0  0  0  0  0  0  0  0  0  0  0  0
   54.9259   31.6687   51.5396 H   0  0  0  0  0  0  0  0  0  0  0  0
   55.4900   32.0744   53.1611 H   0  0  0  0  0  0  0  0  0  0  0  0
   56.9461   32.8623   50.8895 H   0  0  0  0  0  0  0  0  0  0  0  0
   58.2949   34.4878   51.5047 H   0  0  0  0  0  0  0  0  0  0  0  0
   59.6630   35.6240   53.2507 H   0  0  0  0  0  0  0  0  0  0  0  0
   60.0191   34.5306   55.4687 H   0  0  0  0  0  0  0  0  0  0  0  0
   59.0739   32.2648   55.9085 H   0  0  0  0  0  0  0  0  0  0  0  0
   57.7046   31.1198   54.1718 H   0  0  0  0  0  0  0  0  0  0  0  0
   59.6270   29.3880   51.9820 H   0  0  0  0  0  0  0  0  0  0  0  0
   61.3737   28.4173   51.0826 H   0  0  0  0  0  0  0  0  0  0  0  0
   60.4623   29.0919   49.6541 H   0  0  0  0  0  0  0  0  0  0  0  0
   62.9690   29.4033   49.5747 H   0  0  0  0  0  0  0  0  0  0  0  0
   61.9736   30.9084   49.4331 H   0  0  0  0  0  0  0  0  0  0  0  0
   65.4277   29.7113   51.6789 H   0  0  0  0  0  0  0  0  0  0  0  0
   67.5998   30.8999   51.4982 H   0  0  0  0  0  0  0  0  0  0  0  0
   67.6694   33.2538   50.6876 H   0  0  0  0  0  0  0  0  0  0  0  0
   65.5666   34.4255   50.0626 H   0  0  0  0  0  0  0  0  0  0  0  0
   63.0458   34.4425   50.7825 H   0  0  0  0  0  0  0  0  0  0  0  0
   61.4590   32.5620   49.5510 H   0  0  0  0  0  0  0  0  0  0  0  0
   63.2796   35.0307   48.5972 H   0  0  0  0  0  0  0  0  0  0  0  0
   63.7750   33.3680   48.1224 H   0  0  0  0  0  0  0  0  0  0  0  0
   60.7411   34.5735   49.7721 H   0  0  0  0  0  0  0  0  0  0  0  0
   60.7828   35.6179   48.3046 H   0  0  0  0  0  0  0  0  0  0  0  0
   58.8293   33.5067   49.1080 H   0  0  0  0  0  0  0  0  0  0  0  0
   58.6314   34.9672   48.0410 H   0  0  0  0  0  0  0  0  0  0  0  0
   59.6145   32.1838   47.3057 H   0  0  0  0  0  0  0  0  0  0  0  0
   57.1269   33.0223   47.1985 H   0  0  0  0  0  0  0  0  0  0  0  0
   57.6984   33.8267   45.6838 H   0  0  0  0  0  0  0  0  0  0  0  0
   56.5073   32.5016   44.0845 H   0  0  0  0  0  0  0  0  0  0  0  0
   56.4832   30.3828   42.7630 H   0  0  0  0  0  0  0  0  0  0  0  0
   57.7412   28.3880   43.5782 H   0  0  0  0  0  0  0  0  0  0  0  0
   59.0048   28.4963   45.7268 H   0  0  0  0  0  0  0  0  0  0  0  0
   59.0529   30.6143   47.0436 H   0  0  0  0  0  0  0  0  0  0  0  0
   60.3115   33.1130   45.1147 H   0  0  0  0  0  0  0  0  0  0  0  0
   59.9587   34.7786   45.7262 H   0  0  0  0  0  0  0  0  0  0  0  0
   62.3182   33.0393   46.1930 H   0  0  0  0  0  0  0  0  0  0  0  0
   62.1190   34.8380   46.3578 H   0  0  0  0  0  0  0  0  0  0  0  0
   62.5855   29.6026   52.9947 H   0  0  0  0  0  0  0  0  0  0  0  0
   62.8777   31.3749   53.2117 H   0  0  0  0  0  0  0  0  0  0  0  0
   60.4606   30.5853   53.5047 H   0  0  0  0  0  0  0  0  0  0  0  0
   60.7605   31.9405   52.3128 H   0  0  0  0  0  0  0  0  0  0  0  0
  1  2  2  0
  2  3  1  0
  3  4  1  0
  4  5  1  0
  5  6  1  0
  6  7  1  0
  7  8  1  0
  8  9  2  0
  9 10  1  0
 10 11  2  0
 11 12  1  0
 12 13  2  0
  2 14  1  0
 14 15  1  0
 15 16  1  0
 16 17  1  0
 17 18  1  0
 18 19  2  0
 19 20  1  0
 20 21  2  0
 21 22  1  0
 22 23  2  0
 23 24  1  0
 24 25  1  0
 24 26  1  0
 26 27  1  0
 27 28  1  0
 28 29  1  0
 29 30  1  0
 30 31  1  0
 31 32  1  0
 32 33  2  0
 33 34  1  0
 34 35  2  0
 35 36  1  0
 36 37  2  0
 30 38  1  0
 38 39  1  0
 17 40  1  0
 40 41  1  0
  7  3  1  0
 13  8  1  0
 41 14  1  0
 23 18  1  0
 39 27  1  0
 37 32  1  0
  3 42  1  6
  4 43  1  0
  5 44  1  0
  5 45  1  0
  6 46  1  0
  6 47  1  0
  7 48  1  6
  9 49  1  0
 10 50  1  0
 11 51  1  0
 12 52  1  0
 13 53  1  0
 14 54  1  0
 15 55  1  0
 15 56  1  0
 16 57  1  0
 16 58  1  0
 19 59  1  0
 20 60  1  0
 21 61  1  0
 22 62  1  0
 24 63  1  1
 25 64  1  0
 26 65  1  0
 26 66  1  0
 28 67  1  0
 28 68  1  0
 29 69  1  0
 29 70  1  0
 30 71  1  0
 31 72  1  0
 31 73  1  0
 33 74  1  0
 34 75  1  0
 35 76  1  0
 36 77  1  0
 37 78  1  0
 38 79  1  0
 38 80  1  0
 39 81  1  0
 39 82  1  0
 40 83  1  0
 40 84  1  0
 41 85  1  0
 41 86  1  0
M  CHG  1  14   1
M  END
>  <UniqueID>  (11) 
10

>  <SMILES>  (11) 
O=C([C@H]1NCC[C@H]1c1ccccc1)[NH+]1CCN(c2ccccc2C(O)CN2CCC(Cc3ccccc3)CC2)CC1

>  <Energy>  (11) 
124.50657852497085

>  <Genealogy>  (11) 
O=C(C1NCCC1c1ccccc1)[NH+]1CCN(c2ccccc2C(O)CN2CCC(Cc3ccccc3)CC2)CC1 (protonated)
O=C([C@H]1NCC[C@H]1c1ccccc1)[NH+]1CCN(c2ccccc2C(O)CN2CCC(Cc3ccccc3)CC2)CC1 (chirality)
O=C([C@H]1NCC[C@H]1c1ccccc1)[NH+]1CCN(c2ccccc2C(O)CN2CCC(Cc3ccccc3)CC2)CC1 (3D coordinates assigned)
O=C([C@H]1NCC[C@H]1c1ccccc1)[NH+]1CCN(c2ccccc2C(O)CN2CCC(Cc3ccccc3)CC2)CC1 (nonaromatic ring conformer: 124.50657852497085 kcal/mol)

>  <smiles>  (11) 
O=C(C1NCCC1c1ccccc1)N1CCN(c2ccccc2C(O)CN2CCC(Cc3ccccc3)CC2)CC1

>  <score_type>  (11) 
oracle

>  <origin>  (11) 
adg

>  <m_score__min__energy>  (11) 
-9.3599999999999994

>  <m_primary>  (11) 
energy

$$$$
11:0
     RDKit          3D

 58 61  0  0  0  0  0  0  0  0999 V2000
   62.9310   33.8400   46.5830 C   0  0  0  0  0  0  0  0  0  0  0  0
   63.2230   33.6010   48.0290 C   0  0  0  0  0  0  0  0  0  0  0  0
   64.4670   33.1100   48.4390 C   0  0  0  0  0  0  0  0  0  0  0  0
   64.6950   32.9300   49.8070 C   0  0  0  0  0  0  0  0  0  0  0  0
   66.0150   32.4240   50.2940 C   0  0  0  0  0  0  0  0  0  0  0  0
   63.7250   33.2610   50.6990 N   0  0  0  0  0  0  0  0  0  0  0  0
   62.5260   33.7520   50.2900 C   0  0  0  0  0  0  0  0  0  0  0  0
   61.6260   34.0530   51.1720 N   0  0  0  0  0  0  0  0  0  0  0  0
   60.0170   33.4050   51.1730 S   0  0  0  0  0  0  0  0  0  0  0  0
   59.0340   34.5160   51.4190 O   0  0  0  0  0  0  0  0  0  0  0  0
   59.8810   32.3650   52.2490 O   0  0  0  0  0  0  0  0  0  0  0  0
   59.7080   32.6620   49.6090 C   0  0  0  0  0  0  0  0  0  0  0  0
   59.1830   33.4120   48.5460 C   0  0  0  0  0  0  0  0  0  0  0  0
   58.9690   32.8120   47.3020 C   0  0  0  0  0  0  0  0  0  0  0  0
   59.2970   31.4670   47.1020 C   0  0  0  0  0  0  0  0  0  0  0  0
   59.0480   30.8600   45.8280 N   0  0  0  0  0  0  0  0  0  0  0  0
   58.0160   30.1620   45.4220 C   0  0  0  0  0  0  0  0  0  0  0  0
   57.0060   30.8740   44.7600 C   0  0  0  0  0  0  0  0  0  0  0  0
   55.7820   30.2700   44.4840 C   0  0  0  0  0  0  0  0  0  0  0  0
   55.5700   28.9750   44.8220 N   0  0  0  0  0  0  0  0  0  0  0  0
   56.5420   28.2100   45.3840 C   0  0  0  0  0  0  0  0  0  0  0  0
   56.2760   26.8640   45.6550 C   0  0  0  0  0  0  0  0  0  0  0  0
   57.2880   26.0240   46.1230 C   0  0  0  0  0  0  0  0  0  0  0  0
   56.9280   24.3380   46.4940 S   0  0  0  0  0  0  0  0  0  0  0  0
   57.4030   24.0310   47.8860 O   0  0  0  0  0  0  0  0  0  0  0  0
   55.4450   24.0970   46.4330 O   0  0  0  0  0  0  0  0  0  0  0  0
   57.7310   23.2870   45.3670 N   0  0  0  0  0  0  0  0  0  0  0  0
   57.3980   21.8920   45.6670 C   0  0  0  0  0  0  0  0  0  0  0  0
   56.5650   21.2920   44.5370 C   0  0  0  0  0  0  0  0  0  0  0  0
   55.8250   22.2970   43.9000 O   0  0  0  0  0  0  0  0  0  0  0  0
   58.5830   26.5270   46.2850 C   0  0  0  0  0  0  0  0  0  0  0  0
   58.8560   27.8710   46.0260 C   0  0  0  0  0  0  0  0  0  0  0  0
   57.8240   28.7620   45.6510 C   0  0  0  0  0  0  0  0  0  0  0  0
   59.7710   30.7030   48.1820 C   0  0  0  0  0  0  0  0  0  0  0  0
   59.9900   31.3030   49.4250 C   0  0  0  0  0  0  0  0  0  0  0  0
   62.2870   33.9220   48.9610 N   0  0  0  0  0  0  0  0  0  0  0  0
   62.0828   34.5342   46.4901 H   0  0  0  0  0  0  0  0  0  0  0  0
   63.8165   34.2759   46.0973 H   0  0  0  0  0  0  0  0  0  0  0  0
   62.6788   32.8858   46.0973 H   0  0  0  0  0  0  0  0  0  0  0  0
   65.2481   32.8709   47.7022 H   0  0  0  0  0  0  0  0  0  0  0  0
   66.0233   32.4208   51.3940 H   0  0  0  0  0  0  0  0  0  0  0  0
   66.1749   31.4008   49.9232 H   0  0  0  0  0  0  0  0  0  0  0  0
   66.8179   33.0781   49.9232 H   0  0  0  0  0  0  0  0  0  0  0  0
   58.9392   34.4747   48.6919 H   0  0  0  0  0  0  0  0  0  0  0  0
   58.5409   33.3999   46.4767 H   0  0  0  0  0  0  0  0  0  0  0  0
   57.1815   31.9167   44.4566 H   0  0  0  0  0  0  0  0  0  0  0  0
   54.9852   30.8456   43.9903 H   0  0  0  0  0  0  0  0  0  0  0  0
   55.2631   26.4647   45.4984 H   0  0  0  0  0  0  0  0  0  0  0  0
   57.3530   23.5190   44.4190 H   0  0  0  0  0  0  0  0  0  0  0  0
   58.3267   21.3134   45.7801 H   0  0  0  0  0  0  0  0  0  0  0  0
   56.8157   21.8554   46.5995 H   0  0  0  0  0  0  0  0  0  0  0  0
   57.2337   20.8136   43.8062 H   0  0  0  0  0  0  0  0  0  0  0  0
   55.8738   20.5456   44.9556 H   0  0  0  0  0  0  0  0  0  0  0  0
   55.7470   23.0380   44.5570 H   0  0  0  0  0  0  0  0  0  0  0  0
   59.3911   25.8594   46.6185 H   0  0  0  0  0  0  0  0  0  0  0  0
   59.8877   28.2421   46.1148 H   0  0  0  0  0  0  0  0  0  0  0  0
   59.9703   29.6295   48.0486 H   0  0  0  0  0  0  0  0  0  0  0  0
   60.3848   30.7063   50.2606 H   0  0  0  0  0  0  0  0  0  0  0  0
  1  2  1  0
  2  3  1  0
  3  4  2  0
  4  5  1  0
  4  6  1  0
  6  7  1  0
  7  8  2  3
  8  9  1  0
  9 10  2  0
  9 11  2  0
  9 12  1  0
 12 13  2  0
 13 14  1  0
 14 15  2  0
 15 16  1  0
 16 17  2  3
 17 18  1  0
 18 19  2  0
 19 20  1  0
 20 21  1  0
 21 22  2  0
 22 23  1  0
 23 24  1  0
 24 25  2  0
 24 26  2  0
 24 27  1  0
 27 28  1  0
 28 29  1  0
 29 30  1  0
 23 31  2  0
 31 32  1  0
 32 33  2  0
 15 34  1  0
 34 35  2  0
  7 36  1  0
 36  2  2  0
 35 12  1  0
 33 17  1  0
 33 21  1  0
  1 37  1  0
  1 38  1  0
  1 39  1  0
  3 40  1  0
  5 41  1  0
  5 42  1  0
  5 43  1  0
 13 44  1  0
 14 45  1  0
 18 46  1  0
 19 47  1  0
 22 48  1  0
 27 49  1  0
 28 50  1  0
 28 51  1  0
 29 52  1  0
 29 53  1  0
 30 54  1  0
 31 55  1  0
 32 56  1  0
 34 57  1  0
 35 58  1  0
M  CHG  2   6  -1  20  -1
M  END
>  <UniqueID>  (12) 
11

>  <SMILES>  (12) 
Cc1cc(C)[n-]c(=NS(=O)(=O)c2ccc(N=c3cc[n-]c4cc(S(=O)(=O)NCCO)ccc34)cc2)n1

>  <Energy>  (12) 
82.21120071319679

>  <Genealogy>  (12) 
Cc1cc(C)[n-]c(=NS(=O)(=O)c2ccc(N=c3cc[n-]c4cc(S(=O)(=O)NCCO)ccc34)cc2)n1 (protonated)
Cc1cc(C)[n-]c(=NS(=O)(=O)c2ccc(N=c3cc[n-]c4cc(S(=O)(=O)NCCO)ccc34)cc2)n1 (3D coordinates assigned)
Cc1cc(C)[n-]c(=NS(=O)(=O)c2ccc(N=c3cc[n-]c4cc(S(=O)(=O)NCCO)ccc34)cc2)n1 (optimized conformer: 82.21120071319679 kcal/mol)

>  <smiles>  (12) 
Cc1cc(C)[nH]c(=NS(=O)(=O)c2ccc(N=c3cc[nH]c4cc(S(=O)(=O)NCCO)ccc34)cc2)n1

>  <score_type>  (12) 
oracle

>  <origin>  (12) 
adg

>  <m_score__min__energy>  (12) 
-11.94

>  <m_primary>  (12) 
energy

$$$$
12:0
     RDKit          3D

 55 57  0  0  1  0  0  0  0  0999 V2000
   57.3890   32.8170   46.2730 C   0  0  0  0  0  0  0  0  0  0  0  0
   57.4400   33.3830   44.8530 C   0  0  0  0  0  0  0  0  0  0  0  0
   58.5420   34.4120   44.7140 C   0  0  0  0  0  0  0  0  0  0  0  0
   57.6330   32.2230   43.9260 C   0  0  0  0  0  0  0  0  0  0  0  0
   56.9920   30.9670   44.3800 C   0  0  0  0  0  0  0  0  0  0  0  0
   56.0040   30.4760   44.7830 N   0  0  0  0  0  0  0  0  0  0  0  0
   55.7060   29.2750   45.1240 N   0  0  0  0  0  0  0  0  0  0  0  0
   56.7200   28.3880   44.9990 C   0  0  0  0  0  0  0  0  0  0  0  0
   56.7170   27.1740   45.2550 N   0  0  0  0  0  0  0  0  0  0  0  0
   57.7700   26.2760   45.4290 C   0  0  0  0  0  0  0  0  0  0  0  0
   57.7670   25.2950   44.5890 O   0  0  0  0  0  0  0  0  0  0  0  0
   58.8620   26.2610   46.3910 C   0  0  0  0  0  0  0  0  0  0  0  0
   59.3410   27.6640   46.4810 N   0  0  0  0  0  0  0  0  0  0  0  0
   58.9340   28.5110   47.5460 C   0  0  0  0  0  0  0  0  0  0  0  0
   58.1390   28.0730   48.4450 O   0  0  0  0  0  0  0  0  0  0  0  0
   59.3790   29.8930   47.6840 C   0  0  0  0  0  0  0  0  0  0  0  0
   59.1150   30.6580   48.8130 C   0  0  0  0  0  0  0  0  0  0  0  0
   59.5600   31.9690   48.8980 C   0  0  0  0  0  0  0  0  0  0  0  0
   60.2770   32.5750   47.8790 C   0  0  0  0  0  0  0  0  0  0  0  0
   60.8260   34.2270   48.0030 S   0  0  0  0  0  0  0  0  0  0  0  0
   60.2680   34.8170   49.2900 O   0  0  0  0  0  0  0  0  0  0  0  0
   60.3980   35.0290   46.8230 O   0  0  0  0  0  0  0  0  0  0  0  0
   62.5380   34.2160   48.1920 N   0  0  0  0  0  0  0  0  0  0  0  0
   63.0000   33.4150   49.2750 C   0  0  0  0  0  0  0  0  0  0  0  0
   63.7270   32.2290   48.6850 C   0  0  0  0  0  0  0  0  0  0  0  0
   63.6900   32.4050   47.1860 C   0  0  0  0  0  0  0  0  0  0  0  0
   63.1930   33.8110   46.9900 C   0  0  0  0  0  0  0  0  0  0  0  0
   60.5400   31.8110   46.7490 C   0  0  0  0  0  0  0  0  0  0  0  0
   60.0940   30.5190   46.6840 C   0  0  0  0  0  0  0  0  0  0  0  0
   58.1120   29.3970   44.3650 S   0  0  0  0  0  0  0  0  0  0  0  0
   57.4632   33.6403   46.9987 H   0  0  0  0  0  0  0  0  0  0  0  0
   56.4390   32.2824   46.4207 H   0  0  0  0  0  0  0  0  0  0  0  0
   58.2281   32.1212   46.4207 H   0  0  0  0  0  0  0  0  0  0  0  0
   56.5066   33.9103   44.6064 H   0  0  0  0  0  0  0  0  0  0  0  0
   58.8784   34.7262   45.7131 H   0  0  0  0  0  0  0  0  0  0  0  0
   59.3870   33.9722   44.1640 H   0  0  0  0  0  0  0  0  0  0  0  0
   58.1611   35.2852   44.1640 H   0  0  0  0  0  0  0  0  0  0  0  0
   57.2106   32.4909   42.9463 H   0  0  0  0  0  0  0  0  0  0  0  0
   58.7149   32.0281   43.8861 H   0  0  0  0  0  0  0  0  0  0  0  0
   54.7750   28.9600   45.4720 H   0  0  0  0  0  0  0  0  0  0  0  0
   58.5038   25.9148   47.3717 H   0  0  0  0  0  0  0  0  0  0  0  0
   59.6661   25.5777   46.0802 H   0  0  0  0  0  0  0  0  0  0  0  0
   59.9850   28.0670   45.7710 H   0  0  0  0  0  0  0  0  0  0  0  0
   58.5477   30.2200   49.6475 H   0  0  0  0  0  0  0  0  0  0  0  0
   59.3358   32.5478   49.8062 H   0  0  0  0  0  0  0  0  0  0  0  0
   63.6848   33.9983   49.9081 H   0  0  0  0  0  0  0  0  0  0  0  0
   62.1567   33.0818   49.8977 H   0  0  0  0  0  0  0  0  0  0  0  0
   64.7681   32.2069   49.0393 H   0  0  0  0  0  0  0  0  0  0  0  0
   63.2537   31.2827   48.9859 H   0  0  0  0  0  0  0  0  0  0  0  0
   64.6943   32.2828   46.7542 H   0  0  0  0  0  0  0  0  0  0  0  0
   63.0502   31.6598   46.6906 H   0  0  0  0  0  0  0  0  0  0  0  0
   64.0400   34.4813   46.7818 H   0  0  0  0  0  0  0  0  0  0  0  0
   62.4964   33.8563   46.1399 H   0  0  0  0  0  0  0  0  0  0  0  0
   61.1047   32.2430   45.9096 H   0  0  0  0  0  0  0  0  0  0  0  0
   60.3203   29.9420   45.7752 H   0  0  0  0  0  0  0  0  0  0  0  0
  1  2  1  0
  2  3  1  0
  2  4  1  0
  4  5  1  0
  5  6  2  0
  6  7  1  0
  7  8  1  0
  8  9  2  0
  9 10  1  0
 10 11  2  0
 10 12  1  0
 12 13  1  0
 13 14  1  0
 14 15  2  0
 14 16  1  0
 16 17  2  0
 17 18  1  0
 18 19  2  0
 19 20  1  0
 20 21  2  0
 20 22  2  0
 20 23  1  0
 23 24  1  0
 24 25  1  0
 25 26  1  0
 26 27  1  0
 19 28  1  0
 28 29  2  0
  8 30  1  0
 30  5  1  0
 29 16  1  0
 27 23  1  0
  1 31  1  0
  1 32  1  0
  1 33  1  0
  2 34  1  0
  3 35  1  0
  3 36  1  0
  3 37  1  0
  4 38  1  0
  4 39  1  0
  7 40  1  0
 12 41  1  0
 12 42  1  0
 13 43  1  0
 17 44  1  0
 18 45  1  0
 24 46  1  0
 24 47  1  0
 25 48  1  0
 25 49  1  0
 26 50  1  0
 26 51  1  0
 27 52  1  0
 27 53  1  0
 28 54  1  0
 29 55  1  0
M  END
>  <smiles>  (13) 
CC(C)Cc1n[nH]c(=NC(=O)CNC(=O)c2ccc(S(=O)(=O)N3CCCC3)cc2)s1

>  <score_type>  (13) 
oracle

>  <origin>  (13) 
adg

>  <m_score__min__energy>  (13) 
-9.8800000000000008

>  <m_primary>  (13) 
energy

$$$$
13:0
     RDKit          3D

 36 39  0  0  0  0  0  0  0  0999 V2000
   60.0000   28.8720   49.3740 C   0  0  0  0  0  0  0  0  0  0  0  0
   59.5400   29.5040   48.1420 N   0  0  0  0  0  0  0  0  0  0  0  0
   59.3600   30.8310   47.9410 C   0  0  0  0  0  0  0  0  0  0  0  0
   58.9560   31.0650   46.6300 C   0  0  0  0  0  0  0  0  0  0  0  0
   58.7470   32.3760   45.9930 C   0  0  0  0  0  0  0  0  0  0  0  0
   59.5110   33.4740   46.1140 C   0  0  0  0  0  0  0  0  0  0  0  0
   60.7370   33.6220   46.9370 C   0  0  0  0  0  0  0  0  0  0  0  0
   60.6600   33.9720   48.2970 C   0  0  0  0  0  0  0  0  0  0  0  0
   61.8340   34.1020   49.0420 C   0  0  0  0  0  0  0  0  0  0  0  0
   63.0720   33.8840   48.4360 C   0  0  0  0  0  0  0  0  0  0  0  0
   63.1160   33.5320   47.0870 C   0  0  0  0  0  0  0  0  0  0  0  0
   61.9610   33.4100   46.3780 N   0  0  0  0  0  0  0  0  0  0  0  0
   58.8470   34.5420   45.3490 C   0  0  0  0  0  0  0  0  0  0  0  0
   59.2960   35.7040   45.1670 O   0  0  0  0  0  0  0  0  0  0  0  0
   57.6350   34.0800   44.7750 N   0  0  0  0  0  0  0  0  0  0  0  0
   57.5790   32.7260   45.1840 C   0  0  0  0  0  0  0  0  0  0  0  0
   56.6450   31.9410   44.8720 O   0  0  0  0  0  0  0  0  0  0  0  0
   58.9300   29.8280   46.0150 C   0  0  0  0  0  0  0  0  0  0  0  0
   58.6240   29.4620   44.7040 C   0  0  0  0  0  0  0  0  0  0  0  0
   58.6920   28.0980   44.3710 C   0  0  0  0  0  0  0  0  0  0  0  0
   59.0620   27.1410   45.3420 C   0  0  0  0  0  0  0  0  0  0  0  0
   59.3640   27.5400   46.6570 C   0  0  0  0  0  0  0  0  0  0  0  0
   59.2840   28.9000   46.9630 C   0  0  0  0  0  0  0  0  0  0  0  0
   59.6003   29.4212   50.2392 H   0  0  0  0  0  0  0  0  0  0  0  0
   59.6471   27.8306   49.4058 H   0  0  0  0  0  0  0  0  0  0  0  0
   61.0994   28.8877   49.4058 H   0  0  0  0  0  0  0  0  0  0  0  0
   59.5110   31.6101   48.7027 H   0  0  0  0  0  0  0  0  0  0  0  0
   59.6818   34.1422   48.7706 H   0  0  0  0  0  0  0  0  0  0  0  0
   61.7829   34.3761   50.1061 H   0  0  0  0  0  0  0  0  0  0  0  0
   64.0015   33.9884   49.0149 H   0  0  0  0  0  0  0  0  0  0  0  0
   64.0842   33.3531   46.5964 H   0  0  0  0  0  0  0  0  0  0  0  0
   56.9640   34.6030   44.1680 H   0  0  0  0  0  0  0  0  0  0  0  0
   58.3389   30.2160   43.9555 H   0  0  0  0  0  0  0  0  0  0  0  0
   58.4554   27.7735   43.3469 H   0  0  0  0  0  0  0  0  0  0  0  0
   59.1143   26.0769   45.0682 H   0  0  0  0  0  0  0  0  0  0  0  0
   59.6542   26.8032   47.4205 H   0  0  0  0  0  0  0  0  0  0  0  0
  1  2  1  0
  2  3  1  0
  3  4  2  0
  4  5  1  0
  5  6  2  0
  6  7  1  0
  7  8  2  0
  8  9  1  0
  9 10  2  0
 10 11  1  0
 11 12  2  0
  6 13  1  0
 13 14  2  0
 13 15  1  0
 15 16  1  0
 16 17  2  0
  4 18  1  0
 18 19  2  0
 19 20  1  0
 20 21  2  0
 21 22  1  0
 22 23  2  0
 23  2  1  0
 16  5  1  0
 23 18  1  0
 12  7  1  0
  1 24  1  0
  1 25  1  0
  1 26  1  0
  3 27  1  0
  8 28  1  0
  9 29  1  0
 10 30  1  0
 11 31  1  0
 15 32  1  0
 19 33  1  0
 20 34  1  0
 21 35  1  0
 22 36  1  0
M  END
>  <UniqueID>  (14) 
12

>  <SMILES>  (14) 
Cn1cc(C2=C(c3ccccn3)C(=O)NC2=O)c2ccccc21

>  <Energy>  (14) 
110.5844926076499

>  <Genealogy>  (14) 
Cn1cc(C2=C(c3ccccn3)C(=O)NC2=O)c2ccccc21 (3D coordinates assigned)
Cn1cc(C2=C(c3ccccn3)C(=O)NC2=O)c2ccccc21 (nonaromatic ring conformer: 110.5844926076499 kcal/mol)

>  <smiles>  (14) 
Cn1cc(C2=C(c3ccccn3)C(=O)NC2=O)c2ccccc21

>  <score_type>  (14) 
oracle

>  <origin>  (14) 
adg

>  <m_score__min__energy>  (14) 
-7.9900000000000002

>  <m_primary>  (14) 
energy

$$$$
14:0
     RDKit          3D

 61 64  0  0  0  0  0  0  0  0999 V2000
   54.7690   26.7130   45.0370 H   0  0  0  0  0  0  0  0  0  0  0  0
   55.1350   26.6850   46.0150 N   0  0  0  0  0  0  0  0  0  0  0  0
   56.5000   26.3670   46.2810 C   0  0  0  0  0  0  0  0  0  0  0  0
   56.8200   25.1660   46.4890 O   0  0  0  0  0  0  0  0  0  0  0  0
   57.5300   27.4340   46.3160 C   0  0  0  0  0  0  0  0  0  0  0  0
   58.7020   27.2700   47.0770 C   0  0  0  0  0  0  0  0  0  0  0  0
   58.8584   26.3423   47.6470 H   0  0  0  0  0  0  0  0  0  0  0  0
   59.6680   28.2780   47.1130 C   0  0  0  0  0  0  0  0  0  0  0  0
   60.5849   28.1364   47.7040 H   0  0  0  0  0  0  0  0  0  0  0  0
   59.4760   29.4640   46.4030 C   0  0  0  0  0  0  0  0  0  0  0  0
   60.2431   30.2518   46.4338 H   0  0  0  0  0  0  0  0  0  0  0  0
   58.3060   29.6550   45.6490 C   0  0  0  0  0  0  0  0  0  0  0  0
   58.0870   30.9190   44.9160 C   0  0  0  0  0  0  0  0  0  0  0  0
   57.7500   30.8780   43.7010 O   0  0  0  0  0  0  0  0  0  0  0  0
   58.2490   32.1930   45.5640 N   0  0  0  0  0  0  0  0  0  0  0  0
   58.8990   33.2900   44.8350 C   0  0  0  0  0  0  0  0  0  0  0  0
   58.3574   33.4577   43.8924 H   0  0  0  0  0  0  0  0  0  0  0  0
   59.9441   32.9992   44.6527 H   0  0  0  0  0  0  0  0  0  0  0  0
   58.9100   34.6020   45.6390 C   0  0  0  0  0  0  0  0  0  0  0  0
   57.9187   35.0694   45.5449 H   0  0  0  0  0  0  0  0  0  0  0  0
   59.7206   35.2158   45.2193 H   0  0  0  0  0  0  0  0  0  0  0  0
   59.2250   34.4360   47.1530 C   0  0  0  0  0  0  0  0  0  0  0  0
   58.6745   35.2409   47.6620 H   0  0  0  0  0  0  0  0  0  0  0  0
   60.6710   34.6430   47.4400 N   0  0  0  0  0  0  0  0  0  0  0  0
   61.0720   34.3230   48.8320 C   0  0  0  0  0  0  0  0  0  0  0  0
   60.1872   34.4177   49.4786 H   0  0  0  0  0  0  0  0  0  0  0  0
   61.8703   35.0283   49.1065 H   0  0  0  0  0  0  0  0  0  0  0  0
   61.6490   32.9010   49.0010 C   0  0  0  0  0  0  0  0  0  0  0  0
   60.8102   32.1900   49.0306 H   0  0  0  0  0  0  0  0  0  0  0  0
   62.2364   32.9074   49.9310 H   0  0  0  0  0  0  0  0  0  0  0  0
   62.6200   32.4640   47.8620 C   0  0  0  0  0  0  0  0  0  0  0  0
   62.1135   31.6760   47.2853 H   0  0  0  0  0  0  0  0  0  0  0  0
   63.9120   31.8650   48.4110 C   0  0  0  0  0  0  0  0  0  0  0  0
   64.4660   31.1897   47.7424 H   0  0  0  0  0  0  0  0  0  0  0  0
   64.4500   32.0810   49.6450 C   0  0  0  0  0  0  0  0  0  0  0  0
   65.4000   33.1250   49.7470 C   0  0  0  0  0  0  0  0  0  0  0  0
   65.4795   33.8650   48.9370 H   0  0  0  0  0  0  0  0  0  0  0  0
   66.2360   33.2310   50.8560 C   0  0  0  0  0  0  0  0  0  0  0  0
   66.9822   34.0377   50.9060 H   0  0  0  0  0  0  0  0  0  0  0  0
   66.1290   32.3190   51.9000 C   0  0  0  0  0  0  0  0  0  0  0  0
   66.8377   32.3601   52.7403 H   0  0  0  0  0  0  0  0  0  0  0  0
   65.1250   31.3530   51.8830 C   0  0  0  0  0  0  0  0  0  0  0  0
   65.0428   30.6394   52.7160 H   0  0  0  0  0  0  0  0  0  0  0  0
   64.2140   31.2800   50.8110 C   0  0  0  0  0  0  0  0  0  0  0  0
   63.0850   30.5840   51.0140 C   0  0  0  0  0  0  0  0  0  0  0  0
   62.3406   30.4964   50.2089 H   0  0  0  0  0  0  0  0  0  0  0  0
   62.9038   30.1010   51.9855 H   0  0  0  0  0  0  0  0  0  0  0  0
   62.9230   33.6440   46.9210 C   0  0  0  0  0  0  0  0  0  0  0  0
   63.5478   33.2954   46.0855 H   0  0  0  0  0  0  0  0  0  0  0  0
   63.4578   34.4280   47.4771 H   0  0  0  0  0  0  0  0  0  0  0  0
   61.6100   34.2120   46.3740 C   0  0  0  0  0  0  0  0  0  0  0  0
   61.1189   33.4364   45.7680 H   0  0  0  0  0  0  0  0  0  0  0  0
   61.8613   35.1028   45.7796 H   0  0  0  0  0  0  0  0  0  0  0  0
   58.6600   33.1320   47.7840 C   0  0  0  0  0  0  0  0  0  0  0  0
   58.1695   33.3840   48.7358 H   0  0  0  0  0  0  0  0  0  0  0  0
   59.5021   32.4405   47.9347 H   0  0  0  0  0  0  0  0  0  0  0  0
   57.6460   32.4390   46.8790 C   0  0  0  0  0  0  0  0  0  0  0  0
   56.7607   33.0812   46.7617 H   0  0  0  0  0  0  0  0  0  0  0  0
   57.3480   31.4809   47.3298 H   0  0  0  0  0  0  0  0  0  0  0  0
   57.3470   28.6300   45.5940 C   0  0  0  0  0  0  0  0  0  0  0  0
   56.4435   28.7625   44.9807 H   0  0  0  0  0  0  0  0  0  0  0  0
  1  2  1  0
  2  3  1  0
  3  4  2  0
  3  5  1  0
  5  6  2  0
  6  7  1  0
  6  8  1  0
  8  9  1  0
  8 10  2  0
 10 11  1  0
 10 12  1  0
 12 13  1  0
 13 14  2  0
 13 15  1  0
 15 16  1  0
 16 17  1  0
 16 18  1  0
 16 19  1  0
 19 20  1  0
 19 21  1  0
 19 22  1  0
 22 23  1  0
 22 24  1  0
 24 25  1  0
 25 26  1  0
 25 27  1  0
 25 28  1  0
 28 29  1  0
 28 30  1  0
 28 31  1  0
 31 32  1  0
 31 33  1  0
 33 34  1  0
 33 35  2  0
 35 36  1  0
 36 37  1  0
 36 38  2  0
 38 39  1  0
 38 40  1  0
 40 41  1  0
 40 42  2  0
 42 43  1  0
 42 44  1  0
 44 45  2  0
 45 46  1  0
 45 47  1  0
 31 48  1  0
 48 49  1  0
 48 50  1  0
 48 51  1  0
 51 52  1  0
 51 53  1  0
 22 54  1  0
 54 55  1  0
 54 56  1  0
 54 57  1  0
 57 58  1  0
 57 59  1  0
 12 60  2  0
 60 61  1  0
 60  5  1  0
 57 15  1  0
 51 24  1  0
 44 35  1  0
M  CHG  1   2  -1
M  END
>  <UniqueID>  (15) 
13

>  <SMILES>  (15) 
C=c1cccc/c1=C/C1CCN(C2CCN(C(=O)c3cccc(C([NH-])=O)c3)CC2)CC1

>  <Energy>  (15) 
108.62777229103122

>  <Genealogy>  (15) 
C=c1ccccc1=CC1CCN(C2CCN(C(=O)c3cccc(C([NH-])=O)c3)CC2)CC1 (protonated)
C=c1cccc/c1=C/C1CCN(C2CCN(C(=O)c3cccc(C([NH-])=O)c3)CC2)CC1 (cis-trans isomerization)
C=c1cccc/c1=C/C1CCN(C2CCN(C(=O)c3cccc(C([NH-])=O)c3)CC2)CC1 (3D coordinates assigned)
C=c1cccc/c1=C/C1CCN(C2CCN(C(=O)c3cccc(C([NH-])=O)c3)CC2)CC1 (nonaromatic ring conformer: 108.62777229103122 kcal/mol)

>  <smiles>  (15) 
C=c1ccccc1=CC1CCN(C2CCN(C(=O)c3cccc(C(N)=O)c3)CC2)CC1

>  <score_type>  (15) 
oracle

>  <origin>  (15) 
adg

>  <m_score__min__energy>  (15) 
-13.26

>  <m_primary>  (15) 
energy

$$$$
15:0
     RDKit          3D

 57 60  0  0  0  0  0  0  0  0999 V2000
   52.7880   24.0120   44.9390 C   0  0  0  0  0  0  0  0  0  0  0  0
   54.5300   23.9020   45.2740 S   0  0  0  0  0  0  0  0  0  0  0  0
   54.8130   22.7490   46.1940 O   0  0  0  0  0  0  0  0  0  0  0  0
   55.2560   23.6770   43.9800 O   0  0  0  0  0  0  0  0  0  0  0  0
   55.1020   25.3810   45.9850 N   0  0  0  0  0  0  0  0  0  0  0  0
   56.4080   25.9460   45.8100 C   0  0  0  0  0  0  0  0  0  0  0  0
   57.5230   25.1660   45.4560 C   0  0  0  0  0  0  0  0  0  0  0  0
   58.7730   25.7650   45.2840 C   0  0  0  0  0  0  0  0  0  0  0  0
   58.9230   27.1430   45.4610 C   0  0  0  0  0  0  0  0  0  0  0  0
   57.8230   27.9380   45.8200 C   0  0  0  0  0  0  0  0  0  0  0  0
   57.9800   29.4000   46.0080 C   0  0  0  0  0  0  0  0  0  0  0  0
   57.3710   30.3050   45.1200 C   0  0  0  0  0  0  0  0  0  0  0  0
   57.5100   31.6830   45.3060 C   0  0  0  0  0  0  0  0  0  0  0  0
   58.2730   32.1850   46.3700 C   0  0  0  0  0  0  0  0  0  0  0  0
   58.4000   33.6060   46.5390 N   0  0  0  0  0  0  0  0  0  0  0  0
   59.8700   34.4650   46.2030 S   0  0  0  0  0  0  0  0  0  0  0  0
   60.2850   34.1900   44.7840 O   0  0  0  0  0  0  0  0  0  0  0  0
   59.6540   35.9460   46.3520 O   0  0  0  0  0  0  0  0  0  0  0  0
   61.1380   33.9020   47.2890 C   0  0  0  0  0  0  0  0  0  0  0  0
   62.2800   33.2640   46.7870 C   0  0  0  0  0  0  0  0  0  0  0  0
   63.3030   32.8710   47.6530 C   0  0  0  0  0  0  0  0  0  0  0  0
   63.2010   33.1100   49.0370 C   0  0  0  0  0  0  0  0  0  0  0  0
   64.2600   32.7090   49.9360 N   0  0  0  0  0  0  0  0  0  0  0  0
   65.6530   33.0770   49.6550 C   0  0  0  0  0  0  0  0  0  0  0  0
   66.6010   32.3120   50.5840 C   0  0  0  0  0  0  0  0  0  0  0  0
   66.1180   31.0000   50.7750 O   0  0  0  0  0  0  0  0  0  0  0  0
   64.9620   31.0100   51.6010 C   0  0  0  0  0  0  0  0  0  0  0  0
   63.9490   32.1240   51.2460 C   0  0  0  0  0  0  0  0  0  0  0  0
   62.0410   33.7310   49.5360 C   0  0  0  0  0  0  0  0  0  0  0  0
   61.0220   34.1350   48.6680 C   0  0  0  0  0  0  0  0  0  0  0  0
   58.8750   31.2830   47.2640 C   0  0  0  0  0  0  0  0  0  0  0  0
   58.7310   29.9050   47.0840 C   0  0  0  0  0  0  0  0  0  0  0  0
   56.5690   27.3250   45.9970 C   0  0  0  0  0  0  0  0  0  0  0  0
   52.2335   24.0470   45.8884 H   0  0  0  0  0  0  0  0  0  0  0  0
   52.5828   24.9249   44.3606 H   0  0  0  0  0  0  0  0  0  0  0  0
   52.4696   23.1322   44.3606 H   0  0  0  0  0  0  0  0  0  0  0  0
   57.4106   24.0810   45.3141 H   0  0  0  0  0  0  0  0  0  0  0  0
   59.6423   25.1499   45.0083 H   0  0  0  0  0  0  0  0  0  0  0  0
   59.9096   27.6079   45.3181 H   0  0  0  0  0  0  0  0  0  0  0  0
   56.7810   29.9252   44.2729 H   0  0  0  0  0  0  0  0  0  0  0  0
   57.0168   32.3796   44.6121 H   0  0  0  0  0  0  0  0  0  0  0  0
   57.5350   34.1800   46.6510 H   0  0  0  0  0  0  0  0  0  0  0  0
   62.3712   33.0721   45.7077 H   0  0  0  0  0  0  0  0  0  0  0  0
   64.1960   32.3705   47.2504 H   0  0  0  0  0  0  0  0  0  0  0  0
   65.8903   32.8292   48.6099 H   0  0  0  0  0  0  0  0  0  0  0  0
   65.7796   34.1566   49.8236 H   0  0  0  0  0  0  0  0  0  0  0  0
   67.6030   32.2713   50.1321 H   0  0  0  0  0  0  0  0  0  0  0  0
   66.6562   32.8265   51.5547 H   0  0  0  0  0  0  0  0  0  0  0  0
   64.4569   30.0379   51.5020 H   0  0  0  0  0  0  0  0  0  0  0  0
   65.3045   31.2046   52.6281 H   0  0  0  0  0  0  0  0  0  0  0  0
   62.9361   31.6960   51.2192 H   0  0  0  0  0  0  0  0  0  0  0  0
   64.0092   32.9136   52.0095 H   0  0  0  0  0  0  0  0  0  0  0  0
   61.9350   33.9000   50.6178 H   0  0  0  0  0  0  0  0  0  0  0  0
   60.1278   34.6364   49.0668 H   0  0  0  0  0  0  0  0  0  0  0  0
   59.4636   31.6646   48.1113 H   0  0  0  0  0  0  0  0  0  0  0  0
   59.2090   29.2097   47.7897 H   0  0  0  0  0  0  0  0  0  0  0  0
   55.7024   27.9375   46.2864 H   0  0  0  0  0  0  0  0  0  0  0  0
  1  2  1  0
  2  3  2  0
  2  4  2  0
  2  5  1  0
  5  6  1  0
  6  7  2  0
  7  8  1  0
  8  9  2  0
  9 10  1  0
 10 11  1  0
 11 12  2  0
 12 13  1  0
 13 14  2  0
 14 15  1  0
 15 16  1  0
 16 17  2  0
 16 18  2  0
 16 19  1  0
 19 20  2  0
 20 21  1  0
 21 22  2  0
 22 23  1  0
 23 24  1  0
 24 25  1  0
 25 26  1  0
 26 27  1  0
 27 28  1  0
 22 29  1  0
 29 30  2  0
 14 31  1  0
 31 32  2  0
 10 33  2  0
 33  6  1  0
 32 11  1  0
 30 19  1  0
 28 23  1  0
  1 34  1  0
  1 35  1  0
  1 36  1  0
  7 37  1  0
  8 38  1  0
  9 39  1  0
 12 40  1  0
 13 41  1  0
 15 42  1  0
 20 43  1  0
 21 44  1  0
 24 45  1  0
 24 46  1  0
 25 47  1  0
 25 48  1  0
 27 49  1  0
 27 50  1  0
 28 51  1  0
 28 52  1  0
 29 53  1  0
 30 54  1  0
 31 55  1  0
 32 56  1  0
 33 57  1  0
M  CHG  1   5  -1
M  END
>  <UniqueID>  (16) 
14

>  <SMILES>  (16) 
CS(=O)(=O)[N-]c1cccc(-c2ccc(NS(=O)(=O)c3ccc(N4CCOCC4)cc3)cc2)c1

>  <Energy>  (16) 
79.34123294735329

>  <Genealogy>  (16) 
CS(=O)(=O)[N-]c1cccc(-c2ccc(NS(=O)(=O)c3ccc(N4CCOCC4)cc3)cc2)c1 (protonated)
CS(=O)(=O)[N-]c1cccc(-c2ccc(NS(=O)(=O)c3ccc(N4CCOCC4)cc3)cc2)c1 (3D coordinates assigned)
CS(=O)(=O)[N-]c1cccc(-c2ccc(NS(=O)(=O)c3ccc(N4CCOCC4)cc3)cc2)c1 (nonaromatic ring conformer: 79.34123294735329 kcal/mol)

>  <smiles>  (16) 
CS(=O)(=O)Nc1cccc(-c2ccc(NS(=O)(=O)c3ccc(N4CCOCC4)cc3)cc2)c1

>  <score_type>  (16) 
oracle

>  <origin>  (16) 
adg

>  <m_score__min__energy>  (16) 
-11.630000000000001

>  <m_primary>  (16) 
energy

$$$$
16:0
     RDKit          3D

 42 44  0  0  0  0  0  0  0  0999 V2000
   53.8030   28.8760   54.4420 C   0  0  0  0  0  0  0  0  0  0  0  0
   54.5240   29.4610   53.4740 C   0  0  0  0  0  0  0  0  0  0  0  0
   54.1560   30.5730   52.6970 C   0  0  0  0  0  0  0  0  0  0  0  0
   52.9730   31.2010   52.5540 C   0  0  0  0  0  0  0  0  0  0  0  0
   52.1380   31.1910   51.3410 C   0  0  0  0  0  0  0  0  0  0  0  0
   52.2100   30.2650   50.3680 N   0  0  0  0  0  0  0  0  0  0  0  0
   51.3770   30.7450   49.4190 C   0  0  0  0  0  0  0  0  0  0  0  0
   51.1600   30.1390   48.3380 O   0  0  0  0  0  0  0  0  0  0  0  0
   50.8040   31.9320   49.7160 N   0  0  0  0  0  0  0  0  0  0  0  0
   51.3090   32.2050   50.9290 C   0  0  0  0  0  0  0  0  0  0  0  0
   51.0210   33.3620   51.6420 O   0  0  0  0  0  0  0  0  0  0  0  0
   55.2950   30.9560   52.0100 C   0  0  0  0  0  0  0  0  0  0  0  0
   56.2860   30.0580   52.3410 C   0  0  0  0  0  0  0  0  0  0  0  0
   57.6570   30.1070   51.8010 C   0  0  0  0  0  0  0  0  0  0  0  0
   57.8630   29.6860   50.6300 O   0  0  0  0  0  0  0  0  0  0  0  0
   58.7410   30.6720   52.5610 N   0  0  0  0  0  0  0  0  0  0  0  0
   58.4840   31.7750   53.4980 C   0  0  0  0  0  0  0  0  0  0  0  0
   59.7900   32.4600   53.9030 C   0  0  0  0  0  0  0  0  0  0  0  0
   60.6410   32.6000   52.7110 N   0  0  0  0  0  0  0  0  0  0  0  0
   61.7690   33.5030   52.9840 C   0  0  0  0  0  0  0  0  0  0  0  0
   61.1330   31.2850   52.2350 C   0  0  0  0  0  0  0  0  0  0  0  0
   60.1040   30.1470   52.4150 C   0  0  0  0  0  0  0  0  0  0  0  0
   55.8140   29.1320   53.2080 N   0  0  0  0  0  0  0  0  0  0  0  0
   56.5490   27.9820   53.7480 C   0  0  0  0  0  0  0  0  0  0  0  0
   54.2074   28.0054   54.9792 H   0  0  0  0  0  0  0  0  0  0  0  0
   52.8073   29.2668   54.6987 H   0  0  0  0  0  0  0  0  0  0  0  0
   52.5984   31.7703   53.4175 H   0  0  0  0  0  0  0  0  0  0  0  0
   55.3907   31.8145   51.3290 H   0  0  0  0  0  0  0  0  0  0  0  0
   57.8250   32.5118   53.0154 H   0  0  0  0  0  0  0  0  0  0  0  0
   58.0060   31.3664   54.4005 H   0  0  0  0  0  0  0  0  0  0  0  0
   59.5721   33.4540   54.3206 H   0  0  0  0  0  0  0  0  0  0  0  0
   60.3081   31.8574   54.6636 H   0  0  0  0  0  0  0  0  0  0  0  0
   61.9000   33.6078   54.0711 H   0  0  0  0  0  0  0  0  0  0  0  0
   62.6867   33.0872   52.5425 H   0  0  0  0  0  0  0  0  0  0  0  0
   61.5641   34.4895   52.5425 H   0  0  0  0  0  0  0  0  0  0  0  0
   61.3769   31.3695   51.1657 H   0  0  0  0  0  0  0  0  0  0  0  0
   62.0138   31.0273   52.8415 H   0  0  0  0  0  0  0  0  0  0  0  0
   60.1411   29.4890   51.5343 H   0  0  0  0  0  0  0  0  0  0  0  0
   60.3598   29.5920   53.3296 H   0  0  0  0  0  0  0  0  0  0  0  0
   56.5271   28.0162   54.8473 H   0  0  0  0  0  0  0  0  0  0  0  0
   56.0786   27.0503   53.4007 H   0  0  0  0  0  0  0  0  0  0  0  0
   57.5921   28.0176   53.4007 H   0  0  0  0  0  0  0  0  0  0  0  0
  1  2  2  0
  2  3  1  0
  3  4  2  3
  4  5  1  0
  5  6  1  0
  6  7  1  0
  7  8  2  0
  7  9  1  0
  9 10  1  0
 10 11  1  0
  3 12  1  0
 12 13  2  0
 13 14  1  0
 14 15  2  0
 14 16  1  0
 16 17  1  0
 17 18  1  0
 18 19  1  0
 19 20  1  0
 19 21  1  0
 21 22  1  0
 13 23  1  0
 23 24  1  0
 23  2  1  0
 10  5  2  0
 22 16  1  0
  1 25  1  0
  1 26  1  0
  4 27  1  0
 12 28  1  0
 17 29  1  0
 17 30  1  0
 18 31  1  0
 18 32  1  0
 20 33  1  0
 20 34  1  0
 20 35  1  0
 21 36  1  0
 21 37  1  0
 22 38  1  0
 22 39  1  0
 24 40  1  0
 24 41  1  0
 24 42  1  0
M  CHG  3   6  -1   9  -1  11  -1
M  END
>  <UniqueID>  (17) 
15

>  <SMILES>  (17) 
C=c1c(=Cc2[n-]c(=O)[n-]c2[O-])cc(C(=O)N2CCN(C)CC2)n1C

>  <Energy>  (17) 
123.1947936915342

>  <Genealogy>  (17) 
C=c1c(=Cc2[n-]c(=O)[n-]c2[O-])cc(C(=O)N2CCN(C)CC2)n1C (protonated)
C=c1c(=Cc2[n-]c(=O)[n-]c2[O-])cc(C(=O)N2CCN(C)CC2)n1C (3D coordinates assigned)
C=c1c(=Cc2[n-]c(=O)[n-]c2[O-])cc(C(=O)N2CCN(C)CC2)n1C (nonaromatic ring conformer: 123.1947936915342 kcal/mol)

>  <smiles>  (17) 
C=c1c(=Cc2[nH]c(=O)[nH]c2O)cc(C(=O)N2CCN(C)CC2)n1C

>  <score_type>  (17) 
oracle

>  <origin>  (17) 
adg

>  <m_score__min__energy>  (17) 
-16.059999999999999

>  <m_primary>  (17) 
energy

$$$$
17:0
     RDKit          3D

 49 51  0  0  0  0  0  0  0  0999 V2000
   60.0750   26.7680   47.4950 O   0  0  0  0  0  0  0  0  0  0  0  0
   58.9570   26.6890   46.9160 C   0  0  0  0  0  0  0  0  0  0  0  0
   57.9880   25.5940   47.2880 C   0  0  0  0  0  0  0  0  0  0  0  0
   57.6640   24.7020   46.1160 C   0  0  0  0  0  0  0  0  0  0  0  0
   58.5900   23.7390   45.6830 C   0  0  0  0  0  0  0  0  0  0  0  0
   58.2780   22.8910   44.6160 C   0  0  0  0  0  0  0  0  0  0  0  0
   57.0360   22.9930   43.9800 C   0  0  0  0  0  0  0  0  0  0  0  0
   56.6450   21.9270   42.6430 Cl  0  0  0  0  0  0  0  0  0  0  0  0
   56.1040   23.9410   44.4150 C   0  0  0  0  0  0  0  0  0  0  0  0
   56.4140   24.7910   45.4810 C   0  0  0  0  0  0  0  0  0  0  0  0
   58.5900   27.7120   45.9200 C   0  0  0  0  0  0  0  0  0  0  0  0
   58.6760   27.5780   44.5470 C   0  0  0  0  0  0  0  0  0  0  0  0
   58.2730   28.7150   43.9510 N   0  0  0  0  0  0  0  0  0  0  0  0
   57.9300   29.5780   44.9290 C   0  0  0  0  0  0  0  0  0  0  0  0
   57.4470   30.9490   44.6710 C   0  0  0  0  0  0  0  0  0  0  0  0
   56.2100   31.1450   44.5320 O   0  0  0  0  0  0  0  0  0  0  0  0
   58.3600   32.0560   44.5840 N   0  0  0  0  0  0  0  0  0  0  0  0
   57.9230   33.4050   44.2320 C   0  0  0  0  0  0  0  0  0  0  0  0
   57.5840   34.2040   45.4980 C   0  0  0  0  0  0  0  0  0  0  0  0
   58.1480   33.5760   46.7490 C   0  0  0  0  0  0  0  0  0  0  0  0
   57.3860   32.9500   47.5360 O   0  0  0  0  0  0  0  0  0  0  0  0
   59.5600   33.6220   47.0240 N   0  0  0  0  0  0  0  0  0  0  0  0
   60.1490   33.0440   48.2190 C   0  0  0  0  0  0  0  0  0  0  0  0
   61.6250   33.4180   48.1710 C   0  0  0  0  0  0  0  0  0  0  0  0
   61.9030   33.8360   46.7290 C   0  0  0  0  0  0  0  0  0  0  0  0
   60.5510   34.2050   46.1340 C   0  0  0  0  0  0  0  0  0  0  0  0
   58.1170   28.9900   46.1700 C   0  0  0  0  0  0  0  0  0  0  0  0
   58.4330   24.9826   48.0869 H   0  0  0  0  0  0  0  0  0  0  0  0
   57.0532   26.0676   47.6223 H   0  0  0  0  0  0  0  0  0  0  0  0
   59.5647   23.6515   46.1853 H   0  0  0  0  0  0  0  0  0  0  0  0
   59.0096   22.1431   44.2763 H   0  0  0  0  0  0  0  0  0  0  0  0
   55.1258   24.0179   43.9177 H   0  0  0  0  0  0  0  0  0  0  0  0
   55.6767   25.5319   45.8236 H   0  0  0  0  0  0  0  0  0  0  0  0
   59.0222   26.6765   44.0203 H   0  0  0  0  0  0  0  0  0  0  0  0
   58.2390   28.8870   42.9220 H   0  0  0  0  0  0  0  0  0  0  0  0
   59.3630   31.9240   44.8430 H   0  0  0  0  0  0  0  0  0  0  0  0
   58.7292   33.9163   43.6855 H   0  0  0  0  0  0  0  0  0  0  0  0
   57.0242   33.3362   43.6016 H   0  0  0  0  0  0  0  0  0  0  0  0
   57.9974   35.2182   45.3958 H   0  0  0  0  0  0  0  0  0  0  0  0
   56.4887   34.2205   45.5982 H   0  0  0  0  0  0  0  0  0  0  0  0
   59.6764   33.4614   49.1203 H   0  0  0  0  0  0  0  0  0  0  0  0
   60.0066   31.9539   48.2563 H   0  0  0  0  0  0  0  0  0  0  0  0
   61.8311   34.2521   48.8579 H   0  0  0  0  0  0  0  0  0  0  0  0
   62.2651   32.5781   48.4790 H   0  0  0  0  0  0  0  0  0  0  0  0
   62.5807   34.7021   46.7055 H   0  0  0  0  0  0  0  0  0  0  0  0
   62.3878   33.0286   46.1606 H   0  0  0  0  0  0  0  0  0  0  0  0
   60.4348   35.2981   46.0933 H   0  0  0  0  0  0  0  0  0  0  0  0
   60.4436   33.8317   45.1049 H   0  0  0  0  0  0  0  0  0  0  0  0
   57.9283   29.4453   47.1534 H   0  0  0  0  0  0  0  0  0  0  0  0
  1  2  2  0
  2  3  1  0
  3  4  1  0
  4  5  2  0
  5  6  1  0
  6  7  2  0
  7  8  1  0
  7  9  1  0
  9 10  2  0
  2 11  1  0
 11 12  2  0
 12 13  1  0
 13 14  1  0
 14 15  1  0
 15 16  2  0
 15 17  1  0
 17 18  1  0
 18 19  1  0
 19 20  1  0
 20 21  2  0
 20 22  1  0
 22 23  1  0
 23 24  1  0
 24 25  1  0
 25 26  1  0
 14 27  2  0
 10  4  1  0
 27 11  1  0
 26 22  1  0
  3 28  1  0
  3 29  1  0
  5 30  1  0
  6 31  1  0
  9 32  1  0
 10 33  1  0
 12 34  1  0
 13 35  1  0
 17 36  1  0
 18 37  1  0
 18 38  1  0
 19 39  1  0
 19 40  1  0
 23 41  1  0
 23 42  1  0
 24 43  1  0
 24 44  1  0
 25 45  1  0
 25 46  1  0
 26 47  1  0
 26 48  1  0
 27 49  1  0
M  END
>  <UniqueID>  (18) 
16

>  <SMILES>  (18) 
O=C(Cc1ccc(Cl)cc1)c1c[nH]c(C(=O)NCCC(=O)N2CCCC2)c1

>  <Energy>  (18) 
69.61266774853704

>  <Genealogy>  (18) 
O=C(Cc1ccc(Cl)cc1)c1c[nH]c(C(=O)NCCC(=O)N2CCCC2)c1 (3D coordinates assigned)
O=C(Cc1ccc(Cl)cc1)c1c[nH]c(C(=O)NCCC(=O)N2CCCC2)c1 (nonaromatic ring conformer: 69.61266774853704 kcal/mol)

>  <smiles>  (18) 
O=C(Cc1ccc(Cl)cc1)c1c[nH]c(C(=O)NCCC(=O)N2CCCC2)c1

>  <score_type>  (18) 
oracle

>  <origin>  (18) 
adg

>  <m_score__min__energy>  (18) 
-9.0399999999999991

>  <m_primary>  (18) 
energy

$$$$
18:0
     RDKit          3D

 38 40  0  0  0  0  0  0  0  0999 V2000
   60.0140   27.8550   47.0640 C   0  0  0  0  0  0  0  0  0  0  0  0
   58.9050   28.4650   46.2730 C   0  0  0  0  0  0  0  0  0  0  0  0
   58.7650   28.4080   44.9030 C   0  0  0  0  0  0  0  0  0  0  0  0
   57.6310   29.1570   44.6700 C   0  0  0  0  0  0  0  0  0  0  0  0
   57.0000   29.4240   43.3400 C   0  0  0  0  0  0  0  0  0  0  0  0
   56.5730   30.8160   43.2480 N   0  0  0  0  0  0  0  0  0  0  0  0
   57.4810   31.9250   43.2450 C   0  0  0  0  0  0  0  0  0  0  0  0
   57.9670   32.3450   42.1620 O   0  0  0  0  0  0  0  0  0  0  0  0
   57.8440   32.5740   44.5120 C   0  0  0  0  0  0  0  0  0  0  0  0
   58.5340   33.7630   44.6530 C   0  0  0  0  0  0  0  0  0  0  0  0
   58.6190   33.9280   46.0230 C   0  0  0  0  0  0  0  0  0  0  0  0
   59.2710   35.0710   46.7380 C   0  0  0  0  0  0  0  0  0  0  0  0
   60.1920   34.5950   47.7180 O   0  0  0  0  0  0  0  0  0  0  0  0
   60.6970   33.2860   47.8300 C   0  0  0  0  0  0  0  0  0  0  0  0
   61.8610   32.8310   47.1650 C   0  0  0  0  0  0  0  0  0  0  0  0
   62.5760   33.6330   46.3400 F   0  0  0  0  0  0  0  0  0  0  0  0
   62.2940   31.5110   47.3350 C   0  0  0  0  0  0  0  0  0  0  0  0
   61.5830   30.6350   48.1580 C   0  0  0  0  0  0  0  0  0  0  0  0
   60.4350   31.0740   48.8150 C   0  0  0  0  0  0  0  0  0  0  0  0
   59.9920   32.3900   48.6500 C   0  0  0  0  0  0  0  0  0  0  0  0
   58.8740   32.8020   49.2990 F   0  0  0  0  0  0  0  0  0  0  0  0
   58.0170   32.9210   46.6170 O   0  0  0  0  0  0  0  0  0  0  0  0
   57.5450   32.0920   45.7340 N   0  0  0  0  0  0  0  0  0  0  0  0
   57.1750   29.6120   45.8140 O   0  0  0  0  0  0  0  0  0  0  0  0
   57.9230   29.2190   46.8050 N   0  0  0  0  0  0  0  0  0  0  0  0
   59.8049   27.9700   48.1378 H   0  0  0  0  0  0  0  0  0  0  0  0
   60.0944   26.7857   46.8186 H   0  0  0  0  0  0  0  0  0  0  0  0
   60.9601   28.3596   46.8186 H   0  0  0  0  0  0  0  0  0  0  0  0
   59.4036   27.8902   44.1722 H   0  0  0  0  0  0  0  0  0  0  0  0
   57.7305   29.2160   42.5443 H   0  0  0  0  0  0  0  0  0  0  0  0
   56.1203   28.7735   43.2262 H   0  0  0  0  0  0  0  0  0  0  0  0
   58.9232   34.4218   43.8628 H   0  0  0  0  0  0  0  0  0  0  0  0
   59.8101   35.6928   46.0081 H   0  0  0  0  0  0  0  0  0  0  0  0
   58.4925   35.6619   47.2427 H   0  0  0  0  0  0  0  0  0  0  0  0
   63.1995   31.1616   46.8174 H   0  0  0  0  0  0  0  0  0  0  0  0
   61.9289   29.5989   48.2877 H   0  0  0  0  0  0  0  0  0  0  0  0
   59.8764   30.3840   49.4645 H   0  0  0  0  0  0  0  0  0  0  0  0
   57.0290   31.2140   45.9560 H   0  0  0  0  0  0  0  0  0  0  0  0
  1  2  1  0
  2  3  1  0
  3  4  2  0
  4  5  1  0
  5  6  1  0
  6  7  1  0
  7  8  2  0
  7  9  1  0
  9 10  1  0
 10 11  2  0
 11 12  1  0
 12 13  1  0
 13 14  1  0
 14 15  2  0
 15 16  1  0
 15 17  1  0
 17 18  2  0
 18 19  1  0
 19 20  2  0
 20 21  1  0
 11 22  1  0
 22 23  1  0
  4 24  1  0
 24 25  1  0
 25  2  2  0
 23  9  2  0
 20 14  1  0
  1 26  1  0
  1 27  1  0
  1 28  1  0
  3 29  1  0
  5 30  1  0
  5 31  1  0
 10 32  1  0
 12 33  1  0
 12 34  1  0
 17 35  1  0
 18 36  1  0
 19 37  1  0
 23 38  1  0
M  CHG  2   6  -1  23   1
M  END
>  <UniqueID>  (19) 
17

>  <SMILES>  (19) 
Cc1cc(C[N-]C(=O)c2cc(COc3c(F)cccc3F)o[nH+]2)on1

>  <Energy>  (19) 
97.72934783452817

>  <Genealogy>  (19) 
Cc1cc(C[N-]C(=O)c2cc(COc3c(F)cccc3F)o[nH+]2)on1 (protonated)
Cc1cc(C[N-]C(=O)c2cc(COc3c(F)cccc3F)o[nH+]2)on1 (3D coordinates assigned)
Cc1cc(C[N-]C(=O)c2cc(COc3c(F)cccc3F)o[nH+]2)on1 (optimized conformer: 97.72934783452817 kcal/mol)

>  <smiles>  (19) 
Cc1cc(CNC(=O)c2cc(COc3c(F)cccc3F)on2)on1

>  <score_type>  (19) 
oracle

>  <origin>  (19) 
adg

>  <m_score__min__energy>  (19) 
-7.1299999999999999

>  <m_primary>  (19) 
energy

$$$$
19:0
     RDKit          3D

 45 47  0  0  0  0  0  0  0  0999 V2000
   59.9820   27.8090   48.0680 C   0  0  0  0  0  0  0  0  0  0  0  0
   59.1910   27.2900   47.0020 O   0  0  0  0  0  0  0  0  0  0  0  0
   58.5400   28.0780   46.0420 C   0  0  0  0  0  0  0  0  0  0  0  0
   59.3220   28.8300   45.1580 C   0  0  0  0  0  0  0  0  0  0  0  0
   58.7220   29.6320   44.1850 C   0  0  0  0  0  0  0  0  0  0  0  0
   57.3240   29.6890   44.0710 C   0  0  0  0  0  0  0  0  0  0  0  0
   56.6920   30.5860   43.0370 C   0  0  0  0  0  0  0  0  0  0  0  0
   57.3990   31.9140   43.0090 C   0  0  0  0  0  0  0  0  0  0  0  0
   57.7120   32.4010   41.8880 O   0  0  0  0  0  0  0  0  0  0  0  0
   57.7740   32.6060   44.2190 N   0  0  0  0  0  0  0  0  0  0  0  0
   58.8820   33.5750   44.1800 C   0  0  0  0  0  0  0  0  0  0  0  0
   59.6680   33.5450   45.4970 C   0  0  0  0  0  0  0  0  0  0  0  0
   58.7740   33.5290   46.6630 N   0  0  0  0  0  0  0  0  0  0  0  0
   59.3280   33.3300   47.9750 C   0  0  0  0  0  0  0  0  0  0  0  0
   60.0470   34.3630   48.5970 C   0  0  0  0  0  0  0  0  0  0  0  0
   60.5760   34.1830   49.8770 C   0  0  0  0  0  0  0  0  0  0  0  0
   60.3910   32.9710   50.5460 C   0  0  0  0  0  0  0  0  0  0  0  0
   59.6780   31.9360   49.9340 C   0  0  0  0  0  0  0  0  0  0  0  0
   59.1460   32.1110   48.6520 C   0  0  0  0  0  0  0  0  0  0  0  0
   58.4850   31.0830   48.0630 F   0  0  0  0  0  0  0  0  0  0  0  0
   57.3190   33.5460   46.4720 C   0  0  0  0  0  0  0  0  0  0  0  0
   56.9310   32.5020   45.4230 C   0  0  0  0  0  0  0  0  0  0  0  0
   56.5330   28.9430   44.9670 C   0  0  0  0  0  0  0  0  0  0  0  0
   55.1450   28.9940   44.8970 O   0  0  0  0  0  0  0  0  0  0  0  0
   57.1380   28.1410   45.9400 C   0  0  0  0  0  0  0  0  0  0  0  0
   59.5370   27.5170   49.0306 H   0  0  0  0  0  0  0  0  0  0  0  0
   61.0025   27.4043   47.9980 H   0  0  0  0  0  0  0  0  0  0  0  0
   60.0170   28.9062   47.9980 H   0  0  0  0  0  0  0  0  0  0  0  0
   60.4189   28.7890   45.2303 H   0  0  0  0  0  0  0  0  0  0  0  0
   59.3497   30.2237   43.5025 H   0  0  0  0  0  0  0  0  0  0  0  0
   56.7679   30.1116   42.0475 H   0  0  0  0  0  0  0  0  0  0  0  0
   55.6342   30.7446   43.2936 H   0  0  0  0  0  0  0  0  0  0  0  0
   59.5569   33.3200   43.3497 H   0  0  0  0  0  0  0  0  0  0  0  0
   58.4677   34.5837   44.0356 H   0  0  0  0  0  0  0  0  0  0  0  0
   60.2960   32.6421   45.5169 H   0  0  0  0  0  0  0  0  0  0  0  0
   60.2840   34.4548   45.5496 H   0  0  0  0  0  0  0  0  0  0  0  0
   60.1945   35.3191   48.0735 H   0  0  0  0  0  0  0  0  0  0  0  0
   61.1387   34.9963   50.3585 H   0  0  0  0  0  0  0  0  0  0  0  0
   60.8065   32.8308   51.5548 H   0  0  0  0  0  0  0  0  0  0  0  0
   59.5349   30.9815   50.4618 H   0  0  0  0  0  0  0  0  0  0  0  0
   56.8212   33.3115   47.4245 H   0  0  0  0  0  0  0  0  0  0  0  0
   57.0053   34.5435   46.1306 H   0  0  0  0  0  0  0  0  0  0  0  0
   57.0500   31.4982   45.8569 H   0  0  0  0  0  0  0  0  0  0  0  0
   55.8862   32.6805   45.1289 H   0  0  0  0  0  0  0  0  0  0  0  0
   56.5134   27.5553   46.6305 H   0  0  0  0  0  0  0  0  0  0  0  0
  1  2  1  0
  2  3  1  0
  3  4  2  0
  4  5  1  0
  5  6  2  0
  6  7  1  0
  7  8  1  0
  8  9  2  0
  8 10  1  0
 10 11  1  0
 11 12  1  0
 12 13  1  0
 13 14  1  0
 14 15  2  0
 15 16  1  0
 16 17  2  0
 17 18  1  0
 18 19  2  0
 19 20  1  0
 13 21  1  0
 21 22  1  0
  6 23  1  0
 23 24  1  0
 23 25  2  0
 25  3  1  0
 22 10  1  0
 19 14  1  0
  1 26  1  0
  1 27  1  0
  1 28  1  0
  4 29  1  0
  5 30  1  0
  7 31  1  0
  7 32  1  0
 11 33  1  0
 11 34  1  0
 12 35  1  0
 12 36  1  0
 15 37  1  0
 16 38  1  0
 17 39  1  0
 18 40  1  0
 21 41  1  0
 21 42  1  0
 22 43  1  0
 22 44  1  0
 25 45  1  0
M  CHG  1  24  -1
M  END
>  <UniqueID>  (20) 
18

>  <SMILES>  (20) 
COc1ccc(CC(=O)N2CCN(c3ccccc3F)CC2)c([O-])c1

>  <Energy>  (20) 
51.66282953165532

>  <Genealogy>  (20) 
COc1ccc(CC(=O)N2CCN(c3ccccc3F)CC2)c([O-])c1 (protonated)
COc1ccc(CC(=O)N2CCN(c3ccccc3F)CC2)c([O-])c1 (3D coordinates assigned)
COc1ccc(CC(=O)N2CCN(c3ccccc3F)CC2)c([O-])c1 (nonaromatic ring conformer: 51.66282953165532 kcal/mol)

>  <smiles>  (20) 
COc1ccc(CC(=O)N2CCN(c3ccccc3F)CC2)c(O)c1

>  <score_type>  (20) 
oracle

>  <origin>  (20) 
adg

>  <m_score__min__energy>  (20) 
-11.140000000000001

>  <m_primary>  (20) 
energy

$$$$
20:0
     RDKit          3D

 50 53  0  0  0  0  0  0  0  0999 V2000
   58.8630   29.6370   44.6610 C   0  0  0  0  0  0  0  0  0  0  0  0
   59.0420   29.0470   45.8530 C   0  0  0  0  0  0  0  0  0  0  0  0
   58.3830   27.8980   46.3150 C   0  0  0  0  0  0  0  0  0  0  0  0
   57.6240   26.9930   45.6680 C   0  0  0  0  0  0  0  0  0  0  0  0
   57.0080   25.8010   46.2740 C   0  0  0  0  0  0  0  0  0  0  0  0
   57.7100   24.7340   46.6940 N   0  0  0  0  0  0  0  0  0  0  0  0
   56.7520   23.8520   47.0510 C   0  0  0  0  0  0  0  0  0  0  0  0
   57.0190   22.7150   47.5200 O   0  0  0  0  0  0  0  0  0  0  0  0
   55.4860   24.2770   46.8560 N   0  0  0  0  0  0  0  0  0  0  0  0
   55.6650   25.5070   46.3490 C   0  0  0  0  0  0  0  0  0  0  0  0
   54.6230   26.3310   45.9390 O   0  0  0  0  0  0  0  0  0  0  0  0
   58.6690   27.8060   47.6620 C   0  0  0  0  0  0  0  0  0  0  0  0
   59.5320   28.8380   47.9680 C   0  0  0  0  0  0  0  0  0  0  0  0
   60.0530   29.0600   49.3320 C   0  0  0  0  0  0  0  0  0  0  0  0
   60.8620   28.2220   49.8170 O   0  0  0  0  0  0  0  0  0  0  0  0
   59.5870   30.1670   50.1200 N   0  0  0  0  0  0  0  0  0  0  0  0
   60.0450   31.3860   50.1130 C   0  0  0  0  0  0  0  0  0  0  0  0
   59.1990   32.4540   50.0520 N   0  0  0  0  0  0  0  0  0  0  0  0
   59.6510   33.7360   50.0560 C   0  0  0  0  0  0  0  0  0  0  0  0
   61.0200   33.9930   50.1250 C   0  0  0  0  0  0  0  0  0  0  0  0
   61.9130   32.9230   50.1910 C   0  0  0  0  0  0  0  0  0  0  0  0
   61.4340   31.6090   50.1870 C   0  0  0  0  0  0  0  0  0  0  0  0
   62.3460   30.5550   50.2570 O   0  0  0  0  0  0  0  0  0  0  0  0
   59.7880   29.5870   46.8590 N   0  0  0  0  0  0  0  0  0  0  0  0
   60.8140   30.6390   46.7100 C   0  0  0  0  0  0  0  0  0  0  0  0
   60.1780   32.0120   46.7380 C   0  0  0  0  0  0  0  0  0  0  0  0
   58.7820   32.1380   46.6320 C   0  0  0  0  0  0  0  0  0  0  0  0
   58.1810   33.3980   46.6120 C   0  0  0  0  0  0  0  0  0  0  0  0
   58.9650   34.5460   46.7030 C   0  0  0  0  0  0  0  0  0  0  0  0
   60.3510   34.4410   46.8250 C   0  0  0  0  0  0  0  0  0  0  0  0
   60.9720   33.1760   46.8490 C   0  0  0  0  0  0  0  0  0  0  0  0
   62.3630   33.0420   46.9910 O   0  0  0  0  0  0  0  0  0  0  0  0
   63.3250   33.8910   46.3750 C   0  0  0  0  0  0  0  0  0  0  0  0
   59.4367   30.5391   44.4022 H   0  0  0  0  0  0  0  0  0  0  0  0
   58.1426   29.2185   43.9428 H   0  0  0  0  0  0  0  0  0  0  0  0
   57.4493   27.1586   44.5947 H   0  0  0  0  0  0  0  0  0  0  0  0
   58.2812   27.0506   48.3613 H   0  0  0  0  0  0  0  0  0  0  0  0
   58.9367   34.5710   50.0048 H   0  0  0  0  0  0  0  0  0  0  0  0
   61.3918   35.0283   50.1274 H   0  0  0  0  0  0  0  0  0  0  0  0
   62.9950   33.1131   50.2462 H   0  0  0  0  0  0  0  0  0  0  0  0
   62.0530   29.5870   50.3140 H   0  0  0  0  0  0  0  0  0  0  0  0
   61.5366   30.5585   47.5354 H   0  0  0  0  0  0  0  0  0  0  0  0
   61.3226   30.5037   45.7441 H   0  0  0  0  0  0  0  0  0  0  0  0
   58.1571   31.2353   46.5642 H   0  0  0  0  0  0  0  0  0  0  0  0
   57.0879   33.4843   46.5243 H   0  0  0  0  0  0  0  0  0  0  0  0
   58.4901   35.5379   46.6786 H   0  0  0  0  0  0  0  0  0  0  0  0
   60.9631   35.3516   46.9030 H   0  0  0  0  0  0  0  0  0  0  0  0
   63.9094   34.4067   47.1512 H   0  0  0  0  0  0  0  0  0  0  0  0
   63.9989   33.2878   45.7488 H   0  0  0  0  0  0  0  0  0  0  0  0
   62.8103   34.6346   45.7488 H   0  0  0  0  0  0  0  0  0  0  0  0
  1  2  2  0
  2  3  1  0
  3  4  2  3
  4  5  1  0
  5  6  1  0
  6  7  1  0
  7  8  2  0
  7  9  1  0
  9 10  1  0
 10 11  1  0
  3 12  1  0
 12 13  2  0
 13 14  1  0
 14 15  2  0
 14 16  1  0
 16 17  2  3
 17 18  1  0
 18 19  1  0
 19 20  2  0
 20 21  1  0
 21 22  2  0
 22 23  1  0
 13 24  1  0
 24 25  1  0
 25 26  1  0
 26 27  2  0
 27 28  1  0
 28 29  2  0
 29 30  1  0
 30 31  2  0
 31 32  1  0
 32 33  1  0
 24  2  1  0
 31 26  1  0
 10  5  2  0
 22 17  1  0
  1 34  1  0
  1 35  1  0
  4 36  1  0
 12 37  1  0
 19 38  1  0
 20 39  1  0
 21 40  1  0
 23 41  1  0
 25 42  1  0
 25 43  1  0
 27 44  1  0
 28 45  1  0
 29 46  1  0
 30 47  1  0
 33 48  1  0
 33 49  1  0
 33 50  1  0
M  CHG  4   6  -1   9  -1  11  -1  18  -1
M  END
>  <UniqueID>  (21) 
19

>  <SMILES>  (21) 
C=c1c(=Cc2[n-]c(=O)[n-]c2[O-])cc(C(=O)N=c2[n-]cccc2O)n1Cc1ccccc1OC

>  <Energy>  (21) 
131.6857984789815

>  <Genealogy>  (21) 
C=c1c(=Cc2[n-]c(=O)[n-]c2[O-])cc(C(=O)N=c2[n-]cccc2O)n1Cc1ccccc1OC (protonated)
C=c1c(=Cc2[n-]c(=O)[n-]c2[O-])cc(C(=O)N=c2[n-]cccc2O)n1Cc1ccccc1OC (3D coordinates assigned)
C=c1c(=Cc2[n-]c(=O)[n-]c2[O-])cc(C(=O)N=c2[n-]cccc2O)n1Cc1ccccc1OC (optimized conformer: 131.6857984789815 kcal/mol)

>  <smiles>  (21) 
C=c1c(=Cc2[nH]c(=O)[nH]c2O)cc(C(=O)N=c2[nH]cccc2O)n1Cc1ccccc1OC

>  <score_type>  (21) 
oracle

>  <origin>  (21) 
adg

>  <m_score__min__energy>  (21) 
-16.399999999999999

>  <m_primary>  (21) 
energy

$$$$
21:0
     RDKit          3D

 53 56  0  0  0  0  0  0  0  0999 V2000
   64.7447   33.0579   46.8122 H   0  0  0  0  0  0  0  0  0  0  0  0
   63.6830   33.0570   47.1000 C   0  0  0  0  0  0  0  0  0  0  0  0
   63.3394   32.4255   47.9326 H   0  0  0  0  0  0  0  0  0  0  0  0
   62.8130   33.8210   46.4400 C   0  0  0  0  0  0  0  0  0  0  0  0
   63.1900   34.4403   45.6127 H   0  0  0  0  0  0  0  0  0  0  0  0
   61.3660   33.8840   46.7570 C   0  0  0  0  0  0  0  0  0  0  0  0
   60.9760   34.0040   48.0990 C   0  0  0  0  0  0  0  0  0  0  0  0
   61.7406   34.0440   48.8888 H   0  0  0  0  0  0  0  0  0  0  0  0
   59.6230   34.0730   48.4390 C   0  0  0  0  0  0  0  0  0  0  0  0
   59.3274   34.1632   49.4947 H   0  0  0  0  0  0  0  0  0  0  0  0
   58.6450   34.0280   47.4450 C   0  0  0  0  0  0  0  0  0  0  0  0
   57.5816   34.0805   47.7216 H   0  0  0  0  0  0  0  0  0  0  0  0
   59.0100   33.9160   46.0930 C   0  0  0  0  0  0  0  0  0  0  0  0
   57.9640   33.8740   45.0390 C   0  0  0  0  0  0  0  0  0  0  0  0
   57.0070   34.6940   45.0790 O   0  0  0  0  0  0  0  0  0  0  0  0
   58.0500   32.9730   43.9240 N   0  0  0  0  0  0  0  0  0  0  0  0
   57.6700   31.7260   43.8880 C   0  0  0  0  0  0  0  0  0  0  0  0
   57.0520   31.2690   42.7660 N   0  0  0  0  0  0  0  0  0  0  0  0
   56.6260   29.9850   42.6430 C   0  0  0  0  0  0  0  0  0  0  0  0
   56.1378   29.6547   41.7143 H   0  0  0  0  0  0  0  0  0  0  0  0
   56.8070   29.0850   43.6930 C   0  0  0  0  0  0  0  0  0  0  0  0
   56.4809   28.0395   43.5898 H   0  0  0  0  0  0  0  0  0  0  0  0
   57.4080   29.5240   44.8810 C   0  0  0  0  0  0  0  0  0  0  0  0
   57.6190   28.6640   45.9690 O   0  0  0  0  0  0  0  0  0  0  0  0
   58.5410   28.8730   47.0050 C   0  0  0  0  0  0  0  0  0  0  0  0
   58.5880   30.0770   47.7300 C   0  0  0  0  0  0  0  0  0  0  0  0
   57.8751   30.8825   47.5001 H   0  0  0  0  0  0  0  0  0  0  0  0
   59.5360   30.2550   48.7410 C   0  0  0  0  0  0  0  0  0  0  0  0
   59.5681   31.2023   49.2993 H   0  0  0  0  0  0  0  0  0  0  0  0
   60.4450   29.2360   49.0480 C   0  0  0  0  0  0  0  0  0  0  0  0
   61.4250   29.4650   50.0690 N   0  0  0  0  0  0  0  0  0  0  0  0
   62.3760   30.5360   50.0960 C   0  0  0  0  0  0  0  0  0  0  0  0
   62.2140   31.5140   49.3210 O   0  0  0  0  0  0  0  0  0  0  0  0
   63.4400   30.5490   51.0610 N   0  0  0  0  0  0  0  0  0  0  0  0
   63.3030   30.0060   51.9440 H   0  0  0  0  0  0  0  0  0  0  0  0
   64.6290   31.3480   50.9350 C   0  0  0  0  0  0  0  0  0  0  0  0
   64.5850   32.6660   50.4470 C   0  0  0  0  0  0  0  0  0  0  0  0
   63.6199   33.1185   50.1753 H   0  0  0  0  0  0  0  0  0  0  0  0
   65.7330   33.3830   50.3100 N   0  0  0  0  0  0  0  0  0  0  0  0
   66.9460   32.8610   50.6290 C   0  0  0  0  0  0  0  0  0  0  0  0
   68.3900   33.8340   50.4340 Cl  0  0  0  0  0  0  0  0  0  0  0  0
   67.0390   31.5490   51.0980 C   0  0  0  0  0  0  0  0  0  0  0  0
   68.0189   31.1179   51.3507 H   0  0  0  0  0  0  0  0  0  0  0  0
   65.8770   30.7900   51.2430 C   0  0  0  0  0  0  0  0  0  0  0  0
   65.9408   29.7514   51.5998 H   0  0  0  0  0  0  0  0  0  0  0  0
   60.4260   28.0480   48.2940 C   0  0  0  0  0  0  0  0  0  0  0  0
   61.1603   27.2557   48.5013 H   0  0  0  0  0  0  0  0  0  0  0  0
   59.4780   27.8710   47.2830 C   0  0  0  0  0  0  0  0  0  0  0  0
   59.4679   26.9374   46.7013 H   0  0  0  0  0  0  0  0  0  0  0  0
   57.8510   30.8460   44.9760 C   0  0  0  0  0  0  0  0  0  0  0  0
   58.3393   31.1995   45.8961 H   0  0  0  0  0  0  0  0  0  0  0  0
   60.3740   33.8600   45.7560 C   0  0  0  0  0  0  0  0  0  0  0  0
   60.6704   33.7967   44.6986 H   0  0  0  0  0  0  0  0  0  0  0  0
  1  2  1  0
  2  3  1  0
  2  4  2  0
  4  5  1  0
  4  6  1  0
  6  7  2  0
  7  8  1  0
  7  9  1  0
  9 10  1  0
  9 11  2  0
 11 12  1  0
 11 13  1  0
 13 14  1  0
 14 15  2  0
 14 16  1  0
 16 17  2  0
 17 18  1  0
 18 19  1  0
 19 20  1  0
 19 21  2  0
 21 22  1  0
 21 23  1  0
 23 24  1  0
 24 25  1  0
 25 26  2  0
 26 27  1  0
 26 28  1  0
 28 29  1  0
 28 30  2  0
 30 31  1  0
 31 32  1  0
 32 33  2  0
 32 34  1  0
 34 35  1  0
 34 36  1  0
 36 37  2  0
 37 38  1  0
 37 39  1  0
 39 40  2  0
 40 41  1  0
 40 42  1  0
 42 43  1  0
 42 44  2  0
 44 45  1  0
 30 46  1  0
 46 47  1  0
 46 48  2  0
 48 49  1  0
 23 50  2  0
 50 51  1  0
 13 52  2  0
 52 53  1  0
 52  6  1  0
 50 17  1  0
 48 25  1  0
 44 36  1  0
M  CHG  2  18  -1  31  -1
M  END
>  <UniqueID>  (22) 
20

>  <SMILES>  (22) 
C=Cc1cccc(C(=O)/N=c2\cc(Oc3ccc([N-]C(=O)Nc4ccc(Cl)nc4)cc3)cc[n-]2)c1

>  <Energy>  (22) 
84.18364716775909

>  <Genealogy>  (22) 
C=Cc1cccc(C(=O)N=c2cc(Oc3ccc([N-]C(=O)Nc4ccc(Cl)nc4)cc3)cc[n-]2)c1 (protonated)
C=Cc1cccc(C(=O)/N=c2\cc(Oc3ccc([N-]C(=O)Nc4ccc(Cl)nc4)cc3)cc[n-]2)c1 (cis-trans isomerization)
C=Cc1cccc(C(=O)/N=c2\cc(Oc3ccc([N-]C(=O)Nc4ccc(Cl)nc4)cc3)cc[n-]2)c1 (3D coordinates assigned)
C=Cc1cccc(C(=O)/N=c2\cc(Oc3ccc([N-]C(=O)Nc4ccc(Cl)nc4)cc3)cc[n-]2)c1 (optimized conformer: 84.18364716775909 kcal/mol)

>  <smiles>  (22) 
C=Cc1cccc(C(=O)N=c2cc(Oc3ccc(NC(=O)Nc4ccc(Cl)nc4)cc3)cc[nH]2)c1

>  <score_type>  (22) 
oracle

>  <origin>  (22) 
adg

>  <m_score__min__energy>  (22) 
-11.66

>  <m_primary>  (22) 
energy

$$$$
22:0
     RDKit          3D

 47 49  0  0  0  0  0  0  0  0999 V2000
   60.8240   30.7390   46.8110 O   0  0  0  0  0  0  0  0  0  0  0  0
   59.7590   30.4340   47.4120 C   0  0  0  0  0  0  0  0  0  0  0  0
   59.6090   29.0650   47.9880 C   0  0  0  0  0  0  0  0  0  0  0  0
   58.2020   28.6790   47.9300 N   0  0  0  0  0  0  0  0  0  0  0  0
   57.8840   27.8260   46.4520 S   0  0  0  0  0  0  0  0  0  0  0  0
   56.7670   26.8460   46.6760 O   0  0  0  0  0  0  0  0  0  0  0  0
   59.1110   27.0650   46.0290 O   0  0  0  0  0  0  0  0  0  0  0  0
   57.4040   28.9700   45.2030 C   0  0  0  0  0  0  0  0  0  0  0  0
   58.3880   29.6890   44.5080 C   0  0  0  0  0  0  0  0  0  0  0  0
   58.0240   30.5770   43.4930 C   0  0  0  0  0  0  0  0  0  0  0  0
   56.6760   30.7550   43.1680 C   0  0  0  0  0  0  0  0  0  0  0  0
   55.6910   30.0400   43.8550 C   0  0  0  0  0  0  0  0  0  0  0  0
   56.0520   29.1480   44.8700 C   0  0  0  0  0  0  0  0  0  0  0  0
   58.6810   31.3760   47.5040 N   0  0  0  0  0  0  0  0  0  0  0  0
   58.6530   32.6050   46.7610 C   0  0  0  0  0  0  0  0  0  0  0  0
   57.8680   32.6740   45.5990 C   0  0  0  0  0  0  0  0  0  0  0  0
   57.8100   33.8520   44.8520 C   0  0  0  0  0  0  0  0  0  0  0  0
   58.5520   34.9670   45.2450 C   0  0  0  0  0  0  0  0  0  0  0  0
   59.3590   34.9050   46.3820 C   0  0  0  0  0  0  0  0  0  0  0  0
   59.4140   33.7330   47.1550 C   0  0  0  0  0  0  0  0  0  0  0  0
   60.3460   33.6650   48.3000 C   0  0  0  0  0  0  0  0  0  0  0  0
   59.9010   33.8840   49.4610 O   0  0  0  0  0  0  0  0  0  0  0  0
   61.7500   33.3970   48.1170 N   0  0  0  0  0  0  0  0  0  0  0  0
   62.4080   33.3120   46.8220 C   0  0  0  0  0  0  0  0  0  0  0  0
   63.8850   33.0910   47.1250 C   0  0  0  0  0  0  0  0  0  0  0  0
   64.0750   33.4700   48.5900 C   0  0  0  0  0  0  0  0  0  0  0  0
   62.6910   33.3940   49.2230 C   0  0  0  0  0  0  0  0  0  0  0  0
   60.2118   28.3518   47.4067 H   0  0  0  0  0  0  0  0  0  0  0  0
   59.9540   29.0603   49.0325 H   0  0  0  0  0  0  0  0  0  0  0  0
   59.4493   29.5531   44.7631 H   0  0  0  0  0  0  0  0  0  0  0  0
   58.7989   31.1368   42.9488 H   0  0  0  0  0  0  0  0  0  0  0  0
   56.3905   31.4579   42.3715 H   0  0  0  0  0  0  0  0  0  0  0  0
   54.6307   30.1790   43.5971 H   0  0  0  0  0  0  0  0  0  0  0  0
   55.2752   28.5850   45.4082 H   0  0  0  0  0  0  0  0  0  0  0  0
   57.9660   31.2350   48.2540 H   0  0  0  0  0  0  0  0  0  0  0  0
   57.2943   31.7932   45.2747 H   0  0  0  0  0  0  0  0  0  0  0  0
   57.1787   33.9015   43.9525 H   0  0  0  0  0  0  0  0  0  0  0  0
   58.5006   35.8958   44.6578 H   0  0  0  0  0  0  0  0  0  0  0  0
   59.9567   35.7806   46.6753 H   0  0  0  0  0  0  0  0  0  0  0  0
   62.0051   32.4690   46.2414 H   0  0  0  0  0  0  0  0  0  0  0  0
   62.2473   34.2212   46.2240 H   0  0  0  0  0  0  0  0  0  0  0  0
   64.1544   32.0366   46.9650 H   0  0  0  0  0  0  0  0  0  0  0  0
   64.5262   33.6950   46.4662 H   0  0  0  0  0  0  0  0  0  0  0  0
   64.7603   32.7642   49.0822 H   0  0  0  0  0  0  0  0  0  0  0  0
   64.5127   34.4738   48.6944 H   0  0  0  0  0  0  0  0  0  0  0  0
   62.5887   32.4698   49.8106 H   0  0  0  0  0  0  0  0  0  0  0  0
   62.5126   34.2352   49.9090 H   0  0  0  0  0  0  0  0  0  0  0  0
  1  2  2  0
  2  3  1  0
  3  4  1  0
  4  5  1  0
  5  6  2  0
  5  7  2  0
  5  8  1  0
  8  9  2  0
  9 10  1  0
 10 11  2  0
 11 12  1  0
 12 13  2  0
  2 14  1  0
 14 15  1  0
 15 16  2  0
 16 17  1  0
 17 18  2  0
 18 19  1  0
 19 20  2  0
 20 21  1  0
 21 22  2  0
 21 23  1  0
 23 24  1  0
 24 25  1  0
 25 26  1  0
 26 27  1  0
 13  8  1  0
 20 15  1  0
 27 23  1  0
  3 28  1  0
  3 29  1  0
  9 30  1  0
 10 31  1  0
 11 32  1  0
 12 33  1  0
 13 34  1  0
 14 35  1  0
 16 36  1  0
 17 37  1  0
 18 38  1  0
 19 39  1  0
 24 40  1  0
 24 41  1  0
 25 42  1  0
 25 43  1  0
 26 44  1  0
 26 45  1  0
 27 46  1  0
 27 47  1  0
M  CHG  1   4  -1
M  END
>  <UniqueID>  (23) 
21

>  <SMILES>  (23) 
O=C(C[N-]S(=O)(=O)c1ccccc1)Nc1ccccc1C(=O)N1CCCC1

>  <Energy>  (23) 
54.482886350932205

>  <Genealogy>  (23) 
O=C(C[N-]S(=O)(=O)c1ccccc1)Nc1ccccc1C(=O)N1CCCC1 (protonated)
O=C(C[N-]S(=O)(=O)c1ccccc1)Nc1ccccc1C(=O)N1CCCC1 (3D coordinates assigned)
O=C(C[N-]S(=O)(=O)c1ccccc1)Nc1ccccc1C(=O)N1CCCC1 (nonaromatic ring conformer: 54.482886350932205 kcal/mol)

>  <smiles>  (23) 
O=C(CNS(=O)(=O)c1ccccc1)Nc1ccccc1C(=O)N1CCCC1

>  <score_type>  (23) 
oracle

>  <origin>  (23) 
adg

>  <m_score__min__energy>  (23) 
-10.529999999999999

>  <m_primary>  (23) 
energy

$$$$
23:0
     RDKit          3D

 50 53  0  0  0  0  0  0  0  0999 V2000
   54.7790   26.2230   45.9330 N   0  0  0  0  0  0  0  0  0  0  0  0
   55.9790   26.6830   46.0690 C   0  0  0  0  0  0  0  0  0  0  0  0
   56.8560   26.0760   46.9370 N   0  0  0  0  0  0  0  0  0  0  0  0
   58.1290   26.5430   47.1040 C   0  0  0  0  0  0  0  0  0  0  0  0
   58.9190   25.9840   47.9070 O   0  0  0  0  0  0  0  0  0  0  0  0
   58.5120   27.6500   46.3610 C   0  0  0  0  0  0  0  0  0  0  0  0
   59.6730   28.3280   46.3470 N   0  0  0  0  0  0  0  0  0  0  0  0
   59.4580   29.3340   45.4600 C   0  0  0  0  0  0  0  0  0  0  0  0
   58.2110   29.2900   44.9200 N   0  0  0  0  0  0  0  0  0  0  0  0
   57.6060   30.2540   44.0050 C   0  0  0  0  0  0  0  0  0  0  0  0
   57.0160   31.4280   44.7940 C   0  0  0  0  0  0  0  0  0  0  0  0
   57.4360   32.7860   44.2200 C   0  0  0  0  0  0  0  0  0  0  0  0
   58.2290   33.5490   45.1850 N   0  0  0  0  0  0  0  0  0  0  0  0
   59.4020   34.2950   44.9060 C   0  0  0  0  0  0  0  0  0  0  0  0
   59.9880   34.2630   43.7920 O   0  0  0  0  0  0  0  0  0  0  0  0
   59.8550   35.1310   46.0570 C   0  0  0  0  0  0  0  0  0  0  0  0
   58.8400   34.7940   47.1810 C   0  0  2  0  0  0  0  0  0  0  0  0
   59.4930   34.1690   48.4330 C   0  0  0  0  0  0  0  0  0  0  0  0
   60.1210   32.7820   48.1940 C   0  0  0  0  0  0  0  0  0  0  0  0
   61.6220   32.8710   48.2490 C   0  0  0  0  0  0  0  0  0  0  0  0
   62.2870   32.8970   49.4870 C   0  0  0  0  0  0  0  0  0  0  0  0
   63.6790   33.0120   49.5370 C   0  0  0  0  0  0  0  0  0  0  0  0
   64.4160   33.1110   48.3530 C   0  0  0  0  0  0  0  0  0  0  0  0
   63.7620   33.1010   47.1190 C   0  0  0  0  0  0  0  0  0  0  0  0
   62.3690   32.9850   47.0640 C   0  0  0  0  0  0  0  0  0  0  0  0
   57.8670   33.8670   46.5170 C   0  0  0  0  0  0  0  0  0  0  0  0
   56.8240   33.4270   47.0700 O   0  0  0  0  0  0  0  0  0  0  0  0
   57.6350   28.2310   45.5100 C   0  0  0  0  0  0  0  0  0  0  0  0
   56.3680   27.7770   45.3460 N   0  0  0  0  0  0  0  0  0  0  0  0
   53.9590   26.6980   46.3740 H   0  0  0  0  0  0  0  0  0  0  0  0
   60.5360   28.1400   46.9040 H   0  0  0  0  0  0  0  0  0  0  0  0
   60.2080   30.0979   45.2072 H   0  0  0  0  0  0  0  0  0  0  0  0
   58.3735   30.6298   43.3124 H   0  0  0  0  0  0  0  0  0  0  0  0
   56.8025   29.7594   43.4395 H   0  0  0  0  0  0  0  0  0  0  0  0
   55.9187   31.3566   44.7663 H   0  0  0  0  0  0  0  0  0  0  0  0
   57.3974   31.3661   45.8239 H   0  0  0  0  0  0  0  0  0  0  0  0
   58.0365   32.6215   43.3132 H   0  0  0  0  0  0  0  0  0  0  0  0
   56.5273   33.3601   43.9862 H   0  0  0  0  0  0  0  0  0  0  0  0
   60.8778   34.8612   46.3588 H   0  0  0  0  0  0  0  0  0  0  0  0
   59.8842   36.2043   45.8178 H   0  0  0  0  0  0  0  0  0  0  0  0
   58.3595   35.6989   47.5814 H   0  0  0  0  0  0  0  0  0  0  0  0
   60.2826   34.8488   48.7856 H   0  0  0  0  0  0  0  0  0  0  0  0
   58.6895   34.0286   49.1711 H   0  0  0  0  0  0  0  0  0  0  0  0
   59.7702   32.0863   48.9705 H   0  0  0  0  0  0  0  0  0  0  0  0
   59.8206   32.4201   47.1996 H   0  0  0  0  0  0  0  0  0  0  0  0
   61.7094   32.8265   50.4205 H   0  0  0  0  0  0  0  0  0  0  0  0
   64.1950   33.0246   50.5084 H   0  0  0  0  0  0  0  0  0  0  0  0
   65.5119   33.1968   48.3934 H   0  0  0  0  0  0  0  0  0  0  0  0
   64.3432   33.1845   46.1888 H   0  0  0  0  0  0  0  0  0  0  0  0
   61.8568   32.9830   46.0905 H   0  0  0  0  0  0  0  0  0  0  0  0
  1  2  2  3
  2  3  1  0
  3  4  1  0
  4  5  2  0
  4  6  1  0
  6  7  1  0
  7  8  2  0
  8  9  1  0
  9 10  1  0
 10 11  1  0
 11 12  1  0
 12 13  1  0
 13 14  1  0
 14 15  2  0
 14 16  1  0
 16 17  1  0
 17 18  1  0
 18 19  1  0
 19 20  1  0
 20 21  2  0
 21 22  1  0
 22 23  2  0
 23 24  1  0
 24 25  2  0
 17 26  1  0
 26 27  2  0
  9 28  1  0
 28 29  1  0
 29  2  1  0
 28  6  2  0
 26 13  1  0
 25 20  1  0
  1 30  1  0
  7 31  1  0
  8 32  1  0
 10 33  1  0
 10 34  1  0
 11 35  1  0
 11 36  1  0
 12 37  1  0
 12 38  1  0
 16 39  1  0
 16 40  1  0
 17 41  1  1
 18 42  1  0
 18 43  1  0
 19 44  1  0
 19 45  1  0
 21 46  1  0
 22 47  1  0
 23 48  1  0
 24 49  1  0
 25 50  1  0
M  CHG  3   3  -1   7   1  29  -1
M  END
>  <UniqueID>  (24) 
22

>  <SMILES>  (24) 
N=c1[n-]c(=O)c2[nH+]cn(CCCN3C(=O)C[C@H](CCc4ccccc4)C3=O)c2[n-]1

>  <Energy>  (24) 
99.093795534573

>  <Genealogy>  (24) 
N=c1[n-]c(=O)c2[nH+]cn(CCCN3C(=O)CC(CCc4ccccc4)C3=O)c2[n-]1 (protonated)
N=c1[n-]c(=O)c2[nH+]cn(CCCN3C(=O)C[C@H](CCc4ccccc4)C3=O)c2[n-]1 (chirality)
N=c1[n-]c(=O)c2[nH+]cn(CCCN3C(=O)C[C@H](CCc4ccccc4)C3=O)c2[n-]1 (3D coordinates assigned)
N=c1[n-]c(=O)c2[nH+]cn(CCCN3C(=O)C[C@H](CCc4ccccc4)C3=O)c2[n-]1 (nonaromatic ring conformer: 99.093795534573 kcal/mol)

>  <smiles>  (24) 
N=c1[nH]c(=O)c2ncn(CCCN3C(=O)CC(CCc4ccccc4)C3=O)c2[nH]1

>  <score_type>  (24) 
oracle

>  <origin>  (24) 
adg

>  <m_score__min__energy>  (24) 
-12.289999999999999

>  <m_primary>  (24) 
energy

$$$$
24:0
     RDKit          3D

 57 60  0  0  0  0  0  0  0  0999 V2000
   51.3970   33.0830   49.7730 O   0  0  0  0  0  0  0  0  0  0  0  0
   51.4060   32.1660   50.6360 C   0  0  0  0  0  0  0  0  0  0  0  0
   50.7820   32.3680   51.8620 O   0  0  0  0  0  0  0  0  0  0  0  0
   52.0440   30.8490   50.3300 C   0  0  0  0  0  0  0  0  0  0  0  0
   53.0480   30.5040   51.3830 C   0  0  0  0  0  0  0  0  0  0  0  0
   52.9400   29.3790   52.2000 C   0  0  0  0  0  0  0  0  0  0  0  0
   54.2810   29.3430   53.2130 S   0  0  0  0  0  0  0  0  0  0  0  0
   54.9430   30.7520   52.5620 C   0  0  0  0  0  0  0  0  0  0  0  0
   56.0510   31.3300   52.9240 N   0  0  0  0  0  0  0  0  0  0  0  0
   56.8760   32.2200   52.1490 C   0  0  0  0  0  0  0  0  0  0  0  0
   56.8660   33.4620   52.3700 O   0  0  0  0  0  0  0  0  0  0  0  0
   57.7530   31.6700   51.0870 C   0  0  0  0  0  0  0  0  0  0  0  0
   57.9030   30.2830   50.9330 C   0  0  0  0  0  0  0  0  0  0  0  0
   58.7250   29.7680   49.9330 C   0  0  0  0  0  0  0  0  0  0  0  0
   59.4180   30.6160   49.0630 C   0  0  0  0  0  0  0  0  0  0  0  0
   60.1860   30.0140   48.0640 O   0  0  0  0  0  0  0  0  0  0  0  0
   59.3000   32.0220   49.2190 C   0  0  0  0  0  0  0  0  0  0  0  0
   60.1740   33.2050   48.2240 S   0  0  0  0  0  0  0  0  0  0  0  0
   60.7540   34.2440   49.1440 O   0  0  0  0  0  0  0  0  0  0  0  0
   61.3210   32.5700   47.4870 O   0  0  0  0  0  0  0  0  0  0  0  0
   59.0840   33.9970   47.1060 N   0  0  0  0  0  0  0  0  0  0  0  0
   57.7040   33.4700   47.2120 C   0  0  0  0  0  0  0  0  0  0  0  0
   57.4110   32.4090   46.1430 C   0  0  0  0  0  0  0  0  0  0  0  0
   57.5310   32.9700   44.7740 N   0  0  0  0  0  0  0  0  0  0  0  0
   57.7810   31.9080   43.7760 C   0  0  0  0  0  0  0  0  0  0  0  0
   57.9100   30.5590   44.4420 C   0  0  0  0  0  0  0  0  0  0  0  0
   59.1790   30.0990   44.8350 C   0  0  0  0  0  0  0  0  0  0  0  0
   59.3220   28.8380   45.4230 C   0  0  0  0  0  0  0  0  0  0  0  0
   58.2040   28.0260   45.6190 C   0  0  0  0  0  0  0  0  0  0  0  0
   56.9380   28.4720   45.2270 C   0  0  0  0  0  0  0  0  0  0  0  0
   56.7870   29.7330   44.6390 C   0  0  0  0  0  0  0  0  0  0  0  0
   55.5490   30.1400   44.2610 F   0  0  0  0  0  0  0  0  0  0  0  0
   58.5370   34.0590   44.6720 C   0  0  0  0  0  0  0  0  0  0  0  0
   59.6390   33.9350   45.7350 C   0  0  0  0  0  0  0  0  0  0  0  0
   58.4550   32.5270   50.2230 C   0  0  0  0  0  0  0  0  0  0  0  0
   54.1630   31.2580   51.5830 N   0  0  0  0  0  0  0  0  0  0  0  0
   51.2692   30.0689   50.2973 H   0  0  0  0  0  0  0  0  0  0  0  0
   52.5528   30.9143   49.3569 H   0  0  0  0  0  0  0  0  0  0  0  0
   52.1214   28.6444   52.1843 H   0  0  0  0  0  0  0  0  0  0  0  0
   57.3677   29.5977   51.6067 H   0  0  0  0  0  0  0  0  0  0  0  0
   58.8306   28.6783   49.8261 H   0  0  0  0  0  0  0  0  0  0  0  0
   60.9560   30.4600   47.5910 H   0  0  0  0  0  0  0  0  0  0  0  0
   57.5715   33.0186   48.2063 H   0  0  0  0  0  0  0  0  0  0  0  0
   57.0074   34.3076   47.0597 H   0  0  0  0  0  0  0  0  0  0  0  0
   58.1273   31.5816   46.2545 H   0  0  0  0  0  0  0  0  0  0  0  0
   56.3791   32.0543   46.2819 H   0  0  0  0  0  0  0  0  0  0  0  0
   56.9430   31.8790   43.0640 H   0  0  0  0  0  0  0  0  0  0  0  0
   58.7228   32.1325   43.2538 H   0  0  0  0  0  0  0  0  0  0  0  0
   60.0637   30.7338   44.6793 H   0  0  0  0  0  0  0  0  0  0  0  0
   60.3174   28.4857   45.7315 H   0  0  0  0  0  0  0  0  0  0  0  0
   58.3187   27.0348   46.0820 H   0  0  0  0  0  0  0  0  0  0  0  0
   56.0583   27.8299   45.3812 H   0  0  0  0  0  0  0  0  0  0  0  0
   59.0008   34.0202   43.6753 H   0  0  0  0  0  0  0  0  0  0  0  0
   58.0170   35.0144   44.8357 H   0  0  0  0  0  0  0  0  0  0  0  0
   60.1561   32.9732   45.6025 H   0  0  0  0  0  0  0  0  0  0  0  0
   60.3357   34.7767   45.6078 H   0  0  0  0  0  0  0  0  0  0  0  0
   58.3413   33.6154   50.3342 H   0  0  0  0  0  0  0  0  0  0  0  0
  1  2  2  0
  2  3  1  0
  2  4  1  0
  4  5  1  0
  5  6  2  0
  6  7  1  0
  7  8  1  0
  8  9  2  3
  9 10  1  0
 10 11  2  0
 10 12  1  0
 12 13  2  0
 13 14  1  0
 14 15  2  0
 15 16  1  0
 15 17  1  0
 17 18  1  0
 18 19  2  0
 18 20  2  0
 18 21  1  0
 21 22  1  0
 22 23  1  0
 23 24  1  0
 24 25  1  0
 25 26  1  0
 26 27  2  0
 27 28  1  0
 28 29  2  0
 29 30  1  0
 30 31  2  0
 31 32  1  0
 24 33  1  0
 33 34  1  0
 17 35  2  0
  8 36  1  0
 36  5  1  0
 35 12  1  0
 34 21  1  0
 31 26  1  0
  4 37  1  0
  4 38  1  0
  6 39  1  0
 13 40  1  0
 14 41  1  0
 16 42  1  0
 22 43  1  0
 22 44  1  0
 23 45  1  0
 23 46  1  0
 25 47  1  0
 25 48  1  0
 27 49  1  0
 28 50  1  0
 29 51  1  0
 30 52  1  0
 33 53  1  0
 33 54  1  0
 34 55  1  0
 34 56  1  0
 35 57  1  0
M  CHG  2   3  -1  36  -1
M  END
>  <UniqueID>  (25) 
23

>  <SMILES>  (25) 
O=C([O-])Cc1csc(=NC(=O)c2ccc(O)c(S(=O)(=O)N3CCN(Cc4ccccc4F)CC3)c2)[n-]1

>  <Energy>  (25) 
108.9517205503579

>  <Genealogy>  (25) 
O=C([O-])Cc1csc(=NC(=O)c2ccc(O)c(S(=O)(=O)N3CCN(Cc4ccccc4F)CC3)c2)[n-]1 (protonated)
O=C([O-])Cc1csc(=NC(=O)c2ccc(O)c(S(=O)(=O)N3CCN(Cc4ccccc4F)CC3)c2)[n-]1 (3D coordinates assigned)
O=C([O-])Cc1csc(=NC(=O)c2ccc(O)c(S(=O)(=O)N3CCN(Cc4ccccc4F)CC3)c2)[n-]1 (nonaromatic ring conformer: 108.9517205503579 kcal/mol)

>  <smiles>  (25) 
O=C(O)Cc1csc(=NC(=O)c2ccc(O)c(S(=O)(=O)N3CCN(Cc4ccccc4F)CC3)c2)[nH]1

>  <score_type>  (25) 
oracle

>  <origin>  (25) 
adg

>  <m_score__min__energy>  (25) 
-15.140000000000001

>  <m_primary>  (25) 
energy

$$$$
25:0
     RDKit          3D

 52 54  0  0  0  0  0  0  0  0999 V2000
   60.0840   29.3650   45.0620 C   0  0  0  0  0  0  0  0  0  0  0  0
   59.6860   29.1600   46.3310 C   0  0  0  0  0  0  0  0  0  0  0  0
   58.6790   28.2750   46.7460 C   0  0  0  0  0  0  0  0  0  0  0  0
   57.7480   27.5960   46.0460 C   0  0  0  0  0  0  0  0  0  0  0  0
   57.1980   26.2770   46.3940 C   0  0  0  0  0  0  0  0  0  0  0  0
   57.9330   25.2830   46.9220 N   0  0  0  0  0  0  0  0  0  0  0  0
   57.0170   24.3300   47.2000 C   0  0  0  0  0  0  0  0  0  0  0  0
   57.3290   23.2180   47.7010 O   0  0  0  0  0  0  0  0  0  0  0  0
   55.7420   24.6660   46.9100 N   0  0  0  0  0  0  0  0  0  0  0  0
   55.8710   25.9080   46.4160 C   0  0  0  0  0  0  0  0  0  0  0  0
   54.7960   26.6960   46.0230 O   0  0  0  0  0  0  0  0  0  0  0  0
   58.7850   28.1900   48.1190 C   0  0  0  0  0  0  0  0  0  0  0  0
   59.7770   29.0640   48.5120 C   0  0  0  0  0  0  0  0  0  0  0  0
   60.1850   29.2270   49.9300 C   0  0  0  0  0  0  0  0  0  0  0  0
   60.3810   28.1930   50.6290 O   0  0  0  0  0  0  0  0  0  0  0  0
   60.2920   30.5230   50.5330 N   0  0  0  0  0  0  0  0  0  0  0  0
   59.3410   31.2420   51.0620 C   0  0  0  0  0  0  0  0  0  0  0  0
   58.1230   30.6870   51.5160 C   0  0  0  0  0  0  0  0  0  0  0  0
   57.1660   31.5200   52.0980 C   0  0  0  0  0  0  0  0  0  0  0  0
   57.4180   32.8850   52.2340 C   0  0  0  0  0  0  0  0  0  0  0  0
   58.6360   33.4010   51.7900 C   0  0  0  0  0  0  0  0  0  0  0  0
   59.5580   32.5770   51.2270 N   0  0  0  0  0  0  0  0  0  0  0  0
   60.3240   29.6740   47.4230 N   0  0  0  0  0  0  0  0  0  0  0  0
   61.4070   30.6750   47.4250 C   0  0  0  0  0  0  0  0  0  0  0  0
   60.8790   32.0860   47.2870 C   0  0  0  0  0  0  0  0  0  0  0  0
   61.3510   32.7960   46.4070 O   0  0  0  0  0  0  0  0  0  0  0  0
   59.9130   32.6350   48.2270 N   0  0  0  0  0  0  0  0  0  0  0  0
   60.1360   34.0810   48.4680 C   0  0  0  0  0  0  0  0  0  0  0  0
   59.3160   34.9560   47.5110 C   0  0  0  0  0  0  0  0  0  0  0  0
   58.5180   32.3350   47.8140 C   0  0  0  0  0  0  0  0  0  0  0  0
   58.3050   32.1820   46.2980 C   0  0  0  0  0  0  0  0  0  0  0  0
   60.8867   30.0857   44.8470 H   0  0  0  0  0  0  0  0  0  0  0  0
   59.6066   28.8119   44.2397 H   0  0  0  0  0  0  0  0  0  0  0  0
   57.3648   28.0718   45.1313 H   0  0  0  0  0  0  0  0  0  0  0  0
   58.1879   27.5437   48.7791 H   0  0  0  0  0  0  0  0  0  0  0  0
   57.9310   29.6089   51.4117 H   0  0  0  0  0  0  0  0  0  0  0  0
   56.2123   31.0995   52.4497 H   0  0  0  0  0  0  0  0  0  0  0  0
   56.6651   33.5473   52.6862 H   0  0  0  0  0  0  0  0  0  0  0  0
   58.8497   34.4748   51.8958 H   0  0  0  0  0  0  0  0  0  0  0  0
   61.9619   30.5951   48.3714 H   0  0  0  0  0  0  0  0  0  0  0  0
   62.0578   30.4712   46.5619 H   0  0  0  0  0  0  0  0  0  0  0  0
   60.0360   32.1540   49.1480 H   0  0  0  0  0  0  0  0  0  0  0  0
   59.8459   34.3176   49.5023 H   0  0  0  0  0  0  0  0  0  0  0  0
   61.2012   34.2941   48.2950 H   0  0  0  0  0  0  0  0  0  0  0  0
   58.6777   35.6371   48.0929 H   0  0  0  0  0  0  0  0  0  0  0  0
   59.9966   35.5433   46.8770 H   0  0  0  0  0  0  0  0  0  0  0  0
   58.6859   34.3150   46.8770 H   0  0  0  0  0  0  0  0  0  0  0  0
   58.2142   31.3948   48.2974 H   0  0  0  0  0  0  0  0  0  0  0  0
   57.9141   33.2012   48.1224 H   0  0  0  0  0  0  0  0  0  0  0  0
   57.4243   31.5494   46.1135 H   0  0  0  0  0  0  0  0  0  0  0  0
   58.1453   33.1731   45.8483 H   0  0  0  0  0  0  0  0  0  0  0  0
   59.1932   31.7142   45.8483 H   0  0  0  0  0  0  0  0  0  0  0  0
  1  2  2  0
  2  3  1  0
  3  4  2  3
  4  5  1  0
  5  6  1  0
  6  7  1  0
  7  8  2  0
  7  9  1  0
  9 10  1  0
 10 11  1  0
  3 12  1  0
 12 13  2  0
 13 14  1  0
 14 15  2  0
 14 16  1  0
 16 17  2  3
 17 18  1  0
 18 19  2  0
 19 20  1  0
 20 21  2  0
 21 22  1  0
 13 23  1  0
 23 24  1  0
 24 25  1  0
 25 26  2  0
 25 27  1  0
 27 28  1  0
 28 29  1  0
 27 30  1  0
 30 31  1  0
 23  2  1  0
 10  5  2  0
 22 17  1  0
  1 32  1  0
  1 33  1  0
  4 34  1  0
 12 35  1  0
 18 36  1  0
 19 37  1  0
 20 38  1  0
 21 39  1  0
 24 40  1  0
 24 41  1  0
 27 42  1  0
 28 43  1  0
 28 44  1  0
 29 45  1  0
 29 46  1  0
 29 47  1  0
 30 48  1  0
 30 49  1  0
 31 50  1  0
 31 51  1  0
 31 52  1  0
M  CHG  5   6  -1   9  -1  11  -1  22  -1  27   1
M  END
>  <UniqueID>  (26) 
24

>  <SMILES>  (26) 
C=c1c(=Cc2[n-]c(=O)[n-]c2[O-])cc(C(=O)N=c2cccc[n-]2)n1CC(=O)[NH+](CC)CC

>  <Energy>  (26) 
133.14369360794157

>  <Genealogy>  (26) 
C=c1c(=Cc2[n-]c(=O)[n-]c2[O-])cc(C(=O)N=c2cccc[n-]2)n1CC(=O)[NH+](CC)CC (protonated)
C=c1c(=Cc2[n-]c(=O)[n-]c2[O-])cc(C(=O)N=c2cccc[n-]2)n1CC(=O)[NH+](CC)CC (3D coordinates assigned)
C=c1c(=Cc2[n-]c(=O)[n-]c2[O-])cc(C(=O)N=c2cccc[n-]2)n1CC(=O)[NH+](CC)CC (optimized conformer: 133.14369360794157 kcal/mol)

>  <smiles>  (26) 
C=c1c(=Cc2[nH]c(=O)[nH]c2O)cc(C(=O)N=c2cccc[nH]2)n1CC(=O)N(CC)CC

>  <score_type>  (26) 
oracle

>  <origin>  (26) 
adg

>  <m_score__min__energy>  (26) 
-15.279999999999999

>  <m_primary>  (26) 
energy

$$$$
26:0
     RDKit          3D

 50 52  0  0  0  0  0  0  0  0999 V2000
   57.4370   32.2970   42.8380 C   0  0  0  0  0  0  0  0  0  0  0  0
   57.9150   32.4770   44.2080 N   0  0  0  0  0  0  0  0  0  0  0  0
   58.7160   33.6390   44.6040 C   0  0  0  0  0  0  0  0  0  0  0  0
   59.4700   33.2330   45.8870 C   0  0  0  0  0  0  0  0  0  0  0  0
   59.0380   31.8280   46.1090 C   0  0  0  0  0  0  0  0  0  0  0  0
   59.4890   30.9590   47.0990 C   0  0  0  0  0  0  0  0  0  0  0  0
   59.0000   29.6400   47.1210 C   0  0  0  0  0  0  0  0  0  0  0  0
   59.4480   28.6870   48.1960 C   0  0  0  0  0  0  0  0  0  0  0  0
   59.4870   27.2800   47.6620 C   0  0  0  0  0  0  0  0  0  0  0  0
   60.6040   26.7540   47.4150 O   0  0  0  0  0  0  0  0  0  0  0  0
   58.3000   26.5070   47.4430 N   0  0  0  0  0  0  0  0  0  0  0  0
   57.5120   26.5140   46.2170 C   0  0  0  0  0  0  0  0  0  0  0  0
   56.1550   25.9280   46.4800 C   0  0  0  0  0  0  0  0  0  0  0  0
   55.1390   26.4780   45.9770 O   0  0  0  0  0  0  0  0  0  0  0  0
   55.9750   24.7740   47.3130 N   0  0  0  0  0  0  0  0  0  0  0  0
   55.7630   23.4270   46.8720 C   0  0  0  0  0  0  0  0  0  0  0  0
   55.2130   22.4500   47.7190 C   0  0  0  0  0  0  0  0  0  0  0  0
   55.0500   21.1370   47.2680 C   0  0  0  0  0  0  0  0  0  0  0  0
   55.4500   20.7850   45.9760 C   0  0  0  0  0  0  0  0  0  0  0  0
   56.0190   21.7460   45.1300 C   0  0  0  0  0  0  0  0  0  0  0  0
   56.5470   21.3070   43.5080 S   0  0  0  0  0  0  0  0  0  0  0  0
   55.7530   22.3140   42.3490 N   0  0  0  0  0  0  0  0  0  0  0  0
   58.0340   21.4860   43.3870 O   0  0  0  0  0  0  0  0  0  0  0  0
   56.2110   19.8660   43.2390 O   0  0  0  0  0  0  0  0  0  0  0  0
   56.1880   23.0600   45.5880 C   0  0  0  0  0  0  0  0  0  0  0  0
   58.0370   29.2410   46.1700 C   0  0  0  0  0  0  0  0  0  0  0  0
   57.5690   30.1400   45.1900 C   0  0  0  0  0  0  0  0  0  0  0  0
   56.4680   29.7180   44.3120 C   0  0  0  0  0  0  0  0  0  0  0  0
   55.2090   29.3490   44.8680 N   0  0  0  0  0  0  0  0  0  0  0  0
   56.6610   29.6050   43.0710 O   0  0  0  0  0  0  0  0  0  0  0  0
   58.1230   31.4380   45.1650 C   0  0  0  0  0  0  0  0  0  0  0  0
   56.4077   31.9094   42.8567 H   0  0  0  0  0  0  0  0  0  0  0  0
   57.4553   33.2636   42.3133 H   0  0  0  0  0  0  0  0  0  0  0  0
   58.0883   31.5826   42.3133 H   0  0  0  0  0  0  0  0  0  0  0  0
   59.4306   33.8971   43.8086 H   0  0  0  0  0  0  0  0  0  0  0  0
   58.0808   34.5202   44.7773 H   0  0  0  0  0  0  0  0  0  0  0  0
   60.5585   33.2917   45.7394 H   0  0  0  0  0  0  0  0  0  0  0  0
   59.2502   33.8904   46.7411 H   0  0  0  0  0  0  0  0  0  0  0  0
   60.2159   31.2982   47.8517 H   0  0  0  0  0  0  0  0  0  0  0  0
   60.4532   28.9732   48.5391 H   0  0  0  0  0  0  0  0  0  0  0  0
   58.7372   28.7326   49.0343 H   0  0  0  0  0  0  0  0  0  0  0  0
   57.4000   27.5488   45.8610 H   0  0  0  0  0  0  0  0  0  0  0  0
   58.0251   25.9120   45.4526 H   0  0  0  0  0  0  0  0  0  0  0  0
   54.9094   22.7196   48.7413 H   0  0  0  0  0  0  0  0  0  0  0  0
   54.6062   20.3797   47.9310 H   0  0  0  0  0  0  0  0  0  0  0  0
   55.3179   19.7517   45.6227 H   0  0  0  0  0  0  0  0  0  0  0  0
   56.4080   22.4240   41.5420 H   0  0  0  0  0  0  0  0  0  0  0  0
   56.6581   23.8093   44.9341 H   0  0  0  0  0  0  0  0  0  0  0  0
   57.6456   28.2133   46.1936 H   0  0  0  0  0  0  0  0  0  0  0  0
   55.1460   28.6260   45.6190 H   0  0  0  0  0  0  0  0  0  0  0  0
  1  2  1  0
  2  3  1  0
  3  4  1  0
  4  5  1  0
  5  6  2  0
  6  7  1  0
  7  8  1  0
  8  9  1  0
  9 10  2  0
  9 11  1  0
 11 12  1  0
 12 13  1  0
 13 14  2  0
 13 15  1  0
 15 16  1  0
 16 17  2  0
 17 18  1  0
 18 19  2  0
 19 20  1  0
 20 21  1  0
 21 22  1  0
 21 23  2  0
 21 24  2  0
 20 25  2  0
  7 26  2  0
 26 27  1  0
 27 28  1  0
 28 29  1  0
 28 30  2  0
 27 31  2  0
 31  2  1  0
 31  5  1  0
 25 16  1  0
  1 32  1  0
  1 33  1  0
  1 34  1  0
  3 35  1  0
  3 36  1  0
  4 37  1  0
  4 38  1  0
  6 39  1  0
  8 40  1  0
  8 41  1  0
 12 42  1  0
 12 43  1  0
 17 44  1  0
 18 45  1  0
 19 46  1  0
 22 47  1  0
 25 48  1  0
 26 49  1  0
 29 50  1  0
M  CHG  4  11  -1  15  -1  22  -1  29  -1
M  END
>  <UniqueID>  (27) 
25

>  <SMILES>  (27) 
CN1CCc2cc(CC(=O)[N-]CC(=O)[N-]c3cccc(S([NH-])(=O)=O)c3)cc(C([NH-])=O)c21

>  <Energy>  (27) 
72.68332657843717

>  <Genealogy>  (27) 
CN1CCc2cc(CC(=O)[N-]CC(=O)[N-]c3cccc(S([NH-])(=O)=O)c3)cc(C([NH-])=O)c21 (protonated)
CN1CCc2cc(CC(=O)[N-]CC(=O)[N-]c3cccc(S([NH-])(=O)=O)c3)cc(C([NH-])=O)c21 (3D coordinates assigned)
CN1CCc2cc(CC(=O)[N-]CC(=O)[N-]c3cccc(S([NH-])(=O)=O)c3)cc(C([NH-])=O)c21 (nonaromatic ring conformer: 72.68332657843717 kcal/mol)

>  <smiles>  (27) 
CN1CCc2cc(CC(=O)NCC(=O)Nc3cccc(S(N)(=O)=O)c3)cc(C(N)=O)c21

>  <score_type>  (27) 
oracle

>  <origin>  (27) 
adg

>  <m_score__min__energy>  (27) 
-16.41

>  <m_primary>  (27) 
energy

$$$$
27:0
     RDKit          3D

 64 67  0  0  0  0  0  0  0  0999 V2000
   58.3330   34.0990   52.3610 C   0  0  0  0  0  0  0  0  0  0  0  0
   58.2500   32.6860   51.8790 C   0  0  0  0  0  0  0  0  0  0  0  0
   57.7040   31.6890   52.6950 C   0  0  0  0  0  0  0  0  0  0  0  0
   57.6680   30.3740   52.2340 C   0  0  0  0  0  0  0  0  0  0  0  0
   58.1740   30.0620   50.9710 C   0  0  0  0  0  0  0  0  0  0  0  0
   58.7150   31.0880   50.1660 C   0  0  0  0  0  0  0  0  0  0  0  0
   59.2220   30.8750   48.9840 N   0  0  0  0  0  0  0  0  0  0  0  0
   60.1460   29.8580   48.5600 C   0  0  0  0  0  0  0  0  0  0  0  0
   61.3020   30.1570   48.1590 O   0  0  0  0  0  0  0  0  0  0  0  0
   59.7770   28.4100   48.6790 C   0  0  0  0  0  0  0  0  0  0  0  0
   58.6560   28.0880   47.8570 O   0  0  0  0  0  0  0  0  0  0  0  0
   58.7070   28.0580   46.4580 C   0  0  0  0  0  0  0  0  0  0  0  0
   59.2180   27.0680   45.8660 O   0  0  0  0  0  0  0  0  0  0  0  0
   58.1550   29.1870   45.6780 C   0  0  0  0  0  0  0  0  0  0  0  0
   57.5350   28.9540   44.4370 C   0  0  0  0  0  0  0  0  0  0  0  0
   57.0210   30.0180   43.6930 C   0  0  0  0  0  0  0  0  0  0  0  0
   57.1180   31.3250   44.1760 C   0  0  0  0  0  0  0  0  0  0  0  0
   57.7320   31.5750   45.4110 C   0  0  0  0  0  0  0  0  0  0  0  0
   57.8270   33.2160   46.0450 S   0  0  0  0  0  0  0  0  0  0  0  0
   57.3470   33.2380   47.4690 O   0  0  0  0  0  0  0  0  0  0  0  0
   56.9260   34.0960   45.2250 O   0  0  0  0  0  0  0  0  0  0  0  0
   59.4780   33.7890   45.9400 N   0  0  0  0  0  0  0  0  0  0  0  0
   60.4680   32.7560   46.3270 C   0  0  0  0  0  0  0  0  0  0  0  0
   61.2800   33.1240   47.5830 C   0  0  0  0  0  0  0  0  0  0  0  0
   60.3900   33.6930   48.6130 N   0  0  0  0  0  0  0  0  0  0  0  0
   61.0500   33.8250   49.9360 C   0  0  0  0  0  0  0  0  0  0  0  0
   62.4050   33.1470   50.0390 C   0  0  0  0  0  0  0  0  0  0  0  0
   63.5790   33.8340   49.6770 C   0  0  0  0  0  0  0  0  0  0  0  0
   64.8260   33.2140   49.7960 C   0  0  0  0  0  0  0  0  0  0  0  0
   64.9170   31.9110   50.2890 C   0  0  0  0  0  0  0  0  0  0  0  0
   63.7600   31.2260   50.6710 C   0  0  0  0  0  0  0  0  0  0  0  0
   62.5110   31.8440   50.5560 C   0  0  0  0  0  0  0  0  0  0  0  0
   59.7470   34.9540   48.1620 C   0  0  0  0  0  0  0  0  0  0  0  0
   59.6550   35.0840   46.6240 C   0  0  0  0  0  0  0  0  0  0  0  0
   58.2460   30.5070   46.1590 C   0  0  0  0  0  0  0  0  0  0  0  0
   58.7470   32.3580   50.6560 N   0  0  0  0  0  0  0  0  0  0  0  0
   58.3337   34.1118   53.4609 H   0  0  0  0  0  0  0  0  0  0  0  0
   59.2598   34.5597   51.9883 H   0  0  0  0  0  0  0  0  0  0  0  0
   57.4666   34.6650   51.9883 H   0  0  0  0  0  0  0  0  0  0  0  0
   57.3074   31.9403   53.6898 H   0  0  0  0  0  0  0  0  0  0  0  0
   57.2405   29.5816   52.8659 H   0  0  0  0  0  0  0  0  0  0  0  0
   58.1514   29.0247   50.6057 H   0  0  0  0  0  0  0  0  0  0  0  0
   60.6354   27.7956   48.3699 H   0  0  0  0  0  0  0  0  0  0  0  0
   59.5076   28.2068   49.7260 H   0  0  0  0  0  0  0  0  0  0  0  0
   57.4546   27.9274   44.0503 H   0  0  0  0  0  0  0  0  0  0  0  0
   56.5382   29.8263   42.7234 H   0  0  0  0  0  0  0  0  0  0  0  0
   56.7117   32.1598   43.5860 H   0  0  0  0  0  0  0  0  0  0  0  0
   59.9319   31.8155   46.5221 H   0  0  0  0  0  0  0  0  0  0  0  0
   61.1820   32.6641   45.4953 H   0  0  0  0  0  0  0  0  0  0  0  0
   61.7653   32.2203   47.9803 H   0  0  0  0  0  0  0  0  0  0  0  0
   62.0421   33.8701   47.3134 H   0  0  0  0  0  0  0  0  0  0  0  0
   59.6240   32.9930   48.7630 H   0  0  0  0  0  0  0  0  0  0  0  0
   61.1859   34.8962   50.1459 H   0  0  0  0  0  0  0  0  0  0  0  0
   60.3945   33.3218   50.6621 H   0  0  0  0  0  0  0  0  0  0  0  0
   63.5147   34.8647   49.2983 H   0  0  0  0  0  0  0  0  0  0  0  0
   65.7377   33.7539   49.5006 H   0  0  0  0  0  0  0  0  0  0  0  0
   65.8991   31.4235   50.3768 H   0  0  0  0  0  0  0  0  0  0  0  0
   63.8321   30.2004   51.0622 H   0  0  0  0  0  0  0  0  0  0  0  0
   61.6048   31.3067   50.8724 H   0  0  0  0  0  0  0  0  0  0  0  0
   58.7287   34.9930   48.5762 H   0  0  0  0  0  0  0  0  0  0  0  0
   60.3751   35.7832   48.5197 H   0  0  0  0  0  0  0  0  0  0  0  0
   58.7983   35.7288   46.3785 H   0  0  0  0  0  0  0  0  0  0  0  0
   60.6071   35.5102   46.2748 H   0  0  0  0  0  0  0  0  0  0  0  0
   58.7246   30.7018   47.1301 H   0  0  0  0  0  0  0  0  0  0  0  0
  1  2  1  0
  2  3  2  0
  3  4  1  0
  4  5  2  0
  5  6  1  0
  6  7  2  3
  7  8  1  0
  8  9  2  0
  8 10  1  0
 10 11  1  0
 11 12  1  0
 12 13  2  0
 12 14  1  0
 14 15  2  0
 15 16  1  0
 16 17  2  0
 17 18  1  0
 18 19  1  0
 19 20  2  0
 19 21  2  0
 19 22  1  0
 22 23  1  0
 23 24  1  0
 24 25  1  0
 25 26  1  0
 26 27  1  0
 27 28  2  0
 28 29  1  0
 29 30  2  0
 30 31  1  0
 31 32  2  0
 25 33  1  0
 33 34  1  0
 18 35  2  0
  6 36  1  0
 36  2  1  0
 35 14  1  0
 34 22  1  0
 32 27  1  0
  1 37  1  0
  1 38  1  0
  1 39  1  0
  3 40  1  0
  4 41  1  0
  5 42  1  0
 10 43  1  0
 10 44  1  0
 15 45  1  0
 16 46  1  0
 17 47  1  0
 23 48  1  0
 23 49  1  0
 24 50  1  0
 24 51  1  0
 25 52  1  0
 26 53  1  0
 26 54  1  0
 28 55  1  0
 29 56  1  0
 30 57  1  0
 31 58  1  0
 32 59  1  0
 33 60  1  0
 33 61  1  0
 34 62  1  0
 34 63  1  0
 35 64  1  0
M  CHG  2  25   1  36  -1
M  END
>  <UniqueID>  (28) 
26

>  <SMILES>  (28) 
Cc1cccc(=NC(=O)COC(=O)c2cccc(S(=O)(=O)N3CC[NH+](Cc4ccccc4)CC3)c2)[n-]1

>  <Energy>  (28) 
88.49371385647127

>  <Genealogy>  (28) 
Cc1cccc(=NC(=O)COC(=O)c2cccc(S(=O)(=O)N3CC[NH+](Cc4ccccc4)CC3)c2)[n-]1 (protonated)
Cc1cccc(=NC(=O)COC(=O)c2cccc(S(=O)(=O)N3CC[NH+](Cc4ccccc4)CC3)c2)[n-]1 (3D coordinates assigned)
Cc1cccc(=NC(=O)COC(=O)c2cccc(S(=O)(=O)N3CC[NH+](Cc4ccccc4)CC3)c2)[n-]1 (nonaromatic ring conformer: 88.49371385647127 kcal/mol)

>  <smiles>  (28) 
Cc1cccc(=NC(=O)COC(=O)c2cccc(S(=O)(=O)N3CCN(Cc4ccccc4)CC3)c2)[nH]1

>  <score_type>  (28) 
oracle

>  <origin>  (28) 
adg

>  <m_score__min__energy>  (28) 
-10.550000000000001

>  <m_primary>  (28) 
energy

$$$$
28:0
     RDKit          3D

 48 51  0  0  0  0  0  0  0  0999 V2000
   58.6860   30.7330   47.6590 O   0  0  0  0  0  0  0  0  0  0  0  0
   58.5220   31.9520   47.9230 C   0  0  0  0  0  0  0  0  0  0  0  0
   58.1000   32.3360   49.2350 N   0  0  0  0  0  0  0  0  0  0  0  0
   58.4640   31.6000   50.4410 C   0  0  0  0  0  0  0  0  0  0  0  0
   59.9580   31.7530   50.7340 C   0  0  1  0  0  0  0  0  0  0  0  0
   60.7000   30.4030   50.6600 C   0  0  0  0  0  0  0  0  0  0  0  0
   62.1140   30.6120   50.7170 O   0  0  0  0  0  0  0  0  0  0  0  0
   62.7130   31.6840   50.0520 C   0  0  0  0  0  0  0  0  0  0  0  0
   64.0990   31.7280   49.8640 C   0  0  0  0  0  0  0  0  0  0  0  0
   64.6740   32.7960   49.1670 C   0  0  0  0  0  0  0  0  0  0  0  0
   63.8640   33.8210   48.6650 C   0  0  0  0  0  0  0  0  0  0  0  0
   62.4780   33.7840   48.8620 C   0  0  0  0  0  0  0  0  0  0  0  0
   61.9060   32.7220   49.5690 C   0  0  0  0  0  0  0  0  0  0  0  0
   60.5270   32.6780   49.8000 O   0  0  0  0  0  0  0  0  0  0  0  0
   58.7560   32.9540   46.8720 C   0  0  0  0  0  0  0  0  0  0  0  0
   59.7830   33.8970   47.0370 C   0  0  0  0  0  0  0  0  0  0  0  0
   60.0220   34.8500   46.0460 C   0  0  0  0  0  0  0  0  0  0  0  0
   59.2410   34.8700   44.8890 C   0  0  0  0  0  0  0  0  0  0  0  0
   58.2130   33.9420   44.7210 C   0  0  0  0  0  0  0  0  0  0  0  0
   57.9590   32.9730   45.7110 C   0  0  0  0  0  0  0  0  0  0  0  0
   56.9070   32.0060   45.5660 N   0  0  0  0  0  0  0  0  0  0  0  0
   56.9310   30.6420   44.4970 S   0  0  0  0  0  0  0  0  0  0  0  0
   55.5720   30.0040   44.4920 O   0  0  0  0  0  0  0  0  0  0  0  0
   57.2570   31.1130   43.1050 O   0  0  0  0  0  0  0  0  0  0  0  0
   58.1110   29.4580   45.0490 C   0  0  0  0  0  0  0  0  0  0  0  0
   57.6880   28.2670   45.6560 C   0  0  0  0  0  0  0  0  0  0  0  0
   58.6320   27.3320   46.0930 C   0  0  0  0  0  0  0  0  0  0  0  0
   59.9990   27.5820   45.9300 C   0  0  0  0  0  0  0  0  0  0  0  0
   60.4230   28.7690   45.3290 C   0  0  0  0  0  0  0  0  0  0  0  0
   59.4820   29.7060   44.8910 C   0  0  0  0  0  0  0  0  0  0  0  0
   57.8867   31.9914   51.2916 H   0  0  0  0  0  0  0  0  0  0  0  0
   58.2397   30.5341   50.2876 H   0  0  0  0  0  0  0  0  0  0  0  0
   60.0709   32.1324   51.7603 H   0  0  0  0  0  0  0  0  0  0  0  0
   60.3916   29.7721   51.5067 H   0  0  0  0  0  0  0  0  0  0  0  0
   60.4487   29.9072   49.7108 H   0  0  0  0  0  0  0  0  0  0  0  0
   64.7351   30.9244   50.2635 H   0  0  0  0  0  0  0  0  0  0  0  0
   65.7627   32.8302   49.0135 H   0  0  0  0  0  0  0  0  0  0  0  0
   64.3174   34.6582   48.1141 H   0  0  0  0  0  0  0  0  0  0  0  0
   61.8418   34.5873   48.4621 H   0  0  0  0  0  0  0  0  0  0  0  0
   60.3996   33.8846   47.9479 H   0  0  0  0  0  0  0  0  0  0  0  0
   60.8278   35.5873   46.1768 H   0  0  0  0  0  0  0  0  0  0  0  0
   59.4367   35.6194   44.1079 H   0  0  0  0  0  0  0  0  0  0  0  0
   57.5972   33.9672   43.8099 H   0  0  0  0  0  0  0  0  0  0  0  0
   56.6143   28.0680   45.7885 H   0  0  0  0  0  0  0  0  0  0  0  0
   58.2985   26.3968   46.5665 H   0  0  0  0  0  0  0  0  0  0  0  0
   60.7387   26.8445   46.2748 H   0  0  0  0  0  0  0  0  0  0  0  0
   61.4973   28.9670   45.2001 H   0  0  0  0  0  0  0  0  0  0  0  0
   59.8187   30.6416   44.4205 H   0  0  0  0  0  0  0  0  0  0  0  0
  1  2  2  0
  2  3  1  0
  3  4  1  0
  4  5  1  0
  5  6  1  0
  6  7  1  0
  7  8  1  0
  8  9  2  0
  9 10  1  0
 10 11  2  0
 11 12  1  0
 12 13  2  0
 13 14  1  0
  2 15  1  0
 15 16  2  0
 16 17  1  0
 17 18  2  0
 18 19  1  0
 19 20  2  0
 20 21  1  0
 21 22  1  0
 22 23  2  0
 22 24  2  0
 22 25  1  0
 25 26  2  0
 26 27  1  0
 27 28  2  0
 28 29  1  0
 29 30  2  0
 14  5  1  0
 20 15  1  0
 30 25  1  0
 13  8  1  0
  4 31  1  0
  4 32  1  0
  5 33  1  1
  6 34  1  0
  6 35  1  0
  9 36  1  0
 10 37  1  0
 11 38  1  0
 12 39  1  0
 16 40  1  0
 17 41  1  0
 18 42  1  0
 19 43  1  0
 26 44  1  0
 27 45  1  0
 28 46  1  0
 29 47  1  0
 30 48  1  0
M  CHG  2   3  -1  21  -1
M  END
>  <UniqueID>  (29) 
27

>  <SMILES>  (29) 
O=C([N-]C[C@H]1COc2ccccc2O1)c1ccccc1[N-]S(=O)(=O)c1ccccc1

>  <Energy>  (29) 
60.505451345844435

>  <Genealogy>  (29) 
O=C([N-]CC1COc2ccccc2O1)c1ccccc1[N-]S(=O)(=O)c1ccccc1 (protonated)
O=C([N-]C[C@H]1COc2ccccc2O1)c1ccccc1[N-]S(=O)(=O)c1ccccc1 (chirality)
O=C([N-]C[C@H]1COc2ccccc2O1)c1ccccc1[N-]S(=O)(=O)c1ccccc1 (3D coordinates assigned)
O=C([N-]C[C@H]1COc2ccccc2O1)c1ccccc1[N-]S(=O)(=O)c1ccccc1 (nonaromatic ring conformer: 60.505451345844435 kcal/mol)

>  <smiles>  (29) 
O=C(NCC1COc2ccccc2O1)c1ccccc1NS(=O)(=O)c1ccccc1

>  <score_type>  (29) 
oracle

>  <origin>  (29) 
adg

>  <m_score__min__energy>  (29) 
-13.369999999999999

>  <m_primary>  (29) 
energy

$$$$
29:0
     RDKit          3D

 58 61  0  0  0  0  0  0  0  0999 V2000
   59.3100   30.0220   44.9900 C   0  0  0  0  0  0  0  0  0  0  0  0
   59.6470   29.5620   46.2070 C   0  0  0  0  0  0  0  0  0  0  0  0
   59.3400   28.2960   46.7320 C   0  0  0  0  0  0  0  0  0  0  0  0
   58.8610   27.1830   46.1420 C   0  0  0  0  0  0  0  0  0  0  0  0
   57.4920   26.6580   46.2710 C   0  0  0  0  0  0  0  0  0  0  0  0
   57.2130   25.4200   46.7140 N   0  0  0  0  0  0  0  0  0  0  0  0
   55.8760   25.3230   46.5510 C   0  0  0  0  0  0  0  0  0  0  0  0
   55.2270   24.2930   46.8680 O   0  0  0  0  0  0  0  0  0  0  0  0
   55.2910   26.4090   46.0060 N   0  0  0  0  0  0  0  0  0  0  0  0
   56.3300   27.2410   45.8190 C   0  0  0  0  0  0  0  0  0  0  0  0
   56.2250   28.4910   45.2220 O   0  0  0  0  0  0  0  0  0  0  0  0
   59.6140   28.3640   48.0850 C   0  0  0  0  0  0  0  0  0  0  0  0
   60.1420   29.6130   48.3270 C   0  0  0  0  0  0  0  0  0  0  0  0
   60.5040   30.1000   49.6740 C   0  0  0  0  0  0  0  0  0  0  0  0
   61.6960   30.4290   49.9150 O   0  0  0  0  0  0  0  0  0  0  0  0
   59.5170   30.1640   50.7230 N   0  0  0  0  0  0  0  0  0  0  0  0
   59.9230   30.1300   52.1330 C   0  0  0  0  0  0  0  0  0  0  0  0
   59.8400   31.5380   52.7320 C   0  0  0  0  0  0  0  0  0  0  0  0
   58.5210   32.1750   52.3830 C   0  0  0  0  0  0  0  0  0  0  0  0
   57.9210   32.8380   53.2130 O   0  0  0  0  0  0  0  0  0  0  0  0
   58.0010   32.0790   50.9720 C   0  0  0  0  0  0  0  0  0  0  0  0
   58.1570   30.6500   50.4430 C   0  0  0  0  0  0  0  0  0  0  0  0
   60.1920   30.3390   47.1830 N   0  0  0  0  0  0  0  0  0  0  0  0
   60.5410   31.7660   47.0940 C   0  0  0  0  0  0  0  0  0  0  0  0
   59.6840   32.5800   48.0720 C   0  0  0  0  0  0  0  0  0  0  0  0
   58.7920   33.5550   47.4140 N   0  0  0  0  0  0  0  0  0  0  0  0
   59.4190   34.5170   46.4820 C   0  0  0  0  0  0  0  0  0  0  0  0
   59.2220   34.1510   45.0030 C   0  0  0  0  0  0  0  0  0  0  0  0
   57.7620   33.8250   44.6890 C   0  0  0  0  0  0  0  0  0  0  0  0
   56.9820   34.9570   44.8520 F   0  0  0  0  0  0  0  0  0  0  0  0
   57.6610   33.4060   43.3750 F   0  0  0  0  0  0  0  0  0  0  0  0
   57.2650   32.7100   45.6100 C   0  0  0  0  0  0  0  0  0  0  0  0
   57.4270   33.0970   47.0860 C   0  0  0  0  0  0  0  0  0  0  0  0
   59.6060   31.0363   44.6840 H   0  0  0  0  0  0  0  0  0  0  0  0
   58.7381   29.3842   44.2999 H   0  0  0  0  0  0  0  0  0  0  0  0
   59.5564   26.6153   45.5062 H   0  0  0  0  0  0  0  0  0  0  0  0
   56.1850   28.5810   44.2130 H   0  0  0  0  0  0  0  0  0  0  0  0
   59.4428   27.5709   48.8278 H   0  0  0  0  0  0  0  0  0  0  0  0
   59.2543   29.4566   52.6893 H   0  0  0  0  0  0  0  0  0  0  0  0
   60.9586   29.7661   52.2037 H   0  0  0  0  0  0  0  0  0  0  0  0
   59.9341   31.4735   53.8261 H   0  0  0  0  0  0  0  0  0  0  0  0
   60.6549   32.1516   52.3204 H   0  0  0  0  0  0  0  0  0  0  0  0
   56.9367   32.3568   50.9580 H   0  0  0  0  0  0  0  0  0  0  0  0
   58.5778   32.7623   50.3313 H   0  0  0  0  0  0  0  0  0  0  0  0
   57.4253   29.9948   50.9382 H   0  0  0  0  0  0  0  0  0  0  0  0
   57.9836   30.6424   49.3568 H   0  0  0  0  0  0  0  0  0  0  0  0
   61.6038   31.8970   47.3455 H   0  0  0  0  0  0  0  0  0  0  0  0
   60.3526   32.1196   46.0696 H   0  0  0  0  0  0  0  0  0  0  0  0
   59.0650   31.8818   48.6546 H   0  0  0  0  0  0  0  0  0  0  0  0
   60.3774   33.1554   48.7030 H   0  0  0  0  0  0  0  0  0  0  0  0
   58.9786   35.5097   46.6571 H   0  0  0  0  0  0  0  0  0  0  0  0
   60.5011   34.5014   46.6789 H   0  0  0  0  0  0  0  0  0  0  0  0
   59.5390   35.0008   44.3806 H   0  0  0  0  0  0  0  0  0  0  0  0
   59.8259   33.2570   44.7884 H   0  0  0  0  0  0  0  0  0  0  0  0
   56.2013   32.5210   45.4031 H   0  0  0  0  0  0  0  0  0  0  0  0
   57.8634   31.8070   45.4186 H   0  0  0  0  0  0  0  0  0  0  0  0
   56.7201   33.9079   47.3158 H   0  0  0  0  0  0  0  0  0  0  0  0
   57.2277   32.1973   47.6867 H   0  0  0  0  0  0  0  0  0  0  0  0
  1  2  2  0
  2  3  1  0
  3  4  2  3
  4  5  1  0
  5  6  1  0
  6  7  1  0
  7  8  2  0
  7  9  1  0
  9 10  1  0
 10 11  1  0
  3 12  1  0
 12 13  2  0
 13 14  1  0
 14 15  2  0
 14 16  1  0
 16 17  1  0
 17 18  1  0
 18 19  1  0
 19 20  2  0
 19 21  1  0
 21 22  1  0
 13 23  1  0
 23 24  1  0
 24 25  1  0
 25 26  1  0
 26 27  1  0
 27 28  1  0
 28 29  1  0
 29 30  1  0
 29 31  1  0
 29 32  1  0
 32 33  1  0
 23  2  1  0
 33 26  1  0
 10  5  2  0
 22 16  1  0
  1 34  1  0
  1 35  1  0
  4 36  1  0
 11 37  1  0
 12 38  1  0
 17 39  1  0
 17 40  1  0
 18 41  1  0
 18 42  1  0
 21 43  1  0
 21 44  1  0
 22 45  1  0
 22 46  1  0
 24 47  1  0
 24 48  1  0
 25 49  1  0
 25 50  1  0
 27 51  1  0
 27 52  1  0
 28 53  1  0
 28 54  1  0
 32 55  1  0
 32 56  1  0
 33 57  1  0
 33 58  1  0
M  CHG  2   6  -1   9  -1
M  END
>  <UniqueID>  (30) 
28

>  <SMILES>  (30) 
C=c1c(=Cc2[n-]c(=O)[n-]c2O)cc(C(=O)N2CCC(=O)CC2)n1CCN1CCC(F)(F)CC1

>  <Energy>  (30) 
137.67790307560165

>  <Genealogy>  (30) 
C=c1c(=Cc2[n-]c(=O)[n-]c2O)cc(C(=O)N2CCC(=O)CC2)n1CCN1CCC(F)(F)CC1 (protonated)
C=c1c(=Cc2[n-]c(=O)[n-]c2O)cc(C(=O)N2CCC(=O)CC2)n1CCN1CCC(F)(F)CC1 (3D coordinates assigned)
C=c1c(=Cc2[n-]c(=O)[n-]c2O)cc(C(=O)N2CCC(=O)CC2)n1CCN1CCC(F)(F)CC1 (nonaromatic ring conformer: 137.67790307560165 kcal/mol)

>  <smiles>  (30) 
C=c1c(=Cc2[nH]c(=O)[nH]c2O)cc(C(=O)N2CCC(=O)CC2)n1CCN1CCC(F)(F)CC1

>  <score_type>  (30) 
oracle

>  <origin>  (30) 
adg

>  <m_score__min__energy>  (30) 
-12.73

>  <m_primary>  (30) 
energy

$$$$
30:0
     RDKit          3D

 66 70  0  0  1  0  0  0  0  0999 V2000
   60.0250   35.5050   46.1230 O   0  0  0  0  0  0  0  0  0  0  0  0
   59.5360   34.3770   46.4530 C   0  0  0  0  0  0  0  0  0  0  0  0
   58.0950   34.1840   46.1650 C   0  0  0  0  0  0  0  0  0  0  0  0
   57.9240   33.1970   45.0600 C   0  0  0  0  0  0  0  0  0  0  0  0
   58.3220   33.4730   43.7580 C   0  0  0  0  0  0  0  0  0  0  0  0
   58.1500   32.5300   42.7490 C   0  0  0  0  0  0  0  0  0  0  0  0
   57.5750   31.2840   43.0140 C   0  0  0  0  0  0  0  0  0  0  0  0
   57.1880   31.0310   44.3150 C   0  0  0  0  0  0  0  0  0  0  0  0
   56.5910   29.8050   44.7240 N   0  0  0  0  0  0  0  0  0  0  0  0
   57.3050   28.9420   45.3820 C   0  0  0  0  0  0  0  0  0  0  0  0
   57.8790   29.2340   46.5630 N   0  0  0  0  0  0  0  0  0  0  0  0
   58.6100   28.3140   47.2150 C   0  0  0  0  0  0  0  0  0  0  0  0
   59.2280   28.6430   48.4940 C   0  0  0  0  0  0  0  0  0  0  0  0
   60.5090   28.2740   48.8400 C   0  0  0  0  0  0  0  0  0  0  0  0
   61.0840   28.5920   50.0560 C   0  0  0  0  0  0  0  0  0  0  0  0
   60.3720   29.3120   50.9900 C   0  0  0  0  0  0  0  0  0  0  0  0
   59.0720   29.6880   50.6430 C   0  0  0  0  0  0  0  0  0  0  0  0
   58.1590   30.6020   51.8190 S   0  0  0  0  0  0  0  0  0  0  0  0
   56.7630   30.0550   51.9700 O   0  0  0  0  0  0  0  0  0  0  0  0
   58.8310   30.3570   53.1620 O   0  0  0  0  0  0  0  0  0  0  0  0
   58.1410   32.2710   51.5370 N   0  0  0  0  0  0  0  0  0  0  0  0
   58.8100   32.7390   50.3780 C   0  0  0  0  0  0  0  0  0  0  0  0
   60.2280   33.1180   50.7380 C   0  0  0  0  0  0  0  0  0  0  0  0
   60.1230   34.1820   51.6540 O   0  0  0  0  0  0  0  0  0  0  0  0
   59.6120   33.7070   52.8770 C   0  0  0  0  0  0  0  0  0  0  0  0
   58.2810   33.0540   52.7100 C   0  0  0  0  0  0  0  0  0  0  0  0
   58.5130   29.3640   49.4280 C   0  0  0  0  0  0  0  0  0  0  0  0
   58.7370   27.0780   46.6210 C   0  0  0  0  0  0  0  0  0  0  0  0
   58.1470   26.7670   45.4000 C   0  0  0  0  0  0  0  0  0  0  0  0
   57.4260   27.7250   44.7910 N   0  0  0  0  0  0  0  0  0  0  0  0
   57.3650   31.9850   45.3230 C   0  0  0  0  0  0  0  0  0  0  0  0
   60.3120   33.3770   47.0540 N   0  0  0  0  0  0  0  0  0  0  0  0
   59.8320   32.0770   47.4570 C   0  0  0  0  0  0  0  0  0  0  0  0
   60.7030   31.0350   46.7860 C   0  0  0  0  0  0  0  0  0  0  0  0
   62.0470   31.3010   46.9010 O   0  0  0  0  0  0  0  0  0  0  0  0
   62.3130   32.3430   47.7910 C   0  0  0  0  0  0  0  0  0  0  0  0
   61.7330   33.6540   47.3030 C   0  0  0  0  0  0  0  0  0  0  0  0
   57.5897   33.8111   47.0681 H   0  0  0  0  0  0  0  0  0  0  0  0
   57.6551   35.1456   45.8619 H   0  0  0  0  0  0  0  0  0  0  0  0
   58.7774   34.4461   43.5223 H   0  0  0  0  0  0  0  0  0  0  0  0
   58.4723   32.7695   41.7249 H   0  0  0  0  0  0  0  0  0  0  0  0
   57.4366   30.5362   42.2193 H   0  0  0  0  0  0  0  0  0  0  0  0
   61.1027   27.6989   48.1142 H   0  0  0  0  0  0  0  0  0  0  0  0
   62.1119   28.2696   50.2783 H   0  0  0  0  0  0  0  0  0  0  0  0
   60.8071   29.5787   51.9644 H   0  0  0  0  0  0  0  0  0  0  0  0
   58.8239   31.9455   49.6163 H   0  0  0  0  0  0  0  0  0  0  0  0
   58.2837   33.6186   49.9789 H   0  0  0  0  0  0  0  0  0  0  0  0
   60.7463   32.2650   51.2003 H   0  0  0  0  0  0  0  0  0  0  0  0
   60.8068   33.4070   49.8483 H   0  0  0  0  0  0  0  0  0  0  0  0
   60.3172   32.9741   53.2960 H   0  0  0  0  0  0  0  0  0  0  0  0
   59.4864   34.5678   53.5503 H   0  0  0  0  0  0  0  0  0  0  0  0
   58.1098   32.4011   53.5786 H   0  0  0  0  0  0  0  0  0  0  0  0
   57.5472   33.8690   52.6250 H   0  0  0  0  0  0  0  0  0  0  0  0
   57.4855   29.6832   49.1991 H   0  0  0  0  0  0  0  0  0  0  0  0
   59.3291   26.3051   47.1328 H   0  0  0  0  0  0  0  0  0  0  0  0
   58.2662   25.7712   44.9481 H   0  0  0  0  0  0  0  0  0  0  0  0
   56.9840   27.5020   43.8850 H   0  0  0  0  0  0  0  0  0  0  0  0
   57.0456   31.7502   46.3491 H   0  0  0  0  0  0  0  0  0  0  0  0
   59.9006   31.9748   48.5501 H   0  0  0  0  0  0  0  0  0  0  0  0
   58.7802   31.9469   47.1626 H   0  0  0  0  0  0  0  0  0  0  0  0
   60.4987   30.0578   47.2478 H   0  0  0  0  0  0  0  0  0  0  0  0
   60.4574   31.0430   45.7138 H   0  0  0  0  0  0  0  0  0  0  0  0
   61.8715   32.0991   48.7685 H   0  0  0  0  0  0  0  0  0  0  0  0
   63.4041   32.4577   47.8706 H   0  0  0  0  0  0  0  0  0  0  0  0
   61.8453   34.4347   48.0697 H   0  0  0  0  0  0  0  0  0  0  0  0
   62.2450   34.0198   46.4008 H   0  0  0  0  0  0  0  0  0  0  0  0
  1  2  2  0
  2  3  1  0
  3  4  1  0
  4  5  2  0
  5  6  1  0
  6  7  2  0
  7  8  1  0
  8  9  1  0
  9 10  2  0
 10 11  1  0
 11 12  2  0
 12 13  1  0
 13 14  2  0
 14 15  1  0
 15 16  2  0
 16 17  1  0
 17 18  1  0
 18 19  2  0
 18 20  2  0
 18 21  1  0
 21 22  1  0
 22 23  1  0
 23 24  1  0
 24 25  1  0
 25 26  1  0
 17 27  2  0
 12 28  1  0
 28 29  2  0
 29 30  1  0
  8 31  2  0
  2 32  1  0
 32 33  1  0
 33 34  1  0
 34 35  1  0
 35 36  1  0
 36 37  1  0
 31  4  1  0
 37 32  1  0
 30 10  1  0
 27 13  1  0
 26 21  1  0
  3 38  1  0
  3 39  1  0
  5 40  1  0
  6 41  1  0
  7 42  1  0
 14 43  1  0
 15 44  1  0
 16 45  1  0
 22 46  1  0
 22 47  1  0
 23 48  1  0
 23 49  1  0
 25 50  1  0
 25 51  1  0
 26 52  1  0
 26 53  1  0
 27 54  1  0
 28 55  1  0
 29 56  1  0
 30 57  1  0
 31 58  1  0
 33 59  1  0
 33 60  1  0
 34 61  1  0
 34 62  1  0
 36 63  1  0
 36 64  1  0
 37 65  1  0
 37 66  1  0
M  END
>  <smiles>  (31) 
O=C(Cc1cccc(N=c2nc(-c3cccc(S(=O)(=O)N4CCOCC4)c3)cc[nH]2)c1)N1CCOCC1

>  <score_type>  (31) 
oracle

>  <origin>  (31) 
adg

>  <m_score__min__energy>  (31) 
-12.210000000000001

>  <m_primary>  (31) 
energy

$$$$
31:0
     RDKit          3D

 50 52  0  0  0  0  0  0  0  0999 V2000
   56.4660   30.2020   43.7680 C   0  0  0  0  0  0  0  0  0  0  0  0
   57.3550   31.3590   43.3260 C   0  0  0  0  0  0  0  0  0  0  0  0
   58.5120   31.4550   44.1570 O   0  0  0  0  0  0  0  0  0  0  0  0
   58.5210   31.4440   45.5630 C   0  0  0  0  0  0  0  0  0  0  0  0
   58.8540   30.2960   46.3060 C   0  0  0  0  0  0  0  0  0  0  0  0
   58.8510   30.3260   47.7110 C   0  0  0  0  0  0  0  0  0  0  0  0
   59.1750   29.1930   48.4720 C   0  0  0  0  0  0  0  0  0  0  0  0
   59.4810   28.1020   47.9210 O   0  0  0  0  0  0  0  0  0  0  0  0
   59.1580   29.2680   49.8270 N   0  0  0  0  0  0  0  0  0  0  0  0
   58.8470   30.3910   50.4790 N   0  0  0  0  0  0  0  0  0  0  0  0
   58.8340   30.3580   51.9460 C   0  0  0  0  0  0  0  0  0  0  0  0
   57.6410   29.5830   52.4380 C   0  0  0  0  0  0  0  0  0  0  0  0
   57.8320   28.5580   53.1440 O   0  0  0  0  0  0  0  0  0  0  0  0
   56.2940   29.9770   52.1470 N   0  0  0  0  0  0  0  0  0  0  0  0
   55.1000   29.3490   52.6990 C   0  0  0  0  0  0  0  0  0  0  0  0
   53.9060   30.2090   52.4030 C   0  0  0  0  0  0  0  0  0  0  0  0
   53.7750   30.8340   51.1510 C   0  0  0  0  0  0  0  0  0  0  0  0
   52.6800   31.6620   50.8880 C   0  0  0  0  0  0  0  0  0  0  0  0
   51.7140   31.8820   51.8770 C   0  0  0  0  0  0  0  0  0  0  0  0
   50.6260   32.7050   51.6130 O   0  0  0  0  0  0  0  0  0  0  0  0
   51.8460   31.2770   53.1300 C   0  0  0  0  0  0  0  0  0  0  0  0
   52.9410   30.4480   53.3950 C   0  0  0  0  0  0  0  0  0  0  0  0
   58.5140   31.5280   49.7910 C   0  0  0  0  0  0  0  0  0  0  0  0
   58.2050   32.5810   50.4180 O   0  0  0  0  0  0  0  0  0  0  0  0
   58.5130   31.5180   48.3840 C   0  0  0  0  0  0  0  0  0  0  0  0
   58.1840   32.6640   47.6380 C   0  0  0  0  0  0  0  0  0  0  0  0
   58.1930   32.6330   46.2300 C   0  0  0  0  0  0  0  0  0  0  0  0
   57.8720   33.7580   45.4510 O   0  0  0  0  0  0  0  0  0  0  0  0
   58.8020   34.7050   44.9230 C   0  0  0  0  0  0  0  0  0  0  0  0
   59.7720   35.1710   46.0040 C   0  0  0  0  0  0  0  0  0  0  0  0
   56.4354   30.1622   44.8669 H   0  0  0  0  0  0  0  0  0  0  0  0
   55.4484   30.3517   43.3780 H   0  0  0  0  0  0  0  0  0  0  0  0
   56.8728   29.2573   43.3780 H   0  0  0  0  0  0  0  0  0  0  0  0
   57.6710   31.1940   42.2854 H   0  0  0  0  0  0  0  0  0  0  0  0
   56.7829   32.2949   43.4084 H   0  0  0  0  0  0  0  0  0  0  0  0
   59.1192   29.3660   45.7818 H   0  0  0  0  0  0  0  0  0  0  0  0
   59.7545   29.8758   52.3068 H   0  0  0  0  0  0  0  0  0  0  0  0
   58.7752   31.3880   52.3277 H   0  0  0  0  0  0  0  0  0  0  0  0
   54.9614   28.3579   52.2423 H   0  0  0  0  0  0  0  0  0  0  0  0
   55.2124   29.2361   53.7874 H   0  0  0  0  0  0  0  0  0  0  0  0
   54.5373   30.6709   50.3749 H   0  0  0  0  0  0  0  0  0  0  0  0
   52.5773   32.1411   49.9032 H   0  0  0  0  0  0  0  0  0  0  0  0
   51.0885   31.4528   53.9080 H   0  0  0  0  0  0  0  0  0  0  0  0
   53.0468   29.9809   54.3853 H   0  0  0  0  0  0  0  0  0  0  0  0
   57.9167   33.5947   48.1599 H   0  0  0  0  0  0  0  0  0  0  0  0
   59.3702   34.2358   44.1063 H   0  0  0  0  0  0  0  0  0  0  0  0
   58.2445   35.5766   44.5496 H   0  0  0  0  0  0  0  0  0  0  0  0
   59.3427   34.9647   46.9955 H   0  0  0  0  0  0  0  0  0  0  0  0
   60.7254   34.6326   45.8980 H   0  0  0  0  0  0  0  0  0  0  0  0
   59.9475   36.2517   45.8980 H   0  0  0  0  0  0  0  0  0  0  0  0
  1  2  1  0
  2  3  1  0
  3  4  1  0
  4  5  2  0
  5  6  1  0
  6  7  1  0
  7  8  2  0
  7  9  1  0
  9 10  1  0
 10 11  1  0
 11 12  1  0
 12 13  2  0
 12 14  1  0
 14 15  1  0
 15 16  1  0
 16 17  2  0
 17 18  1  0
 18 19  2  0
 19 20  1  0
 19 21  1  0
 21 22  2  0
 10 23  1  0
 23 24  2  0
 23 25  1  0
 25 26  1  0
 26 27  2  0
 27 28  1  0
 28 29  1  0
 29 30  1  0
 27  4  1  0
 25  6  2  0
 22 16  1  0
  1 31  1  0
  1 32  1  0
  1 33  1  0
  2 34  1  0
  2 35  1  0
  5 36  1  0
 11 37  1  0
 11 38  1  0
 15 39  1  0
 15 40  1  0
 17 41  1  0
 18 42  1  0
 21 43  1  0
 22 44  1  0
 26 45  1  0
 29 46  1  0
 29 47  1  0
 30 48  1  0
 30 49  1  0
 30 50  1  0
M  CHG  3   9  -1  14  -1  20  -1
M  END
>  <UniqueID>  (32) 
29

>  <SMILES>  (32) 
CCOc1cc2c(=O)[n-]n(CC(=O)[N-]Cc3ccc([O-])cc3)c(=O)c2cc1OCC

>  <Energy>  (32) 
52.97524596923805

>  <Genealogy>  (32) 
CCOc1cc2c(=O)[n-]n(CC(=O)[N-]Cc3ccc([O-])cc3)c(=O)c2cc1OCC (protonated)
CCOc1cc2c(=O)[n-]n(CC(=O)[N-]Cc3ccc([O-])cc3)c(=O)c2cc1OCC (3D coordinates assigned)
CCOc1cc2c(=O)[n-]n(CC(=O)[N-]Cc3ccc([O-])cc3)c(=O)c2cc1OCC (optimized conformer: 52.97524596923805 kcal/mol)

>  <smiles>  (32) 
CCOc1cc2c(=O)[nH]n(CC(=O)NCc3ccc(O)cc3)c(=O)c2cc1OCC

>  <score_type>  (32) 
oracle

>  <origin>  (32) 
adg

>  <m_score__min__energy>  (32) 
-13.380000000000001

>  <m_primary>  (32) 
energy

$$$$
32:0
     RDKit          3D

 66 70  0  0  0  0  0  0  0  0999 V2000
   54.7650   27.1160   44.9610 H   0  0  0  0  0  0  0  0  0  0  0  0
   55.5160   27.2750   45.6200 O   0  0  0  0  0  0  0  0  0  0  0  0
   56.2890   26.2160   46.0830 C   0  0  0  0  0  0  0  0  0  0  0  0
   55.7900   25.1580   46.7440 N   0  0  0  0  0  0  0  0  0  0  0  0
   56.8950   24.4440   47.0420 C   0  0  0  0  0  0  0  0  0  0  0  0
   56.8500   23.3600   47.6790 O   0  0  0  0  0  0  0  0  0  0  0  0
   58.0550   24.9880   46.6130 N   0  0  0  0  0  0  0  0  0  0  0  0
   57.6590   26.1070   45.9810 C   0  0  0  0  0  0  0  0  0  0  0  0
   58.6010   27.0830   45.4010 C   0  0  0  0  0  0  0  0  0  0  0  0
   59.5614   26.7091   45.0164 H   0  0  0  0  0  0  0  0  0  0  0  0
   58.3550   28.4070   45.3140 C   0  0  0  0  0  0  0  0  0  0  0  0
   58.1170   29.1200   44.1500 C   0  0  0  0  0  0  0  0  0  0  0  0
   58.0616   28.7121   43.1299 H   0  0  0  0  0  0  0  0  0  0  0  0
   57.9630   30.4400   44.5180 C   0  0  0  0  0  0  0  0  0  0  0  0
   57.6550   31.5520   43.5600 C   0  0  0  0  0  0  0  0  0  0  0  0
   57.4029   32.4623   44.1237 H   0  0  0  0  0  0  0  0  0  0  0  0
   58.5337   31.7444   42.9268 H   0  0  0  0  0  0  0  0  0  0  0  0
   56.8026   31.2649   42.9268 H   0  0  0  0  0  0  0  0  0  0  0  0
   58.0960   30.5820   45.8590 N   0  0  0  0  0  0  0  0  0  0  0  0
   57.9500   31.8490   46.5960 C   0  0  0  0  0  0  0  0  0  0  0  0
   57.6768   32.6477   45.8907 H   0  0  0  0  0  0  0  0  0  0  0  0
   57.1651   31.7274   47.3570 H   0  0  0  0  0  0  0  0  0  0  0  0
   59.2400   32.2160   47.2840 C   0  0  0  0  0  0  0  0  0  0  0  0
   60.4200   32.3870   46.5390 C   0  0  0  0  0  0  0  0  0  0  0  0
   60.4046   32.2430   45.4486 H   0  0  0  0  0  0  0  0  0  0  0  0
   61.6120   32.7390   47.1770 C   0  0  0  0  0  0  0  0  0  0  0  0
   62.5290   32.8778   46.5856 H   0  0  0  0  0  0  0  0  0  0  0  0
   61.6450   32.9160   48.5660 C   0  0  0  0  0  0  0  0  0  0  0  0
   62.8750   33.2810   49.2030 N   0  0  0  0  0  0  0  0  0  0  0  0
   63.0160   34.6080   49.8070 C   0  0  0  0  0  0  0  0  0  0  0  0
   63.6238   35.2458   49.1484 H   0  0  0  0  0  0  0  0  0  0  0  0
   62.0190   35.0535   49.9393 H   0  0  0  0  0  0  0  0  0  0  0  0
   63.7020   34.4890   51.1750 C   0  0  0  0  0  0  0  0  0  0  0  0
   64.0533   35.4874   51.4746 H   0  0  0  0  0  0  0  0  0  0  0  0
   62.9569   34.0775   51.8718 H   0  0  0  0  0  0  0  0  0  0  0  0
   64.9170   33.5180   51.1870 C   0  0  0  0  0  0  0  0  0  0  0  0
   65.7722   34.1064   51.5509 H   0  0  0  0  0  0  0  0  0  0  0  0
   64.6700   32.4080   52.0560 O   0  0  0  0  0  0  0  0  0  0  0  0
   65.3480   31.1890   51.9440 C   0  0  0  0  0  0  0  0  0  0  0  0
   66.7490   31.2010   52.0080 C   0  0  0  0  0  0  0  0  0  0  0  0
   67.2793   32.1496   52.1779 H   0  0  0  0  0  0  0  0  0  0  0  0
   67.4750   30.0200   51.8580 C   0  0  0  0  0  0  0  0  0  0  0  0
   68.5738   30.0407   51.9038 H   0  0  0  0  0  0  0  0  0  0  0  0
   66.8090   28.8130   51.6500 C   0  0  0  0  0  0  0  0  0  0  0  0
   67.3837   27.8854   51.5109 H   0  0  0  0  0  0  0  0  0  0  0  0
   65.4130   28.7800   51.6180 C   0  0  0  0  0  0  0  0  0  0  0  0
   64.8950   27.8244   51.4490 H   0  0  0  0  0  0  0  0  0  0  0  0
   64.6610   29.9580   51.8000 C   0  0  0  0  0  0  0  0  0  0  0  0
   63.1490   29.8710   51.7990 C   0  0  0  0  0  0  0  0  0  0  0  0
   62.7610   28.5880   52.1320 F   0  0  0  0  0  0  0  0  0  0  0  0
   62.6300   30.2020   50.5600 F   0  0  0  0  0  0  0  0  0  0  0  0
   62.6130   30.7480   52.7260 F   0  0  0  0  0  0  0  0  0  0  0  0
   65.2640   32.9800   49.7880 C   0  0  0  0  0  0  0  0  0  0  0  0
   65.6484   33.8053   49.1706 H   0  0  0  0  0  0  0  0  0  0  0  0
   66.0236   32.1916   49.8947 H   0  0  0  0  0  0  0  0  0  0  0  0
   64.0280   32.3780   49.1070 C   0  0  0  0  0  0  0  0  0  0  0  0
   64.2552   32.1981   48.0459 H   0  0  0  0  0  0  0  0  0  0  0  0
   63.7751   31.4358   49.6153 H   0  0  0  0  0  0  0  0  0  0  0  0
   60.4680   32.7560   49.3160 C   0  0  0  0  0  0  0  0  0  0  0  0
   60.4550   33.0400   51.0510 Cl  0  0  0  0  0  0  0  0  0  0  0  0
   59.2750   32.4020   48.6750 C   0  0  0  0  0  0  0  0  0  0  0  0
   58.3571   32.2684   49.2663 H   0  0  0  0  0  0  0  0  0  0  0  0
   58.3370   29.3380   46.3590 C   0  0  0  0  0  0  0  0  0  0  0  0
   58.5100   29.0590   47.6620 C   0  0  0  0  0  0  0  0  0  0  0  0
   58.4774   29.8679   48.4067 H   0  0  0  0  0  0  0  0  0  0  0  0
   58.6842   28.0217   47.9840 H   0  0  0  0  0  0  0  0  0  0  0  0
  1  2  1  0
  2  3  1  0
  3  4  1  0
  4  5  1  0
  5  6  2  0
  5  7  1  0
  7  8  1  0
  8  9  1  0
  9 10  1  0
  9 11  2  0
 11 12  1  0
 12 13  1  0
 12 14  2  0
 14 15  1  0
 15 16  1  0
 15 17  1  0
 15 18  1  0
 14 19  1  0
 19 20  1  0
 20 21  1  0
 20 22  1  0
 20 23  1  0
 23 24  2  0
 24 25  1  0
 24 26  1  0
 26 27  1  0
 26 28  2  0
 28 29  1  0
 29 30  1  0
 30 31  1  0
 30 32  1  0
 30 33  1  0
 33 34  1  0
 33 35  1  0
 33 36  1  0
 36 37  1  0
 36 38  1  0
 38 39  1  0
 39 40  2  0
 40 41  1  0
 40 42  1  0
 42 43  1  0
 42 44  2  0
 44 45  1  0
 44 46  1  0
 46 47  1  0
 46 48  2  0
 48 49  1  0
 49 50  1  0
 49 51  1  0
 49 52  1  0
 36 53  1  0
 53 54  1  0
 53 55  1  0
 53 56  1  0
 56 57  1  0
 56 58  1  0
 28 59  1  0
 59 60  1  0
 59 61  2  0
 61 62  1  0
 19 63  1  0
 63 64  2  0
 64 65  1  0
 64 66  1  0
  8  3  2  0
 63 11  1  0
 61 23  1  0
 56 29  1  0
 48 39  1  0
M  CHG  2   4  -1   7  -1
M  END
>  <UniqueID>  (33) 
30

>  <SMILES>  (33) 
C=c1/c(=C/c2[n-]c(=O)[n-]c2O)cc(C)n1Cc1ccc(N2CCC(Oc3ccccc3C(F)(F)F)CC2)c(Cl)c1

>  <Energy>  (33) 
149.87319800912198

>  <Genealogy>  (33) 
C=c1c(=Cc2[n-]c(=O)[n-]c2O)cc(C)n1Cc1ccc(N2CCC(Oc3ccccc3C(F)(F)F)CC2)c(Cl)c1 (protonated)
C=c1/c(=C/c2[n-]c(=O)[n-]c2O)cc(C)n1Cc1ccc(N2CCC(Oc3ccccc3C(F)(F)F)CC2)c(Cl)c1 (cis-trans isomerization)
C=c1/c(=C/c2[n-]c(=O)[n-]c2O)cc(C)n1Cc1ccc(N2CCC(Oc3ccccc3C(F)(F)F)CC2)c(Cl)c1 (3D coordinates assigned)
C=c1/c(=C/c2[n-]c(=O)[n-]c2O)cc(C)n1Cc1ccc(N2CCC(Oc3ccccc3C(F)(F)F)CC2)c(Cl)c1 (nonaromatic ring conformer: 149.87319800912198 kcal/mol)

>  <smiles>  (33) 
C=c1c(=Cc2[nH]c(=O)[nH]c2O)cc(C)n1Cc1ccc(N2CCC(Oc3ccccc3C(F)(F)F)CC2)c(Cl)c1

>  <score_type>  (33) 
oracle

>  <origin>  (33) 
adg

>  <m_score__min__energy>  (33) 
-14.67

>  <m_primary>  (33) 
energy

$$$$
33:0
     RDKit          3D

 50 53  0  0  0  0  0  0  0  0999 V2000
   65.5690   33.0630   48.0820 H   0  0  0  0  0  0  0  0  0  0  0  0
   64.8650   33.4320   48.7120 O   0  0  0  0  0  0  0  0  0  0  0  0
   63.5150   33.1320   48.5480 C   0  0  0  0  0  0  0  0  0  0  0  0
   62.5600   33.8110   49.3080 C   0  0  0  0  0  0  0  0  0  0  0  0
   62.8785   34.5761   50.0313 H   0  0  0  0  0  0  0  0  0  0  0  0
   61.2000   33.5220   49.1530 C   0  0  0  0  0  0  0  0  0  0  0  0
   60.4553   34.0543   49.7630 H   0  0  0  0  0  0  0  0  0  0  0  0
   60.7790   32.5560   48.2230 C   0  0  0  0  0  0  0  0  0  0  0  0
   59.3170   32.2140   48.0670 C   0  0  0  0  0  0  0  0  0  0  0  0
   58.9008   32.7947   47.2306 H   0  0  0  0  0  0  0  0  0  0  0  0
   58.8016   32.4597   49.0072 H   0  0  0  0  0  0  0  0  0  0  0  0
   59.1270   30.7770   47.7950 N   0  0  0  0  0  0  0  0  0  0  0  0
   59.2570   29.7790   48.7050 C   0  0  0  0  0  0  0  0  0  0  0  0
   59.7030   29.9360   50.1080 C   0  0  0  0  0  0  0  0  0  0  0  0
   60.9100   29.7280   50.4050 O   0  0  0  0  0  0  0  0  0  0  0  0
   58.7640   30.2500   51.1530 N   0  0  0  0  0  0  0  0  0  0  0  0
   57.7510   31.2990   50.9660 C   0  0  0  0  0  0  0  0  0  0  0  0
   58.0999   32.2258   51.4449 H   0  0  0  0  0  0  0  0  0  0  0  0
   57.6028   31.4554   49.8873 H   0  0  0  0  0  0  0  0  0  0  0  0
   56.4030   30.8830   51.5930 C   0  0  0  0  0  0  0  0  0  0  0  0
   55.9375   31.7731   52.0414 H   0  0  0  0  0  0  0  0  0  0  0  0
   55.7888   30.4539   50.7877 H   0  0  0  0  0  0  0  0  0  0  0  0
   56.5370   29.8490   52.6370 N   0  0  0  0  0  0  0  0  0  0  0  0
   55.7320   29.9440   53.2980 H   0  0  0  0  0  0  0  0  0  0  0  0
   57.7780   30.0000   53.4010 C   0  0  0  0  0  0  0  0  0  0  0  0
   57.8584   31.0325   53.7717 H   0  0  0  0  0  0  0  0  0  0  0  0
   57.7727   29.3064   54.2548 H   0  0  0  0  0  0  0  0  0  0  0  0
   58.9700   29.6880   52.4930 C   0  0  0  0  0  0  0  0  0  0  0  0
   59.8806   30.1230   52.9307 H   0  0  0  0  0  0  0  0  0  0  0  0
   59.0715   28.5961   52.4062 H   0  0  0  0  0  0  0  0  0  0  0  0
   58.9430   28.5630   48.1350 C   0  0  0  0  0  0  0  0  0  0  0  0
   58.9335   27.5868   48.6420 H   0  0  0  0  0  0  0  0  0  0  0  0
   58.6430   28.8010   46.8090 C   0  0  0  0  0  0  0  0  0  0  0  0
   58.3840   27.8090   45.9350 C   0  0  0  0  0  0  0  0  0  0  0  0
   59.1219   27.6373   45.1375 H   0  0  0  0  0  0  0  0  0  0  0  0
   57.2000   26.9350   45.9540 C   0  0  0  0  0  0  0  0  0  0  0  0
   57.1810   25.6800   46.4420 N   0  0  0  0  0  0  0  0  0  0  0  0
   55.8750   25.3410   46.3780 C   0  0  0  0  0  0  0  0  0  0  0  0
   55.4500   24.2120   46.7380 O   0  0  0  0  0  0  0  0  0  0  0  0
   55.0600   26.3090   45.9080 N   0  0  0  0  0  0  0  0  0  0  0  0
   55.9140   27.3150   45.6600 C   0  0  0  0  0  0  0  0  0  0  0  0
   55.5250   28.5580   45.1770 O   0  0  0  0  0  0  0  0  0  0  0  0
   58.7160   30.1930   46.6330 C   0  0  0  0  0  0  0  0  0  0  0  0
   58.3180   30.8780   45.5480 C   0  0  0  0  0  0  0  0  0  0  0  0
   58.4232   31.9726   45.5195 H   0  0  0  0  0  0  0  0  0  0  0  0
   57.8870   30.3443   44.6881 H   0  0  0  0  0  0  0  0  0  0  0  0
   61.7470   31.8620   47.4760 C   0  0  0  0  0  0  0  0  0  0  0  0
   61.4334   31.0850   46.7633 H   0  0  0  0  0  0  0  0  0  0  0  0
   63.1060   32.1530   47.6330 C   0  0  0  0  0  0  0  0  0  0  0  0
   63.8555   31.6120   47.0367 H   0  0  0  0  0  0  0  0  0  0  0  0
  1  2  1  0
  2  3  1  0
  3  4  2  0
  4  5  1  0
  4  6  1  0
  6  7  1  0
  6  8  2  0
  8  9  1  0
  9 10  1  0
  9 11  1  0
  9 12  1  0
 12 13  1  0
 13 14  1  0
 14 15  2  0
 14 16  1  0
 16 17  1  0
 17 18  1  0
 17 19  1  0
 17 20  1  0
 20 21  1  0
 20 22  1  0
 20 23  1  0
 23 24  1  0
 23 25  1  0
 25 26  1  0
 25 27  1  0
 25 28  1  0
 28 29  1  0
 28 30  1  0
 13 31  2  0
 31 32  1  0
 31 33  1  0
 33 34  2  0
 34 35  1  0
 34 36  1  0
 36 37  1  0
 37 38  1  0
 38 39  2  0
 38 40  1  0
 40 41  1  0
 41 42  1  0
 33 43  1  0
 43 44  2  0
 44 45  1  0
 44 46  1  0
  8 47  1  0
 47 48  1  0
 47 49  2  0
 49 50  1  0
 49  3  1  0
 43 12  1  0
 28 16  1  0
 41 36  2  0
M  CHG  3  37  -1  40  -1  42  -1
M  END
>  <UniqueID>  (34) 
31

>  <SMILES>  (34) 
C=c1/c(=C\c2[n-]c(=O)[n-]c2[O-])cc(C(=O)N2CCNCC2)n1Cc1ccc(O)cc1

>  <Energy>  (34) 
131.2032882291114

>  <Genealogy>  (34) 
C=c1c(=Cc2[n-]c(=O)[n-]c2[O-])cc(C(=O)N2CCNCC2)n1Cc1ccc(O)cc1 (protonated)
C=c1/c(=C\c2[n-]c(=O)[n-]c2[O-])cc(C(=O)N2CCNCC2)n1Cc1ccc(O)cc1 (cis-trans isomerization)
C=c1/c(=C\c2[n-]c(=O)[n-]c2[O-])cc(C(=O)N2CCNCC2)n1Cc1ccc(O)cc1 (3D coordinates assigned)
C=c1/c(=C\c2[n-]c(=O)[n-]c2[O-])cc(C(=O)N2CCNCC2)n1Cc1ccc(O)cc1 (nonaromatic ring conformer: 131.2032882291114 kcal/mol)

>  <smiles>  (34) 
C=c1c(=Cc2[nH]c(=O)[nH]c2O)cc(C(=O)N2CCNCC2)n1Cc1ccc(O)cc1

>  <score_type>  (34) 
oracle

>  <origin>  (34) 
adg

>  <m_score__min__energy>  (34) 
-15.69

>  <m_primary>  (34) 
energy

$$$$
34:0
     RDKit          3D

 58 61  0  0  0  0  0  0  0  0999 V2000
   61.0649   30.3012   45.0934 H   0  0  0  0  0  0  0  0  0  0  0  0
   60.3740   29.4460   45.1300 C   0  0  0  0  0  0  0  0  0  0  0  0
   59.9826   29.0148   44.1968 H   0  0  0  0  0  0  0  0  0  0  0  0
   60.0080   28.9280   46.3150 C   0  0  0  0  0  0  0  0  0  0  0  0
   59.1410   27.8470   46.5020 C   0  0  0  0  0  0  0  0  0  0  0  0
   58.4870   27.1470   45.5540 C   0  0  0  0  0  0  0  0  0  0  0  0
   58.9800   27.0106   44.5802 H   0  0  0  0  0  0  0  0  0  0  0  0
   57.1510   26.5530   45.7430 C   0  0  0  0  0  0  0  0  0  0  0  0
   56.9580   25.3020   46.1940 N   0  0  0  0  0  0  0  0  0  0  0  0
   55.6140   25.2090   46.2950 C   0  0  0  0  0  0  0  0  0  0  0  0
   55.0340   24.1600   46.6800 O   0  0  0  0  0  0  0  0  0  0  0  0
   54.9410   26.3300   45.9610 N   0  0  0  0  0  0  0  0  0  0  0  0
   55.9270   27.1780   45.6260 C   0  0  0  0  0  0  0  0  0  0  0  0
   55.7130   28.5030   45.2700 O   0  0  0  0  0  0  0  0  0  0  0  0
   59.0310   27.6690   47.8710 C   0  0  0  0  0  0  0  0  0  0  0  0
   58.4204   26.9126   48.3858 H   0  0  0  0  0  0  0  0  0  0  0  0
   59.8340   28.6220   48.4670 C   0  0  0  0  0  0  0  0  0  0  0  0
   59.9730   28.7880   49.9320 C   0  0  0  0  0  0  0  0  0  0  0  0
   60.5120   27.8710   50.6080 O   0  0  0  0  0  0  0  0  0  0  0  0
   59.5410   29.9930   50.5960 N   0  0  0  0  0  0  0  0  0  0  0  0
   58.4110   30.7810   50.0760 C   0  0  0  0  0  0  0  0  0  0  0  0
   58.7973   31.6366   49.5027 H   0  0  0  0  0  0  0  0  0  0  0  0
   57.7954   30.1422   49.4256 H   0  0  0  0  0  0  0  0  0  0  0  0
   57.5510   31.2940   51.2340 C   0  0  0  0  0  0  0  0  0  0  0  0
   56.7501   31.9276   50.8252 H   0  0  0  0  0  0  0  0  0  0  0  0
   57.1439   30.4190   51.7619 H   0  0  0  0  0  0  0  0  0  0  0  0
   58.3640   32.1190   52.2510 C   0  0  0  0  0  0  0  0  0  0  0  0
   58.2008   33.1863   52.0406 H   0  0  0  0  0  0  0  0  0  0  0  0
   58.0132   31.8274   53.2520 H   0  0  0  0  0  0  0  0  0  0  0  0
   59.8770   31.8430   52.2100 C   0  0  0  0  0  0  0  0  0  0  0  0
   60.3364   32.4951   51.4525 H   0  0  0  0  0  0  0  0  0  0  0  0
   60.2862   32.0454   53.2108 H   0  0  0  0  0  0  0  0  0  0  0  0
   60.1860   30.3830   51.8590 C   0  0  0  0  0  0  0  0  0  0  0  0
   61.2746   30.2604   51.7591 H   0  0  0  0  0  0  0  0  0  0  0  0
   59.7962   29.7409   52.6626 H   0  0  0  0  0  0  0  0  0  0  0  0
   60.4310   29.3930   47.5240 N   0  0  0  0  0  0  0  0  0  0  0  0
   61.3830   30.4870   47.7840 C   0  0  0  0  0  0  0  0  0  0  0  0
   61.9007   30.2897   48.7343 H   0  0  0  0  0  0  0  0  0  0  0  0
   62.0944   30.5265   46.9459 H   0  0  0  0  0  0  0  0  0  0  0  0
   60.6900   31.8270   47.8740 C   0  0  0  0  0  0  0  0  0  0  0  0
   60.9030   32.6430   48.9940 C   0  0  0  0  0  0  0  0  0  0  0  0
   61.5517   32.2923   49.8102 H   0  0  0  0  0  0  0  0  0  0  0  0
   60.2980   33.8960   49.0800 C   0  0  0  0  0  0  0  0  0  0  0  0
   60.4642   34.5244   49.9674 H   0  0  0  0  0  0  0  0  0  0  0  0
   59.4820   34.3570   48.0450 C   0  0  0  0  0  0  0  0  0  0  0  0
   59.0046   35.3446   48.1268 H   0  0  0  0  0  0  0  0  0  0  0  0
   59.2640   33.5700   46.8970 C   0  0  0  0  0  0  0  0  0  0  0  0
   58.4200   34.0490   45.8150 N   0  0  0  0  0  0  0  0  0  0  0  0
   57.0470   33.5520   45.6620 C   0  0  0  0  0  0  0  0  0  0  0  0
   56.6025   33.3911   46.6552 H   0  0  0  0  0  0  0  0  0  0  0  0
   56.4492   34.2908   45.1081 H   0  0  0  0  0  0  0  0  0  0  0  0
   57.0606   32.6017   45.1081 H   0  0  0  0  0  0  0  0  0  0  0  0
   58.9260   35.0410   44.8590 C   0  0  0  0  0  0  0  0  0  0  0  0
   59.3594   35.8906   45.4071 H   0  0  0  0  0  0  0  0  0  0  0  0
   59.6990   34.5798   44.2267 H   0  0  0  0  0  0  0  0  0  0  0  0
   58.0989   35.3961   44.2267 H   0  0  0  0  0  0  0  0  0  0  0  0
   59.8860   32.3050   46.8230 C   0  0  0  0  0  0  0  0  0  0  0  0
   59.7396   31.6822   45.9282 H   0  0  0  0  0  0  0  0  0  0  0  0
  1  2  1  0
  2  3  1  0
  2  4  2  0
  4  5  1  0
  5  6  2  0
  6  7  1  0
  6  8  1  0
  8  9  1  0
  9 10  1  0
 10 11  2  0
 10 12  1  0
 12 13  1  0
 13 14  1  0
  5 15  1  0
 15 16  1  0
 15 17  2  0
 17 18  1  0
 18 19  2  0
 18 20  1  0
 20 21  1  0
 21 22  1  0
 21 23  1  0
 21 24  1  0
 24 25  1  0
 24 26  1  0
 24 27  1  0
 27 28  1  0
 27 29  1  0
 27 30  1  0
 30 31  1  0
 30 32  1  0
 30 33  1  0
 33 34  1  0
 33 35  1  0
 17 36  1  0
 36 37  1  0
 37 38  1  0
 37 39  1  0
 37 40  1  0
 40 41  2  0
 41 42  1  0
 41 43  1  0
 43 44  1  0
 43 45  2  0
 45 46  1  0
 45 47  1  0
 47 48  1  0
 48 49  1  0
 49 50  1  0
 49 51  1  0
 49 52  1  0
 48 53  1  0
 53 54  1  0
 53 55  1  0
 53 56  1  0
 47 57  2  0
 57 58  1  0
 36  4  1  0
 57 40  1  0
 13  8  2  0
 33 20  1  0
M  CHG  3   9  -1  12  -1  14  -1
M  END
>  <UniqueID>  (35) 
32

>  <SMILES>  (35) 
C=c1/c(=C/c2[n-]c(=O)[n-]c2[O-])cc(C(=O)N2CCCCC2)n1Cc1cccc(N(C)C)c1

>  <Energy>  (35) 
132.49287177583858

>  <Genealogy>  (35) 
C=c1c(=Cc2[n-]c(=O)[n-]c2[O-])cc(C(=O)N2CCCCC2)n1Cc1cccc(N(C)C)c1 (protonated)
C=c1/c(=C/c2[n-]c(=O)[n-]c2[O-])cc(C(=O)N2CCCCC2)n1Cc1cccc(N(C)C)c1 (cis-trans isomerization)
C=c1/c(=C/c2[n-]c(=O)[n-]c2[O-])cc(C(=O)N2CCCCC2)n1Cc1cccc(N(C)C)c1 (3D coordinates assigned)
C=c1/c(=C/c2[n-]c(=O)[n-]c2[O-])cc(C(=O)N2CCCCC2)n1Cc1cccc(N(C)C)c1 (nonaromatic ring conformer: 132.49287177583858 kcal/mol)

>  <smiles>  (35) 
C=c1c(=Cc2[nH]c(=O)[nH]c2O)cc(C(=O)N2CCCCC2)n1Cc1cccc(N(C)C)c1

>  <score_type>  (35) 
oracle

>  <origin>  (35) 
adg

>  <m_score__min__energy>  (35) 
-16.68

>  <m_primary>  (35) 
energy

$$$$
35:0
     RDKit          3D

 54 57  0  0  0  0  0  0  0  0999 V2000
   52.0130   32.7650   49.3400 H   0  0  0  0  0  0  0  0  0  0  0  0
   51.4150   32.7170   50.1580 O   0  0  0  0  0  0  0  0  0  0  0  0
   51.7450   31.9250   51.2550 C   0  0  0  0  0  0  0  0  0  0  0  0
   50.9800   31.9770   52.4270 C   0  0  0  0  0  0  0  0  0  0  0  0
   50.1080   32.6449   52.4852 H   0  0  0  0  0  0  0  0  0  0  0  0
   51.3240   31.1810   53.5220 C   0  0  0  0  0  0  0  0  0  0  0  0
   50.7252   31.2268   54.4436 H   0  0  0  0  0  0  0  0  0  0  0  0
   52.4280   30.3260   53.4490 C   0  0  0  0  0  0  0  0  0  0  0  0
   52.6944   29.7034   54.3159 H   0  0  0  0  0  0  0  0  0  0  0  0
   53.1990   30.2560   52.2780 C   0  0  0  0  0  0  0  0  0  0  0  0
   54.3220   29.3550   52.2300 N   0  0  0  0  0  0  0  0  0  0  0  0
   54.3180   28.5900   51.5170 H   0  0  0  0  0  0  0  0  0  0  0  0
   55.5210   29.4850   53.0600 C   0  0  0  0  0  0  0  0  0  0  0  0
   55.8631   28.4832   53.3589 H   0  0  0  0  0  0  0  0  0  0  0  0
   55.2721   30.0852   53.9476 H   0  0  0  0  0  0  0  0  0  0  0  0
   56.6240   30.1780   52.3020 C   0  0  0  0  0  0  0  0  0  0  0  0
   57.9220   29.6410   52.2970 C   0  0  0  0  0  0  0  0  0  0  0  0
   58.1264   28.6986   52.8263 H   0  0  0  0  0  0  0  0  0  0  0  0
   58.9550   30.2980   51.6230 C   0  0  0  0  0  0  0  0  0  0  0  0
   59.9671   29.8671   51.6179 H   0  0  0  0  0  0  0  0  0  0  0  0
   58.7060   31.5050   50.9530 C   0  0  0  0  0  0  0  0  0  0  0  0
   59.8110   32.2110   50.2710 C   0  0  0  0  0  0  0  0  0  0  0  0
   60.5690   33.1340   51.0100 C   0  0  0  0  0  0  0  0  0  0  0  0
   60.3231   33.3204   52.0658 H   0  0  0  0  0  0  0  0  0  0  0  0
   61.6320   33.8170   50.4160 C   0  0  0  0  0  0  0  0  0  0  0  0
   62.2211   34.5359   51.0043 H   0  0  0  0  0  0  0  0  0  0  0  0
   61.9470   33.5880   49.0770 C   0  0  0  0  0  0  0  0  0  0  0  0
   62.7892   34.1217   48.6123 H   0  0  0  0  0  0  0  0  0  0  0  0
   61.1960   32.6830   48.3250 C   0  0  0  0  0  0  0  0  0  0  0  0
   61.4520   32.5078   47.2697 H   0  0  0  0  0  0  0  0  0  0  0  0
   60.1170   31.9940   48.9020 C   0  0  0  0  0  0  0  0  0  0  0  0
   59.1710   30.8960   47.8840 S   0  0  0  0  0  0  0  0  0  0  0  0
   60.0700   30.2050   46.8960 O   0  0  0  0  0  0  0  0  0  0  0  0
   58.5200   29.8680   48.7670 O   0  0  0  0  0  0  0  0  0  0  0  0
   57.9730   31.7960   47.0030 N   0  0  0  0  0  0  0  0  0  0  0  0
   57.8010   31.7330   45.7160 C   0  0  0  0  0  0  0  0  0  0  0  0
   57.0950   30.7050   45.1650 N   0  0  0  0  0  0  0  0  0  0  0  0
   56.8750   30.6100   43.8280 C   0  0  0  0  0  0  0  0  0  0  0  0
   56.3027   29.7618   43.4243 H   0  0  0  0  0  0  0  0  0  0  0  0
   57.3730   31.5850   42.9680 C   0  0  0  0  0  0  0  0  0  0  0  0
   57.1910   31.5168   41.8853 H   0  0  0  0  0  0  0  0  0  0  0  0
   58.1050   32.6490   43.4940 C   0  0  0  0  0  0  0  0  0  0  0  0
   58.5009   33.4256   42.8230 H   0  0  0  0  0  0  0  0  0  0  0  0
   58.3390   32.7340   44.8740 C   0  0  0  0  0  0  0  0  0  0  0  0
   59.1300   33.9010   45.4020 C   0  0  0  0  0  0  0  0  0  0  0  0
   59.1186   33.8841   46.5018 H   0  0  0  0  0  0  0  0  0  0  0  0
   60.1682   33.8319   45.0450 H   0  0  0  0  0  0  0  0  0  0  0  0
   58.6812   34.8397   45.0450 H   0  0  0  0  0  0  0  0  0  0  0  0
   57.4060   32.0300   50.9370 C   0  0  0  0  0  0  0  0  0  0  0  0
   57.1968   32.9585   50.3856 H   0  0  0  0  0  0  0  0  0  0  0  0
   56.3750   31.3780   51.6190 C   0  0  0  0  0  0  0  0  0  0  0  0
   55.3626   31.8081   51.6203 H   0  0  0  0  0  0  0  0  0  0  0  0
   52.8500   31.0700   51.1800 C   0  0  0  0  0  0  0  0  0  0  0  0
   53.4504   31.0323   50.2591 H   0  0  0  0  0  0  0  0  0  0  0  0
  1  2  1  0
  2  3  1  0
  3  4  2  0
  4  5  1  0
  4  6  1  0
  6  7  1  0
  6  8  2  0
  8  9  1  0
  8 10  1  0
 10 11  1  0
 11 12  1  0
 11 13  1  0
 13 14  1  0
 13 15  1  0
 13 16  1  0
 16 17  2  0
 17 18  1  0
 17 19  1  0
 19 20  1  0
 19 21  2  0
 21 22  1  0
 22 23  2  0
 23 24  1  0
 23 25  1  0
 25 26  1  0
 25 27  2  0
 27 28  1  0
 27 29  1  0
 29 30  1  0
 29 31  2  0
 31 32  1  0
 32 33  2  0
 32 34  2  0
 32 35  1  0
 35 36  2  0
 36 37  1  0
 37 38  1  0
 38 39  1  0
 38 40  2  0
 40 41  1  0
 40 42  1  0
 42 43  1  0
 42 44  2  0
 44 45  1  0
 45 46  1  0
 45 47  1  0
 45 48  1  0
 21 49  1  0
 49 50  1  0
 49 51  2  0
 51 52  1  0
 10 53  2  0
 53 54  1  0
 53  3  1  0
 51 16  1  0
 31 22  1  0
 44 36  1  0
M  CHG  1  37  -1
M  END
>  <UniqueID>  (36) 
33

>  <SMILES>  (36) 
Cc1ccc[n-]/c1=N\S(=O)(=O)c1ccccc1-c1ccc(CNc2cccc(O)c2)cc1

>  <Energy>  (36) 
67.86083838531331

>  <Genealogy>  (36) 
Cc1ccc[n-]c1=NS(=O)(=O)c1ccccc1-c1ccc(CNc2cccc(O)c2)cc1 (protonated)
Cc1ccc[n-]/c1=N\S(=O)(=O)c1ccccc1-c1ccc(CNc2cccc(O)c2)cc1 (cis-trans isomerization)
Cc1ccc[n-]/c1=N\S(=O)(=O)c1ccccc1-c1ccc(CNc2cccc(O)c2)cc1 (3D coordinates assigned)
Cc1ccc[n-]/c1=N\S(=O)(=O)c1ccccc1-c1ccc(CNc2cccc(O)c2)cc1 (optimized conformer: 67.86083838531331 kcal/mol)

>  <smiles>  (36) 
Cc1ccc[nH]c1=NS(=O)(=O)c1ccccc1-c1ccc(CNc2cccc(O)c2)cc1

>  <score_type>  (36) 
oracle

>  <origin>  (36) 
adg

>  <m_score__min__energy>  (36) 
-12.01

>  <m_primary>  (36) 
energy

$$$$
37:0
     RDKit          3D

 37 39  0  0  0  0  0  0  0  0999 V2000
   56.9916   29.8619   43.0584 H   0  0  0  0  0  0  0  0  0  0  0  0
   57.4940   30.4440   43.8450 C   0  0  0  0  0  0  0  0  0  0  0  0
   57.6710   31.8940   43.6080 C   0  0  0  0  0  0  0  0  0  0  0  0
   57.4540   32.3350   42.4480 O   0  0  0  0  0  0  0  0  0  0  0  0
   58.0480   32.8460   44.6820 C   0  0  0  0  0  0  0  0  0  0  0  0
   58.9770   33.8690   44.4210 C   0  0  0  0  0  0  0  0  0  0  0  0
   59.4012   33.9773   43.4119 H   0  0  0  0  0  0  0  0  0  0  0  0
   59.3650   34.7490   45.4350 C   0  0  0  0  0  0  0  0  0  0  0  0
   60.1000   35.5399   45.2247 H   0  0  0  0  0  0  0  0  0  0  0  0
   58.8200   34.6250   46.7160 C   0  0  0  0  0  0  0  0  0  0  0  0
   59.1311   35.3137   47.5153 H   0  0  0  0  0  0  0  0  0  0  0  0
   57.8800   33.6260   46.9810 C   0  0  0  0  0  0  0  0  0  0  0  0
   57.4461   33.5336   47.9876 H   0  0  0  0  0  0  0  0  0  0  0  0
   57.4900   32.7440   45.9700 C   0  0  0  0  0  0  0  0  0  0  0  0
   56.7425   31.9654   46.1820 H   0  0  0  0  0  0  0  0  0  0  0  0
   57.8960   29.7800   44.9410 C   0  0  0  0  0  0  0  0  0  0  0  0
   58.7108   30.2228   45.5327 H   0  0  0  0  0  0  0  0  0  0  0  0
   57.3290   28.5030   45.4120 C   0  0  0  0  0  0  0  0  0  0  0  0
   56.0130   28.2180   45.3340 N   0  0  0  0  0  0  0  0  0  0  0  0
   55.8820   26.9840   45.8640 C   0  0  0  0  0  0  0  0  0  0  0  0
   54.6570   26.3400   45.9810 O   0  0  0  0  0  0  0  0  0  0  0  0
   57.0990   26.4630   46.2650 C   0  0  0  0  0  0  0  0  0  0  0  0
   57.3550   25.1610   46.9040 C   0  0  0  0  0  0  0  0  0  0  0  0
   57.0560   24.9960   48.1180 O   0  0  0  0  0  0  0  0  0  0  0  0
   58.0130   24.1220   46.1610 N   0  0  0  0  0  0  0  0  0  0  0  0
   57.5600   23.4150   45.1620 C   0  0  0  0  0  0  0  0  0  0  0  0
   57.7010   22.0610   45.2190 N   0  0  0  0  0  0  0  0  0  0  0  0
   57.2710   21.2410   44.2240 C   0  0  0  0  0  0  0  0  0  0  0  0
   57.4015   20.1525   44.3146 H   0  0  0  0  0  0  0  0  0  0  0  0
   56.6650   21.7770   43.0890 C   0  0  0  0  0  0  0  0  0  0  0  0
   56.3063   21.1173   42.2852 H   0  0  0  0  0  0  0  0  0  0  0  0
   56.5190   23.1600   42.9850 C   0  0  0  0  0  0  0  0  0  0  0  0
   56.0504   23.5981   42.0914 H   0  0  0  0  0  0  0  0  0  0  0  0
   56.9680   23.9890   44.0160 C   0  0  0  0  0  0  0  0  0  0  0  0
   56.8611   25.0808   43.9355 H   0  0  0  0  0  0  0  0  0  0  0  0
   58.0230   27.4360   45.9540 C   0  0  0  0  0  0  0  0  0  0  0  0
   59.3990   27.3480   46.1290 O   0  0  0  0  0  0  0  0  0  0  0  0
  1  2  1  0
  2  3  1  0
  3  4  2  0
  3  5  1  0
  5  6  2  0
  6  7  1  0
  6  8  1  0
  8  9  1  0
  8 10  2  0
 10 11  1  0
 10 12  1  0
 12 13  1  0
 12 14  2  0
 14 15  1  0
  2 16  2  3
 16 17  1  0
 16 18  1  0
 18 19  1  0
 19 20  1  0
 20 21  1  0
 20 22  2  0
 22 23  1  0
 23 24  2  0
 23 25  1  0
 25 26  2  0
 26 27  1  0
 27 28  1  0
 28 29  1  0
 28 30  2  0
 30 31  1  0
 30 32  1  0
 32 33  1  0
 32 34  2  0
 34 35  1  0
 22 36  1  0
 36 37  1  0
 14  5  1  0
 36 18  2  0
 34 26  1  0
M  CHG  4  19  -1  21  -1  27  -1  37  -1
M  END
>  <UniqueID>  (37) 
34

>  <SMILES>  (37) 
O=C(C=Cc1[n-]c([O-])c(C(=O)/N=c2\cccc[n-]2)c1[O-])c1ccccc1

>  <Energy>  (37) 
85.75249112568743

>  <Genealogy>  (37) 
O=C(C=Cc1[n-]c([O-])c(C(=O)N=c2cccc[n-]2)c1[O-])c1ccccc1 (protonated)
O=C(C=Cc1[n-]c([O-])c(C(=O)/N=c2\cccc[n-]2)c1[O-])c1ccccc1 (cis-trans isomerization)
O=C(C=Cc1[n-]c([O-])c(C(=O)/N=c2\cccc[n-]2)c1[O-])c1ccccc1 (3D coordinates assigned)
O=C(C=Cc1[n-]c([O-])c(C(=O)/N=c2\cccc[n-]2)c1[O-])c1ccccc1 (optimized conformer: 85.75249112568743 kcal/mol)

>  <smiles>  (37) 
O=C(C=Cc1[nH]c(O)c(C(=O)N=c2cccc[nH]2)c1O)c1ccccc1

>  <score_type>  (37) 
oracle

>  <origin>  (37) 
adg

>  <m_score__min__energy>  (37) 
-16.989999999999998

>  <m_primary>  (37) 
energy

$$$$
38:0
     RDKit          3D

 52 55  0  0  0  0  0  0  0  0999 V2000
   56.1580   26.1120   46.5430 C   0  0  0  0  0  0  0  0  0  0  0  0
   56.7740   25.8900   45.3730 C   0  0  0  0  0  0  0  0  0  0  0  0
   56.8220   24.6840   44.6530 C   0  0  0  0  0  0  0  0  0  0  0  0
   56.4270   23.4390   44.9830 C   0  0  0  0  0  0  0  0  0  0  0  0
   56.5520   22.8260   46.3130 C   0  0  0  0  0  0  0  0  0  0  0  0
   55.6750   23.0250   47.3120 N   0  0  0  0  0  0  0  0  0  0  0  0
   56.1220   22.2010   48.2870 C   0  0  0  0  0  0  0  0  0  0  0  0
   55.5630   22.1190   49.4120 O   0  0  0  0  0  0  0  0  0  0  0  0
   57.2090   21.4700   47.9590 N   0  0  0  0  0  0  0  0  0  0  0  0
   57.4620   21.8660   46.7010 C   0  0  0  0  0  0  0  0  0  0  0  0
   58.4930   21.3570   45.9180 O   0  0  0  0  0  0  0  0  0  0  0  0
   57.4130   24.9830   43.4380 C   0  0  0  0  0  0  0  0  0  0  0  0
   57.7540   26.3190   43.4750 C   0  0  0  0  0  0  0  0  0  0  0  0
   58.4240   27.0590   42.3570 C   0  0  0  0  0  0  0  0  0  0  0  0
   57.3790   26.8660   44.6490 N   0  0  0  0  0  0  0  0  0  0  0  0
   57.5150   28.2530   45.0030 C   0  0  0  0  0  0  0  0  0  0  0  0
   58.6790   28.9290   45.2960 C   0  0  0  0  0  0  0  0  0  0  0  0
   58.3490   30.2100   45.5660 N   0  0  0  0  0  0  0  0  0  0  0  0
   59.2990   31.2890   45.8540 C   0  0  2  0  0  0  0  0  0  0  0  0
   60.5960   30.7500   46.4940 C   0  0  0  0  0  0  0  0  0  0  0  0
   60.7230   31.5510   47.7270 C   0  0  0  0  0  0  0  0  0  0  0  0
   61.7100   31.4660   48.5050 O   0  0  0  0  0  0  0  0  0  0  0  0
   59.6320   32.4360   47.9380 N   0  0  0  0  0  0  0  0  0  0  0  0
   59.4220   33.3430   49.0770 C   0  0  2  0  0  0  0  0  0  0  0  0
   60.6380   34.2500   49.3050 C   0  0  0  0  0  0  0  0  0  0  0  0
   59.0100   32.5690   50.3420 C   0  0  0  0  0  0  0  0  0  0  0  0
   59.1900   31.1870   50.1920 O   0  0  0  0  0  0  0  0  0  0  0  0
   58.6880   32.3120   46.8410 C   0  0  0  0  0  0  0  0  0  0  0  0
   57.0360   30.3850   45.4400 N   0  0  0  0  0  0  0  0  0  0  0  0
   56.5120   29.1910   45.1040 C   0  0  0  0  0  0  0  0  0  0  0  0
   55.1600   28.9750   44.8740 O   0  0  0  0  0  0  0  0  0  0  0  0
   56.1969   27.1098   47.0044 H   0  0  0  0  0  0  0  0  0  0  0  0
   55.6137   25.2963   47.0415 H   0  0  0  0  0  0  0  0  0  0  0  0
   55.9719   22.8289   44.1889 H   0  0  0  0  0  0  0  0  0  0  0  0
   58.4860   20.3880   45.6250 H   0  0  0  0  0  0  0  0  0  0  0  0
   57.5792   24.2877   42.6020 H   0  0  0  0  0  0  0  0  0  0  0  0
   59.1071   27.8135   42.7742 H   0  0  0  0  0  0  0  0  0  0  0  0
   58.9941   26.3505   41.7381 H   0  0  0  0  0  0  0  0  0  0  0  0
   57.6625   27.5561   41.7381 H   0  0  0  0  0  0  0  0  0  0  0  0
   59.6929   28.5026   45.3078 H   0  0  0  0  0  0  0  0  0  0  0  0
   59.5271   31.7665   44.8897 H   0  0  0  0  0  0  0  0  0  0  0  0
   60.5049   29.6789   46.7273 H   0  0  0  0  0  0  0  0  0  0  0  0
   61.4708   30.8355   45.8326 H   0  0  0  0  0  0  0  0  0  0  0  0
   58.5813   34.0080   48.8299 H   0  0  0  0  0  0  0  0  0  0  0  0
   60.8051   34.3746   50.3851 H   0  0  0  0  0  0  0  0  0  0  0  0
   61.5274   33.7929   48.8467 H   0  0  0  0  0  0  0  0  0  0  0  0
   60.4534   35.2328   48.8467 H   0  0  0  0  0  0  0  0  0  0  0  0
   59.6219   32.9175   51.1870 H   0  0  0  0  0  0  0  0  0  0  0  0
   57.9410   32.7556   50.5223 H   0  0  0  0  0  0  0  0  0  0  0  0
   60.1330   31.0470   49.9160 H   0  0  0  0  0  0  0  0  0  0  0  0
   57.7181   31.9499   47.2126 H   0  0  0  0  0  0  0  0  0  0  0  0
   58.5132   33.2822   46.3531 H   0  0  0  0  0  0  0  0  0  0  0  0
  1  2  2  0
  2  3  1  0
  3  4  2  3
  4  5  1  0
  5  6  1  0
  6  7  1  0
  7  8  2  0
  7  9  1  0
  9 10  1  0
 10 11  1  0
  3 12  1  0
 12 13  2  0
 13 14  1  0
 13 15  1  0
 15 16  1  0
 16 17  2  0
 17 18  1  0
 18 19  1  0
 19 20  1  0
 20 21  1  0
 21 22  2  0
 21 23  1  0
 23 24  1  0
 24 25  1  0
 24 26  1  0
 26 27  1  0
 23 28  1  0
 18 29  1  0
 29 30  2  0
 30 31  1  0
 15  2  1  0
 30 16  1  0
 10  5  2  0
 28 19  1  0
  1 32  1  0
  1 33  1  0
  4 34  1  0
 11 35  1  0
 12 36  1  0
 14 37  1  0
 14 38  1  0
 14 39  1  0
 17 40  1  0
 19 41  1  6
 20 42  1  0
 20 43  1  0
 24 44  1  6
 25 45  1  0
 25 46  1  0
 25 47  1  0
 26 48  1  0
 26 49  1  0
 27 50  1  0
 28 51  1  0
 28 52  1  0
M  CHG  3   6  -1   9  -1  31  -1
M  END
>  <UniqueID>  (38) 
35

>  <SMILES>  (38) 
C=c1c(=Cc2[n-]c(=O)[n-]c2O)cc(C)n1-c1cn([C@@H]2CC(=O)N([C@H](C)CO)C2)nc1[O-]

>  <Energy>  (38) 
166.32686042683568

>  <Genealogy>  (38) 
C=c1c(=Cc2[n-]c(=O)[n-]c2O)cc(C)n1-c1cn(C2CC(=O)N(C(C)CO)C2)nc1[O-] (protonated)
C=c1c(=Cc2[n-]c(=O)[n-]c2O)cc(C)n1-c1cn([C@@H]2CC(=O)N([C@H](C)CO)C2)nc1[O-] (chirality)
C=c1c(=Cc2[n-]c(=O)[n-]c2O)cc(C)n1-c1cn([C@@H]2CC(=O)N([C@H](C)CO)C2)nc1[O-] (3D coordinates assigned)
C=c1c(=Cc2[n-]c(=O)[n-]c2O)cc(C)n1-c1cn([C@@H]2CC(=O)N([C@H](C)CO)C2)nc1[O-] (nonaromatic ring conformer: 166.32686042683568 kcal/mol)

>  <smiles>  (38) 
C=c1c(=Cc2[nH]c(=O)[nH]c2O)cc(C)n1-c1cn(C2CC(=O)N(C(C)CO)C2)nc1O

>  <score_type>  (38) 
oracle

>  <origin>  (38) 
adg

>  <m_score__min__energy>  (38) 
-14.119999999999999

>  <m_primary>  (38) 
energy

$$$$
39:0
     RDKit          3D

 37 39  0  0  0  0  0  0  0  0999 V2000
   57.0280   34.2060   44.8820 O   0  0  0  0  0  0  0  0  0  0  0  0
   57.8720   33.3920   45.3490 C   0  0  0  0  0  0  0  0  0  0  0  0
   58.9620   33.8710   46.0760 C   0  0  0  0  0  0  0  0  0  0  0  0
   59.9010   32.9590   46.5950 C   0  0  0  0  0  0  0  0  0  0  0  0
   61.0510   33.4040   47.3490 N   0  0  0  0  0  0  0  0  0  0  0  0
   62.3890   33.4650   46.7410 C   0  0  0  0  0  0  0  0  0  0  0  0
   63.4730   33.3430   47.8160 C   0  0  0  0  0  0  0  0  0  0  0  0
   63.2440   34.2560   48.8700 O   0  0  0  0  0  0  0  0  0  0  0  0
   62.0500   33.9100   49.5430 C   0  0  0  0  0  0  0  0  0  0  0  0
   60.8380   34.0970   48.6260 C   0  0  0  0  0  0  0  0  0  0  0  0
   59.7230   31.6540   46.3960 O   0  0  0  0  0  0  0  0  0  0  0  0
   58.6980   31.1540   45.7130 C   0  0  0  0  0  0  0  0  0  0  0  0
   58.5850   29.7690   45.5490 C   0  0  0  0  0  0  0  0  0  0  0  0
   57.5120   29.2180   44.8400 C   0  0  0  0  0  0  0  0  0  0  0  0
   57.4540   27.8210   44.7200 O   0  0  0  0  0  0  0  0  0  0  0  0
   57.0210   26.7250   45.9630 S   0  0  0  0  0  0  0  0  0  0  0  0
   57.5100   27.2230   47.2950 O   0  0  0  0  0  0  0  0  0  0  0  0
   55.5220   26.6250   46.0090 O   0  0  0  0  0  0  0  0  0  0  0  0
   57.6800   25.1010   45.6280 C   0  0  0  0  0  0  0  0  0  0  0  0
   57.4380   24.7700   44.3080 F   0  0  0  0  0  0  0  0  0  0  0  0
   59.0420   25.1060   45.8550 F   0  0  0  0  0  0  0  0  0  0  0  0
   57.0840   24.1620   46.4470 F   0  0  0  0  0  0  0  0  0  0  0  0
   56.5510   30.0760   44.2720 C   0  0  0  0  0  0  0  0  0  0  0  0
   56.6550   31.4610   44.4310 C   0  0  0  0  0  0  0  0  0  0  0  0
   57.7270   32.0100   45.1540 C   0  0  0  0  0  0  0  0  0  0  0  0
   59.0868   34.9512   46.2423 H   0  0  0  0  0  0  0  0  0  0  0  0
   62.4978   32.6397   46.0220 H   0  0  0  0  0  0  0  0  0  0  0  0
   62.5032   34.4318   46.2289 H   0  0  0  0  0  0  0  0  0  0  0  0
   63.4670   32.3194   48.2187 H   0  0  0  0  0  0  0  0  0  0  0  0
   64.4475   33.5710   47.3595 H   0  0  0  0  0  0  0  0  0  0  0  0
   62.1052   32.8576   49.8583 H   0  0  0  0  0  0  0  0  0  0  0  0
   61.9351   34.5654   50.4189 H   0  0  0  0  0  0  0  0  0  0  0  0
   59.9445   33.6847   49.1176 H   0  0  0  0  0  0  0  0  0  0  0  0
   60.7003   35.1708   48.4308 H   0  0  0  0  0  0  0  0  0  0  0  0
   59.3483   29.1060   45.9823 H   0  0  0  0  0  0  0  0  0  0  0  0
   55.7124   29.6535   43.6990 H   0  0  0  0  0  0  0  0  0  0  0  0
   55.8955   32.1226   43.9889 H   0  0  0  0  0  0  0  0  0  0  0  0
  1  2  2  0
  2  3  1  0
  3  4  2  0
  4  5  1  0
  5  6  1  0
  6  7  1  0
  7  8  1  0
  8  9  1  0
  9 10  1  0
  4 11  1  0
 11 12  1  0
 12 13  2  0
 13 14  1  0
 14 15  1  0
 15 16  1  0
 16 17  2  0
 16 18  2  0
 16 19  1  0
 19 20  1  0
 19 21  1  0
 19 22  1  0
 14 23  2  0
 23 24  1  0
 24 25  2  0
 25  2  1  0
 10  5  1  0
 25 12  1  0
  3 26  1  0
  6 27  1  0
  6 28  1  0
  7 29  1  0
  7 30  1  0
  9 31  1  0
  9 32  1  0
 10 33  1  0
 10 34  1  0
 13 35  1  0
 23 36  1  0
 24 37  1  0
M  END
>  <UniqueID>  (39) 
36

>  <SMILES>  (39) 
O=c1cc(N2CCOCC2)oc2cc(OS(=O)(=O)C(F)(F)F)ccc12

>  <Energy>  (39) 
43.93775600099832

>  <Genealogy>  (39) 
O=c1cc(N2CCOCC2)oc2cc(OS(=O)(=O)C(F)(F)F)ccc12 (3D coordinates assigned)
O=c1cc(N2CCOCC2)oc2cc(OS(=O)(=O)C(F)(F)F)ccc12 (nonaromatic ring conformer: 43.93775600099832 kcal/mol)

>  <smiles>  (39) 
O=c1cc(N2CCOCC2)oc2cc(OS(=O)(=O)C(F)(F)F)ccc12

>  <score_type>  (39) 
oracle

>  <origin>  (39) 
adg

>  <m_score__min__energy>  (39) 
-6.8099999999999996

>  <m_primary>  (39) 
energy

$$$$
40:0
     RDKit          3D

 41 43  0  0  0  0  0  0  0  0999 V2000
   59.3330   33.2410   47.1610 H   0  0  0  0  0  0  0  0  0  0  0  0
   58.5990   32.5510   47.2590 O   0  0  0  0  0  0  0  0  0  0  0  0
   58.0840   31.8990   46.1440 C   0  0  0  0  0  0  0  0  0  0  0  0
   57.4930   30.6770   46.2340 N   0  0  0  0  0  0  0  0  0  0  0  0
   57.0470   30.2510   45.0330 C   0  0  0  0  0  0  0  0  0  0  0  0
   56.4820   29.0880   44.8810 N   0  0  0  0  0  0  0  0  0  0  0  0
   57.0450   27.8140   45.2320 C   0  0  0  0  0  0  0  0  0  0  0  0
   58.3920   27.5660   44.9410 C   0  0  0  0  0  0  0  0  0  0  0  0
   58.9895   28.3315   44.4243 H   0  0  0  0  0  0  0  0  0  0  0  0
   58.9820   26.3520   45.3030 C   0  0  0  0  0  0  0  0  0  0  0  0
   60.0319   26.1539   45.0412 H   0  0  0  0  0  0  0  0  0  0  0  0
   58.2400   25.3830   46.0000 C   0  0  0  0  0  0  0  0  0  0  0  0
   58.8060   24.1160   46.3610 N   0  0  0  0  0  0  0  0  0  0  0  0
   59.1460   23.0440   45.4720 C   0  0  0  0  0  0  0  0  0  0  0  0
   60.2990   22.5440   45.5340 O   0  0  0  0  0  0  0  0  0  0  0  0
   58.1880   22.5300   44.4410 C   0  0  0  0  0  0  0  0  0  0  0  0
   57.3247   22.0668   44.9412 H   0  0  0  0  0  0  0  0  0  0  0  0
   57.8433   23.3643   43.8124 H   0  0  0  0  0  0  0  0  0  0  0  0
   58.6926   21.7815   43.8124 H   0  0  0  0  0  0  0  0  0  0  0  0
   56.8950   25.6330   46.2950 C   0  0  0  0  0  0  0  0  0  0  0  0
   56.2988   24.8689   46.8153 H   0  0  0  0  0  0  0  0  0  0  0  0
   56.3040   26.8470   45.9330 C   0  0  0  0  0  0  0  0  0  0  0  0
   55.2551   27.0463   46.1977 H   0  0  0  0  0  0  0  0  0  0  0  0
   57.3840   31.3640   43.8070 S   0  0  0  0  0  0  0  0  0  0  0  0
   58.1300   32.4420   44.8620 C   0  0  0  0  0  0  0  0  0  0  0  0
   58.6660   33.7920   44.4850 C   0  0  0  0  0  0  0  0  0  0  0  0
   59.2125   33.7047   43.5344 H   0  0  0  0  0  0  0  0  0  0  0  0
   57.8148   34.4825   44.3915 H   0  0  0  0  0  0  0  0  0  0  0  0
   59.6000   34.3410   45.5360 C   0  0  0  0  0  0  0  0  0  0  0  0
   59.2180   35.2940   46.2680 O   0  0  0  0  0  0  0  0  0  0  0  0
   60.9250   33.8180   45.7380 N   0  0  0  0  0  0  0  0  0  0  0  0
   61.6200   33.7930   46.8400 C   0  0  0  0  0  0  0  0  0  0  0  0
   61.0600   34.1010   48.0440 N   0  0  0  0  0  0  0  0  0  0  0  0
   61.7800   34.0960   49.1970 C   0  0  0  0  0  0  0  0  0  0  0  0
   61.2921   34.3449   50.1509 H   0  0  0  0  0  0  0  0  0  0  0  0
   63.1390   33.7750   49.1710 C   0  0  0  0  0  0  0  0  0  0  0  0
   63.7274   33.7674   50.1004 H   0  0  0  0  0  0  0  0  0  0  0  0
   63.7410   33.4640   47.9510 C   0  0  0  0  0  0  0  0  0  0  0  0
   64.8106   33.2099   47.9133 H   0  0  0  0  0  0  0  0  0  0  0  0
   62.9830   33.4760   46.7780 C   0  0  0  0  0  0  0  0  0  0  0  0
   63.4530   33.2382   45.8123 H   0  0  0  0  0  0  0  0  0  0  0  0
  1  2  1  0
  2  3  1  0
  3  4  1  0
  4  5  1  0
  5  6  2  0
  6  7  1  0
  7  8  2  0
  8  9  1  0
  8 10  1  0
 10 11  1  0
 10 12  2  0
 12 13  1  0
 13 14  1  0
 14 15  2  0
 14 16  1  0
 16 17  1  0
 16 18  1  0
 16 19  1  0
 12 20  1  0
 20 21  1  0
 20 22  2  0
 22 23  1  0
  5 24  1  0
 24 25  1  0
 25 26  1  0
 26 27  1  0
 26 28  1  0
 26 29  1  0
 29 30  2  0
 29 31  1  0
 31 32  2  3
 32 33  1  0
 33 34  1  0
 34 35  1  0
 34 36  2  0
 36 37  1  0
 36 38  1  0
 38 39  1  0
 38 40  2  0
 40 41  1  0
 25  3  2  0
 40 32  1  0
 22  7  1  0
M  CHG  3   4  -1  13  -1  33  -1
M  END
>  <UniqueID>  (40) 
37

>  <SMILES>  (40) 
CC(=O)[N-]c1ccc(/N=c2/[n-]c(O)c(CC(=O)N=c3cccc[n-]3)s2)cc1

>  <Energy>  (40) 
88.56447574393921

>  <Genealogy>  (40) 
CC(=O)[N-]c1ccc(N=c2[n-]c(O)c(CC(=O)N=c3cccc[n-]3)s2)cc1 (protonated)
CC(=O)[N-]c1ccc(/N=c2/[n-]c(O)c(CC(=O)N=c3cccc[n-]3)s2)cc1 (cis-trans isomerization)
CC(=O)[N-]c1ccc(/N=c2/[n-]c(O)c(CC(=O)N=c3cccc[n-]3)s2)cc1 (3D coordinates assigned)
CC(=O)[N-]c1ccc(/N=c2/[n-]c(O)c(CC(=O)N=c3cccc[n-]3)s2)cc1 (optimized conformer: 88.56447574393921 kcal/mol)

>  <smiles>  (40) 
CC(=O)Nc1ccc(N=c2[nH]c(O)c(CC(=O)N=c3cccc[nH]3)s2)cc1

>  <score_type>  (40) 
oracle

>  <origin>  (40) 
adg

>  <m_score__min__energy>  (40) 
-12.710000000000001

>  <m_primary>  (40) 
energy

$$$$
41:0
     RDKit          3D

 79 82  0  0  0  0  0  0  0  0999 V2000
   59.6840   34.9230   45.9220 C   0  0  0  0  0  0  0  0  0  0  0  0
   59.5010   33.4720   46.4050 C   0  0  0  0  0  0  0  0  0  0  0  0
   60.8650   32.8270   46.7130 C   0  0  0  0  0  0  0  0  0  0  0  0
   58.6540   33.4740   47.6850 C   0  0  0  0  0  0  0  0  0  0  0  0
   58.7840   32.7060   45.4290 O   0  0  0  0  0  0  0  0  0  0  0  0
   57.3990   32.7220   45.2060 C   0  0  0  0  0  0  0  0  0  0  0  0
   56.7130   33.7470   45.4610 O   0  0  0  0  0  0  0  0  0  0  0  0
   56.7350   31.5490   44.7240 N   0  0  0  0  0  0  0  0  0  0  0  0
   57.2310   30.2070   44.8320 C   0  0  0  0  0  0  0  0  0  0  0  0
   57.2080   29.3190   43.7420 C   0  0  0  0  0  0  0  0  0  0  0  0
   57.6990   28.0200   43.8860 C   0  0  0  0  0  0  0  0  0  0  0  0
   58.2100   27.5920   45.1150 C   0  0  0  0  0  0  0  0  0  0  0  0
   58.2200   28.4610   46.2180 C   0  0  0  0  0  0  0  0  0  0  0  0
   58.7310   27.9860   47.5530 C   0  0  0  0  0  0  0  0  0  0  0  0
   60.2190   27.8150   47.5140 C   0  0  0  0  0  0  0  0  0  0  0  0
   60.7600   27.2800   46.5090 O   0  0  0  0  0  0  0  0  0  0  0  0
   61.0020   28.2580   48.6330 N   0  0  0  0  0  0  0  0  0  0  0  0
   60.7740   29.3080   49.3630 C   0  0  0  0  0  0  0  0  0  0  0  0
   61.4830   29.6470   50.4620 N   0  0  0  0  0  0  0  0  0  0  0  0
   61.0590   30.7790   51.0240 N   0  0  0  0  0  0  0  0  0  0  0  0
   60.0140   31.3390   50.3720 C   0  0  0  0  0  0  0  0  0  0  0  0
   59.3970   32.6440   50.7650 C   0  0  0  0  0  0  0  0  0  0  0  0
   57.8740   32.5180   50.9060 C   0  0  0  0  0  0  0  0  0  0  0  0
   57.4550   32.5850   52.3810 C   0  0  0  0  0  0  0  0  0  0  0  0
   58.0810   31.4620   53.2230 C   0  0  0  0  0  0  0  0  0  0  0  0
   57.1260   30.3300   53.4850 C   0  0  0  0  0  0  0  0  0  0  0  0
   56.3160   30.3110   54.6260 C   0  0  0  0  0  0  0  0  0  0  0  0
   55.4280   29.2530   54.8130 C   0  0  0  0  0  0  0  0  0  0  0  0
   55.3890   28.2170   53.8780 C   0  0  0  0  0  0  0  0  0  0  0  0
   54.5670   27.2220   54.0540 N   0  0  0  0  0  0  0  0  0  0  0  0
   53.3350   27.2630   54.7840 C   0  0  0  0  0  0  0  0  0  0  0  0
   53.2850   26.8650   55.9800 O   0  0  0  0  0  0  0  0  0  0  0  0
   52.1350   27.9000   54.1410 C   0  0  0  0  0  0  0  0  0  0  0  0
   51.9550   29.3850   54.4980 C   0  0  0  0  0  0  0  0  0  0  0  0
   51.7550   30.2500   53.2770 C   0  0  0  0  0  0  0  0  0  0  0  0
   52.2640   29.8460   52.0310 C   0  0  0  0  0  0  0  0  0  0  0  0
   52.0710   30.6470   50.9000 C   0  0  0  0  0  0  0  0  0  0  0  0
   51.3720   31.8550   51.0020 C   0  0  0  0  0  0  0  0  0  0  0  0
   51.1940   32.6490   49.8730 O   0  0  0  0  0  0  0  0  0  0  0  0
   50.8600   32.2660   52.2390 C   0  0  0  0  0  0  0  0  0  0  0  0
   50.1650   33.4720   52.3340 O   0  0  0  0  0  0  0  0  0  0  0  0
   51.0510   31.4630   53.3730 C   0  0  0  0  0  0  0  0  0  0  0  0
   56.2040   28.2790   52.7890 N   0  0  0  0  0  0  0  0  0  0  0  0
   57.0390   29.3020   52.5970 N   0  0  0  0  0  0  0  0  0  0  0  0
   59.5630   30.4230   49.0270 S   0  0  0  0  0  0  0  0  0  0  0  0
   57.7090   29.7610   46.0730 C   0  0  0  0  0  0  0  0  0  0  0  0
   59.7683   35.5911   46.7918 H   0  0  0  0  0  0  0  0  0  0  0  0
   60.5983   34.9947   45.3146 H   0  0  0  0  0  0  0  0  0  0  0  0
   58.8161   35.2195   45.3146 H   0  0  0  0  0  0  0  0  0  0  0  0
   61.0023   32.7621   47.8025 H   0  0  0  0  0  0  0  0  0  0  0  0
   60.8996   31.8171   46.2783 H   0  0  0  0  0  0  0  0  0  0  0  0
   61.6675   33.4410   46.2783 H   0  0  0  0  0  0  0  0  0  0  0  0
   59.3165   33.4724   48.5631 H   0  0  0  0  0  0  0  0  0  0  0  0
   58.0213   34.3736   47.7046 H   0  0  0  0  0  0  0  0  0  0  0  0
   58.0171   32.5774   47.7046 H   0  0  0  0  0  0  0  0  0  0  0  0
   56.8024   29.6484   42.7740 H   0  0  0  0  0  0  0  0  0  0  0  0
   57.6838   27.3305   43.0291 H   0  0  0  0  0  0  0  0  0  0  0  0
   58.6056   26.5708   45.2183 H   0  0  0  0  0  0  0  0  0  0  0  0
   58.4717   28.7263   48.3242 H   0  0  0  0  0  0  0  0  0  0  0  0
   58.2672   27.0164   47.7872 H   0  0  0  0  0  0  0  0  0  0  0  0
   59.8210   32.9659   51.7276 H   0  0  0  0  0  0  0  0  0  0  0  0
   59.6140   33.3825   49.9791 H   0  0  0  0  0  0  0  0  0  0  0  0
   57.3919   33.3400   50.3566 H   0  0  0  0  0  0  0  0  0  0  0  0
   57.5613   31.5469   50.4948 H   0  0  0  0  0  0  0  0  0  0  0  0
   57.7721   33.5540   52.7940 H   0  0  0  0  0  0  0  0  0  0  0  0
   56.3624   32.4648   52.4235 H   0  0  0  0  0  0  0  0  0  0  0  0
   58.9563   31.0667   52.6868 H   0  0  0  0  0  0  0  0  0  0  0  0
   58.3596   31.8929   54.1960 H   0  0  0  0  0  0  0  0  0  0  0  0
   56.3794   31.1217   55.3668 H   0  0  0  0  0  0  0  0  0  0  0  0
   54.7638   29.2345   55.6896 H   0  0  0  0  0  0  0  0  0  0  0  0
   52.2409   27.8161   53.0493 H   0  0  0  0  0  0  0  0  0  0  0  0
   51.2489   27.3696   54.5199 H   0  0  0  0  0  0  0  0  0  0  0  0
   51.0759   29.4873   55.1513 H   0  0  0  0  0  0  0  0  0  0  0  0
   52.8728   29.7226   55.0017 H   0  0  0  0  0  0  0  0  0  0  0  0
   52.8153   28.8981   51.9446 H   0  0  0  0  0  0  0  0  0  0  0  0
   52.4704   30.3258   49.9267 H   0  0  0  0  0  0  0  0  0  0  0  0
   50.2490   34.1910   51.6220 H   0  0  0  0  0  0  0  0  0  0  0  0
   50.6471   31.7846   54.3443 H   0  0  0  0  0  0  0  0  0  0  0  0
   57.6833   30.4361   46.9411 H   0  0  0  0  0  0  0  0  0  0  0  0
  1  2  1  0
  2  3  1  0
  2  4  1  0
  2  5  1  0
  5  6  1  0
  6  7  2  0
  6  8  1  0
  8  9  1  0
  9 10  2  0
 10 11  1  0
 11 12  2  0
 12 13  1  0
 13 14  1  0
 14 15  1  0
 15 16  2  0
 15 17  1  0
 17 18  2  3
 18 19  1  0
 19 20  1  0
 20 21  2  0
 21 22  1  0
 22 23  1  0
 23 24  1  0
 24 25  1  0
 25 26  1  0
 26 27  1  0
 27 28  2  0
 28 29  1  0
 29 30  2  3
 30 31  1  0
 31 32  2  0
 31 33  1  0
 33 34  1  0
 34 35  1  0
 35 36  2  0
 36 37  1  0
 37 38  2  0
 38 39  1  0
 38 40  1  0
 40 41  1  0
 40 42  2  0
 29 43  1  0
 43 44  1  0
 21 45  1  0
 13 46  2  0
 46  9  1  0
 45 18  1  0
 44 26  2  0
 42 35  1  0
  1 47  1  0
  1 48  1  0
  1 49  1  0
  3 50  1  0
  3 51  1  0
  3 52  1  0
  4 53  1  0
  4 54  1  0
  4 55  1  0
 10 56  1  0
 11 57  1  0
 12 58  1  0
 14 59  1  0
 14 60  1  0
 22 61  1  0
 22 62  1  0
 23 63  1  0
 23 64  1  0
 24 65  1  0
 24 66  1  0
 25 67  1  0
 25 68  1  0
 27 69  1  0
 28 70  1  0
 33 71  1  0
 33 72  1  0
 34 73  1  0
 34 74  1  0
 36 75  1  0
 37 76  1  0
 41 77  1  0
 42 78  1  0
 46 79  1  0
M  CHG  4   8  -1  19  -1  39  -1  43  -1
M  END
>  <UniqueID>  (41) 
38

>  <SMILES>  (41) 
CC(C)(C)OC(=O)[N-]c1cccc(CC(=O)N=c2[n-]nc(CCCCc3ccc(=NC(=O)CCc4ccc([O-])c(O)c4)[n-]n3)s2)c1

>  <Energy>  (41) 
109.88576380432036

>  <Genealogy>  (41) 
CC(C)(C)OC(=O)[N-]c1cccc(CC(=O)N=c2[n-]nc(CCCCc3ccc(=NC(=O)CCc4ccc([O-])c(O)c4)[n-]n3)s2)c1 (protonated)
CC(C)(C)OC(=O)[N-]c1cccc(CC(=O)N=c2[n-]nc(CCCCc3ccc(=NC(=O)CCc4ccc([O-])c(O)c4)[n-]n3)s2)c1 (3D coordinates assigned)
CC(C)(C)OC(=O)[N-]c1cccc(CC(=O)N=c2[n-]nc(CCCCc3ccc(=NC(=O)CCc4ccc([O-])c(O)c4)[n-]n3)s2)c1 (optimized conformer: 109.88576380432036 kcal/mol)

>  <smiles>  (41) 
CC(C)(C)OC(=O)Nc1cccc(CC(=O)N=c2[nH]nc(CCCCc3ccc(=NC(=O)CCc4ccc(O)c(O)c4)[nH]n3)s2)c1

>  <score_type>  (41) 
oracle

>  <origin>  (41) 
adg

>  <m_score__min__energy>  (41) 
-19.829999999999998

>  <m_primary>  (41) 
energy

$$$$
42:0
     RDKit          3D

 63 67  0  0  0  0  0  0  0  0999 V2000
   56.9940   29.6790   42.6180 O   0  0  0  0  0  0  0  0  0  0  0  0
   56.8120   30.0620   43.8070 C   0  0  0  0  0  0  0  0  0  0  0  0
   55.9550   29.2300   44.7320 C   0  0  0  0  0  0  0  0  0  0  0  0
   56.7220   28.1070   45.3660 C   0  0  0  0  0  0  0  0  0  0  0  0
   58.3940   28.0700   45.5750 S   0  0  0  0  0  0  0  0  0  0  0  0
   58.3390   26.6020   46.3950 C   0  0  0  0  0  0  0  0  0  0  0  0
   59.3510   26.0020   46.8420 O   0  0  0  0  0  0  0  0  0  0  0  0
   57.0830   26.1300   46.5360 N   0  0  0  0  0  0  0  0  0  0  0  0
   56.1800   26.9720   45.9670 C   0  0  0  0  0  0  0  0  0  0  0  0
   54.8170   26.7090   45.9970 O   0  0  0  0  0  0  0  0  0  0  0  0
   57.4720   31.3100   44.2770 C   0  0  0  0  0  0  0  0  0  0  0  0
   57.8090   32.3140   43.3510 C   0  0  0  0  0  0  0  0  0  0  0  0
   58.4420   33.4840   43.7720 C   0  0  0  0  0  0  0  0  0  0  0  0
   58.7460   33.6720   45.1200 C   0  0  0  0  0  0  0  0  0  0  0  0
   58.4150   32.6920   46.0710 C   0  0  0  0  0  0  0  0  0  0  0  0
   58.7650   32.9110   47.5020 C   0  0  0  0  0  0  0  0  0  0  0  0
   58.9430   34.0950   47.9070 O   0  0  0  0  0  0  0  0  0  0  0  0
   58.9370   31.8080   48.4300 N   0  0  0  0  0  0  0  0  0  0  0  0
   60.0020   30.8990   47.9310 C   0  0  0  0  0  0  0  0  0  0  0  0
   60.6660   30.1030   49.0600 C   0  0  0  0  0  0  0  0  0  0  0  0
   61.2520   31.0280   50.0360 N   0  0  0  0  0  0  0  0  0  0  0  0
   62.3800   30.6040   50.8300 C   0  0  0  0  0  0  0  0  0  0  0  0
   62.5830   29.3710   51.0070 O   0  0  0  0  0  0  0  0  0  0  0  0
   63.3250   31.5990   51.4720 C   0  0  1  0  0  0  0  0  0  0  0  0
   64.7180   30.9440   51.6960 C   0  0  0  0  0  0  0  0  0  0  0  0
   65.8850   31.9110   51.4740 C   0  0  0  0  0  0  0  0  0  0  0  0
   65.7520   32.5270   50.1150 C   0  0  0  0  0  0  0  0  0  0  0  0
   66.7830   32.7510   49.4250 O   0  0  0  0  0  0  0  0  0  0  0  0
   64.4430   32.8810   49.6340 N   0  0  0  0  0  0  0  0  0  0  0  0
   64.2940   33.2820   48.2160 C   0  0  0  0  0  0  0  0  0  0  0  0
   62.9210   33.7950   47.8080 C   0  0  0  0  0  0  0  0  0  0  0  0
   63.3890   32.4170   47.3480 C   0  0  0  0  0  0  0  0  0  0  0  0
   63.3750   32.9160   50.6520 C   0  0  0  0  0  0  0  0  0  0  0  0
   60.6380   32.3490   50.2220 C   0  0  0  0  0  0  0  0  0  0  0  0
   59.1560   32.3120   49.8170 C   0  0  0  0  0  0  0  0  0  0  0  0
   57.7870   31.5080   45.6360 C   0  0  0  0  0  0  0  0  0  0  0  0
   55.5586   29.8797   45.5262 H   0  0  0  0  0  0  0  0  0  0  0  0
   55.1460   28.7873   44.1324 H   0  0  0  0  0  0  0  0  0  0  0  0
   57.5714   32.1755   42.2859 H   0  0  0  0  0  0  0  0  0  0  0  0
   58.7022   34.2609   43.0380 H   0  0  0  0  0  0  0  0  0  0  0  0
   59.2494   34.5957   45.4416 H   0  0  0  0  0  0  0  0  0  0  0  0
   58.0450   31.2630   48.4690 H   0  0  0  0  0  0  0  0  0  0  0  0
   59.5568   30.1925   47.2150 H   0  0  0  0  0  0  0  0  0  0  0  0
   60.7770   31.5187   47.4563 H   0  0  0  0  0  0  0  0  0  0  0  0
   59.9122   29.4751   49.5576 H   0  0  0  0  0  0  0  0  0  0  0  0
   61.4578   29.4652   48.6403 H   0  0  0  0  0  0  0  0  0  0  0  0
   62.9507   31.8815   52.4670 H   0  0  0  0  0  0  0  0  0  0  0  0
   64.7660   30.5703   52.7295 H   0  0  0  0  0  0  0  0  0  0  0  0
   64.8202   30.1351   50.9576 H   0  0  0  0  0  0  0  0  0  0  0  0
   65.8624   32.6994   52.2407 H   0  0  0  0  0  0  0  0  0  0  0  0
   66.8386   31.3674   51.5454 H   0  0  0  0  0  0  0  0  0  0  0  0
   65.3259   33.6526   48.1277 H   0  0  0  0  0  0  0  0  0  0  0  0
   62.1212   33.8822   48.5581 H   0  0  0  0  0  0  0  0  0  0  0  0
   62.5462   34.6978   47.3035 H   0  0  0  0  0  0  0  0  0  0  0  0
   62.9271   31.5107   47.7667 H   0  0  0  0  0  0  0  0  0  0  0  0
   63.4919   31.9143   46.3750 H   0  0  0  0  0  0  0  0  0  0  0  0
   63.5618   33.7562   51.3369 H   0  0  0  0  0  0  0  0  0  0  0  0
   62.4111   33.0372   50.1360 H   0  0  0  0  0  0  0  0  0  0  0  0
   60.7176   32.6401   51.2798 H   0  0  0  0  0  0  0  0  0  0  0  0
   61.1631   33.0792   49.5887 H   0  0  0  0  0  0  0  0  0  0  0  0
   58.6190   31.6545   50.5165 H   0  0  0  0  0  0  0  0  0  0  0  0
   58.7824   33.3460   49.8513 H   0  0  0  0  0  0  0  0  0  0  0  0
   57.5388   30.7261   46.3688 H   0  0  0  0  0  0  0  0  0  0  0  0
  1  2  2  0
  2  3  1  0
  3  4  1  0
  4  5  1  0
  5  6  1  0
  6  7  2  0
  6  8  1  0
  8  9  1  0
  9 10  1  0
  2 11  1  0
 11 12  2  0
 12 13  1  0
 13 14  2  0
 14 15  1  0
 15 16  1  0
 16 17  2  0
 16 18  1  0
 18 19  1  0
 19 20  1  0
 20 21  1  0
 21 22  1  0
 22 23  2  0
 22 24  1  0
 24 25  1  0
 25 26  1  0
 26 27  1  0
 27 28  2  0
 27 29  1  0
 29 30  1  0
 30 31  1  0
 31 32  1  0
 29 33  1  0
 21 34  1  0
 34 35  1  0
 15 36  2  0
  9  4  2  0
 36 11  1  0
 35 18  1  0
 33 24  1  0
 32 30  1  0
  3 37  1  0
  3 38  1  0
 12 39  1  0
 13 40  1  0
 14 41  1  0
 18 42  1  0
 19 43  1  0
 19 44  1  0
 20 45  1  0
 20 46  1  0
 24 47  1  1
 25 48  1  0
 25 49  1  0
 26 50  1  0
 26 51  1  0
 30 52  1  0
 31 53  1  0
 31 54  1  0
 32 55  1  0
 32 56  1  0
 33 57  1  0
 33 58  1  0
 34 59  1  0
 34 60  1  0
 35 61  1  0
 35 62  1  0
 36 63  1  0
M  CHG  3   8  -1  10  -1  18   1
M  END
>  <UniqueID>  (42) 
39

>  <SMILES>  (42) 
O=C(Cc1sc(=O)[n-]c1[O-])c1cccc(C(=O)[NH+]2CCN(C(=O)[C@H]3CCC(=O)N(C4CC4)C3)CC2)c1

>  <Energy>  (42) 
384.76578036830585

>  <Genealogy>  (42) 
O=C(Cc1sc(=O)[n-]c1[O-])c1cccc(C(=O)[NH+]2CCN(C(=O)C3CCC(=O)N(C4CC4)C3)CC2)c1 (protonated)
O=C(Cc1sc(=O)[n-]c1[O-])c1cccc(C(=O)[NH+]2CCN(C(=O)[C@H]3CCC(=O)N(C4CC4)C3)CC2)c1 (chirality)
O=C(Cc1sc(=O)[n-]c1[O-])c1cccc(C(=O)[NH+]2CCN(C(=O)[C@H]3CCC(=O)N(C4CC4)C3)CC2)c1 (3D coordinates assigned)
O=C(Cc1sc(=O)[n-]c1[O-])c1cccc(C(=O)[NH+]2CCN(C(=O)[C@H]3CCC(=O)N(C4CC4)C3)CC2)c1 (nonaromatic ring conformer: 384.76578036830585 kcal/mol)

>  <smiles>  (42) 
O=C(Cc1sc(=O)[nH]c1O)c1cccc(C(=O)N2CCN(C(=O)C3CCC(=O)N(C4CC4)C3)CC2)c1

>  <score_type>  (42) 
oracle

>  <origin>  (42) 
adg

>  <m_score__min__energy>  (42) 
-16.059999999999999

>  <m_primary>  (42) 
energy

$$$$
43:0
     RDKit          3D

 56 59  0  0  0  0  0  0  0  0999 V2000
   60.0210   26.9870   48.7610 C   0  0  0  0  0  0  0  0  0  0  0  0
   60.7260   26.6520   47.6820 C   0  0  0  0  0  0  0  0  0  0  0  0
   60.4920   27.3430   46.3700 C   0  0  0  0  0  0  0  0  0  0  0  0
   59.2830   26.8230   45.7110 N   0  0  0  0  0  0  0  0  0  0  0  0
   58.3590   27.5630   45.0500 C   0  0  0  0  0  0  0  0  0  0  0  0
   58.3470   29.0330   44.9860 C   0  0  0  0  0  0  0  0  0  0  0  0
   58.0540   29.5910   43.8930 O   0  0  0  0  0  0  0  0  0  0  0  0
   58.6820   29.8230   46.1410 N   0  0  0  0  0  0  0  0  0  0  0  0
   58.4540   29.2710   47.4880 C   0  0  0  0  0  0  0  0  0  0  0  0
   58.8560   30.2700   48.5740 C   0  0  0  0  0  0  0  0  0  0  0  0
   60.1530   30.8640   48.2350 N   0  0  0  0  0  0  0  0  0  0  0  0
   61.2910   30.6380   49.0860 C   0  0  0  0  0  0  0  0  0  0  0  0
   61.4350   29.5110   49.6460 O   0  0  0  0  0  0  0  0  0  0  0  0
   62.3030   31.6920   49.3150 C   0  0  0  0  0  0  0  0  0  0  0  0
   62.3510   32.3720   50.5440 C   0  0  0  0  0  0  0  0  0  0  0  0
   63.2820   33.3960   50.7470 C   0  0  0  0  0  0  0  0  0  0  0  0
   64.1670   33.7520   49.7250 C   0  0  0  0  0  0  0  0  0  0  0  0
   64.1200   33.0880   48.4970 C   0  0  0  0  0  0  0  0  0  0  0  0
   63.1910   32.0660   48.2890 C   0  0  0  0  0  0  0  0  0  0  0  0
   60.3510   31.4580   46.9030 C   0  0  0  0  0  0  0  0  0  0  0  0
   59.1420   31.2110   45.9910 C   0  0  0  0  0  0  0  0  0  0  0  0
   57.3910   26.7550   44.4920 C   0  0  0  0  0  0  0  0  0  0  0  0
   57.6960   25.4560   44.8650 C   0  0  0  0  0  0  0  0  0  0  0  0
   56.9030   24.4090   44.5690 C   0  0  0  0  0  0  0  0  0  0  0  0
   55.5070   24.2420   45.0020 C   0  0  0  0  0  0  0  0  0  0  0  0
   54.7160   23.2390   44.5830 N   0  0  0  0  0  0  0  0  0  0  0  0
   53.5140   23.5450   45.1150 C   0  0  0  0  0  0  0  0  0  0  0  0
   52.4990   22.8170   44.9600 O   0  0  0  0  0  0  0  0  0  0  0  0
   53.4820   24.6940   45.8240 N   0  0  0  0  0  0  0  0  0  0  0  0
   54.7480   25.1340   45.7270 C   0  0  0  0  0  0  0  0  0  0  0  0
   55.1950   26.3380   46.2630 O   0  0  0  0  0  0  0  0  0  0  0  0
   58.9070   25.5230   45.5770 C   0  0  0  0  0  0  0  0  0  0  0  0
   59.6680   24.4880   45.9670 C   0  0  0  0  0  0  0  0  0  0  0  0
   60.2013   26.4736   49.7170 H   0  0  0  0  0  0  0  0  0  0  0  0
   59.2584   27.7771   48.6962 H   0  0  0  0  0  0  0  0  0  0  0  0
   61.4873   25.8612   47.7528 H   0  0  0  0  0  0  0  0  0  0  0  0
   60.3697   28.4216   46.5478 H   0  0  0  0  0  0  0  0  0  0  0  0
   61.3565   27.1572   45.7157 H   0  0  0  0  0  0  0  0  0  0  0  0
   57.3866   29.0300   47.6004 H   0  0  0  0  0  0  0  0  0  0  0  0
   59.0714   28.3677   47.6018 H   0  0  0  0  0  0  0  0  0  0  0  0
   58.0963   31.0626   48.6426 H   0  0  0  0  0  0  0  0  0  0  0  0
   58.9318   29.7504   49.5406 H   0  0  0  0  0  0  0  0  0  0  0  0
   61.6537   32.0979   51.3494 H   0  0  0  0  0  0  0  0  0  0  0  0
   63.3179   33.9220   51.7124 H   0  0  0  0  0  0  0  0  0  0  0  0
   64.9006   34.5553   49.8880 H   0  0  0  0  0  0  0  0  0  0  0  0
   64.8154   33.3703   47.6928 H   0  0  0  0  0  0  0  0  0  0  0  0
   63.1531   31.5506   47.3180 H   0  0  0  0  0  0  0  0  0  0  0  0
   60.4994   32.5423   47.0138 H   0  0  0  0  0  0  0  0  0  0  0  0
   61.2320   30.9868   46.4428 H   0  0  0  0  0  0  0  0  0  0  0  0
   58.3286   31.8975   46.2686 H   0  0  0  0  0  0  0  0  0  0  0  0
   59.4336   31.3865   44.9450 H   0  0  0  0  0  0  0  0  0  0  0  0
   56.5422   27.0786   43.8717 H   0  0  0  0  0  0  0  0  0  0  0  0
   57.3363   23.6095   43.9500 H   0  0  0  0  0  0  0  0  0  0  0  0
   54.7620   26.7230   47.0940 H   0  0  0  0  0  0  0  0  0  0  0  0
   60.6003   24.6692   46.5220 H   0  0  0  0  0  0  0  0  0  0  0  0
   59.3592   23.4588   45.7315 H   0  0  0  0  0  0  0  0  0  0  0  0
  1  2  2  0
  2  3  1  0
  3  4  1  0
  4  5  1  0
  5  6  1  0
  6  7  2  0
  6  8  1  0
  8  9  1  0
  9 10  1  0
 10 11  1  0
 11 12  1  0
 12 13  2  0
 12 14  1  0
 14 15  2  0
 15 16  1  0
 16 17  2  0
 17 18  1  0
 18 19  2  0
 11 20  1  0
 20 21  1  0
  5 22  2  0
 22 23  1  0
 23 24  2  3
 24 25  1  0
 25 26  1  0
 26 27  1  0
 27 28  2  0
 27 29  1  0
 29 30  1  0
 30 31  1  0
 23 32  1  0
 32 33  2  0
 32  4  1  0
 21  8  1  0
 30 25  2  0
 19 14  1  0
  1 34  1  0
  1 35  1  0
  2 36  1  0
  3 37  1  0
  3 38  1  0
  9 39  1  0
  9 40  1  0
 10 41  1  0
 10 42  1  0
 15 43  1  0
 16 44  1  0
 17 45  1  0
 18 46  1  0
 19 47  1  0
 20 48  1  0
 20 49  1  0
 21 50  1  0
 21 51  1  0
 22 52  1  0
 24 53  1  0
 31 54  1  0
 33 55  1  0
 33 56  1  0
M  CHG  2  26  -1  29  -1
M  END
>  <UniqueID>  (43) 
40

>  <SMILES>  (43) 
C=CCn1c(C(=O)N2CCN(C(=O)c3ccccc3)CC2)cc(=Cc2[n-]c(=O)[n-]c2O)c1=C

>  <Energy>  (43) 
136.18540381012386

>  <Genealogy>  (43) 
C=CCn1c(C(=O)N2CCN(C(=O)c3ccccc3)CC2)cc(=Cc2[n-]c(=O)[n-]c2O)c1=C (protonated)
C=CCn1c(C(=O)N2CCN(C(=O)c3ccccc3)CC2)cc(=Cc2[n-]c(=O)[n-]c2O)c1=C (3D coordinates assigned)
C=CCn1c(C(=O)N2CCN(C(=O)c3ccccc3)CC2)cc(=Cc2[n-]c(=O)[n-]c2O)c1=C (nonaromatic ring conformer: 136.18540381012386 kcal/mol)

>  <smiles>  (43) 
C=CCn1c(C(=O)N2CCN(C(=O)c3ccccc3)CC2)cc(=Cc2[nH]c(=O)[nH]c2O)c1=C

>  <score_type>  (43) 
oracle

>  <origin>  (43) 
adg

>  <m_score__min__energy>  (43) 
-12.960000000000001

>  <m_primary>  (43) 
energy

$$$$
44:0
     RDKit          3D

 27 28  0  0  0  0  0  0  0  0999 V2000
   57.1590   26.7100   45.9700 C   0  0  0  0  0  0  0  0  0  0  0  0
   57.0750   27.8670   45.3220 C   0  0  0  0  0  0  0  0  0  0  0  0
   55.8980   28.6500   45.2460 N   0  0  0  0  0  0  0  0  0  0  0  0
   56.3030   29.7700   44.4560 C   0  0  0  0  0  0  0  0  0  0  0  0
   55.4860   30.6660   44.1130 O   0  0  0  0  0  0  0  0  0  0  0  0
   57.6860   29.7740   44.0290 N   0  0  1  0  0  0  0  0  0  0  0  0
   58.4820   30.9220   44.5390 C   0  0  1  0  0  0  0  0  0  0  0  0
   58.1970   32.1660   43.7650 C   0  0  0  0  0  0  0  0  0  0  0  0
   57.6970   33.1290   44.5210 C   0  0  0  0  0  0  0  0  0  0  0  0
   57.5180   32.7060   45.9390 C   0  0  2  0  0  0  0  0  0  0  0  0
   58.1410   33.7260   46.9040 C   0  0  0  0  0  0  0  0  0  0  0  0
   58.8080   34.7310   46.1890 O   0  0  0  0  0  0  0  0  0  0  0  0
   58.1840   31.3200   46.0060 C   0  0  0  0  0  0  0  0  0  0  0  0
   58.1350   28.5340   44.5900 C   0  0  0  0  0  0  0  0  0  0  0  0
   59.2970   28.0720   44.4240 O   0  0  0  0  0  0  0  0  0  0  0  0
   58.1092   26.1561   45.9857 H   0  0  0  0  0  0  0  0  0  0  0  0
   56.2783   26.3061   46.4908 H   0  0  0  0  0  0  0  0  0  0  0  0
   57.7340   29.7150   42.9850 H   0  0  0  0  0  0  0  0  0  0  0  0
   59.5173   30.5631   44.4425 H   0  0  0  0  0  0  0  0  0  0  0  0
   58.3823   32.2702   42.6857 H   0  0  0  0  0  0  0  0  0  0  0  0
   57.4416   34.1308   44.1452 H   0  0  0  0  0  0  0  0  0  0  0  0
   56.4632   32.6539   46.2467 H   0  0  0  0  0  0  0  0  0  0  0  0
   57.3461   34.1812   47.5131 H   0  0  0  0  0  0  0  0  0  0  0  0
   58.8642   33.2089   47.5517 H   0  0  0  0  0  0  0  0  0  0  0  0
   58.9870   35.4700   46.8270 H   0  0  0  0  0  0  0  0  0  0  0  0
   59.1174   31.3714   46.5858 H   0  0  0  0  0  0  0  0  0  0  0  0
   57.5346   30.5829   46.5009 H   0  0  0  0  0  0  0  0  0  0  0  0
  1  2  2  0
  2  3  1  0
  3  4  1  0
  4  5  2  0
  4  6  1  0
  6  7  1  0
  7  8  1  0
  8  9  2  0
  9 10  1  0
 10 11  1  0
 11 12  1  0
 10 13  1  0
  6 14  1  0
 14 15  2  0
 14  2  1  0
 13  7  1  0
  1 16  1  0
  1 17  1  0
  6 18  1  6
  7 19  1  1
  8 20  1  0
  9 21  1  0
 10 22  1  1
 11 23  1  0
 11 24  1  0
 12 25  1  0
 13 26  1  0
 13 27  1  0
M  CHG  2   3  -1   6   1
M  END
>  <UniqueID>  (44) 
41

>  <SMILES>  (44) 
C=C1[N-]C(=O)[N@@H+]([C@H]2C=CC(CO)C2)C1=O

>  <Energy>  (44) 
52.46621302063551

>  <Genealogy>  (44) 
C=C1[N-]C(=O)[NH+](C2C=CC(CO)C2)C1=O (protonated)
C=C1[N-]C(=O)[N@@H+]([C@H]2C=CC(CO)C2)C1=O (chirality)
C=C1[N-]C(=O)[N@@H+]([C@H]2C=CC(CO)C2)C1=O (3D coordinates assigned)
C=C1[N-]C(=O)[N@@H+]([C@H]2C=CC(CO)C2)C1=O (nonaromatic ring conformer: 52.46621302063551 kcal/mol)

>  <smiles>  (44) 
C=C1NC(=O)N(C2C=CC(CO)C2)C1=O

>  <score_type>  (44) 
oracle

>  <origin>  (44) 
adg

>  <m_score__min__energy>  (44) 
-6.75

>  <m_primary>  (44) 
energy

$$$$
45:0
     RDKit          3D

 40 42  0  0  0  0  0  0  0  0999 V2000
   53.1732   27.7585   53.1958 H   0  0  0  0  0  0  0  0  0  0  0  0
   54.2330   28.0530   53.1960 C   0  0  0  0  0  0  0  0  0  0  0  0
   55.0074   27.3202   53.4668 H   0  0  0  0  0  0  0  0  0  0  0  0
   54.5800   29.3020   52.8670 C   0  0  0  0  0  0  0  0  0  0  0  0
   53.7620   30.3260   52.3710 C   0  0  0  0  0  0  0  0  0  0  0  0
   52.4230   30.4080   52.2430 C   0  0  0  0  0  0  0  0  0  0  0  0
   51.8173   30.1554   53.1258 H   0  0  0  0  0  0  0  0  0  0  0  0
   51.7020   30.8060   51.0250 C   0  0  0  0  0  0  0  0  0  0  0  0
   51.6750   30.0670   49.9030 N   0  0  0  0  0  0  0  0  0  0  0  0
   51.0270   30.8610   49.0220 C   0  0  0  0  0  0  0  0  0  0  0  0
   50.7870   30.5060   47.8390 O   0  0  0  0  0  0  0  0  0  0  0  0
   50.6690   32.0700   49.5050 N   0  0  0  0  0  0  0  0  0  0  0  0
   51.1170   32.0260   50.7700 C   0  0  0  0  0  0  0  0  0  0  0  0
   51.0190   33.0870   51.6610 O   0  0  0  0  0  0  0  0  0  0  0  0
   54.6180   31.3480   51.9990 C   0  0  0  0  0  0  0  0  0  0  0  0
   54.3325   32.3015   51.5306 H   0  0  0  0  0  0  0  0  0  0  0  0
   55.9000   30.9450   52.3270 C   0  0  0  0  0  0  0  0  0  0  0  0
   57.1170   31.7730   52.0880 C   0  0  0  0  0  0  0  0  0  0  0  0
   57.2140   32.8660   52.7110 O   0  0  0  0  0  0  0  0  0  0  0  0
   58.1930   31.3870   51.1940 N   0  0  0  0  0  0  0  0  0  0  0  0
   59.0920   31.5760   51.7010 H   0  0  0  0  0  0  0  0  0  0  0  0
   58.2140   32.2230   49.9670 C   0  0  0  0  0  0  0  0  0  0  0  0
   57.1777   32.4397   49.6684 H   0  0  0  0  0  0  0  0  0  0  0  0
   58.7661   33.1462   50.1972 H   0  0  0  0  0  0  0  0  0  0  0  0
   58.9300   31.5240   48.7990 C   0  0  0  0  0  0  0  0  0  0  0  0
   58.2048   30.9203   48.2336 H   0  0  0  0  0  0  0  0  0  0  0  0
   59.3741   32.2817   48.1367 H   0  0  0  0  0  0  0  0  0  0  0  0
   59.9920   30.6500   49.3230 N   0  0  0  0  0  0  0  0  0  0  0  0
   60.8410   30.1570   48.2280 C   0  0  0  0  0  0  0  0  0  0  0  0
   61.7204   29.6463   48.6473 H   0  0  0  0  0  0  0  0  0  0  0  0
   60.2678   29.4513   47.6088 H   0  0  0  0  0  0  0  0  0  0  0  0
   61.1698   31.0047   47.6088 H   0  0  0  0  0  0  0  0  0  0  0  0
   59.4170   29.5160   50.0810 C   0  0  0  0  0  0  0  0  0  0  0  0
   59.1114   28.7342   49.3700 H   0  0  0  0  0  0  0  0  0  0  0  0
   60.1883   29.1499   50.7745 H   0  0  0  0  0  0  0  0  0  0  0  0
   58.1870   29.9330   50.9200 C   0  0  0  0  0  0  0  0  0  0  0  0
   57.2717   29.6761   50.3667 H   0  0  0  0  0  0  0  0  0  0  0  0
   58.2233   29.3979   51.8804 H   0  0  0  0  0  0  0  0  0  0  0  0
   55.8690   29.7030   52.8550 N   0  0  0  0  0  0  0  0  0  0  0  0
   56.6790   29.1140   53.1460 H   0  0  0  0  0  0  0  0  0  0  0  0
  1  2  1  0
  2  3  1  0
  2  4  2  0
  4  5  1  0
  5  6  2  0
  6  7  1  0
  6  8  1  0
  8  9  1  0
  9 10  1  0
 10 11  2  0
 10 12  1  0
 12 13  1  0
 13 14  1  0
  5 15  1  0
 15 16  1  0
 15 17  2  0
 17 18  1  0
 18 19  2  0
 18 20  1  0
 20 21  1  0
 20 22  1  0
 22 23  1  0
 22 24  1  0
 22 25  1  0
 25 26  1  0
 25 27  1  0
 25 28  1  0
 28 29  1  0
 29 30  1  0
 29 31  1  0
 29 32  1  0
 28 33  1  0
 33 34  1  0
 33 35  1  0
 33 36  1  0
 36 37  1  0
 36 38  1  0
 17 39  1  0
 39 40  1  0
 39  4  1  0
 13  8  2  0
 36 20  1  0
M  CHG  4   9  -1  12  -1  14  -1  20   1
M  END
>  <UniqueID>  (45) 
42

>  <SMILES>  (45) 
C=c1[nH]c(C(=O)[NH+]2CCN(C)CC2)c/c1=C/c1[n-]c(=O)[n-]c1[O-]

>  <Energy>  (45) 
122.4418579308686

>  <Genealogy>  (45) 
C=c1[nH]c(C(=O)[NH+]2CCN(C)CC2)cc1=Cc1[n-]c(=O)[n-]c1[O-] (protonated)
C=c1[nH]c(C(=O)[NH+]2CCN(C)CC2)c/c1=C/c1[n-]c(=O)[n-]c1[O-] (cis-trans isomerization)
C=c1[nH]c(C(=O)[NH+]2CCN(C)CC2)c/c1=C/c1[n-]c(=O)[n-]c1[O-] (3D coordinates assigned)
C=c1[nH]c(C(=O)[NH+]2CCN(C)CC2)c/c1=C/c1[n-]c(=O)[n-]c1[O-] (nonaromatic ring conformer: 122.4418579308686 kcal/mol)

>  <smiles>  (45) 
C=c1[nH]c(C(=O)N2CCN(C)CC2)cc1=Cc1[nH]c(=O)[nH]c1O

>  <score_type>  (45) 
oracle

>  <origin>  (45) 
adg

>  <m_score__min__energy>  (45) 
-14.960000000000001

>  <m_primary>  (45) 
energy

$$$$
46:0
     RDKit          3D

 62 66  0  0  0  0  0  0  0  0999 V2000
   54.3480   26.7090   46.7520 H   0  0  0  0  0  0  0  0  0  0  0  0
   54.7100   26.2350   45.9350 O   0  0  0  0  0  0  0  0  0  0  0  0
   54.2780   24.9520   45.6090 C   0  0  0  0  0  0  0  0  0  0  0  0
   52.9850   24.6020   45.5140 N   0  0  0  0  0  0  0  0  0  0  0  0
   53.0550   23.2790   45.2530 C   0  0  0  0  0  0  0  0  0  0  0  0
   52.0310   22.5640   45.0980 O   0  0  0  0  0  0  0  0  0  0  0  0
   54.3090   22.7810   45.1800 N   0  0  0  0  0  0  0  0  0  0  0  0
   55.0850   23.8590   45.3820 C   0  0  0  0  0  0  0  0  0  0  0  0
   56.5550   23.7910   45.4630 C   0  0  0  0  0  0  0  0  0  0  0  0
   57.0355   22.8086   45.3444 H   0  0  0  0  0  0  0  0  0  0  0  0
   57.3450   24.8630   45.6740 C   0  0  0  0  0  0  0  0  0  0  0  0
   57.8530   25.2780   46.8930 C   0  0  0  0  0  0  0  0  0  0  0  0
   57.7127   24.7800   47.8637 H   0  0  0  0  0  0  0  0  0  0  0  0
   58.5690   26.4350   46.6600 C   0  0  0  0  0  0  0  0  0  0  0  0
   59.2900   27.1590   47.7260 C   0  0  0  0  0  0  0  0  0  0  0  0
   60.3740   26.6860   48.1670 O   0  0  0  0  0  0  0  0  0  0  0  0
   58.7160   28.3210   48.3340 N   0  0  0  0  0  0  0  0  0  0  0  0
   59.1400   29.6770   48.1400 C   0  0  0  0  0  0  0  0  0  0  0  0
   59.9880   29.9680   47.0650 C   0  0  0  0  0  0  0  0  0  0  0  0
   60.2956   29.1650   46.3790 H   0  0  0  0  0  0  0  0  0  0  0  0
   60.4470   31.2730   46.8570 C   0  0  0  0  0  0  0  0  0  0  0  0
   61.1032   31.4940   46.0022 H   0  0  0  0  0  0  0  0  0  0  0  0
   60.0730   32.3000   47.7350 C   0  0  0  0  0  0  0  0  0  0  0  0
   60.6670   33.9420   47.5000 S   0  0  0  0  0  0  0  0  0  0  0  0
   60.9020   34.1910   46.0360 O   0  0  0  0  0  0  0  0  0  0  0  0
   59.6160   34.9010   47.9860 O   0  0  0  0  0  0  0  0  0  0  0  0
   62.1470   34.1540   48.4100 N   0  0  0  0  0  0  0  0  0  0  0  0
   62.2930   33.1390   49.4760 C   0  0  0  0  0  0  0  0  0  0  0  0
   62.7154   33.6248   50.3679 H   0  0  0  0  0  0  0  0  0  0  0  0
   61.2950   32.7202   49.6724 H   0  0  0  0  0  0  0  0  0  0  0  0
   63.2120   31.9730   49.0700 C   0  0  0  0  0  0  0  0  0  0  0  0
   64.2513   32.2235   49.3291 H   0  0  0  0  0  0  0  0  0  0  0  0
   62.8965   31.0664   49.6071 H   0  0  0  0  0  0  0  0  0  0  0  0
   63.1230   31.7370   47.6830 O   0  0  0  0  0  0  0  0  0  0  0  0
   63.7000   32.8140   46.9640 C   0  0  0  0  0  0  0  0  0  0  0  0
   64.7943   32.7072   46.9965 H   0  0  0  0  0  0  0  0  0  0  0  0
   63.3052   32.7655   45.9384 H   0  0  0  0  0  0  0  0  0  0  0  0
   63.3270   34.2070   47.5290 C   0  0  0  0  0  0  0  0  0  0  0  0
   64.1805   34.5961   48.1035 H   0  0  0  0  0  0  0  0  0  0  0  0
   63.0839   34.8615   46.6790 H   0  0  0  0  0  0  0  0  0  0  0  0
   59.2500   32.0080   48.8290 C   0  0  0  0  0  0  0  0  0  0  0  0
   58.9668   32.8071   49.5298 H   0  0  0  0  0  0  0  0  0  0  0  0
   58.7860   30.7040   49.0350 C   0  0  0  0  0  0  0  0  0  0  0  0
   58.1427   30.4809   49.8989 H   0  0  0  0  0  0  0  0  0  0  0  0
   58.5260   26.7620   45.3420 N   0  0  0  0  0  0  0  0  0  0  0  0
   59.2960   27.8260   44.6710 C   0  0  0  0  0  0  0  0  0  0  0  0
   60.1455   28.1152   45.3072 H   0  0  0  0  0  0  0  0  0  0  0  0
   59.6601   27.4482   43.7042 H   0  0  0  0  0  0  0  0  0  0  0  0
   58.4280   29.0250   44.4300 C   0  0  0  0  0  0  0  0  0  0  0  0
   59.0020   30.2380   44.1960 N   0  0  0  0  0  0  0  0  0  0  0  0
   58.2580   31.3580   43.9940 C   0  0  0  0  0  0  0  0  0  0  0  0
   58.7549   32.3204   43.8020 H   0  0  0  0  0  0  0  0  0  0  0  0
   56.8640   31.2880   44.0300 C   0  0  0  0  0  0  0  0  0  0  0  0
   56.2570   32.1904   43.8648 H   0  0  0  0  0  0  0  0  0  0  0  0
   56.2500   30.0600   44.2780 C   0  0  0  0  0  0  0  0  0  0  0  0
   55.1528   29.9896   44.3121 H   0  0  0  0  0  0  0  0  0  0  0  0
   57.0310   28.9200   44.4830 C   0  0  0  0  0  0  0  0  0  0  0  0
   56.5544   27.9492   44.6841 H   0  0  0  0  0  0  0  0  0  0  0  0
   57.7830   25.7980   44.7310 C   0  0  0  0  0  0  0  0  0  0  0  0
   57.5490   25.7440   43.4090 C   0  0  0  0  0  0  0  0  0  0  0  0
   57.9390   26.5327   42.7488 H   0  0  0  0  0  0  0  0  0  0  0  0
   56.9675   24.9111   42.9870 H   0  0  0  0  0  0  0  0  0  0  0  0
  1  2  1  0
  2  3  1  0
  3  4  1  0
  4  5  1  0
  5  6  2  0
  5  7  1  0
  7  8  1  0
  8  9  1  0
  9 10  1  0
  9 11  2  0
 11 12  1  0
 12 13  1  0
 12 14  2  0
 14 15  1  0
 15 16  2  0
 15 17  1  0
 17 18  1  0
 18 19  2  0
 19 20  1  0
 19 21  1  0
 21 22  1  0
 21 23  2  0
 23 24  1  0
 24 25  2  0
 24 26  2  0
 24 27  1  0
 27 28  1  0
 28 29  1  0
 28 30  1  0
 28 31  1  0
 31 32  1  0
 31 33  1  0
 31 34  1  0
 34 35  1  0
 35 36  1  0
 35 37  1  0
 35 38  1  0
 38 39  1  0
 38 40  1  0
 23 41  1  0
 41 42  1  0
 41 43  2  0
 43 44  1  0
 14 45  1  0
 45 46  1  0
 46 47  1  0
 46 48  1  0
 46 49  1  0
 49 50  2  0
 50 51  1  0
 51 52  1  0
 51 53  2  0
 53 54  1  0
 53 55  1  0
 55 56  1  0
 55 57  2  0
 57 58  1  0
 45 59  1  0
 59 60  2  0
 60 61  1  0
 60 62  1  0
  8  3  2  0
 59 11  1  0
 43 18  1  0
 57 49  1  0
 38 27  1  0
M  CHG  3   4  -1   7  -1  17  -1
M  END
>  <UniqueID>  (46) 
43

>  <SMILES>  (46) 
C=c1/c(=C/c2[n-]c(=O)[n-]c2O)cc(C(=O)[N-]c2ccc(S(=O)(=O)N3CCOCC3)cc2)n1Cc1ccccn1

>  <Energy>  (46) 
149.3358957539705

>  <Genealogy>  (46) 
C=c1c(=Cc2[n-]c(=O)[n-]c2O)cc(C(=O)[N-]c2ccc(S(=O)(=O)N3CCOCC3)cc2)n1Cc1ccccn1 (protonated)
C=c1/c(=C/c2[n-]c(=O)[n-]c2O)cc(C(=O)[N-]c2ccc(S(=O)(=O)N3CCOCC3)cc2)n1Cc1ccccn1 (cis-trans isomerization)
C=c1/c(=C/c2[n-]c(=O)[n-]c2O)cc(C(=O)[N-]c2ccc(S(=O)(=O)N3CCOCC3)cc2)n1Cc1ccccn1 (3D coordinates assigned)
C=c1/c(=C/c2[n-]c(=O)[n-]c2O)cc(C(=O)[N-]c2ccc(S(=O)(=O)N3CCOCC3)cc2)n1Cc1ccccn1 (nonaromatic ring conformer: 149.3358957539705 kcal/mol)

>  <smiles>  (46) 
C=c1c(=Cc2[nH]c(=O)[nH]c2O)cc(C(=O)Nc2ccc(S(=O)(=O)N3CCOCC3)cc2)n1Cc1ccccn1

>  <score_type>  (46) 
oracle

>  <origin>  (46) 
adg

>  <m_score__min__energy>  (46) 
-15.75

>  <m_primary>  (46) 
energy

$$$$
47:0
     RDKit          3D

 52 54  0  0  0  0  0  0  0  0999 V2000
   61.3610   30.4610   47.6790 C   0  0  0  0  0  0  0  0  0  0  0  0
   60.1480   30.5700   48.2260 C   0  0  0  0  0  0  0  0  0  0  0  0
   59.0770   31.4300   47.6160 C   0  0  0  0  0  0  0  0  0  0  0  0
   58.5880   30.8280   46.3590 N   0  0  0  0  0  0  0  0  0  0  0  0
   58.7180   29.4710   46.2200 C   0  0  0  0  0  0  0  0  0  0  0  0
   58.2210   28.7970   45.0910 C   0  0  0  0  0  0  0  0  0  0  0  0
   58.3290   27.3160   44.9950 C   0  0  0  0  0  0  0  0  0  0  0  0
   58.9590   26.6790   45.8830 O   0  0  0  0  0  0  0  0  0  0  0  0
   57.7130   26.6000   43.9100 N   0  0  0  0  0  0  0  0  0  0  0  0
   57.7530   25.1410   43.8110 C   0  0  0  0  0  0  0  0  0  0  0  0
   56.6980   24.5420   44.7000 C   0  0  0  0  0  0  0  0  0  0  0  0
   56.8580   24.5530   46.0960 C   0  0  0  0  0  0  0  0  0  0  0  0
   55.8940   23.9630   46.9200 C   0  0  0  0  0  0  0  0  0  0  0  0
   54.7720   23.3480   46.3570 C   0  0  0  0  0  0  0  0  0  0  0  0
   53.8400   22.7720   47.1570 F   0  0  0  0  0  0  0  0  0  0  0  0
   54.6130   23.3200   44.9680 C   0  0  0  0  0  0  0  0  0  0  0  0
   55.5730   23.9120   44.1410 C   0  0  0  0  0  0  0  0  0  0  0  0
   57.5590   29.5490   44.1060 C   0  0  0  0  0  0  0  0  0  0  0  0
   57.0930   28.9980   43.0720 O   0  0  0  0  0  0  0  0  0  0  0  0
   57.4300   30.9270   44.2530 C   0  0  0  0  0  0  0  0  0  0  0  0
   57.9430   31.5650   45.3900 C   0  0  0  0  0  0  0  0  0  0  0  0
   57.7810   33.0320   45.4880 C   0  0  0  0  0  0  0  0  0  0  0  0
   56.6480   33.5110   45.7570 O   0  0  0  0  0  0  0  0  0  0  0  0
   58.8890   33.9240   45.3120 N   0  0  0  0  0  0  0  0  0  0  0  0
   59.3140   34.9110   46.2970 C   0  0  0  0  0  0  0  0  0  0  0  0
   60.4910   34.3800   47.0600 C   0  0  0  0  0  0  0  0  0  0  0  0
   61.6050   33.8650   46.3750 C   0  0  0  0  0  0  0  0  0  0  0  0
   62.7200   33.4090   47.0850 C   0  0  0  0  0  0  0  0  0  0  0  0
   62.7350   33.4680   48.4830 C   0  0  0  0  0  0  0  0  0  0  0  0
   64.1360   32.8970   49.3730 Cl  0  0  0  0  0  0  0  0  0  0  0  0
   61.6350   33.9930   49.1710 C   0  0  0  0  0  0  0  0  0  0  0  0
   60.5180   34.4500   48.4630 C   0  0  0  0  0  0  0  0  0  0  0  0
   62.1221   29.8226   48.1515 H   0  0  0  0  0  0  0  0  0  0  0  0
   61.5993   31.0096   46.7558 H   0  0  0  0  0  0  0  0  0  0  0  0
   59.9262   30.0147   49.1493 H   0  0  0  0  0  0  0  0  0  0  0  0
   58.2397   31.5227   48.3234 H   0  0  0  0  0  0  0  0  0  0  0  0
   59.4977   32.4224   47.3967 H   0  0  0  0  0  0  0  0  0  0  0  0
   59.2229   28.8958   47.0101 H   0  0  0  0  0  0  0  0  0  0  0  0
   57.0660   27.1060   43.2630 H   0  0  0  0  0  0  0  0  0  0  0  0
   57.5670   24.8402   42.7694 H   0  0  0  0  0  0  0  0  0  0  0  0
   58.7430   24.7820   44.1287 H   0  0  0  0  0  0  0  0  0  0  0  0
   57.7445   25.0273   46.5423 H   0  0  0  0  0  0  0  0  0  0  0  0
   56.0190   23.9830   48.0127 H   0  0  0  0  0  0  0  0  0  0  0  0
   53.7321   22.8319   44.5254 H   0  0  0  0  0  0  0  0  0  0  0  0
   55.4470   23.8844   43.0486 H   0  0  0  0  0  0  0  0  0  0  0  0
   56.9240   31.5167   43.4745 H   0  0  0  0  0  0  0  0  0  0  0  0
   59.5987   35.8417   45.7844 H   0  0  0  0  0  0  0  0  0  0  0  0
   58.4869   35.1145   46.9931 H   0  0  0  0  0  0  0  0  0  0  0  0
   61.5997   33.8205   45.2759 H   0  0  0  0  0  0  0  0  0  0  0  0
   63.5871   33.0031   46.5434 H   0  0  0  0  0  0  0  0  0  0  0  0
   61.6486   34.0464   50.2696 H   0  0  0  0  0  0  0  0  0  0  0  0
   59.6573   34.8659   49.0072 H   0  0  0  0  0  0  0  0  0  0  0  0
  1  2  2  0
  2  3  1  0
  3  4  1  0
  4  5  1  0
  5  6  2  0
  6  7  1  0
  7  8  2  0
  7  9  1  0
  9 10  1  0
 10 11  1  0
 11 12  2  0
 12 13  1  0
 13 14  2  0
 14 15  1  0
 14 16  1  0
 16 17  2  0
  6 18  1  0
 18 19  2  0
 18 20  1  0
 20 21  2  0
 21 22  1  0
 22 23  2  0
 22 24  1  0
 24 25  1  0
 25 26  1  0
 26 27  2  0
 27 28  1  0
 28 29  2  0
 29 30  1  0
 29 31  1  0
 31 32  2  0
 21  4  1  0
 32 26  1  0
 17 11  1  0
  1 33  1  0
  1 34  1  0
  2 35  1  0
  3 36  1  0
  3 37  1  0
  5 38  1  0
  9 39  1  0
 10 40  1  0
 10 41  1  0
 12 42  1  0
 13 43  1  0
 16 44  1  0
 17 45  1  0
 20 46  1  0
 25 47  1  0
 25 48  1  0
 27 49  1  0
 28 50  1  0
 31 51  1  0
 32 52  1  0
M  CHG  1  24  -1
M  END
>  <UniqueID>  (47) 
44

>  <SMILES>  (47) 
C=CCn1cc(C(=O)NCc2ccc(F)cc2)c(=O)cc1C(=O)[N-]Cc1ccc(Cl)cc1

>  <Energy>  (47) 
60.767601352766576

>  <Genealogy>  (47) 
C=CCn1cc(C(=O)NCc2ccc(F)cc2)c(=O)cc1C(=O)[N-]Cc1ccc(Cl)cc1 (protonated)
C=CCn1cc(C(=O)NCc2ccc(F)cc2)c(=O)cc1C(=O)[N-]Cc1ccc(Cl)cc1 (3D coordinates assigned)
C=CCn1cc(C(=O)NCc2ccc(F)cc2)c(=O)cc1C(=O)[N-]Cc1ccc(Cl)cc1 (optimized conformer: 60.767601352766576 kcal/mol)

>  <smiles>  (47) 
C=CCn1cc(C(=O)NCc2ccc(F)cc2)c(=O)cc1C(=O)NCc1ccc(Cl)cc1

>  <score_type>  (47) 
oracle

>  <origin>  (47) 
adg

>  <m_score__min__energy>  (47) 
-9.4399999999999995

>  <m_primary>  (47) 
energy

$$$$
48:0
     RDKit          3D

 46 48  0  0  0  0  0  0  0  0999 V2000
   57.3580   30.9590   43.4970 C   0  0  0  0  0  0  0  0  0  0  0  0
   57.0340   31.9780   44.5880 C   0  0  0  0  0  0  0  0  0  0  0  0
   58.1660   32.9900   44.8070 C   0  0  0  0  0  0  0  0  0  0  0  0
   58.5940   33.1840   46.5370 S   0  0  0  0  0  0  0  0  0  0  0  0
   59.1520   34.5620   46.7510 O   0  0  0  0  0  0  0  0  0  0  0  0
   57.3890   33.0080   47.4190 O   0  0  0  0  0  0  0  0  0  0  0  0
   59.8090   32.0250   46.9700 N   0  0  0  0  0  0  0  0  0  0  0  0
   59.5850   30.6280   47.2050 C   0  0  0  0  0  0  0  0  0  0  0  0
   59.8860   30.1080   48.4690 C   0  0  0  0  0  0  0  0  0  0  0  0
   59.6860   28.7540   48.7430 C   0  0  0  0  0  0  0  0  0  0  0  0
   59.1850   27.9040   47.7550 C   0  0  0  0  0  0  0  0  0  0  0  0
   58.8840   28.4020   46.4740 C   0  0  0  0  0  0  0  0  0  0  0  0
   58.3420   27.5090   45.4180 C   0  0  0  0  0  0  0  0  0  0  0  0
   58.7880   27.6020   44.2430 O   0  0  0  0  0  0  0  0  0  0  0  0
   57.2800   26.5120   45.7000 C   0  0  0  0  0  0  0  0  0  0  0  0
   55.9290   26.8750   45.6230 C   0  0  0  0  0  0  0  0  0  0  0  0
   55.5570   28.1770   45.3030 O   0  0  0  0  0  0  0  0  0  0  0  0
   54.9660   25.9570   45.8790 N   0  0  0  0  0  0  0  0  0  0  0  0
   55.2730   24.6770   46.2050 C   0  0  0  0  0  0  0  0  0  0  0  0
   54.3370   23.8610   46.4260 O   0  0  0  0  0  0  0  0  0  0  0  0
   56.5830   24.2780   46.2810 N   0  0  0  0  0  0  0  0  0  0  0  0
   56.9020   22.9150   46.6260 C   0  0  0  0  0  0  0  0  0  0  0  0
   57.5270   22.0750   45.6890 C   0  0  0  0  0  0  0  0  0  0  0  0
   57.8370   20.7540   46.0260 C   0  0  0  0  0  0  0  0  0  0  0  0
   57.5260   20.2630   47.2980 C   0  0  0  0  0  0  0  0  0  0  0  0
   56.9040   21.0940   48.2340 C   0  0  0  0  0  0  0  0  0  0  0  0
   56.5920   22.4150   47.9010 C   0  0  0  0  0  0  0  0  0  0  0  0
   57.5870   25.1770   46.0240 C   0  0  0  0  0  0  0  0  0  0  0  0
   58.7940   24.8080   46.0710 O   0  0  0  0  0  0  0  0  0  0  0  0
   59.0780   29.7700   46.2100 C   0  0  0  0  0  0  0  0  0  0  0  0
   57.6602   30.0086   43.9611 H   0  0  0  0  0  0  0  0  0  0  0  0
   56.4676   30.7952   42.8722 H   0  0  0  0  0  0  0  0  0  0  0  0
   58.1795   31.3395   42.8722 H   0  0  0  0  0  0  0  0  0  0  0  0
   56.1239   32.5247   44.3001 H   0  0  0  0  0  0  0  0  0  0  0  0
   56.8955   31.4252   45.5289 H   0  0  0  0  0  0  0  0  0  0  0  0
   59.0565   32.6460   44.2604 H   0  0  0  0  0  0  0  0  0  0  0  0
   57.8155   33.9658   44.4396 H   0  0  0  0  0  0  0  0  0  0  0  0
   60.2829   30.7709   49.2520 H   0  0  0  0  0  0  0  0  0  0  0  0
   59.9238   28.3554   49.7403 H   0  0  0  0  0  0  0  0  0  0  0  0
   59.0248   26.8391   47.9794 H   0  0  0  0  0  0  0  0  0  0  0  0
   57.7731   22.4578   44.6875 H   0  0  0  0  0  0  0  0  0  0  0  0
   58.3263   20.0998   45.2894 H   0  0  0  0  0  0  0  0  0  0  0  0
   57.7707   19.2235   47.5617 H   0  0  0  0  0  0  0  0  0  0  0  0
   56.6596   20.7076   49.2345 H   0  0  0  0  0  0  0  0  0  0  0  0
   56.1018   23.0654   48.6404 H   0  0  0  0  0  0  0  0  0  0  0  0
   58.8313   30.1734   45.2168 H   0  0  0  0  0  0  0  0  0  0  0  0
  1  2  1  0
  2  3  1  0
  3  4  1  0
  4  5  2  0
  4  6  2  0
  4  7  1  0
  7  8  1  0
  8  9  2  0
  9 10  1  0
 10 11  2  0
 11 12  1  0
 12 13  1  0
 13 14  2  0
 13 15  1  0
 15 16  2  0
 16 17  1  0
 16 18  1  0
 18 19  1  0
 19 20  2  0
 19 21  1  0
 21 22  1  0
 22 23  2  0
 23 24  1  0
 24 25  2  0
 25 26  1  0
 26 27  2  0
 21 28  1  0
 28 29  2  0
 12 30  2  0
 30  8  1  0
 28 15  1  0
 27 22  1  0
  1 31  1  0
  1 32  1  0
  1 33  1  0
  2 34  1  0
  2 35  1  0
  3 36  1  0
  3 37  1  0
  9 38  1  0
 10 39  1  0
 11 40  1  0
 23 41  1  0
 24 42  1  0
 25 43  1  0
 26 44  1  0
 27 45  1  0
 30 46  1  0
M  CHG  3   7  -1  17  -1  18  -1
M  END
>  <UniqueID>  (48) 
45

>  <SMILES>  (48) 
CCCS(=O)(=O)[N-]c1cccc(C(=O)c2c([O-])[n-]c(=O)n(-c3ccccc3)c2=O)c1

>  <Energy>  (48) 
63.73430473901924

>  <Genealogy>  (48) 
CCCS(=O)(=O)[N-]c1cccc(C(=O)c2c([O-])[n-]c(=O)n(-c3ccccc3)c2=O)c1 (protonated)
CCCS(=O)(=O)[N-]c1cccc(C(=O)c2c([O-])[n-]c(=O)n(-c3ccccc3)c2=O)c1 (3D coordinates assigned)
CCCS(=O)(=O)[N-]c1cccc(C(=O)c2c([O-])[n-]c(=O)n(-c3ccccc3)c2=O)c1 (optimized conformer: 63.73430473901924 kcal/mol)

>  <smiles>  (48) 
CCCS(=O)(=O)Nc1cccc(C(=O)c2c(O)[nH]c(=O)n(-c3ccccc3)c2=O)c1

>  <score_type>  (48) 
oracle

>  <origin>  (48) 
adg

>  <m_score__min__energy>  (48) 
-13.380000000000001

>  <m_primary>  (48) 
energy

$$$$
49:0
     RDKit          3D

 59 63  0  0  0  0  0  0  0  0999 V2000
   53.0740   28.2180   52.8800 C   0  0  0  0  0  0  0  0  0  0  0  0
   54.1250   29.0440   52.8220 C   0  0  0  0  0  0  0  0  0  0  0  0
   55.3980   28.6070   52.8970 N   0  0  0  0  0  0  0  0  0  0  0  0
   56.1990   29.6900   52.7990 C   0  0  0  0  0  0  0  0  0  0  0  0
   57.6890   29.6820   52.7920 C   0  0  0  0  0  0  0  0  0  0  0  0
   58.2790   28.9750   53.6560 O   0  0  0  0  0  0  0  0  0  0  0  0
   58.4900   30.4230   51.8350 N   0  0  2  0  0  0  0  0  0  0  0  0
   57.9760   31.8070   51.6360 C   0  0  0  0  0  0  0  0  0  0  0  0
   58.2000   32.3410   50.2080 C   0  0  0  0  0  0  0  0  0  0  0  0
   59.5630   31.8870   49.6660 C   0  0  2  0  0  0  0  0  0  0  0  0
   59.8040   32.4830   48.2980 C   0  0  0  0  0  0  0  0  0  0  0  0
   60.7860   33.2560   48.1280 O   0  0  0  0  0  0  0  0  0  0  0  0
   58.9370   32.1860   47.1860 N   0  0  0  0  0  0  0  0  0  0  0  0
   58.0560   33.2170   46.6270 C   0  0  0  0  0  0  0  0  0  0  0  0
   58.0520   33.1090   45.1070 C   0  0  0  0  0  0  0  0  0  0  0  0
   57.7180   31.7060   44.6760 C   0  0  0  0  0  0  0  0  0  0  0  0
   57.1230   31.4900   43.4220 C   0  0  0  0  0  0  0  0  0  0  0  0
   56.8340   30.1930   42.9920 C   0  0  0  0  0  0  0  0  0  0  0  0
   57.1490   29.1010   43.8020 C   0  0  0  0  0  0  0  0  0  0  0  0
   57.7540   29.3010   45.0450 C   0  0  0  0  0  0  0  0  0  0  0  0
   58.0470   30.6000   45.4930 C   0  0  0  0  0  0  0  0  0  0  0  0
   58.6790   30.7780   46.8570 C   0  0  0  0  0  0  0  0  0  0  0  0
   59.6740   30.3400   49.6390 C   0  0  0  0  0  0  0  0  0  0  0  0
   58.6740   29.6490   50.5860 C   0  0  0  0  0  0  0  0  0  0  0  0
   55.4300   30.8340   52.6620 C   0  0  0  0  0  0  0  0  0  0  0  0
   54.1020   30.4300   52.6770 C   0  0  0  0  0  0  0  0  0  0  0  0
   53.0230   31.2160   52.5160 C   0  0  0  0  0  0  0  0  0  0  0  0
   52.2550   31.3010   51.2610 C   0  0  0  0  0  0  0  0  0  0  0  0
   52.2610   30.3370   50.3230 N   0  0  0  0  0  0  0  0  0  0  0  0
   51.3950   30.8000   49.3960 C   0  0  0  0  0  0  0  0  0  0  0  0
   51.1340   30.1700   48.3390 O   0  0  0  0  0  0  0  0  0  0  0  0
   50.8240   31.9870   49.6960 N   0  0  0  0  0  0  0  0  0  0  0  0
   51.3720   32.2870   50.8840 C   0  0  0  0  0  0  0  0  0  0  0  0
   51.0390   33.4160   51.6230 O   0  0  0  0  0  0  0  0  0  0  0  0
   52.0529   28.6218   52.8145 H   0  0  0  0  0  0  0  0  0  0  0  0
   53.2311   27.1352   52.9932 H   0  0  0  0  0  0  0  0  0  0  0  0
   55.6840   27.6080   52.9880 H   0  0  0  0  0  0  0  0  0  0  0  0
   59.4490   30.5180   52.2520 H   0  0  0  0  0  0  0  0  0  0  0  0
   56.8961   31.8118   51.8451 H   0  0  0  0  0  0  0  0  0  0  0  0
   58.5337   32.4632   52.3204 H   0  0  0  0  0  0  0  0  0  0  0  0
   57.4048   31.9591   49.5509 H   0  0  0  0  0  0  0  0  0  0  0  0
   58.1784   33.4405   50.2343 H   0  0  0  0  0  0  0  0  0  0  0  0
   60.3465   32.2537   50.3455 H   0  0  0  0  0  0  0  0  0  0  0  0
   57.0342   33.0726   47.0079 H   0  0  0  0  0  0  0  0  0  0  0  0
   58.4197   34.2118   46.9239 H   0  0  0  0  0  0  0  0  0  0  0  0
   57.3016   33.8012   44.6975 H   0  0  0  0  0  0  0  0  0  0  0  0
   59.0530   33.3665   44.7307 H   0  0  0  0  0  0  0  0  0  0  0  0
   56.8834   32.3469   42.7752 H   0  0  0  0  0  0  0  0  0  0  0  0
   56.3575   30.0320   42.0137 H   0  0  0  0  0  0  0  0  0  0  0  0
   56.9203   28.0806   43.4608 H   0  0  0  0  0  0  0  0  0  0  0  0
   58.0027   28.4359   45.6772 H   0  0  0  0  0  0  0  0  0  0  0  0
   58.0018   30.3584   47.6155 H   0  0  0  0  0  0  0  0  0  0  0  0
   59.6485   30.2584   46.8429 H   0  0  0  0  0  0  0  0  0  0  0  0
   59.4829   29.9925   48.6130 H   0  0  0  0  0  0  0  0  0  0  0  0
   60.6862   30.0763   49.9794 H   0  0  0  0  0  0  0  0  0  0  0  0
   57.7037   29.5562   50.0762 H   0  0  0  0  0  0  0  0  0  0  0  0
   59.0733   28.6581   50.8482 H   0  0  0  0  0  0  0  0  0  0  0  0
   55.8005   31.8647   52.5608 H   0  0  0  0  0  0  0  0  0  0  0  0
   52.6954   31.8295   53.3682 H   0  0  0  0  0  0  0  0  0  0  0  0
  1  2  2  0
  2  3  1  0
  3  4  1  0
  4  5  1  0
  5  6  2  0
  5  7  1  0
  7  8  1  0
  8  9  1  0
  9 10  1  0
 10 11  1  0
 11 12  2  0
 11 13  1  0
 13 14  1  0
 14 15  1  0
 15 16  1  0
 16 17  2  0
 17 18  1  0
 18 19  2  0
 19 20  1  0
 20 21  2  0
 21 22  1  0
 10 23  1  0
 23 24  1  0
  4 25  2  0
 25 26  1  0
 26 27  2  3
 27 28  1  0
 28 29  1  0
 29 30  1  0
 30 31  2  0
 30 32  1  0
 32 33  1  0
 33 34  1  0
 26  2  1  0
 33 28  2  0
 24  7  1  0
 22 13  1  0
 21 16  1  0
  1 35  1  0
  1 36  1  0
  3 37  1  0
  7 38  1  1
  8 39  1  0
  8 40  1  0
  9 41  1  0
  9 42  1  0
 10 43  1  1
 14 44  1  0
 14 45  1  0
 15 46  1  0
 15 47  1  0
 17 48  1  0
 18 49  1  0
 19 50  1  0
 20 51  1  0
 22 52  1  0
 22 53  1  0
 23 54  1  0
 23 55  1  0
 24 56  1  0
 24 57  1  0
 25 58  1  0
 27 59  1  0
M  CHG  4   7   1  29  -1  32  -1  34  -1
M  END
>  <UniqueID>  (49) 
46

>  <SMILES>  (49) 
C=c1[nH]c(C(=O)[NH+]2CCC(C(=O)N3CCc4ccccc4C3)CC2)cc1=Cc1[n-]c(=O)[n-]c1[O-]

>  <Energy>  (49) 
142.3951114560733

>  <Genealogy>  (49) 
C=c1[nH]c(C(=O)[NH+]2CCC(C(=O)N3CCc4ccccc4C3)CC2)cc1=Cc1[n-]c(=O)[n-]c1[O-] (protonated)
C=c1[nH]c(C(=O)[NH+]2CCC(C(=O)N3CCc4ccccc4C3)CC2)cc1=Cc1[n-]c(=O)[n-]c1[O-] (3D coordinates assigned)
C=c1[nH]c(C(=O)[NH+]2CCC(C(=O)N3CCc4ccccc4C3)CC2)cc1=Cc1[n-]c(=O)[n-]c1[O-] (nonaromatic ring conformer: 142.3951114560733 kcal/mol)

>  <smiles>  (49) 
C=c1[nH]c(C(=O)N2CCC(C(=O)N3CCc4ccccc4C3)CC2)cc1=Cc1[nH]c(=O)[nH]c1O

>  <score_type>  (49) 
oracle

>  <origin>  (49) 
adg

>  <m_score__min__energy>  (49) 
-18.09

>  <m_primary>  (49) 
energy

$$$$
50:0
     RDKit          3D

 52 55  0  0  0  0  0  0  0  0999 V2000
   58.9160   33.7470   51.7460 C   0  0  0  0  0  0  0  0  0  0  0  0
   60.2430   33.1180   51.3230 C   0  0  0  0  0  0  0  0  0  0  0  0
   60.5940   33.4300   49.8890 C   0  0  0  0  0  0  0  0  0  0  0  0
   61.2460   34.4770   49.6250 O   0  0  0  0  0  0  0  0  0  0  0  0
   60.1780   32.5650   48.8130 N   0  0  0  0  0  0  0  0  0  0  0  0
   60.9560   32.5680   47.5650 C   0  0  0  0  0  0  0  0  0  0  0  0
   60.4290   31.5330   46.5620 C   0  0  0  0  0  0  0  0  0  0  0  0
   60.1410   30.2000   47.2730 C   0  0  0  0  0  0  0  0  0  0  0  0
   59.6800   29.1970   46.3050 N   0  0  0  0  0  0  0  0  0  0  0  0
   59.5560   27.8090   46.6420 C   0  0  0  0  0  0  0  0  0  0  0  0
   59.8820   27.3990   47.7890 O   0  0  0  0  0  0  0  0  0  0  0  0
   59.0790   26.8260   45.6190 C   0  0  0  0  0  0  0  0  0  0  0  0
   58.3260   27.5350   44.5440 C   0  0  0  0  0  0  0  0  0  0  0  0
   58.1360   27.0480   43.3040 N   0  0  0  0  0  0  0  0  0  0  0  0
   57.4150   27.9500   42.6580 N   0  0  0  0  0  0  0  0  0  0  0  0
   57.1870   28.9460   43.5330 C   0  0  0  0  0  0  0  0  0  0  0  0
   56.4340   30.1930   43.2100 C   0  0  0  0  0  0  0  0  0  0  0  0
   57.0310   31.3460   43.9470 C   0  0  0  0  0  0  0  0  0  0  0  0
   58.0350   32.1130   43.4430 N   0  0  0  0  0  0  0  0  0  0  0  0
   58.2500   32.9800   44.4460 C   0  0  0  0  0  0  0  0  0  0  0  0
   59.1810   34.0160   44.4980 C   0  0  0  0  0  0  0  0  0  0  0  0
   59.2260   34.7940   45.6710 C   0  0  0  0  0  0  0  0  0  0  0  0
   58.3470   34.5210   46.7460 C   0  0  0  0  0  0  0  0  0  0  0  0
   57.4190   33.4660   46.6580 C   0  0  0  0  0  0  0  0  0  0  0  0
   57.4070   32.7190   45.4830 C   0  0  0  0  0  0  0  0  0  0  0  0
   56.6550   31.7020   45.1650 O   0  0  0  0  0  0  0  0  0  0  0  0
   57.7450   28.7010   44.6940 O   0  0  0  0  0  0  0  0  0  0  0  0
   59.1040   30.3660   48.4140 C   0  0  0  0  0  0  0  0  0  0  0  0
   58.9110   31.8210   48.8710 C   0  0  0  0  0  0  0  0  0  0  0  0
   58.8570   33.7750   52.8441 H   0  0  0  0  0  0  0  0  0  0  0  0
   58.8526   34.7710   51.3492 H   0  0  0  0  0  0  0  0  0  0  0  0
   58.0832   33.1478   51.3492 H   0  0  0  0  0  0  0  0  0  0  0  0
   61.0409   33.5041   51.9744 H   0  0  0  0  0  0  0  0  0  0  0  0
   60.1421   32.0265   51.4146 H   0  0  0  0  0  0  0  0  0  0  0  0
   60.8952   33.5677   47.1100 H   0  0  0  0  0  0  0  0  0  0  0  0
   61.9962   32.3075   47.8101 H   0  0  0  0  0  0  0  0  0  0  0  0
   59.5012   31.9090   46.1061 H   0  0  0  0  0  0  0  0  0  0  0  0
   61.1901   31.3674   45.7853 H   0  0  0  0  0  0  0  0  0  0  0  0
   61.0812   29.8565   47.7291 H   0  0  0  0  0  0  0  0  0  0  0  0
   59.4510   29.4920   45.3280 H   0  0  0  0  0  0  0  0  0  0  0  0
   59.9446   26.3099   45.1781 H   0  0  0  0  0  0  0  0  0  0  0  0
   58.4155   26.0940   46.1027 H   0  0  0  0  0  0  0  0  0  0  0  0
   56.4882   30.3831   42.1279 H   0  0  0  0  0  0  0  0  0  0  0  0
   55.3830   30.0725   43.5115 H   0  0  0  0  0  0  0  0  0  0  0  0
   59.8561   34.2186   43.6535 H   0  0  0  0  0  0  0  0  0  0  0  0
   59.9489   35.6191   45.7522 H   0  0  0  0  0  0  0  0  0  0  0  0
   58.3891   35.1371   47.6563 H   0  0  0  0  0  0  0  0  0  0  0  0
   56.7301   33.2406   47.4854 H   0  0  0  0  0  0  0  0  0  0  0  0
   58.1355   29.9822   48.0608 H   0  0  0  0  0  0  0  0  0  0  0  0
   59.4884   29.8069   49.2798 H   0  0  0  0  0  0  0  0  0  0  0  0
   58.1766   32.3098   48.2139 H   0  0  0  0  0  0  0  0  0  0  0  0
   58.5549   31.8167   49.9118 H   0  0  0  0  0  0  0  0  0  0  0  0
  1  2  1  0
  2  3  1  0
  3  4  2  0
  3  5  1  0
  5  6  1  0
  6  7  1  0
  7  8  1  0
  8  9  1  0
  9 10  1  0
 10 11  2  0
 10 12  1  0
 12 13  1  0
 13 14  2  0
 14 15  1  0
 15 16  2  0
 16 17  1  0
 17 18  1  0
 18 19  2  0
 19 20  1  0
 20 21  2  0
 21 22  1  0
 22 23  2  0
 23 24  1  0
 24 25  2  0
 25 26  1  0
 16 27  1  0
  8 28  1  0
 28 29  1  0
 29  5  1  0
 27 13  1  0
 26 18  1  0
 25 20  1  0
  1 30  1  0
  1 31  1  0
  1 32  1  0
  2 33  1  0
  2 34  1  0
  6 35  1  0
  6 36  1  0
  7 37  1  0
  7 38  1  0
  8 39  1  0
  9 40  1  0
 12 41  1  0
 12 42  1  0
 17 43  1  0
 17 44  1  0
 21 45  1  0
 22 46  1  0
 23 47  1  0
 24 48  1  0
 28 49  1  0
 28 50  1  0
 29 51  1  0
 29 52  1  0
M  END
>  <UniqueID>  (50) 
47

>  <SMILES>  (50) 
CCC(=O)N1CCC(NC(=O)Cc2nnc(Cc3nc4ccccc4o3)o2)CC1

>  <Energy>  (50) 
120.53254443034521

>  <Genealogy>  (50) 
CCC(=O)N1CCC(NC(=O)Cc2nnc(Cc3nc4ccccc4o3)o2)CC1 (3D coordinates assigned)
CCC(=O)N1CCC(NC(=O)Cc2nnc(Cc3nc4ccccc4o3)o2)CC1 (nonaromatic ring conformer: 120.53254443034521 kcal/mol)

>  <smiles>  (50) 
CCC(=O)N1CCC(NC(=O)Cc2nnc(Cc3nc4ccccc4o3)o2)CC1

>  <score_type>  (50) 
oracle

>  <origin>  (50) 
adg

>  <m_score__min__energy>  (50) 
-9.1600000000000001

>  <m_primary>  (50) 
energy

$$$$
51:0
     RDKit          3D

 35 37  0  0  0  0  0  0  0  0999 V2000
   57.4720   30.0850   44.7390 C   0  0  0  0  0  0  0  0  0  0  0  0
   57.7530   30.7140   45.9710 O   0  0  0  0  0  0  0  0  0  0  0  0
   58.4710   31.9180   45.7550 C   0  0  1  0  0  0  0  0  0  0  0  0
   57.6010   33.0780   46.0950 C   0  0  0  0  0  0  0  0  0  0  0  0
   57.6300   33.3180   47.4030 C   0  0  0  0  0  0  0  0  0  0  0  0
   58.7620   32.5890   48.0380 C   0  0  1  0  0  0  0  0  0  0  0  0
   58.2310   31.5030   48.8020 O   0  0  0  0  0  0  0  0  0  0  0  0
   58.2880   31.4420   50.1990 C   0  0  0  0  0  0  0  0  0  0  0  0
   58.9870   32.5230   50.9510 C   0  0  0  0  0  0  0  0  0  0  0  0
   57.7930   30.4660   50.8250 O   0  0  0  0  0  0  0  0  0  0  0  0
   59.5740   32.1160   46.8010 C   0  0  1  0  0  0  0  0  0  0  0  0
   60.3080   30.8000   47.0660 C   0  0  0  0  0  0  0  0  0  0  0  0
   61.5900   30.7340   47.4280 C   0  0  0  0  0  0  0  0  0  0  0  0
   62.4350   31.9240   47.4560 C   0  0  0  0  0  0  0  0  0  0  0  0
   63.6040   31.8530   47.9250 O   0  0  0  0  0  0  0  0  0  0  0  0
   61.9330   33.1850   46.9080 C   0  0  0  0  0  0  0  0  0  0  0  0
   62.6850   34.1990   46.9060 O   0  0  0  0  0  0  0  0  0  0  0  0
   60.5490   33.2510   46.3620 C   0  0  0  0  0  0  0  0  0  0  0  0
   60.2280   34.3420   45.5930 C   0  0  0  0  0  0  0  0  0  0  0  0
   58.9240   34.7690   44.9870 C   0  0  0  0  0  0  0  0  0  0  0  0
   57.7180   34.2340   45.2260 C   0  0  0  0  0  0  0  0  0  0  0  0
   57.0298   29.0951   44.9251 H   0  0  0  0  0  0  0  0  0  0  0  0
   56.7636   30.7012   44.1659 H   0  0  0  0  0  0  0  0  0  0  0  0
   58.4036   29.9685   44.1659 H   0  0  0  0  0  0  0  0  0  0  0  0
   58.8329   31.8603   44.7178 H   0  0  0  0  0  0  0  0  0  0  0  0
   56.9187   33.9634   47.9392 H   0  0  0  0  0  0  0  0  0  0  0  0
   59.3801   33.1717   48.7368 H   0  0  0  0  0  0  0  0  0  0  0  0
   58.8749   32.3496   52.0314 H   0  0  0  0  0  0  0  0  0  0  0  0
   60.0551   32.5208   50.6882 H   0  0  0  0  0  0  0  0  0  0  0  0
   58.5467   33.4962   50.6882 H   0  0  0  0  0  0  0  0  0  0  0  0
   59.7493   29.8593   46.9520 H   0  0  0  0  0  0  0  0  0  0  0  0
   62.0198   29.7620   47.7115 H   0  0  0  0  0  0  0  0  0  0  0  0
   61.0706   35.0182   45.3860 H   0  0  0  0  0  0  0  0  0  0  0  0
   58.9609   35.6060   44.2742 H   0  0  0  0  0  0  0  0  0  0  0  0
   56.8198   34.6703   44.7646 H   0  0  0  0  0  0  0  0  0  0  0  0
  1  2  1  0
  2  3  1  0
  3  4  1  0
  4  5  2  0
  5  6  1  0
  6  7  1  0
  7  8  1  0
  8  9  1  0
  8 10  2  0
  6 11  1  0
 11 12  1  1
 12 13  2  0
 13 14  1  0
 14 15  2  0
 14 16  1  0
 16 17  2  0
 16 18  1  0
 18 19  2  0
 19 20  1  0
 20 21  2  0
 11  3  1  0
 21  4  1  0
 18 11  1  0
  1 22  1  0
  1 23  1  0
  1 24  1  0
  3 25  1  6
  5 26  1  0
  6 27  1  1
  9 28  1  0
  9 29  1  0
  9 30  1  0
 12 31  1  0
 13 32  1  0
 19 33  1  0
 20 34  1  0
 21 35  1  0
M  END
>  <UniqueID>  (51) 
48

>  <SMILES>  (51) 
CO[C@H]1C2=C[C@@H](OC(C)=O)C13C=CC(=O)C(=O)C3=CC=C2

>  <Energy>  (51) 
86.73798495492831

>  <Genealogy>  (51) 
CO[C@H]1C2=C[C@@H](OC(C)=O)C13C=CC(=O)C(=O)C3=CC=C2 (chirality)
CO[C@H]1C2=C[C@@H](OC(C)=O)C13C=CC(=O)C(=O)C3=CC=C2 (3D coordinates assigned)
CO[C@H]1C2=C[C@@H](OC(C)=O)C13C=CC(=O)C(=O)C3=CC=C2 (nonaromatic ring conformer: 86.73798495492831 kcal/mol)

>  <smiles>  (51) 
COC1C2=CC(OC(C)=O)C13C=CC(=O)C(=O)C3=CC=C2

>  <score_type>  (51) 
oracle

>  <origin>  (51) 
adg

>  <m_score__min__energy>  (51) 
-6

>  <m_primary>  (51) 
energy

$$$$
52:0
     RDKit          3D

 42 45  0  0  0  0  0  0  0  0999 V2000
   57.4370   33.9850   46.1970 N   0  0  0  0  0  0  0  0  0  0  0  0
   58.2630   33.1550   45.3770 C   0  0  0  0  0  0  0  0  0  0  0  0
   59.5140   33.3070   45.4210 O   0  0  0  0  0  0  0  0  0  0  0  0
   57.6810   32.1110   44.4990 C   0  0  0  0  0  0  0  0  0  0  0  0
   57.7780   32.2020   43.1000 C   0  0  0  0  0  0  0  0  0  0  0  0
   57.2210   31.2120   42.2870 C   0  0  0  0  0  0  0  0  0  0  0  0
   56.5530   30.1280   42.8570 C   0  0  0  0  0  0  0  0  0  0  0  0
   56.4340   30.0280   44.2530 C   0  0  0  0  0  0  0  0  0  0  0  0
   55.7130   28.9490   44.8660 N   0  0  0  0  0  0  0  0  0  0  0  0
   56.2980   27.8660   45.6050 C   0  0  0  0  0  0  0  0  0  0  0  0
   55.5540   26.9220   45.9820 O   0  0  0  0  0  0  0  0  0  0  0  0
   57.7580   27.8050   45.8790 C   0  0  0  0  0  0  0  0  0  0  0  0
   58.4130   28.9110   46.4410 C   0  0  0  0  0  0  0  0  0  0  0  0
   59.7720   28.8500   46.7780 C   0  0  0  0  0  0  0  0  0  0  0  0
   60.4300   29.9890   47.4650 C   0  0  0  0  0  0  0  0  0  0  0  0
   60.0230   30.3810   48.7690 C   0  0  0  0  0  0  0  0  0  0  0  0
   60.6440   31.4610   49.4240 C   0  0  0  0  0  0  0  0  0  0  0  0
   61.6640   32.1310   48.7520 C   0  0  0  0  0  0  0  0  0  0  0  0
   62.3790   33.1790   49.1900 N   0  0  0  0  0  0  0  0  0  0  0  0
   63.2430   33.4800   48.1940 C   0  0  0  0  0  0  0  0  0  0  0  0
   63.0740   32.6160   47.1160 C   0  0  0  0  0  0  0  0  0  0  0  0
   62.0620   31.7620   47.4970 C   0  0  0  0  0  0  0  0  0  0  0  0
   61.4710   30.7000   46.8180 C   0  0  0  0  0  0  0  0  0  0  0  0
   60.4790   27.6760   46.4780 C   0  0  0  0  0  0  0  0  0  0  0  0
   59.8440   26.6240   45.8990 N   0  0  0  0  0  0  0  0  0  0  0  0
   58.5190   26.6530   45.5970 C   0  0  0  0  0  0  0  0  0  0  0  0
   57.9840   25.6360   45.0830 O   0  0  0  0  0  0  0  0  0  0  0  0
   57.0250   31.0010   45.0660 C   0  0  0  0  0  0  0  0  0  0  0  0
   56.4180   33.7970   46.3180 H   0  0  0  0  0  0  0  0  0  0  0  0
   57.8670   34.7490   46.7640 H   0  0  0  0  0  0  0  0  0  0  0  0
   58.2956   33.0579   42.6424 H   0  0  0  0  0  0  0  0  0  0  0  0
   57.3094   31.2874   41.1932 H   0  0  0  0  0  0  0  0  0  0  0  0
   56.1186   29.3501   42.2119 H   0  0  0  0  0  0  0  0  0  0  0  0
   57.8516   29.8399   46.6198 H   0  0  0  0  0  0  0  0  0  0  0  0
   59.2126   29.8336   49.2726 H   0  0  0  0  0  0  0  0  0  0  0  0
   60.3339   31.7663   50.4343 H   0  0  0  0  0  0  0  0  0  0  0  0
   62.2900   33.6660   50.1100 H   0  0  0  0  0  0  0  0  0  0  0  0
   63.9791   34.2966   48.2309 H   0  0  0  0  0  0  0  0  0  0  0  0
   63.6282   32.6151   46.1658 H   0  0  0  0  0  0  0  0  0  0  0  0
   61.8030   30.4206   45.8072 H   0  0  0  0  0  0  0  0  0  0  0  0
   61.5515   27.6071   46.7125 H   0  0  0  0  0  0  0  0  0  0  0  0
   56.9769   30.8981   46.1601 H   0  0  0  0  0  0  0  0  0  0  0  0
  1  2  1  0
  2  3  2  0
  2  4  1  0
  4  5  2  0
  5  6  1  0
  6  7  2  0
  7  8  1  0
  8  9  1  0
  9 10  1  0
 10 11  2  0
 10 12  1  0
 12 13  2  0
 13 14  1  0
 14 15  1  0
 15 16  2  0
 16 17  1  0
 17 18  2  0
 18 19  1  0
 19 20  1  0
 20 21  2  0
 21 22  1  0
 22 23  2  0
 14 24  2  0
 24 25  1  0
 25 26  1  0
 26 27  2  0
  8 28  2  0
 28  4  1  0
 26 12  1  0
 23 15  1  0
 22 18  1  0
  1 29  1  0
  1 30  1  0
  5 31  1  0
  6 32  1  0
  7 33  1  0
 13 34  1  0
 16 35  1  0
 17 36  1  0
 19 37  1  0
 20 38  1  0
 21 39  1  0
 23 40  1  0
 24 41  1  0
 28 42  1  0
M  CHG  2   9  -1  25  -1
M  END
>  <UniqueID>  (52) 
49

>  <SMILES>  (52) 
NC(=O)c1cccc([N-]C(=O)c2cc(-c3ccc4[nH]ccc4c3)c[n-]c2=O)c1

>  <Energy>  (52) 
93.32166238742322

>  <Genealogy>  (52) 
NC(=O)c1cccc([N-]C(=O)c2cc(-c3ccc4[nH]ccc4c3)c[n-]c2=O)c1 (protonated)
NC(=O)c1cccc([N-]C(=O)c2cc(-c3ccc4[nH]ccc4c3)c[n-]c2=O)c1 (3D coordinates assigned)
NC(=O)c1cccc([N-]C(=O)c2cc(-c3ccc4[nH]ccc4c3)c[n-]c2=O)c1 (optimized conformer: 93.32166238742322 kcal/mol)

>  <smiles>  (52) 
NC(=O)c1cccc(NC(=O)c2cc(-c3ccc4[nH]ccc4c3)c[nH]c2=O)c1

>  <score_type>  (52) 
oracle

>  <origin>  (52) 
adg

>  <m_score__min__energy>  (52) 
-12.34

>  <m_primary>  (52) 
energy

$$$$
53:0
     RDKit          3D

 48 51  0  0  0  0  0  0  0  0999 V2000
   52.9110   28.4380   53.8410 C   0  0  0  0  0  0  0  0  0  0  0  0
   53.9660   29.0490   53.2770 C   0  0  0  0  0  0  0  0  0  0  0  0
   54.0040   30.3430   52.7330 C   0  0  0  0  0  0  0  0  0  0  0  0
   53.0190   31.2250   52.4710 C   0  0  0  0  0  0  0  0  0  0  0  0
   52.2740   31.3320   51.2100 C   0  0  0  0  0  0  0  0  0  0  0  0
   52.2660   30.3730   50.2670 N   0  0  0  0  0  0  0  0  0  0  0  0
   51.3630   30.8260   49.3700 C   0  0  0  0  0  0  0  0  0  0  0  0
   51.0820   30.1970   48.3170 O   0  0  0  0  0  0  0  0  0  0  0  0
   50.7750   31.9970   49.6960 N   0  0  0  0  0  0  0  0  0  0  0  0
   51.3520   32.2970   50.8710 C   0  0  0  0  0  0  0  0  0  0  0  0
   51.0230   33.4140   51.6300 O   0  0  0  0  0  0  0  0  0  0  0  0
   55.3350   30.6080   52.4630 C   0  0  0  0  0  0  0  0  0  0  0  0
   56.0470   29.4730   52.7880 C   0  0  0  0  0  0  0  0  0  0  0  0
   57.5000   29.3200   52.5790 C   0  0  0  0  0  0  0  0  0  0  0  0
   58.1640   28.6460   53.4110 O   0  0  0  0  0  0  0  0  0  0  0  0
   58.1580   29.9120   51.4390 N   0  0  0  0  0  0  0  0  0  0  0  0
   59.4610   29.4060   50.9810 C   0  0  0  0  0  0  0  0  0  0  0  0
   60.4870   30.5450   50.9740 C   0  0  0  0  0  0  0  0  0  0  0  0
   59.9230   31.7700   50.3860 N   0  0  0  0  0  0  0  0  0  0  0  0
   60.5830   33.0270   50.6090 C   0  0  0  0  0  0  0  0  0  0  0  0
   59.9380   33.9870   51.1090 O   0  0  0  0  0  0  0  0  0  0  0  0
   62.0050   33.2160   50.2770 C   0  0  0  0  0  0  0  0  0  0  0  0
   62.9880   33.7450   51.1060 C   0  0  0  0  0  0  0  0  0  0  0  0
   64.2590   33.7560   50.5200 C   0  0  0  0  0  0  0  0  0  0  0  0
   64.2880   33.2250   49.2370 C   0  0  0  0  0  0  0  0  0  0  0  0
   62.7300   32.7380   48.8360 S   0  0  0  0  0  0  0  0  0  0  0  0
   58.5720   31.7490   49.8130 C   0  0  0  0  0  0  0  0  0  0  0  0
   57.5940   31.1210   50.8130 C   0  0  0  0  0  0  0  0  0  0  0  0
   55.2170   28.5190   53.2740 N   0  0  0  0  0  0  0  0  0  0  0  0
   55.6100   27.2200   53.8340 C   0  0  0  0  0  0  0  0  0  0  0  0
   53.0123   27.4149   54.2322 H   0  0  0  0  0  0  0  0  0  0  0  0
   51.9457   28.9607   53.9117 H   0  0  0  0  0  0  0  0  0  0  0  0
   52.7491   31.9274   53.2734 H   0  0  0  0  0  0  0  0  0  0  0  0
   55.7471   31.5468   52.0644 H   0  0  0  0  0  0  0  0  0  0  0  0
   59.8029   28.6107   51.6596 H   0  0  0  0  0  0  0  0  0  0  0  0
   59.3570   29.0046   49.9622 H   0  0  0  0  0  0  0  0  0  0  0  0
   60.7970   30.7541   52.0085 H   0  0  0  0  0  0  0  0  0  0  0  0
   61.3480   30.2325   50.3649 H   0  0  0  0  0  0  0  0  0  0  0  0
   62.7868   34.1177   52.1212 H   0  0  0  0  0  0  0  0  0  0  0  0
   65.1519   34.1487   51.0284 H   0  0  0  0  0  0  0  0  0  0  0  0
   65.1766   33.1382   48.5945 H   0  0  0  0  0  0  0  0  0  0  0  0
   58.2544   32.7780   49.5885 H   0  0  0  0  0  0  0  0  0  0  0  0
   58.5787   31.1534   48.8883 H   0  0  0  0  0  0  0  0  0  0  0  0
   57.3660   31.8563   51.5987 H   0  0  0  0  0  0  0  0  0  0  0  0
   56.6832   30.8325   50.2678 H   0  0  0  0  0  0  0  0  0  0  0  0
   55.5936   27.2742   54.9325 H   0  0  0  0  0  0  0  0  0  0  0  0
   54.9058   26.4462   53.4945 H   0  0  0  0  0  0  0  0  0  0  0  0
   56.6251   26.9663   53.4945 H   0  0  0  0  0  0  0  0  0  0  0  0
  1  2  2  0
  2  3  1  0
  3  4  2  3
  4  5  1  0
  5  6  1  0
  6  7  1  0
  7  8  2  0
  7  9  1  0
  9 10  1  0
 10 11  1  0
  3 12  1  0
 12 13  2  0
 13 14  1  0
 14 15  2  0
 14 16  1  0
 16 17  1  0
 17 18  1  0
 18 19  1  0
 19 20  1  0
 20 21  2  0
 20 22  1  0
 22 23  2  0
 23 24  1  0
 24 25  2  0
 25 26  1  0
 19 27  1  0
 27 28  1  0
 13 29  1  0
 29 30  1  0
 29  2  1  0
 10  5  2  0
 28 16  1  0
 26 22  1  0
  1 31  1  0
  1 32  1  0
  4 33  1  0
 12 34  1  0
 17 35  1  0
 17 36  1  0
 18 37  1  0
 18 38  1  0
 23 39  1  0
 24 40  1  0
 25 41  1  0
 27 42  1  0
 27 43  1  0
 28 44  1  0
 28 45  1  0
 30 46  1  0
 30 47  1  0
 30 48  1  0
M  CHG  3   6  -1   9  -1  11  -1
M  END
>  <UniqueID>  (53) 
50

>  <SMILES>  (53) 
C=c1c(=Cc2[n-]c(=O)[n-]c2[O-])cc(C(=O)N2CCN(C(=O)c3cccs3)CC2)n1C

>  <Energy>  (53) 
158.22302833829718

>  <Genealogy>  (53) 
C=c1c(=Cc2[n-]c(=O)[n-]c2[O-])cc(C(=O)N2CCN(C(=O)c3cccs3)CC2)n1C (protonated)
C=c1c(=Cc2[n-]c(=O)[n-]c2[O-])cc(C(=O)N2CCN(C(=O)c3cccs3)CC2)n1C (3D coordinates assigned)
C=c1c(=Cc2[n-]c(=O)[n-]c2[O-])cc(C(=O)N2CCN(C(=O)c3cccs3)CC2)n1C (nonaromatic ring conformer: 158.22302833829718 kcal/mol)

>  <smiles>  (53) 
C=c1c(=Cc2[nH]c(=O)[nH]c2O)cc(C(=O)N2CCN(C(=O)c3cccs3)CC2)n1C

>  <score_type>  (53) 
oracle

>  <origin>  (53) 
adg

>  <m_score__min__energy>  (53) 
-17.010000000000002

>  <m_primary>  (53) 
energy

$$$$
54:0
     RDKit          3D

 62 65  0  0  1  0  0  0  0  0999 V2000
   58.4720   34.2350   52.4670 C   0  0  0  0  0  0  0  0  0  0  0  0
   59.3960   33.3220   51.6520 C   0  0  0  0  0  0  0  0  0  0  0  0
   58.9290   31.9050   51.8490 C   0  0  0  0  0  0  0  0  0  0  0  0
   59.8800   29.2270   47.2130 N   0  0  0  0  0  0  0  0  0  0  0  0
   59.4560   30.3560   47.6910 C   0  0  0  0  0  0  0  0  0  0  0  0
   58.5370   32.5570   48.7880 N   0  0  0  0  0  0  0  0  0  0  0  0
   58.9570   32.6060   47.5190 C   0  0  0  0  0  0  0  0  0  0  0  0
   58.9360   33.8470   46.7560 N   0  0  0  0  0  0  0  0  0  0  0  0
   57.9440   34.0890   45.7380 C   0  0  0  0  0  0  0  0  0  0  0  0
   57.7330   33.0400   44.7380 C   0  0  0  0  0  0  0  0  0  0  0  0
   57.0210   31.9050   45.1490 C   0  0  0  0  0  0  0  0  0  0  0  0
   56.7660   30.8530   44.2820 C   0  0  0  0  0  0  0  0  0  0  0  0
   57.1920   30.8630   42.9850 C   0  0  0  0  0  0  0  0  0  0  0  0
   57.8950   31.9720   42.5600 C   0  0  0  0  0  0  0  0  0  0  0  0
   58.1530   33.0370   43.4380 C   0  0  0  0  0  0  0  0  0  0  0  0
   60.0100   34.7560   47.0930 C   0  0  0  0  0  0  0  0  0  0  0  0
   61.2220   34.1630   47.6330 C   0  0  0  0  0  0  0  0  0  0  0  0
   62.1170   33.5900   46.7130 C   0  0  0  0  0  0  0  0  0  0  0  0
   63.2960   33.0030   47.1200 C   0  0  0  0  0  0  0  0  0  0  0  0
   63.6420   32.9560   48.4390 C   0  0  0  0  0  0  0  0  0  0  0  0
   62.7660   33.5180   49.3530 C   0  0  0  0  0  0  0  0  0  0  0  0
   61.5740   34.1130   48.9640 C   0  0  0  0  0  0  0  0  0  0  0  0
   59.4240   31.4770   46.9660 N   0  0  0  0  0  0  0  0  0  0  0  0
   58.5660   31.4250   49.5350 C   0  0  0  0  0  0  0  0  0  0  0  0
   58.1640   31.4360   50.7340 N   0  0  0  0  0  0  0  0  0  0  0  0
   59.0270   28.4420   46.3950 C   0  0  0  0  0  0  0  0  0  0  0  0
   59.3700   28.3700   45.0420 C   0  0  0  0  0  0  0  0  0  0  0  0
   58.6190   27.6350   44.1460 C   0  0  0  0  0  0  0  0  0  0  0  0
   57.5220   26.9730   44.6040 C   0  0  0  0  0  0  0  0  0  0  0  0
   57.1870   27.0460   45.9330 C   0  0  0  0  0  0  0  0  0  0  0  0
   56.0200   26.3270   46.3550 N   0  0  0  0  0  0  0  0  0  0  0  0
   55.6860   25.2510   45.7330 C   0  0  0  0  0  0  0  0  0  0  0  0
   55.2950   23.8980   44.9550 S   0  0  0  0  0  0  0  0  0  0  0  0
   57.9180   27.7720   46.8580 C   0  0  0  0  0  0  0  0  0  0  0  0
   59.0330   30.2960   48.9870 N   0  0  0  0  0  0  0  0  0  0  0  0
   58.6431   34.0659   53.5404 H   0  0  0  0  0  0  0  0  0  0  0  0
   58.6863   35.2859   52.2226 H   0  0  0  0  0  0  0  0  0  0  0  0
   57.4238   34.0081   52.2226 H   0  0  0  0  0  0  0  0  0  0  0  0
   59.3421   33.5895   50.5864 H   0  0  0  0  0  0  0  0  0  0  0  0
   60.4387   33.4337   51.9841 H   0  0  0  0  0  0  0  0  0  0  0  0
   59.8075   31.2553   51.9762 H   0  0  0  0  0  0  0  0  0  0  0  0
   58.2846   31.8789   52.7401 H   0  0  0  0  0  0  0  0  0  0  0  0
   58.1450   33.3890   49.2400 H   0  0  0  0  0  0  0  0  0  0  0  0
   56.9835   34.2573   46.2470 H   0  0  0  0  0  0  0  0  0  0  0  0
   58.3303   34.9467   45.1679 H   0  0  0  0  0  0  0  0  0  0  0  0
   56.6554   31.8471   46.1848 H   0  0  0  0  0  0  0  0  0  0  0  0
   56.2028   29.9832   44.6510 H   0  0  0  0  0  0  0  0  0  0  0  0
   56.9836   30.0222   42.3070 H   0  0  0  0  0  0  0  0  0  0  0  0
   58.2570   32.0221   41.5225 H   0  0  0  0  0  0  0  0  0  0  0  0
   58.7164   33.9045   43.0637 H   0  0  0  0  0  0  0  0  0  0  0  0
   60.2848   35.3011   46.1779 H   0  0  0  0  0  0  0  0  0  0  0  0
   59.6118   35.3867   47.9015 H   0  0  0  0  0  0  0  0  0  0  0  0
   61.8704   33.6105   45.6412 H   0  0  0  0  0  0  0  0  0  0  0  0
   63.9694   32.5650   46.3685 H   0  0  0  0  0  0  0  0  0  0  0  0
   64.5829   32.4885   48.7649 H   0  0  0  0  0  0  0  0  0  0  0  0
   63.0235   33.4919   50.4221 H   0  0  0  0  0  0  0  0  0  0  0  0
   60.9064   34.5472   49.7228 H   0  0  0  0  0  0  0  0  0  0  0  0
   60.2580   28.9109   44.6828 H   0  0  0  0  0  0  0  0  0  0  0  0
   58.9018   27.5857   43.0841 H   0  0  0  0  0  0  0  0  0  0  0  0
   56.9056   26.3812   43.9113 H   0  0  0  0  0  0  0  0  0  0  0  0
   57.6248   27.8114   47.9175 H   0  0  0  0  0  0  0  0  0  0  0  0
   59.0580   29.4230   49.5480 H   0  0  0  0  0  0  0  0  0  0  0  0
  1  2  1  0
  2  3  1  0
  3  4  1  0
  4  5  2  0
  5  6  1  0
  6  7  1  0
  7  8  1  0
  8  9  1  0
  9 10  1  0
 10 11  2  0
 11 12  1  0
 12 13  2  0
 13 14  1  0
 14 15  2  0
  8 16  1  0
 16 17  1  0
 17 18  2  0
 18 19  1  0
 19 20  2  0
 20 21  1  0
 21 22  2  0
  7 23  2  0
 23 24  1  0
 24 25  2  0
 25 26  1  0
 26 27  2  0
 27 28  1  0
 28 29  2  0
 29 30  1  0
 30 31  1  0
 31 32  2  0
 32 33  2  0
 30 34  2  0
 24 35  1  0
 35  5  1  0
 15 10  1  0
 22 17  1  0
 34 26  1  0
  1 36  1  0
  1 37  1  0
  1 38  1  0
  2 39  1  0
  2 40  1  0
  3 41  1  0
  3 42  1  0
  6 43  1  0
  9 44  1  0
  9 45  1  0
 11 46  1  0
 12 47  1  0
 13 48  1  0
 14 49  1  0
 15 50  1  0
 16 51  1  0
 16 52  1  0
 18 53  1  0
 19 54  1  0
 20 55  1  0
 21 56  1  0
 22 57  1  0
 27 58  1  0
 28 59  1  0
 29 60  1  0
 34 61  1  0
 35 62  1  0
M  END
>  <smiles>  (54) 
CCCN=c1[nH]c(N(Cc2ccccc2)Cc2ccccc2)nc(=Nc2cccc(N=C=S)c2)[nH]1

>  <score_type>  (54) 
oracle

>  <origin>  (54) 
adg

>  <m_score__min__energy>  (54) 
-9.2100000000000009

>  <m_primary>  (54) 
energy

$$$$
55:0
     RDKit          3D

 57 60  0  0  1  0  0  0  0  0999 V2000
   56.4820   29.0140   42.3780 N   0  0  0  0  0  0  0  0  0  0  0  0
   56.8140   30.0010   43.7540 S   0  0  0  0  0  0  0  0  0  0  0  0
   57.4090   31.3200   43.3930 O   0  0  0  0  0  0  0  0  0  0  0  0
   55.4950   30.2810   44.4390 O   0  0  0  0  0  0  0  0  0  0  0  0
   57.8770   29.1800   44.8550 C   0  0  0  0  0  0  0  0  0  0  0  0
   57.4430   28.5190   45.9840 C   0  0  0  0  0  0  0  0  0  0  0  0
   58.3240   27.8670   46.8500 C   0  0  0  0  0  0  0  0  0  0  0  0
   59.6710   27.8750   46.5840 C   0  0  0  0  0  0  0  0  0  0  0  0
   60.6730   27.1970   47.4710 C   0  0  0  0  0  0  0  0  0  0  0  0
   60.5470   27.7320   48.9030 C   0  0  0  0  0  0  0  0  0  0  0  0
   59.3360   32.4010   46.3700 N   0  0  0  0  0  0  0  0  0  0  0  0
   59.3330   31.7930   47.5040 C   0  0  0  0  0  0  0  0  0  0  0  0
   59.3450   30.4760   49.9230 C   0  0  0  0  0  0  0  0  0  0  0  0
   58.5170   31.5650   49.7170 C   0  0  0  0  0  0  0  0  0  0  0  0
   57.6630   32.0100   50.7600 N   0  0  0  0  0  0  0  0  0  0  0  0
   58.2320   32.4330   52.0050 C   0  0  0  0  0  0  0  0  0  0  0  0
   59.4440   33.3770   51.8640 C   0  0  0  0  0  0  0  0  0  0  0  0
   58.1470   33.8770   52.3670 C   0  0  0  0  0  0  0  0  0  0  0  0
   58.5520   32.1720   48.5120 N   0  0  0  0  0  0  0  0  0  0  0  0
   60.1460   30.1050   48.8570 C   0  0  0  0  0  0  0  0  0  0  0  0
   60.9180   29.1060   49.0190 N   0  0  0  0  0  0  0  0  0  0  0  0
   59.9740   33.6840   46.2750 C   0  0  0  0  0  0  0  0  0  0  0  0
   61.1810   33.6610   47.1510 C   0  0  0  0  0  0  0  0  0  0  0  0
   61.0560   34.2020   48.4300 C   0  0  0  0  0  0  0  0  0  0  0  0
   62.1200   34.2250   49.3140 C   0  0  0  0  0  0  0  0  0  0  0  0
   63.3090   33.6880   48.8690 C   0  0  0  0  0  0  0  0  0  0  0  0
   63.4580   33.1460   47.6020 C   0  0  0  0  0  0  0  0  0  0  0  0
   62.3880   33.1380   46.7530 C   0  0  0  0  0  0  0  0  0  0  0  0
   60.1480   30.7350   47.6810 N   0  0  0  0  0  0  0  0  0  0  0  0
   60.1070   28.5470   45.4390 C   0  0  0  0  0  0  0  0  0  0  0  0
   59.2290   29.1880   44.5890 C   0  0  0  0  0  0  0  0  0  0  0  0
   56.5670   28.0010   42.6080 H   0  0  0  0  0  0  0  0  0  0  0  0
   55.5680   29.1790   41.9440 H   0  0  0  0  0  0  0  0  0  0  0  0
   56.3667   28.5044   46.2107 H   0  0  0  0  0  0  0  0  0  0  0  0
   57.9402   27.3493   47.7414 H   0  0  0  0  0  0  0  0  0  0  0  0
   60.4876   26.1127   47.4689 H   0  0  0  0  0  0  0  0  0  0  0  0
   61.6866   27.4011   47.0954 H   0  0  0  0  0  0  0  0  0  0  0  0
   59.5017   27.6224   49.2276 H   0  0  0  0  0  0  0  0  0  0  0  0
   61.2355   27.1505   49.5337 H   0  0  0  0  0  0  0  0  0  0  0  0
   59.3656   29.9351   50.8806 H   0  0  0  0  0  0  0  0  0  0  0  0
   56.6240   32.0150   50.5770 H   0  0  0  0  0  0  0  0  0  0  0  0
   57.9903   31.4961   52.5282 H   0  0  0  0  0  0  0  0  0  0  0  0
   60.3013   33.2810   52.5465 H   0  0  0  0  0  0  0  0  0  0  0  0
   60.1282   33.6565   51.0493 H   0  0  0  0  0  0  0  0  0  0  0  0
   58.0500   34.1667   53.4237 H   0  0  0  0  0  0  0  0  0  0  0  0
   57.4799   34.6994   52.0693 H   0  0  0  0  0  0  0  0  0  0  0  0
   57.9090   33.0040   48.3770 H   0  0  0  0  0  0  0  0  0  0  0  0
   60.2714   33.8775   45.2338 H   0  0  0  0  0  0  0  0  0  0  0  0
   59.2844   34.4797   46.5932 H   0  0  0  0  0  0  0  0  0  0  0  0
   60.0883   34.6205   48.7437 H   0  0  0  0  0  0  0  0  0  0  0  0
   62.0219   34.6513   50.3233 H   0  0  0  0  0  0  0  0  0  0  0  0
   64.1751   33.6897   49.5472 H   0  0  0  0  0  0  0  0  0  0  0  0
   64.4247   32.7280   47.2846 H   0  0  0  0  0  0  0  0  0  0  0  0
   62.4930   32.7105   45.7449 H   0  0  0  0  0  0  0  0  0  0  0  0
   60.7830   30.3980   46.9150 H   0  0  0  0  0  0  0  0  0  0  0  0
   61.1824   28.5656   45.2083 H   0  0  0  0  0  0  0  0  0  0  0  0
   59.6094   29.7067   43.6967 H   0  0  0  0  0  0  0  0  0  0  0  0
  1  2  1  0
  2  3  2  0
  2  4  2  0
  2  5  1  0
  5  6  2  0
  6  7  1  0
  7  8  2  0
  8  9  1  0
  9 10  1  0
 10 11  1  0
 11 12  2  0
 12 13  1  0
 13 14  2  0
 14 15  1  0
 15 16  1  0
 16 17  1  0
 17 18  1  0
 14 19  1  0
 19 20  1  0
 20 21  2  0
 21 22  1  0
 22 23  1  0
 23 24  2  0
 24 25  1  0
 25 26  2  0
 26 27  1  0
 27 28  2  0
 20 29  1  0
  8 30  1  0
 30 31  2  0
 31  5  1  0
 29 12  1  0
 18 16  1  0
 28 23  1  0
  1 32  1  0
  1 33  1  0
  6 34  1  0
  7 35  1  0
  9 36  1  0
  9 37  1  0
 10 38  1  0
 10 39  1  0
 13 40  1  0
 15 41  1  0
 16 42  1  0
 17 43  1  0
 17 44  1  0
 18 45  1  0
 18 46  1  0
 19 47  1  0
 22 48  1  0
 22 49  1  0
 24 50  1  0
 25 51  1  0
 26 52  1  0
 27 53  1  0
 28 54  1  0
 29 55  1  0
 30 56  1  0
 31 57  1  0
M  END
>  <smiles>  (55) 
NS(=O)(=O)c1ccc(CCN=c2cc(NC3CC3)[nH]c(=NCc3ccccc3)[nH]2)cc1

>  <score_type>  (55) 
oracle

>  <origin>  (55) 
adg

>  <m_score__min__energy>  (55) 
-9.5199999999999996

>  <m_primary>  (55) 
energy

$$$$
56:0
     RDKit          3D

 58 62  0  0  0  0  0  0  0  0999 V2000
   54.8750   31.2330   51.8990 C   0  0  0  0  0  0  0  0  0  0  0  0
   54.5530   30.6360   53.0570 C   0  0  0  0  0  0  0  0  0  0  0  0
   53.2710   30.3790   53.5650 C   0  0  0  0  0  0  0  0  0  0  0  0
   52.0730   30.8550   53.1820 C   0  0  0  0  0  0  0  0  0  0  0  0
   51.6270   31.0450   51.7920 C   0  0  0  0  0  0  0  0  0  0  0  0
   51.8730   30.1890   50.7820 N   0  0  0  0  0  0  0  0  0  0  0  0
   51.3970   30.8410   49.6990 C   0  0  0  0  0  0  0  0  0  0  0  0
   51.4320   30.3470   48.5420 O   0  0  0  0  0  0  0  0  0  0  0  0
   50.8890   32.0670   49.9520 N   0  0  0  0  0  0  0  0  0  0  0  0
   51.0560   32.1840   51.2790 C   0  0  0  0  0  0  0  0  0  0  0  0
   50.6980   33.3120   52.0070 O   0  0  0  0  0  0  0  0  0  0  0  0
   53.3750   29.5210   54.6040 N   0  0  0  0  0  0  0  0  0  0  0  0
   54.6980   29.3160   54.7410 C   0  0  0  0  0  0  0  0  0  0  0  0
   55.1830   28.5790   55.6400 O   0  0  0  0  0  0  0  0  0  0  0  0
   55.4470   29.9850   53.8390 N   0  0  0  0  0  0  0  0  0  0  0  0
   56.8830   29.9590   53.7350 C   0  0  0  0  0  0  0  0  0  0  0  0
   57.5060   29.1890   52.7430 C   0  0  0  0  0  0  0  0  0  0  0  0
   58.8990   29.1720   52.6280 C   0  0  0  0  0  0  0  0  0  0  0  0
   59.7020   29.9330   53.5040 C   0  0  0  0  0  0  0  0  0  0  0  0
   61.1960   29.9410   53.4120 C   0  0  0  0  0  0  0  0  0  0  0  0
   61.7950   28.8300   53.4140 O   0  0  0  0  0  0  0  0  0  0  0  0
   61.9560   31.1790   53.2830 N   0  0  1  0  0  0  0  0  0  0  0  0
   63.2400   31.0250   52.5590 C   0  0  0  0  0  0  0  0  0  0  0  0
   63.0860   30.7060   51.0520 C   0  0  0  0  0  0  0  0  0  0  0  0
   61.8230   31.1820   50.4680 N   0  0  0  0  0  0  0  0  0  0  0  0
   61.4940   30.7910   49.0910 C   0  0  0  0  0  0  0  0  0  0  0  0
   61.9740   31.8420   48.1240 C   0  0  0  0  0  0  0  0  0  0  0  0
   63.3490   32.0530   47.9210 C   0  0  0  0  0  0  0  0  0  0  0  0
   63.7880   33.0630   47.0600 C   0  0  0  0  0  0  0  0  0  0  0  0
   62.8600   33.8710   46.3970 C   0  0  0  0  0  0  0  0  0  0  0  0
   61.4910   33.6690   46.5930 C   0  0  0  0  0  0  0  0  0  0  0  0
   61.0480   32.6590   47.4540 C   0  0  0  0  0  0  0  0  0  0  0  0
   60.9180   32.0120   51.2180 C   0  0  0  0  0  0  0  0  0  0  0  0
   59.9430   32.5740   50.6480 O   0  0  0  0  0  0  0  0  0  0  0  0
   61.1470   32.2540   52.6760 C   0  0  0  0  0  0  0  0  0  0  0  0
   59.0640   30.7100   54.4920 C   0  0  0  0  0  0  0  0  0  0  0  0
   57.6720   30.7240   54.6030 C   0  0  0  0  0  0  0  0  0  0  0  0
   55.9318   31.3696   51.6259 H   0  0  0  0  0  0  0  0  0  0  0  0
   54.0822   31.5857   51.2230 H   0  0  0  0  0  0  0  0  0  0  0  0
   51.3636   31.1264   53.9777 H   0  0  0  0  0  0  0  0  0  0  0  0
   56.8939   28.5935   52.0497 H   0  0  0  0  0  0  0  0  0  0  0  0
   59.3737   28.5596   51.8472 H   0  0  0  0  0  0  0  0  0  0  0  0
   62.2240   31.4860   54.2460 H   0  0  0  0  0  0  0  0  0  0  0  0
   63.8055   31.9634   52.6567 H   0  0  0  0  0  0  0  0  0  0  0  0
   63.7567   30.1661   53.0121 H   0  0  0  0  0  0  0  0  0  0  0  0
   63.9181   31.1801   50.5109 H   0  0  0  0  0  0  0  0  0  0  0  0
   63.0892   29.6102   50.9557 H   0  0  0  0  0  0  0  0  0  0  0  0
   61.9822   29.8331   48.8586 H   0  0  0  0  0  0  0  0  0  0  0  0
   60.4028   30.6882   48.9976 H   0  0  0  0  0  0  0  0  0  0  0  0
   64.0828   31.4205   48.4420 H   0  0  0  0  0  0  0  0  0  0  0  0
   64.8652   33.2221   46.9041 H   0  0  0  0  0  0  0  0  0  0  0  0
   63.2072   34.6661   45.7208 H   0  0  0  0  0  0  0  0  0  0  0  0
   60.7613   34.3045   46.0700 H   0  0  0  0  0  0  0  0  0  0  0  0
   59.9698   32.5039   47.6070 H   0  0  0  0  0  0  0  0  0  0  0  0
   61.6738   33.2115   52.8008 H   0  0  0  0  0  0  0  0  0  0  0  0
   60.1693   32.2760   53.1796 H   0  0  0  0  0  0  0  0  0  0  0  0
   59.6701   31.3128   55.1842 H   0  0  0  0  0  0  0  0  0  0  0  0
   57.1920   31.3402   55.3776 H   0  0  0  0  0  0  0  0  0  0  0  0
  1  2  2  0
  2  3  1  0
  3  4  2  3
  4  5  1  0
  5  6  1  0
  6  7  1  0
  7  8  2  0
  7  9  1  0
  9 10  1  0
 10 11  1  0
  3 12  1  0
 12 13  1  0
 13 14  2  0
 13 15  1  0
 15 16  1  0
 16 17  2  0
 17 18  1  0
 18 19  2  0
 19 20  1  0
 20 21  2  0
 20 22  1  0
 22 23  1  0
 23 24  1  0
 24 25  1  0
 25 26  1  0
 26 27  1  0
 27 28  2  0
 28 29  1  0
 29 30  2  0
 30 31  1  0
 31 32  2  0
 25 33  1  0
 33 34  2  0
 33 35  1  0
 19 36  1  0
 36 37  2  0
 15  2  1  0
 37 16  1  0
 10  5  2  0
 35 22  1  0
 32 27  1  0
  1 38  1  0
  1 39  1  0
  4 40  1  0
 17 41  1  0
 18 42  1  0
 22 43  1  1
 23 44  1  0
 23 45  1  0
 24 46  1  0
 24 47  1  0
 26 48  1  0
 26 49  1  0
 28 50  1  0
 29 51  1  0
 30 52  1  0
 31 53  1  0
 32 54  1  0
 35 55  1  0
 35 56  1  0
 36 57  1  0
 37 58  1  0
M  CHG  5   6  -1   9  -1  11  -1  12  -1  22   1
M  END
>  <UniqueID>  (56) 
51

>  <SMILES>  (56) 
C=c1c(=Cc2[n-]c(=O)[n-]c2[O-])[n-]c(=O)n1-c1ccc(C(=O)[N@H+]2CCN(Cc3ccccc3)C(=O)C2)cc1

>  <Energy>  (56) 
152.8787084500198

>  <Genealogy>  (56) 
C=c1c(=Cc2[n-]c(=O)[n-]c2[O-])[n-]c(=O)n1-c1ccc(C(=O)[NH+]2CCN(Cc3ccccc3)C(=O)C2)cc1 (protonated)
C=c1c(=Cc2[n-]c(=O)[n-]c2[O-])[n-]c(=O)n1-c1ccc(C(=O)[N@H+]2CCN(Cc3ccccc3)C(=O)C2)cc1 (chirality)
C=c1c(=Cc2[n-]c(=O)[n-]c2[O-])[n-]c(=O)n1-c1ccc(C(=O)[N@H+]2CCN(Cc3ccccc3)C(=O)C2)cc1 (3D coordinates assigned)
C=c1c(=Cc2[n-]c(=O)[n-]c2[O-])[n-]c(=O)n1-c1ccc(C(=O)[N@H+]2CCN(Cc3ccccc3)C(=O)C2)cc1 (nonaromatic ring conformer: 152.8787084500198 kcal/mol)

>  <smiles>  (56) 
C=c1c(=Cc2[nH]c(=O)[nH]c2O)[nH]c(=O)n1-c1ccc(C(=O)N2CCN(Cc3ccccc3)C(=O)C2)cc1

>  <score_type>  (56) 
oracle

>  <origin>  (56) 
adg

>  <m_score__min__energy>  (56) 
-17.629999999999999

>  <m_primary>  (56) 
energy

$$$$
57:0
     RDKit          3D

 66 69  0  0  0  0  0  0  0  0999 V2000
   54.1860   25.0280   45.6260 C   0  0  0  0  0  0  0  0  0  0  0  0
   54.8000   26.2920   45.9990 N   0  0  0  0  0  0  0  0  0  0  0  0
   56.5220   26.1810   45.8100 S   0  0  0  0  0  0  0  0  0  0  0  0
   56.8850   24.9980   44.9480 O   0  0  0  0  0  0  0  0  0  0  0  0
   57.1640   26.0340   47.1630 O   0  0  0  0  0  0  0  0  0  0  0  0
   57.1240   27.6740   45.0430 C   0  0  0  0  0  0  0  0  0  0  0  0
   58.3620   28.1670   45.7470 C   0  0  0  0  0  0  0  0  0  0  0  0
   59.5720   28.2840   45.0430 C   0  0  0  0  0  0  0  0  0  0  0  0
   60.7260   28.7380   45.6930 C   0  0  0  0  0  0  0  0  0  0  0  0
   60.6780   29.0940   47.0440 C   0  0  0  0  0  0  0  0  0  0  0  0
   59.4680   29.0130   47.7510 C   0  0  0  0  0  0  0  0  0  0  0  0
   59.4120   29.3690   49.2140 C   0  0  0  0  0  0  0  0  0  0  0  0
   60.3390   28.5040   50.0140 C   0  0  0  0  0  0  0  0  0  0  0  0
   60.5230   27.2980   49.6920 O   0  0  0  0  0  0  0  0  0  0  0  0
   61.1120   29.0910   51.0710 N   0  0  0  0  0  0  0  0  0  0  0  0
   61.1130   30.3480   51.4170 C   0  0  0  0  0  0  0  0  0  0  0  0
   61.5610   31.3680   50.5530 C   0  0  0  0  0  0  0  0  0  0  0  0
   61.6260   32.6880   51.0180 C   0  0  0  0  0  0  0  0  0  0  0  0
   62.1830   33.7470   50.1560 C   0  0  0  0  0  0  0  0  0  0  0  0
   63.3690   34.1090   50.3800 O   0  0  0  0  0  0  0  0  0  0  0  0
   61.4740   34.2200   48.9710 N   0  0  1  0  0  0  0  0  0  0  0  0
   61.8200   33.4420   47.7430 C   0  0  0  0  0  0  0  0  0  0  0  0
   60.8780   32.2530   47.5040 C   0  0  0  0  0  0  0  0  0  0  0  0
   59.3940   32.6910   47.4020 C   0  0  2  0  0  0  0  0  0  0  0  0
   58.8420   32.5530   45.9950 C   0  0  0  0  0  0  0  0  0  0  0  0
   58.9880   33.6050   45.0710 C   0  0  0  0  0  0  0  0  0  0  0  0
   58.5160   33.4720   43.7600 C   0  0  0  0  0  0  0  0  0  0  0  0
   57.8940   32.2850   43.3530 C   0  0  0  0  0  0  0  0  0  0  0  0
   57.4100   32.1580   42.0070 C   0  0  0  0  0  0  0  0  0  0  0  0
   57.0140   32.0570   40.9250 N   0  0  0  0  0  0  0  0  0  0  0  0
   57.7450   31.2310   44.2630 C   0  0  0  0  0  0  0  0  0  0  0  0
   58.2090   31.3650   45.5740 C   0  0  0  0  0  0  0  0  0  0  0  0
   59.1660   34.1160   47.9500 C   0  0  0  0  0  0  0  0  0  0  0  0
   60.0030   34.3110   49.2200 C   0  0  0  0  0  0  0  0  0  0  0  0
   61.1910   32.9830   52.3170 C   0  0  0  0  0  0  0  0  0  0  0  0
   60.7230   31.9550   53.1340 C   0  0  0  0  0  0  0  0  0  0  0  0
   60.7150   30.6750   52.6770 N   0  0  0  0  0  0  0  0  0  0  0  0
   58.3120   28.5460   47.0980 C   0  0  0  0  0  0  0  0  0  0  0  0
   53.9149   24.4699   46.5343 H   0  0  0  0  0  0  0  0  0  0  0  0
   53.2814   25.2213   45.0307 H   0  0  0  0  0  0  0  0  0  0  0  0
   54.8972   24.4365   45.0307 H   0  0  0  0  0  0  0  0  0  0  0  0
   57.3644   27.4682   43.9895 H   0  0  0  0  0  0  0  0  0  0  0  0
   56.3448   28.4475   45.1101 H   0  0  0  0  0  0  0  0  0  0  0  0
   59.6130   28.0178   43.9765 H   0  0  0  0  0  0  0  0  0  0  0  0
   61.6732   28.8148   45.1390 H   0  0  0  0  0  0  0  0  0  0  0  0
   61.5899   29.4382   47.5539 H   0  0  0  0  0  0  0  0  0  0  0  0
   59.7048   30.4219   49.3393 H   0  0  0  0  0  0  0  0  0  0  0  0
   58.3851   29.2086   49.5743 H   0  0  0  0  0  0  0  0  0  0  0  0
   61.8574   31.1291   49.5210 H   0  0  0  0  0  0  0  0  0  0  0  0
   61.8150   35.1960   48.8060 H   0  0  0  0  0  0  0  0  0  0  0  0
   62.8468   33.0611   47.8464 H   0  0  0  0  0  0  0  0  0  0  0  0
   61.7199   34.1206   46.8831 H   0  0  0  0  0  0  0  0  0  0  0  0
   60.9817   31.5456   48.3400 H   0  0  0  0  0  0  0  0  0  0  0  0
   61.1586   31.7875   46.5477 H   0  0  0  0  0  0  0  0  0  0  0  0
   58.8307   31.9960   48.0420 H   0  0  0  0  0  0  0  0  0  0  0  0
   59.4773   34.5398   45.3820 H   0  0  0  0  0  0  0  0  0  0  0  0
   58.6339   34.3018   43.0476 H   0  0  0  0  0  0  0  0  0  0  0  0
   57.2616   30.2955   43.9449 H   0  0  0  0  0  0  0  0  0  0  0  0
   58.0793   30.5357   46.2849 H   0  0  0  0  0  0  0  0  0  0  0  0
   58.1006   34.2521   48.1877 H   0  0  0  0  0  0  0  0  0  0  0  0
   59.4681   34.8545   47.1928 H   0  0  0  0  0  0  0  0  0  0  0  0
   59.7221   33.5350   49.9473 H   0  0  0  0  0  0  0  0  0  0  0  0
   59.7957   35.3230   49.5979 H   0  0  0  0  0  0  0  0  0  0  0  0
   61.2186   34.0178   52.6891 H   0  0  0  0  0  0  0  0  0  0  0  0
   60.3604   32.1796   54.1479 H   0  0  0  0  0  0  0  0  0  0  0  0
   57.3629   28.4775   47.6498 H   0  0  0  0  0  0  0  0  0  0  0  0
  1  2  1  0
  2  3  1  0
  3  4  2  0
  3  5  2  0
  3  6  1  0
  6  7  1  0
  7  8  2  0
  8  9  1  0
  9 10  2  0
 10 11  1  0
 11 12  1  0
 12 13  1  0
 13 14  2  0
 13 15  1  0
 15 16  2  3
 16 17  1  0
 17 18  2  0
 18 19  1  0
 19 20  2  0
 19 21  1  0
 21 22  1  0
 22 23  1  0
 23 24  1  0
 24 25  1  0
 25 26  2  0
 26 27  1  0
 27 28  2  0
 28 29  1  0
 29 30  3  0
 28 31  1  0
 31 32  2  0
 24 33  1  0
 33 34  1  0
 18 35  1  0
 35 36  2  0
 36 37  1  0
 11 38  2  0
 38  7  1  0
 37 16  1  0
 34 21  1  0
 32 25  1  0
  1 39  1  0
  1 40  1  0
  1 41  1  0
  6 42  1  0
  6 43  1  0
  8 44  1  0
  9 45  1  0
 10 46  1  0
 12 47  1  0
 12 48  1  0
 17 49  1  0
 21 50  1  6
 22 51  1  0
 22 52  1  0
 23 53  1  0
 23 54  1  0
 24 55  1  1
 26 56  1  0
 27 57  1  0
 31 58  1  0
 32 59  1  0
 33 60  1  0
 33 61  1  0
 34 62  1  0
 34 63  1  0
 35 64  1  0
 36 65  1  0
 38 66  1  0
M  CHG  3   2  -1  21   1  37  -1
M  END
>  <UniqueID>  (57) 
52

>  <SMILES>  (57) 
C[N-]S(=O)(=O)Cc1cccc(CC(=O)N=c2cc(C(=O)[NH+]3CCC(c4ccc(C#N)cc4)CC3)cc[n-]2)c1

>  <Energy>  (57) 
88.79611318481156

>  <Genealogy>  (57) 
C[N-]S(=O)(=O)Cc1cccc(CC(=O)N=c2cc(C(=O)[NH+]3CCC(c4ccc(C#N)cc4)CC3)cc[n-]2)c1 (protonated)
C[N-]S(=O)(=O)Cc1cccc(CC(=O)N=c2cc(C(=O)[NH+]3CCC(c4ccc(C#N)cc4)CC3)cc[n-]2)c1 (3D coordinates assigned)
C[N-]S(=O)(=O)Cc1cccc(CC(=O)N=c2cc(C(=O)[NH+]3CCC(c4ccc(C#N)cc4)CC3)cc[n-]2)c1 (nonaromatic ring conformer: 88.79611318481156 kcal/mol)

>  <smiles>  (57) 
CNS(=O)(=O)Cc1cccc(CC(=O)N=c2cc(C(=O)N3CCC(c4ccc(C#N)cc4)CC3)cc[nH]2)c1

>  <score_type>  (57) 
oracle

>  <origin>  (57) 
adg

>  <m_score__min__energy>  (57) 
-11.83

>  <m_primary>  (57) 
energy

$$$$
58:0
     RDKit          3D

 64 68  0  0  0  0  0  0  0  0999 V2000
   54.5770   28.5190   44.1190 H   0  0  0  0  0  0  0  0  0  0  0  0
   55.2300   29.3310   44.1670 N   0  0  0  0  0  0  0  0  0  0  0  0
   56.2510   29.3840   44.9660 C   0  0  0  0  0  0  0  0  0  0  0  0
   56.9440   30.5480   45.0640 N   0  0  0  0  0  0  0  0  0  0  0  0
   58.0190   30.6880   45.8810 C   0  0  0  0  0  0  0  0  0  0  0  0
   58.5522   31.6492   45.9238 H   0  0  0  0  0  0  0  0  0  0  0  0
   58.4540   29.6120   46.6720 C   0  0  0  0  0  0  0  0  0  0  0  0
   59.6050   29.7640   47.5960 C   0  0  0  0  0  0  0  0  0  0  0  0
   60.5280   30.7350   47.3900 N   0  0  0  0  0  0  0  0  0  0  0  0
   61.5500   30.9140   48.2670 C   0  0  0  0  0  0  0  0  0  0  0  0
   62.4720   31.9960   48.0810 N   0  0  0  0  0  0  0  0  0  0  0  0
   62.0940   33.4030   48.2340 C   0  0  2  0  0  0  0  0  0  0  0  0
   61.4356   33.5686   49.0995 H   0  0  0  0  0  0  0  0  0  0  0  0
   61.5350   33.8610   46.8830 C   0  0  0  0  0  0  0  0  0  0  0  0
   60.7618   33.1644   46.5269 H   0  0  0  0  0  0  0  0  0  0  0  0
   61.0589   34.8508   46.9437 H   0  0  0  0  0  0  0  0  0  0  0  0
   62.6570   33.8560   46.0070 O   0  0  0  0  0  0  0  0  0  0  0  0
   63.7420   33.4770   46.8420 C   0  0  2  0  0  0  0  0  0  0  0  0
   64.7097   33.7443   46.3924 H   0  0  0  0  0  0  0  0  0  0  0  0
   63.5980   31.9770   47.1510 C   0  0  0  0  0  0  0  0  0  0  0  0
   64.5056   31.5718   47.6224 H   0  0  0  0  0  0  0  0  0  0  0  0
   63.4467   31.3421   46.2656 H   0  0  0  0  0  0  0  0  0  0  0  0
   63.4160   34.1000   48.1810 C   0  0  0  0  0  0  0  0  0  0  0  0
   64.1047   33.8039   48.9860 H   0  0  0  0  0  0  0  0  0  0  0  0
   63.4564   35.1935   48.2936 H   0  0  0  0  0  0  0  0  0  0  0  0
   61.6600   30.1030   49.3530 N   0  0  0  0  0  0  0  0  0  0  0  0
   62.4290   30.2690   50.0390 H   0  0  0  0  0  0  0  0  0  0  0  0
   60.7700   29.0910   49.5400 C   0  0  0  0  0  0  0  0  0  0  0  0
   60.9210   28.1620   50.6310 N   0  0  0  0  0  0  0  0  0  0  0  0
   61.4640   28.6290   51.9150 C   0  0  0  0  0  0  0  0  0  0  0  0
   62.5486   28.4464   51.9298 H   0  0  0  0  0  0  0  0  0  0  0  0
   61.2409   29.7020   52.0092 H   0  0  0  0  0  0  0  0  0  0  0  0
   60.8210   27.9020   53.1090 C   0  0  0  0  0  0  0  0  0  0  0  0
   61.5983   27.7246   53.8668 H   0  0  0  0  0  0  0  0  0  0  0  0
   60.0118   28.5480   53.4803 H   0  0  0  0  0  0  0  0  0  0  0  0
   60.1850   26.5530   52.7420 C   0  0  0  0  0  0  0  0  0  0  0  0
   60.2074   25.9039   53.6298 H   0  0  0  0  0  0  0  0  0  0  0  0
   59.1589   26.7591   52.4035 H   0  0  0  0  0  0  0  0  0  0  0  0
   60.9060   25.8310   51.5920 C   0  0  2  0  0  0  0  0  0  0  0  0
   60.3365   24.9233   51.3435 H   0  0  0  0  0  0  0  0  0  0  0  0
   62.3120   25.3390   52.0090 C   0  0  0  0  0  0  0  0  0  0  0  0
   63.0093   25.4938   51.1724 H   0  0  0  0  0  0  0  0  0  0  0  0
   62.6338   25.9104   52.8921 H   0  0  0  0  0  0  0  0  0  0  0  0
   62.2920   23.9000   52.3620 N   0  0  0  0  0  0  0  0  0  0  0  0
   62.8970   23.6850   53.6890 C   0  0  0  0  0  0  0  0  0  0  0  0
   62.1678   23.9441   54.4708 H   0  0  0  0  0  0  0  0  0  0  0  0
   63.1866   22.6289   53.7932 H   0  0  0  0  0  0  0  0  0  0  0  0
   63.7881   24.3215   53.7932 H   0  0  0  0  0  0  0  0  0  0  0  0
   60.9160   23.3700   52.3660 C   0  0  0  0  0  0  0  0  0  0  0  0
   60.5765   23.2392   53.4041 H   0  0  0  0  0  0  0  0  0  0  0  0
   60.2497   24.0758   51.8485 H   0  0  0  0  0  0  0  0  0  0  0  0
   60.8953   22.3996   51.8485 H   0  0  0  0  0  0  0  0  0  0  0  0
   60.9290   26.7200   50.3220 C   0  0  0  0  0  0  0  0  0  0  0  0
   61.8386   26.4890   49.7482 H   0  0  0  0  0  0  0  0  0  0  0  0
   60.0165   26.5001   49.7484 H   0  0  0  0  0  0  0  0  0  0  0  0
   59.7350   28.9470   48.6710 N   0  0  0  0  0  0  0  0  0  0  0  0
   57.7580   28.3930   46.5850 C   0  0  0  0  0  0  0  0  0  0  0  0
   58.0821   27.5344   47.1915 H   0  0  0  0  0  0  0  0  0  0  0  0
   56.6480   28.2640   45.7260 C   0  0  0  0  0  0  0  0  0  0  0  0
   55.9370   27.0570   45.6040 O   0  0  0  0  0  0  0  0  0  0  0  0
   56.5290   25.7600   45.6520 C   0  0  0  0  0  0  0  0  0  0  0  0
   56.6667   25.4584   46.7008 H   0  0  0  0  0  0  0  0  0  0  0  0
   55.8714   25.0378   45.1461 H   0  0  0  0  0  0  0  0  0  0  0  0
   57.5055   25.7837   45.1461 H   0  0  0  0  0  0  0  0  0  0  0  0
  1  2  1  0
  2  3  2  0
  3  4  1  0
  4  5  1  0
  5  6  1  0
  5  7  2  0
  7  8  1  0
  8  9  2  0
  9 10  1  0
 10 11  1  0
 11 12  1  0
 12 13  1  1
 12 14  1  0
 14 15  1  0
 14 16  1  0
 14 17  1  0
 17 18  1  0
 18 19  1  6
 18 20  1  0
 20 21  1  0
 20 22  1  0
 18 23  1  0
 23 24  1  0
 23 25  1  0
 10 26  2  0
 26 27  1  0
 26 28  1  0
 28 29  1  0
 29 30  1  0
 30 31  1  0
 30 32  1  0
 30 33  1  0
 33 34  1  0
 33 35  1  0
 33 36  1  0
 36 37  1  0
 36 38  1  0
 36 39  1  0
 39 40  1  6
 39 41  1  0
 41 42  1  0
 41 43  1  0
 41 44  1  0
 44 45  1  0
 45 46  1  0
 45 47  1  0
 45 48  1  0
 44 49  1  0
 49 50  1  0
 49 51  1  0
 49 52  1  0
 39 53  1  0
 53 54  1  0
 53 55  1  0
 28 56  2  0
  7 57  1  0
 57 58  1  0
 57 59  2  0
 59 60  1  0
 60 61  1  0
 61 62  1  0
 61 63  1  0
 61 64  1  0
 59  3  1  0
 56  8  1  0
 20 11  1  0
 53 29  1  0
 23 12  1  0
M  CHG  2   4  -1  26   1
M  END
>  <UniqueID>  (58) 
53

>  <SMILES>  (58) 
[H]/N=c1/[n-]cc(-c2nc(N3CCC[C@H](CN(C)C)C3)[nH+]c(N3C[C@@H]4CC3CO4)n2)cc1OC

>  <Energy>  (58) 
111.2264706628752

>  <Genealogy>  (58) 
COc1cc(-c2nc(N3CCCC(CN(C)C)C3)[nH+]c(N3CC4CC3CO4)n2)c[n-]c1=N (protonated)
COc1cc(-c2nc(N3CCC[C@H](CN(C)C)C3)[nH+]c(N3C[C@@H]4CC3CO4)n2)c[n-]c1=N (chirality)
[H]/N=c1/[n-]cc(-c2nc(N3CCC[C@H](CN(C)C)C3)[nH+]c(N3C[C@@H]4CC3CO4)n2)cc1OC (cis-trans isomerization)
[H]/N=c1/[n-]cc(-c2nc(N3CCC[C@H](CN(C)C)C3)[nH+]c(N3C[C@@H]4CC3CO4)n2)cc1OC (3D coordinates assigned)
[H]/N=c1/[n-]cc(-c2nc(N3CCC[C@H](CN(C)C)C3)[nH+]c(N3C[C@@H]4CC3CO4)n2)cc1OC (nonaromatic ring conformer: 111.2264706628752 kcal/mol)

>  <smiles>  (58) 
COc1cc(-c2nc(N3CCCC(CN(C)C)C3)nc(N3CC4CC3CO4)n2)c[nH]c1=N

>  <score_type>  (58) 
oracle

>  <origin>  (58) 
adg

>  <m_score__min__energy>  (58) 
-7.79

>  <m_primary>  (58) 
energy

$$$$
59:0
     RDKit          3D

 37 39  0  0  0  0  0  0  0  0999 V2000
   53.5450   28.3820   52.6860 O   0  0  0  0  0  0  0  0  0  0  0  0
   53.3650   29.5990   52.4110 C   0  0  0  0  0  0  0  0  0  0  0  0
   52.1490   30.0120   51.6480 C   0  0  0  0  0  0  0  0  0  0  0  0
   51.5630   31.2460   52.2600 C   0  0  0  0  0  0  0  0  0  0  0  0
   51.3260   31.4920   53.9100 S   0  0  0  0  0  0  0  0  0  0  0  0
   50.5770   32.9770   53.6630 C   0  0  0  0  0  0  0  0  0  0  0  0
   50.1450   33.7150   54.5860 O   0  0  0  0  0  0  0  0  0  0  0  0
   50.4810   33.3010   52.3560 N   0  0  0  0  0  0  0  0  0  0  0  0
   51.0230   32.3320   51.5740 C   0  0  0  0  0  0  0  0  0  0  0  0
   51.0280   32.4300   50.1880 O   0  0  0  0  0  0  0  0  0  0  0  0
   54.3160   30.5920   52.8140 N   0  0  0  0  0  0  0  0  0  0  0  0
   55.7440   30.4560   52.8000 C   0  0  0  0  0  0  0  0  0  0  0  0
   56.3530   29.6750   53.7890 C   0  0  0  0  0  0  0  0  0  0  0  0
   57.7370   29.4920   53.7910 C   0  0  0  0  0  0  0  0  0  0  0  0
   58.5240   30.0800   52.8000 C   0  0  0  0  0  0  0  0  0  0  0  0
   57.9310   30.8700   51.7990 C   0  0  0  0  0  0  0  0  0  0  0  0
   58.7320   31.4620   50.7060 C   0  0  0  0  0  0  0  0  0  0  0  0
   58.5840   32.7070   50.2230 C   0  0  0  0  0  0  0  0  0  0  0  0
   58.9080   33.1290   48.8410 C   0  0  0  0  0  0  0  0  0  0  0  0
   58.0760   32.7910   47.7610 C   0  0  0  0  0  0  0  0  0  0  0  0
   58.4190   33.1770   46.4630 C   0  0  0  0  0  0  0  0  0  0  0  0
   57.6090   32.8570   45.4230 F   0  0  0  0  0  0  0  0  0  0  0  0
   59.6050   33.8830   46.2510 C   0  0  0  0  0  0  0  0  0  0  0  0
   59.9330   34.2410   45.0900 O   0  0  0  0  0  0  0  0  0  0  0  0
   60.4150   34.1800   47.3020 N   0  0  0  0  0  0  0  0  0  0  0  0
   60.1040   33.8180   48.5760 C   0  0  0  0  0  0  0  0  0  0  0  0
   60.9750   34.1480   49.6090 O   0  0  0  0  0  0  0  0  0  0  0  0
   56.5360   31.0280   51.7870 C   0  0  0  0  0  0  0  0  0  0  0  0
   52.4255   30.2180   50.6034 H   0  0  0  0  0  0  0  0  0  0  0  0
   51.4061   29.2015   51.6810 H   0  0  0  0  0  0  0  0  0  0  0  0
   55.7377   29.2028   54.5690 H   0  0  0  0  0  0  0  0  0  0  0  0
   58.2085   28.8825   54.5760 H   0  0  0  0  0  0  0  0  0  0  0  0
   59.6130   29.9249   52.8018 H   0  0  0  0  0  0  0  0  0  0  0  0
   59.5115   30.8326   50.2520 H   0  0  0  0  0  0  0  0  0  0  0  0
   58.1913   33.4730   50.9079 H   0  0  0  0  0  0  0  0  0  0  0  0
   57.1520   32.2209   47.9377 H   0  0  0  0  0  0  0  0  0  0  0  0
   56.0586   31.6031   50.9799 H   0  0  0  0  0  0  0  0  0  0  0  0
  1  2  2  0
  2  3  1  0
  3  4  1  0
  4  5  1  0
  5  6  1  0
  6  7  2  0
  6  8  1  0
  8  9  1  0
  9 10  1  0
  2 11  1  0
 11 12  1  0
 12 13  2  0
 13 14  1  0
 14 15  2  0
 15 16  1  0
 16 17  1  0
 17 18  2  3
 18 19  1  0
 19 20  1  0
 20 21  2  0
 21 22  1  0
 21 23  1  0
 23 24  2  0
 23 25  1  0
 25 26  1  0
 26 27  1  0
 16 28  2  0
  9  4  2  0
 28 12  1  0
 26 19  2  0
  3 29  1  0
  3 30  1  0
 13 31  1  0
 14 32  1  0
 15 33  1  0
 17 34  1  0
 18 35  1  0
 20 36  1  0
 28 37  1  0
M  CHG  5   8  -1  10  -1  11  -1  25  -1  27  -1
M  END
>  <UniqueID>  (59) 
54

>  <SMILES>  (59) 
O=C(Cc1sc(=O)[n-]c1[O-])[N-]c1cccc(C=Cc2cc(F)c(=O)[n-]c2[O-])c1

>  <Energy>  (59) 
82.87465849309663

>  <Genealogy>  (59) 
O=C(Cc1sc(=O)[n-]c1[O-])[N-]c1cccc(C=Cc2cc(F)c(=O)[n-]c2[O-])c1 (protonated)
O=C(Cc1sc(=O)[n-]c1[O-])[N-]c1cccc(C=Cc2cc(F)c(=O)[n-]c2[O-])c1 (3D coordinates assigned)
O=C(Cc1sc(=O)[n-]c1[O-])[N-]c1cccc(C=Cc2cc(F)c(=O)[n-]c2[O-])c1 (optimized conformer: 82.87465849309663 kcal/mol)

>  <smiles>  (59) 
O=C(Cc1sc(=O)[nH]c1O)Nc1cccc(C=Cc2cc(F)c(=O)[nH]c2O)c1

>  <score_type>  (59) 
oracle

>  <origin>  (59) 
adg

>  <m_score__min__energy>  (59) 
-17.75

>  <m_primary>  (59) 
energy

$$$$
60:0
     RDKit          3D

 45 47  0  0  0  0  0  0  0  0999 V2000
   61.1470   34.2290   49.3350 C   0  0  0  0  0  0  0  0  0  0  0  0
   60.1170   34.5940   48.5700 C   0  0  0  0  0  0  0  0  0  0  0  0
   59.4210   33.6970   47.6130 C   0  0  0  0  0  0  0  0  0  0  0  0
   59.5320   32.3100   47.7960 C   0  0  0  0  0  0  0  0  0  0  0  0
   58.8900   31.4210   46.9280 C   0  0  0  0  0  0  0  0  0  0  0  0
   58.1150   31.9000   45.8590 C   0  0  0  0  0  0  0  0  0  0  0  0
   57.4360   30.9580   44.9390 C   0  0  0  0  0  0  0  0  0  0  0  0
   56.2750   31.2110   44.5180 O   0  0  0  0  0  0  0  0  0  0  0  0
   58.0820   29.7390   44.5510 N   0  0  0  0  0  0  0  0  0  0  0  0
   57.9220   28.4890   45.2340 C   0  0  0  0  0  0  0  0  0  0  0  0
   56.6360   27.9450   45.3310 C   0  0  0  0  0  0  0  0  0  0  0  0
   56.4170   26.7290   45.9850 C   0  0  0  0  0  0  0  0  0  0  0  0
   55.0840   26.1990   46.0230 N   0  0  0  0  0  0  0  0  0  0  0  0
   54.6840   24.8530   45.7280 C   0  0  0  0  0  0  0  0  0  0  0  0
   53.5100   24.4720   45.9850 O   0  0  0  0  0  0  0  0  0  0  0  0
   55.6350   23.9250   45.0720 C   0  0  0  0  0  0  0  0  0  0  0  0
   55.6470   23.7890   43.6700 C   0  0  0  0  0  0  0  0  0  0  0  0
   56.5490   22.9170   43.0500 C   0  0  0  0  0  0  0  0  0  0  0  0
   57.4440   22.1720   43.8200 C   0  0  0  0  0  0  0  0  0  0  0  0
   57.4400   22.2950   45.2120 C   0  0  0  0  0  0  0  0  0  0  0  0
   56.5410   23.1640   45.8370 C   0  0  0  0  0  0  0  0  0  0  0  0
   57.5110   26.0320   46.5230 C   0  0  0  0  0  0  0  0  0  0  0  0
   58.7940   26.5800   46.4590 C   0  0  0  0  0  0  0  0  0  0  0  0
   59.0120   27.8250   45.8450 C   0  0  0  0  0  0  0  0  0  0  0  0
   60.4000   28.4060   45.8490 C   0  0  0  0  0  0  0  0  0  0  0  0
   57.9910   33.2890   45.6810 C   0  0  0  0  0  0  0  0  0  0  0  0
   58.6320   34.1790   46.5490 C   0  0  0  0  0  0  0  0  0  0  0  0
   61.6081   34.9558   50.0200 H   0  0  0  0  0  0  0  0  0  0  0  0
   61.5353   33.2012   49.2809 H   0  0  0  0  0  0  0  0  0  0  0  0
   59.7586   35.6306   48.6539 H   0  0  0  0  0  0  0  0  0  0  0  0
   60.1306   31.9178   48.6314 H   0  0  0  0  0  0  0  0  0  0  0  0
   58.9929   30.3370   47.0839 H   0  0  0  0  0  0  0  0  0  0  0  0
   55.7853   28.4821   44.8862 H   0  0  0  0  0  0  0  0  0  0  0  0
   54.9427   24.3721   43.0585 H   0  0  0  0  0  0  0  0  0  0  0  0
   56.5528   22.8185   41.9544 H   0  0  0  0  0  0  0  0  0  0  0  0
   58.1528   21.4878   43.3307 H   0  0  0  0  0  0  0  0  0  0  0  0
   58.1457   21.7068   45.8171 H   0  0  0  0  0  0  0  0  0  0  0  0
   56.5409   23.2543   46.9333 H   0  0  0  0  0  0  0  0  0  0  0  0
   57.3569   25.0511   46.9964 H   0  0  0  0  0  0  0  0  0  0  0  0
   59.6426   26.0314   46.8937 H   0  0  0  0  0  0  0  0  0  0  0  0
   60.7357   28.5465   46.8871 H   0  0  0  0  0  0  0  0  0  0  0  0
   61.0863   27.7196   45.3314 H   0  0  0  0  0  0  0  0  0  0  0  0
   60.3927   29.3766   45.3314 H   0  0  0  0  0  0  0  0  0  0  0  0
   57.3840   33.6797   44.8510 H   0  0  0  0  0  0  0  0  0  0  0  0
   58.5196   35.2631   46.4002 H   0  0  0  0  0  0  0  0  0  0  0  0
  1  2  2  0
  2  3  1  0
  3  4  2  0
  4  5  1  0
  5  6  2  0
  6  7  1  0
  7  8  2  0
  7  9  1  0
  9 10  1  0
 10 11  2  0
 11 12  1  0
 12 13  1  0
 13 14  1  0
 14 15  2  0
 14 16  1  0
 16 17  2  0
 17 18  1  0
 18 19  2  0
 19 20  1  0
 20 21  2  0
 12 22  2  0
 22 23  1  0
 23 24  2  0
 24 25  1  0
  6 26  1  0
 26 27  2  0
 27  3  1  0
 24 10  1  0
 21 16  1  0
  1 28  1  0
  1 29  1  0
  2 30  1  0
  4 31  1  0
  5 32  1  0
 11 33  1  0
 17 34  1  0
 18 35  1  0
 19 36  1  0
 20 37  1  0
 21 38  1  0
 22 39  1  0
 23 40  1  0
 25 41  1  0
 25 42  1  0
 25 43  1  0
 26 44  1  0
 27 45  1  0
M  CHG  2   9  -1  13  -1
M  END
>  <UniqueID>  (60) 
55

>  <SMILES>  (60) 
C=Cc1ccc(C(=O)[N-]c2cc([N-]C(=O)c3ccccc3)ccc2C)cc1

>  <Energy>  (60) 
61.004703577147

>  <Genealogy>  (60) 
C=Cc1ccc(C(=O)[N-]c2cc([N-]C(=O)c3ccccc3)ccc2C)cc1 (protonated)
C=Cc1ccc(C(=O)[N-]c2cc([N-]C(=O)c3ccccc3)ccc2C)cc1 (3D coordinates assigned)
C=Cc1ccc(C(=O)[N-]c2cc([N-]C(=O)c3ccccc3)ccc2C)cc1 (optimized conformer: 61.004703577147 kcal/mol)

>  <smiles>  (60) 
C=Cc1ccc(C(=O)Nc2cc(NC(=O)c3ccccc3)ccc2C)cc1

>  <score_type>  (60) 
oracle

>  <origin>  (60) 
adg

>  <m_score__min__energy>  (60) 
-12.199999999999999

>  <m_primary>  (60) 
energy

$$$$
61:0
     RDKit          3D

 35 37  0  0  0  0  0  0  0  0999 V2000
   54.7293   29.6615   55.5677 H   0  0  0  0  0  0  0  0  0  0  0  0
   54.0410   29.8330   54.7270 C   0  0  0  0  0  0  0  0  0  0  0  0
   52.9542   29.7692   54.8842 H   0  0  0  0  0  0  0  0  0  0  0  0
   54.5270   30.1200   53.5100 C   0  0  0  0  0  0  0  0  0  0  0  0
   53.7940   30.3630   52.3470 C   0  0  0  0  0  0  0  0  0  0  0  0
   52.4540   30.3880   52.2230 C   0  0  0  0  0  0  0  0  0  0  0  0
   51.8485   30.0700   53.0845 H   0  0  0  0  0  0  0  0  0  0  0  0
   51.7490   30.8170   50.9990 C   0  0  0  0  0  0  0  0  0  0  0  0
   51.7040   30.0660   49.8840 N   0  0  0  0  0  0  0  0  0  0  0  0
   51.0260   30.8390   49.0080 C   0  0  0  0  0  0  0  0  0  0  0  0
   50.7680   30.4670   47.8340 O   0  0  0  0  0  0  0  0  0  0  0  0
   50.6540   32.0440   49.4880 N   0  0  0  0  0  0  0  0  0  0  0  0
   51.1260   32.0220   50.7440 C   0  0  0  0  0  0  0  0  0  0  0  0
   51.0310   33.1010   51.6140 O   0  0  0  0  0  0  0  0  0  0  0  0
   54.6440   30.6330   51.3330 N   0  0  0  0  0  0  0  0  0  0  0  0
   55.8660   30.5400   51.8920 C   0  0  0  0  0  0  0  0  0  0  0  0
   56.9270   30.7340   51.2410 O   0  0  0  0  0  0  0  0  0  0  0  0
   55.8430   30.2260   53.2050 N   0  0  0  0  0  0  0  0  0  0  0  0
   57.0190   30.0960   54.0770 C   0  0  0  0  0  0  0  0  0  0  0  0
   56.7136   29.6235   55.0222 H   0  0  0  0  0  0  0  0  0  0  0  0
   57.7691   29.4807   53.5585 H   0  0  0  0  0  0  0  0  0  0  0  0
   57.6420   31.4640   54.3810 C   0  0  0  0  0  0  0  0  0  0  0  0
   57.1213   32.2289   53.7862 H   0  0  0  0  0  0  0  0  0  0  0  0
   57.5340   31.6483   55.4601 H   0  0  0  0  0  0  0  0  0  0  0  0
   59.1370   31.5150   54.0470 C   0  0  0  0  0  0  0  0  0  0  0  0
   59.6340   32.2363   54.7123 H   0  0  0  0  0  0  0  0  0  0  0  0
   59.5718   30.5145   54.1881 H   0  0  0  0  0  0  0  0  0  0  0  0
   59.3280   31.9290   52.6540 N   0  0  0  0  0  0  0  0  0  0  0  0
   60.0660   31.2300   51.7420 C   0  0  0  0  0  0  0  0  0  0  0  0
   60.6800   30.0210   52.0490 O   0  0  0  0  0  0  0  0  0  0  0  0
   60.1660   31.8160   50.4840 C   0  0  0  0  0  0  0  0  0  0  0  0
   60.7058   31.4038   49.6187 H   0  0  0  0  0  0  0  0  0  0  0  0
   59.3130   33.2700   50.5210 S   0  0  0  0  0  0  0  0  0  0  0  0
   58.8580   33.0830   52.1260 C   0  0  0  0  0  0  0  0  0  0  0  0
   58.1670   33.9190   52.7670 O   0  0  0  0  0  0  0  0  0  0  0  0
  1  2  1  0
  2  3  1  0
  2  4  2  0
  4  5  1  0
  5  6  2  0
  6  7  1  0
  6  8  1  0
  8  9  1  0
  9 10  1  0
 10 11  2  0
 10 12  1  0
 12 13  1  0
 13 14  1  0
  5 15  1  0
 15 16  1  0
 16 17  2  0
 16 18  1  0
 18 19  1  0
 19 20  1  0
 19 21  1  0
 19 22  1  0
 22 23  1  0
 22 24  1  0
 22 25  1  0
 25 26  1  0
 25 27  1  0
 25 28  1  0
 28 29  1  0
 29 30  1  0
 29 31  2  0
 31 32  1  0
 31 33  1  0
 33 34  1  0
 34 35  2  0
 18  4  1  0
 34 28  1  0
 13  8  2  0
M  CHG  5   9  -1  12  -1  14  -1  15  -1  30  -1
M  END
>  <UniqueID>  (61) 
56

>  <SMILES>  (61) 
C=c1/c(=C/c2[n-]c(=O)[n-]c2[O-])[n-]c(=O)n1CCCn1c([O-])csc1=O

>  <Energy>  (61) 
132.09549582060717

>  <Genealogy>  (61) 
C=c1c(=Cc2[n-]c(=O)[n-]c2[O-])[n-]c(=O)n1CCCn1c([O-])csc1=O (protonated)
C=c1/c(=C/c2[n-]c(=O)[n-]c2[O-])[n-]c(=O)n1CCCn1c([O-])csc1=O (cis-trans isomerization)
C=c1/c(=C/c2[n-]c(=O)[n-]c2[O-])[n-]c(=O)n1CCCn1c([O-])csc1=O (3D coordinates assigned)
C=c1/c(=C/c2[n-]c(=O)[n-]c2[O-])[n-]c(=O)n1CCCn1c([O-])csc1=O (optimized conformer: 132.09549582060717 kcal/mol)

>  <smiles>  (61) 
C=c1c(=Cc2[nH]c(=O)[nH]c2O)[nH]c(=O)n1CCCn1c(O)csc1=O

>  <score_type>  (61) 
oracle

>  <origin>  (61) 
adg

>  <m_score__min__energy>  (61) 
-18.379999999999999

>  <m_primary>  (61) 
energy

$$$$
62:0
     RDKit          3D

 55 57  0  0  0  0  0  0  0  0999 V2000
   51.5960   23.1620   46.2640 C   0  0  0  0  0  0  0  0  0  0  0  0
   53.0590   23.1230   46.2780 N   0  0  0  0  0  0  0  0  0  0  0  0
   53.7630   22.5050   47.4070 C   0  0  0  0  0  0  0  0  0  0  0  0
   53.7870   23.6490   45.1500 C   0  0  0  0  0  0  0  0  0  0  0  0
   53.2230   23.7200   44.0220 O   0  0  0  0  0  0  0  0  0  0  0  0
   55.1760   24.1380   45.2830 C   0  0  0  0  0  0  0  0  0  0  0  0
   56.2470   23.2590   45.0620 C   0  0  0  0  0  0  0  0  0  0  0  0
   57.5620   23.6820   45.2640 C   0  0  0  0  0  0  0  0  0  0  0  0
   57.8220   24.9860   45.6870 C   0  0  0  0  0  0  0  0  0  0  0  0
   56.7650   25.8950   45.8880 C   0  0  0  0  0  0  0  0  0  0  0  0
   57.0140   27.2270   46.3700 N   0  0  0  0  0  0  0  0  0  0  0  0
   58.2140   27.9650   46.1150 C   0  0  0  0  0  0  0  0  0  0  0  0
   59.2160   28.4570   46.9260 C   0  0  0  0  0  0  0  0  0  0  0  0
   59.4570   28.4170   48.3330 N   0  0  0  0  0  0  0  0  0  0  0  0
   60.0220   29.5620   49.0400 C   0  0  0  0  0  0  0  0  0  0  0  0
   58.9840   30.6830   49.1810 C   0  0  0  0  0  0  0  0  0  0  0  0
   59.3790   31.8930   48.3820 C   0  0  0  0  0  0  0  0  0  0  0  0
   60.5980   32.1140   48.1470 O   0  0  0  0  0  0  0  0  0  0  0  0
   58.3670   32.7460   47.8260 N   0  0  0  0  0  0  0  0  0  0  0  0
   58.6080   33.5770   46.6500 C   0  0  0  0  0  0  0  0  0  0  0  0
   58.1780   32.8670   45.3970 C   0  0  0  0  0  0  0  0  0  0  0  0
   57.4600   31.6630   45.4700 C   0  0  0  0  0  0  0  0  0  0  0  0
   57.0540   31.0140   44.3010 C   0  0  0  0  0  0  0  0  0  0  0  0
   57.3660   31.5590   43.0520 C   0  0  0  0  0  0  0  0  0  0  0  0
   56.9670   30.9320   41.9190 F   0  0  0  0  0  0  0  0  0  0  0  0
   58.0850   32.7540   42.9730 C   0  0  0  0  0  0  0  0  0  0  0  0
   58.4910   33.4060   44.1390 C   0  0  0  0  0  0  0  0  0  0  0  0
   59.8880   28.9310   45.8160 C   0  0  0  0  0  0  0  0  0  0  0  0
   60.9740   29.5400   45.6240 O   0  0  0  0  0  0  0  0  0  0  0  0
   58.8730   28.4690   45.0050 C   0  0  0  0  0  0  0  0  0  0  0  0
   58.6490   28.4910   43.7670 O   0  0  0  0  0  0  0  0  0  0  0  0
   55.4410   25.4570   45.7030 C   0  0  0  0  0  0  0  0  0  0  0  0
   54.3890   26.3390   45.9220 O   0  0  0  0  0  0  0  0  0  0  0  0
   51.2196   23.1720   47.2975 H   0  0  0  0  0  0  0  0  0  0  0  0
   51.2584   24.0695   45.7420 H   0  0  0  0  0  0  0  0  0  0  0  0
   51.2105   22.2738   45.7420 H   0  0  0  0  0  0  0  0  0  0  0  0
   53.3391   22.8771   48.3514 H   0  0  0  0  0  0  0  0  0  0  0  0
   53.6463   21.4123   47.3581 H   0  0  0  0  0  0  0  0  0  0  0  0
   54.8314   22.7622   47.3581 H   0  0  0  0  0  0  0  0  0  0  0  0
   56.0493   22.2299   44.7274 H   0  0  0  0  0  0  0  0  0  0  0  0
   58.3953   22.9855   45.0892 H   0  0  0  0  0  0  0  0  0  0  0  0
   58.8593   25.3062   45.8647 H   0  0  0  0  0  0  0  0  0  0  0  0
   56.3040   27.6770   46.9930 H   0  0  0  0  0  0  0  0  0  0  0  0
   59.5310   27.4790   48.7790 H   0  0  0  0  0  0  0  0  0  0  0  0
   60.3463   29.2430   50.0415 H   0  0  0  0  0  0  0  0  0  0  0  0
   60.8773   29.9446   48.4638 H   0  0  0  0  0  0  0  0  0  0  0  0
   58.0105   30.3179   48.8217 H   0  0  0  0  0  0  0  0  0  0  0  0
   58.9233   30.9702   50.2411 H   0  0  0  0  0  0  0  0  0  0  0  0
   57.3860   32.6560   48.1700 H   0  0  0  0  0  0  0  0  0  0  0  0
   58.0388   34.5132   46.7473 H   0  0  0  0  0  0  0  0  0  0  0  0
   59.6853   33.7888   46.5830 H   0  0  0  0  0  0  0  0  0  0  0  0
   57.2161   31.2289   46.4509 H   0  0  0  0  0  0  0  0  0  0  0  0
   56.4880   30.0728   44.3636 H   0  0  0  0  0  0  0  0  0  0  0  0
   58.3318   33.1822   41.9903 H   0  0  0  0  0  0  0  0  0  0  0  0
   59.0585   34.3459   44.0717 H   0  0  0  0  0  0  0  0  0  0  0  0
  1  2  1  0
  2  3  1  0
  2  4  1  0
  4  5  2  0
  4  6  1  0
  6  7  2  0
  7  8  1  0
  8  9  2  0
  9 10  1  0
 10 11  1  0
 11 12  1  0
 12 13  2  0
 13 14  1  0
 14 15  1  0
 15 16  1  0
 16 17  1  0
 17 18  2  0
 17 19  1  0
 19 20  1  0
 20 21  1  0
 21 22  2  0
 22 23  1  0
 23 24  2  0
 24 25  1  0
 24 26  1  0
 26 27  2  0
 13 28  1  0
 28 29  2  0
 28 30  1  0
 30 31  2  0
 10 32  2  0
 32 33  1  0
 32  6  1  0
 30 12  1  0
 27 21  1  0
  1 34  1  0
  1 35  1  0
  1 36  1  0
  3 37  1  0
  3 38  1  0
  3 39  1  0
  7 40  1  0
  8 41  1  0
  9 42  1  0
 11 43  1  0
 14 44  1  0
 15 45  1  0
 15 46  1  0
 16 47  1  0
 16 48  1  0
 19 49  1  0
 20 50  1  0
 20 51  1  0
 22 52  1  0
 23 53  1  0
 26 54  1  0
 27 55  1  0
M  CHG  1  33  -1
M  END
>  <UniqueID>  (62) 
57

>  <SMILES>  (62) 
CN(C)C(=O)c1cccc(Nc2c(NCCC(=O)NCc3ccc(F)cc3)c(=O)c2=O)c1[O-]

>  <Energy>  (62) 
48.01148632333261

>  <Genealogy>  (62) 
CN(C)C(=O)c1cccc(Nc2c(NCCC(=O)NCc3ccc(F)cc3)c(=O)c2=O)c1[O-] (protonated)
CN(C)C(=O)c1cccc(Nc2c(NCCC(=O)NCc3ccc(F)cc3)c(=O)c2=O)c1[O-] (3D coordinates assigned)
CN(C)C(=O)c1cccc(Nc2c(NCCC(=O)NCc3ccc(F)cc3)c(=O)c2=O)c1[O-] (optimized conformer: 48.01148632333261 kcal/mol)

>  <smiles>  (62) 
CN(C)C(=O)c1cccc(Nc2c(NCCC(=O)NCc3ccc(F)cc3)c(=O)c2=O)c1O

>  <score_type>  (62) 
oracle

>  <origin>  (62) 
adg

>  <m_score__min__energy>  (62) 
-12.710000000000001

>  <m_primary>  (62) 
energy

$$$$
63:0
     RDKit          3D

 53 55  0  0  0  0  0  0  0  0999 V2000
   64.4430   32.4230   49.3700 C   0  0  0  0  0  0  0  0  0  0  0  0
   63.2230   33.1000   49.6530 O   0  0  0  0  0  0  0  0  0  0  0  0
   62.2720   33.4610   48.6860 C   0  0  0  0  0  0  0  0  0  0  0  0
   62.5780   33.4900   47.3120 C   0  0  0  0  0  0  0  0  0  0  0  0
   61.6060   33.8580   46.3790 C   0  0  0  0  0  0  0  0  0  0  0  0
   60.3180   34.2150   46.8010 C   0  0  0  0  0  0  0  0  0  0  0  0
   59.2630   34.5770   45.7930 C   0  0  0  0  0  0  0  0  0  0  0  0
   58.5420   33.3470   45.3460 C   0  0  0  0  0  0  0  0  0  0  0  0
   57.7810   32.5910   46.1640 N   0  0  0  0  0  0  0  0  0  0  0  0
   57.2820   31.6730   45.3940 O   0  0  0  0  0  0  0  0  0  0  0  0
   57.7040   31.8510   44.1660 C   0  0  0  0  0  0  0  0  0  0  0  0
   57.3060   30.9940   43.0080 C   0  0  0  0  0  0  0  0  0  0  0  0
   57.1650   29.5360   43.4460 C   0  0  0  0  0  0  0  0  0  0  0  0
   56.0160   29.3870   44.3930 C   0  0  0  0  0  0  0  0  0  0  0  0
   55.1420   30.2920   44.4670 O   0  0  0  0  0  0  0  0  0  0  0  0
   55.9440   28.2350   45.2400 N   0  0  0  0  0  0  0  0  0  0  0  0
   57.0000   27.2310   45.3290 C   0  0  0  0  0  0  0  0  0  0  0  0
   57.7130   27.3270   46.6800 C   0  0  0  0  0  0  0  0  0  0  0  0
   58.7540   28.4130   46.6540 C   0  0  0  0  0  0  0  0  0  0  0  0
   59.7330   28.4340   45.6460 C   0  0  0  0  0  0  0  0  0  0  0  0
   60.7150   29.4310   45.6400 C   0  0  0  0  0  0  0  0  0  0  0  0
   60.7340   30.4040   46.6430 C   0  0  0  0  0  0  0  0  0  0  0  0
   59.7730   30.3790   47.6580 C   0  0  0  0  0  0  0  0  0  0  0  0
   58.7880   29.3850   47.6670 C   0  0  0  0  0  0  0  0  0  0  0  0
   58.5130   32.9230   44.0660 N   0  0  0  0  0  0  0  0  0  0  0  0
   60.0060   34.1740   48.1680 C   0  0  0  0  0  0  0  0  0  0  0  0
   60.9800   33.8020   49.1160 C   0  0  0  0  0  0  0  0  0  0  0  0
   60.7000   33.7550   50.4920 O   0  0  0  0  0  0  0  0  0  0  0  0
   59.4210   33.4650   51.0470 C   0  0  0  0  0  0  0  0  0  0  0  0
   64.9375   32.1486   50.3135 H   0  0  0  0  0  0  0  0  0  0  0  0
   64.2313   31.5133   48.7889 H   0  0  0  0  0  0  0  0  0  0  0  0
   65.1029   33.0840   48.7889 H   0  0  0  0  0  0  0  0  0  0  0  0
   63.5888   33.2212   46.9713 H   0  0  0  0  0  0  0  0  0  0  0  0
   61.8527   33.8677   45.3071 H   0  0  0  0  0  0  0  0  0  0  0  0
   58.5456   35.2741   46.2505 H   0  0  0  0  0  0  0  0  0  0  0  0
   59.7411   35.0521   44.9237 H   0  0  0  0  0  0  0  0  0  0  0  0
   56.3434   31.3473   42.6099 H   0  0  0  0  0  0  0  0  0  0  0  0
   58.0834   31.0595   42.2325 H   0  0  0  0  0  0  0  0  0  0  0  0
   56.9898   28.9066   42.5610 H   0  0  0  0  0  0  0  0  0  0  0  0
   58.0897   29.2238   43.9534 H   0  0  0  0  0  0  0  0  0  0  0  0
   56.5580   26.2293   45.2225 H   0  0  0  0  0  0  0  0  0  0  0  0
   57.7305   27.4084   44.5259 H   0  0  0  0  0  0  0  0  0  0  0  0
   56.9744   27.5530   47.4632 H   0  0  0  0  0  0  0  0  0  0  0  0
   58.2076   26.3669   46.8887 H   0  0  0  0  0  0  0  0  0  0  0  0
   59.7274   27.6648   44.8597 H   0  0  0  0  0  0  0  0  0  0  0  0
   61.4738   29.4489   44.8438 H   0  0  0  0  0  0  0  0  0  0  0  0
   61.5046   31.1890   46.6338 H   0  0  0  0  0  0  0  0  0  0  0  0
   59.7911   31.1416   48.4505 H   0  0  0  0  0  0  0  0  0  0  0  0
   58.0373   29.3650   48.4708 H   0  0  0  0  0  0  0  0  0  0  0  0
   58.9913   34.4347   48.5032 H   0  0  0  0  0  0  0  0  0  0  0  0
   59.4859   33.4797   52.1450 H   0  0  0  0  0  0  0  0  0  0  0  0
   58.6960   34.2216   50.7124 H   0  0  0  0  0  0  0  0  0  0  0  0
   59.0932   32.4697   50.7124 H   0  0  0  0  0  0  0  0  0  0  0  0
  1  2  1  0
  2  3  1  0
  3  4  2  0
  4  5  1  0
  5  6  2  0
  6  7  1  0
  7  8  1  0
  8  9  2  0
  9 10  1  0
 10 11  1  0
 11 12  1  0
 12 13  1  0
 13 14  1  0
 14 15  2  0
 14 16  1  0
 16 17  1  0
 17 18  1  0
 18 19  1  0
 19 20  2  0
 20 21  1  0
 21 22  2  0
 22 23  1  0
 23 24  2  0
 11 25  2  0
  6 26  1  0
 26 27  2  0
 27 28  1  0
 28 29  1  0
 27  3  1  0
 25  8  1  0
 24 19  1  0
  1 30  1  0
  1 31  1  0
  1 32  1  0
  4 33  1  0
  5 34  1  0
  7 35  1  0
  7 36  1  0
 12 37  1  0
 12 38  1  0
 13 39  1  0
 13 40  1  0
 17 41  1  0
 17 42  1  0
 18 43  1  0
 18 44  1  0
 20 45  1  0
 21 46  1  0
 22 47  1  0
 23 48  1  0
 24 49  1  0
 26 50  1  0
 29 51  1  0
 29 52  1  0
 29 53  1  0
M  CHG  1  16  -1
M  END
>  <UniqueID>  (63) 
58

>  <SMILES>  (63) 
COc1ccc(Cc2noc(CCC(=O)[N-]CCc3ccccc3)n2)cc1OC

>  <Energy>  (63) 
75.20318882200948

>  <Genealogy>  (63) 
COc1ccc(Cc2noc(CCC(=O)[N-]CCc3ccccc3)n2)cc1OC (protonated)
COc1ccc(Cc2noc(CCC(=O)[N-]CCc3ccccc3)n2)cc1OC (3D coordinates assigned)
COc1ccc(Cc2noc(CCC(=O)[N-]CCc3ccccc3)n2)cc1OC (optimized conformer: 75.20318882200948 kcal/mol)

>  <smiles>  (63) 
COc1ccc(Cc2noc(CCC(=O)NCCc3ccccc3)n2)cc1OC

>  <score_type>  (63) 
oracle

>  <origin>  (63) 
adg

>  <m_score__min__energy>  (63) 
-10.51

>  <m_primary>  (63) 
energy

$$$$
64:0
     RDKit          3D

 50 52  0  0  0  0  0  0  0  0999 V2000
   59.9560   25.1180   46.0250 O   0  0  0  0  0  0  0  0  0  0  0  0
   59.1140   24.1820   46.0760 C   0  0  0  0  0  0  0  0  0  0  0  0
   59.2900   22.9750   45.1880 C   0  0  0  0  0  0  0  0  0  0  0  0
   58.0940   22.7630   44.2950 C   0  0  0  0  0  0  0  0  0  0  0  0
   57.2950   23.8550   43.9140 C   0  0  0  0  0  0  0  0  0  0  0  0
   56.1980   23.6650   43.0690 C   0  0  0  0  0  0  0  0  0  0  0  0
   55.8950   22.3870   42.5910 C   0  0  0  0  0  0  0  0  0  0  0  0
   56.6910   21.2980   42.9540 C   0  0  0  0  0  0  0  0  0  0  0  0
   57.7890   21.4840   43.8000 C   0  0  0  0  0  0  0  0  0  0  0  0
   58.0650   24.2630   47.0510 N   0  0  0  0  0  0  0  0  0  0  0  0
   57.3050   25.4590   47.4030 C   0  0  0  0  0  0  0  0  0  0  0  0
   56.0670   25.5660   46.5660 C   0  0  0  0  0  0  0  0  0  0  0  0
   55.4260   24.5220   46.2720 O   0  0  0  0  0  0  0  0  0  0  0  0
   55.6760   26.8310   46.0230 N   0  0  0  0  0  0  0  0  0  0  0  0
   56.5640   27.8680   45.5860 C   0  0  0  0  0  0  0  0  0  0  0  0
   57.9020   27.8150   45.9930 C   0  0  0  0  0  0  0  0  0  0  0  0
   58.8100   28.8080   45.5990 C   0  0  0  0  0  0  0  0  0  0  0  0
   60.4900   28.7290   46.1240 S   0  0  0  0  0  0  0  0  0  0  0  0
   61.3790   28.9380   44.9280 O   0  0  0  0  0  0  0  0  0  0  0  0
   60.7680   27.3530   46.6610 O   0  0  0  0  0  0  0  0  0  0  0  0
   60.8900   29.9150   47.3490 N   0  0  0  0  0  0  0  0  0  0  0  0
   60.4170   29.5490   48.6980 C   0  0  0  0  0  0  0  0  0  0  0  0
   59.0170   30.1000   49.0030 C   0  0  0  0  0  0  0  0  0  0  0  0
   58.9640   31.4890   48.7660 O   0  0  0  0  0  0  0  0  0  0  0  0
   59.1590   31.7290   47.3900 C   0  0  0  0  0  0  0  0  0  0  0  0
   60.5680   31.3010   46.9550 C   0  0  0  0  0  0  0  0  0  0  0  0
   58.3610   29.8850   44.8240 C   0  0  0  0  0  0  0  0  0  0  0  0
   57.0200   29.9620   44.4390 C   0  0  0  0  0  0  0  0  0  0  0  0
   56.1150   28.9690   44.8270 C   0  0  0  0  0  0  0  0  0  0  0  0
   54.7750   29.1050   44.4850 O   0  0  0  0  0  0  0  0  0  0  0  0
   60.1821   23.1202   44.5611 H   0  0  0  0  0  0  0  0  0  0  0  0
   59.4008   22.0889   45.8303 H   0  0  0  0  0  0  0  0  0  0  0  0
   57.5342   24.8635   44.2825 H   0  0  0  0  0  0  0  0  0  0  0  0
   55.5724   24.5223   42.7798 H   0  0  0  0  0  0  0  0  0  0  0  0
   55.0294   22.2387   41.9287 H   0  0  0  0  0  0  0  0  0  0  0  0
   56.4540   20.2933   42.5741 H   0  0  0  0  0  0  0  0  0  0  0  0
   58.4167   20.6249   44.0791 H   0  0  0  0  0  0  0  0  0  0  0  0
   57.0199   25.4062   48.4641 H   0  0  0  0  0  0  0  0  0  0  0  0
   57.9330   26.3434   47.2197 H   0  0  0  0  0  0  0  0  0  0  0  0
   58.2449   26.9854   46.6288 H   0  0  0  0  0  0  0  0  0  0  0  0
   60.3884   28.4521   48.7756 H   0  0  0  0  0  0  0  0  0  0  0  0
   61.1140   29.9895   49.4261 H   0  0  0  0  0  0  0  0  0  0  0  0
   58.2824   29.5956   48.3581 H   0  0  0  0  0  0  0  0  0  0  0  0
   58.7874   29.9137   50.0625 H   0  0  0  0  0  0  0  0  0  0  0  0
   58.4152   31.1574   46.8155 H   0  0  0  0  0  0  0  0  0  0  0  0
   59.0442   32.8065   47.2008 H   0  0  0  0  0  0  0  0  0  0  0  0
   60.6376   31.3807   45.8601 H   0  0  0  0  0  0  0  0  0  0  0  0
   61.2867   31.9647   47.4579 H   0  0  0  0  0  0  0  0  0  0  0  0
   59.0658   30.6721   44.5177 H   0  0  0  0  0  0  0  0  0  0  0  0
   56.6743   30.8084   43.8273 H   0  0  0  0  0  0  0  0  0  0  0  0
  1  2  2  0
  2  3  1  0
  3  4  1  0
  4  5  2  0
  5  6  1  0
  6  7  2  0
  7  8  1  0
  8  9  2  0
  2 10  1  0
 10 11  1  0
 11 12  1  0
 12 13  2  0
 12 14  1  0
 14 15  1  0
 15 16  2  0
 16 17  1  0
 17 18  1  0
 18 19  2  0
 18 20  2  0
 18 21  1  0
 21 22  1  0
 22 23  1  0
 23 24  1  0
 24 25  1  0
 25 26  1  0
 17 27  2  0
 27 28  1  0
 28 29  2  0
 29 30  1  0
  9  4  1  0
 29 15  1  0
 26 21  1  0
  3 31  1  0
  3 32  1  0
  5 33  1  0
  6 34  1  0
  7 35  1  0
  8 36  1  0
  9 37  1  0
 11 38  1  0
 11 39  1  0
 16 40  1  0
 22 41  1  0
 22 42  1  0
 23 43  1  0
 23 44  1  0
 25 45  1  0
 25 46  1  0
 26 47  1  0
 26 48  1  0
 27 49  1  0
 28 50  1  0
M  CHG  3  10  -1  14  -1  30  -1
M  END
>  <UniqueID>  (64) 
59

>  <SMILES>  (64) 
O=C(Cc1ccccc1)[N-]CC(=O)[N-]c1cc(S(=O)(=O)N2CCOCC2)ccc1[O-]

>  <Energy>  (64) 
59.10690665861483

>  <Genealogy>  (64) 
O=C(Cc1ccccc1)[N-]CC(=O)[N-]c1cc(S(=O)(=O)N2CCOCC2)ccc1[O-] (protonated)
O=C(Cc1ccccc1)[N-]CC(=O)[N-]c1cc(S(=O)(=O)N2CCOCC2)ccc1[O-] (3D coordinates assigned)
O=C(Cc1ccccc1)[N-]CC(=O)[N-]c1cc(S(=O)(=O)N2CCOCC2)ccc1[O-] (nonaromatic ring conformer: 59.10690665861483 kcal/mol)

>  <smiles>  (64) 
O=C(Cc1ccccc1)NCC(=O)Nc1cc(S(=O)(=O)N2CCOCC2)ccc1O

>  <score_type>  (64) 
oracle

>  <origin>  (64) 
adg

>  <m_score__min__energy>  (64) 
-15.58

>  <m_primary>  (64) 
energy

$$$$
65:0
     RDKit          3D

 49 51  0  0  0  0  0  0  0  0999 V2000
   58.5446   34.8306   44.5462 H   0  0  0  0  0  0  0  0  0  0  0  0
   58.7910   34.3530   45.5060 C   0  0  0  0  0  0  0  0  0  0  0  0
   58.2290   33.0200   45.7980 C   0  0  0  0  0  0  0  0  0  0  0  0
   57.0610   32.9480   46.2660 O   0  0  0  0  0  0  0  0  0  0  0  0
   58.9960   31.8210   45.5980 N   0  0  0  0  0  0  0  0  0  0  0  0
   60.0360   31.8770   45.6710 H   0  0  0  0  0  0  0  0  0  0  0  0
   58.3950   30.5170   45.6200 C   0  0  0  0  0  0  0  0  0  0  0  0
   58.6680   29.6660   46.6980 C   0  0  0  0  0  0  0  0  0  0  0  0
   59.3454   29.9998   47.4978 H   0  0  0  0  0  0  0  0  0  0  0  0
   58.0890   28.3990   46.7670 C   0  0  0  0  0  0  0  0  0  0  0  0
   58.3150   27.7400   47.6182 H   0  0  0  0  0  0  0  0  0  0  0  0
   57.2210   27.9610   45.7580 C   0  0  0  0  0  0  0  0  0  0  0  0
   56.6110   26.6180   45.8210 C   0  0  0  0  0  0  0  0  0  0  0  0
   55.3810   26.5190   46.0800 O   0  0  0  0  0  0  0  0  0  0  0  0
   57.3890   25.4250   45.6050 N   0  0  0  0  0  0  0  0  0  0  0  0
   56.7820   24.1350   45.3290 C   0  0  0  0  0  0  0  0  0  0  0  0
   55.9355   23.9571   46.0085 H   0  0  0  0  0  0  0  0  0  0  0  0
   56.3905   24.0839   44.3023 H   0  0  0  0  0  0  0  0  0  0  0  0
   57.8760   23.1010   45.5630 C   0  0  0  0  0  0  0  0  0  0  0  0
   57.7112   22.5799   46.5176 H   0  0  0  0  0  0  0  0  0  0  0  0
   57.8841   22.3374   44.7712 H   0  0  0  0  0  0  0  0  0  0  0  0
   59.1890   23.8780   45.6030 C   0  0  0  0  0  0  0  0  0  0  0  0
   59.8409   23.4862   46.3977 H   0  0  0  0  0  0  0  0  0  0  0  0
   59.7398   23.7875   44.6552 H   0  0  0  0  0  0  0  0  0  0  0  0
   58.8120   25.3240   45.8930 C   0  0  0  0  0  0  0  0  0  0  0  0
   59.0081   25.5674   46.9476 H   0  0  0  0  0  0  0  0  0  0  0  0
   59.4003   26.0269   45.2849 H   0  0  0  0  0  0  0  0  0  0  0  0
   56.9830   28.7880   44.6500 C   0  0  0  0  0  0  0  0  0  0  0  0
   56.3238   28.4378   43.8421 H   0  0  0  0  0  0  0  0  0  0  0  0
   57.5770   30.0590   44.5600 C   0  0  0  0  0  0  0  0  0  0  0  0
   57.3190   30.8980   43.3380 C   0  0  0  0  0  0  0  0  0  0  0  0
   57.0086   31.9076   43.6452 H   0  0  0  0  0  0  0  0  0  0  0  0
   58.2384   30.9639   42.7377 H   0  0  0  0  0  0  0  0  0  0  0  0
   56.5214   30.4359   42.7377 H   0  0  0  0  0  0  0  0  0  0  0  0
   59.5900   35.0060   46.3630 C   0  0  0  0  0  0  0  0  0  0  0  0
   59.4364   36.0869   46.4977 H   0  0  0  0  0  0  0  0  0  0  0  0
   60.6700   34.3480   47.1390 C   0  0  0  0  0  0  0  0  0  0  0  0
   60.6030   34.1820   48.5360 C   0  0  0  0  0  0  0  0  0  0  0  0
   59.7294   34.5570   49.0894 H   0  0  0  0  0  0  0  0  0  0  0  0
   61.6390   33.5440   49.2240 C   0  0  0  0  0  0  0  0  0  0  0  0
   61.5766   33.4258   50.3159 H   0  0  0  0  0  0  0  0  0  0  0  0
   62.7600   33.0520   48.5330 C   0  0  0  0  0  0  0  0  0  0  0  0
   63.8300   32.3960   49.2390 N   0  0  0  0  0  0  0  0  0  0  0  0
   63.6600   31.2670   49.7440 O   0  0  0  0  0  0  0  0  0  0  0  0
   65.0570   33.0040   49.3720 O   0  0  0  0  0  0  0  0  0  0  0  0
   62.8180   33.2050   47.1390 C   0  0  0  0  0  0  0  0  0  0  0  0
   63.6866   32.8209   46.5840 H   0  0  0  0  0  0  0  0  0  0  0  0
   61.7820   33.8410   46.4500 C   0  0  0  0  0  0  0  0  0  0  0  0
   61.8389   33.9452   45.3564 H   0  0  0  0  0  0  0  0  0  0  0  0
  1  2  1  0
  2  3  1  0
  3  4  2  0
  3  5  1  0
  5  6  1  0
  5  7  1  0
  7  8  2  0
  8  9  1  0
  8 10  1  0
 10 11  1  0
 10 12  2  0
 12 13  1  0
 13 14  2  0
 13 15  1  0
 15 16  1  0
 16 17  1  0
 16 18  1  0
 16 19  1  0
 19 20  1  0
 19 21  1  0
 19 22  1  0
 22 23  1  0
 22 24  1  0
 22 25  1  0
 25 26  1  0
 25 27  1  0
 12 28  1  0
 28 29  1  0
 28 30  2  0
 30 31  1  0
 31 32  1  0
 31 33  1  0
 31 34  1  0
  2 35  2  0
 35 36  1  0
 35 37  1  0
 37 38  2  0
 38 39  1  0
 38 40  1  0
 40 41  1  0
 40 42  2  0
 42 43  1  0
 43 44  2  0
 43 45  1  0
 42 46  1  0
 46 47  1  0
 46 48  2  0
 48 49  1  0
 30  7  1  0
 48 37  1  0
 25 15  1  0
M  CHG  2  43   1  45  -1
M  END
>  <UniqueID>  (65) 
60

>  <SMILES>  (65) 
Cc1cc(C(=O)N2CCCC2)ccc1NC(=O)/C=C/c1ccc([N+](=O)[O-])cc1

>  <Energy>  (65) 
64.14550106503549

>  <Genealogy>  (65) 
Cc1cc(C(=O)N2CCCC2)ccc1NC(=O)/C=C/c1ccc([N+](=O)[O-])cc1 (cis-trans isomerization)
Cc1cc(C(=O)N2CCCC2)ccc1NC(=O)/C=C/c1ccc([N+](=O)[O-])cc1 (3D coordinates assigned)
Cc1cc(C(=O)N2CCCC2)ccc1NC(=O)/C=C/c1ccc([N+](=O)[O-])cc1 (nonaromatic ring conformer: 64.14550106503549 kcal/mol)

>  <smiles>  (65) 
Cc1cc(C(=O)N2CCCC2)ccc1NC(=O)C=Cc1ccc([N+](=O)[O-])cc1

>  <score_type>  (65) 
oracle

>  <origin>  (65) 
adg

>  <m_score__min__energy>  (65) 
-9.3100000000000005

>  <m_primary>  (65) 
energy

$$$$
66:0
     RDKit          3D

 33 34  0  0  0  0  0  0  0  0999 V2000
   60.8350   30.1800   47.6610 C   0  0  0  0  0  0  0  0  0  0  0  0
   61.4700   31.5260   47.4090 C   0  0  0  0  0  0  0  0  0  0  0  0
   62.8580   31.6250   47.6090 C   0  0  0  0  0  0  0  0  0  0  0  0
   63.5500   32.7780   47.2480 C   0  0  0  0  0  0  0  0  0  0  0  0
   62.8530   33.8370   46.6800 C   0  0  0  0  0  0  0  0  0  0  0  0
   61.5080   33.7580   46.5250 N   0  0  0  0  0  0  0  0  0  0  0  0
   60.7780   32.6700   46.8980 C   0  0  0  0  0  0  0  0  0  0  0  0
   59.4830   32.7530   46.7450 N   0  0  0  0  0  0  0  0  0  0  0  0
   58.6940   32.6610   45.5550 C   0  0  0  0  0  0  0  0  0  0  0  0
   58.6110   33.6640   44.7970 O   0  0  0  0  0  0  0  0  0  0  0  0
   57.9080   31.4850   45.3040 N   0  0  0  0  0  0  0  0  0  0  0  0
   57.1700   31.2600   44.0900 C   0  0  0  0  0  0  0  0  0  0  0  0
   57.2070   32.1040   43.1540 O   0  0  0  0  0  0  0  0  0  0  0  0
   56.3740   30.0290   43.9170 C   0  0  0  0  0  0  0  0  0  0  0  0
   55.8960   29.7410   42.7880 O   0  0  0  0  0  0  0  0  0  0  0  0
   56.0480   29.2010   45.0410 N   0  0  0  0  0  0  0  0  0  0  0  0
   56.7880   28.2920   45.6150 C   0  0  0  0  0  0  0  0  0  0  0  0
   58.1070   28.5740   45.7980 N   0  0  0  0  0  0  0  0  0  0  0  0
   58.9710   27.7000   46.3790 C   0  0  0  0  0  0  0  0  0  0  0  0
   58.5160   26.4580   46.8160 C   0  0  0  0  0  0  0  0  0  0  0  0
   57.1680   26.1360   46.6670 C   0  0  0  0  0  0  0  0  0  0  0  0
   56.2870   27.0490   46.0810 C   0  0  0  0  0  0  0  0  0  0  0  0
   54.9380   26.7150   46.0110 O   0  0  0  0  0  0  0  0  0  0  0  0
   60.7546   30.0096   48.7447 H   0  0  0  0  0  0  0  0  0  0  0  0
   59.8315   30.1580   47.2109 H   0  0  0  0  0  0  0  0  0  0  0  0
   61.4561   29.3915   47.2109 H   0  0  0  0  0  0  0  0  0  0  0  0
   63.4040   30.7812   48.0562 H   0  0  0  0  0  0  0  0  0  0  0  0
   64.6356   32.8495   47.4106 H   0  0  0  0  0  0  0  0  0  0  0  0
   63.3920   34.7395   46.3560 H   0  0  0  0  0  0  0  0  0  0  0  0
   57.8850   30.7540   46.0500 H   0  0  0  0  0  0  0  0  0  0  0  0
   60.0291   27.9734   46.5040 H   0  0  0  0  0  0  0  0  0  0  0  0
   59.2124   25.7397   47.2733 H   0  0  0  0  0  0  0  0  0  0  0  0
   56.7963   25.1598   47.0119 H   0  0  0  0  0  0  0  0  0  0  0  0
  1  2  1  0
  2  3  2  0
  3  4  1  0
  4  5  2  0
  5  6  1  0
  6  7  1  0
  7  8  2  3
  8  9  1  0
  9 10  2  0
  9 11  1  0
 11 12  1  0
 12 13  2  0
 12 14  1  0
 14 15  2  0
 14 16  1  0
 16 17  2  3
 17 18  1  0
 18 19  1  0
 19 20  2  0
 20 21  1  0
 21 22  2  0
 22 23  1  0
  7  2  1  0
 22 17  1  0
  1 24  1  0
  1 25  1  0
  1 26  1  0
  3 27  1  0
  4 28  1  0
  5 29  1  0
 11 30  1  0
 19 31  1  0
 20 32  1  0
 21 33  1  0
M  CHG  3   6  -1  18  -1  23  -1
M  END
>  <UniqueID>  (66) 
61

>  <SMILES>  (66) 
Cc1ccc[n-]c1=NC(=O)NC(=O)C(=O)N=c1[n-]cccc1[O-]

>  <Energy>  (66) 
63.82109853988707

>  <Genealogy>  (66) 
Cc1ccc[n-]c1=NC(=O)NC(=O)C(=O)N=c1[n-]cccc1[O-] (protonated)
Cc1ccc[n-]c1=NC(=O)NC(=O)C(=O)N=c1[n-]cccc1[O-] (3D coordinates assigned)
Cc1ccc[n-]c1=NC(=O)NC(=O)C(=O)N=c1[n-]cccc1[O-] (optimized conformer: 63.82109853988707 kcal/mol)

>  <smiles>  (66) 
Cc1ccc[nH]c1=NC(=O)NC(=O)C(=O)N=c1[nH]cccc1O

>  <score_type>  (66) 
oracle

>  <origin>  (66) 
adg

>  <m_score__min__energy>  (66) 
-13.449999999999999

>  <m_primary>  (66) 
energy

$$$$
67:0
     RDKit          3D

 64 68  0  0  0  0  0  0  0  0999 V2000
   57.0340   33.1990   46.2050 N   0  0  0  0  0  0  0  0  0  0  0  0
   58.4050   33.4710   46.4960 C   0  0  0  0  0  0  0  0  0  0  0  0
   58.7700   34.6510   46.7410 O   0  0  0  0  0  0  0  0  0  0  0  0
   59.3980   32.3840   46.4730 C   0  0  0  0  0  0  0  0  0  0  0  0
   59.0770   31.0200   46.4350 C   0  0  0  0  0  0  0  0  0  0  0  0
   57.7640   30.4520   46.4730 N   0  0  0  0  0  0  0  0  0  0  0  0
   57.0190   30.0460   45.3220 C   0  0  0  0  0  0  0  0  0  0  0  0
   56.7950   30.8650   44.3910 O   0  0  0  0  0  0  0  0  0  0  0  0
   56.4660   28.7330   45.2430 N   0  0  0  0  0  0  0  0  0  0  0  0
   57.1140   27.5200   45.6500 C   0  0  0  0  0  0  0  0  0  0  0  0
   58.4740   27.4870   46.0030 C   0  0  0  0  0  0  0  0  0  0  0  0
   59.0560   26.2960   46.4400 C   0  0  0  0  0  0  0  0  0  0  0  0
   58.3000   25.1250   46.5000 C   0  0  0  0  0  0  0  0  0  0  0  0
   56.9600   25.1270   46.0840 C   0  0  0  0  0  0  0  0  0  0  0  0
   56.1540   23.8890   46.1270 C   0  0  0  0  0  0  0  0  0  0  0  0
   55.1990   23.8170   46.9480 O   0  0  0  0  0  0  0  0  0  0  0  0
   56.4300   22.7740   45.2490 N   0  0  0  0  0  0  0  0  0  0  0  0
   55.9740   21.4390   45.6690 C   0  0  0  0  0  0  0  0  0  0  0  0
   56.2730   20.3690   44.6250 C   0  0  0  0  0  0  0  0  0  0  0  0
   56.0100   20.8760   43.3390 O   0  0  0  0  0  0  0  0  0  0  0  0
   57.0300   21.7910   42.9970 C   0  0  0  0  0  0  0  0  0  0  0  0
   57.0190   23.0290   43.9120 C   0  0  0  0  0  0  0  0  0  0  0  0
   56.3690   26.3320   45.6730 C   0  0  0  0  0  0  0  0  0  0  0  0
   60.4700   30.1090   46.6610 S   0  0  0  0  0  0  0  0  0  0  0  0
   61.5050   31.4260   46.7750 C   0  0  0  0  0  0  0  0  0  0  0  0
   60.7800   32.6010   46.6590 C   0  0  0  0  0  0  0  0  0  0  0  0
   61.4040   33.9460   46.9340 C   0  0  0  0  0  0  0  0  0  0  0  0
   62.8910   33.8690   47.3620 C   0  0  0  0  0  0  0  0  0  0  0  0
   63.2930   32.5790   47.9760 N   0  0  0  0  0  0  0  0  0  0  0  0
   63.0770   32.4660   49.4400 C   0  0  0  0  0  0  0  0  0  0  0  0
   61.6210   32.5050   49.8610 C   0  0  0  0  0  0  0  0  0  0  0  0
   60.9980   33.7300   50.1550 C   0  0  0  0  0  0  0  0  0  0  0  0
   59.6420   33.7700   50.4940 C   0  0  0  0  0  0  0  0  0  0  0  0
   58.9010   32.5870   50.5680 C   0  0  0  0  0  0  0  0  0  0  0  0
   59.5180   31.3610   50.3040 C   0  0  0  0  0  0  0  0  0  0  0  0
   60.8770   31.3160   49.9680 C   0  0  0  0  0  0  0  0  0  0  0  0
   62.9380   31.3840   47.1840 C   0  0  0  0  0  0  0  0  0  0  0  0
   56.3320   33.9730   46.1880 H   0  0  0  0  0  0  0  0  0  0  0  0
   56.7050   32.2160   46.0580 H   0  0  0  0  0  0  0  0  0  0  0  0
   59.0811   28.4018   45.9347 H   0  0  0  0  0  0  0  0  0  0  0  0
   60.1147   26.2806   46.7382 H   0  0  0  0  0  0  0  0  0  0  0  0
   58.7561   24.1968   46.8748 H   0  0  0  0  0  0  0  0  0  0  0  0
   56.4830   21.1703   46.6064 H   0  0  0  0  0  0  0  0  0  0  0  0
   54.8829   21.4831   45.8019 H   0  0  0  0  0  0  0  0  0  0  0  0
   57.3312   20.0765   44.6936 H   0  0  0  0  0  0  0  0  0  0  0  0
   55.6352   19.4918   44.8087 H   0  0  0  0  0  0  0  0  0  0  0  0
   58.0043   21.2888   43.0894 H   0  0  0  0  0  0  0  0  0  0  0  0
   56.8547   22.1278   41.9646 H   0  0  0  0  0  0  0  0  0  0  0  0
   58.0559   23.3700   44.0481 H   0  0  0  0  0  0  0  0  0  0  0  0
   56.3902   23.7868   43.4218 H   0  0  0  0  0  0  0  0  0  0  0  0
   55.3127   26.3446   45.3664 H   0  0  0  0  0  0  0  0  0  0  0  0
   61.3373   34.5530   46.0190 H   0  0  0  0  0  0  0  0  0  0  0  0
   60.8509   34.3902   47.7747 H   0  0  0  0  0  0  0  0  0  0  0  0
   63.5134   34.0327   46.4699 H   0  0  0  0  0  0  0  0  0  0  0  0
   63.0323   34.6387   48.1350 H   0  0  0  0  0  0  0  0  0  0  0  0
   63.5082   31.5126   49.7792 H   0  0  0  0  0  0  0  0  0  0  0  0
   63.5608   33.3412   49.8981 H   0  0  0  0  0  0  0  0  0  0  0  0
   61.5803   34.6625   50.1182 H   0  0  0  0  0  0  0  0  0  0  0  0
   59.1571   34.7350   50.7030 H   0  0  0  0  0  0  0  0  0  0  0  0
   57.8341   32.6209   50.8336 H   0  0  0  0  0  0  0  0  0  0  0  0
   58.9352   30.4297   50.3602 H   0  0  0  0  0  0  0  0  0  0  0  0
   61.3646   30.3467   49.7870 H   0  0  0  0  0  0  0  0  0  0  0  0
   63.5690   31.3476   46.2837 H   0  0  0  0  0  0  0  0  0  0  0  0
   63.1017   30.4896   47.8030 H   0  0  0  0  0  0  0  0  0  0  0  0
  1  2  1  0
  2  3  2  0
  2  4  1  0
  4  5  2  0
  5  6  1  0
  6  7  1  0
  7  8  2  0
  7  9  1  0
  9 10  1  0
 10 11  2  0
 11 12  1  0
 12 13  2  0
 13 14  1  0
 14 15  1  0
 15 16  2  0
 15 17  1  0
 17 18  1  0
 18 19  1  0
 19 20  1  0
 20 21  1  0
 21 22  1  0
 14 23  2  0
  5 24  1  0
 24 25  1  0
 25 26  2  0
 26 27  1  0
 27 28  1  0
 28 29  1  0
 29 30  1  0
 30 31  1  0
 31 32  2  0
 32 33  1  0
 33 34  2  0
 34 35  1  0
 35 36  2  0
 29 37  1  0
 26  4  1  0
 36 31  1  0
 23 10  1  0
 37 25  1  0
 22 17  1  0
  1 38  1  0
  1 39  1  0
 11 40  1  0
 12 41  1  0
 13 42  1  0
 18 43  1  0
 18 44  1  0
 19 45  1  0
 19 46  1  0
 21 47  1  0
 21 48  1  0
 22 49  1  0
 22 50  1  0
 23 51  1  0
 27 52  1  0
 27 53  1  0
 28 54  1  0
 28 55  1  0
 30 56  1  0
 30 57  1  0
 32 58  1  0
 33 59  1  0
 34 60  1  0
 35 61  1  0
 36 62  1  0
 37 63  1  0
 37 64  1  0
M  CHG  2   6  -1   9  -1
M  END
>  <UniqueID>  (67) 
62

>  <SMILES>  (67) 
NC(=O)c1c([N-]C(=O)[N-]c2cccc(C(=O)N3CCOCC3)c2)sc2c1CCN(Cc1ccccc1)C2

>  <Energy>  (67) 
127.64692680550937

>  <Genealogy>  (67) 
NC(=O)c1c([N-]C(=O)[N-]c2cccc(C(=O)N3CCOCC3)c2)sc2c1CCN(Cc1ccccc1)C2 (protonated)
NC(=O)c1c([N-]C(=O)[N-]c2cccc(C(=O)N3CCOCC3)c2)sc2c1CCN(Cc1ccccc1)C2 (3D coordinates assigned)
NC(=O)c1c([N-]C(=O)[N-]c2cccc(C(=O)N3CCOCC3)c2)sc2c1CCN(Cc1ccccc1)C2 (nonaromatic ring conformer: 127.64692680550937 kcal/mol)

>  <smiles>  (67) 
NC(=O)c1c(NC(=O)Nc2cccc(C(=O)N3CCOCC3)c2)sc2c1CCN(Cc1ccccc1)C2

>  <score_type>  (67) 
oracle

>  <origin>  (67) 
adg

>  <m_score__min__energy>  (67) 
-12.460000000000001

>  <m_primary>  (67) 
energy

$$$$
68:0
     RDKit          3D

 55 58  0  0  0  0  0  0  0  0999 V2000
   59.2505   30.7887   44.2023 H   0  0  0  0  0  0  0  0  0  0  0  0
   58.8410   29.8100   44.4930 C   0  0  0  0  0  0  0  0  0  0  0  0
   58.5087   29.1013   43.7201 H   0  0  0  0  0  0  0  0  0  0  0  0
   58.7470   29.4810   45.7890 C   0  0  0  0  0  0  0  0  0  0  0  0
   58.2520   28.2830   46.3150 C   0  0  0  0  0  0  0  0  0  0  0  0
   57.8130   27.2120   45.6250 C   0  0  0  0  0  0  0  0  0  0  0  0
   57.9595   27.2019   44.5348 H   0  0  0  0  0  0  0  0  0  0  0  0
   57.1470   26.0520   46.2480 C   0  0  0  0  0  0  0  0  0  0  0  0
   57.8060   24.9520   46.6530 N   0  0  0  0  0  0  0  0  0  0  0  0
   56.8140   24.1250   47.0510 C   0  0  0  0  0  0  0  0  0  0  0  0
   57.0370   22.9770   47.5170 O   0  0  0  0  0  0  0  0  0  0  0  0
   55.5660   24.6170   46.8990 N   0  0  0  0  0  0  0  0  0  0  0  0
   55.7930   25.8340   46.3790 C   0  0  0  0  0  0  0  0  0  0  0  0
   54.7810   26.7040   45.9930 O   0  0  0  0  0  0  0  0  0  0  0  0
   58.3420   28.3950   47.6970 C   0  0  0  0  0  0  0  0  0  0  0  0
   58.0472   27.6378   48.4385 H   0  0  0  0  0  0  0  0  0  0  0  0
   58.8740   29.6430   47.9580 C   0  0  0  0  0  0  0  0  0  0  0  0
   59.1380   30.1990   49.3220 C   0  0  0  0  0  0  0  0  0  0  0  0
   58.7972   29.4813   50.0828 H   0  0  0  0  0  0  0  0  0  0  0  0
   60.2168   30.3770   49.4429 H   0  0  0  0  0  0  0  0  0  0  0  0
   58.5941   31.1474   49.4429 H   0  0  0  0  0  0  0  0  0  0  0  0
   59.1170   30.2980   46.8030 N   0  0  0  0  0  0  0  0  0  0  0  0
   59.6090   31.6450   46.6930 C   0  0  0  0  0  0  0  0  0  0  0  0
   58.7480   32.6330   46.2010 C   0  0  0  0  0  0  0  0  0  0  0  0
   57.7203   32.3673   45.9126 H   0  0  0  0  0  0  0  0  0  0  0  0
   59.1830   33.9500   46.0740 C   0  0  0  0  0  0  0  0  0  0  0  0
   58.5016   34.7183   45.6798 H   0  0  0  0  0  0  0  0  0  0  0  0
   60.4810   34.2950   46.4460 C   0  0  0  0  0  0  0  0  0  0  0  0
   60.8161   35.3381   46.3478 H   0  0  0  0  0  0  0  0  0  0  0  0
   61.3660   33.3250   46.9450 C   0  0  0  0  0  0  0  0  0  0  0  0
   62.7250   33.7620   47.3480 C   0  0  0  0  0  0  0  0  0  0  0  0
   63.5450   34.1320   46.4650 O   0  0  0  0  0  0  0  0  0  0  0  0
   63.1410   33.7180   48.7260 N   0  0  0  0  0  0  0  0  0  0  0  0
   62.2210   34.0750   49.8120 C   0  0  0  0  0  0  0  0  0  0  0  0
   62.4832   35.0721   50.1955 H   0  0  0  0  0  0  0  0  0  0  0  0
   61.1928   34.0775   49.4210 H   0  0  0  0  0  0  0  0  0  0  0  0
   62.3160   33.0490   50.9590 C   0  0  0  0  0  0  0  0  0  0  0  0
   62.0003   33.5421   51.8902 H   0  0  0  0  0  0  0  0  0  0  0  0
   61.6669   32.2048   50.6831 H   0  0  0  0  0  0  0  0  0  0  0  0
   63.6770   32.4920   51.1650 N   0  0  0  0  0  0  0  0  0  0  0  0
   63.7620   31.0800   50.7500 C   0  0  0  0  0  0  0  0  0  0  0  0
   63.8007   30.4374   51.6419 H   0  0  0  0  0  0  0  0  0  0  0  0
   62.8778   30.8205   50.1492 H   0  0  0  0  0  0  0  0  0  0  0  0
   64.6709   30.9285   50.1492 H   0  0  0  0  0  0  0  0  0  0  0  0
   64.7520   33.3070   50.5590 C   0  0  0  0  0  0  0  0  0  0  0  0
   64.7585   34.2983   51.0358 H   0  0  0  0  0  0  0  0  0  0  0  0
   65.7068   32.7844   50.7178 H   0  0  0  0  0  0  0  0  0  0  0  0
   64.5520   33.4850   49.0440 C   0  0  0  0  0  0  0  0  0  0  0  0
   65.1452   34.3456   48.7012 H   0  0  0  0  0  0  0  0  0  0  0  0
   64.8792   32.5657   48.5362 H   0  0  0  0  0  0  0  0  0  0  0  0
   60.9350   31.9760   47.0630 C   0  0  0  0  0  0  0  0  0  0  0  0
   61.8650   30.9150   47.5980 C   0  0  0  0  0  0  0  0  0  0  0  0
   61.8486   30.9337   48.6977 H   0  0  0  0  0  0  0  0  0  0  0  0
   61.5368   29.9269   47.2431 H   0  0  0  0  0  0  0  0  0  0  0  0
   62.8876   31.1109   47.2431 H   0  0  0  0  0  0  0  0  0  0  0  0
  1  2  1  0
  2  3  1  0
  2  4  2  0
  4  5  1  0
  5  6  2  0
  6  7  1  0
  6  8  1  0
  8  9  1  0
  9 10  1  0
 10 11  2  0
 10 12  1  0
 12 13  1  0
 13 14  1  0
  5 15  1  0
 15 16  1  0
 15 17  2  0
 17 18  1  0
 18 19  1  0
 18 20  1  0
 18 21  1  0
 17 22  1  0
 22 23  1  0
 23 24  2  0
 24 25  1  0
 24 26  1  0
 26 27  1  0
 26 28  2  0
 28 29  1  0
 28 30  1  0
 30 31  1  0
 31 32  2  0
 31 33  1  0
 33 34  1  0
 34 35  1  0
 34 36  1  0
 34 37  1  0
 37 38  1  0
 37 39  1  0
 37 40  1  0
 40 41  1  0
 41 42  1  0
 41 43  1  0
 41 44  1  0
 40 45  1  0
 45 46  1  0
 45 47  1  0
 45 48  1  0
 48 49  1  0
 48 50  1  0
 30 51  2  0
 51 52  1  0
 52 53  1  0
 52 54  1  0
 52 55  1  0
 22  4  1  0
 51 23  1  0
 13  8  2  0
 48 33  1  0
M  CHG  3   9  -1  12  -1  14  -1
M  END
>  <UniqueID>  (68) 
63

>  <SMILES>  (68) 
C=c1/c(=C/c2[n-]c(=O)[n-]c2[O-])cc(C)n1-c1cccc(C(=O)N2CCN(C)CC2)c1C

>  <Energy>  (68) 
143.63512677369798

>  <Genealogy>  (68) 
C=c1c(=Cc2[n-]c(=O)[n-]c2[O-])cc(C)n1-c1cccc(C(=O)N2CCN(C)CC2)c1C (protonated)
C=c1/c(=C/c2[n-]c(=O)[n-]c2[O-])cc(C)n1-c1cccc(C(=O)N2CCN(C)CC2)c1C (cis-trans isomerization)
C=c1/c(=C/c2[n-]c(=O)[n-]c2[O-])cc(C)n1-c1cccc(C(=O)N2CCN(C)CC2)c1C (3D coordinates assigned)
C=c1/c(=C/c2[n-]c(=O)[n-]c2[O-])cc(C)n1-c1cccc(C(=O)N2CCN(C)CC2)c1C (nonaromatic ring conformer: 143.63512677369798 kcal/mol)

>  <smiles>  (68) 
C=c1c(=Cc2[nH]c(=O)[nH]c2O)cc(C)n1-c1cccc(C(=O)N2CCN(C)CC2)c1C

>  <score_type>  (68) 
oracle

>  <origin>  (68) 
adg

>  <m_score__min__energy>  (68) 
-16.52

>  <m_primary>  (68) 
energy

$$$$
69:0
     RDKit          3D

 64 67  0  0  0  0  0  0  0  0999 V2000
   59.9640   27.7080   48.7480 C   0  0  0  0  0  0  0  0  0  0  0  0
   59.6710   28.6960   47.6330 C   0  0  0  0  0  0  0  0  0  0  0  0
   59.5290   30.0750   47.9380 C   0  0  0  0  0  0  0  0  0  0  0  0
   59.7910   30.6320   49.2810 C   0  0  0  0  0  0  0  0  0  0  0  0
   60.9290   30.4800   49.8030 O   0  0  0  0  0  0  0  0  0  0  0  0
   58.7450   31.2930   50.0110 N   0  0  0  0  0  0  0  0  0  0  0  0
   58.9770   31.8890   51.3310 C   0  0  0  0  0  0  0  0  0  0  0  0
   57.6950   32.4680   51.9190 C   0  0  0  0  0  0  0  0  0  0  0  0
   58.1200   33.6640   52.7710 C   0  0  0  0  0  0  0  0  0  0  0  0
   59.5960   33.9200   52.4740 C   0  0  0  0  0  0  0  0  0  0  0  0
   59.9410   33.0640   51.2660 C   0  0  0  0  0  0  0  0  0  0  0  0
   59.1400   30.9590   46.9330 C   0  0  0  0  0  0  0  0  0  0  0  0
   58.9540   30.5140   45.6270 C   0  0  0  0  0  0  0  0  0  0  0  0
   58.5160   31.4900   44.5580 C   0  0  0  0  0  0  0  0  0  0  0  0
   57.1310   32.0330   44.8090 C   0  0  0  0  0  0  0  0  0  0  0  0
   56.1150   31.3190   44.5820 O   0  0  0  0  0  0  0  0  0  0  0  0
   56.9400   33.3460   45.3460 N   0  0  0  0  0  0  0  0  0  0  0  0
   57.8690   34.4520   45.1510 C   0  0  0  0  0  0  0  0  0  0  0  0
   59.0260   34.3000   46.0940 C   0  0  0  0  0  0  0  0  0  0  0  0
   60.2950   33.9420   45.6060 C   0  0  0  0  0  0  0  0  0  0  0  0
   61.3660   33.7670   46.4890 C   0  0  0  0  0  0  0  0  0  0  0  0
   61.1760   33.9390   47.8630 C   0  0  0  0  0  0  0  0  0  0  0  0
   62.6380   33.7010   49.0680 Br  0  0  0  0  0  0  0  0  0  0  0  0
   59.9120   34.2800   48.3580 C   0  0  0  0  0  0  0  0  0  0  0  0
   58.8390   34.4550   47.4780 C   0  0  0  0  0  0  0  0  0  0  0  0
   59.1520   29.1550   45.3370 C   0  0  0  0  0  0  0  0  0  0  0  0
   58.9800   28.7510   44.1520 O   0  0  0  0  0  0  0  0  0  0  0  0
   59.5200   28.2690   46.3250 N   0  0  0  0  0  0  0  0  0  0  0  0
   59.7250   26.8510   45.9400 C   0  0  0  0  0  0  0  0  0  0  0  0
   58.4250   26.0780   45.9360 C   0  0  0  0  0  0  0  0  0  0  0  0
   58.4540   24.6710   45.9650 C   0  0  0  0  0  0  0  0  0  0  0  0
   57.2620   23.9390   45.9870 C   0  0  0  0  0  0  0  0  0  0  0  0
   56.0320   24.6000   45.9940 C   0  0  0  0  0  0  0  0  0  0  0  0
   55.9910   25.9970   45.9830 C   0  0  0  0  0  0  0  0  0  0  0  0
   54.7680   26.6550   45.9940 O   0  0  0  0  0  0  0  0  0  0  0  0
   57.1800   26.7350   45.9610 C   0  0  0  0  0  0  0  0  0  0  0  0
   59.8182   28.1996   49.7212 H   0  0  0  0  0  0  0  0  0  0  0  0
   59.2820   26.8489   48.6653 H   0  0  0  0  0  0  0  0  0  0  0  0
   61.0041   27.3597   48.6653 H   0  0  0  0  0  0  0  0  0  0  0  0
   57.7990   31.3600   49.5700 H   0  0  0  0  0  0  0  0  0  0  0  0
   59.3789   31.0686   51.9437 H   0  0  0  0  0  0  0  0  0  0  0  0
   57.0193   32.7937   51.1144 H   0  0  0  0  0  0  0  0  0  0  0  0
   57.1549   31.7202   52.5182 H   0  0  0  0  0  0  0  0  0  0  0  0
   57.5221   34.5485   52.5059 H   0  0  0  0  0  0  0  0  0  0  0  0
   57.9638   33.4600   53.8406 H   0  0  0  0  0  0  0  0  0  0  0  0
   59.7602   34.9837   52.2469 H   0  0  0  0  0  0  0  0  0  0  0  0
   60.2282   33.6669   53.3379 H   0  0  0  0  0  0  0  0  0  0  0  0
   59.7966   33.6321   50.3352 H   0  0  0  0  0  0  0  0  0  0  0  0
   60.9918   32.7387   51.2754 H   0  0  0  0  0  0  0  0  0  0  0  0
   58.9782   32.0199   47.1744 H   0  0  0  0  0  0  0  0  0  0  0  0
   59.2259   32.3299   44.5339 H   0  0  0  0  0  0  0  0  0  0  0  0
   58.4969   30.9515   43.5990 H   0  0  0  0  0  0  0  0  0  0  0  0
   58.2366   34.4447   44.1143 H   0  0  0  0  0  0  0  0  0  0  0  0
   57.3550   35.4042   45.3489 H   0  0  0  0  0  0  0  0  0  0  0  0
   60.4464   33.7990   44.5259 H   0  0  0  0  0  0  0  0  0  0  0  0
   62.3586   33.4938   46.1015 H   0  0  0  0  0  0  0  0  0  0  0  0
   59.7623   34.4105   49.4399 H   0  0  0  0  0  0  0  0  0  0  0  0
   57.8450   34.7150   47.8709 H   0  0  0  0  0  0  0  0  0  0  0  0
   60.1639   26.8153   44.9320 H   0  0  0  0  0  0  0  0  0  0  0  0
   60.3960   26.3890   46.6791 H   0  0  0  0  0  0  0  0  0  0  0  0
   59.4195   24.1440   45.9704 H   0  0  0  0  0  0  0  0  0  0  0  0
   57.2938   22.8395   45.9988 H   0  0  0  0  0  0  0  0  0  0  0  0
   55.0963   24.0218   46.0082 H   0  0  0  0  0  0  0  0  0  0  0  0
   57.1416   27.8343   45.9632 H   0  0  0  0  0  0  0  0  0  0  0  0
  1  2  1  0
  2  3  2  0
  3  4  1  0
  4  5  2  0
  4  6  1  0
  6  7  1  0
  7  8  1  0
  8  9  1  0
  9 10  1  0
 10 11  1  0
  3 12  1  0
 12 13  2  0
 13 14  1  0
 14 15  1  0
 15 16  2  0
 15 17  1  0
 17 18  1  0
 18 19  1  0
 19 20  2  0
 20 21  1  0
 21 22  2  0
 22 23  1  0
 22 24  1  0
 24 25  2  0
 13 26  1  0
 26 27  2  0
 26 28  1  0
 28 29  1  0
 29 30  1  0
 30 31  2  0
 31 32  1  0
 32 33  2  0
 33 34  1  0
 34 35  1  0
 34 36  2  0
 28  2  1  0
 36 30  1  0
 11  7  1  0
 25 19  1  0
  1 37  1  0
  1 38  1  0
  1 39  1  0
  6 40  1  0
  7 41  1  0
  8 42  1  0
  8 43  1  0
  9 44  1  0
  9 45  1  0
 10 46  1  0
 10 47  1  0
 11 48  1  0
 11 49  1  0
 12 50  1  0
 14 51  1  0
 14 52  1  0
 18 53  1  0
 18 54  1  0
 20 55  1  0
 21 56  1  0
 24 57  1  0
 25 58  1  0
 29 59  1  0
 29 60  1  0
 31 61  1  0
 32 62  1  0
 33 63  1  0
 36 64  1  0
M  CHG  2  17  -1  35  -1
M  END
>  <UniqueID>  (69) 
64

>  <SMILES>  (69) 
Cc1c(C(=O)NC2CCCC2)cc(CC(=O)[N-]Cc2ccc(Br)cc2)c(=O)n1Cc1cccc([O-])c1

>  <Energy>  (69) 
77.06654493020392

>  <Genealogy>  (69) 
Cc1c(C(=O)NC2CCCC2)cc(CC(=O)[N-]Cc2ccc(Br)cc2)c(=O)n1Cc1cccc([O-])c1 (protonated)
Cc1c(C(=O)NC2CCCC2)cc(CC(=O)[N-]Cc2ccc(Br)cc2)c(=O)n1Cc1cccc([O-])c1 (3D coordinates assigned)
Cc1c(C(=O)NC2CCCC2)cc(CC(=O)[N-]Cc2ccc(Br)cc2)c(=O)n1Cc1cccc([O-])c1 (nonaromatic ring conformer: 77.06654493020392 kcal/mol)

>  <smiles>  (69) 
Cc1c(C(=O)NC2CCCC2)cc(CC(=O)NCc2ccc(Br)cc2)c(=O)n1Cc1cccc(O)c1

>  <score_type>  (69) 
oracle

>  <origin>  (69) 
adg

>  <m_score__min__energy>  (69) 
-15.57

>  <m_primary>  (69) 
energy

$$$$
70:0
     RDKit          3D

 35 37  0  0  0  0  0  0  0  0999 V2000
   57.0630   32.5540   44.9800 C   0  0  0  0  0  0  0  0  0  0  0  0
   57.2130   31.1060   44.6150 C   0  0  0  0  0  0  0  0  0  0  0  0
   56.8220   30.6540   43.3490 C   0  0  0  0  0  0  0  0  0  0  0  0
   56.9940   29.3140   42.9970 C   0  0  0  0  0  0  0  0  0  0  0  0
   57.5710   28.4100   43.8960 C   0  0  0  0  0  0  0  0  0  0  0  0
   57.7140   27.0820   43.4880 O   0  0  0  0  0  0  0  0  0  0  0  0
   57.9890   28.8590   45.1710 C   0  0  0  0  0  0  0  0  0  0  0  0
   58.7330   27.7610   46.3400 S   0  0  0  0  0  0  0  0  0  0  0  0
   59.8930   27.0710   45.6790 O   0  0  0  0  0  0  0  0  0  0  0  0
   59.2000   28.5510   47.5300 O   0  0  0  0  0  0  0  0  0  0  0  0
   57.5780   26.5740   46.8570 N   0  0  0  0  0  0  0  0  0  0  0  0
   56.9390   25.5610   46.0600 C   0  0  0  0  0  0  0  0  0  0  0  0
   55.5810   25.6270   45.6660 C   0  0  0  0  0  0  0  0  0  0  0  0
   54.7760   26.7070   46.0030 O   0  0  0  0  0  0  0  0  0  0  0  0
   55.0210   24.6000   44.8980 C   0  0  0  0  0  0  0  0  0  0  0  0
   55.7930   23.5100   44.4960 C   0  0  0  0  0  0  0  0  0  0  0  0
   57.1430   23.4380   44.8570 C   0  0  0  0  0  0  0  0  0  0  0  0
   57.9410   22.3580   44.4590 C   0  0  0  0  0  0  0  0  0  0  0  0
   59.2860   22.3120   44.8340 C   0  0  0  0  0  0  0  0  0  0  0  0
   59.8180   23.3450   45.6050 C   0  0  0  0  0  0  0  0  0  0  0  0
   59.0330   24.3880   45.9870 N   0  0  0  0  0  0  0  0  0  0  0  0
   57.7190   24.4670   45.6380 C   0  0  0  0  0  0  0  0  0  0  0  0
   57.8100   30.2100   45.5150 C   0  0  0  0  0  0  0  0  0  0  0  0
   57.0523   32.6569   46.0751 H   0  0  0  0  0  0  0  0  0  0  0  0
   57.9067   33.1258   44.5662 H   0  0  0  0  0  0  0  0  0  0  0  0
   56.1200   32.9407   44.5662 H   0  0  0  0  0  0  0  0  0  0  0  0
   56.3777   31.3571   42.6291 H   0  0  0  0  0  0  0  0  0  0  0  0
   56.6731   28.9657   42.0042 H   0  0  0  0  0  0  0  0  0  0  0  0
   56.9500   26.4200   43.4660 H   0  0  0  0  0  0  0  0  0  0  0  0
   53.9611   24.6528   44.6083 H   0  0  0  0  0  0  0  0  0  0  0  0
   55.3406   22.7072   43.8953 H   0  0  0  0  0  0  0  0  0  0  0  0
   57.5097   21.5479   43.8526 H   0  0  0  0  0  0  0  0  0  0  0  0
   59.9199   21.4682   44.5238 H   0  0  0  0  0  0  0  0  0  0  0  0
   60.8759   23.3163   45.9052 H   0  0  0  0  0  0  0  0  0  0  0  0
   58.1415   30.5689   46.5005 H   0  0  0  0  0  0  0  0  0  0  0  0
  1  2  1  0
  2  3  2  0
  3  4  1  0
  4  5  2  0
  5  6  1  0
  5  7  1  0
  7  8  1  0
  8  9  2  0
  8 10  2  0
  8 11  1  0
 11 12  1  0
 12 13  2  0
 13 14  1  0
 13 15  1  0
 15 16  2  0
 16 17  1  0
 17 18  2  0
 18 19  1  0
 19 20  2  0
 20 21  1  0
 21 22  2  0
  7 23  2  0
 23  2  1  0
 22 12  1  0
 22 17  1  0
  1 24  1  0
  1 25  1  0
  1 26  1  0
  3 27  1  0
  4 28  1  0
  6 29  1  0
 15 30  1  0
 16 31  1  0
 18 32  1  0
 19 33  1  0
 20 34  1  0
 23 35  1  0
M  CHG  2  11  -1  14  -1
M  END
>  <UniqueID>  (70) 
65

>  <SMILES>  (70) 
Cc1ccc(O)c(S(=O)(=O)[N-]c2c([O-])ccc3cccnc23)c1

>  <Energy>  (70) 
50.28402693091007

>  <Genealogy>  (70) 
Cc1ccc(O)c(S(=O)(=O)[N-]c2c([O-])ccc3cccnc23)c1 (protonated)
Cc1ccc(O)c(S(=O)(=O)[N-]c2c([O-])ccc3cccnc23)c1 (3D coordinates assigned)
Cc1ccc(O)c(S(=O)(=O)[N-]c2c([O-])ccc3cccnc23)c1 (optimized conformer: 50.28402693091007 kcal/mol)

>  <smiles>  (70) 
Cc1ccc(O)c(S(=O)(=O)Nc2c(O)ccc3cccnc23)c1

>  <score_type>  (70) 
oracle

>  <origin>  (70) 
adg

>  <m_score__min__energy>  (70) 
-13.49

>  <m_primary>  (70) 
energy

$$$$
71:0
     RDKit          3D

 52 55  0  0  0  0  0  0  0  0999 V2000
   57.0430   32.3290   41.3390 C   0  0  0  0  0  0  0  0  0  0  0  0
   58.1820   31.9220   42.2730 C   0  0  0  0  0  0  0  0  0  0  0  0
   57.8120   32.1160   43.6840 N   0  0  0  0  0  0  0  0  0  0  0  0
   57.7840   33.4810   44.2400 C   0  0  0  0  0  0  0  0  0  0  0  0
   58.4880   33.5610   45.5650 C   0  0  0  0  0  0  0  0  0  0  0  0
   57.8100   33.4720   46.7810 C   0  0  0  0  0  0  0  0  0  0  0  0
   58.9500   33.5140   48.0200 S   0  0  0  0  0  0  0  0  0  0  0  0
   60.2410   33.6320   46.9550 C   0  0  0  0  0  0  0  0  0  0  0  0
   61.6080   33.6920   47.3470 N   0  0  0  0  0  0  0  0  0  0  0  0
   62.9300   33.4590   46.7400 C   0  0  0  0  0  0  0  0  0  0  0  0
   63.7240   33.8020   47.9580 C   0  0  0  0  0  0  0  0  0  0  0  0
   62.3760   34.0350   48.5570 C   0  0  0  0  0  0  0  0  0  0  0  0
   59.8430   33.6380   45.6680 N   0  0  0  0  0  0  0  0  0  0  0  0
   57.1760   31.0320   44.3960 C   0  0  0  0  0  0  0  0  0  0  0  0
   55.9190   30.9960   44.4800 O   0  0  0  0  0  0  0  0  0  0  0  0
   57.9520   29.9510   45.0380 C   0  0  0  0  0  0  0  0  0  0  0  0
   57.6210   28.6050   44.8670 C   0  0  0  0  0  0  0  0  0  0  0  0
   58.3800   27.6310   45.5040 C   0  0  0  0  0  0  0  0  0  0  0  0
   59.4480   28.0160   46.3140 C   0  0  0  0  0  0  0  0  0  0  0  0
   60.1440   27.1320   46.8850 O   0  0  0  0  0  0  0  0  0  0  0  0
   59.7250   29.3460   46.4800 N   0  0  0  0  0  0  0  0  0  0  0  0
   60.8530   29.7950   47.3010 C   0  0  0  0  0  0  0  0  0  0  0  0
   60.3540   30.3540   48.6050 C   0  0  0  0  0  0  0  0  0  0  0  0
   61.2160   31.0700   49.4520 C   0  0  0  0  0  0  0  0  0  0  0  0
   60.7370   31.6110   50.6490 C   0  0  0  0  0  0  0  0  0  0  0  0
   59.3950   31.4480   51.0060 C   0  0  0  0  0  0  0  0  0  0  0  0
   58.9330   31.9750   52.1660 F   0  0  0  0  0  0  0  0  0  0  0  0
   58.5290   30.7450   50.1630 C   0  0  0  0  0  0  0  0  0  0  0  0
   59.0040   30.2020   48.9660 C   0  0  0  0  0  0  0  0  0  0  0  0
   58.9920   30.2720   45.8540 N   0  0  0  0  0  0  0  0  0  0  0  0
   56.1728   32.6399   41.9357 H   0  0  0  0  0  0  0  0  0  0  0  0
   57.3704   33.1658   40.7045 H   0  0  0  0  0  0  0  0  0  0  0  0
   56.7659   31.4742   40.7045 H   0  0  0  0  0  0  0  0  0  0  0  0
   58.4192   30.8607   42.1075 H   0  0  0  0  0  0  0  0  0  0  0  0
   59.0544   32.5548   42.0528 H   0  0  0  0  0  0  0  0  0  0  0  0
   58.2785   34.1632   43.5328 H   0  0  0  0  0  0  0  0  0  0  0  0
   56.7325   33.7643   44.3951 H   0  0  0  0  0  0  0  0  0  0  0  0
   56.7206   33.3889   46.9084 H   0  0  0  0  0  0  0  0  0  0  0  0
   63.0726   32.4164   46.4195 H   0  0  0  0  0  0  0  0  0  0  0  0
   63.1628   34.0110   45.8174 H   0  0  0  0  0  0  0  0  0  0  0  0
   64.3016   32.9749   48.3964 H   0  0  0  0  0  0  0  0  0  0  0  0
   64.5383   34.5414   47.9720 H   0  0  0  0  0  0  0  0  0  0  0  0
   62.1636   33.3614   49.4003 H   0  0  0  0  0  0  0  0  0  0  0  0
   62.1903   35.0218   49.0061 H   0  0  0  0  0  0  0  0  0  0  0  0
   56.7679   28.3188   44.2343 H   0  0  0  0  0  0  0  0  0  0  0  0
   58.1406   26.5657   45.3706 H   0  0  0  0  0  0  0  0  0  0  0  0
   61.5187   28.9426   47.5017 H   0  0  0  0  0  0  0  0  0  0  0  0
   61.4018   30.5798   46.7598 H   0  0  0  0  0  0  0  0  0  0  0  0
   62.2713   31.2055   49.1727 H   0  0  0  0  0  0  0  0  0  0  0  0
   61.4175   32.1661   51.3114 H   0  0  0  0  0  0  0  0  0  0  0  0
   57.4725   30.6191   50.4422 H   0  0  0  0  0  0  0  0  0  0  0  0
   58.3184   29.6533   48.3035 H   0  0  0  0  0  0  0  0  0  0  0  0
  1  2  1  0
  2  3  1  0
  3  4  1  0
  4  5  1  0
  5  6  2  0
  6  7  1  0
  7  8  1  0
  8  9  1  0
  9 10  1  0
 10 11  1  0
 11 12  1  0
  8 13  2  0
  3 14  1  0
 14 15  2  0
 14 16  1  0
 16 17  1  0
 17 18  2  0
 18 19  1  0
 19 20  2  0
 19 21  1  0
 21 22  1  0
 22 23  1  0
 23 24  2  0
 24 25  1  0
 25 26  2  0
 26 27  1  0
 26 28  1  0
 28 29  2  0
 21 30  1  0
 13  5  1  0
 30 16  2  0
 12  9  1  0
 29 23  1  0
  1 31  1  0
  1 32  1  0
  1 33  1  0
  2 34  1  0
  2 35  1  0
  4 36  1  0
  4 37  1  0
  6 38  1  0
 10 39  1  0
 10 40  1  0
 11 41  1  0
 11 42  1  0
 12 43  1  0
 12 44  1  0
 17 45  1  0
 18 46  1  0
 22 47  1  0
 22 48  1  0
 24 49  1  0
 25 50  1  0
 28 51  1  0
 29 52  1  0
M  END
>  <UniqueID>  (71) 
66

>  <SMILES>  (71) 
CCN(Cc1csc(N2CCC2)n1)C(=O)c1ccc(=O)n(Cc2ccc(F)cc2)n1

>  <Energy>  (71) 
128.9951713350602

>  <Genealogy>  (71) 
CCN(Cc1csc(N2CCC2)n1)C(=O)c1ccc(=O)n(Cc2ccc(F)cc2)n1 (3D coordinates assigned)
CCN(Cc1csc(N2CCC2)n1)C(=O)c1ccc(=O)n(Cc2ccc(F)cc2)n1 (nonaromatic ring conformer: 128.9951713350602 kcal/mol)

>  <smiles>  (71) 
CCN(Cc1csc(N2CCC2)n1)C(=O)c1ccc(=O)n(Cc2ccc(F)cc2)n1

>  <score_type>  (71) 
oracle

>  <origin>  (71) 
adg

>  <m_score__min__energy>  (71) 
-8.2300000000000004

>  <m_primary>  (71) 
energy

$$$$
72:0
     RDKit          3D

 49 51  0  0  0  0  0  0  0  0999 V2000
   64.6660   31.5590   50.7960 C   0  0  0  0  0  0  0  0  0  0  0  0
   65.0040   33.0080   51.1710 C   0  0  0  0  0  0  0  0  0  0  0  0
   66.3050   33.4560   50.4920 C   0  0  0  0  0  0  0  0  0  0  0  0
   63.8350   33.9660   50.8620 C   0  0  0  0  0  0  0  0  0  0  0  0
   62.6770   33.2550   50.3170 N   0  0  0  0  0  0  0  0  0  0  0  0
   62.2670   33.3720   48.9440 C   0  0  0  0  0  0  0  0  0  0  0  0
   62.8320   34.2070   48.1870 O   0  0  0  0  0  0  0  0  0  0  0  0
   61.1880   32.5260   48.3980 C   0  0  0  0  0  0  0  0  0  0  0  0
   59.8410   32.6440   48.6900 C   0  0  0  0  0  0  0  0  0  0  0  0
   59.1420   31.7190   48.0090 N   0  0  0  0  0  0  0  0  0  0  0  0
   60.0280   31.0090   47.2780 C   0  0  0  0  0  0  0  0  0  0  0  0
   59.6870   29.8900   46.3710 C   0  0  0  0  0  0  0  0  0  0  0  0
   60.6320   29.3270   45.4970 C   0  0  0  0  0  0  0  0  0  0  0  0
   60.2530   28.2750   44.6610 C   0  0  0  0  0  0  0  0  0  0  0  0
   58.9460   27.7910   44.6950 C   0  0  0  0  0  0  0  0  0  0  0  0
   58.0210   28.3780   45.5690 C   0  0  0  0  0  0  0  0  0  0  0  0
   56.5970   27.9020   45.6190 C   0  0  0  0  0  0  0  0  0  0  0  0
   55.6780   28.9690   45.2290 N   0  0  0  0  0  0  0  0  0  0  0  0
   55.8360   29.8560   44.1110 C   0  0  0  0  0  0  0  0  0  0  0  0
   55.1080   29.6860   43.0980 O   0  0  0  0  0  0  0  0  0  0  0  0
   56.7810   30.9870   44.1260 C   0  0  0  0  0  0  0  0  0  0  0  0
   57.2920   31.6050   43.0010 C   0  0  0  0  0  0  0  0  0  0  0  0
   58.1470   32.5880   43.4540 C   0  0  0  0  0  0  0  0  0  0  0  0
   58.1340   32.5170   44.8330 C   0  0  0  0  0  0  0  0  0  0  0  0
   57.3060   31.5370   45.2370 N   0  0  0  0  0  0  0  0  0  0  0  0
   58.4170   29.3980   46.3790 N   0  0  0  0  0  0  0  0  0  0  0  0
   61.3100   31.4850   47.4950 C   0  0  0  0  0  0  0  0  0  0  0  0
   64.5277   30.9659   51.7120 H   0  0  0  0  0  0  0  0  0  0  0  0
   63.7394   31.5402   50.2036 H   0  0  0  0  0  0  0  0  0  0  0  0
   65.4887   31.1321   50.2036 H   0  0  0  0  0  0  0  0  0  0  0  0
   65.1636   33.0464   52.2587 H   0  0  0  0  0  0  0  0  0  0  0  0
   67.0498   33.7125   51.2598 H   0  0  0  0  0  0  0  0  0  0  0  0
   66.6914   32.6391   49.8647 H   0  0  0  0  0  0  0  0  0  0  0  0
   66.1065   34.3376   49.8647 H   0  0  0  0  0  0  0  0  0  0  0  0
   63.5360   34.4736   51.7909 H   0  0  0  0  0  0  0  0  0  0  0  0
   64.1772   34.6897   50.1076 H   0  0  0  0  0  0  0  0  0  0  0  0
   62.1630   32.6110   50.9580 H   0  0  0  0  0  0  0  0  0  0  0  0
   59.4062   33.3847   49.3773 H   0  0  0  0  0  0  0  0  0  0  0  0
   58.1060   31.6010   48.0500 H   0  0  0  0  0  0  0  0  0  0  0  0
   61.6621   29.7119   45.4716 H   0  0  0  0  0  0  0  0  0  0  0  0
   60.9867   27.8274   43.9745 H   0  0  0  0  0  0  0  0  0  0  0  0
   58.6442   26.9579   44.0432 H   0  0  0  0  0  0  0  0  0  0  0  0
   56.4764   27.0528   44.9302 H   0  0  0  0  0  0  0  0  0  0  0  0
   56.3641   27.5959   46.6496 H   0  0  0  0  0  0  0  0  0  0  0  0
   57.0627   31.3617   41.9530 H   0  0  0  0  0  0  0  0  0  0  0  0
   58.7261   33.2911   42.8373 H   0  0  0  0  0  0  0  0  0  0  0  0
   58.7158   33.1669   45.5032 H   0  0  0  0  0  0  0  0  0  0  0  0
   57.1520   31.2390   46.2250 H   0  0  0  0  0  0  0  0  0  0  0  0
   62.2391   31.1106   47.0406 H   0  0  0  0  0  0  0  0  0  0  0  0
  1  2  1  0
  2  3  1  0
  2  4  1  0
  4  5  1  0
  5  6  1  0
  6  7  2  0
  6  8  1  0
  8  9  2  0
  9 10  1  0
 10 11  1  0
 11 12  1  0
 12 13  2  0
 13 14  1  0
 14 15  2  0
 15 16  1  0
 16 17  1  0
 17 18  1  0
 18 19  1  0
 19 20  2  0
 19 21  1  0
 21 22  2  0
 22 23  1  0
 23 24  2  0
 24 25  1  0
 16 26  2  0
 11 27  2  0
 27  8  1  0
 26 12  1  0
 25 21  1  0
  1 28  1  0
  1 29  1  0
  1 30  1  0
  2 31  1  0
  3 32  1  0
  3 33  1  0
  3 34  1  0
  4 35  1  0
  4 36  1  0
  5 37  1  0
  9 38  1  0
 10 39  1  0
 13 40  1  0
 14 41  1  0
 15 42  1  0
 17 43  1  0
 17 44  1  0
 22 45  1  0
 23 46  1  0
 24 47  1  0
 25 48  1  0
 27 49  1  0
M  CHG  1  18  -1
M  END
>  <UniqueID>  (72) 
67

>  <SMILES>  (72) 
CC(C)CNC(=O)c1c[nH]c(-c2cccc(C[N-]C(=O)c3ccc[nH]3)n2)c1

>  <Energy>  (72) 
96.65023286341237

>  <Genealogy>  (72) 
CC(C)CNC(=O)c1c[nH]c(-c2cccc(C[N-]C(=O)c3ccc[nH]3)n2)c1 (protonated)
CC(C)CNC(=O)c1c[nH]c(-c2cccc(C[N-]C(=O)c3ccc[nH]3)n2)c1 (3D coordinates assigned)
CC(C)CNC(=O)c1c[nH]c(-c2cccc(C[N-]C(=O)c3ccc[nH]3)n2)c1 (optimized conformer: 96.65023286341237 kcal/mol)

>  <smiles>  (72) 
CC(C)CNC(=O)c1c[nH]c(-c2cccc(CNC(=O)c3ccc[nH]3)n2)c1

>  <score_type>  (72) 
oracle

>  <origin>  (72) 
adg

>  <m_score__min__energy>  (72) 
-10.74

>  <m_primary>  (72) 
energy

$$$$
73:0
     RDKit          3D

 62 65  0  0  0  0  0  0  0  0999 V2000
   61.0816   33.9346   45.9589 H   0  0  0  0  0  0  0  0  0  0  0  0
   60.0130   33.8670   46.2110 C   0  0  0  0  0  0  0  0  0  0  0  0
   59.2830   32.8470   45.7300 C   0  0  0  0  0  0  0  0  0  0  0  0
   59.5412   32.4129   44.7528 H   0  0  0  0  0  0  0  0  0  0  0  0
   58.1200   32.2870   46.5010 C   0  0  0  0  0  0  0  0  0  0  0  0
   57.1827   32.5646   45.9966 H   0  0  0  0  0  0  0  0  0  0  0  0
   58.1349   32.6987   47.5209 H   0  0  0  0  0  0  0  0  0  0  0  0
   58.2160   30.8180   46.5750 N   0  0  0  0  0  0  0  0  0  0  0  0
   58.6210   30.1020   47.6570 C   0  0  0  0  0  0  0  0  0  0  0  0
   59.0880   30.6660   48.9510 C   0  0  0  0  0  0  0  0  0  0  0  0
   58.2600   30.8340   49.8920 O   0  0  0  0  0  0  0  0  0  0  0  0
   60.4640   31.0870   49.1240 N   0  0  1  0  0  0  0  0  0  0  0  0
   60.8850   30.5370   49.9110 H   0  0  0  0  0  0  0  0  0  0  0  0
   61.2310   30.8210   47.8810 C   0  0  0  0  0  0  0  0  0  0  0  0
   60.6083   31.1036   47.0194 H   0  0  0  0  0  0  0  0  0  0  0  0
   61.4833   29.7503   47.8769 H   0  0  0  0  0  0  0  0  0  0  0  0
   62.5630   31.6060   47.8030 C   0  0  0  0  0  0  0  0  0  0  0  0
   62.4223   32.4778   47.1472 H   0  0  0  0  0  0  0  0  0  0  0  0
   63.3322   30.9266   47.4071 H   0  0  0  0  0  0  0  0  0  0  0  0
   63.0320   32.0960   49.1850 C   0  0  1  0  0  0  0  0  0  0  0  0
   63.1957   31.1993   49.8007 H   0  0  0  0  0  0  0  0  0  0  0  0
   64.3600   32.8180   49.1090 C   0  0  0  0  0  0  0  0  0  0  0  0
   64.5220   33.6820   48.2060 O   0  0  0  0  0  0  0  0  0  0  0  0
   65.4180   32.5980   50.0630 N   0  0  0  0  0  0  0  0  0  0  0  0
   66.2690   33.6790   50.5310 C   0  0  0  0  0  0  0  0  0  0  0  0
   66.6296   34.2780   49.6818 H   0  0  0  0  0  0  0  0  0  0  0  0
   65.7256   34.3618   51.2007 H   0  0  0  0  0  0  0  0  0  0  0  0
   67.4370   33.0080   51.2410 C   0  0  0  0  0  0  0  0  0  0  0  0
   68.3334   33.0250   50.6037 H   0  0  0  0  0  0  0  0  0  0  0  0
   67.6942   33.5269   52.1762 H   0  0  0  0  0  0  0  0  0  0  0  0
   66.9960   31.5690   51.5000 C   0  0  0  0  0  0  0  0  0  0  0  0
   67.8376   30.8767   51.3497 H   0  0  0  0  0  0  0  0  0  0  0  0
   66.6459   31.4308   52.5336 H   0  0  0  0  0  0  0  0  0  0  0  0
   65.8920   31.2900   50.4900 C   0  0  0  0  0  0  0  0  0  0  0  0
   66.2883   30.7258   49.6329 H   0  0  0  0  0  0  0  0  0  0  0  0
   65.0834   30.6844   50.9252 H   0  0  0  0  0  0  0  0  0  0  0  0
   61.9510   32.9270   49.9100 C   0  0  0  0  0  0  0  0  0  0  0  0
   62.0974   33.9890   49.6637 H   0  0  0  0  0  0  0  0  0  0  0  0
   62.0563   32.7458   50.9898 H   0  0  0  0  0  0  0  0  0  0  0  0
   60.5220   32.5160   49.5010 C   0  0  0  0  0  0  0  0  0  0  0  0
   60.2047   33.1267   48.6429 H   0  0  0  0  0  0  0  0  0  0  0  0
   59.8538   32.6772   50.3598 H   0  0  0  0  0  0  0  0  0  0  0  0
   58.5010   28.7480   47.4080 C   0  0  0  0  0  0  0  0  0  0  0  0
   58.7581   27.9320   48.0994 H   0  0  0  0  0  0  0  0  0  0  0  0
   57.9960   28.6100   46.1240 C   0  0  0  0  0  0  0  0  0  0  0  0
   57.7180   27.4540   45.4810 C   0  0  0  0  0  0  0  0  0  0  0  0
   57.8796   27.4334   44.3931 H   0  0  0  0  0  0  0  0  0  0  0  0
   57.2150   26.2130   46.1130 C   0  0  0  0  0  0  0  0  0  0  0  0
   57.9650   25.1750   46.5300 N   0  0  0  0  0  0  0  0  0  0  0  0
   57.0550   24.2860   46.9830 C   0  0  0  0  0  0  0  0  0  0  0  0
   57.3800   23.1710   47.4680 O   0  0  0  0  0  0  0  0  0  0  0  0
   55.7710   24.6850   46.8730 N   0  0  0  0  0  0  0  0  0  0  0  0
   55.8900   25.9030   46.3170 C   0  0  0  0  0  0  0  0  0  0  0  0
   54.8080   26.7140   45.9990 O   0  0  0  0  0  0  0  0  0  0  0  0
   57.8080   29.9130   45.6410 C   0  0  0  0  0  0  0  0  0  0  0  0
   57.2870   30.2370   44.4430 C   0  0  0  0  0  0  0  0  0  0  0  0
   57.1810   31.2939   44.1570 H   0  0  0  0  0  0  0  0  0  0  0  0
   56.9672   29.4449   43.7499 H   0  0  0  0  0  0  0  0  0  0  0  0
   59.3940   34.9130   47.0850 C   0  0  0  0  0  0  0  0  0  0  0  0
   59.5507   34.6481   48.1411 H   0  0  0  0  0  0  0  0  0  0  0  0
   59.8612   35.8871   46.8781 H   0  0  0  0  0  0  0  0  0  0  0  0
   58.3153   34.9723   46.8781 H   0  0  0  0  0  0  0  0  0  0  0  0
  1  2  1  0
  2  3  2  3
  3  4  1  0
  3  5  1  0
  5  6  1  0
  5  7  1  0
  5  8  1  0
  8  9  1  0
  9 10  1  0
 10 11  2  0
 10 12  1  0
 12 13  1  6
 12 14  1  0
 14 15  1  0
 14 16  1  0
 14 17  1  0
 17 18  1  0
 17 19  1  0
 17 20  1  0
 20 21  1  6
 20 22  1  0
 22 23  2  0
 22 24  1  0
 24 25  1  0
 25 26  1  0
 25 27  1  0
 25 28  1  0
 28 29  1  0
 28 30  1  0
 28 31  1  0
 31 32  1  0
 31 33  1  0
 31 34  1  0
 34 35  1  0
 34 36  1  0
 20 37  1  0
 37 38  1  0
 37 39  1  0
 37 40  1  0
 40 41  1  0
 40 42  1  0
  9 43  2  0
 43 44  1  0
 43 45  1  0
 45 46  2  0
 46 47  1  0
 46 48  1  0
 48 49  1  0
 49 50  1  0
 50 51  2  0
 50 52  1  0
 52 53  1  0
 53 54  1  0
 45 55  1  0
 55 56  2  0
 56 57  1  0
 56 58  1  0
  2 59  1  0
 59 60  1  0
 59 61  1  0
 59 62  1  0
 55  8  1  0
 40 12  1  0
 53 48  2  0
 34 24  1  0
M  CHG  4  12   1  49  -1  52  -1  54  -1
M  END
>  <UniqueID>  (73) 
68

>  <SMILES>  (73) 
C=c1/c(=C/c2[n-]c(=O)[n-]c2[O-])cc(C(=O)[NH+]2CCC(C(=O)N3CCCC3)CC2)n1CC=CC

>  <Energy>  (73) 
135.71286345503518

>  <Genealogy>  (73) 
C=c1c(=Cc2[n-]c(=O)[n-]c2[O-])cc(C(=O)[NH+]2CCC(C(=O)N3CCCC3)CC2)n1CC=CC (protonated)
C=c1/c(=C/c2[n-]c(=O)[n-]c2[O-])cc(C(=O)[NH+]2CCC(C(=O)N3CCCC3)CC2)n1CC=CC (cis-trans isomerization)
C=c1/c(=C/c2[n-]c(=O)[n-]c2[O-])cc(C(=O)[NH+]2CCC(C(=O)N3CCCC3)CC2)n1CC=CC (3D coordinates assigned)
C=c1/c(=C/c2[n-]c(=O)[n-]c2[O-])cc(C(=O)[NH+]2CCC(C(=O)N3CCCC3)CC2)n1CC=CC (nonaromatic ring conformer: 135.71286345503518 kcal/mol)

>  <smiles>  (73) 
C=c1c(=Cc2[nH]c(=O)[nH]c2O)cc(C(=O)N2CCC(C(=O)N3CCCC3)CC2)n1CC=CC

>  <score_type>  (73) 
oracle

>  <origin>  (73) 
adg

>  <m_score__min__energy>  (73) 
-16.489999999999998

>  <m_primary>  (73) 
energy

$$$$
74:0
     RDKit          3D

 53 56  0  0  0  0  0  0  0  0999 V2000
   59.2390   29.5800   44.8090 C   0  0  0  0  0  0  0  0  0  0  0  0
   59.2100   28.9410   45.9890 C   0  0  0  0  0  0  0  0  0  0  0  0
   58.3130   27.9320   46.3740 C   0  0  0  0  0  0  0  0  0  0  0  0
   57.4440   27.1960   45.6550 C   0  0  0  0  0  0  0  0  0  0  0  0
   56.9510   25.8570   46.0180 C   0  0  0  0  0  0  0  0  0  0  0  0
   57.7280   24.8330   46.4150 N   0  0  0  0  0  0  0  0  0  0  0  0
   56.8370   23.8840   46.7710 C   0  0  0  0  0  0  0  0  0  0  0  0
   57.1850   22.7500   47.1910 O   0  0  0  0  0  0  0  0  0  0  0  0
   55.5420   24.2500   46.6530 N   0  0  0  0  0  0  0  0  0  0  0  0
   55.6340   25.5070   46.1880 C   0  0  0  0  0  0  0  0  0  0  0  0
   54.5370   26.3230   45.9310 O   0  0  0  0  0  0  0  0  0  0  0  0
   58.4690   27.7800   47.7400 C   0  0  0  0  0  0  0  0  0  0  0  0
   59.4870   28.6260   48.1270 C   0  0  0  0  0  0  0  0  0  0  0  0
   59.9330   28.7860   49.5260 C   0  0  0  0  0  0  0  0  0  0  0  0
   60.4750   27.8160   50.1210 O   0  0  0  0  0  0  0  0  0  0  0  0
   59.8020   30.0510   50.1950 N   0  0  0  0  0  0  0  0  0  0  0  0
   58.5670   30.8320   50.0500 C   0  0  0  0  0  0  0  0  0  0  0  0
   58.5200   31.9880   51.0600 C   0  0  0  0  0  0  0  0  0  0  0  0
   59.7710   32.7790   51.0710 N   0  0  0  0  0  0  0  0  0  0  0  0
   59.7400   34.0320   50.2790 C   0  0  0  0  0  0  0  0  0  0  0  0
   60.3930   33.9170   48.9120 C   0  0  0  0  0  0  0  0  0  0  0  0
   61.7920   34.0010   48.7850 C   0  0  0  0  0  0  0  0  0  0  0  0
   62.4000   33.8750   47.5320 C   0  0  0  0  0  0  0  0  0  0  0  0
   61.6200   33.6800   46.3910 C   0  0  0  0  0  0  0  0  0  0  0  0
   60.2300   33.6350   46.4970 C   0  0  0  0  0  0  0  0  0  0  0  0
   59.6130   33.7660   47.7460 C   0  0  0  0  0  0  0  0  0  0  0  0
   58.2570   33.7690   47.8070 F   0  0  0  0  0  0  0  0  0  0  0  0
   61.0360   32.0110   50.9610 C   0  0  0  0  0  0  0  0  0  0  0  0
   60.8350   30.5010   51.1300 C   0  0  0  0  0  0  0  0  0  0  0  0
   59.9560   29.3180   47.0620 N   0  0  0  0  0  0  0  0  0  0  0  0
   61.0070   30.3400   47.0910 C   0  0  0  0  0  0  0  0  0  0  0  0
   59.9943   30.3578   44.6231 H   0  0  0  0  0  0  0  0  0  0  0  0
   58.5074   29.3259   44.0278 H   0  0  0  0  0  0  0  0  0  0  0  0
   57.0708   27.6324   44.7167 H   0  0  0  0  0  0  0  0  0  0  0  0
   54.3960   26.7230   45.0110 H   0  0  0  0  0  0  0  0  0  0  0  0
   57.8905   27.1109   48.3939 H   0  0  0  0  0  0  0  0  0  0  0  0
   58.5201   31.2436   49.0310 H   0  0  0  0  0  0  0  0  0  0  0  0
   57.7105   30.1683   50.2396 H   0  0  0  0  0  0  0  0  0  0  0  0
   57.6840   32.6529   50.7973 H   0  0  0  0  0  0  0  0  0  0  0  0
   58.3895   31.5529   52.0618 H   0  0  0  0  0  0  0  0  0  0  0  0
   58.6893   34.3250   50.1366 H   0  0  0  0  0  0  0  0  0  0  0  0
   60.3161   34.7794   50.8443 H   0  0  0  0  0  0  0  0  0  0  0  0
   62.4121   34.1671   49.6783 H   0  0  0  0  0  0  0  0  0  0  0  0
   63.4952   33.9297   47.4454 H   0  0  0  0  0  0  0  0  0  0  0  0
   62.1012   33.5619   45.4089 H   0  0  0  0  0  0  0  0  0  0  0  0
   59.6162   33.4959   45.5948 H   0  0  0  0  0  0  0  0  0  0  0  0
   61.4746   32.1977   49.9697 H   0  0  0  0  0  0  0  0  0  0  0  0
   61.6979   32.3482   51.7723 H   0  0  0  0  0  0  0  0  0  0  0  0
   61.7786   29.9771   50.9175 H   0  0  0  0  0  0  0  0  0  0  0  0
   60.5245   30.2802   52.1619 H   0  0  0  0  0  0  0  0  0  0  0  0
   61.2551   30.5813   48.1351 H   0  0  0  0  0  0  0  0  0  0  0  0
   61.9033   29.9588   46.5798 H   0  0  0  0  0  0  0  0  0  0  0  0
   60.6510   31.2466   46.5798 H   0  0  0  0  0  0  0  0  0  0  0  0
  1  2  2  0
  2  3  1  0
  3  4  2  3
  4  5  1  0
  5  6  1  0
  6  7  1  0
  7  8  2  0
  7  9  1  0
  9 10  1  0
 10 11  1  0
  3 12  1  0
 12 13  2  0
 13 14  1  0
 14 15  2  0
 14 16  1  0
 16 17  1  0
 17 18  1  0
 18 19  1  0
 19 20  1  0
 20 21  1  0
 21 22  2  0
 22 23  1  0
 23 24  2  0
 24 25  1  0
 25 26  2  0
 26 27  1  0
 19 28  1  0
 28 29  1  0
 13 30  1  0
 30 31  1  0
 30  2  1  0
 10  5  2  0
 29 16  1  0
 26 21  1  0
  1 32  1  0
  1 33  1  0
  4 34  1  0
 11 35  1  0
 12 36  1  0
 17 37  1  0
 17 38  1  0
 18 39  1  0
 18 40  1  0
 20 41  1  0
 20 42  1  0
 22 43  1  0
 23 44  1  0
 24 45  1  0
 25 46  1  0
 28 47  1  0
 28 48  1  0
 29 49  1  0
 29 50  1  0
 31 51  1  0
 31 52  1  0
 31 53  1  0
M  CHG  2   6  -1   9  -1
M  END
>  <UniqueID>  (74) 
69

>  <SMILES>  (74) 
C=c1c(=Cc2[n-]c(=O)[n-]c2O)cc(C(=O)N2CCN(Cc3ccccc3F)CC2)n1C

>  <Energy>  (74) 
138.44806640923343

>  <Genealogy>  (74) 
C=c1c(=Cc2[n-]c(=O)[n-]c2O)cc(C(=O)N2CCN(Cc3ccccc3F)CC2)n1C (protonated)
C=c1c(=Cc2[n-]c(=O)[n-]c2O)cc(C(=O)N2CCN(Cc3ccccc3F)CC2)n1C (3D coordinates assigned)
C=c1c(=Cc2[n-]c(=O)[n-]c2O)cc(C(=O)N2CCN(Cc3ccccc3F)CC2)n1C (nonaromatic ring conformer: 138.44806640923343 kcal/mol)

>  <smiles>  (74) 
C=c1c(=Cc2[nH]c(=O)[nH]c2O)cc(C(=O)N2CCN(Cc3ccccc3F)CC2)n1C

>  <score_type>  (74) 
oracle

>  <origin>  (74) 
adg

>  <m_score__min__energy>  (74) 
-13.09

>  <m_primary>  (74) 
energy

$$$$
75:0
     RDKit          3D

 28 29  0  0  0  0  0  0  0  0999 V2000
   60.0255   25.6977   46.1937 H   0  0  0  0  0  0  0  0  0  0  0  0
   58.9620   25.4260   46.2650 C   0  0  0  0  0  0  0  0  0  0  0  0
   58.5820   24.0520   45.8620 C   0  0  0  0  0  0  0  0  0  0  0  0
   59.5040   23.2390   45.5830 O   0  0  0  0  0  0  0  0  0  0  0  0
   57.1710   23.6210   45.7170 C   0  0  0  0  0  0  0  0  0  0  0  0
   56.3970   24.0900   44.6390 C   0  0  0  0  0  0  0  0  0  0  0  0
   56.8485   24.7609   43.8933 H   0  0  0  0  0  0  0  0  0  0  0  0
   55.0590   23.7090   44.5100 C   0  0  0  0  0  0  0  0  0  0  0  0
   54.4589   24.0884   43.6698 H   0  0  0  0  0  0  0  0  0  0  0  0
   54.4820   22.8480   45.4450 C   0  0  0  0  0  0  0  0  0  0  0  0
   53.1500   22.4730   45.3160 O   0  0  0  0  0  0  0  0  0  0  0  0
   55.2440   22.3620   46.5110 C   0  0  0  0  0  0  0  0  0  0  0  0
   54.7892   21.6786   47.2432 H   0  0  0  0  0  0  0  0  0  0  0  0
   56.5840   22.7420   46.6500 C   0  0  0  0  0  0  0  0  0  0  0  0
   57.3150   22.2580   47.7310 O   0  0  0  0  0  0  0  0  0  0  0  0
   58.1140   26.3660   46.7100 C   0  0  0  0  0  0  0  0  0  0  0  0
   57.6645   26.2184   47.7031 H   0  0  0  0  0  0  0  0  0  0  0  0
   57.7400   27.5850   45.9630 C   0  0  0  0  0  0  0  0  0  0  0  0
   58.7410   28.5080   45.6260 C   0  0  0  0  0  0  0  0  0  0  0  0
   59.7794   28.3276   45.9408 H   0  0  0  0  0  0  0  0  0  0  0  0
   58.4270   29.6550   44.8930 C   0  0  0  0  0  0  0  0  0  0  0  0
   59.2202   30.3658   44.6179 H   0  0  0  0  0  0  0  0  0  0  0  0
   57.1060   29.9000   44.5090 C   0  0  0  0  0  0  0  0  0  0  0  0
   56.8625   30.7975   43.9215 H   0  0  0  0  0  0  0  0  0  0  0  0
   56.0940   29.0070   44.8700 C   0  0  0  0  0  0  0  0  0  0  0  0
   54.7800   29.2680   44.5000 O   0  0  0  0  0  0  0  0  0  0  0  0
   56.4020   27.8570   45.6090 C   0  0  0  0  0  0  0  0  0  0  0  0
   55.3780   26.9970   45.9960 O   0  0  0  0  0  0  0  0  0  0  0  0
  1  2  1  0
  2  3  1  0
  3  4  2  0
  3  5  1  0
  5  6  2  0
  6  7  1  0
  6  8  1  0
  8  9  1  0
  8 10  2  0
 10 11  1  0
 10 12  1  0
 12 13  1  0
 12 14  2  0
 14 15  1  0
  2 16  2  0
 16 17  1  0
 16 18  1  0
 18 19  2  0
 19 20  1  0
 19 21  1  0
 21 22  1  0
 21 23  2  0
 23 24  1  0
 23 25  1  0
 25 26  1  0
 25 27  2  0
 27 28  1  0
 14  5  1  0
 27 18  1  0
M  CHG  4  11  -1  15  -1  26  -1  28  -1
M  END
>  <UniqueID>  (75) 
70

>  <SMILES>  (75) 
O=C(/C=C\c1cccc([O-])c1[O-])c1ccc([O-])cc1[O-]

>  <Energy>  (75) 
41.740252482210785

>  <Genealogy>  (75) 
O=C(C=Cc1cccc([O-])c1[O-])c1ccc([O-])cc1[O-] (protonated)
O=C(/C=C\c1cccc([O-])c1[O-])c1ccc([O-])cc1[O-] (cis-trans isomerization)
O=C(/C=C\c1cccc([O-])c1[O-])c1ccc([O-])cc1[O-] (3D coordinates assigned)
O=C(/C=C\c1cccc([O-])c1[O-])c1ccc([O-])cc1[O-] (optimized conformer: 41.740252482210785 kcal/mol)

>  <smiles>  (75) 
O=C(C=Cc1cccc(O)c1O)c1ccc(O)cc1O

>  <score_type>  (75) 
oracle

>  <origin>  (75) 
adg

>  <m_score__min__energy>  (75) 
-16.989999999999998

>  <m_primary>  (75) 
energy

$$$$
76:0
     RDKit          3D

 51 53  0  0  0  0  0  0  0  0999 V2000
   56.8130   30.4240   43.4490 C   0  0  0  0  0  0  0  0  0  0  0  0
   57.3740   31.6080   43.1730 C   0  0  0  0  0  0  0  0  0  0  0  0
   57.5390   32.0310   41.7380 C   0  0  0  0  0  0  0  0  0  0  0  0
   57.7960   32.5170   44.2720 C   0  0  0  0  0  0  0  0  0  0  0  0
   57.2430   33.6450   44.3960 O   0  0  0  0  0  0  0  0  0  0  0  0
   58.8450   32.1400   45.1810 N   0  0  0  0  0  0  0  0  0  0  0  0
   59.1490   32.8980   46.3640 C   0  0  0  0  0  0  0  0  0  0  0  0
   59.1660   34.3040   46.3050 C   0  0  0  0  0  0  0  0  0  0  0  0
   59.5130   35.0570   47.4280 C   0  0  0  0  0  0  0  0  0  0  0  0
   59.8470   34.4190   48.6220 C   0  0  0  0  0  0  0  0  0  0  0  0
   59.8250   33.0260   48.7000 C   0  0  0  0  0  0  0  0  0  0  0  0
   59.4680   32.2520   47.5830 C   0  0  0  0  0  0  0  0  0  0  0  0
   59.5150   30.7770   47.6950 C   0  0  0  0  0  0  0  0  0  0  0  0
   59.8760   30.2450   48.7760 O   0  0  0  0  0  0  0  0  0  0  0  0
   59.2420   29.9370   46.5660 N   0  0  0  0  0  0  0  0  0  0  0  0
   58.9830   28.5270   46.6270 C   0  0  0  0  0  0  0  0  0  0  0  0
   59.9790   27.6720   47.1130 C   0  0  0  0  0  0  0  0  0  0  0  0
   59.7600   26.2930   47.1640 C   0  0  0  0  0  0  0  0  0  0  0  0
   58.5410   25.7600   46.7380 C   0  0  0  0  0  0  0  0  0  0  0  0
   57.5240   26.6060   46.2660 C   0  0  0  0  0  0  0  0  0  0  0  0
   56.2250   26.0540   45.8230 C   0  0  0  0  0  0  0  0  0  0  0  0
   55.1750   26.7110   46.0550 O   0  0  0  0  0  0  0  0  0  0  0  0
   56.1390   24.8040   45.1130 N   0  0  0  0  0  0  0  0  0  0  0  0
   55.0110   23.8960   45.3410 C   0  0  0  0  0  0  0  0  0  0  0  0
   54.5920   23.2540   44.0140 C   0  0  0  0  0  0  0  0  0  0  0  0
   55.7050   22.6640   43.3670 O   0  0  0  0  0  0  0  0  0  0  0  0
   56.6340   23.6680   43.0000 C   0  0  0  0  0  0  0  0  0  0  0  0
   57.2240   24.3430   44.2410 C   0  0  0  0  0  0  0  0  0  0  0  0
   57.7420   27.9920   46.2410 C   0  0  0  0  0  0  0  0  0  0  0  0
   56.6876   30.1051   44.4943 H   0  0  0  0  0  0  0  0  0  0  0  0
   56.4775   29.7702   42.6305 H   0  0  0  0  0  0  0  0  0  0  0  0
   57.9385   33.0552   41.7013 H   0  0  0  0  0  0  0  0  0  0  0  0
   58.2363   31.3471   41.2320 H   0  0  0  0  0  0  0  0  0  0  0  0
   56.5628   31.9998   41.2320 H   0  0  0  0  0  0  0  0  0  0  0  0
   59.4670   31.3410   44.9310 H   0  0  0  0  0  0  0  0  0  0  0  0
   58.9037   34.8138   45.3662 H   0  0  0  0  0  0  0  0  0  0  0  0
   59.5230   36.1555   47.3709 H   0  0  0  0  0  0  0  0  0  0  0  0
   60.1281   35.0143   49.5032 H   0  0  0  0  0  0  0  0  0  0  0  0
   60.0897   32.5291   49.6450 H   0  0  0  0  0  0  0  0  0  0  0  0
   60.9380   28.0874   47.4562 H   0  0  0  0  0  0  0  0  0  0  0  0
   60.5492   25.6256   47.5404 H   0  0  0  0  0  0  0  0  0  0  0  0
   58.3769   24.6729   46.7724 H   0  0  0  0  0  0  0  0  0  0  0  0
   55.3112   23.1099   46.0494 H   0  0  0  0  0  0  0  0  0  0  0  0
   54.1643   24.4621   45.7565 H   0  0  0  0  0  0  0  0  0  0  0  0
   53.8368   22.4788   44.2110 H   0  0  0  0  0  0  0  0  0  0  0  0
   54.1774   24.0352   43.3599 H   0  0  0  0  0  0  0  0  0  0  0  0
   57.4473   23.2110   42.4171 H   0  0  0  0  0  0  0  0  0  0  0  0
   56.1127   24.4281   42.3996 H   0  0  0  0  0  0  0  0  0  0  0  0
   57.8509   23.6223   44.7865 H   0  0  0  0  0  0  0  0  0  0  0  0
   57.8356   25.2038   43.9327 H   0  0  0  0  0  0  0  0  0  0  0  0
   56.9349   28.6653   45.9166 H   0  0  0  0  0  0  0  0  0  0  0  0
  1  2  2  0
  2  3  1  0
  2  4  1  0
  4  5  2  0
  4  6  1  0
  6  7  1  0
  7  8  2  0
  8  9  1  0
  9 10  2  0
 10 11  1  0
 11 12  2  0
 12 13  1  0
 13 14  2  0
 13 15  1  0
 15 16  1  0
 16 17  2  0
 17 18  1  0
 18 19  2  0
 19 20  1  0
 20 21  1  0
 21 22  2  0
 21 23  1  0
 23 24  1  0
 24 25  1  0
 25 26  1  0
 26 27  1  0
 27 28  1  0
 20 29  2  0
 12  7  1  0
 29 16  1  0
 28 23  1  0
  1 30  1  0
  1 31  1  0
  3 32  1  0
  3 33  1  0
  3 34  1  0
  6 35  1  0
  8 36  1  0
  9 37  1  0
 10 38  1  0
 11 39  1  0
 17 40  1  0
 18 41  1  0
 19 42  1  0
 24 43  1  0
 24 44  1  0
 25 45  1  0
 25 46  1  0
 27 47  1  0
 27 48  1  0
 28 49  1  0
 28 50  1  0
 29 51  1  0
M  CHG  1  15  -1
M  END
>  <UniqueID>  (76) 
71

>  <SMILES>  (76) 
C=C(C)C(=O)Nc1ccccc1C(=O)[N-]c1cccc(C(=O)N2CCOCC2)c1

>  <Energy>  (76) 
70.94824466630998

>  <Genealogy>  (76) 
C=C(C)C(=O)Nc1ccccc1C(=O)[N-]c1cccc(C(=O)N2CCOCC2)c1 (protonated)
C=C(C)C(=O)Nc1ccccc1C(=O)[N-]c1cccc(C(=O)N2CCOCC2)c1 (3D coordinates assigned)
C=C(C)C(=O)Nc1ccccc1C(=O)[N-]c1cccc(C(=O)N2CCOCC2)c1 (nonaromatic ring conformer: 70.94824466630998 kcal/mol)

>  <smiles>  (76) 
C=C(C)C(=O)Nc1ccccc1C(=O)Nc1cccc(C(=O)N2CCOCC2)c1

>  <score_type>  (76) 
oracle

>  <origin>  (76) 
adg

>  <m_score__min__energy>  (76) 
-11.09

>  <m_primary>  (76) 
energy

$$$$
77:0
     RDKit          3D

 51 54  0  0  0  0  0  0  0  0999 V2000
   63.1960   31.9800   48.5740 C   0  0  0  0  0  0  0  0  0  0  0  0
   62.0160   31.2980   47.8890 C   0  0  0  0  0  0  0  0  0  0  0  0
   61.5610   30.1820   48.6540 O   0  0  0  0  0  0  0  0  0  0  0  0
   60.5260   29.3050   48.2850 C   0  0  0  0  0  0  0  0  0  0  0  0
   60.7680   27.9300   48.3650 C   0  0  0  0  0  0  0  0  0  0  0  0
   59.7780   27.0090   48.0090 C   0  0  0  0  0  0  0  0  0  0  0  0
   58.5240   27.4570   47.5570 C   0  0  0  0  0  0  0  0  0  0  0  0
   57.4730   26.5460   47.2060 N   0  0  0  0  0  0  0  0  0  0  0  0
   56.5830   26.6640   46.0870 C   0  0  0  0  0  0  0  0  0  0  0  0
   55.4380   26.1430   46.1280 O   0  0  0  0  0  0  0  0  0  0  0  0
   57.0250   27.2750   44.8700 N   0  0  0  0  0  0  0  0  0  0  0  0
   57.1860   28.6820   44.6470 C   0  0  0  0  0  0  0  0  0  0  0  0
   56.0820   29.5430   44.5120 C   0  0  0  0  0  0  0  0  0  0  0  0
   56.2780   30.9070   44.2700 C   0  0  0  0  0  0  0  0  0  0  0  0
   57.5790   31.4290   44.1560 C   0  0  0  0  0  0  0  0  0  0  0  0
   57.8240   32.7860   43.9040 O   0  0  0  0  0  0  0  0  0  0  0  0
   57.5700   33.8400   44.7940 C   0  0  0  0  0  0  0  0  0  0  0  0
   56.6490   34.6670   44.5510 O   0  0  0  0  0  0  0  0  0  0  0  0
   58.3550   33.9370   46.0530 C   0  0  0  0  0  0  0  0  0  0  0  0
   58.0640   33.0720   47.1210 C   0  0  0  0  0  0  0  0  0  0  0  0
   58.7950   33.1570   48.3090 C   0  0  0  0  0  0  0  0  0  0  0  0
   58.5310   32.3100   49.3970 C   0  0  0  0  0  0  0  0  0  0  0  0
   59.2840   32.4280   50.5700 C   0  0  0  0  0  0  0  0  0  0  0  0
   60.2980   33.3860   50.6610 C   0  0  0  0  0  0  0  0  0  0  0  0
   60.5660   34.2320   49.5800 C   0  0  0  0  0  0  0  0  0  0  0  0
   59.8170   34.1230   48.4020 C   0  0  0  0  0  0  0  0  0  0  0  0
   60.0730   34.9280   47.3750 O   0  0  0  0  0  0  0  0  0  0  0  0
   59.3990   34.8750   46.2290 C   0  0  0  0  0  0  0  0  0  0  0  0
   59.7070   35.6800   45.3090 O   0  0  0  0  0  0  0  0  0  0  0  0
   58.6720   30.5600   44.2470 C   0  0  0  0  0  0  0  0  0  0  0  0
   58.4780   29.1970   44.4870 C   0  0  0  0  0  0  0  0  0  0  0  0
   58.2700   28.8320   47.5030 C   0  0  0  0  0  0  0  0  0  0  0  0
   59.2610   29.7530   47.8540 C   0  0  0  0  0  0  0  0  0  0  0  0
   63.0764   31.9109   49.6653 H   0  0  0  0  0  0  0  0  0  0  0  0
   64.1307   31.4829   48.2753 H   0  0  0  0  0  0  0  0  0  0  0  0
   63.2318   33.0381   48.2753 H   0  0  0  0  0  0  0  0  0  0  0  0
   61.1940   32.0211   47.7822 H   0  0  0  0  0  0  0  0  0  0  0  0
   62.3413   30.9391   46.9014 H   0  0  0  0  0  0  0  0  0  0  0  0
   61.7476   27.5691   48.7117 H   0  0  0  0  0  0  0  0  0  0  0  0
   59.9808   25.9304   48.0827 H   0  0  0  0  0  0  0  0  0  0  0  0
   55.0610   29.1426   44.5970 H   0  0  0  0  0  0  0  0  0  0  0  0
   55.4098   31.5748   44.1683 H   0  0  0  0  0  0  0  0  0  0  0  0
   57.2604   32.3274   47.0221 H   0  0  0  0  0  0  0  0  0  0  0  0
   57.7338   31.5553   49.3273 H   0  0  0  0  0  0  0  0  0  0  0  0
   59.0776   31.7651   51.4232 H   0  0  0  0  0  0  0  0  0  0  0  0
   60.8870   33.4747   51.5858 H   0  0  0  0  0  0  0  0  0  0  0  0
   61.3657   34.9835   49.6553 H   0  0  0  0  0  0  0  0  0  0  0  0
   59.6925   30.9531   44.1286 H   0  0  0  0  0  0  0  0  0  0  0  0
   59.3461   28.5244   44.5506 H   0  0  0  0  0  0  0  0  0  0  0  0
   57.2814   29.1913   47.1814 H   0  0  0  0  0  0  0  0  0  0  0  0
   59.0529   30.8315   47.7937 H   0  0  0  0  0  0  0  0  0  0  0  0
  1  2  1  0
  2  3  1  0
  3  4  1  0
  4  5  2  0
  5  6  1  0
  6  7  2  0
  7  8  1  0
  8  9  1  0
  9 10  2  0
  9 11  1  0
 11 12  1  0
 12 13  2  0
 13 14  1  0
 14 15  2  0
 15 16  1  0
 16 17  1  0
 17 18  2  0
 17 19  1  0
 19 20  2  0
 20 21  1  0
 21 22  2  0
 22 23  1  0
 23 24  2  0
 24 25  1  0
 25 26  2  0
 26 27  1  0
 27 28  1  0
 28 29  2  0
 15 30  1  0
 30 31  2  0
  7 32  1  0
 32 33  2  0
 33  4  1  0
 31 12  1  0
 28 19  1  0
 26 21  1  0
  1 34  1  0
  1 35  1  0
  1 36  1  0
  2 37  1  0
  2 38  1  0
  5 39  1  0
  6 40  1  0
 13 41  1  0
 14 42  1  0
 20 43  1  0
 22 44  1  0
 23 45  1  0
 24 46  1  0
 25 47  1  0
 30 48  1  0
 31 49  1  0
 32 50  1  0
 33 51  1  0
M  CHG  2   8  -1  11  -1
M  END
>  <UniqueID>  (77) 
72

>  <SMILES>  (77) 
CCOc1ccc([N-]C(=O)[N-]c2ccc(OC(=O)c3cc4ccccc4oc3=O)cc2)cc1

>  <Energy>  (77) 
71.19727702299213

>  <Genealogy>  (77) 
CCOc1ccc([N-]C(=O)[N-]c2ccc(OC(=O)c3cc4ccccc4oc3=O)cc2)cc1 (protonated)
CCOc1ccc([N-]C(=O)[N-]c2ccc(OC(=O)c3cc4ccccc4oc3=O)cc2)cc1 (3D coordinates assigned)
CCOc1ccc([N-]C(=O)[N-]c2ccc(OC(=O)c3cc4ccccc4oc3=O)cc2)cc1 (optimized conformer: 71.19727702299213 kcal/mol)

>  <smiles>  (77) 
CCOc1ccc(NC(=O)Nc2ccc(OC(=O)c3cc4ccccc4oc3=O)cc2)cc1

>  <score_type>  (77) 
oracle

>  <origin>  (77) 
adg

>  <m_score__min__energy>  (77) 
-11.66

>  <m_primary>  (77) 
energy

$$$$
78:0
     RDKit          3D

 45 47  0  0  0  0  0  0  0  0999 V2000
   58.4470   32.2620   44.4720 C   0  0  0  0  0  0  0  0  0  0  0  0
   57.9020   31.0960   44.8300 C   0  0  0  0  0  0  0  0  0  0  0  0
   56.6050   30.8410   44.5520 N   0  0  0  0  0  0  0  0  0  0  0  0
   56.3660   29.5980   44.9960 C   0  0  0  0  0  0  0  0  0  0  0  0
   55.1320   28.9730   44.8690 O   0  0  0  0  0  0  0  0  0  0  0  0
   57.4890   29.0320   45.5580 C   0  0  0  0  0  0  0  0  0  0  0  0
   57.5680   27.6560   46.0970 C   0  0  0  0  0  0  0  0  0  0  0  0
   56.6960   26.6630   45.6250 C   0  0  0  0  0  0  0  0  0  0  0  0
   56.7770   25.3580   46.1230 C   0  0  0  0  0  0  0  0  0  0  0  0
   57.7440   25.0210   47.0790 C   0  0  0  0  0  0  0  0  0  0  0  0
   57.7760   23.6760   47.5790 N   0  0  0  0  0  0  0  0  0  0  0  0
   56.6520   22.8070   47.7740 C   0  0  0  0  0  0  0  0  0  0  0  0
   56.4810   22.2190   48.8740 O   0  0  0  0  0  0  0  0  0  0  0  0
   55.7010   22.6010   46.7240 N   0  0  0  0  0  0  0  0  0  0  0  0
   55.9970   22.4700   45.3230 C   0  0  0  0  0  0  0  0  0  0  0  0
   57.0250   21.6200   44.8750 C   0  0  0  0  0  0  0  0  0  0  0  0
   57.2870   21.4850   43.5080 C   0  0  0  0  0  0  0  0  0  0  0  0
   56.5140   22.1780   42.5760 C   0  0  0  0  0  0  0  0  0  0  0  0
   55.4700   23.0010   43.0050 C   0  0  0  0  0  0  0  0  0  0  0  0
   55.1990   23.1520   44.3770 C   0  0  0  0  0  0  0  0  0  0  0  0
   54.0670   24.0330   44.8260 C   0  0  0  0  0  0  0  0  0  0  0  0
   58.6120   26.0170   47.5610 C   0  0  0  0  0  0  0  0  0  0  0  0
   58.5320   27.3210   47.0630 C   0  0  0  0  0  0  0  0  0  0  0  0
   58.4990   29.9950   45.4830 C   0  0  0  0  0  0  0  0  0  0  0  0
   59.7330   29.8310   46.0170 C   0  0  0  0  0  0  0  0  0  0  0  0
   60.3410   30.5770   47.1720 C   0  0  0  0  0  0  0  0  0  0  0  0
   59.7700   30.1430   48.4900 C   0  0  0  0  0  0  0  0  0  0  0  0
   58.5230   30.0740   48.6560 O   0  0  0  0  0  0  0  0  0  0  0  0
   60.6220   29.7410   49.5110 O   0  0  0  0  0  0  0  0  0  0  0  0
   59.5034   32.4681   44.6991 H   0  0  0  0  0  0  0  0  0  0  0  0
   57.8394   33.0159   43.9501 H   0  0  0  0  0  0  0  0  0  0  0  0
   55.9455   26.9117   44.8602 H   0  0  0  0  0  0  0  0  0  0  0  0
   56.0763   24.5911   45.7613 H   0  0  0  0  0  0  0  0  0  0  0  0
   57.6264   21.0581   45.6048 H   0  0  0  0  0  0  0  0  0  0  0  0
   58.1036   20.8316   43.1671 H   0  0  0  0  0  0  0  0  0  0  0  0
   56.7270   22.0762   41.5016 H   0  0  0  0  0  0  0  0  0  0  0  0
   54.8556   23.5346   42.2649 H   0  0  0  0  0  0  0  0  0  0  0  0
   54.0353   24.0576   45.9253 H   0  0  0  0  0  0  0  0  0  0  0  0
   54.2202   25.0518   44.4407 H   0  0  0  0  0  0  0  0  0  0  0  0
   53.1170   23.6343   44.4407 H   0  0  0  0  0  0  0  0  0  0  0  0
   59.3562   25.7693   48.3322 H   0  0  0  0  0  0  0  0  0  0  0  0
   59.2282   28.0897   47.4297 H   0  0  0  0  0  0  0  0  0  0  0  0
   60.3649   29.0610   45.5504 H   0  0  0  0  0  0  0  0  0  0  0  0
   61.4260   30.3960   47.1790 H   0  0  0  0  0  0  0  0  0  0  0  0
   60.1145   31.6454   47.0410 H   0  0  0  0  0  0  0  0  0  0  0  0
  1  2  2  0
  2  3  1  0
  3  4  1  0
  4  5  1  0
  4  6  2  0
  6  7  1  0
  7  8  2  0
  8  9  1  0
  9 10  2  0
 10 11  1  0
 11 12  1  0
 12 13  2  0
 12 14  1  0
 14 15  1  0
 15 16  2  0
 16 17  1  0
 17 18  2  0
 18 19  1  0
 19 20  2  0
 20 21  1  0
 10 22  1  0
 22 23  2  0
  6 24  1  0
 24 25  2  3
 25 26  1  0
 26 27  1  0
 27 28  2  0
 27 29  1  0
 24  2  1  0
 23  7  1  0
 20 15  1  0
  1 30  1  0
  1 31  1  0
  8 32  1  0
  9 33  1  0
 16 34  1  0
 17 35  1  0
 18 36  1  0
 19 37  1  0
 21 38  1  0
 21 39  1  0
 21 40  1  0
 22 41  1  0
 23 42  1  0
 25 43  1  0
 26 44  1  0
 26 45  1  0
M  CHG  5   3  -1   5  -1  11  -1  14  -1  29  -1
M  END
>  <UniqueID>  (78) 
73

>  <SMILES>  (78) 
C=c1[n-]c([O-])c(-c2ccc([N-]C(=O)[N-]c3ccccc3C)cc2)c1=CCC(=O)[O-]

>  <Energy>  (78) 
94.4670432178228

>  <Genealogy>  (78) 
C=c1[n-]c([O-])c(-c2ccc([N-]C(=O)[N-]c3ccccc3C)cc2)c1=CCC(=O)[O-] (protonated)
C=c1[n-]c([O-])c(-c2ccc([N-]C(=O)[N-]c3ccccc3C)cc2)c1=CCC(=O)[O-] (3D coordinates assigned)
C=c1[n-]c([O-])c(-c2ccc([N-]C(=O)[N-]c3ccccc3C)cc2)c1=CCC(=O)[O-] (optimized conformer: 94.4670432178228 kcal/mol)

>  <smiles>  (78) 
C=c1[nH]c(O)c(-c2ccc(NC(=O)Nc3ccccc3C)cc2)c1=CCC(=O)O

>  <score_type>  (78) 
oracle

>  <origin>  (78) 
adg

>  <m_score__min__energy>  (78) 
-16.32

>  <m_primary>  (78) 
energy

$$$$
79:0
     RDKit          3D

 56 59  0  0  0  0  0  0  0  0999 V2000
   59.2950   35.7850   44.9380 O   0  0  0  0  0  0  0  0  0  0  0  0
   59.4470   34.7540   45.6420 C   0  0  0  0  0  0  0  0  0  0  0  0
   60.1740   34.8550   46.8720 N   0  0  0  0  0  0  0  0  0  0  0  0
   61.2820   34.0130   47.2160 C   0  0  0  0  0  0  0  0  0  0  0  0
   62.4530   34.0090   46.4410 C   0  0  0  0  0  0  0  0  0  0  0  0
   63.5280   33.1880   46.7970 C   0  0  0  0  0  0  0  0  0  0  0  0
   63.4380   32.3570   47.9170 C   0  0  0  0  0  0  0  0  0  0  0  0
   62.2620   32.3320   48.6840 C   0  0  0  0  0  0  0  0  0  0  0  0
   62.1280   31.3860   49.8120 C   0  0  0  0  0  0  0  0  0  0  0  0
   63.1530   31.0660   50.4800 O   0  0  0  0  0  0  0  0  0  0  0  0
   60.8510   30.7980   50.1360 N   0  0  0  0  0  0  0  0  0  0  0  0
   60.0390   30.2160   49.0560 C   0  0  0  0  0  0  0  0  0  0  0  0
   58.5890   30.0430   49.5200 C   0  0  0  0  0  0  0  0  0  0  0  0
   58.5350   29.3390   50.7430 O   0  0  0  0  0  0  0  0  0  0  0  0
   59.1240   30.1220   51.7630 C   0  0  0  0  0  0  0  0  0  0  0  0
   60.6220   30.3200   51.5060 C   0  0  0  0  0  0  0  0  0  0  0  0
   61.1980   33.1890   48.3460 C   0  0  0  0  0  0  0  0  0  0  0  0
   58.7920   33.4860   45.2410 C   0  0  0  0  0  0  0  0  0  0  0  0
   58.5810   33.2400   43.8740 C   0  0  0  0  0  0  0  0  0  0  0  0
   58.0130   32.0390   43.4430 C   0  0  0  0  0  0  0  0  0  0  0  0
   57.6510   31.0510   44.3700 C   0  0  0  0  0  0  0  0  0  0  0  0
   57.0710   29.7980   43.9580 N   0  0  0  0  0  0  0  0  0  0  0  0
   56.2050   28.9720   44.8010 C   0  0  0  0  0  0  0  0  0  0  0  0
   57.0040   27.8950   45.4970 C   0  0  0  0  0  0  0  0  0  0  0  0
   58.4040   27.9830   45.5670 C   0  0  0  0  0  0  0  0  0  0  0  0
   59.1450   26.9890   46.2150 C   0  0  0  0  0  0  0  0  0  0  0  0
   58.4940   25.9010   46.7990 C   0  0  0  0  0  0  0  0  0  0  0  0
   57.1020   25.7990   46.7300 C   0  0  0  0  0  0  0  0  0  0  0  0
   56.3580   26.7860   46.0760 C   0  0  0  0  0  0  0  0  0  0  0  0
   54.9780   26.6560   46.0030 O   0  0  0  0  0  0  0  0  0  0  0  0
   57.8460   31.2990   45.7380 C   0  0  0  0  0  0  0  0  0  0  0  0
   58.4040   32.5040   46.1840 C   0  0  0  0  0  0  0  0  0  0  0  0
   58.5350   32.6980   47.5650 O   0  0  0  0  0  0  0  0  0  0  0  0
   62.5250   34.6529   45.5521 H   0  0  0  0  0  0  0  0  0  0  0  0
   64.4475   33.1965   46.1933 H   0  0  0  0  0  0  0  0  0  0  0  0
   64.2903   31.7211   48.1984 H   0  0  0  0  0  0  0  0  0  0  0  0
   60.0639   30.8838   48.1822 H   0  0  0  0  0  0  0  0  0  0  0  0
   60.4503   29.2317   48.7876 H   0  0  0  0  0  0  0  0  0  0  0  0
   58.1324   31.0347   49.6542 H   0  0  0  0  0  0  0  0  0  0  0  0
   58.0408   29.4693   48.7582 H   0  0  0  0  0  0  0  0  0  0  0  0
   58.6309   31.1048   51.7924 H   0  0  0  0  0  0  0  0  0  0  0  0
   58.9986   29.5997   52.7230 H   0  0  0  0  0  0  0  0  0  0  0  0
   61.0166   31.0598   52.2180 H   0  0  0  0  0  0  0  0  0  0  0  0
   61.1355   29.3560   51.6365 H   0  0  0  0  0  0  0  0  0  0  0  0
   60.2946   33.2120   48.9731 H   0  0  0  0  0  0  0  0  0  0  0  0
   58.8666   34.0024   43.1343 H   0  0  0  0  0  0  0  0  0  0  0  0
   57.8485   31.8670   42.3691 H   0  0  0  0  0  0  0  0  0  0  0  0
   57.2190   29.4820   42.9710 H   0  0  0  0  0  0  0  0  0  0  0  0
   55.7233   29.6094   45.5571 H   0  0  0  0  0  0  0  0  0  0  0  0
   55.4462   28.4930   44.1648 H   0  0  0  0  0  0  0  0  0  0  0  0
   58.9212   28.8391   45.1093 H   0  0  0  0  0  0  0  0  0  0  0  0
   60.2413   27.0648   46.2644 H   0  0  0  0  0  0  0  0  0  0  0  0
   59.0772   25.1233   47.3139 H   0  0  0  0  0  0  0  0  0  0  0  0
   56.5907   24.9410   47.1909 H   0  0  0  0  0  0  0  0  0  0  0  0
   57.5555   30.5336   46.4726 H   0  0  0  0  0  0  0  0  0  0  0  0
   58.9190   33.5410   47.9710 H   0  0  0  0  0  0  0  0  0  0  0  0
  1  2  2  0
  2  3  1  0
  3  4  1  0
  4  5  2  0
  5  6  1  0
  6  7  2  0
  7  8  1  0
  8  9  1  0
  9 10  2  0
  9 11  1  0
 11 12  1  0
 12 13  1  0
 13 14  1  0
 14 15  1  0
 15 16  1  0
  8 17  2  0
  2 18  1  0
 18 19  2  0
 19 20  1  0
 20 21  2  0
 21 22  1  0
 22 23  1  0
 23 24  1  0
 24 25  2  0
 25 26  1  0
 26 27  2  0
 27 28  1  0
 28 29  2  0
 29 30  1  0
 21 31  1  0
 31 32  2  0
 32 33  1  0
 17  4  1  0
 32 18  1  0
 16 11  1  0
 29 24  1  0
  5 34  1  0
  6 35  1  0
  7 36  1  0
 12 37  1  0
 12 38  1  0
 13 39  1  0
 13 40  1  0
 15 41  1  0
 15 42  1  0
 16 43  1  0
 16 44  1  0
 17 45  1  0
 19 46  1  0
 20 47  1  0
 22 48  1  0
 23 49  1  0
 23 50  1  0
 25 51  1  0
 26 52  1  0
 27 53  1  0
 28 54  1  0
 31 55  1  0
 33 56  1  0
M  CHG  2   3  -1  30  -1
M  END
>  <UniqueID>  (79) 
74

>  <SMILES>  (79) 
O=C([N-]c1cccc(C(=O)N2CCOCC2)c1)c1ccc(NCc2ccccc2[O-])cc1O

>  <Energy>  (79) 
75.80775768744708

>  <Genealogy>  (79) 
O=C([N-]c1cccc(C(=O)N2CCOCC2)c1)c1ccc(NCc2ccccc2[O-])cc1O (protonated)
O=C([N-]c1cccc(C(=O)N2CCOCC2)c1)c1ccc(NCc2ccccc2[O-])cc1O (3D coordinates assigned)
O=C([N-]c1cccc(C(=O)N2CCOCC2)c1)c1ccc(NCc2ccccc2[O-])cc1O (nonaromatic ring conformer: 75.80775768744708 kcal/mol)

>  <smiles>  (79) 
O=C(Nc1cccc(C(=O)N2CCOCC2)c1)c1ccc(NCc2ccccc2O)cc1O

>  <score_type>  (79) 
oracle

>  <origin>  (79) 
adg

>  <m_score__min__energy>  (79) 
-13.630000000000001

>  <m_primary>  (79) 
energy

$$$$
80:0
     RDKit          3D

 62 65  0  0  0  0  0  0  0  0999 V2000
   60.1020   28.6210   45.5350 C   0  0  0  0  0  0  0  0  0  0  0  0
   59.3230   28.1570   46.7660 C   0  0  0  0  0  0  0  0  0  0  0  0
   58.9930   29.3550   47.6640 C   0  0  0  0  0  0  0  0  0  0  0  0
   58.0960   27.4940   46.3260 N   0  0  0  0  0  0  0  0  0  0  0  0
   57.0040   28.0490   45.5730 C   0  0  0  0  0  0  0  0  0  0  0  0
   55.8930   27.4570   45.6220 O   0  0  0  0  0  0  0  0  0  0  0  0
   57.1120   29.2730   44.7500 C   0  0  0  0  0  0  0  0  0  0  0  0
   56.6050   29.2740   43.4870 N   0  0  0  0  0  0  0  0  0  0  0  0
   56.6680   30.3820   42.7060 C   0  0  0  0  0  0  0  0  0  0  0  0
   57.2580   31.5470   43.1940 C   0  0  0  0  0  0  0  0  0  0  0  0
   57.7790   31.5430   44.4970 C   0  0  0  0  0  0  0  0  0  0  0  0
   58.4250   32.7420   45.0880 C   0  0  0  0  0  0  0  0  0  0  0  0
   58.5830   33.9030   44.3130 C   0  0  0  0  0  0  0  0  0  0  0  0
   59.1780   35.0430   44.8560 C   0  0  0  0  0  0  0  0  0  0  0  0
   59.6120   35.0460   46.1830 C   0  0  0  0  0  0  0  0  0  0  0  0
   59.4450   33.9070   46.9880 C   0  0  0  0  0  0  0  0  0  0  0  0
   59.8940   33.9020   48.4020 C   0  0  0  0  0  0  0  0  0  0  0  0
   59.6460   34.9000   49.1340 O   0  0  0  0  0  0  0  0  0  0  0  0
   60.6460   32.7980   48.9320 N   0  0  0  0  0  0  0  0  0  0  0  0
   60.7890   32.5340   50.3380 C   0  0  0  0  0  0  0  0  0  0  0  0
   62.0270   32.1030   50.8360 C   0  0  0  0  0  0  0  0  0  0  0  0
   62.1840   31.8230   52.1960 C   0  0  0  0  0  0  0  0  0  0  0  0
   61.1020   31.9590   53.0690 C   0  0  0  0  0  0  0  0  0  0  0  0
   59.8540   32.3710   52.5840 C   0  0  0  0  0  0  0  0  0  0  0  0
   58.4710   32.5020   53.6680 S   0  0  0  0  0  0  0  0  0  0  0  0
   57.4250   33.3520   53.0010 O   0  0  0  0  0  0  0  0  0  0  0  0
   58.8870   33.1820   54.9430 O   0  0  0  0  0  0  0  0  0  0  0  0
   57.8020   30.9190   54.0030 N   0  0  0  0  0  0  0  0  0  0  0  0
   56.3730   30.8390   53.6500 C   0  0  0  0  0  0  0  0  0  0  0  0
   56.1500   30.7710   52.1200 C   0  0  0  0  0  0  0  0  0  0  0  0
   57.3080   30.3960   51.3930 O   0  0  0  0  0  0  0  0  0  0  0  0
   57.9760   29.3430   52.0500 C   0  0  0  0  0  0  0  0  0  0  0  0
   58.5940   29.8420   53.3700 C   0  0  0  0  0  0  0  0  0  0  0  0
   59.6970   32.6460   51.2190 C   0  0  0  0  0  0  0  0  0  0  0  0
   58.8550   32.7580   46.4300 C   0  0  0  0  0  0  0  0  0  0  0  0
   57.6750   30.4080   45.2400 N   0  0  0  0  0  0  0  0  0  0  0  0
   61.0062   29.1596   45.8548 H   0  0  0  0  0  0  0  0  0  0  0  0
   60.3897   27.7470   44.9322 H   0  0  0  0  0  0  0  0  0  0  0  0
   59.4705   29.2903   44.9322 H   0  0  0  0  0  0  0  0  0  0  0  0
   59.9326   27.4503   47.3482 H   0  0  0  0  0  0  0  0  0  0  0  0
   59.0754   29.0559   48.7193 H   0  0  0  0  0  0  0  0  0  0  0  0
   59.6993   30.1729   47.4585 H   0  0  0  0  0  0  0  0  0  0  0  0
   57.9675   29.6958   47.4585 H   0  0  0  0  0  0  0  0  0  0  0  0
   56.2533   30.3609   41.6874 H   0  0  0  0  0  0  0  0  0  0  0  0
   57.3140   32.4513   42.5702 H   0  0  0  0  0  0  0  0  0  0  0  0
   58.2349   33.9138   43.2696 H   0  0  0  0  0  0  0  0  0  0  0  0
   59.3055   35.9426   44.2359 H   0  0  0  0  0  0  0  0  0  0  0  0
   60.0876   35.9457   46.6006 H   0  0  0  0  0  0  0  0  0  0  0  0
   61.2150   32.2280   48.2680 H   0  0  0  0  0  0  0  0  0  0  0  0
   62.8800   31.9846   50.1517 H   0  0  0  0  0  0  0  0  0  0  0  0
   63.1613   31.4949   52.5798 H   0  0  0  0  0  0  0  0  0  0  0  0
   61.2302   31.7421   54.1398 H   0  0  0  0  0  0  0  0  0  0  0  0
   55.9446   29.9366   54.1106 H   0  0  0  0  0  0  0  0  0  0  0  0
   55.8825   31.7506   54.0219 H   0  0  0  0  0  0  0  0  0  0  0  0
   55.3583   30.0349   51.9165 H   0  0  0  0  0  0  0  0  0  0  0  0
   55.8756   31.7835   51.7890 H   0  0  0  0  0  0  0  0  0  0  0  0
   57.2587   28.5377   52.2669 H   0  0  0  0  0  0  0  0  0  0  0  0
   58.7790   28.9675   51.3987 H   0  0  0  0  0  0  0  0  0  0  0  0
   58.6587   28.9957   54.0697 H   0  0  0  0  0  0  0  0  0  0  0  0
   59.5863   30.2548   53.1357 H   0  0  0  0  0  0  0  0  0  0  0  0
   58.7133   32.9516   50.8332 H   0  0  0  0  0  0  0  0  0  0  0  0
   58.7275   31.8587   47.0505 H   0  0  0  0  0  0  0  0  0  0  0  0
  1  2  1  0
  2  3  1  0
  2  4  1  0
  4  5  1  0
  5  6  2  0
  5  7  1  0
  7  8  2  0
  8  9  1  0
  9 10  2  0
 10 11  1  0
 11 12  1  0
 12 13  2  0
 13 14  1  0
 14 15  2  0
 15 16  1  0
 16 17  1  0
 17 18  2  0
 17 19  1  0
 19 20  1  0
 20 21  2  0
 21 22  1  0
 22 23  2  0
 23 24  1  0
 24 25  1  0
 25 26  2  0
 25 27  2  0
 25 28  1  0
 28 29  1  0
 29 30  1  0
 30 31  1  0
 31 32  1  0
 32 33  1  0
 24 34  2  0
 16 35  2  0
 11 36  2  0
 36  7  1  0
 35 12  1  0
 34 20  1  0
 33 28  1  0
  1 37  1  0
  1 38  1  0
  1 39  1  0
  2 40  1  0
  3 41  1  0
  3 42  1  0
  3 43  1  0
  9 44  1  0
 10 45  1  0
 13 46  1  0
 14 47  1  0
 15 48  1  0
 19 49  1  0
 21 50  1  0
 22 51  1  0
 23 52  1  0
 29 53  1  0
 29 54  1  0
 30 55  1  0
 30 56  1  0
 32 57  1  0
 32 58  1  0
 33 59  1  0
 33 60  1  0
 34 61  1  0
 35 62  1  0
M  CHG  1   4  -1
M  END
>  <UniqueID>  (80) 
75

>  <SMILES>  (80) 
CC(C)[N-]C(=O)c1nccc(-c2cccc(C(=O)Nc3cccc(S(=O)(=O)N4CCOCC4)c3)c2)n1

>  <Energy>  (80) 
82.18994387694654

>  <Genealogy>  (80) 
CC(C)[N-]C(=O)c1nccc(-c2cccc(C(=O)Nc3cccc(S(=O)(=O)N4CCOCC4)c3)c2)n1 (protonated)
CC(C)[N-]C(=O)c1nccc(-c2cccc(C(=O)Nc3cccc(S(=O)(=O)N4CCOCC4)c3)c2)n1 (3D coordinates assigned)
CC(C)[N-]C(=O)c1nccc(-c2cccc(C(=O)Nc3cccc(S(=O)(=O)N4CCOCC4)c3)c2)n1 (nonaromatic ring conformer: 82.18994387694654 kcal/mol)

>  <smiles>  (80) 
CC(C)NC(=O)c1nccc(-c2cccc(C(=O)Nc3cccc(S(=O)(=O)N4CCOCC4)c3)c2)n1

>  <score_type>  (80) 
oracle

>  <origin>  (80) 
adg

>  <m_score__min__energy>  (80) 
-12.16

>  <m_primary>  (80) 
energy

$$$$
81:0
     RDKit          3D

 52 56  0  0  0  0  0  0  0  0999 V2000
   55.1420   26.7110   46.0030 N   0  0  0  0  0  0  0  0  0  0  0  0
   55.9740   25.6650   46.5000 C   0  0  0  0  0  0  0  0  0  0  0  0
   55.4660   24.5430   46.7620 O   0  0  0  0  0  0  0  0  0  0  0  0
   57.4320   25.8890   46.6520 C   0  0  0  0  0  0  0  0  0  0  0  0
   57.8520   26.9700   47.3760 N   0  0  0  0  0  0  0  0  0  0  0  0
   59.1690   27.3070   47.4880 C   0  0  0  0  0  0  0  0  0  0  0  0
   59.5540   28.4600   48.2580 N   0  0  0  0  0  0  0  0  0  0  0  0
   60.7670   28.3920   49.0930 C   0  0  0  0  0  0  0  0  0  0  0  0
   61.0950   29.7340   49.7650 C   0  0  0  0  0  0  0  0  0  0  0  0
   60.8660   30.8770   48.8140 C   0  0  0  0  0  0  0  0  0  0  0  0
   61.7750   31.9400   48.7370 C   0  0  0  0  0  0  0  0  0  0  0  0
   61.5310   33.0080   47.8740 C   0  0  0  0  0  0  0  0  0  0  0  0
   60.3650   33.0390   47.1070 C   0  0  0  0  0  0  0  0  0  0  0  0
   59.4220   32.0030   47.1970 C   0  0  0  0  0  0  0  0  0  0  0  0
   58.1750   32.1160   46.4070 C   0  0  0  0  0  0  0  0  0  0  0  0
   57.7750   33.2610   46.0670 O   0  0  0  0  0  0  0  0  0  0  0  0
   57.4120   30.9700   45.9900 N   0  0  0  0  0  0  0  0  0  0  0  0
   57.8450   29.9380   45.3240 C   0  0  0  0  0  0  0  0  0  0  0  0
   59.2100   29.8370   45.0300 C   0  0  0  0  0  0  0  0  0  0  0  0
   59.6800   28.7340   44.3140 C   0  0  0  0  0  0  0  0  0  0  0  0
   58.7870   27.7480   43.8920 C   0  0  0  0  0  0  0  0  0  0  0  0
   57.4310   27.8830   44.1920 C   0  0  0  0  0  0  0  0  0  0  0  0
   56.9940   28.9640   44.8910 N   0  0  0  0  0  0  0  0  0  0  0  0
   59.6930   30.8900   48.0350 C   0  0  0  0  0  0  0  0  0  0  0  0
   58.7690   29.7010   48.1520 C   0  0  0  0  0  0  0  0  0  0  0  0
   60.1360   26.5390   46.8370 C   0  0  0  0  0  0  0  0  0  0  0  0
   59.7490   25.4190   46.1070 C   0  0  0  0  0  0  0  0  0  0  0  0
   58.3960   25.0600   46.0190 C   0  0  0  0  0  0  0  0  0  0  0  0
   58.0480   23.7970   45.3290 C   0  0  0  0  0  0  0  0  0  0  0  0
   57.2480   23.6440   44.2170 C   0  0  0  0  0  0  0  0  0  0  0  0
   57.2530   22.3500   43.8450 N   0  0  0  0  0  0  0  0  0  0  0  0
   58.0400   21.6770   44.6710 N   0  0  0  0  0  0  0  0  0  0  0  0
   58.5440   22.5330   45.5790 C   0  0  0  0  0  0  0  0  0  0  0  0
   55.5080   27.6840   45.9010 H   0  0  0  0  0  0  0  0  0  0  0  0
   57.1420   27.5940   47.8220 H   0  0  0  0  0  0  0  0  0  0  0  0
   60.6147   27.6338   49.8752 H   0  0  0  0  0  0  0  0  0  0  0  0
   61.6104   28.1322   48.4364 H   0  0  0  0  0  0  0  0  0  0  0  0
   60.4498   29.8633   50.6465 H   0  0  0  0  0  0  0  0  0  0  0  0
   62.1538   29.7298   50.0632 H   0  0  0  0  0  0  0  0  0  0  0  0
   62.6828   31.9324   49.3582 H   0  0  0  0  0  0  0  0  0  0  0  0
   62.2596   33.8285   47.7974 H   0  0  0  0  0  0  0  0  0  0  0  0
   60.1834   33.8833   46.4256 H   0  0  0  0  0  0  0  0  0  0  0  0
   59.9073   30.6209   45.3606 H   0  0  0  0  0  0  0  0  0  0  0  0
   60.7516   28.6425   44.0832 H   0  0  0  0  0  0  0  0  0  0  0  0
   59.1480   26.8744   43.3293 H   0  0  0  0  0  0  0  0  0  0  0  0
   56.7157   27.1148   43.8630 H   0  0  0  0  0  0  0  0  0  0  0  0
   58.1429   29.8135   49.0494 H   0  0  0  0  0  0  0  0  0  0  0  0
   58.1326   29.6496   47.2563 H   0  0  0  0  0  0  0  0  0  0  0  0
   61.1982   26.8175   46.9006 H   0  0  0  0  0  0  0  0  0  0  0  0
   60.5097   24.8110   45.5954 H   0  0  0  0  0  0  0  0  0  0  0  0
   56.6940   24.4502   43.7139 H   0  0  0  0  0  0  0  0  0  0  0  0
   59.2390   22.2683   46.3895 H   0  0  0  0  0  0  0  0  0  0  0  0
  1  2  1  0
  2  3  2  0
  2  4  1  0
  4  5  2  0
  5  6  1  0
  6  7  1  0
  7  8  1  0
  8  9  1  0
  9 10  1  0
 10 11  2  0
 11 12  1  0
 12 13  2  0
 13 14  1  0
 14 15  1  0
 15 16  2  0
 15 17  1  0
 17 18  2  3
 18 19  1  0
 19 20  2  0
 20 21  1  0
 21 22  2  0
 22 23  1  0
 14 24  2  0
 24 25  1  0
  6 26  2  0
 26 27  1  0
 27 28  2  0
 28 29  1  0
 29 30  1  0
 30 31  2  0
 31 32  1  0
 32 33  1  0
 28  4  1  0
 33 29  2  0
 25  7  1  0
 24 10  1  0
 23 18  1  0
  1 34  1  0
  5 35  1  0
  8 36  1  0
  8 37  1  0
  9 38  1  0
  9 39  1  0
 11 40  1  0
 12 41  1  0
 13 42  1  0
 19 43  1  0
 20 44  1  0
 21 45  1  0
 22 46  1  0
 25 47  1  0
 25 48  1  0
 26 49  1  0
 27 50  1  0
 30 51  1  0
 33 52  1  0
M  CHG  4   1  -1   5   1  23  -1  32  -1
M  END
>  <UniqueID>  (81) 
76

>  <SMILES>  (81) 
[NH-]C(=O)c1[nH+]c(N2CCc3cccc(C(=O)N=c4cccc[n-]4)c3C2)ccc1-c1cn[n-]c1

>  <Energy>  (81) 
115.05879454723332

>  <Genealogy>  (81) 
[NH-]C(=O)c1[nH+]c(N2CCc3cccc(C(=O)N=c4cccc[n-]4)c3C2)ccc1-c1cn[n-]c1 (protonated)
[NH-]C(=O)c1[nH+]c(N2CCc3cccc(C(=O)N=c4cccc[n-]4)c3C2)ccc1-c1cn[n-]c1 (3D coordinates assigned)
[NH-]C(=O)c1[nH+]c(N2CCc3cccc(C(=O)N=c4cccc[n-]4)c3C2)ccc1-c1cn[n-]c1 (nonaromatic ring conformer: 115.05879454723332 kcal/mol)

>  <smiles>  (81) 
NC(=O)c1nc(N2CCc3cccc(C(=O)N=c4cccc[nH]4)c3C2)ccc1-c1cn[nH]c1

>  <score_type>  (81) 
oracle

>  <origin>  (81) 
adg

>  <m_score__min__energy>  (81) 
-13.58

>  <m_primary>  (81) 
energy

$$$$
82:0
     RDKit          3D

 11 10  0  0  0  0  0  0  0  0999 V2000
   57.7690   32.1540   43.6880 C   0  0  0  0  0  0  0  0  0  0  0  0
   57.1980   31.2680   44.5030 C   0  0  0  0  0  0  0  0  0  0  0  0
   56.2750   30.2130   44.0400 C   0  0  0  0  0  0  0  0  0  0  0  0
   56.2720   29.7120   42.6260 C   0  0  0  0  0  0  0  0  0  0  0  0
   55.4610   29.7180   44.8650 O   0  0  0  0  0  0  0  0  0  0  0  0
   58.4488   32.9171   44.0948 H   0  0  0  0  0  0  0  0  0  0  0  0
   57.5606   32.1223   42.6084 H   0  0  0  0  0  0  0  0  0  0  0  0
   57.4264   31.3257   45.5775 H   0  0  0  0  0  0  0  0  0  0  0  0
   56.2654   28.6120   42.6268 H   0  0  0  0  0  0  0  0  0  0  0  0
   55.3761   30.0837   42.1072 H   0  0  0  0  0  0  0  0  0  0  0  0
   57.1723   30.0729   42.1072 H   0  0  0  0  0  0  0  0  0  0  0  0
  1  2  2  0
  2  3  1  0
  3  4  1  0
  3  5  2  0
  1  6  1  0
  1  7  1  0
  2  8  1  0
  4  9  1  0
  4 10  1  0
  4 11  1  0
M  END
>  <UniqueID>  (82) 
77

>  <SMILES>  (82) 
C=CC(C)=O

>  <Energy>  (82) 
4.2803477018747

>  <Genealogy>  (82) 
C=CC(C)=O (3D coordinates assigned)
C=CC(C)=O (optimized conformer: 4.2803477018747 kcal/mol)

>  <smiles>  (82) 
C=CC(C)=O

>  <score_type>  (82) 
oracle

>  <origin>  (82) 
adg

>  <m_score__min__energy>  (82) 
-3.2999999999999998

>  <m_primary>  (82) 
energy

$$$$
83:0
     RDKit          3D

 58 62  0  0  0  0  0  0  0  0999 V2000
   56.9340   29.9290   43.1360 O   0  0  0  0  0  0  0  0  0  0  0  0
   56.9630   29.9300   44.3960 C   0  0  0  0  0  0  0  0  0  0  0  0
   56.3450   28.8380   45.0960 N   0  0  0  0  0  0  0  0  0  0  0  0
   56.9610   27.8170   45.6220 C   0  0  0  0  0  0  0  0  0  0  0  0
   58.3220   27.7860   45.7150 N   0  0  0  0  0  0  0  0  0  0  0  0
   58.9850   26.7310   46.2580 C   0  0  0  0  0  0  0  0  0  0  0  0
   58.2720   25.6280   46.7330 C   0  0  0  0  0  0  0  0  0  0  0  0
   56.8800   25.6240   46.6380 C   0  0  0  0  0  0  0  0  0  0  0  0
   56.2160   26.7180   46.0770 C   0  0  0  0  0  0  0  0  0  0  0  0
   54.8280   26.7120   45.9830 O   0  0  0  0  0  0  0  0  0  0  0  0
   57.5670   31.0850   45.1040 C   0  0  0  0  0  0  0  0  0  0  0  0
   56.9960   32.3640   44.9840 C   0  0  0  0  0  0  0  0  0  0  0  0
   57.5600   33.4550   45.6530 C   0  0  0  0  0  0  0  0  0  0  0  0
   58.6940   33.2800   46.4490 C   0  0  0  0  0  0  0  0  0  0  0  0
   59.2670   32.0100   46.5860 C   0  0  0  0  0  0  0  0  0  0  0  0
   60.6850   31.7690   47.6050 S   0  0  0  0  0  0  0  0  0  0  0  0
   61.9110   31.8790   46.7420 O   0  0  0  0  0  0  0  0  0  0  0  0
   60.7480   32.8470   48.6520 O   0  0  0  0  0  0  0  0  0  0  0  0
   60.6440   30.1840   48.3510 N   0  0  0  0  0  0  0  0  0  0  0  0
   59.2670   29.6910   48.5410 C   0  0  0  0  0  0  0  0  0  0  0  0
   58.5100   30.4450   49.6560 C   0  0  0  0  0  0  0  0  0  0  0  0
   59.4310   31.0600   50.6340 N   0  0  0  0  0  0  0  0  0  0  0  0
   58.7500   31.4950   51.8740 C   0  0  0  0  0  0  0  0  0  0  0  0
   57.4740   30.7450   52.1530 C   0  0  0  0  0  0  0  0  0  0  0  0
   57.5090   29.5690   52.8350 N   0  0  0  0  0  0  0  0  0  0  0  0
   56.3740   28.8770   53.1170 C   0  0  0  0  0  0  0  0  0  0  0  0
   56.4540   27.7920   53.7520 O   0  0  0  0  0  0  0  0  0  0  0  0
   55.1310   29.3810   52.6990 C   0  0  0  0  0  0  0  0  0  0  0  0
   53.9190   28.7190   52.9630 C   0  0  0  0  0  0  0  0  0  0  0  0
   52.7110   29.2700   52.5240 C   0  0  0  0  0  0  0  0  0  0  0  0
   52.7030   30.4790   51.8200 C   0  0  0  0  0  0  0  0  0  0  0  0
   53.9030   31.1440   51.5530 C   0  0  0  0  0  0  0  0  0  0  0  0
   55.1170   30.6020   51.9880 C   0  0  0  0  0  0  0  0  0  0  0  0
   56.2830   31.2490   51.7340 N   0  0  0  0  0  0  0  0  0  0  0  0
   60.6150   30.2250   50.8760 C   0  0  0  0  0  0  0  0  0  0  0  0
   61.4560   30.1330   49.5900 C   0  0  0  0  0  0  0  0  0  0  0  0
   58.6940   30.9150   45.9280 C   0  0  0  0  0  0  0  0  0  0  0  0
   60.0830   26.7459   46.3233 H   0  0  0  0  0  0  0  0  0  0  0  0
   58.8018   24.7723   47.1769 H   0  0  0  0  0  0  0  0  0  0  0  0
   56.3057   24.7603   47.0044 H   0  0  0  0  0  0  0  0  0  0  0  0
   56.1010   32.5074   44.3607 H   0  0  0  0  0  0  0  0  0  0  0  0
   57.1093   34.4533   45.5519 H   0  0  0  0  0  0  0  0  0  0  0  0
   59.1378   34.1416   46.9693 H   0  0  0  0  0  0  0  0  0  0  0  0
   58.7161   29.8143   47.5969 H   0  0  0  0  0  0  0  0  0  0  0  0
   59.3318   28.6346   48.8407 H   0  0  0  0  0  0  0  0  0  0  0  0
   57.8991   31.2365   49.1975 H   0  0  0  0  0  0  0  0  0  0  0  0
   57.8828   29.7174   50.1919 H   0  0  0  0  0  0  0  0  0  0  0  0
   59.4360   31.3419   52.7201 H   0  0  0  0  0  0  0  0  0  0  0  0
   58.4810   32.5533   51.7414 H   0  0  0  0  0  0  0  0  0  0  0  0
   53.9210   27.7675   53.5150 H   0  0  0  0  0  0  0  0  0  0  0  0
   51.7639   28.7511   52.7329 H   0  0  0  0  0  0  0  0  0  0  0  0
   51.7500   30.9072   51.4758 H   0  0  0  0  0  0  0  0  0  0  0  0
   53.8928   32.0949   51.0001 H   0  0  0  0  0  0  0  0  0  0  0  0
   61.2206   30.6727   51.6778 H   0  0  0  0  0  0  0  0  0  0  0  0
   60.2946   29.2161   51.1749 H   0  0  0  0  0  0  0  0  0  0  0  0
   62.1658   30.9733   49.5766 H   0  0  0  0  0  0  0  0  0  0  0  0
   61.9659   29.1584   49.6043 H   0  0  0  0  0  0  0  0  0  0  0  0
   59.1291   29.9129   46.0567 H   0  0  0  0  0  0  0  0  0  0  0  0
  1  2  2  0
  2  3  1  0
  3  4  2  3
  4  5  1  0
  5  6  1  0
  6  7  2  0
  7  8  1  0
  8  9  2  0
  9 10  1  0
  2 11  1  0
 11 12  2  0
 12 13  1  0
 13 14  2  0
 14 15  1  0
 15 16  1  0
 16 17  2  0
 16 18  2  0
 16 19  1  0
 19 20  1  0
 20 21  1  0
 21 22  1  0
 22 23  1  0
 23 24  1  0
 24 25  2  0
 25 26  1  0
 26 27  2  0
 26 28  1  0
 28 29  2  0
 29 30  1  0
 30 31  2  0
 31 32  1  0
 32 33  2  0
 33 34  1  0
 22 35  1  0
 35 36  1  0
 15 37  2  0
  9  4  1  0
 37 11  1  0
 36 19  1  0
 34 24  1  0
 33 28  1  0
  6 38  1  0
  7 39  1  0
  8 40  1  0
 12 41  1  0
 13 42  1  0
 14 43  1  0
 20 44  1  0
 20 45  1  0
 21 46  1  0
 21 47  1  0
 23 48  1  0
 23 49  1  0
 29 50  1  0
 30 51  1  0
 31 52  1  0
 32 53  1  0
 35 54  1  0
 35 55  1  0
 36 56  1  0
 36 57  1  0
 37 58  1  0
M  CHG  3   5  -1  10  -1  34  -1
M  END
>  <UniqueID>  (83) 
78

>  <SMILES>  (83) 
O=C(N=c1[n-]cccc1[O-])c1cccc(S(=O)(=O)N2CCN(Cc3nc(=O)c4ccccc4[n-]3)CC2)c1

>  <Energy>  (83) 
88.92976012803649

>  <Genealogy>  (83) 
O=C(N=c1[n-]cccc1[O-])c1cccc(S(=O)(=O)N2CCN(Cc3nc(=O)c4ccccc4[n-]3)CC2)c1 (protonated)
O=C(N=c1[n-]cccc1[O-])c1cccc(S(=O)(=O)N2CCN(Cc3nc(=O)c4ccccc4[n-]3)CC2)c1 (3D coordinates assigned)
O=C(N=c1[n-]cccc1[O-])c1cccc(S(=O)(=O)N2CCN(Cc3nc(=O)c4ccccc4[n-]3)CC2)c1 (nonaromatic ring conformer: 88.92976012803649 kcal/mol)

>  <smiles>  (83) 
O=C(N=c1[nH]cccc1O)c1cccc(S(=O)(=O)N2CCN(Cc3nc(=O)c4ccccc4[nH]3)CC2)c1

>  <score_type>  (83) 
oracle

>  <origin>  (83) 
adg

>  <m_score__min__energy>  (83) 
-16.719999999999999

>  <m_primary>  (83) 
energy

$$$$
84:0
     RDKit          3D

 57 59  0  0  0  0  0  0  0  0999 V2000
   62.9500   31.7860   47.8520 C   0  0  0  0  0  0  0  0  0  0  0  0
   62.2500   33.1330   47.5730 C   0  0  0  0  0  0  0  0  0  0  0  0
   63.0770   33.8460   46.4750 C   0  0  0  0  0  0  0  0  0  0  0  0
   62.2390   33.9750   48.8810 C   0  0  0  0  0  0  0  0  0  0  0  0
   60.9210   33.8380   49.6570 C   0  0  0  0  0  0  0  0  0  0  0  0
   60.6610   32.4530   50.0740 N   0  0  0  0  0  0  0  0  0  0  0  0
   59.4420   32.0640   50.7230 C   0  0  0  0  0  0  0  0  0  0  0  0
   58.7400   32.9200   51.3270 O   0  0  0  0  0  0  0  0  0  0  0  0
   58.9830   30.6370   50.6750 C   0  0  0  0  0  0  0  0  0  0  0  0
   60.1050   29.7340   50.4320 N   0  0  0  0  0  0  0  0  0  0  0  0
   60.3210   28.9220   49.2690 C   0  0  0  0  0  0  0  0  0  0  0  0
   61.1260   27.9520   49.3530 O   0  0  0  0  0  0  0  0  0  0  0  0
   59.6540   29.1820   47.9750 C   0  0  0  0  0  0  0  0  0  0  0  0
   58.4570   28.5340   47.6310 C   0  0  0  0  0  0  0  0  0  0  0  0
   57.8290   28.8090   46.4120 C   0  0  0  0  0  0  0  0  0  0  0  0
   58.3940   29.7250   45.5040 C   0  0  0  0  0  0  0  0  0  0  0  0
   57.7130   30.0600   44.2740 N   0  0  0  0  0  0  0  0  0  0  0  0
   57.8750   31.1830   43.5390 C   0  0  0  0  0  0  0  0  0  0  0  0
   57.0130   31.1720   42.4610 C   0  0  0  0  0  0  0  0  0  0  0  0
   56.2940   29.9960   42.5430 C   0  0  0  0  0  0  0  0  0  0  0  0
   56.7470   29.3340   43.6660 C   0  0  0  0  0  0  0  0  0  0  0  0
   59.6250   30.3250   45.8300 C   0  0  0  0  0  0  0  0  0  0  0  0
   60.2580   30.0360   47.0410 C   0  0  0  0  0  0  0  0  0  0  0  0
   59.7720   34.3670   48.7920 C   0  0  0  0  0  0  0  0  0  0  0  0
   59.8030   33.8410   47.3140 C   0  0  0  0  0  0  0  0  0  0  0  0
   59.9490   35.0240   46.3290 C   0  0  0  0  0  0  0  0  0  0  0  0
   58.4580   33.1470   47.0160 C   0  0  0  0  0  0  0  0  0  0  0  0
   60.8740   32.8300   47.0970 N   0  0  0  0  0  0  0  0  0  0  0  0
   63.0298   31.6324   48.9383 H   0  0  0  0  0  0  0  0  0  0  0  0
   62.3626   30.9687   47.4083 H   0  0  0  0  0  0  0  0  0  0  0  0
   63.9565   31.7970   47.4083 H   0  0  0  0  0  0  0  0  0  0  0  0
   63.8298   34.4950   46.9463 H   0  0  0  0  0  0  0  0  0  0  0  0
   63.5808   33.0945   45.8494 H   0  0  0  0  0  0  0  0  0  0  0  0
   62.4079   34.4550   45.8494 H   0  0  0  0  0  0  0  0  0  0  0  0
   63.0644   33.6373   49.5250 H   0  0  0  0  0  0  0  0  0  0  0  0
   62.3528   35.0322   48.5991 H   0  0  0  0  0  0  0  0  0  0  0  0
   61.0012   34.4335   50.5784 H   0  0  0  0  0  0  0  0  0  0  0  0
   61.2960   31.6930   49.7410 H   0  0  0  0  0  0  0  0  0  0  0  0
   58.5140   30.3775   51.6356 H   0  0  0  0  0  0  0  0  0  0  0  0
   58.2613   30.5286   49.8519 H   0  0  0  0  0  0  0  0  0  0  0  0
   58.0105   27.8059   48.3242 H   0  0  0  0  0  0  0  0  0  0  0  0
   56.8844   28.3048   46.1601 H   0  0  0  0  0  0  0  0  0  0  0  0
   58.5893   31.9879   43.7667 H   0  0  0  0  0  0  0  0  0  0  0  0
   56.9175   31.9484   41.6877 H   0  0  0  0  0  0  0  0  0  0  0  0
   55.5126   29.6536   41.8486 H   0  0  0  0  0  0  0  0  0  0  0  0
   56.3768   28.3589   44.0155 H   0  0  0  0  0  0  0  0  0  0  0  0
   60.0926   31.0278   45.1247 H   0  0  0  0  0  0  0  0  0  0  0  0
   61.2385   30.4820   47.2640 H   0  0  0  0  0  0  0  0  0  0  0  0
   58.8211   34.0584   49.2508 H   0  0  0  0  0  0  0  0  0  0  0  0
   59.8801   35.4608   48.7469 H   0  0  0  0  0  0  0  0  0  0  0  0
   60.0645   35.9602   46.8949 H   0  0  0  0  0  0  0  0  0  0  0  0
   60.8345   34.8667   45.6957 H   0  0  0  0  0  0  0  0  0  0  0  0
   59.0518   35.0867   45.6957 H   0  0  0  0  0  0  0  0  0  0  0  0
   57.9602   32.8902   47.9627 H   0  0  0  0  0  0  0  0  0  0  0  0
   57.8155   33.8261   46.4364 H   0  0  0  0  0  0  0  0  0  0  0  0
   58.6392   32.2298   46.4364 H   0  0  0  0  0  0  0  0  0  0  0  0
   60.8880   32.5110   46.0990 H   0  0  0  0  0  0  0  0  0  0  0  0
  1  2  1  0
  2  3  1  0
  2  4  1  0
  4  5  1  0
  5  6  1  0
  6  7  1  0
  7  8  2  0
  7  9  1  0
  9 10  1  0
 10 11  1  0
 11 12  2  0
 11 13  1  0
 13 14  2  0
 14 15  1  0
 15 16  2  0
 16 17  1  0
 17 18  1  0
 18 19  2  0
 19 20  1  0
 20 21  2  0
 16 22  1  0
 22 23  2  0
  5 24  1  0
 24 25  1  0
 25 26  1  0
 25 27  1  0
 25 28  1  0
 28  2  1  0
 23 13  1  0
 21 17  1  0
  1 29  1  0
  1 30  1  0
  1 31  1  0
  3 32  1  0
  3 33  1  0
  3 34  1  0
  4 35  1  0
  4 36  1  0
  5 37  1  0
  6 38  1  0
  9 39  1  0
  9 40  1  0
 14 41  1  0
 15 42  1  0
 18 43  1  0
 19 44  1  0
 20 45  1  0
 21 46  1  0
 22 47  1  0
 23 48  1  0
 24 49  1  0
 24 50  1  0
 26 51  1  0
 26 52  1  0
 26 53  1  0
 27 54  1  0
 27 55  1  0
 27 56  1  0
 28 57  1  0
M  CHG  1  10  -1
M  END
>  <UniqueID>  (84) 
79

>  <SMILES>  (84) 
CC1(C)CC(NC(=O)C[N-]C(=O)c2ccc(-n3cccc3)cc2)CC(C)(C)N1

>  <Energy>  (84) 
92.40586266000534

>  <Genealogy>  (84) 
CC1(C)CC(NC(=O)C[N-]C(=O)c2ccc(-n3cccc3)cc2)CC(C)(C)N1 (protonated)
CC1(C)CC(NC(=O)C[N-]C(=O)c2ccc(-n3cccc3)cc2)CC(C)(C)N1 (3D coordinates assigned)
CC1(C)CC(NC(=O)C[N-]C(=O)c2ccc(-n3cccc3)cc2)CC(C)(C)N1 (nonaromatic ring conformer: 92.40586266000534 kcal/mol)

>  <smiles>  (84) 
CC1(C)CC(NC(=O)CNC(=O)c2ccc(-n3cccc3)cc2)CC(C)(C)N1

>  <score_type>  (84) 
oracle

>  <origin>  (84) 
adg

>  <m_score__min__energy>  (84) 
-9.6500000000000004

>  <m_primary>  (84) 
energy

$$$$
85:0
     RDKit          3D

 56 59  0  0  0  0  0  0  0  0999 V2000
   54.0685   27.3628   53.9749 H   0  0  0  0  0  0  0  0  0  0  0  0
   53.6960   28.3170   53.5740 C   0  0  0  0  0  0  0  0  0  0  0  0
   52.6161   28.4692   53.4306 H   0  0  0  0  0  0  0  0  0  0  0  0
   54.5560   29.2920   53.2610 C   0  0  0  0  0  0  0  0  0  0  0  0
   54.2400   30.5580   52.7430 C   0  0  0  0  0  0  0  0  0  0  0  0
   53.0650   31.1880   52.5970 C   0  0  0  0  0  0  0  0  0  0  0  0
   52.7201   31.7999   53.4436 H   0  0  0  0  0  0  0  0  0  0  0  0
   52.1940   31.1390   51.4140 C   0  0  0  0  0  0  0  0  0  0  0  0
   52.3050   30.2060   50.4550 N   0  0  0  0  0  0  0  0  0  0  0  0
   51.4650   30.6390   49.4950 C   0  0  0  0  0  0  0  0  0  0  0  0
   51.2850   30.0100   48.4250 O   0  0  0  0  0  0  0  0  0  0  0  0
   50.8530   31.8110   49.7640 N   0  0  0  0  0  0  0  0  0  0  0  0
   51.3380   32.1220   50.9720 C   0  0  0  0  0  0  0  0  0  0  0  0
   51.0310   33.2950   51.6440 O   0  0  0  0  0  0  0  0  0  0  0  0
   55.4370   31.1100   52.3380 C   0  0  0  0  0  0  0  0  0  0  0  0
   55.5749   32.0901   51.8581 H   0  0  0  0  0  0  0  0  0  0  0  0
   56.4280   30.2040   52.6470 C   0  0  0  0  0  0  0  0  0  0  0  0
   57.8600   30.4690   52.4070 C   0  0  0  0  0  0  0  0  0  0  0  0
   58.6920   29.6290   52.8520 O   0  0  0  0  0  0  0  0  0  0  0  0
   58.3560   31.6760   51.7600 N   0  0  0  0  0  0  0  0  0  0  0  0
   58.0250   32.4560   52.3670 H   0  0  0  0  0  0  0  0  0  0  0  0
   57.7490   31.9590   50.4340 C   0  0  0  0  0  0  0  0  0  0  0  0
   56.7703   31.4581   50.3983 H   0  0  0  0  0  0  0  0  0  0  0  0
   57.6972   33.0553   50.3600 H   0  0  0  0  0  0  0  0  0  0  0  0
   58.5650   31.4950   49.1980 C   0  0  0  0  0  0  0  0  0  0  0  0
   58.1697   30.5222   48.8704 H   0  0  0  0  0  0  0  0  0  0  0  0
   58.4553   32.2813   48.4366 H   0  0  0  0  0  0  0  0  0  0  0  0
   60.0110   31.3460   49.4430 N   0  0  0  0  0  0  0  0  0  0  0  0
   60.7840   31.5640   48.2050 C   0  0  0  0  0  0  0  0  0  0  0  0
   61.8008   31.8916   48.4673 H   0  0  0  0  0  0  0  0  0  0  0  0
   60.8204   30.6207   47.6404 H   0  0  0  0  0  0  0  0  0  0  0  0
   60.1310   32.6170   47.3470 C   0  0  0  0  0  0  0  0  0  0  0  0
   60.3250   33.9740   47.6390 C   0  0  0  0  0  0  0  0  0  0  0  0
   60.9598   34.2652   48.4888 H   0  0  0  0  0  0  0  0  0  0  0  0
   59.7160   34.9600   46.8560 C   0  0  0  0  0  0  0  0  0  0  0  0
   59.8591   36.0230   47.0999 H   0  0  0  0  0  0  0  0  0  0  0  0
   58.9230   34.5920   45.7600 C   0  0  0  0  0  0  0  0  0  0  0  0
   58.4492   35.3688   45.1419 H   0  0  0  0  0  0  0  0  0  0  0  0
   58.7310   33.2390   45.4480 C   0  0  0  0  0  0  0  0  0  0  0  0
   57.8270   32.8470   44.3240 C   0  0  0  0  0  0  0  0  0  0  0  0
   56.8898   32.4406   44.7319 H   0  0  0  0  0  0  0  0  0  0  0  0
   57.6057   33.7300   43.7065 H   0  0  0  0  0  0  0  0  0  0  0  0
   58.3203   32.0820   43.7065 H   0  0  0  0  0  0  0  0  0  0  0  0
   59.3260   32.2590   46.2590 C   0  0  0  0  0  0  0  0  0  0  0  0
   59.1572   31.1951   46.0362 H   0  0  0  0  0  0  0  0  0  0  0  0
   60.4670   32.2300   50.5210 C   0  0  0  0  0  0  0  0  0  0  0  0
   61.5641   32.1981   50.5949 H   0  0  0  0  0  0  0  0  0  0  0  0
   60.1678   33.2700   50.3236 H   0  0  0  0  0  0  0  0  0  0  0  0
   59.8430   31.7270   51.8160 C   0  0  0  0  0  0  0  0  0  0  0  0
   60.2217   30.7142   52.0181 H   0  0  0  0  0  0  0  0  0  0  0  0
   60.1197   32.4335   52.6124 H   0  0  0  0  0  0  0  0  0  0  0  0
   55.9070   29.1140   53.2540 N   0  0  0  0  0  0  0  0  0  0  0  0
   56.6480   27.9530   53.7600 C   0  0  0  0  0  0  0  0  0  0  0  0
   56.6408   27.9643   54.8599 H   0  0  0  0  0  0  0  0  0  0  0  0
   56.1723   27.0289   53.3997 H   0  0  0  0  0  0  0  0  0  0  0  0
   57.6865   27.9953   53.3997 H   0  0  0  0  0  0  0  0  0  0  0  0
  1  2  1  0
  2  3  1  0
  2  4  2  0
  4  5  1  0
  5  6  2  0
  6  7  1  0
  6  8  1  0
  8  9  1  0
  9 10  1  0
 10 11  2  0
 10 12  1  0
 12 13  1  0
 13 14  1  0
  5 15  1  0
 15 16  1  0
 15 17  2  0
 17 18  1  0
 18 19  2  0
 18 20  1  0
 20 21  1  0
 20 22  1  0
 22 23  1  0
 22 24  1  0
 22 25  1  0
 25 26  1  0
 25 27  1  0
 25 28  1  0
 28 29  1  0
 29 30  1  0
 29 31  1  0
 29 32  1  0
 32 33  2  0
 33 34  1  0
 33 35  1  0
 35 36  1  0
 35 37  2  0
 37 38  1  0
 37 39  1  0
 39 40  1  0
 40 41  1  0
 40 42  1  0
 40 43  1  0
 39 44  2  0
 44 45  1  0
 28 46  1  0
 46 47  1  0
 46 48  1  0
 46 49  1  0
 49 50  1  0
 49 51  1  0
 17 52  1  0
 52 53  1  0
 53 54  1  0
 53 55  1  0
 53 56  1  0
 52  4  1  0
 13  8  2  0
 49 20  1  0
 44 32  1  0
M  CHG  4   9  -1  12  -1  14  -1  20   1
M  END
>  <UniqueID>  (85) 
80

>  <SMILES>  (85) 
C=c1/c(=C\c2[n-]c(=O)[n-]c2[O-])cc(C(=O)[NH+]2CCN(Cc3cccc(C)c3)CC2)n1C

>  <Energy>  (85) 
156.2639496189754

>  <Genealogy>  (85) 
C=c1c(=Cc2[n-]c(=O)[n-]c2[O-])cc(C(=O)[NH+]2CCN(Cc3cccc(C)c3)CC2)n1C (protonated)
C=c1/c(=C\c2[n-]c(=O)[n-]c2[O-])cc(C(=O)[NH+]2CCN(Cc3cccc(C)c3)CC2)n1C (cis-trans isomerization)
C=c1/c(=C\c2[n-]c(=O)[n-]c2[O-])cc(C(=O)[NH+]2CCN(Cc3cccc(C)c3)CC2)n1C (3D coordinates assigned)
C=c1/c(=C\c2[n-]c(=O)[n-]c2[O-])cc(C(=O)[NH+]2CCN(Cc3cccc(C)c3)CC2)n1C (nonaromatic ring conformer: 156.2639496189754 kcal/mol)

>  <smiles>  (85) 
C=c1c(=Cc2[nH]c(=O)[nH]c2O)cc(C(=O)N2CCN(Cc3cccc(C)c3)CC2)n1C

>  <score_type>  (85) 
oracle

>  <origin>  (85) 
adg

>  <m_score__min__energy>  (85) 
-17.52

>  <m_primary>  (85) 
energy

$$$$
86:0
     RDKit          3D

 41 43  0  0  0  0  0  0  0  0999 V2000
   61.5670   34.0720   48.9600 C   0  0  0  0  0  0  0  0  0  0  0  0
   60.5150   33.9330   47.9010 C   0  0  0  0  0  0  0  0  0  0  0  0
   59.2010   33.5860   48.2460 C   0  0  0  0  0  0  0  0  0  0  0  0
   58.2160   33.4770   47.2590 C   0  0  0  0  0  0  0  0  0  0  0  0
   58.5330   33.7100   45.9110 C   0  0  0  0  0  0  0  0  0  0  0  0
   57.5000   33.5470   44.8620 C   0  0  0  0  0  0  0  0  0  0  0  0
   56.6720   34.4750   44.6580 O   0  0  0  0  0  0  0  0  0  0  0  0
   57.4350   32.3710   44.0410 N   0  0  0  0  0  0  0  0  0  0  0  0
   57.3360   31.0280   44.5340 C   0  0  0  0  0  0  0  0  0  0  0  0
   58.4230   30.4650   45.2120 C   0  0  0  0  0  0  0  0  0  0  0  0
   58.3260   29.1800   45.7570 C   0  0  0  0  0  0  0  0  0  0  0  0
   57.1420   28.4450   45.6280 C   0  0  0  0  0  0  0  0  0  0  0  0
   57.0500   27.1530   46.2430 N   0  0  0  0  0  0  0  0  0  0  0  0
   56.1610   26.0990   45.8430 C   0  0  0  0  0  0  0  0  0  0  0  0
   54.9200   26.2750   45.9690 O   0  0  0  0  0  0  0  0  0  0  0  0
   56.6590   24.8350   45.2510 C   0  0  0  0  0  0  0  0  0  0  0  0
   57.9320   24.3340   45.5830 C   0  0  0  0  0  0  0  0  0  0  0  0
   58.3850   23.1340   45.0300 C   0  0  0  0  0  0  0  0  0  0  0  0
   57.5800   22.4240   44.1370 C   0  0  0  0  0  0  0  0  0  0  0  0
   56.3220   22.9200   43.7850 C   0  0  0  0  0  0  0  0  0  0  0  0
   55.5240   22.2170   42.8910 O   0  0  0  0  0  0  0  0  0  0  0  0
   55.8640   24.1240   44.3330 C   0  0  0  0  0  0  0  0  0  0  0  0
   56.0790   28.9790   44.8790 C   0  0  0  0  0  0  0  0  0  0  0  0
   56.1750   30.2610   44.3360 C   0  0  0  0  0  0  0  0  0  0  0  0
   59.8410   34.1010   45.5740 C   0  0  0  0  0  0  0  0  0  0  0  0
   60.8220   34.2150   46.5620 C   0  0  0  0  0  0  0  0  0  0  0  0
   61.0980   34.0100   49.9531 H   0  0  0  0  0  0  0  0  0  0  0  0
   62.3051   33.2636   48.8520 H   0  0  0  0  0  0  0  0  0  0  0  0
   62.0698   35.0444   48.8520 H   0  0  0  0  0  0  0  0  0  0  0  0
   58.9434   33.3984   49.2988 H   0  0  0  0  0  0  0  0  0  0  0  0
   57.1873   33.2073   47.5403 H   0  0  0  0  0  0  0  0  0  0  0  0
   59.3578   31.0352   45.3169 H   0  0  0  0  0  0  0  0  0  0  0  0
   59.1847   28.7452   46.2896 H   0  0  0  0  0  0  0  0  0  0  0  0
   58.5736   24.8907   46.2819 H   0  0  0  0  0  0  0  0  0  0  0  0
   59.3790   22.7471   45.2988 H   0  0  0  0  0  0  0  0  0  0  0  0
   57.9360   21.4745   43.7107 H   0  0  0  0  0  0  0  0  0  0  0  0
   54.8776   24.5163   44.0446 H   0  0  0  0  0  0  0  0  0  0  0  0
   55.1676   28.3838   44.7202 H   0  0  0  0  0  0  0  0  0  0  0  0
   55.3392   30.6726   43.7511 H   0  0  0  0  0  0  0  0  0  0  0  0
   60.0934   34.3185   44.5257 H   0  0  0  0  0  0  0  0  0  0  0  0
   61.8405   34.5276   46.2883 H   0  0  0  0  0  0  0  0  0  0  0  0
  1  2  1  0
  2  3  2  0
  3  4  1  0
  4  5  2  0
  5  6  1  0
  6  7  2  0
  6  8  1  0
  8  9  1  0
  9 10  2  0
 10 11  1  0
 11 12  2  0
 12 13  1  0
 13 14  1  0
 14 15  2  0
 14 16  1  0
 16 17  2  0
 17 18  1  0
 18 19  2  0
 19 20  1  0
 20 21  1  0
 20 22  2  0
 12 23  1  0
 23 24  2  0
  5 25  1  0
 25 26  2  0
 26  2  1  0
 24  9  1  0
 22 16  1  0
  1 27  1  0
  1 28  1  0
  1 29  1  0
  3 30  1  0
  4 31  1  0
 10 32  1  0
 11 33  1  0
 17 34  1  0
 18 35  1  0
 19 36  1  0
 22 37  1  0
 23 38  1  0
 24 39  1  0
 25 40  1  0
 26 41  1  0
M  CHG  3   8  -1  13  -1  21  -1
M  END
>  <UniqueID>  (86) 
81

>  <SMILES>  (86) 
Cc1ccc(C(=O)[N-]c2ccc([N-]C(=O)c3cccc([O-])c3)cc2)cc1

>  <Energy>  (86) 
55.20050806195496

>  <Genealogy>  (86) 
Cc1ccc(C(=O)[N-]c2ccc([N-]C(=O)c3cccc([O-])c3)cc2)cc1 (protonated)
Cc1ccc(C(=O)[N-]c2ccc([N-]C(=O)c3cccc([O-])c3)cc2)cc1 (3D coordinates assigned)
Cc1ccc(C(=O)[N-]c2ccc([N-]C(=O)c3cccc([O-])c3)cc2)cc1 (optimized conformer: 55.20050806195496 kcal/mol)

>  <smiles>  (86) 
Cc1ccc(C(=O)Nc2ccc(NC(=O)c3cccc(O)c3)cc2)cc1

>  <score_type>  (86) 
oracle

>  <origin>  (86) 
adg

>  <m_score__min__energy>  (86) 
-14.48

>  <m_primary>  (86) 
energy

$$$$
87:0
     RDKit          3D

 51 54  0  0  0  0  0  0  0  0999 V2000
   56.2720   19.6770   45.2090 C   0  0  0  0  0  0  0  0  0  0  0  0
   57.0800   20.2950   46.0710 C   0  0  0  0  0  0  0  0  0  0  0  0
   57.2290   21.7640   46.1090 C   0  0  0  0  0  0  0  0  0  0  0  0
   57.3550   22.4830   44.9140 C   0  0  0  0  0  0  0  0  0  0  0  0
   57.4980   23.8760   44.9550 C   0  0  0  0  0  0  0  0  0  0  0  0
   57.6280   24.6130   43.7700 C   0  0  0  0  0  0  0  0  0  0  0  0
   57.7700   26.0010   43.8150 C   0  0  0  0  0  0  0  0  0  0  0  0
   57.7840   26.6800   45.0460 C   0  0  0  0  0  0  0  0  0  0  0  0
   57.9340   28.1570   45.0870 C   0  0  0  0  0  0  0  0  0  0  0  0
   57.0180   28.9880   44.4180 C   0  0  0  0  0  0  0  0  0  0  0  0
   57.1600   30.3780   44.4560 C   0  0  0  0  0  0  0  0  0  0  0  0
   58.2240   30.9690   45.1590 C   0  0  0  0  0  0  0  0  0  0  0  0
   58.3850   32.4430   45.2150 C   0  0  0  0  0  0  0  0  0  0  0  0
   58.6220   33.0760   44.1500 O   0  0  0  0  0  0  0  0  0  0  0  0
   58.2620   33.1590   46.4550 N   0  0  0  0  0  0  0  0  0  0  0  0
   58.5110   34.5960   46.5560 C   0  0  0  0  0  0  0  0  0  0  0  0
   59.9230   34.9310   46.0690 C   0  0  0  0  0  0  0  0  0  0  0  0
   60.9530   34.2420   46.9240 C   0  0  0  0  0  0  0  0  0  0  0  0
   62.1760   33.8310   46.3660 C   0  0  0  0  0  0  0  0  0  0  0  0
   63.1190   33.1630   47.1520 C   0  0  0  0  0  0  0  0  0  0  0  0
   62.8460   32.8910   48.4960 C   0  0  0  0  0  0  0  0  0  0  0  0
   63.7850   32.2250   49.2750 O   0  0  0  0  0  0  0  0  0  0  0  0
   61.6260   33.2840   49.0540 C   0  0  0  0  0  0  0  0  0  0  0  0
   60.6800   33.9530   48.2710 C   0  0  0  0  0  0  0  0  0  0  0  0
   59.1300   30.1390   45.8390 C   0  0  0  0  0  0  0  0  0  0  0  0
   58.9900   28.7490   45.7990 C   0  0  0  0  0  0  0  0  0  0  0  0
   57.6540   25.9430   46.2370 C   0  0  0  0  0  0  0  0  0  0  0  0
   57.5110   24.5430   46.2010 C   0  0  0  0  0  0  0  0  0  0  0  0
   57.3810   23.7790   47.3770 C   0  0  0  0  0  0  0  0  0  0  0  0
   57.3890   24.3290   48.5110 O   0  0  0  0  0  0  0  0  0  0  0  0
   57.2450   22.4290   47.2970 N   0  0  0  0  0  0  0  0  0  0  0  0
   56.1938   18.5798   45.2182 H   0  0  0  0  0  0  0  0  0  0  0  0
   55.6836   20.2643   44.4887 H   0  0  0  0  0  0  0  0  0  0  0  0
   57.6585   19.6868   46.7819 H   0  0  0  0  0  0  0  0  0  0  0  0
   57.3418   21.9568   43.9481 H   0  0  0  0  0  0  0  0  0  0  0  0
   57.6181   24.0951   42.7996 H   0  0  0  0  0  0  0  0  0  0  0  0
   57.8719   26.5688   42.8784 H   0  0  0  0  0  0  0  0  0  0  0  0
   56.1825   28.5403   43.8599 H   0  0  0  0  0  0  0  0  0  0  0  0
   56.4327   31.0149   43.9312 H   0  0  0  0  0  0  0  0  0  0  0  0
   57.9670   32.6590   47.3220 H   0  0  0  0  0  0  0  0  0  0  0  0
   57.7776   35.1348   45.9380 H   0  0  0  0  0  0  0  0  0  0  0  0
   58.4163   34.9003   47.6088 H   0  0  0  0  0  0  0  0  0  0  0  0
   60.0353   34.5969   45.0270 H   0  0  0  0  0  0  0  0  0  0  0  0
   60.0741   36.0185   46.1369 H   0  0  0  0  0  0  0  0  0  0  0  0
   62.3916   34.0359   45.3070 H   0  0  0  0  0  0  0  0  0  0  0  0
   64.0778   32.8507   46.7124 H   0  0  0  0  0  0  0  0  0  0  0  0
   61.4098   33.0667   50.1104 H   0  0  0  0  0  0  0  0  0  0  0  0
   59.7182   34.2541   48.7118 H   0  0  0  0  0  0  0  0  0  0  0  0
   59.9576   30.5871   46.4085 H   0  0  0  0  0  0  0  0  0  0  0  0
   59.7135   28.1129   46.3300 H   0  0  0  0  0  0  0  0  0  0  0  0
   57.6642   26.4652   47.2051 H   0  0  0  0  0  0  0  0  0  0  0  0
  1  2  2  0
  2  3  1  0
  3  4  2  0
  4  5  1  0
  5  6  2  0
  6  7  1  0
  7  8  2  0
  8  9  1  0
  9 10  2  0
 10 11  1  0
 11 12  2  0
 12 13  1  0
 13 14  2  0
 13 15  1  0
 15 16  1  0
 16 17  1  0
 17 18  1  0
 18 19  2  0
 19 20  1  0
 20 21  2  0
 21 22  1  0
 21 23  1  0
 23 24  2  0
 12 25  1  0
 25 26  2  0
  8 27  1  0
 27 28  2  0
 28 29  1  0
 29 30  2  0
 29 31  1  0
 31  3  1  0
 28  5  1  0
 26  9  1  0
 24 18  1  0
  1 32  1  0
  1 33  1  0
  2 34  1  0
  4 35  1  0
  6 36  1  0
  7 37  1  0
 10 38  1  0
 11 39  1  0
 15 40  1  0
 16 41  1  0
 16 42  1  0
 17 43  1  0
 17 44  1  0
 19 45  1  0
 20 46  1  0
 23 47  1  0
 24 48  1  0
 25 49  1  0
 26 50  1  0
 27 51  1  0
M  CHG  2  22  -1  31  -1
M  END
>  <UniqueID>  (87) 
82

>  <SMILES>  (87) 
C=Cc1cc2ccc(-c3ccc(C(=O)NCCc4ccc([O-])cc4)cc3)cc2c(=O)[n-]1

>  <Energy>  (87) 
62.934348578092354

>  <Genealogy>  (87) 
C=Cc1cc2ccc(-c3ccc(C(=O)NCCc4ccc([O-])cc4)cc3)cc2c(=O)[n-]1 (protonated)
C=Cc1cc2ccc(-c3ccc(C(=O)NCCc4ccc([O-])cc4)cc3)cc2c(=O)[n-]1 (3D coordinates assigned)
C=Cc1cc2ccc(-c3ccc(C(=O)NCCc4ccc([O-])cc4)cc3)cc2c(=O)[n-]1 (optimized conformer: 62.934348578092354 kcal/mol)

>  <smiles>  (87) 
C=Cc1cc2ccc(-c3ccc(C(=O)NCCc4ccc(O)cc4)cc3)cc2c(=O)[nH]1

>  <score_type>  (87) 
oracle

>  <origin>  (87) 
adg

>  <m_score__min__energy>  (87) 
-12.76

>  <m_primary>  (87) 
energy

$$$$
88:0
     RDKit          3D

 79 85  0  0  0  0  0  0  0  0999 V2000
   57.3440   31.8910   42.0980 C   0  0  0  0  0  0  0  0  0  0  0  0
   57.8420   31.6100   43.4780 C   0  0  0  0  0  0  0  0  0  0  0  0
   58.7080   32.3720   44.1030 O   0  0  0  0  0  0  0  0  0  0  0  0
   58.8750   31.8720   45.3100 C   0  0  0  0  0  0  0  0  0  0  0  0
   59.7140   32.5160   46.3440 C   0  0  0  0  0  0  0  0  0  0  0  0
   59.6120   33.9000   46.5560 C   0  0  0  0  0  0  0  0  0  0  0  0
   60.3380   34.5190   47.5790 C   0  0  0  0  0  0  0  0  0  0  0  0
   61.1850   33.7650   48.4030 C   0  0  0  0  0  0  0  0  0  0  0  0
   61.8920   34.4220   49.5630 C   0  0  0  0  0  0  0  0  0  0  0  0
   62.9620   33.5440   50.0850 N   0  0  0  0  0  0  0  0  0  0  0  0
   63.4500   34.0340   51.3880 C   0  0  0  0  0  0  0  0  0  0  0  0
   64.3160   32.9490   52.0430 C   0  0  0  0  0  0  0  0  0  0  0  0
   65.0790   32.2130   51.0250 N   0  0  0  0  0  0  0  0  0  0  0  0
   65.5300   30.8690   51.2820 C   0  0  0  0  0  0  0  0  0  0  0  0
   66.8600   30.5050   51.0410 C   0  0  0  0  0  0  0  0  0  0  0  0
   67.2780   29.1980   51.3100 C   0  0  0  0  0  0  0  0  0  0  0  0
   66.3970   28.2700   51.7900 N   0  0  0  0  0  0  0  0  0  0  0  0
   66.8690   26.9160   52.0910 C   0  0  0  0  0  0  0  0  0  0  0  0
   65.1010   28.6140   52.0550 C   0  0  0  0  0  0  0  0  0  0  0  0
   64.6480   29.9090   51.8010 C   0  0  0  0  0  0  0  0  0  0  0  0
   65.3750   32.8820   49.7540 C   0  0  0  0  0  0  0  0  0  0  0  0
   64.0780   33.4110   49.1090 C   0  0  0  0  0  0  0  0  0  0  0  0
   61.3160   32.3880   48.1770 C   0  0  0  0  0  0  0  0  0  0  0  0
   60.5840   31.7670   47.1570 C   0  0  0  0  0  0  0  0  0  0  0  0
   58.1320   30.7610   45.5000 N   0  0  0  0  0  0  0  0  0  0  0  0
   57.4570   30.5960   44.3470 C   0  0  0  0  0  0  0  0  0  0  0  0
   56.3750   29.6120   44.1700 C   0  0  0  0  0  0  0  0  0  0  0  0
   55.7800   29.5300   43.0570 O   0  0  0  0  0  0  0  0  0  0  0  0
   56.0360   28.7190   45.2350 N   0  0  0  0  0  0  0  0  0  0  0  0
   56.8140   27.5370   45.6210 C   0  0  1  0  0  0  0  0  0  0  0  0
   57.7470   27.8390   46.8250 C   0  0  0  0  0  0  0  0  0  0  0  0
   58.5640   26.5730   47.1830 C   0  0  2  0  0  0  0  0  0  0  0  0
   59.4210   26.1540   45.9700 C   0  0  0  0  0  0  0  0  0  0  0  0
   58.5010   25.8480   44.7660 C   0  0  1  0  0  0  0  0  0  0  0  0
   57.5330   24.6990   45.1280 C   0  0  0  0  0  0  0  0  0  0  0  0
   56.6730   25.1100   46.3450 C   0  0  1  0  0  0  0  0  0  0  0  0
   57.5950   25.4210   47.5470 C   0  0  0  0  0  0  0  0  0  0  0  0
   55.8550   26.3690   45.9870 C   0  0  0  0  0  0  0  0  0  0  0  0
   57.6860   27.1130   44.4120 C   0  0  0  0  0  0  0  0  0  0  0  0
   56.3873   32.4308   42.1563 H   0  0  0  0  0  0  0  0  0  0  0  0
   58.0803   32.5068   41.5608 H   0  0  0  0  0  0  0  0  0  0  0  0
   57.1976   30.9423   41.5608 H   0  0  0  0  0  0  0  0  0  0  0  0
   58.9553   34.5031   45.9119 H   0  0  0  0  0  0  0  0  0  0  0  0
   60.2437   35.6034   47.7377 H   0  0  0  0  0  0  0  0  0  0  0  0
   62.3350   35.3707   49.2260 H   0  0  0  0  0  0  0  0  0  0  0  0
   61.1620   34.6068   50.3648 H   0  0  0  0  0  0  0  0  0  0  0  0
   64.0507   34.9432   51.2377 H   0  0  0  0  0  0  0  0  0  0  0  0
   62.5946   34.2672   52.0391 H   0  0  0  0  0  0  0  0  0  0  0  0
   65.0157   33.4215   52.7481 H   0  0  0  0  0  0  0  0  0  0  0  0
   63.6599   32.2435   52.5739 H   0  0  0  0  0  0  0  0  0  0  0  0
   67.5720   31.2427   50.6424 H   0  0  0  0  0  0  0  0  0  0  0  0
   68.3260   28.9141   51.1336 H   0  0  0  0  0  0  0  0  0  0  0  0
   66.9170   26.7783   53.1813 H   0  0  0  0  0  0  0  0  0  0  0  0
   66.1741   26.1809   51.6588 H   0  0  0  0  0  0  0  0  0  0  0  0
   67.8703   26.7722   51.6588 H   0  0  0  0  0  0  0  0  0  0  0  0
   64.4109   27.8653   52.4711 H   0  0  0  0  0  0  0  0  0  0  0  0
   63.6013   30.1769   52.0073 H   0  0  0  0  0  0  0  0  0  0  0  0
   66.0576   33.7246   49.9385 H   0  0  0  0  0  0  0  0  0  0  0  0
   65.8433   32.1581   49.0708 H   0  0  0  0  0  0  0  0  0  0  0  0
   64.2811   34.3991   48.6703 H   0  0  0  0  0  0  0  0  0  0  0  0
   63.7661   32.6826   48.3460 H   0  0  0  0  0  0  0  0  0  0  0  0
   61.9965   31.7925   48.8033 H   0  0  0  0  0  0  0  0  0  0  0  0
   60.6903   30.6849   46.9903 H   0  0  0  0  0  0  0  0  0  0  0  0
   58.0220   30.2040   46.3790 H   0  0  0  0  0  0  0  0  0  0  0  0
   57.1398   28.1395   47.6916 H   0  0  0  0  0  0  0  0  0  0  0  0
   58.4361   28.6533   46.5564 H   0  0  0  0  0  0  0  0  0  0  0  0
   59.2189   26.7898   48.0398 H   0  0  0  0  0  0  0  0  0  0  0  0
   60.0015   25.2551   46.2249 H   0  0  0  0  0  0  0  0  0  0  0  0
   60.1068   26.9728   45.7069 H   0  0  0  0  0  0  0  0  0  0  0  0
   59.1150   25.5481   43.9039 H   0  0  0  0  0  0  0  0  0  0  0  0
   58.1118   23.7972   45.3765 H   0  0  0  0  0  0  0  0  0  0  0  0
   56.8765   24.4903   44.2704 H   0  0  0  0  0  0  0  0  0  0  0  0
   55.9916   24.2881   46.6099 H   0  0  0  0  0  0  0  0  0  0  0  0
   58.1760   24.5228   47.8032 H   0  0  0  0  0  0  0  0  0  0  0  0
   56.9796   25.7232   48.4072 H   0  0  0  0  0  0  0  0  0  0  0  0
   55.2379   26.6605   46.8497 H   0  0  0  0  0  0  0  0  0  0  0  0
   55.2084   26.1477   45.1250 H   0  0  0  0  0  0  0  0  0  0  0  0
   58.3756   27.9307   44.1556 H   0  0  0  0  0  0  0  0  0  0  0  0
   57.0326   26.8935   43.5547 H   0  0  0  0  0  0  0  0  0  0  0  0
  1  2  1  0
  2  3  1  0
  3  4  1  0
  4  5  1  0
  5  6  2  0
  6  7  1  0
  7  8  2  0
  8  9  1  0
  9 10  1  0
 10 11  1  0
 11 12  1  0
 12 13  1  0
 13 14  1  0
 14 15  2  0
 15 16  1  0
 16 17  2  0
 17 18  1  0
 17 19  1  0
 19 20  2  0
 13 21  1  0
 21 22  1  0
  8 23  1  0
 23 24  2  0
  4 25  2  0
 25 26  1  0
 26 27  1  0
 27 28  2  0
 27 29  1  0
 30 29  1  6
 30 31  1  0
 31 32  1  0
 32 33  1  0
 33 34  1  0
 34 35  1  0
 35 36  1  0
 36 37  1  0
 36 38  1  0
 34 39  1  0
 26  2  2  0
 38 30  1  0
 24  5  1  0
 39 30  1  0
 22 10  1  0
 37 32  1  0
 20 14  1  0
  1 40  1  0
  1 41  1  0
  1 42  1  0
  6 43  1  0
  7 44  1  0
  9 45  1  0
  9 46  1  0
 11 47  1  0
 11 48  1  0
 12 49  1  0
 12 50  1  0
 15 51  1  0
 16 52  1  0
 18 53  1  0
 18 54  1  0
 18 55  1  0
 19 56  1  0
 20 57  1  0
 21 58  1  0
 21 59  1  0
 22 60  1  0
 22 61  1  0
 23 62  1  0
 24 63  1  0
 25 64  1  0
 31 65  1  0
 31 66  1  0
 32 67  1  1
 33 68  1  0
 33 69  1  0
 34 70  1  6
 35 71  1  0
 35 72  1  0
 36 73  1  1
 37 74  1  0
 37 75  1  0
 38 76  1  0
 38 77  1  0
 39 78  1  0
 39 79  1  0
M  CHG  3  17   1  25   1  29  -1
M  END
>  <UniqueID>  (88) 
83

>  <SMILES>  (88) 
Cc1oc(-c2ccc(CN3CCN(c4cc[n+](C)cc4)CC3)cc2)[nH+]c1C(=O)[N-]C12CC3CC(CC(C3)C1)C2

>  <Energy>  (88) 
129.40295885966654

>  <Genealogy>  (88) 
Cc1oc(-c2ccc(CN3CCN(c4cc[n+](C)cc4)CC3)cc2)[nH+]c1C(=O)[N-]C12CC3CC(CC(C3)C1)C2 (protonated)
Cc1oc(-c2ccc(CN3CCN(c4cc[n+](C)cc4)CC3)cc2)[nH+]c1C(=O)[N-]C12CC3CC(CC(C3)C1)C2 (3D coordinates assigned)
Cc1oc(-c2ccc(CN3CCN(c4cc[n+](C)cc4)CC3)cc2)[nH+]c1C(=O)[N-]C12CC3CC(CC(C3)C1)C2 (nonaromatic ring conformer: 129.40295885966654 kcal/mol)

>  <smiles>  (88) 
Cc1oc(-c2ccc(CN3CCN(c4cc[n+](C)cc4)CC3)cc2)nc1C(=O)NC12CC3CC(CC(C3)C1)C2

>  <score_type>  (88) 
oracle

>  <origin>  (88) 
adg

>  <m_score__min__energy>  (88) 
-9.3200000000000003

>  <m_primary>  (88) 
energy

$$$$
89:0
     RDKit          3D

 39 41  0  0  0  0  0  0  0  0999 V2000
   54.7070   27.0900   46.6790 H   0  0  0  0  0  0  0  0  0  0  0  0
   54.7910   26.3050   45.9940 N   0  0  0  0  0  0  0  0  0  0  0  0
   56.4620   25.8700   45.9290 S   0  0  0  0  0  0  0  0  0  0  0  0
   56.8320   25.1200   47.1770 O   0  0  0  0  0  0  0  0  0  0  0  0
   56.7030   24.9790   44.7420 O   0  0  0  0  0  0  0  0  0  0  0  0
   57.4440   27.3250   45.7940 C   0  0  0  0  0  0  0  0  0  0  0  0
   57.6980   27.8890   44.5380 C   0  0  0  0  0  0  0  0  0  0  0  0
   57.2955   27.4133   43.6315 H   0  0  0  0  0  0  0  0  0  0  0  0
   58.4610   29.0540   44.4330 C   0  0  0  0  0  0  0  0  0  0  0  0
   58.6556   29.4950   43.4443 H   0  0  0  0  0  0  0  0  0  0  0  0
   58.9780   29.6610   45.5810 C   0  0  0  0  0  0  0  0  0  0  0  0
   59.5753   30.5804   45.4916 H   0  0  0  0  0  0  0  0  0  0  0  0
   58.7390   29.1030   46.8500 C   0  0  0  0  0  0  0  0  0  0  0  0
   59.2570   29.7440   48.0810 C   0  0  0  0  0  0  0  0  0  0  0  0
   59.0230   31.0710   48.2830 N   0  0  0  0  0  0  0  0  0  0  0  0
   59.4560   31.7400   49.3850 C   0  0  0  0  0  0  0  0  0  0  0  0
   59.1820   33.0100   49.4870 N   0  0  0  0  0  0  0  0  0  0  0  0
   59.6740   34.0950   48.6340 C   0  0  0  0  0  0  0  0  0  0  0  0
   59.4122   35.0603   49.0919 H   0  0  0  0  0  0  0  0  0  0  0  0
   60.7656   33.9993   48.5377 H   0  0  0  0  0  0  0  0  0  0  0  0
   59.0600   34.0180   47.2590 C   0  0  0  0  0  0  0  0  0  0  0  0
   59.7880   34.4280   46.1290 C   0  0  0  0  0  0  0  0  0  0  0  0
   60.8108   34.8154   46.2466 H   0  0  0  0  0  0  0  0  0  0  0  0
   59.2160   34.3450   44.8550 C   0  0  0  0  0  0  0  0  0  0  0  0
   59.7871   34.6741   43.9744 H   0  0  0  0  0  0  0  0  0  0  0  0
   57.9210   33.8450   44.6990 C   0  0  0  0  0  0  0  0  0  0  0  0
   57.4720   33.7834   43.6967 H   0  0  0  0  0  0  0  0  0  0  0  0
   57.1960   33.4230   45.8170 C   0  0  0  0  0  0  0  0  0  0  0  0
   56.1778   33.0257   45.6931 H   0  0  0  0  0  0  0  0  0  0  0  0
   57.7630   33.5050   47.0930 C   0  0  0  0  0  0  0  0  0  0  0  0
   57.1912   33.1665   47.9696 H   0  0  0  0  0  0  0  0  0  0  0  0
   60.1830   31.0390   50.3670 C   0  0  0  0  0  0  0  0  0  0  0  0
   60.5552   31.5619   51.2603 H   0  0  0  0  0  0  0  0  0  0  0  0
   60.4270   29.6760   50.1970 C   0  0  0  0  0  0  0  0  0  0  0  0
   60.9866   29.1190   50.9629 H   0  0  0  0  0  0  0  0  0  0  0  0
   59.9630   29.0180   49.0580 C   0  0  0  0  0  0  0  0  0  0  0  0
   60.1620   27.6810   48.9400 F   0  0  0  0  0  0  0  0  0  0  0  0
   57.9550   27.9400   46.9470 C   0  0  0  0  0  0  0  0  0  0  0  0
   57.7403   27.5083   47.9357 H   0  0  0  0  0  0  0  0  0  0  0  0
  1  2  1  0
  2  3  1  0
  3  4  2  0
  3  5  2  0
  3  6  1  0
  6  7  2  0
  7  8  1  0
  7  9  1  0
  9 10  1  0
  9 11  2  0
 11 12  1  0
 11 13  1  0
 13 14  1  0
 14 15  1  0
 15 16  1  0
 16 17  2  0
 17 18  1  0
 18 19  1  0
 18 20  1  0
 18 21  1  0
 21 22  2  0
 22 23  1  0
 22 24  1  0
 24 25  1  0
 24 26  2  0
 26 27  1  0
 26 28  1  0
 28 29  1  0
 28 30  2  0
 30 31  1  0
 16 32  1  0
 32 33  1  0
 32 34  2  0
 34 35  1  0
 34 36  1  0
 36 37  1  0
 13 38  2  0
 38 39  1  0
 38  6  1  0
 36 14  2  0
 30 21  1  0
M  CHG  2   2  -1  15  -1
M  END
>  <UniqueID>  (89) 
84

>  <SMILES>  (89) 
[NH-]S(=O)(=O)c1cccc(-c2[n-]/c(=N/Cc3ccccc3)ccc2F)c1

>  <Energy>  (89) 
48.92912323149504

>  <Genealogy>  (89) 
[NH-]S(=O)(=O)c1cccc(-c2[n-]c(=NCc3ccccc3)ccc2F)c1 (protonated)
[NH-]S(=O)(=O)c1cccc(-c2[n-]/c(=N/Cc3ccccc3)ccc2F)c1 (cis-trans isomerization)
[NH-]S(=O)(=O)c1cccc(-c2[n-]/c(=N/Cc3ccccc3)ccc2F)c1 (3D coordinates assigned)
[NH-]S(=O)(=O)c1cccc(-c2[n-]/c(=N/Cc3ccccc3)ccc2F)c1 (optimized conformer: 48.92912323149504 kcal/mol)

>  <smiles>  (89) 
NS(=O)(=O)c1cccc(-c2[nH]c(=NCc3ccccc3)ccc2F)c1

>  <score_type>  (89) 
oracle

>  <origin>  (89) 
adg

>  <m_score__min__energy>  (89) 
-12.720000000000001

>  <m_primary>  (89) 
energy

$$$$
90:0
     RDKit          3D

 43 46  0  0  0  0  0  0  0  0999 V2000
   55.1050   26.2290   45.9280 N   0  0  0  0  0  0  0  0  0  0  0  0
   56.8270   26.3200   45.7980 S   0  0  0  0  0  0  0  0  0  0  0  0
   57.4490   25.5800   46.9480 O   0  0  0  0  0  0  0  0  0  0  0  0
   57.2460   25.6800   44.5040 O   0  0  0  0  0  0  0  0  0  0  0  0
   57.3620   28.0010   45.8290 C   0  0  0  0  0  0  0  0  0  0  0  0
   56.9470   28.8920   44.8310 C   0  0  0  0  0  0  0  0  0  0  0  0
   57.3620   30.2260   44.8570 C   0  0  0  0  0  0  0  0  0  0  0  0
   58.1990   30.6930   45.8860 C   0  0  0  0  0  0  0  0  0  0  0  0
   58.6430   32.1100   45.9150 C   0  0  0  0  0  0  0  0  0  0  0  0
   58.3300   32.9780   44.8540 C   0  0  0  0  0  0  0  0  0  0  0  0
   58.7400   34.3130   44.8880 C   0  0  0  0  0  0  0  0  0  0  0  0
   59.4630   34.7990   45.9790 C   0  0  0  0  0  0  0  0  0  0  0  0
   59.7920   33.9470   47.0450 C   0  0  0  0  0  0  0  0  0  0  0  0
   60.5400   34.4730   48.2400 C   0  0  0  0  0  0  0  0  0  0  0  0
   61.9500   33.9590   48.2370 C   0  0  0  0  0  0  0  0  0  0  0  0
   62.6870   33.5580   49.2660 C   0  0  0  0  0  0  0  0  0  0  0  0
   62.3900   33.5870   50.6320 C   0  0  0  0  0  0  0  0  0  0  0  0
   63.3480   33.0880   51.5360 C   0  0  0  0  0  0  0  0  0  0  0  0
   63.0980   33.0970   52.9050 O   0  0  0  0  0  0  0  0  0  0  0  0
   64.5730   32.5750   51.0600 C   0  0  0  0  0  0  0  0  0  0  0  0
   64.8520   32.5510   49.6830 C   0  0  0  0  0  0  0  0  0  0  0  0
   63.8930   33.0470   48.8010 C   0  0  0  0  0  0  0  0  0  0  0  0
   64.0100   33.0670   47.5110 N   0  0  0  0  0  0  0  0  0  0  0  0
   62.7790   33.6410   47.0840 C   0  0  0  0  0  0  0  0  0  0  0  0
   62.4730   33.8310   45.8770 O   0  0  0  0  0  0  0  0  0  0  0  0
   59.3760   32.6070   47.0090 C   0  0  0  0  0  0  0  0  0  0  0  0
   58.6060   29.7960   46.8910 C   0  0  0  0  0  0  0  0  0  0  0  0
   58.1880   28.4620   46.8650 C   0  0  0  0  0  0  0  0  0  0  0  0
   58.5840   27.6250   47.8570 F   0  0  0  0  0  0  0  0  0  0  0  0
   54.7910   27.0920   46.4280 H   0  0  0  0  0  0  0  0  0  0  0  0
   56.2904   28.5394   44.0219 H   0  0  0  0  0  0  0  0  0  0  0  0
   57.0315   30.9160   44.0666 H   0  0  0  0  0  0  0  0  0  0  0  0
   57.7587   32.6035   43.9918 H   0  0  0  0  0  0  0  0  0  0  0  0
   58.4923   34.9838   44.0521 H   0  0  0  0  0  0  0  0  0  0  0  0
   59.7759   35.8533   46.0033 H   0  0  0  0  0  0  0  0  0  0  0  0
   60.5541   35.5723   48.2047 H   0  0  0  0  0  0  0  0  0  0  0  0
   60.0362   34.1328   49.1568 H   0  0  0  0  0  0  0  0  0  0  0  0
   61.4317   33.9896   50.9919 H   0  0  0  0  0  0  0  0  0  0  0  0
   62.1520   33.0770   53.2710 H   0  0  0  0  0  0  0  0  0  0  0  0
   65.3166   32.1902   51.7734 H   0  0  0  0  0  0  0  0  0  0  0  0
   65.8057   32.1499   49.3094 H   0  0  0  0  0  0  0  0  0  0  0  0
   59.6257   31.9375   47.8454 H   0  0  0  0  0  0  0  0  0  0  0  0
   59.2585   30.1473   47.7039 H   0  0  0  0  0  0  0  0  0  0  0  0
  1  2  1  0
  2  3  2  0
  2  4  2  0
  2  5  1  0
  5  6  2  0
  6  7  1  0
  7  8  2  0
  8  9  1  0
  9 10  2  0
 10 11  1  0
 11 12  2  0
 12 13  1  0
 13 14  1  0
 14 15  1  0
 15 16  2  0
 16 17  1  0
 17 18  2  0
 18 19  1  0
 18 20  1  0
 20 21  2  0
 21 22  1  0
 22 23  2  0
 23 24  1  0
 24 25  2  0
 13 26  2  0
  8 27  1  0
 27 28  2  0
 28 29  1  0
 28  5  1  0
 26  9  1  0
 24 15  1  0
 22 16  1  0
  1 30  1  0
  6 31  1  0
  7 32  1  0
 10 33  1  0
 11 34  1  0
 12 35  1  0
 14 36  1  0
 14 37  1  0
 17 38  1  0
 19 39  1  0
 20 40  1  0
 21 41  1  0
 26 42  1  0
 27 43  1  0
M  CHG  1   1  -1
M  END
>  <UniqueID>  (90) 
85

>  <SMILES>  (90) 
[NH-]S(=O)(=O)c1ccc(-c2cccc(CC3=c4cc(O)ccc4=NC3=O)c2)cc1F

>  <Energy>  (90) 
83.16198085364493

>  <Genealogy>  (90) 
[NH-]S(=O)(=O)c1ccc(-c2cccc(CC3=c4cc(O)ccc4=NC3=O)c2)cc1F (protonated)
[NH-]S(=O)(=O)c1ccc(-c2cccc(CC3=c4cc(O)ccc4=NC3=O)c2)cc1F (3D coordinates assigned)
[NH-]S(=O)(=O)c1ccc(-c2cccc(CC3=c4cc(O)ccc4=NC3=O)c2)cc1F (nonaromatic ring conformer: 83.16198085364493 kcal/mol)

>  <smiles>  (90) 
NS(=O)(=O)c1ccc(-c2cccc(CC3=c4cc(O)ccc4=NC3=O)c2)cc1F

>  <score_type>  (90) 
oracle

>  <origin>  (90) 
adg

>  <m_score__min__energy>  (90) 
-12.69

>  <m_primary>  (90) 
energy

$$$$
91:0
     RDKit          3D

 65 69  0  0  0  0  0  0  0  0999 V2000
   57.1572   27.2219   48.1019 H   0  0  0  0  0  0  0  0  0  0  0  0
   57.5470   27.0960   47.0810 C   0  0  0  0  0  0  0  0  0  0  0  0
   58.3860   28.0470   46.6110 C   0  0  0  0  0  0  0  0  0  0  0  0
   58.9780   29.0970   47.4960 C   0  0  0  0  0  0  0  0  0  0  0  0
   59.9240   28.7970   48.2740 O   0  0  0  0  0  0  0  0  0  0  0  0
   58.4900   30.4480   47.4720 N   0  0  0  0  0  0  0  0  0  0  0  0
   57.6140   30.6550   46.9430 H   0  0  0  0  0  0  0  0  0  0  0  0
   58.9030   31.4310   48.4330 C   0  0  0  0  0  0  0  0  0  0  0  0
   59.0030   31.0420   49.7780 C   0  0  0  0  0  0  0  0  0  0  0  0
   58.7428   30.0134   50.0682 H   0  0  0  0  0  0  0  0  0  0  0  0
   59.4290   31.9470   50.7500 C   0  0  0  0  0  0  0  0  0  0  0  0
   59.5148   31.6268   51.7989 H   0  0  0  0  0  0  0  0  0  0  0  0
   59.7460   33.2560   50.3940 C   0  0  0  0  0  0  0  0  0  0  0  0
   60.0890   33.9660   51.1610 H   0  0  0  0  0  0  0  0  0  0  0  0
   59.6290   33.6680   49.0650 C   0  0  0  0  0  0  0  0  0  0  0  0
   59.8717   34.7061   48.7941 H   0  0  0  0  0  0  0  0  0  0  0  0
   59.2040   32.7700   48.0680 C   0  0  0  0  0  0  0  0  0  0  0  0
   59.0130   33.2550   46.7230 N   0  0  0  0  0  0  0  0  0  0  0  0
   57.7340   33.0430   46.0330 C   0  0  0  0  0  0  0  0  0  0  0  0
   57.8181   32.1532   45.3918 H   0  0  0  0  0  0  0  0  0  0  0  0
   56.9518   32.9076   46.7945 H   0  0  0  0  0  0  0  0  0  0  0  0
   57.3480   34.2600   45.1550 C   0  0  0  0  0  0  0  0  0  0  0  0
   57.0176   33.8852   44.1750 H   0  0  0  0  0  0  0  0  0  0  0  0
   56.5585   34.7992   45.6989 H   0  0  0  0  0  0  0  0  0  0  0  0
   58.3980   35.1910   44.9420 O   0  0  0  0  0  0  0  0  0  0  0  0
   59.6170   34.5220   44.7060 C   0  0  0  0  0  0  0  0  0  0  0  0
   59.4612   33.7174   43.9723 H   0  0  0  0  0  0  0  0  0  0  0  0
   60.3610   35.2289   44.3101 H   0  0  0  0  0  0  0  0  0  0  0  0
   60.1140   33.9280   46.0210 C   0  0  0  0  0  0  0  0  0  0  0  0
   60.9109   33.1991   45.8120 H   0  0  0  0  0  0  0  0  0  0  0  0
   60.5022   34.7379   46.6561 H   0  0  0  0  0  0  0  0  0  0  0  0
   58.7700   27.9980   45.1440 C   0  0  0  0  0  0  0  0  0  0  0  0
   59.8650   28.0596   45.0593 H   0  0  0  0  0  0  0  0  0  0  0  0
   58.3961   27.0537   44.7216 H   0  0  0  0  0  0  0  0  0  0  0  0
   58.1550   29.1360   44.3720 C   0  0  0  0  0  0  0  0  0  0  0  0
   56.8630   29.0180   43.8320 C   0  0  0  0  0  0  0  0  0  0  0  0
   56.2887   28.0921   43.9832 H   0  0  0  0  0  0  0  0  0  0  0  0
   56.3040   30.0730   43.1030 C   0  0  0  0  0  0  0  0  0  0  0  0
   55.2913   29.9758   42.6846 H   0  0  0  0  0  0  0  0  0  0  0  0
   57.0300   31.2490   42.9060 C   0  0  0  0  0  0  0  0  0  0  0  0
   56.5885   32.0776   42.3328 H   0  0  0  0  0  0  0  0  0  0  0  0
   58.3170   31.3750   43.4360 C   0  0  0  0  0  0  0  0  0  0  0  0
   58.8867   32.3031   43.2812 H   0  0  0  0  0  0  0  0  0  0  0  0
   58.8810   30.3220   44.1630 C   0  0  0  0  0  0  0  0  0  0  0  0
   59.8968   30.4219   44.5731 H   0  0  0  0  0  0  0  0  0  0  0  0
   57.1130   25.8980   46.3260 C   0  0  0  0  0  0  0  0  0  0  0  0
   55.7660   25.7400   45.9890 C   0  0  0  0  0  0  0  0  0  0  0  0
   54.8300   26.7100   46.3340 O   0  0  0  0  0  0  0  0  0  0  0  0
   55.3640   24.6400   45.3120 N   0  0  0  0  0  0  0  0  0  0  0  0
   56.2390   23.6660   44.9530 C   0  0  0  0  0  0  0  0  0  0  0  0
   55.7660   22.5550   44.2450 C   0  0  0  0  0  0  0  0  0  0  0  0
   54.7001   22.4798   43.9837 H   0  0  0  0  0  0  0  0  0  0  0  0
   56.6560   21.5380   43.8700 C   0  0  0  0  0  0  0  0  0  0  0  0
   56.2460   20.4000   43.1590 O   0  0  0  0  0  0  0  0  0  0  0  0
   55.7570   19.2070   43.7640 C   0  0  0  0  0  0  0  0  0  0  0  0
   55.7982   19.3075   44.8586 H   0  0  0  0  0  0  0  0  0  0  0  0
   54.7165   19.0367   43.4503 H   0  0  0  0  0  0  0  0  0  0  0  0
   56.3786   18.3554   43.4503 H   0  0  0  0  0  0  0  0  0  0  0  0
   58.0000   21.6580   44.2160 C   0  0  0  0  0  0  0  0  0  0  0  0
   58.7126   20.8699   43.9313 H   0  0  0  0  0  0  0  0  0  0  0  0
   58.4440   22.7760   44.9230 C   0  0  0  0  0  0  0  0  0  0  0  0
   59.5070   22.8614   45.1926 H   0  0  0  0  0  0  0  0  0  0  0  0
   57.5710   23.7700   45.2860 N   0  0  0  0  0  0  0  0  0  0  0  0
   58.0120   24.8700   45.9830 C   0  0  0  0  0  0  0  0  0  0  0  0
   59.2230   24.9660   46.3310 O   0  0  0  0  0  0  0  0  0  0  0  0
  1  2  1  0
  2  3  2  0
  3  4  1  0
  4  5  2  0
  4  6  1  0
  6  7  1  0
  6  8  1  0
  8  9  2  0
  9 10  1  0
  9 11  1  0
 11 12  1  0
 11 13  2  0
 13 14  1  0
 13 15  1  0
 15 16  1  0
 15 17  2  0
 17 18  1  0
 18 19  1  0
 19 20  1  0
 19 21  1  0
 19 22  1  0
 22 23  1  0
 22 24  1  0
 22 25  1  0
 25 26  1  0
 26 27  1  0
 26 28  1  0
 26 29  1  0
 29 30  1  0
 29 31  1  0
  3 32  1  0
 32 33  1  0
 32 34  1  0
 32 35  1  0
 35 36  2  0
 36 37  1  0
 36 38  1  0
 38 39  1  0
 38 40  2  0
 40 41  1  0
 40 42  1  0
 42 43  1  0
 42 44  2  0
 44 45  1  0
  2 46  1  0
 46 47  2  0
 47 48  1  0
 47 49  1  0
 49 50  2  0
 50 51  1  0
 51 52  1  0
 51 53  2  0
 53 54  1  0
 54 55  1  0
 55 56  1  0
 55 57  1  0
 55 58  1  0
 53 59  1  0
 59 60  1  0
 59 61  2  0
 61 62  1  0
 61 63  1  0
 63 64  1  0
 64 65  2  0
 17  8  1  0
 29 18  1  0
 44 35  1  0
 64 46  1  0
 63 50  1  0
M  CHG  1  48  -1
M  END
>  <UniqueID>  (91) 
86

>  <SMILES>  (91) 
COc1ccn2c(=O)c(/C=C(/Cc3ccccc3)C(=O)Nc3ccccc3N3CCOCC3)c([O-])nc2c1

>  <Energy>  (91) 
99.3356388552187

>  <Genealogy>  (91) 
COc1ccn2c(=O)c(C=C(Cc3ccccc3)C(=O)Nc3ccccc3N3CCOCC3)c([O-])nc2c1 (protonated)
COc1ccn2c(=O)c(/C=C(/Cc3ccccc3)C(=O)Nc3ccccc3N3CCOCC3)c([O-])nc2c1 (cis-trans isomerization)
COc1ccn2c(=O)c(/C=C(/Cc3ccccc3)C(=O)Nc3ccccc3N3CCOCC3)c([O-])nc2c1 (3D coordinates assigned)
COc1ccn2c(=O)c(/C=C(/Cc3ccccc3)C(=O)Nc3ccccc3N3CCOCC3)c([O-])nc2c1 (nonaromatic ring conformer: 99.3356388552187 kcal/mol)

>  <smiles>  (91) 
COc1ccn2c(=O)c(C=C(Cc3ccccc3)C(=O)Nc3ccccc3N3CCOCC3)c(O)nc2c1

>  <score_type>  (91) 
oracle

>  <origin>  (91) 
adg

>  <m_score__min__energy>  (91) 
-13.33

>  <m_primary>  (91) 
energy

$$$$
92:0
     RDKit          3D

 36 38  0  0  0  0  0  0  0  0999 V2000
   60.6200   29.6600   46.4510 O   0  0  0  0  0  0  0  0  0  0  0  0
   59.4980   29.2420   46.0600 C   0  0  0  0  0  0  0  0  0  0  0  0
   59.1310   27.8330   45.9240 C   0  0  0  0  0  0  0  0  0  0  0  0
   60.1840   26.4940   46.3580 Cl  0  0  0  0  0  0  0  0  0  0  0  0
   57.8810   27.7820   45.4310 C   0  0  0  0  0  0  0  0  0  0  0  0
   57.0900   26.6020   45.1400 N   0  0  0  0  0  0  0  0  0  0  0  0
   57.8420   25.6320   44.3170 C   0  0  0  0  0  0  0  0  0  0  0  0
   56.9160   24.5150   43.7910 C   0  0  0  0  0  0  0  0  0  0  0  0
   55.7430   24.2200   44.7440 C   0  0  0  0  0  0  0  0  0  0  0  0
   56.1160   24.5220   46.1970 C   0  0  0  0  0  0  0  0  0  0  0  0
   56.5380   25.9970   46.3800 C   0  0  0  0  0  0  0  0  0  0  0  0
   57.4170   29.1630   45.2510 C   0  0  0  0  0  0  0  0  0  0  0  0
   56.2690   29.4980   44.8560 O   0  0  0  0  0  0  0  0  0  0  0  0
   58.4290   30.0860   45.6410 N   0  0  0  0  0  0  0  0  0  0  0  0
   58.3810   31.5230   45.6210 C   0  0  0  0  0  0  0  0  0  0  0  0
   57.7440   32.2000   44.5670 C   0  0  0  0  0  0  0  0  0  0  0  0
   57.6990   33.5980   44.5490 C   0  0  0  0  0  0  0  0  0  0  0  0
   58.2880   34.3310   45.5820 C   0  0  0  0  0  0  0  0  0  0  0  0
   58.9230   33.6690   46.6360 C   0  0  0  0  0  0  0  0  0  0  0  0
   59.6560   34.5900   47.9360 Cl  0  0  0  0  0  0  0  0  0  0  0  0
   58.9710   32.2710   46.6570 C   0  0  0  0  0  0  0  0  0  0  0  0
   56.2750   26.9200   44.5620 H   0  0  0  0  0  0  0  0  0  0  0  0
   58.2916   26.1584   43.4621 H   0  0  0  0  0  0  0  0  0  0  0  0
   58.6224   25.1737   44.9423 H   0  0  0  0  0  0  0  0  0  0  0  0
   56.5092   24.8243   42.8169 H   0  0  0  0  0  0  0  0  0  0  0  0
   57.5160   23.5969   43.7073 H   0  0  0  0  0  0  0  0  0  0  0  0
   54.8835   24.8440   44.4578 H   0  0  0  0  0  0  0  0  0  0  0  0
   55.4926   23.1518   44.6652 H   0  0  0  0  0  0  0  0  0  0  0  0
   55.2466   24.3170   46.8389 H   0  0  0  0  0  0  0  0  0  0  0  0
   56.9676   23.8832   46.4740 H   0  0  0  0  0  0  0  0  0  0  0  0
   55.6569   26.5775   46.6909 H   0  0  0  0  0  0  0  0  0  0  0  0
   57.3338   26.0194   47.1391 H   0  0  0  0  0  0  0  0  0  0  0  0
   57.2781   31.6273   43.7515 H   0  0  0  0  0  0  0  0  0  0  0  0
   57.1991   34.1208   43.7203 H   0  0  0  0  0  0  0  0  0  0  0  0
   58.2519   35.4303   45.5657 H   0  0  0  0  0  0  0  0  0  0  0  0
   59.4727   31.7534   47.4879 H   0  0  0  0  0  0  0  0  0  0  0  0
  1  2  2  0
  2  3  1  0
  3  4  1  0
  3  5  2  0
  5  6  1  0
  6  7  1  0
  7  8  1  0
  8  9  1  0
  9 10  1  0
 10 11  1  0
  5 12  1  0
 12 13  2  0
 12 14  1  0
 14 15  1  0
 15 16  2  0
 16 17  1  0
 17 18  2  0
 18 19  1  0
 19 20  1  0
 19 21  2  0
 14  2  1  0
 21 15  1  0
 11  6  1  0
  6 22  1  0
  7 23  1  0
  7 24  1  0
  8 25  1  0
  8 26  1  0
  9 27  1  0
  9 28  1  0
 10 29  1  0
 10 30  1  0
 11 31  1  0
 11 32  1  0
 16 33  1  0
 17 34  1  0
 18 35  1  0
 21 36  1  0
M  CHG  1   6   1
M  END
>  <UniqueID>  (92) 
87

>  <SMILES>  (92) 
O=C1C(Cl)=C([NH+]2CCCCC2)C(=O)N1c1cccc(Cl)c1

>  <Energy>  (92) 
78.48126399863231

>  <Genealogy>  (92) 
O=C1C(Cl)=C([NH+]2CCCCC2)C(=O)N1c1cccc(Cl)c1 (protonated)
O=C1C(Cl)=C([NH+]2CCCCC2)C(=O)N1c1cccc(Cl)c1 (3D coordinates assigned)
O=C1C(Cl)=C([NH+]2CCCCC2)C(=O)N1c1cccc(Cl)c1 (nonaromatic ring conformer: 78.48126399863231 kcal/mol)

>  <smiles>  (92) 
O=C1C(Cl)=C(N2CCCCC2)C(=O)N1c1cccc(Cl)c1

>  <score_type>  (92) 
oracle

>  <origin>  (92) 
adg

>  <m_score__min__energy>  (92) 
-6.2800000000000002

>  <m_primary>  (92) 
energy

$$$$
93:0
     RDKit          3D

 39 41  0  0  0  0  0  0  0  0999 V2000
   54.4070   28.2950   52.0150 O   0  0  0  0  0  0  0  0  0  0  0  0
   53.8650   28.8090   53.0290 C   0  0  0  0  0  0  0  0  0  0  0  0
   52.3760   28.8360   53.1490 C   0  0  0  0  0  0  0  0  0  0  0  0
   51.8900   30.2340   52.8740 C   0  0  0  0  0  0  0  0  0  0  0  0
   51.5120   31.0710   53.9380 C   0  0  0  0  0  0  0  0  0  0  0  0
   50.9850   32.3410   53.6830 C   0  0  0  0  0  0  0  0  0  0  0  0
   50.8280   32.7840   52.3660 C   0  0  0  0  0  0  0  0  0  0  0  0
   50.3090   34.0490   52.1180 O   0  0  0  0  0  0  0  0  0  0  0  0
   51.1880   31.9500   51.3000 C   0  0  0  0  0  0  0  0  0  0  0  0
   51.0200   32.3790   49.9900 O   0  0  0  0  0  0  0  0  0  0  0  0
   51.7140   30.6780   51.5530 C   0  0  0  0  0  0  0  0  0  0  0  0
   54.6360   29.4560   54.0000 O   0  0  0  0  0  0  0  0  0  0  0  0
   55.0920   30.7980   53.8460 C   0  0  0  0  0  0  0  0  0  0  0  0
   56.1890   30.8340   52.8250 C   0  0  0  0  0  0  0  0  0  0  0  0
   56.6870   32.0530   52.3580 C   0  0  0  0  0  0  0  0  0  0  0  0
   57.6270   32.0570   51.3310 C   0  0  0  0  0  0  0  0  0  0  0  0
   58.0510   30.8390   50.7770 C   0  0  0  0  0  0  0  0  0  0  0  0
   59.0370   30.7790   49.6690 C   0  0  0  0  0  0  0  0  0  0  0  0
   59.5010   29.5470   49.1640 C   0  0  0  0  0  0  0  0  0  0  0  0
   60.4420   29.5140   48.1310 C   0  0  0  0  0  0  0  0  0  0  0  0
   60.9340   30.7040   47.5910 C   0  0  0  0  0  0  0  0  0  0  0  0
   60.4910   31.9310   48.0900 C   0  0  0  0  0  0  0  0  0  0  0  0
   59.5520   31.9710   49.1250 C   0  0  0  0  0  0  0  0  0  0  0  0
   57.5380   29.6820   51.2830 N   0  0  0  0  0  0  0  0  0  0  0  0
   56.6340   29.6790   52.2650 N   0  0  0  0  0  0  0  0  0  0  0  0
   51.9341   28.1413   52.4196 H   0  0  0  0  0  0  0  0  0  0  0  0
   52.0782   28.5305   54.1629 H   0  0  0  0  0  0  0  0  0  0  0  0
   51.6312   30.7257   54.9756 H   0  0  0  0  0  0  0  0  0  0  0  0
   50.6935   32.9926   54.5199 H   0  0  0  0  0  0  0  0  0  0  0  0
   51.9908   30.0230   50.7137 H   0  0  0  0  0  0  0  0  0  0  0  0
   54.2584   31.4334   53.5123 H   0  0  0  0  0  0  0  0  0  0  0  0
   55.4719   31.1710   54.8086 H   0  0  0  0  0  0  0  0  0  0  0  0
   56.3399   32.9999   52.7973 H   0  0  0  0  0  0  0  0  0  0  0  0
   58.0344   33.0077   50.9565 H   0  0  0  0  0  0  0  0  0  0  0  0
   59.1198   28.6054   49.5859 H   0  0  0  0  0  0  0  0  0  0  0  0
   60.7960   28.5478   47.7423 H   0  0  0  0  0  0  0  0  0  0  0  0
   61.6696   30.6751   46.7736 H   0  0  0  0  0  0  0  0  0  0  0  0
   60.8820   32.8684   47.6675 H   0  0  0  0  0  0  0  0  0  0  0  0
   59.2130   32.9412   49.5173 H   0  0  0  0  0  0  0  0  0  0  0  0
  1  2  2  0
  2  3  1  0
  3  4  1  0
  4  5  2  0
  5  6  1  0
  6  7  2  0
  7  8  1  0
  7  9  1  0
  9 10  1  0
  9 11  2  0
  2 12  1  0
 12 13  1  0
 13 14  1  0
 14 15  2  0
 15 16  1  0
 16 17  2  0
 17 18  1  0
 18 19  2  0
 19 20  1  0
 20 21  2  0
 21 22  1  0
 22 23  2  0
 17 24  1  0
 24 25  2  0
 11  4  1  0
 25 14  1  0
 23 18  1  0
  3 26  1  0
  3 27  1  0
  5 28  1  0
  6 29  1  0
 11 30  1  0
 13 31  1  0
 13 32  1  0
 15 33  1  0
 16 34  1  0
 19 35  1  0
 20 36  1  0
 21 37  1  0
 22 38  1  0
 23 39  1  0
M  CHG  2   8  -1  10  -1
M  END
>  <UniqueID>  (93) 
88

>  <SMILES>  (93) 
O=C(Cc1ccc([O-])c([O-])c1)OCc1ccc(-c2ccccc2)nn1

>  <Energy>  (93) 
40.74910117060506

>  <Genealogy>  (93) 
O=C(Cc1ccc([O-])c([O-])c1)OCc1ccc(-c2ccccc2)nn1 (protonated)
O=C(Cc1ccc([O-])c([O-])c1)OCc1ccc(-c2ccccc2)nn1 (3D coordinates assigned)
O=C(Cc1ccc([O-])c([O-])c1)OCc1ccc(-c2ccccc2)nn1 (optimized conformer: 40.74910117060506 kcal/mol)

>  <smiles>  (93) 
O=C(Cc1ccc(O)c(O)c1)OCc1ccc(-c2ccccc2)nn1

>  <score_type>  (93) 
oracle

>  <origin>  (93) 
adg

>  <m_score__min__energy>  (93) 
-17.260000000000002

>  <m_primary>  (93) 
energy

$$$$
94:0
     RDKit          3D

 40 42  0  0  0  0  0  0  0  0999 V2000
   56.8030   23.2430   43.6820 C   0  0  0  0  0  0  0  0  0  0  0  0
   57.7840   24.2720   43.7710 O   0  0  0  0  0  0  0  0  0  0  0  0
   57.6460   25.4450   44.5320 C   0  0  0  0  0  0  0  0  0  0  0  0
   57.3940   25.3970   45.9160 C   0  0  0  0  0  0  0  0  0  0  0  0
   57.2850   26.5710   46.6570 C   0  0  0  0  0  0  0  0  0  0  0  0
   57.4290   27.8090   46.0350 C   0  0  0  0  0  0  0  0  0  0  0  0
   57.6660   27.8900   44.6530 C   0  0  0  0  0  0  0  0  0  0  0  0
   57.8710   29.1730   44.0370 N   0  0  0  0  0  0  0  0  0  0  0  0
   57.0270   30.3090   44.2840 C   0  0  0  0  0  0  0  0  0  0  0  0
   55.8920   30.1590   44.8120 O   0  0  0  0  0  0  0  0  0  0  0  0
   57.4970   31.6830   43.9190 C   0  0  0  0  0  0  0  0  0  0  0  0
   57.9910   32.3730   45.1080 N   0  0  0  0  0  0  0  0  0  0  0  0
   57.8320   33.7660   45.3970 C   0  0  0  0  0  0  0  0  0  0  0  0
   57.0080   34.5220   44.8200 O   0  0  0  0  0  0  0  0  0  0  0  0
   58.7730   34.1720   46.4300 C   0  0  0  0  0  0  0  0  0  0  0  0
   58.9080   35.3210   46.9280 O   0  0  0  0  0  0  0  0  0  0  0  0
   59.5420   32.9810   46.7470 C   0  0  0  0  0  0  0  0  0  0  0  0
   60.6040   32.8010   47.6300 C   0  0  0  0  0  0  0  0  0  0  0  0
   61.1950   31.5280   47.7030 C   0  0  0  0  0  0  0  0  0  0  0  0
   60.7220   30.4740   46.8930 C   0  0  0  0  0  0  0  0  0  0  0  0
   59.6520   30.6810   46.0060 C   0  0  0  0  0  0  0  0  0  0  0  0
   59.0710   31.9500   45.9520 C   0  0  0  0  0  0  0  0  0  0  0  0
   57.7670   26.7000   43.8920 C   0  0  0  0  0  0  0  0  0  0  0  0
   58.0370   26.7690   42.4080 C   0  0  0  0  0  0  0  0  0  0  0  0
   56.5058   22.9312   44.6942 H   0  0  0  0  0  0  0  0  0  0  0  0
   55.9228   23.6213   43.1416 H   0  0  0  0  0  0  0  0  0  0  0  0
   57.2229   22.3818   43.1416 H   0  0  0  0  0  0  0  0  0  0  0  0
   57.2822   24.4239   46.4165 H   0  0  0  0  0  0  0  0  0  0  0  0
   57.0845   26.5205   47.7374 H   0  0  0  0  0  0  0  0  0  0  0  0
   57.3565   28.7307   46.6310 H   0  0  0  0  0  0  0  0  0  0  0  0
   58.6690   29.2920   43.3730 H   0  0  0  0  0  0  0  0  0  0  0  0
   58.3072   31.6065   43.1790 H   0  0  0  0  0  0  0  0  0  0  0  0
   56.6568   32.2516   43.4939 H   0  0  0  0  0  0  0  0  0  0  0  0
   60.9696   33.6312   48.2522 H   0  0  0  0  0  0  0  0  0  0  0  0
   62.0312   31.3523   48.3957 H   0  0  0  0  0  0  0  0  0  0  0  0
   61.1945   29.4827   46.9564 H   0  0  0  0  0  0  0  0  0  0  0  0
   59.2811   29.8638   45.3699 H   0  0  0  0  0  0  0  0  0  0  0  0
   59.0901   27.0381   42.2390 H   0  0  0  0  0  0  0  0  0  0  0  0
   57.8312   25.7894   41.9519 H   0  0  0  0  0  0  0  0  0  0  0  0
   57.3864   27.5298   41.9519 H   0  0  0  0  0  0  0  0  0  0  0  0
  1  2  1  0
  2  3  1  0
  3  4  2  0
  4  5  1  0
  5  6  2  0
  6  7  1  0
  7  8  1  0
  8  9  1  0
  9 10  2  0
  9 11  1  0
 11 12  1  0
 12 13  1  0
 13 14  2  0
 13 15  1  0
 15 16  2  0
 15 17  1  0
 17 18  2  0
 18 19  1  0
 19 20  2  0
 20 21  1  0
 21 22  2  0
  7 23  2  0
 23 24  1  0
 23  3  1  0
 22 12  1  0
 22 17  1  0
  1 25  1  0
  1 26  1  0
  1 27  1  0
  4 28  1  0
  5 29  1  0
  6 30  1  0
  8 31  1  0
 11 32  1  0
 11 33  1  0
 18 34  1  0
 19 35  1  0
 20 36  1  0
 21 37  1  0
 24 38  1  0
 24 39  1  0
 24 40  1  0
M  END
>  <UniqueID>  (94) 
89

>  <SMILES>  (94) 
COc1cccc(NC(=O)CN2C(=O)C(=O)c3ccccc32)c1C

>  <Energy>  (94) 
76.12506264248476

>  <Genealogy>  (94) 
COc1cccc(NC(=O)CN2C(=O)C(=O)c3ccccc32)c1C (3D coordinates assigned)
COc1cccc(NC(=O)CN2C(=O)C(=O)c3ccccc32)c1C (nonaromatic ring conformer: 76.12506264248476 kcal/mol)

>  <smiles>  (94) 
COc1cccc(NC(=O)CN2C(=O)C(=O)c3ccccc32)c1C

>  <score_type>  (94) 
oracle

>  <origin>  (94) 
adg

>  <m_score__min__energy>  (94) 
-7.8600000000000003

>  <m_primary>  (94) 
energy

$$$$
95:0
     RDKit          3D

 83 87  0  0  0  0  0  0  0  0999 V2000
   60.9540   29.4170   53.4190 C   0  0  0  0  0  0  0  0  0  0  0  0
   61.2920   30.0090   52.1210 N   0  0  0  0  0  0  0  0  0  0  0  0
   61.0800   31.4390   51.8740 C   0  0  0  0  0  0  0  0  0  0  0  0
   59.6080   31.7430   51.9030 C   0  0  0  0  0  0  0  0  0  0  0  0
   59.1500   32.9440   52.4700 C   0  0  0  0  0  0  0  0  0  0  0  0
   57.7790   33.2170   52.5330 C   0  0  0  0  0  0  0  0  0  0  0  0
   56.8570   32.2880   52.0380 C   0  0  0  0  0  0  0  0  0  0  0  0
   57.3040   31.0870   51.4830 C   0  0  0  0  0  0  0  0  0  0  0  0
   58.6750   30.8090   51.4200 C   0  0  0  0  0  0  0  0  0  0  0  0
   61.8900   29.1910   51.0990 C   0  0  0  0  0  0  0  0  0  0  0  0
   63.0590   28.7470   51.2610 O   0  0  0  0  0  0  0  0  0  0  0  0
   61.1580   28.8610   49.8610 C   0  0  0  0  0  0  0  0  0  0  0  0
   61.0350   29.8120   48.8350 C   0  0  0  0  0  0  0  0  0  0  0  0
   60.3410   29.4960   47.6660 C   0  0  0  0  0  0  0  0  0  0  0  0
   59.7750   28.2290   47.5050 C   0  0  0  0  0  0  0  0  0  0  0  0
   59.9150   27.2590   48.5120 C   0  0  0  0  0  0  0  0  0  0  0  0
   59.2930   25.9730   48.3980 N   0  0  0  0  0  0  0  0  0  0  0  0
   58.2130   25.6420   47.5160 C   0  0  0  0  0  0  0  0  0  0  0  0
   58.1100   24.4600   47.0960 O   0  0  0  0  0  0  0  0  0  0  0  0
   57.2150   26.6800   47.0750 C   0  0  0  0  0  0  0  0  0  0  0  0
   57.4290   27.0630   45.6350 C   0  0  0  0  0  0  0  0  0  0  0  0
   57.7730   26.0880   44.6860 C   0  0  0  0  0  0  0  0  0  0  0  0
   57.9350   26.4360   43.3430 C   0  0  0  0  0  0  0  0  0  0  0  0
   57.7460   27.7600   42.9330 C   0  0  0  0  0  0  0  0  0  0  0  0
   57.3840   28.7420   43.8690 C   0  0  0  0  0  0  0  0  0  0  0  0
   57.2190   30.1120   43.4860 N   0  0  0  0  0  0  0  0  0  0  0  0
   57.0710   31.2260   44.3730 C   0  0  0  0  0  0  0  0  0  0  0  0
   55.9360   31.4550   44.8670 O   0  0  0  0  0  0  0  0  0  0  0  0
   58.2040   32.1970   44.6310 C   0  0  1  0  0  0  0  0  0  0  0  0
   57.6780   33.6460   44.5460 C   0  0  0  0  0  0  0  0  0  0  0  0
   58.6510   34.6130   45.2210 C   0  0  0  0  0  0  0  0  0  0  0  0
   58.8840   34.2380   46.7000 C   0  0  0  0  0  0  0  0  0  0  0  0
   58.4350   32.8590   47.0200 N   0  0  0  0  0  0  0  0  0  0  0  0
   58.9050   32.4440   48.3580 C   0  0  0  0  0  0  0  0  0  0  0  0
   59.9350   33.4080   48.8770 C   0  0  0  0  0  0  0  0  0  0  0  0
   59.5970   34.2510   49.7520 O   0  0  0  0  0  0  0  0  0  0  0  0
   61.2990   33.3650   48.4160 N   0  0  0  0  0  0  0  0  0  0  0  0
   61.7820   32.4890   47.3630 C   0  0  0  0  0  0  0  0  0  0  0  0
   63.2280   32.9040   47.1200 C   0  0  0  0  0  0  0  0  0  0  0  0
   63.6450   33.6950   48.3570 C   0  0  0  0  0  0  0  0  0  0  0  0
   62.3510   34.1840   48.9910 C   0  0  0  0  0  0  0  0  0  0  0  0
   58.9000   31.9110   45.9870 C   0  0  0  0  0  0  0  0  0  0  0  0
   57.2470   28.3930   45.2180 C   0  0  0  0  0  0  0  0  0  0  0  0
   60.5990   27.5830   49.6910 C   0  0  0  0  0  0  0  0  0  0  0  0
   61.3247   30.0663   54.2258 H   0  0  0  0  0  0  0  0  0  0  0  0
   59.8619   29.3156   53.5025 H   0  0  0  0  0  0  0  0  0  0  0  0
   61.4218   28.4249   53.5025 H   0  0  0  0  0  0  0  0  0  0  0  0
   61.5902   32.0246   52.6530 H   0  0  0  0  0  0  0  0  0  0  0  0
   61.4883   31.7038   50.8875 H   0  0  0  0  0  0  0  0  0  0  0  0
   59.8723   33.6730   52.8662 H   0  0  0  0  0  0  0  0  0  0  0  0
   57.4260   34.1620   52.9717 H   0  0  0  0  0  0  0  0  0  0  0  0
   55.7795   32.5039   52.0861 H   0  0  0  0  0  0  0  0  0  0  0  0
   56.5777   30.3579   51.0946 H   0  0  0  0  0  0  0  0  0  0  0  0
   59.0227   29.8574   50.9915 H   0  0  0  0  0  0  0  0  0  0  0  0
   61.4866   30.8081   48.9529 H   0  0  0  0  0  0  0  0  0  0  0  0
   60.2394   30.2471   46.8688 H   0  0  0  0  0  0  0  0  0  0  0  0
   59.2180   27.9899   46.5871 H   0  0  0  0  0  0  0  0  0  0  0  0
   56.1994   26.2736   47.1912 H   0  0  0  0  0  0  0  0  0  0  0  0
   57.3471   27.5772   47.6976 H   0  0  0  0  0  0  0  0  0  0  0  0
   57.9158   25.0440   45.0016 H   0  0  0  0  0  0  0  0  0  0  0  0
   58.2117   25.6674   42.6063 H   0  0  0  0  0  0  0  0  0  0  0  0
   57.8812   28.0322   41.8758 H   0  0  0  0  0  0  0  0  0  0  0  0
   58.9706   32.0618   43.8538 H   0  0  0  0  0  0  0  0  0  0  0  0
   57.5638   33.9275   43.4888 H   0  0  0  0  0  0  0  0  0  0  0  0
   56.7081   33.7017   45.0619 H   0  0  0  0  0  0  0  0  0  0  0  0
   59.6130   34.5824   44.6884 H   0  0  0  0  0  0  0  0  0  0  0  0
   58.2161   35.6227   45.1846 H   0  0  0  0  0  0  0  0  0  0  0  0
   59.9593   34.3173   46.9178 H   0  0  0  0  0  0  0  0  0  0  0  0
   58.2917   34.9311   47.3154 H   0  0  0  0  0  0  0  0  0  0  0  0
   58.0506   32.4199   49.0503 H   0  0  0  0  0  0  0  0  0  0  0  0
   59.3595   31.4452   48.2813 H   0  0  0  0  0  0  0  0  0  0  0  0
   61.7324   31.4381   47.6842 H   0  0  0  0  0  0  0  0  0  0  0  0
   61.1740   32.5740   46.4503 H   0  0  0  0  0  0  0  0  0  0  0  0
   63.8665   32.0164   46.9992 H   0  0  0  0  0  0  0  0  0  0  0  0
   63.3296   33.5023   46.2026 H   0  0  0  0  0  0  0  0  0  0  0  0
   64.1948   33.0492   49.0575 H   0  0  0  0  0  0  0  0  0  0  0  0
   64.3106   34.5315   48.0977 H   0  0  0  0  0  0  0  0  0  0  0  0
   62.3854   34.0536   50.0827 H   0  0  0  0  0  0  0  0  0  0  0  0
   62.1836   35.2542   48.7994 H   0  0  0  0  0  0  0  0  0  0  0  0
   59.9881   32.0154   45.8640 H   0  0  0  0  0  0  0  0  0  0  0  0
   58.6495   30.8884   46.3055 H   0  0  0  0  0  0  0  0  0  0  0  0
   56.9947   29.1666   45.9582 H   0  0  0  0  0  0  0  0  0  0  0  0
   60.6991   26.8322   50.4887 H   0  0  0  0  0  0  0  0  0  0  0  0
  1  2  1  0
  2  3  1  0
  3  4  1  0
  4  5  2  0
  5  6  1  0
  6  7  2  0
  7  8  1  0
  8  9  2  0
  2 10  1  0
 10 11  2  0
 10 12  1  0
 12 13  2  0
 13 14  1  0
 14 15  2  0
 15 16  1  0
 16 17  1  0
 17 18  1  0
 18 19  2  0
 18 20  1  0
 20 21  1  0
 21 22  2  0
 22 23  1  0
 23 24  2  0
 24 25  1  0
 25 26  1  0
 26 27  1  0
 27 28  2  0
 27 29  1  0
 29 30  1  0
 30 31  1  0
 31 32  1  0
 32 33  1  0
 33 34  1  0
 34 35  1  0
 35 36  2  0
 35 37  1  0
 37 38  1  0
 38 39  1  0
 39 40  1  0
 40 41  1  0
 33 42  1  0
 25 43  2  0
 16 44  2  0
  9  4  1  0
 44 12  1  0
 43 21  1  0
 42 29  1  0
 41 37  1  0
  1 45  1  0
  1 46  1  0
  1 47  1  0
  3 48  1  0
  3 49  1  0
  5 50  1  0
  6 51  1  0
  7 52  1  0
  8 53  1  0
  9 54  1  0
 13 55  1  0
 14 56  1  0
 15 57  1  0
 20 58  1  0
 20 59  1  0
 22 60  1  0
 23 61  1  0
 24 62  1  0
 29 63  1  6
 30 64  1  0
 30 65  1  0
 31 66  1  0
 31 67  1  0
 32 68  1  0
 32 69  1  0
 34 70  1  0
 34 71  1  0
 38 72  1  0
 38 73  1  0
 39 74  1  0
 39 75  1  0
 40 76  1  0
 40 77  1  0
 41 78  1  0
 41 79  1  0
 42 80  1  0
 42 81  1  0
 43 82  1  0
 44 83  1  0
M  CHG  2  17  -1  26  -1
M  END
>  <UniqueID>  (95) 
90

>  <SMILES>  (95) 
CN(Cc1ccccc1)C(=O)c1cccc([N-]C(=O)Cc2cccc([N-]C(=O)[C@H]3CCCN(CC(=O)N4CCCC4)C3)c2)c1

>  <Energy>  (95) 
101.90730234757936

>  <Genealogy>  (95) 
CN(Cc1ccccc1)C(=O)c1cccc([N-]C(=O)Cc2cccc([N-]C(=O)C3CCCN(CC(=O)N4CCCC4)C3)c2)c1 (protonated)
CN(Cc1ccccc1)C(=O)c1cccc([N-]C(=O)Cc2cccc([N-]C(=O)[C@H]3CCCN(CC(=O)N4CCCC4)C3)c2)c1 (chirality)
CN(Cc1ccccc1)C(=O)c1cccc([N-]C(=O)Cc2cccc([N-]C(=O)[C@H]3CCCN(CC(=O)N4CCCC4)C3)c2)c1 (3D coordinates assigned)
CN(Cc1ccccc1)C(=O)c1cccc([N-]C(=O)Cc2cccc([N-]C(=O)[C@H]3CCCN(CC(=O)N4CCCC4)C3)c2)c1 (nonaromatic ring conformer: 101.90730234757936 kcal/mol)

>  <smiles>  (95) 
CN(Cc1ccccc1)C(=O)c1cccc(NC(=O)Cc2cccc(NC(=O)C3CCCN(CC(=O)N4CCCC4)C3)c2)c1

>  <score_type>  (95) 
oracle

>  <origin>  (95) 
adg

>  <m_score__min__energy>  (95) 
-13.06

>  <m_primary>  (95) 
energy

$$$$
