0:0
     RDKit          3D

 34 36  0  0  0  0  0  0  0  0999 V2000
   56.8450   30.7320   44.8630 O   0  0  0  0  0  0  0  0  0  0  0  0
   57.7610   31.5990   44.8680 C   0  0  0  0  0  0  0  0  0  0  0  0
   57.5610   32.8820   44.1270 C   0  0  0  0  0  0  0  0  0  0  0  0
   57.2120   34.2150   45.3170 S   0  0  0  0  0  0  0  0  0  0  0  0
   58.8020   34.0670   46.1270 C   0  0  0  0  0  0  0  0  0  0  0  0
   58.9130   34.1700   47.5130 C   0  0  0  0  0  0  0  0  0  0  0  0
   60.1350   34.0500   48.0920 N   0  0  0  0  0  0  0  0  0  0  0  0
   61.2420   33.8410   47.3320 C   0  0  0  0  0  0  0  0  0  0  0  0
   62.5800   33.6750   47.9810 C   0  0  0  0  0  0  0  0  0  0  0  0
   63.1940   32.2910   47.8270 C   0  0  0  0  0  0  0  0  0  0  0  0
   63.7340   33.4550   47.0130 C   0  0  0  0  0  0  0  0  0  0  0  0
   61.1150   33.7240   45.9840 N   0  0  0  0  0  0  0  0  0  0  0  0
   59.9230   33.8380   45.3960 N   0  0  0  0  0  0  0  0  0  0  0  0
   58.9920   31.3610   45.5690 N   0  0  0  0  0  0  0  0  0  0  0  0
   59.2000   30.2780   46.4900 C   0  0  0  0  0  0  0  0  0  0  0  0
   59.1770   28.9570   46.0150 C   0  0  0  0  0  0  0  0  0  0  0  0
   59.4000   27.8860   46.8870 C   0  0  0  0  0  0  0  0  0  0  0  0
   59.6630   28.1260   48.2380 C   0  0  0  0  0  0  0  0  0  0  0  0
   59.7110   29.4380   48.7170 C   0  0  0  0  0  0  0  0  0  0  0  0
   59.4880   30.5120   47.8480 C   0  0  0  0  0  0  0  0  0  0  0  0
   58.4717   33.1247   43.5598 H   0  0  0  0  0  0  0  0  0  0  0  0
   56.7154   32.7781   43.4312 H   0  0  0  0  0  0  0  0  0  0  0  0
   58.0201   34.3466   48.1307 H   0  0  0  0  0  0  0  0  0  0  0  0
   62.3874   34.3543   48.8245 H   0  0  0  0  0  0  0  0  0  0  0  0
   63.7969   31.8632   48.6416 H   0  0  0  0  0  0  0  0  0  0  0  0
   62.8050   31.2900   47.5889 H   0  0  0  0  0  0  0  0  0  0  0  0
   64.7276   33.8696   47.2385 H   0  0  0  0  0  0  0  0  0  0  0  0
   63.8975   33.6452   45.9420 H   0  0  0  0  0  0  0  0  0  0  0  0
   59.8090   31.9710   45.3360 H   0  0  0  0  0  0  0  0  0  0  0  0
   58.9823   28.7628   44.9499 H   0  0  0  0  0  0  0  0  0  0  0  0
   59.3682   26.8537   46.5085 H   0  0  0  0  0  0  0  0  0  0  0  0
   59.8321   27.2830   48.9241 H   0  0  0  0  0  0  0  0  0  0  0  0
   59.9245   29.6269   49.7794 H   0  0  0  0  0  0  0  0  0  0  0  0
   59.5379   31.5432   48.2276 H   0  0  0  0  0  0  0  0  0  0  0  0
  1  2  2  0
  2  3  1  0
  3  4  1  0
  4  5  1  0
  5  6  2  0
  6  7  1  0
  7  8  2  0
  8  9  1  0
  9 10  1  0
 10 11  1  0
  8 12  1  0
 12 13  2  0
  2 14  1  0
 14 15  1  0
 15 16  2  0
 16 17  1  0
 17 18  2  0
 18 19  1  0
 19 20  2  0
 13  5  1  0
 20 15  1  0
 11  9  1  0
  3 21  1  0
  3 22  1  0
  6 23  1  0
  9 24  1  0
 10 25  1  0
 10 26  1  0
 11 27  1  0
 11 28  1  0
 14 29  1  0
 16 30  1  0
 17 31  1  0
 18 32  1  0
 19 33  1  0
 20 34  1  0
M  END
>  <UniqueID>  (1) 
1

>  <SMILES>  (1) 
O=C(CSc1cnc(C2CC2)nn1)Nc1ccccc1

>  <Energy>  (1) 
298.52874310912887

>  <Genealogy>  (1) 
O=C(CSc1cnc(C2CC2)nn1)Nc1ccccc1 (3D coordinates assigned)
O=C(CSc1cnc(C2CC2)nn1)Nc1ccccc1 (nonaromatic ring conformer: 298.52874310912887 kcal/mol)

>  <smiles>  (1) 
O=C(CSc1cnc(C2CC2)nn1)Nc1ccccc1

>  <score_type>  (1) 
oracle

>  <origin>  (1) 
adg

>  <m_score__min__energy>  (1) 
-7.0199999999999996

>  <m_primary>  (1) 
energy

$$$$
1:0
     RDKit          3D

 24 25  0  0  0  0  0  0  0  0999 V2000
   60.5524   29.7812   44.8973 H   0  0  0  0  0  0  0  0  0  0  0  0
   59.7690   30.0610   45.6170 C   0  0  0  0  0  0  0  0  0  0  0  0
   60.0600   30.9510   46.5730 C   0  0  0  0  0  0  0  0  0  0  0  0
   60.7605   30.6558   47.3681 H   0  0  0  0  0  0  0  0  0  0  0  0
   59.4860   32.3090   46.6110 C   0  0  0  0  0  0  0  0  0  0  0  0
   58.3680   32.5910   47.2400 O   0  0  0  0  0  0  0  0  0  0  0  0
   58.1160   33.8720   47.1010 C   0  0  0  0  0  0  0  0  0  0  0  0
   57.2443   34.3951   47.5212 H   0  0  0  0  0  0  0  0  0  0  0  0
   59.1100   34.4630   46.3480 C   0  0  0  0  0  0  0  0  0  0  0  0
   59.1795   35.5221   46.0592 H   0  0  0  0  0  0  0  0  0  0  0  0
   59.9980   33.4580   46.0310 C   0  0  0  0  0  0  0  0  0  0  0  0
   60.9214   33.5493   45.4402 H   0  0  0  0  0  0  0  0  0  0  0  0
   58.4350   29.4410   45.4930 C   0  0  0  0  0  0  0  0  0  0  0  0
   58.2630   28.2110   46.0450 N   0  0  0  0  0  0  0  0  0  0  0  0
   57.0920   27.5370   45.9350 C   0  0  0  0  0  0  0  0  0  0  0  0
   56.9760   26.3970   46.4590 O   0  0  0  0  0  0  0  0  0  0  0  0
   56.0500   28.0860   45.2580 N   0  0  0  0  0  0  0  0  0  0  0  0
   55.1530   27.5560   45.1740 H   0  0  0  0  0  0  0  0  0  0  0  0
   56.1520   29.3270   44.7080 C   0  0  0  0  0  0  0  0  0  0  0  0
   55.1540   29.8250   44.1190 O   0  0  0  0  0  0  0  0  0  0  0  0
   57.3520   30.0540   44.8200 C   0  0  0  0  0  0  0  0  0  0  0  0
   57.4340   31.4060   44.3330 N   0  0  0  0  0  0  0  0  0  0  0  0
   58.1410   31.6810   43.3420 O   0  0  0  0  0  0  0  0  0  0  0  0
   56.6400   32.3870   44.8810 O   0  0  0  0  0  0  0  0  0  0  0  0
  1  2  1  0
  2  3  2  0
  3  4  1  0
  3  5  1  0
  5  6  1  0
  6  7  1  0
  7  8  1  0
  7  9  2  0
  9 10  1  0
  9 11  1  0
 11 12  1  0
  2 13  1  0
 13 14  1  0
 14 15  1  0
 15 16  2  0
 15 17  1  0
 17 18  1  0
 17 19  1  0
 19 20  2  0
 19 21  1  0
 21 22  1  0
 22 23  2  0
 22 24  1  0
 11  5  2  0
 21 13  2  0
M  CHG  3  14  -1  22   1  24  -1
M  END
>  <UniqueID>  (2) 
2

>  <SMILES>  (2) 
O=c1[n-]c(/C=C/c2ccco2)c([N+](=O)[O-])c(=O)[nH]1

>  <Energy>  (2) 
61.680058060967404

>  <Genealogy>  (2) 
O=c1[n-]c(C=Cc2ccco2)c([N+](=O)[O-])c(=O)[nH]1 (protonated)
O=c1[n-]c(/C=C/c2ccco2)c([N+](=O)[O-])c(=O)[nH]1 (cis-trans isomerization)
O=c1[n-]c(/C=C/c2ccco2)c([N+](=O)[O-])c(=O)[nH]1 (3D coordinates assigned)
O=c1[n-]c(/C=C/c2ccco2)c([N+](=O)[O-])c(=O)[nH]1 (optimized conformer: 61.680058060967404 kcal/mol)

>  <smiles>  (2) 
O=c1[nH]c(C=Cc2ccco2)c([N+](=O)[O-])c(=O)[nH]1

>  <score_type>  (2) 
oracle

>  <origin>  (2) 
adg

>  <m_score__min__energy>  (2) 
-7.8899999999999997

>  <m_primary>  (2) 
energy

$$$$
2:0
     RDKit          3D

 44 47  0  0  0  0  0  0  0  0999 V2000
   60.4170   28.0820   46.9650 O   0  0  0  0  0  0  0  0  0  0  0  0
   59.3600   28.5250   47.4870 C   0  0  0  0  0  0  0  0  0  0  0  0
   58.2180   27.5950   47.7500 C   0  0  0  0  0  0  0  0  0  0  0  0
   57.2480   27.6780   46.7050 O   0  0  0  0  0  0  0  0  0  0  0  0
   57.4430   27.2710   45.3710 C   0  0  0  0  0  0  0  0  0  0  0  0
   57.5660   25.9070   45.0270 C   0  0  0  0  0  0  0  0  0  0  0  0
   57.7690   25.5250   43.6980 C   0  0  0  0  0  0  0  0  0  0  0  0
   57.8520   26.4910   42.6970 C   0  0  0  0  0  0  0  0  0  0  0  0
   57.7290   27.8460   43.0190 C   0  0  0  0  0  0  0  0  0  0  0  0
   57.5210   28.2510   44.3500 C   0  0  0  0  0  0  0  0  0  0  0  0
   57.3770   29.6990   44.6440 C   0  0  0  0  0  0  0  0  0  0  0  0
   58.3680   30.4940   45.0960 N   0  0  0  0  0  0  0  0  0  0  0  0
   57.7390   31.6820   45.2090 C   0  0  0  0  0  0  0  0  0  0  0  0
   58.3940   32.9180   45.6880 C   0  0  0  0  0  0  0  0  0  0  0  0
   59.0250   33.7890   44.7840 C   0  0  0  0  0  0  0  0  0  0  0  0
   59.6300   34.9660   45.2390 C   0  0  0  0  0  0  0  0  0  0  0  0
   59.6220   35.2760   46.6010 C   0  0  0  0  0  0  0  0  0  0  0  0
   59.0080   34.4110   47.5120 C   0  0  0  0  0  0  0  0  0  0  0  0
   58.3940   33.2380   47.0600 C   0  0  0  0  0  0  0  0  0  0  0  0
   56.4420   31.6100   44.8460 N   0  0  0  0  0  0  0  0  0  0  0  0
   56.2590   30.3700   44.5050 O   0  0  0  0  0  0  0  0  0  0  0  0
   59.2840   29.8830   47.9350 N   0  0  0  0  0  0  0  0  0  0  0  0
   60.3920   30.7880   48.0410 C   0  0  0  0  0  0  0  0  0  0  0  0
   61.4240   30.7820   47.0850 C   0  0  0  0  0  0  0  0  0  0  0  0
   62.4760   31.6940   47.1800 C   0  0  0  0  0  0  0  0  0  0  0  0
   62.5110   32.6180   48.2270 C   0  0  0  0  0  0  0  0  0  0  0  0
   61.4830   32.6480   49.1760 C   0  0  0  0  0  0  0  0  0  0  0  0
   61.5570   33.8400   50.4700 Cl  0  0  0  0  0  0  0  0  0  0  0  0
   60.4120   31.7410   49.0780 C   0  0  0  0  0  0  0  0  0  0  0  0
   59.1050   31.7770   50.2620 Cl  0  0  0  0  0  0  0  0  0  0  0  0
   58.5979   26.5644   47.8089 H   0  0  0  0  0  0  0  0  0  0  0  0
   57.7407   27.8808   48.6989 H   0  0  0  0  0  0  0  0  0  0  0  0
   57.5015   25.1387   45.8116 H   0  0  0  0  0  0  0  0  0  0  0  0
   57.8635   24.4595   43.4416 H   0  0  0  0  0  0  0  0  0  0  0  0
   58.0145   26.1871   41.6524 H   0  0  0  0  0  0  0  0  0  0  0  0
   57.7955   28.6029   42.2236 H   0  0  0  0  0  0  0  0  0  0  0  0
   59.0436   33.5442   43.7117 H   0  0  0  0  0  0  0  0  0  0  0  0
   60.1124   35.6479   44.5232 H   0  0  0  0  0  0  0  0  0  0  0  0
   60.0990   36.2011   46.9571 H   0  0  0  0  0  0  0  0  0  0  0  0
   59.0077   34.6530   48.5850 H   0  0  0  0  0  0  0  0  0  0  0  0
   57.9088   32.5621   47.7795 H   0  0  0  0  0  0  0  0  0  0  0  0
   61.4016   30.0555   46.2593 H   0  0  0  0  0  0  0  0  0  0  0  0
   63.2794   31.6852   46.4287 H   0  0  0  0  0  0  0  0  0  0  0  0
   63.3501   33.3249   48.3058 H   0  0  0  0  0  0  0  0  0  0  0  0
  1  2  2  0
  2  3  1  0
  3  4  1  0
  4  5  1  0
  5  6  2  0
  6  7  1  0
  7  8  2  0
  8  9  1  0
  9 10  2  0
 10 11  1  0
 11 12  2  0
 12 13  1  0
 13 14  1  0
 14 15  2  0
 15 16  1  0
 16 17  2  0
 17 18  1  0
 18 19  2  0
 13 20  2  0
 20 21  1  0
  2 22  1  0
 22 23  1  0
 23 24  2  0
 24 25  1  0
 25 26  2  0
 26 27  1  0
 27 28  1  0
 27 29  2  0
 29 30  1  0
 10  5  1  0
 21 11  1  0
 29 23  1  0
 19 14  1  0
  3 31  1  0
  3 32  1  0
  6 33  1  0
  7 34  1  0
  8 35  1  0
  9 36  1  0
 15 37  1  0
 16 38  1  0
 17 39  1  0
 18 40  1  0
 19 41  1  0
 24 42  1  0
 25 43  1  0
 26 44  1  0
M  CHG  1  22  -1
M  END
>  <UniqueID>  (3) 
3

>  <SMILES>  (3) 
O=C(COc1ccccc1-c1nc(-c2ccccc2)no1)[N-]c1cccc(Cl)c1Cl

>  <Energy>  (3) 
88.06314063728908

>  <Genealogy>  (3) 
O=C(COc1ccccc1-c1nc(-c2ccccc2)no1)[N-]c1cccc(Cl)c1Cl (protonated)
O=C(COc1ccccc1-c1nc(-c2ccccc2)no1)[N-]c1cccc(Cl)c1Cl (3D coordinates assigned)
O=C(COc1ccccc1-c1nc(-c2ccccc2)no1)[N-]c1cccc(Cl)c1Cl (optimized conformer: 88.06314063728908 kcal/mol)

>  <smiles>  (3) 
O=C(COc1ccccc1-c1nc(-c2ccccc2)no1)Nc1cccc(Cl)c1Cl

>  <score_type>  (3) 
oracle

>  <origin>  (3) 
adg

>  <m_score__min__energy>  (3) 
-10.85

>  <m_primary>  (3) 
energy

$$$$
3:0
     RDKit          3D

 31 33  0  0  0  0  0  0  0  0999 V2000
   55.9650   26.0570   45.9910 C   0  0  0  0  0  0  0  0  0  0  0  0
   56.7080   27.3920   45.9620 C   0  0  0  0  0  0  0  0  0  0  0  0
   58.0610   27.2290   45.2620 C   0  0  0  0  0  0  0  0  0  0  0  0
   55.9030   28.3480   45.2690 O   0  0  0  0  0  0  0  0  0  0  0  0
   56.3830   29.4150   44.4930 C   0  0  0  0  0  0  0  0  0  0  0  0
   56.2170   29.4780   43.0820 C   0  0  0  0  0  0  0  0  0  0  0  0
   56.7240   30.5720   42.3630 C   0  0  0  0  0  0  0  0  0  0  0  0
   57.3780   31.5570   43.0870 C   0  0  0  0  0  0  0  0  0  0  0  0
   57.9430   32.6860   42.6190 N   0  0  0  0  0  0  0  0  0  0  0  0
   58.4420   33.3010   43.6880 N   0  0  0  0  0  0  0  0  0  0  0  0
   58.1810   32.5490   44.7840 C   0  0  0  0  0  0  0  0  0  0  0  0
   58.5760   32.8980   46.1630 C   0  0  0  0  0  0  0  0  0  0  0  0
   59.0000   34.1490   46.5990 C   0  0  0  0  0  0  0  0  0  0  0  0
   59.3100   34.1850   47.9640 C   0  0  0  0  0  0  0  0  0  0  0  0
   59.1340   32.9700   48.6110 C   0  0  0  0  0  0  0  0  0  0  0  0
   58.5900   31.8500   47.4810 S   0  0  0  0  0  0  0  0  0  0  0  0
   57.5100   31.4490   44.4110 N   0  0  0  0  0  0  0  0  0  0  0  0
   57.0430   30.4280   45.1270 N   0  0  0  0  0  0  0  0  0  0  0  0
   55.7963   25.7539   47.0349 H   0  0  0  0  0  0  0  0  0  0  0  0
   54.9971   26.1648   45.4795 H   0  0  0  0  0  0  0  0  0  0  0  0
   56.5667   25.2913   45.4795 H   0  0  0  0  0  0  0  0  0  0  0  0
   56.8933   27.7383   46.9895 H   0  0  0  0  0  0  0  0  0  0  0  0
   58.8553   27.1333   46.0170 H   0  0  0  0  0  0  0  0  0  0  0  0
   58.0422   26.3266   44.6332 H   0  0  0  0  0  0  0  0  0  0  0  0
   58.2570   28.1100   44.6332 H   0  0  0  0  0  0  0  0  0  0  0  0
   55.6911   28.6691   42.5537 H   0  0  0  0  0  0  0  0  0  0  0  0
   56.6073   30.6446   41.2716 H   0  0  0  0  0  0  0  0  0  0  0  0
   58.9470   34.2130   43.6560 H   0  0  0  0  0  0  0  0  0  0  0  0
   59.0835   35.0235   45.9370 H   0  0  0  0  0  0  0  0  0  0  0  0
   59.6608   35.0930   48.4764 H   0  0  0  0  0  0  0  0  0  0  0  0
   59.3183   32.7738   49.6775 H   0  0  0  0  0  0  0  0  0  0  0  0
  1  2  1  0
  2  3  1  0
  2  4  1  0
  4  5  1  0
  5  6  1  0
  6  7  2  0
  7  8  1  0
  8  9  2  0
  9 10  1  0
 10 11  2  0
 11 12  1  0
 12 13  2  0
 13 14  1  0
 14 15  2  0
 15 16  1  0
 11 17  1  0
 17 18  1  0
 18  5  2  0
 17  8  1  0
 16 12  1  0
  1 19  1  0
  1 20  1  0
  1 21  1  0
  2 22  1  0
  3 23  1  0
  3 24  1  0
  3 25  1  0
  6 26  1  0
  7 27  1  0
 10 28  1  0
 13 29  1  0
 14 30  1  0
 15 31  1  0
M  CHG  1  10   1
M  END
>  <UniqueID>  (4) 
4

>  <SMILES>  (4) 
CC(C)Oc1ccc2n[nH+]c(-c3cccs3)n2n1

>  <Energy>  (4) 
99.33634299776881

>  <Genealogy>  (4) 
CC(C)Oc1ccc2n[nH+]c(-c3cccs3)n2n1 (protonated)
CC(C)Oc1ccc2n[nH+]c(-c3cccs3)n2n1 (3D coordinates assigned)
CC(C)Oc1ccc2n[nH+]c(-c3cccs3)n2n1 (optimized conformer: 99.33634299776881 kcal/mol)

>  <smiles>  (4) 
CC(C)Oc1ccc2nnc(-c3cccs3)n2n1

>  <score_type>  (4) 
oracle

>  <origin>  (4) 
adg

>  <m_score__min__energy>  (4) 
-5.8600000000000003

>  <m_primary>  (4) 
energy

$$$$
4:0
     RDKit          3D

 33 34  0  0  0  0  0  0  0  0999 V2000
   56.6520   28.5990   44.8830 C   0  0  0  0  0  0  0  0  0  0  0  0
   55.8960   29.6040   44.0230 C   0  0  0  0  0  0  0  0  0  0  0  0
   56.6820   30.8200   43.8620 N   0  0  0  0  0  0  0  0  0  0  0  0
   57.1500   31.2440   42.6980 N   0  0  0  0  0  0  0  0  0  0  0  0
   57.8640   32.3530   42.9640 C   0  0  0  0  0  0  0  0  0  0  0  0
   57.8090   32.5660   44.3280 C   0  0  0  0  0  0  0  0  0  0  0  0
   58.4340   33.6520   45.1010 C   0  0  0  0  0  0  0  0  0  0  0  0
   59.0450   34.5660   44.4830 O   0  0  0  0  0  0  0  0  0  0  0  0
   58.3560   33.6830   46.5350 N   0  0  0  0  0  0  0  0  0  0  0  0
   59.0300   34.7060   47.3300 C   0  0  0  0  0  0  0  0  0  0  0  0
   60.4140   34.2500   47.7020 C   0  0  0  0  0  0  0  0  0  0  0  0
   61.3280   33.8810   46.7060 C   0  0  0  0  0  0  0  0  0  0  0  0
   62.6190   33.4780   47.0550 C   0  0  0  0  0  0  0  0  0  0  0  0
   62.9870   33.4490   48.4060 C   0  0  0  0  0  0  0  0  0  0  0  0
   64.3680   33.0330   48.8030 C   0  0  0  0  0  0  0  0  0  0  0  0
   62.0900   33.8200   49.3590 N   0  0  0  0  0  0  0  0  0  0  0  0
   60.8280   34.2150   49.0420 C   0  0  0  0  0  0  0  0  0  0  0  0
   57.0650   31.5860   44.8730 N   0  0  0  0  0  0  0  0  0  0  0  0
   56.4820   28.8250   45.9460 H   0  0  0  0  0  0  0  0  0  0  0  0
   56.2922   27.5833   44.6619 H   0  0  0  0  0  0  0  0  0  0  0  0
   57.7276   28.6631   44.6619 H   0  0  0  0  0  0  0  0  0  0  0  0
   55.7023   29.1629   43.0341 H   0  0  0  0  0  0  0  0  0  0  0  0
   54.9447   29.8540   44.5155 H   0  0  0  0  0  0  0  0  0  0  0  0
   58.3948   32.9764   42.2294 H   0  0  0  0  0  0  0  0  0  0  0  0
   57.7960   32.9630   47.0410 H   0  0  0  0  0  0  0  0  0  0  0  0
   59.0991   35.6342   46.7437 H   0  0  0  0  0  0  0  0  0  0  0  0
   58.4524   34.8831   48.2492 H   0  0  0  0  0  0  0  0  0  0  0  0
   61.0284   33.9088   45.6480 H   0  0  0  0  0  0  0  0  0  0  0  0
   63.3394   33.1863   46.2766 H   0  0  0  0  0  0  0  0  0  0  0  0
   64.4430   33.0104   49.9002 H   0  0  0  0  0  0  0  0  0  0  0  0
   64.5792   32.0314   48.4004 H   0  0  0  0  0  0  0  0  0  0  0  0
   65.0973   33.7513   48.4004 H   0  0  0  0  0  0  0  0  0  0  0  0
   60.1291   34.5082   49.8392 H   0  0  0  0  0  0  0  0  0  0  0  0
  1  2  1  0
  2  3  1  0
  3  4  1  0
  4  5  2  0
  5  6  1  0
  6  7  1  0
  7  8  2  0
  7  9  1  0
  9 10  1  0
 10 11  1  0
 11 12  2  0
 12 13  1  0
 13 14  2  0
 14 15  1  0
 14 16  1  0
 16 17  2  0
  6 18  2  0
 18  3  1  0
 17 11  1  0
  1 19  1  0
  1 20  1  0
  1 21  1  0
  2 22  1  0
  2 23  1  0
  5 24  1  0
  9 25  1  0
 10 26  1  0
 10 27  1  0
 12 28  1  0
 13 29  1  0
 15 30  1  0
 15 31  1  0
 15 32  1  0
 17 33  1  0
M  END
>  <UniqueID>  (5) 
5

>  <SMILES>  (5) 
CCn1ncc(C(=O)NCc2ccc(C)nc2)n1

>  <Energy>  (5) 
59.12436607412485

>  <Genealogy>  (5) 
CCn1ncc(C(=O)NCc2ccc(C)nc2)n1 (3D coordinates assigned)
CCn1ncc(C(=O)NCc2ccc(C)nc2)n1 (optimized conformer: 59.12436607412485 kcal/mol)

>  <smiles>  (5) 
CCn1ncc(C(=O)NCc2ccc(C)nc2)n1

>  <score_type>  (5) 
oracle

>  <origin>  (5) 
adg

>  <m_score__min__energy>  (5) 
-6.4199999999999999

>  <m_primary>  (5) 
energy

$$$$
5:0
     RDKit          3D

 63 65  0  0  0  0  0  0  0  0999 V2000
   57.0410   23.5380   47.0830 C   0  0  0  0  0  0  0  0  0  0  0  0
   56.7590   24.8770   47.4850 O   0  0  0  0  0  0  0  0  0  0  0  0
   57.2230   26.0510   46.8710 C   0  0  0  0  0  0  0  0  0  0  0  0
   58.5460   26.5190   47.0110 C   0  0  0  0  0  0  0  0  0  0  0  0
   58.9620   27.6730   46.3460 C   0  0  0  0  0  0  0  0  0  0  0  0
   58.0780   28.3880   45.5190 C   0  0  0  0  0  0  0  0  0  0  0  0
   58.5690   29.6880   44.8980 C   0  0  0  0  0  0  0  0  0  0  0  0
   57.5260   30.5040   44.1080 C   0  0  0  0  0  0  0  0  0  0  0  0
   56.9570   31.5840   44.9230 N   0  0  0  0  0  0  0  0  0  0  0  0
   57.9440   32.2050   45.8210 C   0  0  0  0  0  0  0  0  0  0  0  0
   58.1240   33.6840   45.4490 C   0  0  0  0  0  0  0  0  0  0  0  0
   58.8140   34.5050   46.5580 C   0  0  0  0  0  0  0  0  0  0  0  0
   60.1090   33.9350   46.9290 N   0  0  0  0  0  0  0  0  0  0  0  0
   61.3060   34.2090   46.3820 C   0  0  0  0  0  0  0  0  0  0  0  0
   62.2590   33.4280   46.9210 N   0  0  0  0  0  0  0  0  0  0  0  0
   61.5790   32.6560   47.7960 C   0  0  0  0  0  0  0  0  0  0  0  0
   62.1690   31.5720   48.5990 C   0  0  0  0  0  0  0  0  0  0  0  0
   63.4220   31.4550   48.6410 O   0  0  0  0  0  0  0  0  0  0  0  0
   61.3600   30.6210   49.3050 N   0  0  0  0  0  0  0  0  0  0  0  0
   60.1860   30.9130   50.0790 C   0  0  0  0  0  0  0  0  0  0  0  0
   59.2110   29.9240   50.2250 C   0  0  0  0  0  0  0  0  0  0  0  0
   58.0490   30.1790   50.9560 C   0  0  0  0  0  0  0  0  0  0  0  0
   57.8420   31.4300   51.5600 C   0  0  0  0  0  0  0  0  0  0  0  0
   56.5710   31.6780   52.3280 C   0  0  0  0  0  0  0  0  0  0  0  0
   58.8470   32.4230   51.4580 C   0  0  0  0  0  0  0  0  0  0  0  0
   58.6830   33.7740   52.1080 C   0  0  0  0  0  0  0  0  0  0  0  0
   60.0130   32.1510   50.7210 C   0  0  0  0  0  0  0  0  0  0  0  0
   60.2650   32.9610   47.8130 N   0  0  0  0  0  0  0  0  0  0  0  0
   56.7520   27.9310   45.3990 C   0  0  0  0  0  0  0  0  0  0  0  0
   56.3240   26.7750   46.0770 C   0  0  0  0  0  0  0  0  0  0  0  0
   54.9990   26.3140   45.9980 O   0  0  0  0  0  0  0  0  0  0  0  0
   54.6120   25.0260   45.5230 C   0  0  0  0  0  0  0  0  0  0  0  0
   57.1737   22.9077   47.9747 H   0  0  0  0  0  0  0  0  0  0  0  0
   56.2045   23.1517   46.4821 H   0  0  0  0  0  0  0  0  0  0  0  0
   57.9622   23.5219   46.4821 H   0  0  0  0  0  0  0  0  0  0  0  0
   59.2548   25.9705   47.6488 H   0  0  0  0  0  0  0  0  0  0  0  0
   59.9956   28.0281   46.4705 H   0  0  0  0  0  0  0  0  0  0  0  0
   58.9479   30.3255   45.7104 H   0  0  0  0  0  0  0  0  0  0  0  0
   59.3298   29.3921   44.1607 H   0  0  0  0  0  0  0  0  0  0  0  0
   58.0107   30.9418   43.2229 H   0  0  0  0  0  0  0  0  0  0  0  0
   56.7100   29.8276   43.8138 H   0  0  0  0  0  0  0  0  0  0  0  0
   56.5860   32.3280   44.2820 H   0  0  0  0  0  0  0  0  0  0  0  0
   57.5911   32.1297   46.8601 H   0  0  0  0  0  0  0  0  0  0  0  0
   58.9074   31.6840   45.7193 H   0  0  0  0  0  0  0  0  0  0  0  0
   58.7354   33.7440   44.5366 H   0  0  0  0  0  0  0  0  0  0  0  0
   57.1209   34.1102   45.3000 H   0  0  0  0  0  0  0  0  0  0  0  0
   58.9674   35.5327   46.1972 H   0  0  0  0  0  0  0  0  0  0  0  0
   58.1666   34.4910   47.4472 H   0  0  0  0  0  0  0  0  0  0  0  0
   61.4814   34.9656   45.6030 H   0  0  0  0  0  0  0  0  0  0  0  0
   63.2760   33.4200   46.6920 H   0  0  0  0  0  0  0  0  0  0  0  0
   59.3594   28.9377   49.7611 H   0  0  0  0  0  0  0  0  0  0  0  0
   57.2877   29.3918   51.0599 H   0  0  0  0  0  0  0  0  0  0  0  0
   56.7807   31.6371   53.4071 H   0  0  0  0  0  0  0  0  0  0  0  0
   56.1738   32.6706   52.0690 H   0  0  0  0  0  0  0  0  0  0  0  0
   55.8298   30.9075   52.0690 H   0  0  0  0  0  0  0  0  0  0  0  0
   58.6970   33.6587   53.2019 H   0  0  0  0  0  0  0  0  0  0  0  0
   59.5078   34.4325   51.7981 H   0  0  0  0  0  0  0  0  0  0  0  0
   57.7246   34.2161   51.7981 H   0  0  0  0  0  0  0  0  0  0  0  0
   60.7994   32.9165   50.6460 H   0  0  0  0  0  0  0  0  0  0  0  0
   56.0417   28.4846   44.7673 H   0  0  0  0  0  0  0  0  0  0  0  0
   54.4131   24.3641   46.3788 H   0  0  0  0  0  0  0  0  0  0  0  0
   53.7020   25.1187   44.9119 H   0  0  0  0  0  0  0  0  0  0  0  0
   55.4224   24.6018   44.9119 H   0  0  0  0  0  0  0  0  0  0  0  0
  1  2  1  0
  2  3  1  0
  3  4  2  0
  4  5  1  0
  5  6  2  0
  6  7  1  0
  7  8  1  0
  8  9  1  0
  9 10  1  0
 10 11  1  0
 11 12  1  0
 12 13  1  0
 13 14  1  0
 14 15  2  0
 15 16  1  0
 16 17  1  0
 17 18  2  0
 17 19  1  0
 19 20  1  0
 20 21  2  0
 21 22  1  0
 22 23  2  0
 23 24  1  0
 23 25  1  0
 25 26  1  0
 25 27  2  0
 16 28  2  0
  6 29  1  0
 29 30  2  0
 30 31  1  0
 31 32  1  0
 30  3  1  0
 28 13  1  0
 27 20  1  0
  1 33  1  0
  1 34  1  0
  1 35  1  0
  4 36  1  0
  5 37  1  0
  7 38  1  0
  7 39  1  0
  8 40  1  0
  8 41  1  0
  9 42  1  0
 10 43  1  0
 10 44  1  0
 11 45  1  0
 11 46  1  0
 12 47  1  0
 12 48  1  0
 14 49  1  0
 15 50  1  0
 21 51  1  0
 22 52  1  0
 24 53  1  0
 24 54  1  0
 24 55  1  0
 26 56  1  0
 26 57  1  0
 26 58  1  0
 27 59  1  0
 29 60  1  0
 32 61  1  0
 32 62  1  0
 32 63  1  0
M  CHG  2  15   1  19  -1
M  END
>  <UniqueID>  (6) 
6

>  <SMILES>  (6) 
COc1ccc(CCNCCCn2c[nH+]c(C(=O)[N-]c3ccc(C)c(C)c3)n2)cc1OC

>  <Energy>  (6) 
105.0437799003368

>  <Genealogy>  (6) 
COc1ccc(CCNCCCn2c[nH+]c(C(=O)[N-]c3ccc(C)c(C)c3)n2)cc1OC (protonated)
COc1ccc(CCNCCCn2c[nH+]c(C(=O)[N-]c3ccc(C)c(C)c3)n2)cc1OC (3D coordinates assigned)
COc1ccc(CCNCCCn2c[nH+]c(C(=O)[N-]c3ccc(C)c(C)c3)n2)cc1OC (optimized conformer: 105.0437799003368 kcal/mol)

>  <smiles>  (6) 
COc1ccc(CCNCCCn2cnc(C(=O)Nc3ccc(C)c(C)c3)n2)cc1OC

>  <score_type>  (6) 
oracle

>  <origin>  (6) 
adg

>  <m_score__min__energy>  (6) 
-8.6400000000000006

>  <m_primary>  (6) 
energy

$$$$
6:0
     RDKit          3D

 41 43  0  0  0  0  0  0  0  0999 V2000
   54.4303   29.5379   44.1216 H   0  0  0  0  0  0  0  0  0  0  0  0
   55.4700   29.6790   44.4520 C   0  0  0  0  0  0  0  0  0  0  0  0
   56.0600   28.7450   45.2410 N   0  0  0  0  0  0  0  0  0  0  0  0
   57.3360   28.8880   45.6870 C   0  0  0  0  0  0  0  0  0  0  0  0
   57.9090   27.8820   46.4730 C   0  0  0  0  0  0  0  0  0  0  0  0
   57.3183   26.9949   46.7453 H   0  0  0  0  0  0  0  0  0  0  0  0
   59.2310   28.0020   46.9130 C   0  0  0  0  0  0  0  0  0  0  0  0
   59.9560   26.7240   47.8690 Cl  0  0  0  0  0  0  0  0  0  0  0  0
   59.9770   29.1360   46.5820 C   0  0  0  0  0  0  0  0  0  0  0  0
   61.0139   29.2316   46.9367 H   0  0  0  0  0  0  0  0  0  0  0  0
   59.4130   30.1490   45.8030 C   0  0  0  0  0  0  0  0  0  0  0  0
   60.0062   31.0410   45.5532 H   0  0  0  0  0  0  0  0  0  0  0  0
   58.0880   30.0350   45.3350 C   0  0  0  0  0  0  0  0  0  0  0  0
   57.5040   31.0050   44.4880 C   0  0  0  0  0  0  0  0  0  0  0  0
   58.2210   32.0240   44.0920 N   0  0  0  0  0  0  0  0  0  0  0  0
   57.8750   33.4470   44.1520 C   0  0  0  0  0  0  0  0  0  0  0  0
   56.8968   33.5562   44.6431 H   0  0  0  0  0  0  0  0  0  0  0  0
   57.8440   33.8374   43.1241 H   0  0  0  0  0  0  0  0  0  0  0  0
   58.9210   34.2500   44.9400 C   0  0  0  0  0  0  0  0  0  0  0  0
   58.6773   35.3205   44.8720 H   0  0  0  0  0  0  0  0  0  0  0  0
   59.9122   34.0494   44.5073 H   0  0  0  0  0  0  0  0  0  0  0  0
   58.9420   33.8510   46.3590 N   0  0  0  0  0  0  0  0  0  0  0  0
   60.1820   33.8400   47.0990 C   0  0  0  0  0  0  0  0  0  0  0  0
   61.4020   33.5740   46.4530 C   0  0  0  0  0  0  0  0  0  0  0  0
   61.4245   33.4459   45.3607 H   0  0  0  0  0  0  0  0  0  0  0  0
   62.5870   33.4710   47.1880 C   0  0  0  0  0  0  0  0  0  0  0  0
   63.5330   33.2537   46.6704 H   0  0  0  0  0  0  0  0  0  0  0  0
   62.5790   33.6430   48.5840 C   0  0  0  0  0  0  0  0  0  0  0  0
   63.7890   33.4970   49.3490 N   0  0  0  0  0  0  0  0  0  0  0  0
   64.6850   32.7100   48.9780 O   0  0  0  0  0  0  0  0  0  0  0  0
   63.9660   34.1960   50.5200 O   0  0  0  0  0  0  0  0  0  0  0  0
   61.3650   33.9450   49.2240 C   0  0  0  0  0  0  0  0  0  0  0  0
   61.3476   34.1087   50.3116 H   0  0  0  0  0  0  0  0  0  0  0  0
   60.1800   34.0390   48.4900 C   0  0  0  0  0  0  0  0  0  0  0  0
   59.2366   34.2710   49.0058 H   0  0  0  0  0  0  0  0  0  0  0  0
   57.7060   33.4280   47.0240 C   0  0  0  0  0  0  0  0  0  0  0  0
   57.8420   33.4745   48.1146 H   0  0  0  0  0  0  0  0  0  0  0  0
   56.8835   34.0958   46.7282 H   0  0  0  0  0  0  0  0  0  0  0  0
   57.4651   32.3963   46.7282 H   0  0  0  0  0  0  0  0  0  0  0  0
   56.1740   30.8160   44.0580 C   0  0  0  0  0  0  0  0  0  0  0  0
   55.6926   31.5652   43.4123 H   0  0  0  0  0  0  0  0  0  0  0  0
  1  2  1  0
  2  3  1  0
  3  4  1  0
  4  5  2  0
  5  6  1  0
  5  7  1  0
  7  8  1  0
  7  9  2  0
  9 10  1  0
  9 11  1  0
 11 12  1  0
 11 13  2  0
 13 14  1  0
 14 15  2  0
 15 16  1  0
 16 17  1  0
 16 18  1  0
 16 19  1  0
 19 20  1  0
 19 21  1  0
 19 22  1  0
 22 23  1  0
 23 24  2  0
 24 25  1  0
 24 26  1  0
 26 27  1  0
 26 28  2  0
 28 29  1  0
 29 30  2  0
 29 31  1  0
 28 32  1  0
 32 33  1  0
 32 34  2  0
 34 35  1  0
 22 36  1  0
 36 37  1  0
 36 38  1  0
 36 39  1  0
 14 40  1  0
 40 41  1  0
 40  2  2  0
 13  4  1  0
 34 23  1  0
M  CHG  3   3  -1  29   1  31  -1
M  END
>  <UniqueID>  (7) 
7

>  <SMILES>  (7) 
CN(CC/N=c1\cc[n-]c2cc(Cl)ccc12)c1ccc([N+](=O)[O-])cc1

>  <Energy>  (7) 
48.02045600267617

>  <Genealogy>  (7) 
CN(CCN=c1cc[n-]c2cc(Cl)ccc12)c1ccc([N+](=O)[O-])cc1 (protonated)
CN(CC/N=c1\cc[n-]c2cc(Cl)ccc12)c1ccc([N+](=O)[O-])cc1 (cis-trans isomerization)
CN(CC/N=c1\cc[n-]c2cc(Cl)ccc12)c1ccc([N+](=O)[O-])cc1 (3D coordinates assigned)
CN(CC/N=c1\cc[n-]c2cc(Cl)ccc12)c1ccc([N+](=O)[O-])cc1 (optimized conformer: 48.02045600267617 kcal/mol)

>  <smiles>  (7) 
CN(CCN=c1cc[nH]c2cc(Cl)ccc12)c1ccc([N+](=O)[O-])cc1

>  <score_type>  (7) 
oracle

>  <origin>  (7) 
adg

>  <m_score__min__energy>  (7) 
-9.5399999999999991

>  <m_primary>  (7) 
energy

$$$$
7:0
     RDKit          3D

 40 42  0  0  0  0  0  0  0  0999 V2000
   55.8940   30.0510   43.2040 C   0  0  0  0  0  0  0  0  0  0  0  0
   56.7550   29.4040   44.2930 C   0  0  2  0  0  0  0  0  0  0  0  0
   55.9140   28.6760   45.2410 N   0  0  0  0  0  0  0  0  0  0  0  0
   56.3010   27.4560   45.8790 C   0  0  0  0  0  0  0  0  0  0  0  0
   57.4850   27.2980   46.2820 O   0  0  0  0  0  0  0  0  0  0  0  0
   55.3370   26.4070   46.0120 N   0  0  0  0  0  0  0  0  0  0  0  0
   55.5020   25.0360   45.6170 C   0  0  0  0  0  0  0  0  0  0  0  0
   54.4690   24.0920   45.7500 C   0  0  0  0  0  0  0  0  0  0  0  0
   54.6630   22.7710   45.3320 C   0  0  0  0  0  0  0  0  0  0  0  0
   55.8850   22.3730   44.7630 C   0  0  0  0  0  0  0  0  0  0  0  0
   56.0810   21.0130   44.3360 N   0  0  0  0  0  0  0  0  0  0  0  0
   56.0850   20.0800   45.1650 O   0  0  0  0  0  0  0  0  0  0  0  0
   56.2650   20.7180   43.0050 O   0  0  0  0  0  0  0  0  0  0  0  0
   56.9060   23.3280   44.6110 C   0  0  0  0  0  0  0  0  0  0  0  0
   56.7100   24.6480   45.0280 C   0  0  0  0  0  0  0  0  0  0  0  0
   57.5520   30.4600   45.0250 C   0  0  0  0  0  0  0  0  0  0  0  0
   58.1480   30.1750   46.2660 C   0  0  0  0  0  0  0  0  0  0  0  0
   58.8650   31.1580   46.9540 C   0  0  0  0  0  0  0  0  0  0  0  0
   58.9910   32.4460   46.4160 C   0  0  0  0  0  0  0  0  0  0  0  0
   59.7080   33.4400   47.1000 C   0  0  0  0  0  0  0  0  0  0  0  0
   59.8230   34.7230   46.5550 C   0  0  0  0  0  0  0  0  0  0  0  0
   59.2240   35.0210   45.3280 C   0  0  0  0  0  0  0  0  0  0  0  0
   58.5070   34.0400   44.6370 C   0  0  0  0  0  0  0  0  0  0  0  0
   58.3840   32.7480   45.1730 C   0  0  0  0  0  0  0  0  0  0  0  0
   57.6660   31.7550   44.4890 C   0  0  0  0  0  0  0  0  0  0  0  0
   55.0984   30.6489   43.6726 H   0  0  0  0  0  0  0  0  0  0  0  0
   56.5222   30.7024   42.5787 H   0  0  0  0  0  0  0  0  0  0  0  0
   55.4431   29.2664   42.5787 H   0  0  0  0  0  0  0  0  0  0  0  0
   57.4482   28.6969   43.8141 H   0  0  0  0  0  0  0  0  0  0  0  0
   53.5043   24.3931   46.1844 H   0  0  0  0  0  0  0  0  0  0  0  0
   53.8519   22.0373   45.4497 H   0  0  0  0  0  0  0  0  0  0  0  0
   57.8657   23.0344   44.1608 H   0  0  0  0  0  0  0  0  0  0  0  0
   57.5126   25.3878   44.8917 H   0  0  0  0  0  0  0  0  0  0  0  0
   58.0491   29.1689   46.6996 H   0  0  0  0  0  0  0  0  0  0  0  0
   59.3320   30.9199   47.9211 H   0  0  0  0  0  0  0  0  0  0  0  0
   60.1803   33.2096   48.0664 H   0  0  0  0  0  0  0  0  0  0  0  0
   60.3863   35.4994   47.0935 H   0  0  0  0  0  0  0  0  0  0  0  0
   59.3172   36.0318   44.9042 H   0  0  0  0  0  0  0  0  0  0  0  0
   58.0382   34.2806   43.6714 H   0  0  0  0  0  0  0  0  0  0  0  0
   57.1889   31.9914   43.5265 H   0  0  0  0  0  0  0  0  0  0  0  0
  1  2  1  0
  2  3  1  0
  3  4  1  0
  4  5  2  0
  4  6  1  0
  6  7  1  0
  7  8  2  0
  8  9  1  0
  9 10  2  0
 10 11  1  0
 11 12  2  0
 11 13  1  0
 10 14  1  0
 14 15  2  0
  2 16  1  0
 16 17  2  0
 17 18  1  0
 18 19  2  0
 19 20  1  0
 20 21  2  0
 21 22  1  0
 22 23  2  0
 23 24  1  0
 24 25  2  0
 15  7  1  0
 25 16  1  0
 24 19  1  0
  1 26  1  0
  1 27  1  0
  1 28  1  0
  2 29  1  6
  8 30  1  0
  9 31  1  0
 14 32  1  0
 15 33  1  0
 17 34  1  0
 18 35  1  0
 20 36  1  0
 21 37  1  0
 22 38  1  0
 23 39  1  0
 25 40  1  0
M  CHG  4   3  -1   6  -1  11   1  13  -1
M  END
>  <UniqueID>  (8) 
8

>  <SMILES>  (8) 
C[C@H]([N-]C(=O)[N-]c1ccc([N+](=O)[O-])cc1)c1ccc2ccccc2c1

>  <Energy>  (8) 
46.900768504892255

>  <Genealogy>  (8) 
CC([N-]C(=O)[N-]c1ccc([N+](=O)[O-])cc1)c1ccc2ccccc2c1 (protonated)
C[C@H]([N-]C(=O)[N-]c1ccc([N+](=O)[O-])cc1)c1ccc2ccccc2c1 (chirality)
C[C@H]([N-]C(=O)[N-]c1ccc([N+](=O)[O-])cc1)c1ccc2ccccc2c1 (3D coordinates assigned)
C[C@H]([N-]C(=O)[N-]c1ccc([N+](=O)[O-])cc1)c1ccc2ccccc2c1 (optimized conformer: 46.900768504892255 kcal/mol)

>  <smiles>  (8) 
CC(NC(=O)Nc1ccc([N+](=O)[O-])cc1)c1ccc2ccccc2c1

>  <score_type>  (8) 
oracle

>  <origin>  (8) 
adg

>  <m_score__min__energy>  (8) 
-12.390000000000001

>  <m_primary>  (8) 
energy

$$$$
8:0
     RDKit          3D

 54 57  0  0  0  0  0  0  0  0999 V2000
   58.1020   32.3700   42.4350 C   0  0  0  0  0  0  0  0  0  0  0  0
   57.9980   33.4580   43.3480 O   0  0  0  0  0  0  0  0  0  0  0  0
   58.2920   33.3750   44.7210 C   0  0  0  0  0  0  0  0  0  0  0  0
   59.2410   34.2150   45.3310 C   0  0  0  0  0  0  0  0  0  0  0  0
   59.4820   34.1320   46.7050 C   0  0  0  0  0  0  0  0  0  0  0  0
   58.7880   33.2040   47.5010 C   0  0  0  0  0  0  0  0  0  0  0  0
   58.9190   33.2010   48.9430 N   0  0  0  0  0  0  0  0  0  0  0  0
   58.2020   32.2400   49.7810 C   0  0  0  0  0  0  0  0  0  0  0  0
   59.2030   31.2050   50.3000 C   0  0  0  0  0  0  0  0  0  0  0  0
   60.4770   31.8130   50.7700 N   0  0  0  0  0  0  0  0  0  0  0  0
   61.7140   31.1670   50.2670 C   0  0  0  0  0  0  0  0  0  0  0  0
   62.4020   31.9430   49.1640 C   0  0  0  0  0  0  0  0  0  0  0  0
   61.8980   31.9250   47.8530 C   0  0  0  0  0  0  0  0  0  0  0  0
   62.5070   32.6900   46.8530 C   0  0  0  0  0  0  0  0  0  0  0  0
   63.6270   33.4670   47.1510 C   0  0  0  0  0  0  0  0  0  0  0  0
   64.1570   33.4710   48.4470 C   0  0  0  0  0  0  0  0  0  0  0  0
   63.5550   32.7030   49.4460 C   0  0  0  0  0  0  0  0  0  0  0  0
   60.5110   33.2920   50.8620 C   0  0  0  0  0  0  0  0  0  0  0  0
   59.9960   33.9800   49.5800 C   0  0  0  0  0  0  0  0  0  0  0  0
   57.8770   32.3350   46.8780 C   0  0  0  0  0  0  0  0  0  0  0  0
   57.6190   32.4190   45.5000 C   0  0  0  0  0  0  0  0  0  0  0  0
   56.6280   31.5870   44.8760 N   0  0  0  0  0  0  0  0  0  0  0  0
   56.8030   29.8900   44.5520 S   0  0  0  0  0  0  0  0  0  0  0  0
   56.7980   29.6660   43.0630 O   0  0  0  0  0  0  0  0  0  0  0  0
   55.6260   29.1640   45.1470 O   0  0  0  0  0  0  0  0  0  0  0  0
   58.2800   29.2340   45.2470 C   0  0  0  0  0  0  0  0  0  0  0  0
   59.3990   28.8120   44.5420 C   0  0  0  0  0  0  0  0  0  0  0  0
   60.3850   28.2570   45.3730 C   0  0  0  0  0  0  0  0  0  0  0  0
   60.0270   28.2250   46.7230 C   0  0  0  0  0  0  0  0  0  0  0  0
   58.4870   28.8920   46.8900 S   0  0  0  0  0  0  0  0  0  0  0  0
   58.1920   31.4280   42.9959 H   0  0  0  0  0  0  0  0  0  0  0  0
   57.2031   32.3353   41.8020 H   0  0  0  0  0  0  0  0  0  0  0  0
   58.9912   32.5063   41.8020 H   0  0  0  0  0  0  0  0  0  0  0  0
   59.7976   34.9426   44.7221 H   0  0  0  0  0  0  0  0  0  0  0  0
   60.2227   34.8000   47.1688 H   0  0  0  0  0  0  0  0  0  0  0  0
   57.7358   32.7628   50.6291 H   0  0  0  0  0  0  0  0  0  0  0  0
   57.4157   31.7422   49.1946 H   0  0  0  0  0  0  0  0  0  0  0  0
   58.7430   30.6625   51.1391 H   0  0  0  0  0  0  0  0  0  0  0  0
   59.4475   30.5350   49.4625 H   0  0  0  0  0  0  0  0  0  0  0  0
   62.4164   31.0610   51.1069 H   0  0  0  0  0  0  0  0  0  0  0  0
   61.4189   30.1968   49.8409 H   0  0  0  0  0  0  0  0  0  0  0  0
   61.0208   31.3067   47.6119 H   0  0  0  0  0  0  0  0  0  0  0  0
   62.1025   32.6791   45.8301 H   0  0  0  0  0  0  0  0  0  0  0  0
   64.0950   34.0783   46.3653 H   0  0  0  0  0  0  0  0  0  0  0  0
   65.0452   34.0775   48.6777 H   0  0  0  0  0  0  0  0  0  0  0  0
   63.9833   32.6911   50.4591 H   0  0  0  0  0  0  0  0  0  0  0  0
   59.8816   33.6067   51.7075 H   0  0  0  0  0  0  0  0  0  0  0  0
   61.5599   33.5924   51.0021 H   0  0  0  0  0  0  0  0  0  0  0  0
   59.6102   34.9768   49.8399 H   0  0  0  0  0  0  0  0  0  0  0  0
   60.8326   34.0562   48.8699 H   0  0  0  0  0  0  0  0  0  0  0  0
   57.3566   31.5755   47.4799 H   0  0  0  0  0  0  0  0  0  0  0  0
   59.5019   28.9027   43.4506 H   0  0  0  0  0  0  0  0  0  0  0  0
   61.3485   27.8827   44.9967 H   0  0  0  0  0  0  0  0  0  0  0  0
   60.6469   27.8302   47.5415 H   0  0  0  0  0  0  0  0  0  0  0  0
  1  2  1  0
  2  3  1  0
  3  4  2  0
  4  5  1  0
  5  6  2  0
  6  7  1  0
  7  8  1  0
  8  9  1  0
  9 10  1  0
 10 11  1  0
 11 12  1  0
 12 13  2  0
 13 14  1  0
 14 15  2  0
 15 16  1  0
 16 17  2  0
 10 18  1  0
 18 19  1  0
  6 20  1  0
 20 21  2  0
 21 22  1  0
 22 23  1  0
 23 24  2  0
 23 25  2  0
 23 26  1  0
 26 27  2  0
 27 28  1  0
 28 29  2  0
 29 30  1  0
 21  3  1  0
 30 26  1  0
 19  7  1  0
 17 12  1  0
  1 31  1  0
  1 32  1  0
  1 33  1  0
  4 34  1  0
  5 35  1  0
  8 36  1  0
  8 37  1  0
  9 38  1  0
  9 39  1  0
 11 40  1  0
 11 41  1  0
 13 42  1  0
 14 43  1  0
 15 44  1  0
 16 45  1  0
 17 46  1  0
 18 47  1  0
 18 48  1  0
 19 49  1  0
 19 50  1  0
 20 51  1  0
 27 52  1  0
 28 53  1  0
 29 54  1  0
M  CHG  1  22  -1
M  END
>  <UniqueID>  (9) 
9

>  <SMILES>  (9) 
COc1ccc(N2CCN(Cc3ccccc3)CC2)cc1[N-]S(=O)(=O)c1cccs1

>  <Energy>  (9) 
101.40534139450428

>  <Genealogy>  (9) 
COc1ccc(N2CCN(Cc3ccccc3)CC2)cc1[N-]S(=O)(=O)c1cccs1 (protonated)
COc1ccc(N2CCN(Cc3ccccc3)CC2)cc1[N-]S(=O)(=O)c1cccs1 (3D coordinates assigned)
COc1ccc(N2CCN(Cc3ccccc3)CC2)cc1[N-]S(=O)(=O)c1cccs1 (nonaromatic ring conformer: 101.40534139450428 kcal/mol)

>  <smiles>  (9) 
COc1ccc(N2CCN(Cc3ccccc3)CC2)cc1NS(=O)(=O)c1cccs1

>  <score_type>  (9) 
oracle

>  <origin>  (9) 
adg

>  <m_score__min__energy>  (9) 
-10.300000000000001

>  <m_primary>  (9) 
energy

$$$$
9:0
     RDKit          3D

 30 32  0  0  0  0  0  0  0  0999 V2000
   56.2580   30.8790   44.4360 O   0  0  0  0  0  0  0  0  0  0  0  0
   56.6210   29.7630   44.8850 C   0  0  0  0  0  0  0  0  0  0  0  0
   55.7530   28.7610   45.1540 N   0  0  0  0  0  0  0  0  0  0  0  0
   56.4120   27.6720   45.6260 C   0  0  0  0  0  0  0  0  0  0  0  0
   55.7880   26.4810   46.0020 C   0  0  0  0  0  0  0  0  0  0  0  0
   54.4080   26.3380   45.9010 O   0  0  0  0  0  0  0  0  0  0  0  0
   56.5750   25.4270   46.4900 C   0  0  0  0  0  0  0  0  0  0  0  0
   57.9710   25.5680   46.5950 C   0  0  0  0  0  0  0  0  0  0  0  0
   58.6080   26.7630   46.1980 C   0  0  0  0  0  0  0  0  0  0  0  0
   60.1040   26.9090   46.3280 C   0  0  0  0  0  0  0  0  0  0  0  0
   60.4520   27.6610   47.5340 N   0  0  0  0  0  0  0  0  0  0  0  0
   60.3150   29.0890   47.6730 C   0  0  0  0  0  0  0  0  0  0  0  0
   61.0510   29.9890   46.8770 C   0  0  0  0  0  0  0  0  0  0  0  0
   60.8960   31.3670   47.0430 C   0  0  0  0  0  0  0  0  0  0  0  0
   60.0060   31.8660   47.9970 C   0  0  0  0  0  0  0  0  0  0  0  0
   59.2650   30.9860   48.7900 C   0  0  0  0  0  0  0  0  0  0  0  0
   58.3790   31.4950   49.7370 O   0  0  0  0  0  0  0  0  0  0  0  0
   59.4190   29.6010   48.6260 C   0  0  0  0  0  0  0  0  0  0  0  0
   57.7920   27.8060   45.7290 C   0  0  0  0  0  0  0  0  0  0  0  0
   58.2240   29.3520   45.2160 S   0  0  0  0  0  0  0  0  0  0  0  0
   56.0972   24.4836   46.7927 H   0  0  0  0  0  0  0  0  0  0  0  0
   58.5729   24.7369   46.9912 H   0  0  0  0  0  0  0  0  0  0  0  0
   60.5601   25.9095   46.3826 H   0  0  0  0  0  0  0  0  0  0  0  0
   60.4814   27.4560   45.4514 H   0  0  0  0  0  0  0  0  0  0  0  0
   60.8580   27.1200   48.3320 H   0  0  0  0  0  0  0  0  0  0  0  0
   61.7513   29.6043   46.1209 H   0  0  0  0  0  0  0  0  0  0  0  0
   61.4773   32.0624   46.4198 H   0  0  0  0  0  0  0  0  0  0  0  0
   59.8884   32.9523   48.1240 H   0  0  0  0  0  0  0  0  0  0  0  0
   58.6280   32.2800   50.3270 H   0  0  0  0  0  0  0  0  0  0  0  0
   58.8327   28.9099   49.2494 H   0  0  0  0  0  0  0  0  0  0  0  0
  1  2  2  0
  2  3  1  0
  3  4  1  0
  4  5  2  0
  5  6  1  0
  5  7  1  0
  7  8  2  0
  8  9  1  0
  9 10  1  0
 10 11  1  0
 11 12  1  0
 12 13  2  0
 13 14  1  0
 14 15  2  0
 15 16  1  0
 16 17  1  0
 16 18  2  0
  9 19  2  0
 19 20  1  0
 20  2  1  0
 19  4  1  0
 18 12  1  0
  7 21  1  0
  8 22  1  0
 10 23  1  0
 10 24  1  0
 11 25  1  0
 13 26  1  0
 14 27  1  0
 15 28  1  0
 17 29  1  0
 18 30  1  0
M  CHG  2   3  -1   6  -1
M  END
>  <UniqueID>  (10) 
10

>  <SMILES>  (10) 
O=c1[n-]c2c([O-])ccc(CNc3cccc(O)c3)c2s1

>  <Energy>  (10) 
67.26738150559298

>  <Genealogy>  (10) 
O=c1[n-]c2c([O-])ccc(CNc3cccc(O)c3)c2s1 (protonated)
O=c1[n-]c2c([O-])ccc(CNc3cccc(O)c3)c2s1 (3D coordinates assigned)
O=c1[n-]c2c([O-])ccc(CNc3cccc(O)c3)c2s1 (optimized conformer: 67.26738150559298 kcal/mol)

>  <smiles>  (10) 
O=c1[nH]c2c(O)ccc(CNc3cccc(O)c3)c2s1

>  <score_type>  (10) 
oracle

>  <origin>  (10) 
adg

>  <m_score__min__energy>  (10) 
-13.18

>  <m_primary>  (10) 
energy

$$$$
10:0
     RDKit          3D

 21 22  0  0  0  0  0  0  0  0999 V2000
   59.4450   25.8920   46.1420 O   0  0  0  0  0  0  0  0  0  0  0  0
   58.2020   26.0840   46.0940 C   0  0  0  0  0  0  0  0  0  0  0  0
   57.7190   27.2820   45.6810 N   0  0  0  0  0  0  0  0  0  0  0  0
   56.3780   27.5000   45.6190 C   0  0  0  0  0  0  0  0  0  0  0  0
   55.8950   28.6500   45.2480 N   0  0  0  0  0  0  0  0  0  0  0  0
   56.5760   29.6750   44.5050 C   0  0  0  0  0  0  0  0  0  0  0  0
   56.3010   29.9190   43.1440 C   0  0  0  0  0  0  0  0  0  0  0  0
   56.9620   30.9510   42.4680 C   0  0  0  0  0  0  0  0  0  0  0  0
   57.8810   31.7570   43.1440 C   0  0  0  0  0  0  0  0  0  0  0  0
   58.5170   32.7580   42.4870 F   0  0  0  0  0  0  0  0  0  0  0  0
   58.1340   31.5400   44.5010 C   0  0  0  0  0  0  0  0  0  0  0  0
   57.4760   30.5100   45.1810 C   0  0  0  0  0  0  0  0  0  0  0  0
   55.5250   26.5130   45.9920 N   0  0  0  0  0  0  0  0  0  0  0  0
   56.0020   25.3120   46.4060 C   0  0  0  0  0  0  0  0  0  0  0  0
   55.1990   24.4040   46.7450 O   0  0  0  0  0  0  0  0  0  0  0  0
   57.3430   25.0950   46.4560 N   0  0  0  0  0  0  0  0  0  0  0  0
   55.5656   29.2972   42.6124 H   0  0  0  0  0  0  0  0  0  0  0  0
   56.7573   31.1278   41.4018 H   0  0  0  0  0  0  0  0  0  0  0  0
   58.8516   32.1801   45.0352 H   0  0  0  0  0  0  0  0  0  0  0  0
   57.6661   30.3543   46.2532 H   0  0  0  0  0  0  0  0  0  0  0  0
   57.7120   24.1700   46.7750 H   0  0  0  0  0  0  0  0  0  0  0  0
  1  2  2  0
  2  3  1  0
  3  4  1  0
  4  5  2  3
  5  6  1  0
  6  7  2  0
  7  8  1  0
  8  9  2  0
  9 10  1  0
  9 11  1  0
 11 12  2  0
  4 13  1  0
 13 14  1  0
 14 15  2  0
 14 16  1  0
 16  2  1  0
 12  6  1  0
  7 17  1  0
  8 18  1  0
 11 19  1  0
 12 20  1  0
 16 21  1  0
M  CHG  2   3  -1  13  -1
M  END
>  <UniqueID>  (11) 
11

>  <SMILES>  (11) 
O=c1[n-]c(=Nc2ccc(F)cc2)[n-]c(=O)[nH]1

>  <Energy>  (11) 
28.99367060226504

>  <Genealogy>  (11) 
O=c1[n-]c(=Nc2ccc(F)cc2)[n-]c(=O)[nH]1 (protonated)
O=c1[n-]c(=Nc2ccc(F)cc2)[n-]c(=O)[nH]1 (3D coordinates assigned)
O=c1[n-]c(=Nc2ccc(F)cc2)[n-]c(=O)[nH]1 (optimized conformer: 28.99367060226504 kcal/mol)

>  <smiles>  (11) 
O=c1[nH]c(=O)[nH]c(=Nc2ccc(F)cc2)[nH]1

>  <score_type>  (11) 
oracle

>  <origin>  (11) 
adg

>  <m_score__min__energy>  (11) 
-9.1500000000000004

>  <m_primary>  (11) 
energy

$$$$
11:0
     RDKit          3D

 79 83  0  0  0  0  0  0  0  0999 V2000
   63.0660   34.4850   50.3190 C   0  0  0  0  0  0  0  0  0  0  0  0
   64.4240   33.8070   50.4760 C   0  0  0  0  0  0  0  0  0  0  0  0
   64.6580   32.7700   49.3720 C   0  0  0  0  0  0  0  0  0  0  0  0
   63.4450   31.9540   49.1740 N   0  0  0  0  0  0  0  0  0  0  0  0
   62.8210   31.9410   47.9460 C   0  0  0  0  0  0  0  0  0  0  0  0
   63.2720   32.6000   46.9690 O   0  0  0  0  0  0  0  0  0  0  0  0
   61.6710   31.1870   47.8010 C   0  0  0  0  0  0  0  0  0  0  0  0
   60.9030   31.0220   46.7140 N   0  0  0  0  0  0  0  0  0  0  0  0
   59.9230   30.1920   47.1670 C   0  0  0  0  0  0  0  0  0  0  0  0
   58.8050   29.7000   46.3180 C   0  0  0  0  0  0  0  0  0  0  0  0
   58.2560   28.4320   46.5810 C   0  0  0  0  0  0  0  0  0  0  0  0
   57.2170   27.9180   45.7970 C   0  0  0  0  0  0  0  0  0  0  0  0
   56.5840   26.3000   46.1100 S   0  0  0  0  0  0  0  0  0  0  0  0
   55.0810   26.3410   46.0800 O   0  0  0  0  0  0  0  0  0  0  0  0
   57.0100   25.8590   47.4820 O   0  0  0  0  0  0  0  0  0  0  0  0
   57.1590   25.1460   44.9260 N   0  0  0  0  0  0  0  0  0  0  0  0
   58.2540   24.3300   45.4870 C   0  0  0  0  0  0  0  0  0  0  0  0
   58.4180   23.0240   44.7040 C   0  0  0  0  0  0  0  0  0  0  0  0
   57.2150   22.1690   44.8330 N   0  0  0  0  0  0  0  0  0  0  0  0
   57.1560   21.1710   43.7450 C   0  0  0  0  0  0  0  0  0  0  0  0
   56.5730   21.7940   42.4790 C   0  0  0  0  0  0  0  0  0  0  0  0
   55.9510   22.9400   44.9650 C   0  0  0  0  0  0  0  0  0  0  0  0
   56.0490   24.3500   44.3520 C   0  0  0  0  0  0  0  0  0  0  0  0
   56.7010   28.6860   44.7510 C   0  0  0  0  0  0  0  0  0  0  0  0
   57.2280   29.9470   44.4770 C   0  0  0  0  0  0  0  0  0  0  0  0
   58.2830   30.4700   45.2490 C   0  0  0  0  0  0  0  0  0  0  0  0
   58.8350   31.7350   44.9760 O   0  0  0  0  0  0  0  0  0  0  0  0
   58.3220   32.9850   45.4380 C   0  0  0  0  0  0  0  0  0  0  0  0
   58.8930   33.3310   46.7870 C   0  0  0  0  0  0  0  0  0  0  0  0
   59.9420   34.2590   46.8920 C   0  0  0  0  0  0  0  0  0  0  0  0
   60.4690   34.5870   48.1440 C   0  0  0  0  0  0  0  0  0  0  0  0
   59.9490   33.9990   49.3000 C   0  0  0  0  0  0  0  0  0  0  0  0
   58.8980   33.0830   49.2060 C   0  0  0  0  0  0  0  0  0  0  0  0
   58.3910   32.5160   50.3290 F   0  0  0  0  0  0  0  0  0  0  0  0
   58.3660   32.7520   47.9550 C   0  0  0  0  0  0  0  0  0  0  0  0
   60.0540   29.8480   48.4780 N   0  0  0  0  0  0  0  0  0  0  0  0
   61.1710   30.4960   48.8410 C   0  0  0  0  0  0  0  0  0  0  0  0
   61.7520   30.5000   50.0720 N   0  0  0  0  0  0  0  0  0  0  0  0
   61.1390   29.7550   51.1860 C   0  0  0  0  0  0  0  0  0  0  0  0
   61.6130   28.2950   51.2150 C   0  0  0  0  0  0  0  0  0  0  0  0
   60.7680   27.3900   50.3210 C   0  0  0  0  0  0  0  0  0  0  0  0
   62.9010   31.2470   50.2360 C   0  0  0  0  0  0  0  0  0  0  0  0
   63.4580   31.2940   51.3690 O   0  0  0  0  0  0  0  0  0  0  0  0
   62.6442   34.6956   51.3129 H   0  0  0  0  0  0  0  0  0  0  0  0
   63.1886   35.4276   49.7655 H   0  0  0  0  0  0  0  0  0  0  0  0
   62.3862   33.8205   49.7655 H   0  0  0  0  0  0  0  0  0  0  0  0
   65.2141   34.5705   50.4241 H   0  0  0  0  0  0  0  0  0  0  0  0
   64.4452   33.2915   51.4475 H   0  0  0  0  0  0  0  0  0  0  0  0
   64.9047   33.2879   48.4334 H   0  0  0  0  0  0  0  0  0  0  0  0
   65.4887   32.1123   49.6676 H   0  0  0  0  0  0  0  0  0  0  0  0
   58.6498   27.8347   47.4165 H   0  0  0  0  0  0  0  0  0  0  0  0
   59.1924   24.9016   45.4348 H   0  0  0  0  0  0  0  0  0  0  0  0
   58.0109   24.0856   46.5316 H   0  0  0  0  0  0  0  0  0  0  0  0
   58.5786   23.2600   43.6417 H   0  0  0  0  0  0  0  0  0  0  0  0
   59.2802   22.4774   45.1137 H   0  0  0  0  0  0  0  0  0  0  0  0
   58.1717   20.8052   43.5338 H   0  0  0  0  0  0  0  0  0  0  0  0
   56.5110   20.3379   44.0610 H   0  0  0  0  0  0  0  0  0  0  0  0
   55.8454   22.5716   42.7546 H   0  0  0  0  0  0  0  0  0  0  0  0
   57.3826   22.2433   41.8851 H   0  0  0  0  0  0  0  0  0  0  0  0
   56.0710   21.0160   41.8851 H   0  0  0  0  0  0  0  0  0  0  0  0
   55.1475   22.3891   44.4542 H   0  0  0  0  0  0  0  0  0  0  0  0
   55.7438   23.0578   46.0389 H   0  0  0  0  0  0  0  0  0  0  0  0
   56.2095   24.2524   43.2682 H   0  0  0  0  0  0  0  0  0  0  0  0
   55.1102   24.8770   44.5778 H   0  0  0  0  0  0  0  0  0  0  0  0
   55.8745   28.2938   44.1402 H   0  0  0  0  0  0  0  0  0  0  0  0
   56.8149   30.5404   43.6480 H   0  0  0  0  0  0  0  0  0  0  0  0
   58.5913   33.7731   44.7194 H   0  0  0  0  0  0  0  0  0  0  0  0
   57.2285   32.9061   45.5276 H   0  0  0  0  0  0  0  0  0  0  0  0
   60.3503   34.7294   45.9853 H   0  0  0  0  0  0  0  0  0  0  0  0
   61.2949   35.3096   48.2196 H   0  0  0  0  0  0  0  0  0  0  0  0
   60.3671   34.2572   50.2841 H   0  0  0  0  0  0  0  0  0  0  0  0
   57.5332   32.0368   47.8850 H   0  0  0  0  0  0  0  0  0  0  0  0
   61.4148   30.2392   52.1344 H   0  0  0  0  0  0  0  0  0  0  0  0
   60.0480   29.7609   51.0460 H   0  0  0  0  0  0  0  0  0  0  0  0
   62.6571   28.2558   50.8710 H   0  0  0  0  0  0  0  0  0  0  0  0
   61.5148   27.9313   52.2485 H   0  0  0  0  0  0  0  0  0  0  0  0
   60.1508   26.7290   50.9472 H   0  0  0  0  0  0  0  0  0  0  0  0
   60.1158   28.0075   49.6859 H   0  0  0  0  0  0  0  0  0  0  0  0
   61.4288   26.7816   49.6859 H   0  0  0  0  0  0  0  0  0  0  0  0
  1  2  1  0
  2  3  1  0
  3  4  1  0
  4  5  1  0
  5  6  2  0
  5  7  1  0
  7  8  1  0
  8  9  1  0
  9 10  1  0
 10 11  2  0
 11 12  1  0
 12 13  1  0
 13 14  2  0
 13 15  2  0
 13 16  1  0
 16 17  1  0
 17 18  1  0
 18 19  1  0
 19 20  1  0
 20 21  1  0
 19 22  1  0
 22 23  1  0
 12 24  2  0
 24 25  1  0
 25 26  2  0
 26 27  1  0
 27 28  1  0
 28 29  1  0
 29 30  2  0
 30 31  1  0
 31 32  2  0
 32 33  1  0
 33 34  1  0
 33 35  2  0
  9 36  2  0
 36 37  1  0
 37 38  1  0
 38 39  1  0
 39 40  1  0
 40 41  1  0
 38 42  1  0
 42 43  2  0
 42  4  1  0
 37  7  2  0
 26 10  1  0
 35 29  1  0
 23 16  1  0
  1 44  1  0
  1 45  1  0
  1 46  1  0
  2 47  1  0
  2 48  1  0
  3 49  1  0
  3 50  1  0
 11 51  1  0
 17 52  1  0
 17 53  1  0
 18 54  1  0
 18 55  1  0
 20 56  1  0
 20 57  1  0
 21 58  1  0
 21 59  1  0
 21 60  1  0
 22 61  1  0
 22 62  1  0
 23 63  1  0
 23 64  1  0
 24 65  1  0
 25 66  1  0
 28 67  1  0
 28 68  1  0
 30 69  1  0
 31 70  1  0
 32 71  1  0
 35 72  1  0
 39 73  1  0
 39 74  1  0
 40 75  1  0
 40 76  1  0
 41 77  1  0
 41 78  1  0
 41 79  1  0
M  CHG  1   8  -1
M  END
>  <UniqueID>  (12) 
12

>  <SMILES>  (12) 
CCCn1c(=O)c2[n-]c(-c3cc(S(=O)(=O)N4CCN(CC)CC4)ccc3OCc3cccc(F)c3)nc2n(CCC)c1=O

>  <Energy>  (12) 
125.98405846508452

>  <Genealogy>  (12) 
CCCn1c(=O)c2[n-]c(-c3cc(S(=O)(=O)N4CCN(CC)CC4)ccc3OCc3cccc(F)c3)nc2n(CCC)c1=O (protonated)
CCCn1c(=O)c2[n-]c(-c3cc(S(=O)(=O)N4CCN(CC)CC4)ccc3OCc3cccc(F)c3)nc2n(CCC)c1=O (3D coordinates assigned)
CCCn1c(=O)c2[n-]c(-c3cc(S(=O)(=O)N4CCN(CC)CC4)ccc3OCc3cccc(F)c3)nc2n(CCC)c1=O (nonaromatic ring conformer: 125.98405846508452 kcal/mol)

>  <smiles>  (12) 
CCCn1c(=O)c2[nH]c(-c3cc(S(=O)(=O)N4CCN(CC)CC4)ccc3OCc3cccc(F)c3)nc2n(CCC)c1=O

>  <score_type>  (12) 
oracle

>  <origin>  (12) 
adg

>  <m_score__min__energy>  (12) 
-10.49

>  <m_primary>  (12) 
energy

$$$$
12:0
     RDKit          3D

 44 46  0  0  0  0  0  0  0  0999 V2000
   54.4743   23.8772   45.4640 H   0  0  0  0  0  0  0  0  0  0  0  0
   55.3730   24.4740   45.2490 C   0  0  0  0  0  0  0  0  0  0  0  0
   55.5820   25.6470   45.9030 N   0  0  0  0  0  0  0  0  0  0  0  0
   56.6730   26.4290   45.6720 C   0  0  0  0  0  0  0  0  0  0  0  0
   56.7970   27.5330   46.3570 N   0  0  0  0  0  0  0  0  0  0  0  0
   57.6760   28.6430   46.1120 C   0  0  0  0  0  0  0  0  0  0  0  0
   58.5020   28.9550   47.0080 O   0  0  0  0  0  0  0  0  0  0  0  0
   57.5330   29.5190   44.9210 C   0  0  0  0  0  0  0  0  0  0  0  0
   56.8170   29.0360   43.8100 C   0  0  0  0  0  0  0  0  0  0  0  0
   56.4478   27.9998   43.8094 H   0  0  0  0  0  0  0  0  0  0  0  0
   56.5700   29.8580   42.7080 C   0  0  0  0  0  0  0  0  0  0  0  0
   56.0225   29.4631   41.8395 H   0  0  0  0  0  0  0  0  0  0  0  0
   57.0170   31.1790   42.7080 C   0  0  0  0  0  0  0  0  0  0  0  0
   56.8093   31.8297   41.8457 H   0  0  0  0  0  0  0  0  0  0  0  0
   57.7280   31.6760   43.8020 C   0  0  0  0  0  0  0  0  0  0  0  0
   58.0655   32.7229   43.8018 H   0  0  0  0  0  0  0  0  0  0  0  0
   58.0160   30.8550   44.9000 C   0  0  0  0  0  0  0  0  0  0  0  0
   58.7820   31.4290   45.9690 N   0  0  0  0  0  0  0  0  0  0  0  0
   58.3180   32.4340   46.8800 C   0  0  0  0  0  0  0  0  0  0  0  0
   58.2250   32.1930   48.1130 O   0  0  0  0  0  0  0  0  0  0  0  0
   58.0030   33.8060   46.3660 C   0  0  0  0  0  0  0  0  0  0  0  0
   57.3849   33.7095   45.4612 H   0  0  0  0  0  0  0  0  0  0  0  0
   57.4736   34.3466   47.1645 H   0  0  0  0  0  0  0  0  0  0  0  0
   59.2620   34.6110   46.0170 C   0  0  0  0  0  0  0  0  0  0  0  0
   59.5406   34.3932   44.9754 H   0  0  0  0  0  0  0  0  0  0  0  0
   59.0249   35.6752   46.1627 H   0  0  0  0  0  0  0  0  0  0  0  0
   60.4350   34.2810   46.9090 C   0  0  0  0  0  0  0  0  0  0  0  0
   60.3480   34.4720   48.3010 C   0  0  0  0  0  0  0  0  0  0  0  0
   59.4155   34.8530   48.7429 H   0  0  0  0  0  0  0  0  0  0  0  0
   61.4380   34.1810   49.1250 C   0  0  0  0  0  0  0  0  0  0  0  0
   61.3684   34.3516   50.2095 H   0  0  0  0  0  0  0  0  0  0  0  0
   62.6150   33.6740   48.5730 C   0  0  0  0  0  0  0  0  0  0  0  0
   63.4774   33.4581   49.2208 H   0  0  0  0  0  0  0  0  0  0  0  0
   62.6990   33.4400   47.1960 C   0  0  0  0  0  0  0  0  0  0  0  0
   63.6199   33.0203   46.7650 H   0  0  0  0  0  0  0  0  0  0  0  0
   61.6140   33.7390   46.3680 C   0  0  0  0  0  0  0  0  0  0  0  0
   61.6827   33.5492   45.2867 H   0  0  0  0  0  0  0  0  0  0  0  0
   57.6380   25.9930   44.7410 C   0  0  0  0  0  0  0  0  0  0  0  0
   58.5397   26.5949   44.5549 H   0  0  0  0  0  0  0  0  0  0  0  0
   57.4410   24.7920   44.0570 C   0  0  0  0  0  0  0  0  0  0  0  0
   58.1852   24.4487   43.3233 H   0  0  0  0  0  0  0  0  0  0  0  0
   56.2990   24.0260   44.3040 C   0  0  0  0  0  0  0  0  0  0  0  0
   56.0750   22.7940   43.5960 C   0  0  0  0  0  0  0  0  0  0  0  0
   55.9040   21.8020   43.0280 N   0  0  0  0  0  0  0  0  0  0  0  0
  1  2  1  0
  2  3  1  0
  3  4  1  0
  4  5  2  0
  5  6  1  0
  6  7  2  0
  6  8  1  0
  8  9  2  0
  9 10  1  0
  9 11  1  0
 11 12  1  0
 11 13  2  0
 13 14  1  0
 13 15  1  0
 15 16  1  0
 15 17  2  0
 17 18  1  0
 18 19  1  0
 19 20  2  0
 19 21  1  0
 21 22  1  0
 21 23  1  0
 21 24  1  0
 24 25  1  0
 24 26  1  0
 24 27  1  0
 27 28  2  0
 28 29  1  0
 28 30  1  0
 30 31  1  0
 30 32  2  0
 32 33  1  0
 32 34  1  0
 34 35  1  0
 34 36  2  0
 36 37  1  0
  4 38  1  0
 38 39  1  0
 38 40  2  0
 40 41  1  0
 40 42  1  0
 42 43  1  0
 43 44  3  0
 42  2  2  0
 17  8  1  0
 36 27  1  0
M  CHG  2   3  -1  18  -1
M  END
>  <UniqueID>  (13) 
13

>  <SMILES>  (13) 
N#Cc1cc/c(=N\C(=O)c2ccccc2[N-]C(=O)CCc2ccccc2)[n-]c1

>  <Energy>  (13) 
62.22605094100948

>  <Genealogy>  (13) 
N#Cc1ccc(=NC(=O)c2ccccc2[N-]C(=O)CCc2ccccc2)[n-]c1 (protonated)
N#Cc1cc/c(=N\C(=O)c2ccccc2[N-]C(=O)CCc2ccccc2)[n-]c1 (cis-trans isomerization)
N#Cc1cc/c(=N\C(=O)c2ccccc2[N-]C(=O)CCc2ccccc2)[n-]c1 (3D coordinates assigned)
N#Cc1cc/c(=N\C(=O)c2ccccc2[N-]C(=O)CCc2ccccc2)[n-]c1 (optimized conformer: 62.22605094100948 kcal/mol)

>  <smiles>  (13) 
N#Cc1ccc(=NC(=O)c2ccccc2NC(=O)CCc2ccccc2)[nH]c1

>  <score_type>  (13) 
oracle

>  <origin>  (13) 
adg

>  <m_score__min__energy>  (13) 
-12

>  <m_primary>  (13) 
energy

$$$$
13:0
     RDKit          3D

 50 54  0  0  0  0  0  0  0  0999 V2000
   58.5950   27.3110   45.5000 C   0  0  0  0  0  0  0  0  0  0  0  0
   58.6330   27.7860   46.8410 O   0  0  0  0  0  0  0  0  0  0  0  0
   59.5170   28.7710   47.3080 C   0  0  0  0  0  0  0  0  0  0  0  0
   60.2340   29.6160   46.4390 C   0  0  0  0  0  0  0  0  0  0  0  0
   61.1040   30.5820   46.9540 C   0  0  0  0  0  0  0  0  0  0  0  0
   61.2790   30.7100   48.3410 C   0  0  0  0  0  0  0  0  0  0  0  0
   62.1680   31.7480   48.8900 C   0  0  0  0  0  0  0  0  0  0  0  0
   63.4190   31.8640   48.3670 N   0  0  0  0  0  0  0  0  0  0  0  0
   64.3370   32.7160   48.8880 C   0  0  0  0  0  0  0  0  0  0  0  0
   64.0040   33.4780   50.0050 C   0  0  0  0  0  0  0  0  0  0  0  0
   62.7570   33.3820   50.5330 N   0  0  0  0  0  0  0  0  0  0  0  0
   61.8110   32.5660   49.9890 C   0  0  0  0  0  0  0  0  0  0  0  0
   60.5170   32.6010   50.5330 O   0  0  0  0  0  0  0  0  0  0  0  0
   59.4050   33.2740   49.9360 C   0  0  0  0  0  0  0  0  0  0  0  0
   59.7430   33.7880   48.5730 C   0  0  0  0  0  0  0  0  0  0  0  0
   58.8400   32.8850   47.8380 N   0  0  0  0  0  0  0  0  0  0  0  0
   58.4820   32.6370   46.4800 C   0  0  0  0  0  0  0  0  0  0  0  0
   58.8310   33.5500   45.4770 C   0  0  0  0  0  0  0  0  0  0  0  0
   58.4690   33.2920   44.1540 C   0  0  0  0  0  0  0  0  0  0  0  0
   57.7600   32.1250   43.8410 C   0  0  0  0  0  0  0  0  0  0  0  0
   57.3800   31.8320   42.5230 C   0  0  0  0  0  0  0  0  0  0  0  0
   56.6770   30.6560   42.2430 C   0  0  0  0  0  0  0  0  0  0  0  0
   56.3490   29.7700   43.2750 C   0  0  0  0  0  0  0  0  0  0  0  0
   56.7240   30.0530   44.5920 C   0  0  0  0  0  0  0  0  0  0  0  0
   57.4280   31.2280   44.8820 C   0  0  0  0  0  0  0  0  0  0  0  0
   57.7950   31.5070   46.1610 N   0  0  0  0  0  0  0  0  0  0  0  0
   58.4960   32.3630   49.1720 C   0  0  0  0  0  0  0  0  0  0  0  0
   60.5500   29.8810   49.2060 C   0  0  0  0  0  0  0  0  0  0  0  0
   59.6830   28.9140   48.6910 C   0  0  0  0  0  0  0  0  0  0  0  0
   58.5073   26.2145   45.5018 H   0  0  0  0  0  0  0  0  0  0  0  0
   57.7289   27.7473   44.9809 H   0  0  0  0  0  0  0  0  0  0  0  0
   59.5195   27.6041   44.9809 H   0  0  0  0  0  0  0  0  0  0  0  0
   60.1091   29.5157   45.3507 H   0  0  0  0  0  0  0  0  0  0  0  0
   61.6537   31.2446   46.2693 H   0  0  0  0  0  0  0  0  0  0  0  0
   65.3345   32.8041   48.4327 H   0  0  0  0  0  0  0  0  0  0  0  0
   64.7461   34.1529   50.4563 H   0  0  0  0  0  0  0  0  0  0  0  0
   62.5100   33.9750   51.3570 H   0  0  0  0  0  0  0  0  0  0  0  0
   59.0715   33.8932   50.7818 H   0  0  0  0  0  0  0  0  0  0  0  0
   59.4819   34.8485   48.4422 H   0  0  0  0  0  0  0  0  0  0  0  0
   60.8042   33.7805   48.2834 H   0  0  0  0  0  0  0  0  0  0  0  0
   59.3870   34.4647   45.7303 H   0  0  0  0  0  0  0  0  0  0  0  0
   58.7396   34.0029   43.3594 H   0  0  0  0  0  0  0  0  0  0  0  0
   57.6350   32.5273   41.7096 H   0  0  0  0  0  0  0  0  0  0  0  0
   56.3811   30.4269   41.2086 H   0  0  0  0  0  0  0  0  0  0  0  0
   55.7941   28.8474   43.0495 H   0  0  0  0  0  0  0  0  0  0  0  0
   56.4660   29.3526   45.4000 H   0  0  0  0  0  0  0  0  0  0  0  0
   57.4358   32.5103   49.4255 H   0  0  0  0  0  0  0  0  0  0  0  0
   58.6172   31.2818   49.3342 H   0  0  0  0  0  0  0  0  0  0  0  0
   60.6613   29.9926   50.2946 H   0  0  0  0  0  0  0  0  0  0  0  0
   59.1261   28.2595   49.3777 H   0  0  0  0  0  0  0  0  0  0  0  0
  1  2  1  0
  2  3  1  0
  3  4  2  0
  4  5  1  0
  5  6  2  0
  6  7  1  0
  7  8  2  0
  8  9  1  0
  9 10  2  0
 10 11  1  0
 11 12  2  0
 12 13  1  0
 13 14  1  0
 14 15  1  0
 15 16  1  0
 16 17  1  0
 17 18  2  0
 18 19  1  0
 19 20  2  0
 20 21  1  0
 21 22  2  0
 22 23  1  0
 23 24  2  0
 24 25  1  0
 25 26  2  0
 16 27  1  0
  6 28  1  0
 28 29  2  0
 29  3  1  0
 12  7  1  0
 27 14  1  0
 26 17  1  0
 25 20  1  0
  1 30  1  0
  1 31  1  0
  1 32  1  0
  4 33  1  0
  5 34  1  0
  9 35  1  0
 10 36  1  0
 11 37  1  0
 14 38  1  0
 15 39  1  0
 15 40  1  0
 18 41  1  0
 19 42  1  0
 21 43  1  0
 22 44  1  0
 23 45  1  0
 24 46  1  0
 27 47  1  0
 27 48  1  0
 28 49  1  0
 29 50  1  0
M  CHG  1  11   1
M  END
>  <UniqueID>  (14) 
14

>  <SMILES>  (14) 
COc1ccc(-c2ncc[nH+]c2OC2CN(c3ccc4ccccc4n3)C2)cc1

>  <Energy>  (14) 
114.46430023468615

>  <Genealogy>  (14) 
COc1ccc(-c2ncc[nH+]c2OC2CN(c3ccc4ccccc4n3)C2)cc1 (protonated)
COc1ccc(-c2ncc[nH+]c2OC2CN(c3ccc4ccccc4n3)C2)cc1 (3D coordinates assigned)
COc1ccc(-c2ncc[nH+]c2OC2CN(c3ccc4ccccc4n3)C2)cc1 (nonaromatic ring conformer: 114.46430023468615 kcal/mol)

>  <smiles>  (14) 
COc1ccc(-c2nccnc2OC2CN(c3ccc4ccccc4n3)C2)cc1

>  <score_type>  (14) 
oracle

>  <origin>  (14) 
adg

>  <m_score__min__energy>  (14) 
-8.3499999999999996

>  <m_primary>  (14) 
energy

$$$$
14:0
     RDKit          3D

 47 50  0  0  0  0  0  0  0  0999 V2000
   55.7480   29.5550   44.9080 O   0  0  0  0  0  0  0  0  0  0  0  0
   56.9440   29.2900   44.6070 C   0  0  0  0  0  0  0  0  0  0  0  0
   57.6120   30.0420   43.5830 N   0  0  0  0  0  0  0  0  0  0  0  0
   57.0330   31.2430   42.9860 C   0  0  0  0  0  0  0  0  0  0  0  0
   58.0680   32.3700   42.9420 C   0  0  0  0  0  0  0  0  0  0  0  0
   58.2050   33.0160   44.2950 C   0  0  0  0  0  0  0  0  0  0  0  0
   59.1860   33.9980   44.5140 C   0  0  0  0  0  0  0  0  0  0  0  0
   59.3330   34.5750   45.7800 C   0  0  0  0  0  0  0  0  0  0  0  0
   58.5110   34.1690   46.8350 C   0  0  0  0  0  0  0  0  0  0  0  0
   57.5420   33.1830   46.6270 C   0  0  0  0  0  0  0  0  0  0  0  0
   57.3920   32.6040   45.3630 C   0  0  0  0  0  0  0  0  0  0  0  0
   57.6260   28.1580   45.2700 C   0  0  0  0  0  0  0  0  0  0  0  0
   57.3940   26.8650   44.7760 C   0  0  0  0  0  0  0  0  0  0  0  0
   58.0620   25.7630   45.3320 C   0  0  0  0  0  0  0  0  0  0  0  0
   57.8520   24.3840   44.8230 C   0  0  0  0  0  0  0  0  0  0  0  0
   58.6950   23.3420   45.2520 C   0  0  0  0  0  0  0  0  0  0  0  0
   58.5160   22.0390   44.7770 C   0  0  0  0  0  0  0  0  0  0  0  0
   57.4980   21.7610   43.8630 C   0  0  0  0  0  0  0  0  0  0  0  0
   56.6610   22.7870   43.4180 C   0  0  0  0  0  0  0  0  0  0  0  0
   56.8350   24.0920   43.8890 C   0  0  0  0  0  0  0  0  0  0  0  0
   58.9160   25.9610   46.3730 N   0  0  0  0  0  0  0  0  0  0  0  0
   59.1520   27.1900   46.9000 C   0  0  0  0  0  0  0  0  0  0  0  0
   60.0320   27.3170   47.9810 C   0  0  0  0  0  0  0  0  0  0  0  0
   60.2600   28.5690   48.5560 C   0  0  0  0  0  0  0  0  0  0  0  0
   59.6030   29.6950   48.0620 C   0  0  0  0  0  0  0  0  0  0  0  0
   58.7240   29.5830   46.9800 C   0  0  0  0  0  0  0  0  0  0  0  0
   58.5030   28.3310   46.3680 C   0  0  0  0  0  0  0  0  0  0  0  0
   58.5260   29.6950   43.2130 H   0  0  0  0  0  0  0  0  0  0  0  0
   56.7018   31.0151   41.9621 H   0  0  0  0  0  0  0  0  0  0  0  0
   56.1778   31.5680   43.5968 H   0  0  0  0  0  0  0  0  0  0  0  0
   59.0409   31.9558   42.6388 H   0  0  0  0  0  0  0  0  0  0  0  0
   57.7357   33.1289   42.2184 H   0  0  0  0  0  0  0  0  0  0  0  0
   59.8400   34.3139   43.6879 H   0  0  0  0  0  0  0  0  0  0  0  0
   60.0966   35.3493   45.9453 H   0  0  0  0  0  0  0  0  0  0  0  0
   58.6265   34.6254   47.8292 H   0  0  0  0  0  0  0  0  0  0  0  0
   56.8970   32.8624   47.4584 H   0  0  0  0  0  0  0  0  0  0  0  0
   56.6340   31.8227   45.2048 H   0  0  0  0  0  0  0  0  0  0  0  0
   56.6849   26.7145   43.9487 H   0  0  0  0  0  0  0  0  0  0  0  0
   59.5026   23.5546   45.9679 H   0  0  0  0  0  0  0  0  0  0  0  0
   59.1781   21.2320   45.1240 H   0  0  0  0  0  0  0  0  0  0  0  0
   57.3551   20.7348   43.4935 H   0  0  0  0  0  0  0  0  0  0  0  0
   55.8621   22.5675   42.6944 H   0  0  0  0  0  0  0  0  0  0  0  0
   56.1755   24.8956   43.5295 H   0  0  0  0  0  0  0  0  0  0  0  0
   60.5450   26.4288   48.3784 H   0  0  0  0  0  0  0  0  0  0  0  0
   60.9589   28.6669   49.3998 H   0  0  0  0  0  0  0  0  0  0  0  0
   59.7770   30.6771   48.5259 H   0  0  0  0  0  0  0  0  0  0  0  0
   58.2023   30.4755   46.6042 H   0  0  0  0  0  0  0  0  0  0  0  0
  1  2  2  0
  2  3  1  0
  3  4  1  0
  4  5  1  0
  5  6  1  0
  6  7  2  0
  7  8  1  0
  8  9  2  0
  9 10  1  0
 10 11  2  0
  2 12  1  0
 12 13  2  0
 13 14  1  0
 14 15  1  0
 15 16  2  0
 16 17  1  0
 17 18  2  0
 18 19  1  0
 19 20  2  0
 14 21  2  0
 21 22  1  0
 22 23  2  0
 23 24  1  0
 24 25  2  0
 25 26  1  0
 26 27  2  0
 11  6  1  0
 27 12  1  0
 20 15  1  0
 27 22  1  0
  3 28  1  0
  4 29  1  0
  4 30  1  0
  5 31  1  0
  5 32  1  0
  7 33  1  0
  8 34  1  0
  9 35  1  0
 10 36  1  0
 11 37  1  0
 13 38  1  0
 16 39  1  0
 17 40  1  0
 18 41  1  0
 19 42  1  0
 20 43  1  0
 23 44  1  0
 24 45  1  0
 25 46  1  0
 26 47  1  0
M  END
>  <UniqueID>  (15) 
15

>  <SMILES>  (15) 
O=C(NCCc1ccccc1)c1cc(-c2ccccc2)nc2ccccc12

>  <Energy>  (15) 
60.77601858817692

>  <Genealogy>  (15) 
O=C(NCCc1ccccc1)c1cc(-c2ccccc2)nc2ccccc12 (3D coordinates assigned)
O=C(NCCc1ccccc1)c1cc(-c2ccccc2)nc2ccccc12 (optimized conformer: 60.77601858817692 kcal/mol)

>  <smiles>  (15) 
O=C(NCCc1ccccc1)c1cc(-c2ccccc2)nc2ccccc12

>  <score_type>  (15) 
oracle

>  <origin>  (15) 
adg

>  <m_score__min__energy>  (15) 
-9.8599999999999994

>  <m_primary>  (15) 
energy

$$$$
15:0
     RDKit          3D

 60 61  0  0  0  0  0  0  0  0999 V2000
   63.0200   32.0880   47.5800 C   0  0  0  0  0  0  0  0  0  0  0  0
   61.8860   31.6800   48.4160 N   0  0  0  0  0  0  0  0  0  0  0  0
   61.2460   30.5080   47.8700 C   0  0  0  0  0  0  0  0  0  0  0  0
   61.1360   30.3540   46.4790 C   0  0  0  0  0  0  0  0  0  0  0  0
   60.5200   29.2280   45.9360 C   0  0  0  0  0  0  0  0  0  0  0  0
   59.9960   28.2280   46.7630 C   0  0  0  0  0  0  0  0  0  0  0  0
   59.3610   27.0480   46.1250 C   0  0  0  0  0  0  0  0  0  0  0  0
   58.8170   27.0560   44.9000 C   0  0  0  0  0  0  0  0  0  0  0  0
   57.9040   28.1140   44.4240 C   0  0  0  0  0  0  0  0  0  0  0  0
   57.6020   28.1320   43.2030 O   0  0  0  0  0  0  0  0  0  0  0  0
   57.2990   29.1580   45.3250 C   0  0  0  0  0  0  0  0  0  0  0  0
   56.7640   30.3120   44.5320 C   0  0  0  0  0  0  0  0  0  0  0  0
   55.5190   30.4960   44.4830 O   0  0  0  0  0  0  0  0  0  0  0  0
   57.6890   31.2620   43.8830 C   0  0  0  0  0  0  0  0  0  0  0  0
   57.7650   32.5600   44.1840 C   0  0  0  0  0  0  0  0  0  0  0  0
   58.4060   33.0800   45.4050 C   0  0  0  0  0  0  0  0  0  0  0  0
   58.9670   34.3610   45.4170 C   0  0  0  0  0  0  0  0  0  0  0  0
   59.5930   34.8420   46.5690 C   0  0  0  0  0  0  0  0  0  0  0  0
   59.6530   34.0520   47.7330 C   0  0  0  0  0  0  0  0  0  0  0  0
   60.2770   34.4830   48.9150 O   0  0  0  0  0  0  0  0  0  0  0  0
   61.6790   34.4970   49.1850 C   0  0  0  0  0  0  0  0  0  0  0  0
   62.0100   33.6450   50.4090 C   0  0  0  0  0  0  0  0  0  0  0  0
   60.9210   32.7260   50.7160 N   0  0  0  0  0  0  0  0  0  0  0  0
   59.0850   32.7660   47.7210 C   0  0  0  0  0  0  0  0  0  0  0  0
   59.1440   32.0010   48.8910 O   0  0  0  0  0  0  0  0  0  0  0  0
   58.1410   32.0020   49.9010 C   0  0  0  0  0  0  0  0  0  0  0  0
   58.4750   32.2820   46.5500 C   0  0  0  0  0  0  0  0  0  0  0  0
   60.0670   28.4020   48.1610 C   0  0  0  0  0  0  0  0  0  0  0  0
   60.6960   29.5310   48.7190 C   0  0  0  0  0  0  0  0  0  0  0  0
   60.7890   29.7180   50.1090 O   0  0  0  0  0  0  0  0  0  0  0  0
   59.8520   29.2100   51.0540 C   0  0  0  0  0  0  0  0  0  0  0  0
   63.8597   32.3901   48.2232 H   0  0  0  0  0  0  0  0  0  0  0  0
   63.3294   31.2448   46.9449 H   0  0  0  0  0  0  0  0  0  0  0  0
   62.7213   32.9350   46.9449 H   0  0  0  0  0  0  0  0  0  0  0  0
   61.2040   32.4690   48.4910 H   0  0  0  0  0  0  0  0  0  0  0  0
   62.2430   31.4840   49.3830 H   0  0  0  0  0  0  0  0  0  0  0  0
   61.5398   31.1294   45.8114 H   0  0  0  0  0  0  0  0  0  0  0  0
   60.4447   29.1239   44.8435 H   0  0  0  0  0  0  0  0  0  0  0  0
   59.3351   26.1068   46.6937 H   0  0  0  0  0  0  0  0  0  0  0  0
   59.0635   26.2320   44.2142 H   0  0  0  0  0  0  0  0  0  0  0  0
   56.4771   28.7047   45.8986 H   0  0  0  0  0  0  0  0  0  0  0  0
   58.0822   29.5321   46.0007 H   0  0  0  0  0  0  0  0  0  0  0  0
   58.3588   30.8751   43.1009 H   0  0  0  0  0  0  0  0  0  0  0  0
   57.3244   33.2824   43.4812 H   0  0  0  0  0  0  0  0  0  0  0  0
   58.9151   34.9912   44.5169 H   0  0  0  0  0  0  0  0  0  0  0  0
   60.0427   35.8459   46.5670 H   0  0  0  0  0  0  0  0  0  0  0  0
   62.2172   34.0977   48.3127 H   0  0  0  0  0  0  0  0  0  0  0  0
   61.9865   35.5338   49.3865 H   0  0  0  0  0  0  0  0  0  0  0  0
   62.9234   33.0660   50.2078 H   0  0  0  0  0  0  0  0  0  0  0  0
   62.1586   34.3124   51.2707 H   0  0  0  0  0  0  0  0  0  0  0  0
   60.0230   33.1990   50.4730 H   0  0  0  0  0  0  0  0  0  0  0  0
   61.0050   31.9110   50.0680 H   0  0  0  0  0  0  0  0  0  0  0  0
   58.6185   32.0015   50.8920 H   0  0  0  0  0  0  0  0  0  0  0  0
   57.5156   32.9008   49.7958 H   0  0  0  0  0  0  0  0  0  0  0  0
   57.5138   31.1045   49.7958 H   0  0  0  0  0  0  0  0  0  0  0  0
   58.0491   31.2679   46.5353 H   0  0  0  0  0  0  0  0  0  0  0  0
   59.6245   27.6446   48.8247 H   0  0  0  0  0  0  0  0  0  0  0  0
   60.2157   29.4072   52.0733 H   0  0  0  0  0  0  0  0  0  0  0  0
   58.8803   29.7048   50.9093 H   0  0  0  0  0  0  0  0  0  0  0  0
   59.7365   28.1257   50.9093 H   0  0  0  0  0  0  0  0  0  0  0  0
  1  2  1  0
  2  3  1  0
  3  4  2  0
  4  5  1  0
  5  6  2  0
  6  7  1  0
  7  8  2  3
  8  9  1  0
  9 10  2  0
  9 11  1  0
 11 12  1  0
 12 13  2  0
 12 14  1  0
 14 15  2  3
 15 16  1  0
 16 17  2  0
 17 18  1  0
 18 19  2  0
 19 20  1  0
 20 21  1  0
 21 22  1  0
 22 23  1  0
 19 24  1  0
 24 25  1  0
 25 26  1  0
 24 27  2  0
  6 28  1  0
 28 29  2  0
 29 30  1  0
 30 31  1  0
 29  3  1  0
 27 16  1  0
  1 32  1  0
  1 33  1  0
  1 34  1  0
  2 35  1  0
  2 36  1  0
  4 37  1  0
  5 38  1  0
  7 39  1  0
  8 40  1  0
 11 41  1  0
 11 42  1  0
 14 43  1  0
 15 44  1  0
 17 45  1  0
 18 46  1  0
 21 47  1  0
 21 48  1  0
 22 49  1  0
 22 50  1  0
 23 51  1  0
 23 52  1  0
 26 53  1  0
 26 54  1  0
 26 55  1  0
 27 56  1  0
 28 57  1  0
 31 58  1  0
 31 59  1  0
 31 60  1  0
M  CHG  1   2   1
M  END
>  <UniqueID>  (16) 
16

>  <SMILES>  (16) 
C[NH2+]c1ccc(C=CC(=O)CC(=O)C=Cc2ccc(OCCN)c(OC)c2)cc1OC

>  <Energy>  (16) 
63.27074686117412

>  <Genealogy>  (16) 
C[NH2+]c1ccc(C=CC(=O)CC(=O)C=Cc2ccc(OCCN)c(OC)c2)cc1OC (protonated)
C[NH2+]c1ccc(C=CC(=O)CC(=O)C=Cc2ccc(OCCN)c(OC)c2)cc1OC (3D coordinates assigned)
C[NH2+]c1ccc(C=CC(=O)CC(=O)C=Cc2ccc(OCCN)c(OC)c2)cc1OC (optimized conformer: 63.27074686117412 kcal/mol)

>  <smiles>  (16) 
CNc1ccc(C=CC(=O)CC(=O)C=Cc2ccc(OCCN)c(OC)c2)cc1OC

>  <score_type>  (16) 
oracle

>  <origin>  (16) 
adg

>  <m_score__min__energy>  (16) 
-5.9800000000000004

>  <m_primary>  (16) 
energy

$$$$
16:0
     RDKit          3D

 21 22  0  0  0  0  0  0  0  0999 V2000
   55.8770   30.9170   44.4950 O   0  0  0  0  0  0  0  0  0  0  0  0
   57.1270   30.9150   44.6650 C   0  0  0  0  0  0  0  0  0  0  0  0
   57.7980   32.1720   45.0720 C   0  0  0  0  0  0  0  0  0  0  0  0
   57.8180   32.5510   46.4260 C   0  0  0  0  0  0  0  0  0  0  0  0
   58.4350   33.7450   46.8160 C   0  0  0  0  0  0  0  0  0  0  0  0
   59.0230   34.5750   45.8590 C   0  0  0  0  0  0  0  0  0  0  0  0
   59.6180   35.7320   46.2390 F   0  0  0  0  0  0  0  0  0  0  0  0
   58.9910   34.2160   44.5080 C   0  0  0  0  0  0  0  0  0  0  0  0
   58.3770   33.0240   44.1140 C   0  0  0  0  0  0  0  0  0  0  0  0
   57.8610   29.6960   44.4610 N   0  0  0  0  0  0  0  0  0  0  0  0
   57.4800   28.6090   43.7690 C   0  0  0  0  0  0  0  0  0  0  0  0
   58.5230   27.7110   43.7790 C   0  0  0  0  0  0  0  0  0  0  0  0
   59.5620   28.2340   44.4610 N   0  0  0  0  0  0  0  0  0  0  0  0
   59.1250   29.4480   44.8570 C   0  0  0  0  0  0  0  0  0  0  0  0
   57.3465   31.9060   47.1821 H   0  0  0  0  0  0  0  0  0  0  0  0
   58.4569   34.0303   47.8781 H   0  0  0  0  0  0  0  0  0  0  0  0
   59.4498   34.8727   43.7542 H   0  0  0  0  0  0  0  0  0  0  0  0
   58.3463   32.7505   43.0490 H   0  0  0  0  0  0  0  0  0  0  0  0
   56.5055   28.4625   43.2803 H   0  0  0  0  0  0  0  0  0  0  0  0
   58.5108   26.7191   43.3037 H   0  0  0  0  0  0  0  0  0  0  0  0
   59.7332   30.1565   45.4385 H   0  0  0  0  0  0  0  0  0  0  0  0
  1  2  2  0
  2  3  1  0
  3  4  2  0
  4  5  1  0
  5  6  2  0
  6  7  1  0
  6  8  1  0
  8  9  2  0
  2 10  1  0
 10 11  1  0
 11 12  2  0
 12 13  1  0
 13 14  2  0
  9  3  1  0
 14 10  1  0
  4 15  1  0
  5 16  1  0
  8 17  1  0
  9 18  1  0
 11 19  1  0
 12 20  1  0
 14 21  1  0
M  END
>  <UniqueID>  (17) 
17

>  <SMILES>  (17) 
O=C(c1ccc(F)cc1)n1ccnc1

>  <Energy>  (17) 
55.68303024488708

>  <Genealogy>  (17) 
O=C(c1ccc(F)cc1)n1ccnc1 (3D coordinates assigned)
O=C(c1ccc(F)cc1)n1ccnc1 (optimized conformer: 55.68303024488708 kcal/mol)

>  <smiles>  (17) 
O=C(c1ccc(F)cc1)n1ccnc1

>  <score_type>  (17) 
oracle

>  <origin>  (17) 
adg

>  <m_score__min__energy>  (17) 
-5.1799999999999997

>  <m_primary>  (17) 
energy

$$$$
17:0
     RDKit          3D

 37 39  0  0  0  0  0  0  0  0999 V2000
   63.7870   33.1850   47.1110 C   0  0  0  0  0  0  0  0  0  0  0  0
   62.3340   32.8680   47.4910 C   0  0  1  0  0  0  0  0  0  0  0  0
   62.2040   31.4830   47.9300 N   0  0  0  0  0  0  0  0  0  0  0  0
   60.9290   30.8870   48.1930 C   0  0  0  0  0  0  0  0  0  0  0  0
   60.6010   29.8570   47.5450 O   0  0  0  0  0  0  0  0  0  0  0  0
   60.0560   31.3480   49.3050 C   0  0  0  0  0  0  0  0  0  0  0  0
   59.3910   30.3640   50.0620 C   0  0  0  0  0  0  0  0  0  0  0  0
   58.5670   30.7150   51.1320 C   0  0  0  0  0  0  0  0  0  0  0  0
   58.3900   32.0550   51.4630 C   0  0  0  0  0  0  0  0  0  0  0  0
   59.0240   33.0490   50.7190 C   0  0  0  0  0  0  0  0  0  0  0  0
   59.8490   32.7170   49.6280 C   0  0  0  0  0  0  0  0  0  0  0  0
   60.4170   33.7820   48.8460 N   0  0  0  0  0  0  0  0  0  0  0  0
   59.5590   34.7970   48.2230 C   0  0  0  0  0  0  0  0  0  0  0  0
   59.0250   34.2890   46.9120 C   0  0  0  0  0  0  0  0  0  0  0  0
   57.9480   33.3860   46.8930 C   0  0  0  0  0  0  0  0  0  0  0  0
   57.4790   32.8760   45.6800 C   0  0  0  0  0  0  0  0  0  0  0  0
   58.0810   33.2590   44.4780 C   0  0  0  0  0  0  0  0  0  0  0  0
   57.6260   32.7600   43.3030 F   0  0  0  0  0  0  0  0  0  0  0  0
   59.1570   34.1510   44.4890 C   0  0  0  0  0  0  0  0  0  0  0  0
   59.6290   34.6650   45.7010 C   0  0  0  0  0  0  0  0  0  0  0  0
   61.8130   33.7840   48.5560 C   0  0  0  0  0  0  0  0  0  0  0  0
   62.5820   34.5370   49.2110 O   0  0  0  0  0  0  0  0  0  0  0  0
   64.3849   33.3155   48.0250 H   0  0  0  0  0  0  0  0  0  0  0  0
   64.2001   32.3559   46.5178 H   0  0  0  0  0  0  0  0  0  0  0  0
   63.8172   34.1109   46.5178 H   0  0  0  0  0  0  0  0  0  0  0  0
   61.7298   33.0239   46.5851 H   0  0  0  0  0  0  0  0  0  0  0  0
   62.9940   30.8240   47.7370 H   0  0  0  0  0  0  0  0  0  0  0  0
   59.5232   29.3025   49.8058 H   0  0  0  0  0  0  0  0  0  0  0  0
   58.0575   29.9327   51.7137 H   0  0  0  0  0  0  0  0  0  0  0  0
   57.7487   32.3304   52.3132 H   0  0  0  0  0  0  0  0  0  0  0  0
   58.8777   34.1056   50.9878 H   0  0  0  0  0  0  0  0  0  0  0  0
   58.7181   35.0244   48.8947 H   0  0  0  0  0  0  0  0  0  0  0  0
   60.1506   35.7066   48.0424 H   0  0  0  0  0  0  0  0  0  0  0  0
   57.4728   33.0798   47.8366 H   0  0  0  0  0  0  0  0  0  0  0  0
   56.6342   32.1716   45.6707 H   0  0  0  0  0  0  0  0  0  0  0  0
   59.6331   34.4491   43.5433 H   0  0  0  0  0  0  0  0  0  0  0  0
   60.4764   35.3663   45.7059 H   0  0  0  0  0  0  0  0  0  0  0  0
  1  2  1  0
  2  3  1  0
  3  4  1  0
  4  5  2  0
  4  6  1  0
  6  7  2  0
  7  8  1  0
  8  9  2  0
  9 10  1  0
 10 11  2  0
 11 12  1  0
 12 13  1  0
 13 14  1  0
 14 15  2  0
 15 16  1  0
 16 17  2  0
 17 18  1  0
 17 19  1  0
 19 20  2  0
 12 21  1  0
 21 22  2  0
 21  2  1  0
 11  6  1  0
 20 14  1  0
  1 23  1  0
  1 24  1  0
  1 25  1  0
  2 26  1  6
  3 27  1  0
  7 28  1  0
  8 29  1  0
  9 30  1  0
 10 31  1  0
 13 32  1  0
 13 33  1  0
 15 34  1  0
 16 35  1  0
 19 36  1  0
 20 37  1  0
M  END
>  <UniqueID>  (18) 
18

>  <SMILES>  (18) 
C[C@H]1NC(=O)c2ccccc2N(Cc2ccc(F)cc2)C1=O

>  <Energy>  (18) 
59.56647953929177

>  <Genealogy>  (18) 
C[C@H]1NC(=O)c2ccccc2N(Cc2ccc(F)cc2)C1=O (chirality)
C[C@H]1NC(=O)c2ccccc2N(Cc2ccc(F)cc2)C1=O (3D coordinates assigned)
C[C@H]1NC(=O)c2ccccc2N(Cc2ccc(F)cc2)C1=O (nonaromatic ring conformer: 59.56647953929177 kcal/mol)

>  <smiles>  (18) 
CC1NC(=O)c2ccccc2N(Cc2ccc(F)cc2)C1=O

>  <score_type>  (18) 
oracle

>  <origin>  (18) 
adg

>  <m_score__min__energy>  (18) 
-5.7599999999999998

>  <m_primary>  (18) 
energy

$$$$
18:0
     RDKit          3D

 37 38  0  0  0  0  0  0  0  0999 V2000
   59.7630   34.9850   47.3080 C   0  0  0  0  0  0  0  0  0  0  0  0
   58.9710   33.9460   46.5680 C   0  0  0  0  0  0  0  0  0  0  0  0
   58.5730   32.7660   47.2150 C   0  0  0  0  0  0  0  0  0  0  0  0
   57.8120   31.8100   46.5340 C   0  0  0  0  0  0  0  0  0  0  0  0
   57.4470   32.0190   45.1940 C   0  0  0  0  0  0  0  0  0  0  0  0
   56.6440   31.0710   44.4760 N   0  0  0  0  0  0  0  0  0  0  0  0
   56.3690   29.7200   44.8690 C   0  0  0  0  0  0  0  0  0  0  0  0
   55.1730   29.3220   44.8680 O   0  0  0  0  0  0  0  0  0  0  0  0
   57.4670   28.7660   45.2550 C   0  0  0  0  0  0  0  0  0  0  0  0
   58.7380   29.0120   44.4370 C   0  0  0  0  0  0  0  0  0  0  0  0
   60.1890   28.4930   45.3420 S   0  0  0  0  0  0  0  0  0  0  0  0
   61.4110   28.6830   44.4870 O   0  0  0  0  0  0  0  0  0  0  0  0
   60.0670   27.0350   45.6850 O   0  0  0  0  0  0  0  0  0  0  0  0
   60.3430   29.4310   46.8250 C   0  0  0  0  0  0  0  0  0  0  0  0
   61.2490   30.5000   46.8960 C   0  0  0  0  0  0  0  0  0  0  0  0
   61.3520   31.2570   48.0670 C   0  0  0  0  0  0  0  0  0  0  0  0
   60.5480   30.9530   49.1700 C   0  0  0  0  0  0  0  0  0  0  0  0
   60.6470   31.6890   50.3050 F   0  0  0  0  0  0  0  0  0  0  0  0
   59.6390   29.8930   49.1010 C   0  0  0  0  0  0  0  0  0  0  0  0
   59.5340   29.1350   47.9310 C   0  0  0  0  0  0  0  0  0  0  0  0
   57.8070   33.2150   44.5640 C   0  0  0  0  0  0  0  0  0  0  0  0
   58.5680   34.1730   45.2410 C   0  0  0  0  0  0  0  0  0  0  0  0
   58.9060   35.3240   44.6060 F   0  0  0  0  0  0  0  0  0  0  0  0
   59.6465   34.8322   48.3911 H   0  0  0  0  0  0  0  0  0  0  0  0
   60.8256   34.8975   47.0375 H   0  0  0  0  0  0  0  0  0  0  0  0
   59.3971   35.9865   47.0375 H   0  0  0  0  0  0  0  0  0  0  0  0
   58.8607   32.5920   48.2624 H   0  0  0  0  0  0  0  0  0  0  0  0
   57.4982   30.8907   47.0502 H   0  0  0  0  0  0  0  0  0  0  0  0
   57.6975   28.8994   46.3223 H   0  0  0  0  0  0  0  0  0  0  0  0
   57.1203   27.7416   45.0541 H   0  0  0  0  0  0  0  0  0  0  0  0
   58.6772   28.4435   43.4973 H   0  0  0  0  0  0  0  0  0  0  0  0
   58.8196   30.0892   44.2297 H   0  0  0  0  0  0  0  0  0  0  0  0
   61.8798   30.7431   46.0283 H   0  0  0  0  0  0  0  0  0  0  0  0
   62.0659   32.0922   48.1207 H   0  0  0  0  0  0  0  0  0  0  0  0
   59.0057   29.6551   49.9683 H   0  0  0  0  0  0  0  0  0  0  0  0
   58.8149   28.3043   47.8781 H   0  0  0  0  0  0  0  0  0  0  0  0
   57.4889   33.4033   43.5280 H   0  0  0  0  0  0  0  0  0  0  0  0
  1  2  1  0
  2  3  2  0
  3  4  1  0
  4  5  2  0
  5  6  1  0
  6  7  1  0
  7  8  2  0
  7  9  1  0
  9 10  1  0
 10 11  1  0
 11 12  2  0
 11 13  2  0
 11 14  1  0
 14 15  2  0
 15 16  1  0
 16 17  2  0
 17 18  1  0
 17 19  1  0
 19 20  2  0
  5 21  1  0
 21 22  2  0
 22 23  1  0
 22  2  1  0
 20 14  1  0
  1 24  1  0
  1 25  1  0
  1 26  1  0
  3 27  1  0
  4 28  1  0
  9 29  1  0
  9 30  1  0
 10 31  1  0
 10 32  1  0
 15 33  1  0
 16 34  1  0
 19 35  1  0
 20 36  1  0
 21 37  1  0
M  CHG  1   6  -1
M  END
>  <UniqueID>  (19) 
19

>  <SMILES>  (19) 
Cc1ccc([N-]C(=O)CCS(=O)(=O)c2ccc(F)cc2)cc1F

>  <Energy>  (19) 
36.111163181948314

>  <Genealogy>  (19) 
Cc1ccc([N-]C(=O)CCS(=O)(=O)c2ccc(F)cc2)cc1F (protonated)
Cc1ccc([N-]C(=O)CCS(=O)(=O)c2ccc(F)cc2)cc1F (3D coordinates assigned)
Cc1ccc([N-]C(=O)CCS(=O)(=O)c2ccc(F)cc2)cc1F (optimized conformer: 36.111163181948314 kcal/mol)

>  <smiles>  (19) 
Cc1ccc(NC(=O)CCS(=O)(=O)c2ccc(F)cc2)cc1F

>  <score_type>  (19) 
oracle

>  <origin>  (19) 
adg

>  <m_score__min__energy>  (19) 
-9.8900000000000006

>  <m_primary>  (19) 
energy

$$$$
19:0
     RDKit          3D

 41 44  0  0  0  0  0  0  0  0999 V2000
   55.0740   26.3940   45.9980 O   0  0  0  0  0  0  0  0  0  0  0  0
   56.2050   26.9400   45.9020 C   0  0  0  0  0  0  0  0  0  0  0  0
   57.3570   26.2500   46.3980 N   0  0  0  0  0  0  0  0  0  0  0  0
   58.4570   26.8380   47.1080 C   0  0  0  0  0  0  0  0  0  0  0  0
   59.7700   26.3540   46.9800 C   0  0  0  0  0  0  0  0  0  0  0  0
   60.8130   26.9580   47.6830 C   0  0  0  0  0  0  0  0  0  0  0  0
   60.5640   28.0600   48.5040 C   0  0  0  0  0  0  0  0  0  0  0  0
   59.2610   28.5790   48.6200 C   0  0  0  0  0  0  0  0  0  0  0  0
   58.9810   29.7600   49.4710 C   0  0  0  0  0  0  0  0  0  0  0  0
   59.5070   31.0320   49.3590 C   0  0  0  0  0  0  0  0  0  0  0  0
   58.9700   31.7760   50.3400 N   0  0  0  0  0  0  0  0  0  0  0  0
   58.1510   30.9870   51.0200 N   0  0  0  0  0  0  0  0  0  0  0  0
   58.1380   29.7610   50.5180 N   0  0  0  0  0  0  0  0  0  0  0  0
   58.2160   27.9620   47.9090 C   0  0  0  0  0  0  0  0  0  0  0  0
   56.3380   28.2120   45.2600 N   0  0  0  0  0  0  0  0  0  0  0  0
   57.2890   28.4980   44.1870 C   0  0  1  0  0  0  0  0  0  0  0  0
   56.6530   29.4570   43.1740 C   0  0  0  0  0  0  0  0  0  0  0  0
   56.2530   30.7830   43.8310 C   0  0  0  0  0  0  0  0  0  0  0  0
   57.3340   31.3490   44.7200 C   0  0  0  0  0  0  0  0  0  0  0  0
   57.2330   32.6860   45.1390 C   0  0  0  0  0  0  0  0  0  0  0  0
   58.1770   33.2280   46.0120 C   0  0  0  0  0  0  0  0  0  0  0  0
   59.2270   32.4400   46.4850 C   0  0  0  0  0  0  0  0  0  0  0  0
   59.3320   31.1040   46.0890 C   0  0  0  0  0  0  0  0  0  0  0  0
   58.3830   30.5410   45.2210 C   0  0  0  0  0  0  0  0  0  0  0  0
   58.5750   29.1160   44.7560 C   0  0  0  0  0  0  0  0  0  0  0  0
   59.9763   25.4960   46.3233 H   0  0  0  0  0  0  0  0  0  0  0  0
   61.8360   26.5644   47.5901 H   0  0  0  0  0  0  0  0  0  0  0  0
   61.3901   28.5244   49.0625 H   0  0  0  0  0  0  0  0  0  0  0  0
   60.2321   31.3730   48.6054 H   0  0  0  0  0  0  0  0  0  0  0  0
   57.1960   28.3673   47.9828 H   0  0  0  0  0  0  0  0  0  0  0  0
   57.5476   27.5545   43.6841 H   0  0  0  0  0  0  0  0  0  0  0  0
   57.3766   29.6599   42.3707 H   0  0  0  0  0  0  0  0  0  0  0  0
   55.7453   28.9829   42.7724 H   0  0  0  0  0  0  0  0  0  0  0  0
   56.0314   31.5139   43.0394 H   0  0  0  0  0  0  0  0  0  0  0  0
   55.3753   30.5857   44.4641 H   0  0  0  0  0  0  0  0  0  0  0  0
   56.4033   33.3105   44.7761 H   0  0  0  0  0  0  0  0  0  0  0  0
   58.0933   34.2783   46.3279 H   0  0  0  0  0  0  0  0  0  0  0  0
   59.9723   32.8706   47.1698 H   0  0  0  0  0  0  0  0  0  0  0  0
   60.1647   30.4886   46.4603 H   0  0  0  0  0  0  0  0  0  0  0  0
   59.3477   29.1027   43.9732 H   0  0  0  0  0  0  0  0  0  0  0  0
   58.8708   28.5187   45.6311 H   0  0  0  0  0  0  0  0  0  0  0  0
  1  2  2  0
  2  3  1  0
  3  4  1  0
  4  5  2  0
  5  6  1  0
  6  7  2  0
  7  8  1  0
  8  9  1  0
  9 10  2  0
 10 11  1  0
 11 12  1  0
 12 13  2  0
  8 14  2  0
  2 15  1  0
 15 16  1  0
 16 17  1  0
 17 18  1  0
 18 19  1  0
 19 20  2  0
 20 21  1  0
 21 22  2  0
 22 23  1  0
 23 24  2  0
 24 25  1  0
 14  4  1  0
 25 16  1  0
 13  9  1  0
 24 19  1  0
  5 26  1  0
  6 27  1  0
  7 28  1  0
 10 29  1  0
 14 30  1  0
 16 31  1  6
 17 32  1  0
 17 33  1  0
 18 34  1  0
 18 35  1  0
 20 36  1  0
 21 37  1  0
 22 38  1  0
 23 39  1  0
 25 40  1  0
 25 41  1  0
M  CHG  3   3  -1  11  -1  15  -1
M  END
>  <UniqueID>  (20) 
20

>  <SMILES>  (20) 
O=C([N-]c1cccc(-c2c[n-]nn2)c1)[N-][C@H]1CCc2ccccc2C1

>  <Energy>  (20) 
81.58173844936373

>  <Genealogy>  (20) 
O=C([N-]c1cccc(-c2c[n-]nn2)c1)[N-]C1CCc2ccccc2C1 (protonated)
O=C([N-]c1cccc(-c2c[n-]nn2)c1)[N-][C@H]1CCc2ccccc2C1 (chirality)
O=C([N-]c1cccc(-c2c[n-]nn2)c1)[N-][C@H]1CCc2ccccc2C1 (3D coordinates assigned)
O=C([N-]c1cccc(-c2c[n-]nn2)c1)[N-][C@H]1CCc2ccccc2C1 (nonaromatic ring conformer: 81.58173844936373 kcal/mol)

>  <smiles>  (20) 
O=C(Nc1cccc(-c2c[nH]nn2)c1)NC1CCc2ccccc2C1

>  <score_type>  (20) 
oracle

>  <origin>  (20) 
adg

>  <m_score__min__energy>  (20) 
-14.359999999999999

>  <m_primary>  (20) 
energy

$$$$
20:0
     RDKit          3D

 41 43  0  0  0  0  0  0  0  0999 V2000
   59.2670   35.0890   47.6930 O   0  0  0  0  0  0  0  0  0  0  0  0
   59.5080   33.8750   47.4450 C   0  0  0  0  0  0  0  0  0  0  0  0
   60.1680   33.0590   48.4220 N   0  0  0  0  0  0  0  0  0  0  0  0
   60.5120   33.5540   49.7530 C   0  0  0  0  0  0  0  0  0  0  0  0
   59.4150   33.2380   50.7210 C   0  0  0  0  0  0  0  0  0  0  0  0
   59.2070   33.8610   51.9440 C   0  0  0  0  0  0  0  0  0  0  0  0
   58.1180   33.3350   52.6510 C   0  0  0  0  0  0  0  0  0  0  0  0
   57.4720   32.2990   51.9870 C   0  0  0  0  0  0  0  0  0  0  0  0
   58.2580   32.0360   50.5220 S   0  0  0  0  0  0  0  0  0  0  0  0
   59.0760   33.2780   46.1270 C   0  0  2  0  0  0  0  0  0  0  0  0
   58.4370   34.3050   45.1930 C   0  0  0  0  0  0  0  0  0  0  0  0
   57.0520   33.7590   44.8730 C   0  0  0  0  0  0  0  0  0  0  0  0
   57.0230   32.3410   45.2500 N   0  0  0  0  0  0  0  0  0  0  0  0
   57.1860   31.4030   44.1100 C   0  0  0  0  0  0  0  0  0  0  0  0
   57.6170   29.9960   44.4950 C   0  0  0  0  0  0  0  0  0  0  0  0
   58.9830   29.6620   44.5280 C   0  0  0  0  0  0  0  0  0  0  0  0
   59.3900   28.3690   44.8660 C   0  0  0  0  0  0  0  0  0  0  0  0
   58.4420   27.4000   45.1970 C   0  0  0  0  0  0  0  0  0  0  0  0
   57.0840   27.7300   45.2110 C   0  0  0  0  0  0  0  0  0  0  0  0
   56.6700   29.0230   44.8750 C   0  0  0  0  0  0  0  0  0  0  0  0
   55.3500   29.3240   44.9520 F   0  0  0  0  0  0  0  0  0  0  0  0
   58.0230   32.1820   46.3130 C   0  0  0  0  0  0  0  0  0  0  0  0
   60.3940   32.0650   48.1910 H   0  0  0  0  0  0  0  0  0  0  0  0
   61.4430   33.0746   50.0896 H   0  0  0  0  0  0  0  0  0  0  0  0
   60.6469   34.6447   49.7067 H   0  0  0  0  0  0  0  0  0  0  0  0
   59.8333   34.6836   52.3196 H   0  0  0  0  0  0  0  0  0  0  0  0
   57.8041   33.7065   53.6376 H   0  0  0  0  0  0  0  0  0  0  0  0
   56.5962   31.7452   52.3560 H   0  0  0  0  0  0  0  0  0  0  0  0
   60.0049   32.8796   45.6929 H   0  0  0  0  0  0  0  0  0  0  0  0
   58.3590   35.2821   45.6921 H   0  0  0  0  0  0  0  0  0  0  0  0
   59.0358   34.4565   44.2828 H   0  0  0  0  0  0  0  0  0  0  0  0
   56.2919   34.3123   45.4441 H   0  0  0  0  0  0  0  0  0  0  0  0
   56.8358   33.8728   43.8005 H   0  0  0  0  0  0  0  0  0  0  0  0
   56.2223   31.3333   43.5843 H   0  0  0  0  0  0  0  0  0  0  0  0
   57.9937   31.8132   43.4860 H   0  0  0  0  0  0  0  0  0  0  0  0
   59.7371   30.4253   44.2856 H   0  0  0  0  0  0  0  0  0  0  0  0
   60.4601   28.1142   44.8712 H   0  0  0  0  0  0  0  0  0  0  0  0
   58.7631   26.3779   45.4465 H   0  0  0  0  0  0  0  0  0  0  0  0
   56.3381   26.9701   45.4872 H   0  0  0  0  0  0  0  0  0  0  0  0
   57.5434   32.2860   47.2975 H   0  0  0  0  0  0  0  0  0  0  0  0
   58.4883   31.1867   46.2594 H   0  0  0  0  0  0  0  0  0  0  0  0
  1  2  2  0
  2  3  1  0
  3  4  1  0
  4  5  1  0
  5  6  2  0
  6  7  1  0
  7  8  2  0
  8  9  1  0
  2 10  1  0
 10 11  1  0
 11 12  1  0
 12 13  1  0
 13 14  1  0
 14 15  1  0
 15 16  2  0
 16 17  1  0
 17 18  2  0
 18 19  1  0
 19 20  2  0
 20 21  1  0
 13 22  1  0
  9  5  1  0
 22 10  1  0
 20 15  1  0
  3 23  1  0
  4 24  1  0
  4 25  1  0
  6 26  1  0
  7 27  1  0
  8 28  1  0
 10 29  1  6
 11 30  1  0
 11 31  1  0
 12 32  1  0
 12 33  1  0
 14 34  1  0
 14 35  1  0
 16 36  1  0
 17 37  1  0
 18 38  1  0
 19 39  1  0
 22 40  1  0
 22 41  1  0
M  END
>  <UniqueID>  (21) 
21

>  <SMILES>  (21) 
O=C(NCc1cccs1)[C@@H]1CCN(Cc2ccccc2F)C1

>  <Energy>  (21) 
72.40544707496201

>  <Genealogy>  (21) 
O=C(NCc1cccs1)[C@@H]1CCN(Cc2ccccc2F)C1 (chirality)
O=C(NCc1cccs1)[C@@H]1CCN(Cc2ccccc2F)C1 (3D coordinates assigned)
O=C(NCc1cccs1)[C@@H]1CCN(Cc2ccccc2F)C1 (nonaromatic ring conformer: 72.40544707496201 kcal/mol)

>  <smiles>  (21) 
O=C(NCc1cccs1)C1CCN(Cc2ccccc2F)C1

>  <score_type>  (21) 
oracle

>  <origin>  (21) 
adg

>  <m_score__min__energy>  (21) 
-7.5

>  <m_primary>  (21) 
energy

$$$$
21:0
     RDKit          3D

 33 34  0  0  1  0  0  0  0  0999 V2000
   59.6950   35.2840   45.6520 C   0  0  0  0  0  0  0  0  0  0  0  0
   58.9100   34.0160   45.4550 C   0  0  0  0  0  0  0  0  0  0  0  0
   58.5010   33.2820   46.5250 C   0  0  0  0  0  0  0  0  0  0  0  0
   57.7750   32.1070   46.3480 C   0  0  0  0  0  0  0  0  0  0  0  0
   57.4530   31.6620   45.0630 C   0  0  0  0  0  0  0  0  0  0  0  0
   56.7130   30.4660   44.8440 N   0  0  0  0  0  0  0  0  0  0  0  0
   57.0950   29.3120   45.2150 C   0  0  0  0  0  0  0  0  0  0  0  0
   58.4460   29.0680   45.4130 C   0  0  0  0  0  0  0  0  0  0  0  0
   58.7810   27.7910   45.8160 C   0  0  0  0  0  0  0  0  0  0  0  0
   60.2030   27.4340   46.0520 C   0  0  0  0  0  0  0  0  0  0  0  0
   57.8170   26.8700   45.9960 N   0  0  0  0  0  0  0  0  0  0  0  0
   56.5090   27.1350   45.7960 C   0  0  0  0  0  0  0  0  0  0  0  0
   55.6250   26.2400   45.9740 N   0  0  0  0  0  0  0  0  0  0  0  0
   56.1630   28.3570   45.4080 N   0  0  0  0  0  0  0  0  0  0  0  0
   57.8680   32.4050   43.9790 C   0  0  0  0  0  0  0  0  0  0  0  0
   57.5820   32.0250   42.5750 C   0  0  0  0  0  0  0  0  0  0  0  0
   58.5860   33.5640   44.1900 C   0  0  0  0  0  0  0  0  0  0  0  0
   59.8148   35.4776   46.7282 H   0  0  0  0  0  0  0  0  0  0  0  0
   60.6857   35.1781   45.1859 H   0  0  0  0  0  0  0  0  0  0  0  0
   59.1584   36.1236   45.1859 H   0  0  0  0  0  0  0  0  0  0  0  0
   58.7468   33.6208   47.5422 H   0  0  0  0  0  0  0  0  0  0  0  0
   57.4531   31.5257   47.2247 H   0  0  0  0  0  0  0  0  0  0  0  0
   59.2067   29.8473   45.2578 H   0  0  0  0  0  0  0  0  0  0  0  0
   60.3943   27.3860   47.1342 H   0  0  0  0  0  0  0  0  0  0  0  0
   60.4153   26.4547   45.5983 H   0  0  0  0  0  0  0  0  0  0  0  0
   60.8527   28.1969   45.5983 H   0  0  0  0  0  0  0  0  0  0  0  0
   58.0660   25.8960   46.3020 H   0  0  0  0  0  0  0  0  0  0  0  0
   55.2740   25.5390   45.3170 H   0  0  0  0  0  0  0  0  0  0  0  0
   55.1410   28.5920   45.2430 H   0  0  0  0  0  0  0  0  0  0  0  0
   56.9206   31.1462   42.5605 H   0  0  0  0  0  0  0  0  0  0  0  0
   57.0890   32.8635   42.0613 H   0  0  0  0  0  0  0  0  0  0  0  0
   58.5242   31.7833   42.0613 H   0  0  0  0  0  0  0  0  0  0  0  0
   58.9128   34.1503   43.3185 H   0  0  0  0  0  0  0  0  0  0  0  0
  1  2  1  0
  2  3  2  0
  3  4  1  0
  4  5  2  0
  5  6  1  0
  6  7  2  0
  7  8  1  0
  8  9  2  0
  9 10  1  0
  9 11  1  0
 11 12  1  0
 12 13  2  3
 12 14  1  0
  5 15  1  0
 15 16  1  0
 15 17  2  0
 17  2  1  0
 14  7  1  0
  1 18  1  0
  1 19  1  0
  1 20  1  0
  3 21  1  0
  4 22  1  0
  8 23  1  0
 10 24  1  0
 10 25  1  0
 10 26  1  0
 11 27  1  0
 13 28  1  0
 14 29  1  0
 16 30  1  0
 16 31  1  0
 16 32  1  0
 17 33  1  0
M  END
>  <smiles>  (22) 
Cc1ccc(N=c2cc(C)[nH]c(=N)[nH]2)c(C)c1

>  <score_type>  (22) 
oracle

>  <origin>  (22) 
adg

>  <m_score__min__energy>  (22) 
-7.6799999999999997

>  <m_primary>  (22) 
energy

$$$$
22:0
     RDKit          3D

 46 48  0  0  1  0  0  0  0  0999 V2000
   59.6790   35.5180   46.0800 C   0  0  0  0  0  0  0  0  0  0  0  0
   58.7460   34.8250   45.1190 C   0  0  0  0  0  0  0  0  0  0  0  0
   58.4240   33.4920   45.4820 N   0  0  0  0  0  0  0  0  0  0  0  0
   59.5810   32.8050   46.0020 C   0  0  0  0  0  0  0  0  0  0  0  0
   59.2490   31.4220   46.5100 C   0  0  0  0  0  0  0  0  0  0  0  0
   58.4140   30.7150   45.5540 N   0  0  0  0  0  0  0  0  0  0  0  0
   57.8680   29.4550   45.8470 C   0  0  0  0  0  0  0  0  0  0  0  0
   58.5740   28.5560   46.6170 C   0  0  0  0  0  0  0  0  0  0  0  0
   57.9800   27.3210   46.8730 C   0  0  0  0  0  0  0  0  0  0  0  0
   56.7340   27.0350   46.3630 C   0  0  0  0  0  0  0  0  0  0  0  0
   56.1900   25.8890   46.6050 N   0  0  0  0  0  0  0  0  0  0  0  0
   56.1420   24.8530   45.6220 C   0  0  0  0  0  0  0  0  0  0  0  0
   54.9040   24.3800   45.1880 C   0  0  0  0  0  0  0  0  0  0  0  0
   54.7890   23.3870   44.2460 C   0  0  0  0  0  0  0  0  0  0  0  0
   55.9380   22.8420   43.7140 C   0  0  0  0  0  0  0  0  0  0  0  0
   55.9370   21.8370   42.7580 O   0  0  0  0  0  0  0  0  0  0  0  0
   57.0130   20.9170   42.7790 C   0  0  0  0  0  0  0  0  0  0  0  0
   57.1950   23.2890   44.1230 C   0  0  0  0  0  0  0  0  0  0  0  0
   57.2940   24.3010   45.0830 C   0  0  0  0  0  0  0  0  0  0  0  0
   56.0900   27.9520   45.6180 N   0  0  0  0  0  0  0  0  0  0  0  0
   56.6510   29.1290   45.3710 N   0  0  0  0  0  0  0  0  0  0  0  0
   58.1710   31.3740   44.2850 C   0  0  0  0  0  0  0  0  0  0  0  0
   57.5960   32.7470   44.6090 C   0  0  0  0  0  0  0  0  0  0  0  0
   59.3753   35.2924   47.1129 H   0  0  0  0  0  0  0  0  0  0  0  0
   60.7067   35.1625   45.9140 H   0  0  0  0  0  0  0  0  0  0  0  0
   59.6356   36.6045   45.9140 H   0  0  0  0  0  0  0  0  0  0  0  0
   57.8120   35.4037   45.0668 H   0  0  0  0  0  0  0  0  0  0  0  0
   59.2687   34.7725   44.1526 H   0  0  0  0  0  0  0  0  0  0  0  0
   60.3293   32.7168   45.2006 H   0  0  0  0  0  0  0  0  0  0  0  0
   59.9658   33.3905   46.8500 H   0  0  0  0  0  0  0  0  0  0  0  0
   60.1816   30.8588   46.6620 H   0  0  0  0  0  0  0  0  0  0  0  0
   58.7021   31.5140   47.4600 H   0  0  0  0  0  0  0  0  0  0  0  0
   59.5692   28.8037   47.0148 H   0  0  0  0  0  0  0  0  0  0  0  0
   58.5080   26.5738   47.4837 H   0  0  0  0  0  0  0  0  0  0  0  0
   53.9889   24.8168   45.6144 H   0  0  0  0  0  0  0  0  0  0  0  0
   53.7990   23.0334   43.9223 H   0  0  0  0  0  0  0  0  0  0  0  0
   57.2800   20.6887   43.8214 H   0  0  0  0  0  0  0  0  0  0  0  0
   56.7138   19.9911   42.2659 H   0  0  0  0  0  0  0  0  0  0  0  0
   57.8812   21.3564   42.2659 H   0  0  0  0  0  0  0  0  0  0  0  0
   58.1051   22.8467   43.6916 H   0  0  0  0  0  0  0  0  0  0  0  0
   58.2821   24.6577   45.4093 H   0  0  0  0  0  0  0  0  0  0  0  0
   55.1450   27.7530   45.2240 H   0  0  0  0  0  0  0  0  0  0  0  0
   59.1125   31.4794   43.7259 H   0  0  0  0  0  0  0  0  0  0  0  0
   57.4767   30.7907   43.6623 H   0  0  0  0  0  0  0  0  0  0  0  0
   57.4770   33.3093   43.6711 H   0  0  0  0  0  0  0  0  0  0  0  0
   56.6316   32.5931   45.1152 H   0  0  0  0  0  0  0  0  0  0  0  0
  1  2  1  0
  2  3  1  0
  3  4  1  0
  4  5  1  0
  5  6  1  0
  6  7  1  0
  7  8  1  0
  8  9  2  0
  9 10  1  0
 10 11  2  0
 11 12  1  0
 12 13  2  0
 13 14  1  0
 14 15  2  0
 15 16  1  0
 16 17  1  0
 15 18  1  0
 18 19  2  0
 10 20  1  0
 20 21  1  0
  6 22  1  0
 22 23  1  0
 23  3  1  0
 21  7  2  0
 19 12  1  0
  1 24  1  0
  1 25  1  0
  1 26  1  0
  2 27  1  0
  2 28  1  0
  4 29  1  0
  4 30  1  0
  5 31  1  0
  5 32  1  0
  8 33  1  0
  9 34  1  0
 13 35  1  0
 14 36  1  0
 17 37  1  0
 17 38  1  0
 17 39  1  0
 18 40  1  0
 19 41  1  0
 20 42  1  0
 22 43  1  0
 22 44  1  0
 23 45  1  0
 23 46  1  0
M  END
>  <smiles>  (23) 
CCN1CCN(c2ccc(=Nc3ccc(OC)cc3)[nH]n2)CC1

>  <score_type>  (23) 
oracle

>  <origin>  (23) 
adg

>  <m_score__min__energy>  (23) 
-7.9699999999999998

>  <m_primary>  (23) 
energy

$$$$
23:0
     RDKit          3D

 61 64  0  0  0  0  0  0  0  0999 V2000
   56.3160   29.6620   42.6340 C   0  0  0  0  0  0  0  0  0  0  0  0
   57.0930   30.6470   43.3050 O   0  0  0  0  0  0  0  0  0  0  0  0
   57.8810   30.3990   44.4420 C   0  0  0  0  0  0  0  0  0  0  0  0
   58.7320   29.2850   44.5340 C   0  0  0  0  0  0  0  0  0  0  0  0
   59.5580   29.1060   45.6550 C   0  0  0  0  0  0  0  0  0  0  0  0
   59.5280   30.0410   46.7030 C   0  0  0  0  0  0  0  0  0  0  0  0
   58.5990   31.0990   46.6630 C   0  0  0  0  0  0  0  0  0  0  0  0
   58.4420   31.9080   47.7930 O   0  0  0  0  0  0  0  0  0  0  0  0
   58.7670   33.2930   47.7620 C   0  0  0  0  0  0  0  0  0  0  0  0
   57.8170   31.3080   45.5090 C   0  0  0  0  0  0  0  0  0  0  0  0
   56.9630   32.4110   45.3880 O   0  0  0  0  0  0  0  0  0  0  0  0
   57.3980   33.6660   44.8670 C   0  0  0  0  0  0  0  0  0  0  0  0
   60.4100   29.8660   47.8870 C   0  0  0  0  0  0  0  0  0  0  0  0
   60.3520   28.6550   48.6090 C   0  0  0  0  0  0  0  0  0  0  0  0
   60.9070   28.5840   49.8860 C   0  0  0  0  0  0  0  0  0  0  0  0
   61.5760   29.6860   50.4420 C   0  0  0  0  0  0  0  0  0  0  0  0
   62.0870   29.6630   51.7500 O   0  0  0  0  0  0  0  0  0  0  0  0
   63.4710   29.5790   52.0740 C   0  0  0  0  0  0  0  0  0  0  0  0
   61.7620   30.8450   49.6720 C   0  0  0  0  0  0  0  0  0  0  0  0
   62.4950   31.8940   50.2530 O   0  0  0  0  0  0  0  0  0  0  0  0
   61.9530   33.1730   50.5810 C   0  0  0  0  0  0  0  0  0  0  0  0
   61.2100   30.9290   48.3740 C   0  0  0  0  0  0  0  0  0  0  0  0
   61.4540   32.0730   47.6030 O   0  0  0  0  0  0  0  0  0  0  0  0
   62.7610   32.5390   47.2690 C   0  0  0  0  0  0  0  0  0  0  0  0
   59.6740   27.5280   48.1190 O   0  0  0  0  0  0  0  0  0  0  0  0
   59.8430   26.9070   46.8310 C   0  0  1  0  0  0  0  0  0  0  0  0
   58.5290   26.2540   46.3970 C   0  0  0  0  0  0  0  0  0  0  0  0
   58.5230   24.9710   45.7940 C   0  0  0  0  0  0  0  0  0  0  0  0
   57.3260   24.3830   45.3710 C   0  0  0  0  0  0  0  0  0  0  0  0
   56.1180   25.0630   45.5360 C   0  0  0  0  0  0  0  0  0  0  0  0
   56.1070   26.3440   46.0930 C   0  0  0  0  0  0  0  0  0  0  0  0
   57.3020   26.9470   46.4990 C   0  0  0  0  0  0  0  0  0  0  0  0
   60.4210   27.8810   45.7760 C   0  0  0  0  0  0  0  0  0  0  0  0
   55.8128   29.0241   43.3756 H   0  0  0  0  0  0  0  0  0  0  0  0
   55.5621   30.1564   42.0038 H   0  0  0  0  0  0  0  0  0  0  0  0
   56.9724   29.0439   42.0038 H   0  0  0  0  0  0  0  0  0  0  0  0
   58.7513   28.5457   43.7197 H   0  0  0  0  0  0  0  0  0  0  0  0
   58.8559   33.6719   48.7909 H   0  0  0  0  0  0  0  0  0  0  0  0
   59.7226   33.4337   47.2356 H   0  0  0  0  0  0  0  0  0  0  0  0
   57.9738   33.8441   47.2356 H   0  0  0  0  0  0  0  0  0  0  0  0
   57.6338   34.3463   45.6986 H   0  0  0  0  0  0  0  0  0  0  0  0
   58.2964   33.5155   44.2504 H   0  0  0  0  0  0  0  0  0  0  0  0
   56.5992   34.1038   44.2504 H   0  0  0  0  0  0  0  0  0  0  0  0
   60.8196   27.6529   50.4652 H   0  0  0  0  0  0  0  0  0  0  0  0
   63.5918   29.5717   53.1673 H   0  0  0  0  0  0  0  0  0  0  0  0
   63.8908   28.6537   51.6525 H   0  0  0  0  0  0  0  0  0  0  0  0
   63.9996   30.4467   51.6525 H   0  0  0  0  0  0  0  0  0  0  0  0
   61.9068   33.2821   51.6746 H   0  0  0  0  0  0  0  0  0  0  0  0
   62.5942   33.9617   50.1606 H   0  0  0  0  0  0  0  0  0  0  0  0
   60.9403   33.2609   50.1606 H   0  0  0  0  0  0  0  0  0  0  0  0
   63.3254   32.7402   48.1915 H   0  0  0  0  0  0  0  0  0  0  0  0
   63.2841   31.7720   46.6790 H   0  0  0  0  0  0  0  0  0  0  0  0
   62.6809   33.4640   46.6790 H   0  0  0  0  0  0  0  0  0  0  0  0
   60.5985   26.1124   46.9196 H   0  0  0  0  0  0  0  0  0  0  0  0
   59.4714   24.4309   45.6569 H   0  0  0  0  0  0  0  0  0  0  0  0
   57.3367   23.3850   44.9085 H   0  0  0  0  0  0  0  0  0  0  0  0
   55.1742   24.5898   45.2272 H   0  0  0  0  0  0  0  0  0  0  0  0
   55.1544   26.8809   46.2128 H   0  0  0  0  0  0  0  0  0  0  0  0
   57.2863   27.9706   46.9016 H   0  0  0  0  0  0  0  0  0  0  0  0
   61.4347   28.1819   46.0793 H   0  0  0  0  0  0  0  0  0  0  0  0
   60.4499   27.3709   44.8018 H   0  0  0  0  0  0  0  0  0  0  0  0
  1  2  1  0
  2  3  1  0
  3  4  2  0
  4  5  1  0
  5  6  2  0
  6  7  1  0
  7  8  1  0
  8  9  1  0
  7 10  2  0
 10 11  1  0
 11 12  1  0
  6 13  1  0
 13 14  2  0
 14 15  1  0
 15 16  2  0
 16 17  1  0
 17 18  1  0
 16 19  1  0
 19 20  1  0
 20 21  1  0
 19 22  2  0
 22 23  1  0
 23 24  1  0
 14 25  1  0
 25 26  1  0
 26 27  1  0
 27 28  2  0
 28 29  1  0
 29 30  2  0
 30 31  1  0
 31 32  2  0
 26 33  1  0
 10  3  1  0
 22 13  1  0
 32 27  1  0
 33  5  1  0
  1 34  1  0
  1 35  1  0
  1 36  1  0
  4 37  1  0
  9 38  1  0
  9 39  1  0
  9 40  1  0
 12 41  1  0
 12 42  1  0
 12 43  1  0
 15 44  1  0
 18 45  1  0
 18 46  1  0
 18 47  1  0
 21 48  1  0
 21 49  1  0
 21 50  1  0
 24 51  1  0
 24 52  1  0
 24 53  1  0
 26 54  1  1
 28 55  1  0
 29 56  1  0
 30 57  1  0
 31 58  1  0
 32 59  1  0
 33 60  1  0
 33 61  1  0
M  END
>  <UniqueID>  (24) 
22

>  <SMILES>  (24) 
COc1cc2c(c(OC)c1OC)-c1c(cc(OC)c(OC)c1OC)O[C@@H](c1ccccc1)C2

>  <Energy>  (24) 
105.39542027241316

>  <Genealogy>  (24) 
COc1cc2c(c(OC)c1OC)-c1c(cc(OC)c(OC)c1OC)O[C@@H](c1ccccc1)C2 (chirality)
COc1cc2c(c(OC)c1OC)-c1c(cc(OC)c(OC)c1OC)O[C@@H](c1ccccc1)C2 (3D coordinates assigned)
COc1cc2c(c(OC)c1OC)-c1c(cc(OC)c(OC)c1OC)O[C@@H](c1ccccc1)C2 (nonaromatic ring conformer: 105.39542027241316 kcal/mol)

>  <smiles>  (24) 
COc1cc2c(c(OC)c1OC)-c1c(cc(OC)c(OC)c1OC)OC(c1ccccc1)C2

>  <score_type>  (24) 
oracle

>  <origin>  (24) 
adg

>  <m_score__min__energy>  (24) 
-4.7000000000000002

>  <m_primary>  (24) 
energy

$$$$
24:0
     RDKit          3D

 44 47  0  0  0  0  0  0  0  0999 V2000
   59.4540   27.4390   44.8790 O   0  0  0  0  0  0  0  0  0  0  0  0
   58.2930   26.9720   44.7230 C   0  0  0  0  0  0  0  0  0  0  0  0
   57.1790   27.8650   44.5270 N   0  0  0  0  0  0  0  0  0  0  0  0
   57.3130   29.2900   44.3890 C   0  0  0  0  0  0  0  0  0  0  0  0
   57.0240   29.8890   43.1540 C   0  0  0  0  0  0  0  0  0  0  0  0
   57.1670   31.2670   42.9840 C   0  0  0  0  0  0  0  0  0  0  0  0
   57.6160   32.0630   44.0420 C   0  0  0  0  0  0  0  0  0  0  0  0
   57.7500   33.4010   43.8740 N   0  0  0  0  0  0  0  0  0  0  0  0
   58.1920   34.1950   44.8820 C   0  0  0  0  0  0  0  0  0  0  0  0
   58.5250   33.6640   46.0960 N   0  0  0  0  0  0  0  0  0  0  0  0
   58.9700   34.5650   47.1720 C   0  0  0  0  0  0  0  0  0  0  0  0
   60.3550   34.1910   47.6270 C   0  0  0  0  0  0  0  0  0  0  0  0
   61.3420   33.8370   46.6920 C   0  0  0  0  0  0  0  0  0  0  0  0
   62.6170   33.4570   47.1210 C   0  0  0  0  0  0  0  0  0  0  0  0
   62.9150   33.4210   48.4870 C   0  0  0  0  0  0  0  0  0  0  0  0
   64.5150   32.9430   49.0240 Cl  0  0  0  0  0  0  0  0  0  0  0  0
   61.9360   33.7660   49.4240 C   0  0  0  0  0  0  0  0  0  0  0  0
   60.6600   34.1460   48.9970 C   0  0  0  0  0  0  0  0  0  0  0  0
   58.3960   32.3140   46.3120 C   0  0  0  0  0  0  0  0  0  0  0  0
   58.6890   31.8200   47.4380 O   0  0  0  0  0  0  0  0  0  0  0  0
   57.9350   31.4760   45.2810 C   0  0  0  0  0  0  0  0  0  0  0  0
   57.7900   30.0850   45.4460 C   0  0  0  0  0  0  0  0  0  0  0  0
   58.1030   25.5010   44.7520 C   0  0  0  0  0  0  0  0  0  0  0  0
   57.3180   24.8800   43.7620 C   0  0  0  0  0  0  0  0  0  0  0  0
   57.1310   23.4950   43.7700 C   0  0  0  0  0  0  0  0  0  0  0  0
   57.7300   22.7120   44.7590 C   0  0  0  0  0  0  0  0  0  0  0  0
   58.5240   23.3140   45.7380 C   0  0  0  0  0  0  0  0  0  0  0  0
   58.7140   24.6990   45.7360 C   0  0  0  0  0  0  0  0  0  0  0  0
   56.2090   27.4820   44.5360 H   0  0  0  0  0  0  0  0  0  0  0  0
   56.6820   29.2679   42.3130 H   0  0  0  0  0  0  0  0  0  0  0  0
   56.9257   31.7280   42.0148 H   0  0  0  0  0  0  0  0  0  0  0  0
   58.2832   35.2791   44.7196 H   0  0  0  0  0  0  0  0  0  0  0  0
   58.9777   35.5998   46.7989 H   0  0  0  0  0  0  0  0  0  0  0  0
   58.2778   34.4761   48.0223 H   0  0  0  0  0  0  0  0  0  0  0  0
   61.1103   33.8590   45.6169 H   0  0  0  0  0  0  0  0  0  0  0  0
   63.3868   33.1860   46.3834 H   0  0  0  0  0  0  0  0  0  0  0  0
   62.1701   33.7384   50.4985 H   0  0  0  0  0  0  0  0  0  0  0  0
   59.8913   34.4110   49.7378 H   0  0  0  0  0  0  0  0  0  0  0  0
   58.0513   29.6179   46.4070 H   0  0  0  0  0  0  0  0  0  0  0  0
   56.8482   25.4896   42.9761 H   0  0  0  0  0  0  0  0  0  0  0  0
   56.5105   23.0206   42.9954 H   0  0  0  0  0  0  0  0  0  0  0  0
   57.5768   21.6227   44.7671 H   0  0  0  0  0  0  0  0  0  0  0  0
   59.0013   22.6963   46.5130 H   0  0  0  0  0  0  0  0  0  0  0  0
   59.3444   25.1654   46.5074 H   0  0  0  0  0  0  0  0  0  0  0  0
  1  2  2  0
  2  3  1  0
  3  4  1  0
  4  5  2  0
  5  6  1  0
  6  7  2  0
  7  8  1  0
  8  9  2  0
  9 10  1  0
 10 11  1  0
 11 12  1  0
 12 13  2  0
 13 14  1  0
 14 15  2  0
 15 16  1  0
 15 17  1  0
 17 18  2  0
 10 19  1  0
 19 20  2  0
 19 21  1  0
 21 22  2  0
  2 23  1  0
 23 24  2  0
 24 25  1  0
 25 26  2  0
 26 27  1  0
 27 28  2  0
 22  4  1  0
 28 23  1  0
 21  7  1  0
 18 12  1  0
  3 29  1  0
  5 30  1  0
  6 31  1  0
  9 32  1  0
 11 33  1  0
 11 34  1  0
 13 35  1  0
 14 36  1  0
 17 37  1  0
 18 38  1  0
 22 39  1  0
 24 40  1  0
 25 41  1  0
 26 42  1  0
 27 43  1  0
 28 44  1  0
M  END
>  <UniqueID>  (25) 
23

>  <SMILES>  (25) 
O=C(Nc1ccc2ncn(Cc3ccc(Cl)cc3)c(=O)c2c1)c1ccccc1

>  <Energy>  (25) 
61.448940129701164

>  <Genealogy>  (25) 
O=C(Nc1ccc2ncn(Cc3ccc(Cl)cc3)c(=O)c2c1)c1ccccc1 (3D coordinates assigned)
O=C(Nc1ccc2ncn(Cc3ccc(Cl)cc3)c(=O)c2c1)c1ccccc1 (optimized conformer: 61.448940129701164 kcal/mol)

>  <smiles>  (25) 
O=C(Nc1ccc2ncn(Cc3ccc(Cl)cc3)c(=O)c2c1)c1ccccc1

>  <score_type>  (25) 
oracle

>  <origin>  (25) 
adg

>  <m_score__min__energy>  (25) 
-9.1999999999999993

>  <m_primary>  (25) 
energy

$$$$
25:0
     RDKit          3D

 31 32  0  0  0  0  0  0  0  0999 V2000
   59.5425   35.3053   47.5865 H   0  0  0  0  0  0  0  0  0  0  0  0
   59.1120   34.6250   46.8370 C   0  0  0  0  0  0  0  0  0  0  0  0
   58.3270   33.5440   47.2450 C   0  0  0  0  0  0  0  0  0  0  0  0
   58.1380   33.3750   48.3154 H   0  0  0  0  0  0  0  0  0  0  0  0
   57.7810   32.6760   46.2930 C   0  0  0  0  0  0  0  0  0  0  0  0
   57.1571   31.8301   46.6173 H   0  0  0  0  0  0  0  0  0  0  0  0
   58.0260   32.8800   44.9250 C   0  0  0  0  0  0  0  0  0  0  0  0
   57.4160   31.9690   43.8950 C   0  0  0  0  0  0  0  0  0  0  0  0
   58.1379   31.8039   43.0816 H   0  0  0  0  0  0  0  0  0  0  0  0
   56.5037   32.4358   43.4954 H   0  0  0  0  0  0  0  0  0  0  0  0
   57.0610   30.6490   44.5210 C   0  0  0  0  0  0  0  0  0  0  0  0
   55.8670   30.2540   44.4950 O   0  0  0  0  0  0  0  0  0  0  0  0
   58.0770   29.7710   45.0230 N   0  0  0  0  0  0  0  0  0  0  0  0
   57.8940   28.6050   45.5770 C   0  0  0  0  0  0  0  0  0  0  0  0
   58.8300   28.1540   46.5150 C   0  0  0  0  0  0  0  0  0  0  0  0
   59.6966   28.7802   46.7737 H   0  0  0  0  0  0  0  0  0  0  0  0
   58.6620   26.9110   47.1200 C   0  0  0  0  0  0  0  0  0  0  0  0
   59.3853   26.5633   47.8723 H   0  0  0  0  0  0  0  0  0  0  0  0
   57.5730   26.1040   46.7710 C   0  0  0  0  0  0  0  0  0  0  0  0
   57.3560   24.7810   47.4420 C   0  0  0  0  0  0  0  0  0  0  0  0
   57.3781   24.9155   48.5335 H   0  0  0  0  0  0  0  0  0  0  0  0
   56.3791   24.3738   47.1424 H   0  0  0  0  0  0  0  0  0  0  0  0
   58.1517   24.0830   47.1424 H   0  0  0  0  0  0  0  0  0  0  0  0
   56.6580   26.5810   45.8240 C   0  0  0  0  0  0  0  0  0  0  0  0
   55.7877   25.9674   45.5483 H   0  0  0  0  0  0  0  0  0  0  0  0
   56.8380   27.7990   45.2420 N   0  0  0  0  0  0  0  0  0  0  0  0
   56.1520   28.0820   44.5070 H   0  0  0  0  0  0  0  0  0  0  0  0
   58.8070   33.9780   44.5220 C   0  0  0  0  0  0  0  0  0  0  0  0
   58.9906   34.1571   43.4523 H   0  0  0  0  0  0  0  0  0  0  0  0
   59.3510   34.8430   45.4770 C   0  0  0  0  0  0  0  0  0  0  0  0
   59.9677   35.6960   45.1575 H   0  0  0  0  0  0  0  0  0  0  0  0
  1  2  1  0
  2  3  2  0
  3  4  1  0
  3  5  1  0
  5  6  1  0
  5  7  2  0
  7  8  1  0
  8  9  1  0
  8 10  1  0
  8 11  1  0
 11 12  2  0
 11 13  1  0
 13 14  2  0
 14 15  1  0
 15 16  1  0
 15 17  2  0
 17 18  1  0
 17 19  1  0
 19 20  1  0
 20 21  1  0
 20 22  1  0
 20 23  1  0
 19 24  2  0
 24 25  1  0
 24 26  1  0
 26 27  1  0
  7 28  1  0
 28 29  1  0
 28 30  2  0
 30 31  1  0
 30  2  1  0
 26 14  1  0
M  END
>  <UniqueID>  (26) 
24

>  <SMILES>  (26) 
Cc1cc/c(=N/C(=O)Cc2ccccc2)[nH]c1

>  <Energy>  (26) 
38.201656309314586

>  <Genealogy>  (26) 
Cc1cc/c(=N/C(=O)Cc2ccccc2)[nH]c1 (cis-trans isomerization)
Cc1cc/c(=N/C(=O)Cc2ccccc2)[nH]c1 (3D coordinates assigned)
Cc1cc/c(=N/C(=O)Cc2ccccc2)[nH]c1 (optimized conformer: 38.201656309314586 kcal/mol)

>  <smiles>  (26) 
Cc1ccc(=NC(=O)Cc2ccccc2)[nH]c1

>  <score_type>  (26) 
oracle

>  <origin>  (26) 
adg

>  <m_score__min__energy>  (26) 
-6.9100000000000001

>  <m_primary>  (26) 
energy

$$$$
26:0
     RDKit          3D

 33 34  0  0  0  0  0  0  0  0999 V2000
   55.9400   25.2620   46.0920 C   0  0  0  0  0  0  0  0  0  0  0  0
   56.7210   26.2770   45.3950 N   0  0  0  0  0  0  0  0  0  0  0  0
   58.0240   26.6680   45.8420 C   0  0  0  0  0  0  0  0  0  0  0  0
   58.5490   26.0970   46.8380 O   0  0  0  0  0  0  0  0  0  0  0  0
   58.7860   27.7360   45.1020 C   0  0  2  0  0  0  0  0  0  0  0  0
   60.2230   27.8430   45.6230 C   0  0  0  0  0  0  0  0  0  0  0  0
   60.5000   29.3340   45.7890 C   0  0  0  0  0  0  0  0  0  0  0  0
   59.1390   30.0110   45.8550 C   0  0  0  0  0  0  0  0  0  0  0  0
   58.1920   29.0520   45.3110 N   0  0  0  0  0  0  0  0  0  0  0  0
   56.8830   29.4470   44.8560 C   0  0  0  0  0  0  0  0  0  0  0  0
   55.8780   28.7610   45.1910 O   0  0  0  0  0  0  0  0  0  0  0  0
   56.6830   30.6980   44.0390 C   0  0  0  0  0  0  0  0  0  0  0  0
   56.4150   31.8250   44.8720 O   0  0  0  0  0  0  0  0  0  0  0  0
   57.3880   32.7750   45.1970 C   0  0  0  0  0  0  0  0  0  0  0  0
   58.1510   33.4210   44.2870 N   0  0  0  0  0  0  0  0  0  0  0  0
   59.0070   34.2930   44.8830 C   0  0  0  0  0  0  0  0  0  0  0  0
   58.9290   34.3410   46.2700 C   0  0  0  0  0  0  0  0  0  0  0  0
   57.7440   33.2540   46.7650 S   0  0  0  0  0  0  0  0  0  0  0  0
   56.0459   25.3997   47.1782 H   0  0  0  0  0  0  0  0  0  0  0  0
   54.8806   25.3580   45.8118 H   0  0  0  0  0  0  0  0  0  0  0  0
   56.3042   24.2626   45.8118 H   0  0  0  0  0  0  0  0  0  0  0  0
   56.3050   26.7390   44.5550 H   0  0  0  0  0  0  0  0  0  0  0  0
   58.7590   27.4496   44.0403 H   0  0  0  0  0  0  0  0  0  0  0  0
   60.3186   27.3265   46.5895 H   0  0  0  0  0  0  0  0  0  0  0  0
   60.9385   27.3748   44.9310 H   0  0  0  0  0  0  0  0  0  0  0  0
   61.0628   29.5169   46.7163 H   0  0  0  0  0  0  0  0  0  0  0  0
   61.1039   29.7257   44.9572 H   0  0  0  0  0  0  0  0  0  0  0  0
   58.8823   30.2539   46.8967 H   0  0  0  0  0  0  0  0  0  0  0  0
   59.1288   30.9547   45.2899 H   0  0  0  0  0  0  0  0  0  0  0  0
   57.5940   30.8934   43.4543 H   0  0  0  0  0  0  0  0  0  0  0  0
   55.8194   30.5443   43.3752 H   0  0  0  0  0  0  0  0  0  0  0  0
   59.7099   34.9151   44.3095 H   0  0  0  0  0  0  0  0  0  0  0  0
   59.5363   34.9787   46.9292 H   0  0  0  0  0  0  0  0  0  0  0  0
  1  2  1  0
  2  3  1  0
  3  4  2  0
  3  5  1  0
  5  6  1  0
  6  7  1  0
  7  8  1  0
  8  9  1  0
  9 10  1  0
 10 11  2  0
 10 12  1  0
 12 13  1  0
 13 14  1  0
 14 15  2  0
 15 16  1  0
 16 17  2  0
 17 18  1  0
  9  5  1  0
 18 14  1  0
  1 19  1  0
  1 20  1  0
  1 21  1  0
  2 22  1  0
  5 23  1  6
  6 24  1  0
  6 25  1  0
  7 26  1  0
  7 27  1  0
  8 28  1  0
  8 29  1  0
 12 30  1  0
 12 31  1  0
 16 32  1  0
 17 33  1  0
M  END
>  <UniqueID>  (27) 
25

>  <SMILES>  (27) 
CNC(=O)[C@@H]1CCCN1C(=O)COc1nccs1

>  <Energy>  (27) 
56.89315277138808

>  <Genealogy>  (27) 
CNC(=O)[C@@H]1CCCN1C(=O)COc1nccs1 (chirality)
CNC(=O)[C@@H]1CCCN1C(=O)COc1nccs1 (3D coordinates assigned)
CNC(=O)[C@@H]1CCCN1C(=O)COc1nccs1 (nonaromatic ring conformer: 56.89315277138808 kcal/mol)

>  <smiles>  (27) 
CNC(=O)C1CCCN1C(=O)COc1nccs1

>  <score_type>  (27) 
oracle

>  <origin>  (27) 
adg

>  <m_score__min__energy>  (27) 
-6.0999999999999996

>  <m_primary>  (27) 
energy

$$$$
27:0
     RDKit          3D

 33 35  0  0  0  0  0  0  0  0999 V2000
   59.2760   34.6140   48.6160 C   0  0  0  0  0  0  0  0  0  0  0  0
   60.0370   34.0650   47.4110 C   0  0  2  0  0  0  0  0  0  0  0  0
   61.4900   33.7990   47.7500 C   0  0  0  0  0  0  0  0  0  0  0  0
   61.9320   33.8530   49.0850 C   0  0  0  0  0  0  0  0  0  0  0  0
   63.2630   33.5650   49.4000 C   0  0  0  0  0  0  0  0  0  0  0  0
   64.1610   33.2060   48.3930 C   0  0  0  0  0  0  0  0  0  0  0  0
   63.7270   33.1250   47.0670 C   0  0  0  0  0  0  0  0  0  0  0  0
   62.3960   33.4110   46.7460 C   0  0  0  0  0  0  0  0  0  0  0  0
   59.9220   34.9560   46.3060 O   0  0  0  0  0  0  0  0  0  0  0  0
   59.2800   34.3560   45.2500 N   0  0  0  0  0  0  0  0  0  0  0  0
   58.9850   33.1580   45.6200 C   0  0  0  0  0  0  0  0  0  0  0  0
   58.2840   32.1810   44.7630 C   0  0  0  0  0  0  0  0  0  0  0  0
   58.0680   32.4410   43.3980 C   0  0  0  0  0  0  0  0  0  0  0  0
   57.4040   31.5080   42.5970 C   0  0  0  0  0  0  0  0  0  0  0  0
   56.9480   30.3020   43.1480 C   0  0  0  0  0  0  0  0  0  0  0  0
   56.2700   29.3470   42.3280 N   0  0  0  0  0  0  0  0  0  0  0  0
   57.1630   30.0380   44.5070 C   0  0  0  0  0  0  0  0  0  0  0  0
   57.8260   30.9710   45.3100 C   0  0  0  0  0  0  0  0  0  0  0  0
   59.4010   32.8910   46.9160 O   0  0  0  0  0  0  0  0  0  0  0  0
   59.7569   34.2671   49.5425 H   0  0  0  0  0  0  0  0  0  0  0  0
   59.2870   35.7136   48.5867 H   0  0  0  0  0  0  0  0  0  0  0  0
   58.2360   34.2568   48.5867 H   0  0  0  0  0  0  0  0  0  0  0  0
   61.2265   34.1232   49.8846 H   0  0  0  0  0  0  0  0  0  0  0  0
   63.6040   33.6214   50.4443 H   0  0  0  0  0  0  0  0  0  0  0  0
   65.2096   32.9870   48.6432 H   0  0  0  0  0  0  0  0  0  0  0  0
   64.4331   32.8359   46.2747 H   0  0  0  0  0  0  0  0  0  0  0  0
   62.0558   33.3321   45.7029 H   0  0  0  0  0  0  0  0  0  0  0  0
   58.4238   33.3844   42.9581 H   0  0  0  0  0  0  0  0  0  0  0  0
   57.2385   31.7205   41.5305 H   0  0  0  0  0  0  0  0  0  0  0  0
   55.7080   29.6530   41.5030 H   0  0  0  0  0  0  0  0  0  0  0  0
   56.3250   28.3260   42.5390 H   0  0  0  0  0  0  0  0  0  0  0  0
   56.8087   29.0928   44.9441 H   0  0  0  0  0  0  0  0  0  0  0  0
   57.9899   30.7562   46.3763 H   0  0  0  0  0  0  0  0  0  0  0  0
  2  1  1  1
  2  3  1  0
  3  4  2  0
  4  5  1  0
  5  6  2  0
  6  7  1  0
  7  8  2  0
  2  9  1  0
  9 10  1  0
 10 11  2  0
 11 12  1  0
 12 13  2  0
 13 14  1  0
 14 15  2  0
 15 16  1  0
 15 17  1  0
 17 18  2  0
 11 19  1  0
 19  2  1  0
  8  3  1  0
 18 12  1  0
  1 20  1  0
  1 21  1  0
  1 22  1  0
  4 23  1  0
  5 24  1  0
  6 25  1  0
  7 26  1  0
  8 27  1  0
 13 28  1  0
 14 29  1  0
 16 30  1  0
 16 31  1  0
 17 32  1  0
 18 33  1  0
M  END
>  <UniqueID>  (28) 
26

>  <SMILES>  (28) 
C[C@]1(c2ccccc2)ON=C(c2ccc(N)cc2)O1

>  <Energy>  (28) 
56.356222618643656

>  <Genealogy>  (28) 
C[C@]1(c2ccccc2)ON=C(c2ccc(N)cc2)O1 (chirality)
C[C@]1(c2ccccc2)ON=C(c2ccc(N)cc2)O1 (3D coordinates assigned)
C[C@]1(c2ccccc2)ON=C(c2ccc(N)cc2)O1 (nonaromatic ring conformer: 56.356222618643656 kcal/mol)

>  <smiles>  (28) 
CC1(c2ccccc2)ON=C(c2ccc(N)cc2)O1

>  <score_type>  (28) 
oracle

>  <origin>  (28) 
adg

>  <m_score__min__energy>  (28) 
-7.46

>  <m_primary>  (28) 
energy

$$$$
28:0
     RDKit          3D

 30 31  0  0  0  0  0  0  0  0999 V2000
   57.7070   35.5147   45.9268 H   0  0  0  0  0  0  0  0  0  0  0  0
   58.0360   34.4650   45.9240 C   0  0  0  0  0  0  0  0  0  0  0  0
   58.0820   33.7500   44.7240 C   0  0  0  0  0  0  0  0  0  0  0  0
   57.7849   34.2366   43.7833 H   0  0  0  0  0  0  0  0  0  0  0  0
   58.5050   32.4170   44.7170 C   0  0  0  0  0  0  0  0  0  0  0  0
   58.5318   31.8560   43.7712 H   0  0  0  0  0  0  0  0  0  0  0  0
   58.8960   31.7910   45.9130 C   0  0  0  0  0  0  0  0  0  0  0  0
   59.3130   30.3650   45.9010 C   0  0  0  0  0  0  0  0  0  0  0  0
   60.6180   29.9970   45.9720 C   0  0  0  0  0  0  0  0  0  0  0  0
   61.5290   30.6500   46.8870 C   0  0  0  0  0  0  0  0  0  0  0  0
   62.2590   31.1720   47.6170 N   0  0  0  0  0  0  0  0  0  0  0  0
   61.1810   28.8950   45.1140 C   0  0  0  0  0  0  0  0  0  0  0  0
   61.5869   28.1004   45.7574 H   0  0  0  0  0  0  0  0  0  0  0  0
   60.3839   28.4812   44.4789 H   0  0  0  0  0  0  0  0  0  0  0  0
   61.9835   29.2984   44.4789 H   0  0  0  0  0  0  0  0  0  0  0  0
   58.2310   29.3560   45.8310 C   0  0  0  0  0  0  0  0  0  0  0  0
   58.3920   28.1140   46.4640 C   0  0  0  0  0  0  0  0  0  0  0  0
   59.3295   27.8854   46.9920 H   0  0  0  0  0  0  0  0  0  0  0  0
   57.3650   27.1660   46.4260 C   0  0  0  0  0  0  0  0  0  0  0  0
   57.4991   26.1909   46.9172 H   0  0  0  0  0  0  0  0  0  0  0  0
   56.1670   27.4560   45.7640 C   0  0  0  0  0  0  0  0  0  0  0  0
   55.1510   26.5090   45.7290 O   0  0  0  0  0  0  0  0  0  0  0  0
   55.9930   28.7000   45.1450 C   0  0  0  0  0  0  0  0  0  0  0  0
   54.8010   28.9970   44.4940 O   0  0  0  0  0  0  0  0  0  0  0  0
   57.0210   29.6480   45.1820 C   0  0  0  0  0  0  0  0  0  0  0  0
   56.8805   30.6269   44.7003 H   0  0  0  0  0  0  0  0  0  0  0  0
   58.8310   32.5130   47.1190 C   0  0  0  0  0  0  0  0  0  0  0  0
   59.1139   32.0272   48.0645 H   0  0  0  0  0  0  0  0  0  0  0  0
   58.4080   33.8460   47.1200 C   0  0  0  0  0  0  0  0  0  0  0  0
   58.3681   34.4084   48.0645 H   0  0  0  0  0  0  0  0  0  0  0  0
  1  2  1  0
  2  3  2  0
  3  4  1  0
  3  5  1  0
  5  6  1  0
  5  7  2  0
  7  8  1  0
  8  9  2  0
  9 10  1  0
 10 11  3  0
  9 12  1  0
 12 13  1  0
 12 14  1  0
 12 15  1  0
  8 16  1  0
 16 17  2  0
 17 18  1  0
 17 19  1  0
 19 20  1  0
 19 21  2  0
 21 22  1  0
 21 23  1  0
 23 24  1  0
 23 25  2  0
 25 26  1  0
  7 27  1  0
 27 28  1  0
 27 29  2  0
 29 30  1  0
 29  2  1  0
 25 16  1  0
M  CHG  2  22  -1  24  -1
M  END
>  <UniqueID>  (29) 
27

>  <SMILES>  (29) 
C/C(C#N)=C(/c1ccccc1)c1ccc([O-])c([O-])c1

>  <Energy>  (29) 
43.33064123459351

>  <Genealogy>  (29) 
CC(C#N)=C(c1ccccc1)c1ccc([O-])c([O-])c1 (protonated)
C/C(C#N)=C(/c1ccccc1)c1ccc([O-])c([O-])c1 (cis-trans isomerization)
C/C(C#N)=C(/c1ccccc1)c1ccc([O-])c([O-])c1 (3D coordinates assigned)
C/C(C#N)=C(/c1ccccc1)c1ccc([O-])c([O-])c1 (optimized conformer: 43.33064123459351 kcal/mol)

>  <smiles>  (29) 
CC(C#N)=C(c1ccccc1)c1ccc(O)c(O)c1

>  <score_type>  (29) 
oracle

>  <origin>  (29) 
adg

>  <m_score__min__energy>  (29) 
-14.83

>  <m_primary>  (29) 
energy

$$$$
29:0
     RDKit          3D

 40 43  0  0  0  0  0  0  0  0999 V2000
   64.8750   32.5210   49.7070 C   0  0  0  0  0  0  0  0  0  0  0  0
   63.6130   32.8680   48.9940 C   0  0  0  0  0  0  0  0  0  0  0  0
   62.3810   32.6670   49.5250 N   0  0  0  0  0  0  0  0  0  0  0  0
   61.4100   33.0040   48.6380 C   0  0  0  0  0  0  0  0  0  0  0  0
   60.0420   32.9190   48.8960 C   0  0  0  0  0  0  0  0  0  0  0  0
   59.1400   33.2990   47.8890 C   0  0  0  0  0  0  0  0  0  0  0  0
   59.6090   33.7650   46.6400 C   0  0  0  0  0  0  0  0  0  0  0  0
   58.4820   34.2650   45.3830 S   0  0  0  0  0  0  0  0  0  0  0  0
   57.1090   34.3840   45.9820 O   0  0  0  0  0  0  0  0  0  0  0  0
   58.8670   35.5990   44.8070 O   0  0  0  0  0  0  0  0  0  0  0  0
   58.4510   33.0740   44.1230 N   0  0  0  0  0  0  0  0  0  0  0  0
   58.1460   31.6840   44.3030 C   0  0  0  0  0  0  0  0  0  0  0  0
   58.8670   30.9580   45.2590 C   0  0  0  0  0  0  0  0  0  0  0  0
   58.6060   29.6000   45.4680 C   0  0  0  0  0  0  0  0  0  0  0  0
   57.6090   28.9440   44.7240 C   0  0  0  0  0  0  0  0  0  0  0  0
   57.3220   27.5090   44.9480 C   0  0  0  0  0  0  0  0  0  0  0  0
   57.9870   26.6330   44.3290 O   0  0  0  0  0  0  0  0  0  0  0  0
   56.3000   27.1210   45.8810 N   0  0  0  0  0  0  0  0  0  0  0  0
   55.8450   25.9160   46.0650 C   0  0  0  0  0  0  0  0  0  0  0  0
   54.6240   25.4910   45.6700 N   0  0  0  0  0  0  0  0  0  0  0  0
   54.4170   24.1900   46.0070 C   0  0  0  0  0  0  0  0  0  0  0  0
   55.4740   23.5770   46.6740 C   0  0  0  0  0  0  0  0  0  0  0  0
   56.7090   24.7080   46.8440 S   0  0  0  0  0  0  0  0  0  0  0  0
   56.8840   29.6760   43.7670 C   0  0  0  0  0  0  0  0  0  0  0  0
   57.1540   31.0310   43.5540 C   0  0  0  0  0  0  0  0  0  0  0  0
   60.9940   33.8440   46.3960 C   0  0  0  0  0  0  0  0  0  0  0  0
   61.8640   33.4580   47.4100 C   0  0  0  0  0  0  0  0  0  0  0  0
   63.5430   33.4430   47.4030 S   0  0  0  0  0  0  0  0  0  0  0  0
   64.7071   32.5672   50.7931 H   0  0  0  0  0  0  0  0  0  0  0  0
   65.1865   31.5039   49.4270 H   0  0  0  0  0  0  0  0  0  0  0  0
   65.6628   33.2359   49.4270 H   0  0  0  0  0  0  0  0  0  0  0  0
   59.6765   32.5611   49.8698 H   0  0  0  0  0  0  0  0  0  0  0  0
   58.0577   33.2333   48.0742 H   0  0  0  0  0  0  0  0  0  0  0  0
   59.6460   31.4605   45.8512 H   0  0  0  0  0  0  0  0  0  0  0  0
   59.1841   29.0415   46.2189 H   0  0  0  0  0  0  0  0  0  0  0  0
   53.4824   23.6605   45.7699 H   0  0  0  0  0  0  0  0  0  0  0  0
   55.4980   22.5358   47.0280 H   0  0  0  0  0  0  0  0  0  0  0  0
   56.0975   29.1781   43.1809 H   0  0  0  0  0  0  0  0  0  0  0  0
   56.5859   31.5890   42.7951 H   0  0  0  0  0  0  0  0  0  0  0  0
   61.3774   34.2016   45.4290 H   0  0  0  0  0  0  0  0  0  0  0  0
  1  2  1  0
  2  3  2  0
  3  4  1  0
  4  5  2  0
  5  6  1  0
  6  7  2  0
  7  8  1  0
  8  9  2  0
  8 10  2  0
  8 11  1  0
 11 12  1  0
 12 13  2  0
 13 14  1  0
 14 15  2  0
 15 16  1  0
 16 17  2  0
 16 18  1  0
 18 19  2  3
 19 20  1  0
 20 21  1  0
 21 22  2  0
 22 23  1  0
 15 24  1  0
 24 25  2  0
  7 26  1  0
 26 27  2  0
 27 28  1  0
 28  2  1  0
 27  4  1  0
 25 12  1  0
 23 19  1  0
  1 29  1  0
  1 30  1  0
  1 31  1  0
  5 32  1  0
  6 33  1  0
 13 34  1  0
 14 35  1  0
 21 36  1  0
 22 37  1  0
 24 38  1  0
 25 39  1  0
 26 40  1  0
M  CHG  2  11  -1  20  -1
M  END
>  <UniqueID>  (30) 
28

>  <SMILES>  (30) 
Cc1nc2ccc(S(=O)(=O)[N-]c3ccc(C(=O)N=c4[n-]ccs4)cc3)cc2s1

>  <Energy>  (30) 
113.60005314823817

>  <Genealogy>  (30) 
Cc1nc2ccc(S(=O)(=O)[N-]c3ccc(C(=O)N=c4[n-]ccs4)cc3)cc2s1 (protonated)
Cc1nc2ccc(S(=O)(=O)[N-]c3ccc(C(=O)N=c4[n-]ccs4)cc3)cc2s1 (3D coordinates assigned)
Cc1nc2ccc(S(=O)(=O)[N-]c3ccc(C(=O)N=c4[n-]ccs4)cc3)cc2s1 (optimized conformer: 113.60005314823817 kcal/mol)

>  <smiles>  (30) 
Cc1nc2ccc(S(=O)(=O)Nc3ccc(C(=O)N=c4[nH]ccs4)cc3)cc2s1

>  <score_type>  (30) 
oracle

>  <origin>  (30) 
adg

>  <m_score__min__energy>  (30) 
-12.029999999999999

>  <m_primary>  (30) 
energy

$$$$
30:0
     RDKit          3D

 59 61  0  0  0  0  0  0  0  0999 V2000
   63.3051   34.6994   45.9301 H   0  0  0  0  0  0  0  0  0  0  0  0
   62.8690   33.8130   46.4140 C   0  0  0  0  0  0  0  0  0  0  0  0
   61.5820   33.6340   46.3670 N   0  0  0  0  0  0  0  0  0  0  0  0
   60.6670   34.3920   47.2250 C   0  0  2  0  0  0  0  0  0  0  0  0
   61.2198   35.2374   47.6606 H   0  0  0  0  0  0  0  0  0  0  0  0
   60.1760   33.5510   48.4010 C   0  0  0  0  0  0  0  0  0  0  0  0
   60.1540   34.1590   49.6740 C   0  0  0  0  0  0  0  0  0  0  0  0
   60.5313   35.1858   49.7895 H   0  0  0  0  0  0  0  0  0  0  0  0
   59.6620   33.4800   50.7880 C   0  0  0  0  0  0  0  0  0  0  0  0
   59.6609   33.9700   51.7728 H   0  0  0  0  0  0  0  0  0  0  0  0
   59.1720   32.1830   50.6570 C   0  0  0  0  0  0  0  0  0  0  0  0
   58.7801   31.6507   51.5363 H   0  0  0  0  0  0  0  0  0  0  0  0
   59.1790   31.5610   49.4110 C   0  0  0  0  0  0  0  0  0  0  0  0
   58.7890   30.5372   49.3128 H   0  0  0  0  0  0  0  0  0  0  0  0
   59.6780   32.2250   48.2780 C   0  0  0  0  0  0  0  0  0  0  0  0
   59.6970   31.5090   47.0330 N   0  0  0  0  0  0  0  0  0  0  0  0
   58.7780   31.9050   45.9600 C   0  0  0  0  0  0  0  0  0  0  0  0
   58.2346   32.8120   46.2634 H   0  0  0  0  0  0  0  0  0  0  0  0
   59.3574   32.1021   45.0460 H   0  0  0  0  0  0  0  0  0  0  0  0
   57.7720   30.7810   45.6820 C   0  0  0  0  0  0  0  0  0  0  0  0
   57.0259   30.7649   46.4902 H   0  0  0  0  0  0  0  0  0  0  0  0
   57.3015   30.9811   44.7081 H   0  0  0  0  0  0  0  0  0  0  0  0
   58.4220   29.4600   45.6090 N   0  0  0  0  0  0  0  0  0  0  0  0
   57.5920   28.3060   45.3330 C   0  0  0  0  0  0  0  0  0  0  0  0
   56.4240   28.4890   44.8870 O   0  0  0  0  0  0  0  0  0  0  0  0
   58.0440   26.8880   45.6430 C   0  0  0  0  0  0  0  0  0  0  0  0
   59.1341   26.8668   45.4977 H   0  0  0  0  0  0  0  0  0  0  0  0
   57.7040   26.5170   47.1040 C   0  0  0  0  0  0  0  0  0  0  0  0
   58.4758   26.9346   47.7673 H   0  0  0  0  0  0  0  0  0  0  0  0
   56.7140   26.9325   47.3433 H   0  0  0  0  0  0  0  0  0  0  0  0
   57.6470   24.9910   47.3020 C   0  0  0  0  0  0  0  0  0  0  0  0
   57.9996   24.7454   48.3146 H   0  0  0  0  0  0  0  0  0  0  0  0
   56.6078   24.6566   47.1666 H   0  0  0  0  0  0  0  0  0  0  0  0
   58.4620   24.3310   46.3550 O   0  0  0  0  0  0  0  0  0  0  0  0
   57.8800   24.4170   45.0630 C   0  0  0  0  0  0  0  0  0  0  0  0
   58.6223   24.0826   44.3233 H   0  0  0  0  0  0  0  0  0  0  0  0
   56.9825   23.7811   45.0684 H   0  0  0  0  0  0  0  0  0  0  0  0
   57.4240   25.8470   44.6880 C   0  0  0  0  0  0  0  0  0  0  0  0
   57.7413   26.0683   43.6583 H   0  0  0  0  0  0  0  0  0  0  0  0
   56.3285   25.9008   44.7711 H   0  0  0  0  0  0  0  0  0  0  0  0
   59.8840   29.3810   45.7740 C   0  0  0  0  0  0  0  0  0  0  0  0
   60.1834   28.3288   45.8891 H   0  0  0  0  0  0  0  0  0  0  0  0
   60.3760   29.8082   44.8877 H   0  0  0  0  0  0  0  0  0  0  0  0
   60.3020   30.1690   47.0180 C   0  0  0  0  0  0  0  0  0  0  0  0
   59.9783   29.6202   47.9147 H   0  0  0  0  0  0  0  0  0  0  0  0
   61.3959   30.2834   47.0038 H   0  0  0  0  0  0  0  0  0  0  0  0
   59.5070   34.9820   46.3940 C   0  0  0  0  0  0  0  0  0  0  0  0
   59.5121   36.0756   46.5120 H   0  0  0  0  0  0  0  0  0  0  0  0
   58.5742   34.5332   46.7661 H   0  0  0  0  0  0  0  0  0  0  0  0
   59.6110   34.6520   44.9040 C   0  0  0  0  0  0  0  0  0  0  0  0
   59.9396   33.6094   44.7814 H   0  0  0  0  0  0  0  0  0  0  0  0
   58.6275   34.7847   44.4295 H   0  0  0  0  0  0  0  0  0  0  0  0
   60.3407   35.3246   44.4295 H   0  0  0  0  0  0  0  0  0  0  0  0
   63.7330   32.8850   47.0800 N   0  0  0  0  0  0  0  0  0  0  0  0
   64.7600   33.0720   47.0690 H   0  0  0  0  0  0  0  0  0  0  0  0
   63.2440   31.7020   47.7730 C   0  0  0  0  0  0  0  0  0  0  0  0
   63.3094   31.8603   48.8596 H   0  0  0  0  0  0  0  0  0  0  0  0
   62.1965   31.5190   47.4916 H   0  0  0  0  0  0  0  0  0  0  0  0
   63.8565   30.8328   47.4916 H   0  0  0  0  0  0  0  0  0  0  0  0
  1  2  1  0
  2  3  2  0
  3  4  1  0
  4  5  1  1
  4  6  1  0
  6  7  2  0
  7  8  1  0
  7  9  1  0
  9 10  1  0
  9 11  2  0
 11 12  1  0
 11 13  1  0
 13 14  1  0
 13 15  2  0
 15 16  1  0
 16 17  1  0
 17 18  1  0
 17 19  1  0
 17 20  1  0
 20 21  1  0
 20 22  1  0
 20 23  1  0
 23 24  1  0
 24 25  2  0
 24 26  1  0
 26 27  1  0
 26 28  1  0
 28 29  1  0
 28 30  1  0
 28 31  1  0
 31 32  1  0
 31 33  1  0
 31 34  1  0
 34 35  1  0
 35 36  1  0
 35 37  1  0
 35 38  1  0
 38 39  1  0
 38 40  1  0
 23 41  1  0
 41 42  1  0
 41 43  1  0
 41 44  1  0
 44 45  1  0
 44 46  1  0
  4 47  1  0
 47 48  1  0
 47 49  1  0
 47 50  1  0
 50 51  1  0
 50 52  1  0
 50 53  1  0
  2 54  1  0
 54 55  1  0
 54 56  1  0
 56 57  1  0
 56 58  1  0
 56 59  1  0
 15  6  1  0
 44 16  1  0
 38 26  1  0
M  END
>  <UniqueID>  (31) 
29

>  <SMILES>  (31) 
CC[C@H](/N=C/NC)c1ccccc1N1CCN(C(=O)C2CCOCC2)CC1

>  <Energy>  (31) 
67.75105080158346

>  <Genealogy>  (31) 
CC[C@H](N=CNC)c1ccccc1N1CCN(C(=O)C2CCOCC2)CC1 (chirality)
CC[C@H](/N=C/NC)c1ccccc1N1CCN(C(=O)C2CCOCC2)CC1 (cis-trans isomerization)
CC[C@H](/N=C/NC)c1ccccc1N1CCN(C(=O)C2CCOCC2)CC1 (3D coordinates assigned)
CC[C@H](/N=C/NC)c1ccccc1N1CCN(C(=O)C2CCOCC2)CC1 (nonaromatic ring conformer: 67.75105080158346 kcal/mol)

>  <smiles>  (31) 
CCC(N=CNC)c1ccccc1N1CCN(C(=O)C2CCOCC2)CC1

>  <score_type>  (31) 
oracle

>  <origin>  (31) 
adg

>  <m_score__min__energy>  (31) 
-8.2599999999999998

>  <m_primary>  (31) 
energy

$$$$
31:0
     RDKit          3D

 32 34  0  0  1  0  0  0  0  0999 V2000
   57.7520   32.4470   40.9230 C   0  0  0  0  0  0  0  0  0  0  0  0
   57.9990   32.2540   42.3950 C   0  0  0  0  0  0  0  0  0  0  0  0
   57.0870   31.1750   42.8650 C   0  0  0  0  0  0  0  0  0  0  0  0
   56.4800   30.2230   42.1370 N   0  0  0  0  0  0  0  0  0  0  0  0
   55.7430   29.4330   42.8880 N   0  0  0  0  0  0  0  0  0  0  0  0
   55.8850   29.9010   44.1550 C   0  0  0  0  0  0  0  0  0  0  0  0
   55.3350   29.4200   45.2010 O   0  0  0  0  0  0  0  0  0  0  0  0
   56.7130   30.9720   44.1280 N   0  0  0  0  0  0  0  0  0  0  0  0
   57.0610   31.6850   45.2950 N   0  0  0  0  0  0  0  0  0  0  0  0
   58.2400   31.5630   45.7930 C   0  0  0  0  0  0  0  0  0  0  0  0
   58.6700   30.4230   46.5920 C   0  0  0  0  0  0  0  0  0  0  0  0
   59.0260   30.4330   47.9450 C   0  0  0  0  0  0  0  0  0  0  0  0
   59.3650   29.1890   48.3240 N   0  0  0  0  0  0  0  0  0  0  0  0
   59.2440   28.3650   47.2700 C   0  0  0  0  0  0  0  0  0  0  0  0
   59.4860   27.0060   47.2010 C   0  0  0  0  0  0  0  0  0  0  0  0
   59.2870   26.3630   45.9780 C   0  0  0  0  0  0  0  0  0  0  0  0
   58.8580   27.0960   44.8880 C   0  0  0  0  0  0  0  0  0  0  0  0
   58.6220   28.4650   44.9860 C   0  0  0  0  0  0  0  0  0  0  0  0
   58.8160   29.1110   46.1900 C   0  0  0  0  0  0  0  0  0  0  0  0
   56.8925   33.1185   40.7804 H   0  0  0  0  0  0  0  0  0  0  0  0
   58.6445   32.8895   40.4564 H   0  0  0  0  0  0  0  0  0  0  0  0
   57.5385   31.4740   40.4564 H   0  0  0  0  0  0  0  0  0  0  0  0
   59.0457   31.9613   42.5648 H   0  0  0  0  0  0  0  0  0  0  0  0
   57.8097   33.1877   42.9449 H   0  0  0  0  0  0  0  0  0  0  0  0
   55.1510   28.6030   42.6200 H   0  0  0  0  0  0  0  0  0  0  0  0
   58.9670   32.3667   45.6048 H   0  0  0  0  0  0  0  0  0  0  0  0
   59.0281   31.3196   48.5961 H   0  0  0  0  0  0  0  0  0  0  0  0
   59.6640   28.9710   49.3010 H   0  0  0  0  0  0  0  0  0  0  0  0
   59.8259   26.4467   48.0851 H   0  0  0  0  0  0  0  0  0  0  0  0
   59.4701   25.2825   45.8829 H   0  0  0  0  0  0  0  0  0  0  0  0
   58.6999   26.5887   43.9249 H   0  0  0  0  0  0  0  0  0  0  0  0
   58.2817   29.0301   44.1057 H   0  0  0  0  0  0  0  0  0  0  0  0
  1  2  1  0
  2  3  1  0
  3  4  2  0
  4  5  1  0
  5  6  1  0
  6  7  2  0
  6  8  1  0
  8  9  1  0
  9 10  2  0
 10 11  1  0
 11 12  2  0
 12 13  1  0
 13 14  1  0
 14 15  2  0
 15 16  1  0
 16 17  2  0
 17 18  1  0
 18 19  2  0
  8  3  1  0
 19 11  1  0
 19 14  1  0
  1 20  1  0
  1 21  1  0
  1 22  1  0
  2 23  1  0
  2 24  1  0
  5 25  1  0
 10 26  1  0
 12 27  1  0
 13 28  1  0
 15 29  1  0
 16 30  1  0
 17 31  1  0
 18 32  1  0
M  END
>  <smiles>  (32) 
CCc1n[nH]c(=O)n1N=Cc1c[nH]c2ccccc12

>  <score_type>  (32) 
oracle

>  <origin>  (32) 
adg

>  <m_score__min__energy>  (32) 
-8.0600000000000005

>  <m_primary>  (32) 
energy

$$$$
32:0
     RDKit          3D

 47 49  0  0  0  0  0  0  0  0999 V2000
   56.2830   29.7800   43.0820 C   0  0  0  0  0  0  0  0  0  0  0  0
   56.2840   30.2690   44.4210 O   0  0  0  0  0  0  0  0  0  0  0  0
   57.1830   31.2230   44.9230 C   0  0  0  0  0  0  0  0  0  0  0  0
   57.1120   32.5170   44.4240 C   0  0  0  0  0  0  0  0  0  0  0  0
   57.8980   33.5180   44.9750 C   0  0  0  0  0  0  0  0  0  0  0  0
   58.8250   33.2370   45.9960 C   0  0  0  0  0  0  0  0  0  0  0  0
   59.0390   31.8980   46.4160 C   0  0  0  0  0  0  0  0  0  0  0  0
   58.1360   30.9210   45.9130 C   0  0  0  0  0  0  0  0  0  0  0  0
   60.0740   31.5130   47.3850 N   0  0  0  0  0  0  0  0  0  0  0  0
   59.8250   30.3260   48.2340 C   0  0  0  0  0  0  0  0  0  0  0  0
   58.9790   30.5780   49.5300 C   0  0  0  0  0  0  0  0  0  0  0  0
   59.5380   31.4890   50.6540 C   0  0  0  0  0  0  0  0  0  0  0  0
   58.9080   32.8280   50.6430 N   0  0  0  0  0  0  0  0  0  0  0  0
   59.8950   33.8820   50.3560 C   0  0  0  0  0  0  0  0  0  0  0  0
   58.2310   33.1130   51.9190 C   0  0  0  0  0  0  0  0  0  0  0  0
   61.3870   32.1590   47.4860 C   0  0  0  0  0  0  0  0  0  0  0  0
   62.4700   31.4440   47.9460 N   0  0  0  0  0  0  0  0  0  0  0  0
   63.7410   31.9230   47.9120 C   0  0  0  0  0  0  0  0  0  0  0  0
   63.9910   33.2100   47.4650 C   0  0  0  0  0  0  0  0  0  0  0  0
   62.9170   34.0210   47.1340 C   0  0  0  0  0  0  0  0  0  0  0  0
   61.6030   33.5270   47.1800 C   0  0  0  0  0  0  0  0  0  0  0  0
   60.5470   34.5420   47.2100 C   0  0  0  0  0  0  0  0  0  0  0  0
   59.3320   34.4090   46.7150 C   0  0  0  0  0  0  0  0  0  0  0  0
   56.2808   28.6801   43.0933 H   0  0  0  0  0  0  0  0  0  0  0  0
   55.3856   30.1431   42.5597 H   0  0  0  0  0  0  0  0  0  0  0  0
   57.1819   30.1395   42.5597 H   0  0  0  0  0  0  0  0  0  0  0  0
   56.4318   32.7482   43.5910 H   0  0  0  0  0  0  0  0  0  0  0  0
   57.7951   34.5497   44.6076 H   0  0  0  0  0  0  0  0  0  0  0  0
   58.1843   29.8965   46.3107 H   0  0  0  0  0  0  0  0  0  0  0  0
   59.2938   29.5805   47.6241 H   0  0  0  0  0  0  0  0  0  0  0  0
   60.8146   29.9961   48.5832 H   0  0  0  0  0  0  0  0  0  0  0  0
   58.0257   31.0212   49.2062 H   0  0  0  0  0  0  0  0  0  0  0  0
   58.9392   29.5861   50.0038 H   0  0  0  0  0  0  0  0  0  0  0  0
   59.3449   31.0130   51.6267 H   0  0  0  0  0  0  0  0  0  0  0  0
   60.6170   31.6183   50.4833 H   0  0  0  0  0  0  0  0  0  0  0  0
   60.2790   34.2921   51.3017 H   0  0  0  0  0  0  0  0  0  0  0  0
   60.7273   33.4568   49.7759 H   0  0  0  0  0  0  0  0  0  0  0  0
   59.4161   34.6846   49.7759 H   0  0  0  0  0  0  0  0  0  0  0  0
   58.8908   32.8352   52.7542 H   0  0  0  0  0  0  0  0  0  0  0  0
   57.9967   34.1861   51.9781 H   0  0  0  0  0  0  0  0  0  0  0  0
   57.2997   32.5306   51.9781 H   0  0  0  0  0  0  0  0  0  0  0  0
   62.3680   30.4880   48.3470 H   0  0  0  0  0  0  0  0  0  0  0  0
   64.5752   31.2859   48.2409 H   0  0  0  0  0  0  0  0  0  0  0  0
   65.0225   33.5813   47.3745 H   0  0  0  0  0  0  0  0  0  0  0  0
   63.0957   35.0635   46.8318 H   0  0  0  0  0  0  0  0  0  0  0  0
   60.7896   35.5021   47.6889 H   0  0  0  0  0  0  0  0  0  0  0  0
   58.6384   35.2514   46.8539 H   0  0  0  0  0  0  0  0  0  0  0  0
  1  2  1  0
  2  3  1  0
  3  4  2  0
  4  5  1  0
  5  6  2  0
  6  7  1  0
  7  8  2  0
  7  9  1  0
  9 10  1  0
 10 11  1  0
 11 12  1  0
 12 13  1  0
 13 14  1  0
 13 15  1  0
  9 16  1  0
 16 17  2  0
 17 18  1  0
 18 19  2  0
 19 20  1  0
 20 21  2  0
 21 22  1  0
 22 23  2  0
  8  3  1  0
 21 16  1  0
 23  6  1  0
  1 24  1  0
  1 25  1  0
  1 26  1  0
  4 27  1  0
  5 28  1  0
  8 29  1  0
 10 30  1  0
 10 31  1  0
 11 32  1  0
 11 33  1  0
 12 34  1  0
 12 35  1  0
 14 36  1  0
 14 37  1  0
 14 38  1  0
 15 39  1  0
 15 40  1  0
 15 41  1  0
 17 42  1  0
 18 43  1  0
 19 44  1  0
 20 45  1  0
 22 46  1  0
 23 47  1  0
M  CHG  1  17   1
M  END
>  <UniqueID>  (33) 
30

>  <SMILES>  (33) 
COc1ccc2c(c1)N(CCCN(C)C)c1[nH+]cccc1C=C2

>  <Energy>  (33) 
88.44117576985762

>  <Genealogy>  (33) 
COc1ccc2c(c1)N(CCCN(C)C)c1[nH+]cccc1C=C2 (protonated)
COc1ccc2c(c1)N(CCCN(C)C)c1[nH+]cccc1C=C2 (3D coordinates assigned)
COc1ccc2c(c1)N(CCCN(C)C)c1[nH+]cccc1C=C2 (nonaromatic ring conformer: 88.44117576985762 kcal/mol)

>  <smiles>  (33) 
COc1ccc2c(c1)N(CCCN(C)C)c1ncccc1C=C2

>  <score_type>  (33) 
oracle

>  <origin>  (33) 
adg

>  <m_score__min__energy>  (33) 
-4.8799999999999999

>  <m_primary>  (33) 
energy

$$$$
33:0
     RDKit          3D

 43 46  0  0  0  0  0  0  0  0999 V2000
   59.9680   29.9960   45.8370 C   0  0  0  0  0  0  0  0  0  0  0  0
   58.7210   30.0700   44.9850 C   0  0  0  0  0  0  0  0  0  0  0  0
   58.1480   28.8800   44.4770 C   0  0  0  0  0  0  0  0  0  0  0  0
   58.7970   27.2890   44.8710 Cl  0  0  0  0  0  0  0  0  0  0  0  0
   57.0310   28.9400   43.6390 C   0  0  0  0  0  0  0  0  0  0  0  0
   56.4650   30.1670   43.3040 C   0  0  0  0  0  0  0  0  0  0  0  0
   56.9930   31.3460   43.8250 C   0  0  0  0  0  0  0  0  0  0  0  0
   58.1010   31.3140   44.6870 C   0  0  0  0  0  0  0  0  0  0  0  0
   58.5750   32.5980   45.2490 C   0  0  0  0  0  0  0  0  0  0  0  0
   58.4910   33.7880   44.5100 C   0  0  0  0  0  0  0  0  0  0  0  0
   58.9860   34.9710   45.0600 C   0  0  0  0  0  0  0  0  0  0  0  0
   59.5710   34.9600   46.3260 C   0  0  0  0  0  0  0  0  0  0  0  0
   59.6600   33.7530   47.0320 C   0  0  0  0  0  0  0  0  0  0  0  0
   60.2680   33.7070   48.3340 N   0  0  0  0  0  0  0  0  0  0  0  0
   59.3680   33.5730   49.4920 C   0  0  0  0  0  0  0  0  0  0  0  0
   60.1010   33.8220   50.8100 C   0  0  0  0  0  0  0  0  0  0  0  0
   61.3230   32.9120   50.9160 C   0  0  0  0  0  0  0  0  0  0  0  0
   62.2300   33.1070   49.7320 C   0  0  0  0  0  0  0  0  0  0  0  0
   63.6070   32.8690   49.8650 C   0  0  0  0  0  0  0  0  0  0  0  0
   64.4620   33.0470   48.7770 C   0  0  0  0  0  0  0  0  0  0  0  0
   63.9510   33.4660   47.5490 C   0  0  0  0  0  0  0  0  0  0  0  0
   62.5810   33.6900   47.3980 C   0  0  0  0  0  0  0  0  0  0  0  0
   61.6960   33.4840   48.4770 C   0  0  0  0  0  0  0  0  0  0  0  0
   59.1630   32.6130   46.4760 N   0  0  0  0  0  0  0  0  0  0  0  0
   59.6870   30.0127   46.9004 H   0  0  0  0  0  0  0  0  0  0  0  0
   60.5089   29.0642   45.6152 H   0  0  0  0  0  0  0  0  0  0  0  0
   60.6153   30.8573   45.6152 H   0  0  0  0  0  0  0  0  0  0  0  0
   56.5961   28.0112   43.2414 H   0  0  0  0  0  0  0  0  0  0  0  0
   55.5992   30.2055   42.6266 H   0  0  0  0  0  0  0  0  0  0  0  0
   56.5377   32.3113   43.5586 H   0  0  0  0  0  0  0  0  0  0  0  0
   58.0394   33.7882   43.5070 H   0  0  0  0  0  0  0  0  0  0  0  0
   58.9148   35.9122   44.4951 H   0  0  0  0  0  0  0  0  0  0  0  0
   59.9590   35.8904   46.7662 H   0  0  0  0  0  0  0  0  0  0  0  0
   58.5512   34.3033   49.3950 H   0  0  0  0  0  0  0  0  0  0  0  0
   58.9780   32.5446   49.5057 H   0  0  0  0  0  0  0  0  0  0  0  0
   60.4257   34.8722   50.8521 H   0  0  0  0  0  0  0  0  0  0  0  0
   59.4193   33.6050   51.6456 H   0  0  0  0  0  0  0  0  0  0  0  0
   61.8740   33.1518   51.8373 H   0  0  0  0  0  0  0  0  0  0  0  0
   60.9859   31.8651   50.9370 H   0  0  0  0  0  0  0  0  0  0  0  0
   64.0142   32.5403   50.8325 H   0  0  0  0  0  0  0  0  0  0  0  0
   65.5397   32.8567   48.8879 H   0  0  0  0  0  0  0  0  0  0  0  0
   64.6291   33.6205   46.6968 H   0  0  0  0  0  0  0  0  0  0  0  0
   62.1882   34.0303   46.4285 H   0  0  0  0  0  0  0  0  0  0  0  0
  1  2  1  0
  2  3  2  0
  3  4  1  0
  3  5  1  0
  5  6  2  0
  6  7  1  0
  7  8  2  0
  8  9  1  0
  9 10  2  0
 10 11  1  0
 11 12  2  0
 12 13  1  0
 13 14  1  0
 14 15  1  0
 15 16  1  0
 16 17  1  0
 17 18  1  0
 18 19  2  0
 19 20  1  0
 20 21  2  0
 21 22  1  0
 22 23  2  0
 13 24  2  0
  8  2  1  0
 24  9  1  0
 23 14  1  0
 23 18  1  0
  1 25  1  0
  1 26  1  0
  1 27  1  0
  5 28  1  0
  6 29  1  0
  7 30  1  0
 10 31  1  0
 11 32  1  0
 12 33  1  0
 15 34  1  0
 15 35  1  0
 16 36  1  0
 16 37  1  0
 17 38  1  0
 17 39  1  0
 19 40  1  0
 20 41  1  0
 21 42  1  0
 22 43  1  0
M  END
>  <UniqueID>  (34) 
31

>  <SMILES>  (34) 
Cc1c(Cl)cccc1-c1cccc(N2CCCc3ccccc32)n1

>  <Energy>  (34) 
62.942652929461744

>  <Genealogy>  (34) 
Cc1c(Cl)cccc1-c1cccc(N2CCCc3ccccc32)n1 (3D coordinates assigned)
Cc1c(Cl)cccc1-c1cccc(N2CCCc3ccccc32)n1 (nonaromatic ring conformer: 62.942652929461744 kcal/mol)

>  <smiles>  (34) 
Cc1c(Cl)cccc1-c1cccc(N2CCCc3ccccc32)n1

>  <score_type>  (34) 
oracle

>  <origin>  (34) 
adg

>  <m_score__min__energy>  (34) 
-9.0099999999999998

>  <m_primary>  (34) 
energy

$$$$
34:0
     RDKit          3D

 48 51  0  0  0  0  0  0  0  0999 V2000
   59.9940   35.5810   46.5220 O   0  0  0  0  0  0  0  0  0  0  0  0
   60.1960   34.3360   46.5630 C   0  0  0  0  0  0  0  0  0  0  0  0
   61.4000   33.8420   47.2590 C   0  0  0  0  0  0  0  0  0  0  0  0
   62.5930   33.7390   46.5280 C   0  0  0  0  0  0  0  0  0  0  0  0
   63.7480   33.2370   47.1260 C   0  0  0  0  0  0  0  0  0  0  0  0
   63.7250   32.8400   48.4630 C   0  0  0  0  0  0  0  0  0  0  0  0
   62.5520   32.9610   49.2120 C   0  0  0  0  0  0  0  0  0  0  0  0
   61.3760   33.4760   48.6290 C   0  0  0  0  0  0  0  0  0  0  0  0
   60.1740   33.6460   49.4130 N   0  0  0  0  0  0  0  0  0  0  0  0
   58.8830   32.4890   49.4650 S   0  0  0  0  0  0  0  0  0  0  0  0
   58.1680   32.6000   50.7830 O   0  0  0  0  0  0  0  0  0  0  0  0
   57.9130   32.7880   48.3550 O   0  0  0  0  0  0  0  0  0  0  0  0
   59.5310   30.8580   49.3110 C   0  0  0  0  0  0  0  0  0  0  0  0
   58.9460   29.9580   48.4080 C   0  0  0  0  0  0  0  0  0  0  0  0
   59.4430   28.6540   48.2950 C   0  0  0  0  0  0  0  0  0  0  0  0
   60.5220   28.2460   49.0810 C   0  0  0  0  0  0  0  0  0  0  0  0
   61.1120   29.1420   49.9800 C   0  0  0  0  0  0  0  0  0  0  0  0
   60.6190   30.4470   50.0940 C   0  0  0  0  0  0  0  0  0  0  0  0
   59.2660   33.4320   45.9270 N   0  0  0  0  0  0  0  0  0  0  0  0
   58.1300   33.9610   45.1490 C   0  0  0  0  0  0  0  0  0  0  0  0
   56.9210   33.0320   45.2360 C   0  0  0  0  0  0  0  0  0  0  0  0
   57.3140   31.6450   44.8290 C   0  0  0  0  0  0  0  0  0  0  0  0
   56.4210   30.8270   44.1210 C   0  0  0  0  0  0  0  0  0  0  0  0
   56.7760   29.5150   43.7930 C   0  0  0  0  0  0  0  0  0  0  0  0
   58.0110   29.0060   44.1920 C   0  0  0  0  0  0  0  0  0  0  0  0
   58.9020   29.8090   44.9130 C   0  0  0  0  0  0  0  0  0  0  0  0
   58.5670   31.1390   45.2200 C   0  0  0  0  0  0  0  0  0  0  0  0
   59.5230   31.9800   46.0340 C   0  0  0  0  0  0  0  0  0  0  0  0
   62.6173   34.0567   45.4752 H   0  0  0  0  0  0  0  0  0  0  0  0
   64.6774   33.1540   46.5435 H   0  0  0  0  0  0  0  0  0  0  0  0
   64.6333   32.4304   48.9290 H   0  0  0  0  0  0  0  0  0  0  0  0
   62.5458   32.6513   50.2675 H   0  0  0  0  0  0  0  0  0  0  0  0
   60.0850   34.4510   50.0700 H   0  0  0  0  0  0  0  0  0  0  0  0
   58.0955   30.2772   47.7877 H   0  0  0  0  0  0  0  0  0  0  0  0
   58.9827   27.9502   47.5860 H   0  0  0  0  0  0  0  0  0  0  0  0
   60.9088   27.2199   48.9938 H   0  0  0  0  0  0  0  0  0  0  0  0
   61.9637   28.8203   50.5973 H   0  0  0  0  0  0  0  0  0  0  0  0
   61.0857   31.1510   50.7987 H   0  0  0  0  0  0  0  0  0  0  0  0
   57.8527   34.9489   45.5454 H   0  0  0  0  0  0  0  0  0  0  0  0
   58.4352   34.0378   44.0950 H   0  0  0  0  0  0  0  0  0  0  0  0
   56.5466   33.0164   46.2702 H   0  0  0  0  0  0  0  0  0  0  0  0
   56.1334   33.3982   44.5611 H   0  0  0  0  0  0  0  0  0  0  0  0
   55.4376   31.2193   43.8227 H   0  0  0  0  0  0  0  0  0  0  0  0
   56.0806   28.8842   43.2199 H   0  0  0  0  0  0  0  0  0  0  0  0
   58.2857   27.9712   43.9396 H   0  0  0  0  0  0  0  0  0  0  0  0
   59.8682   29.3977   45.2407 H   0  0  0  0  0  0  0  0  0  0  0  0
   59.4324   31.6869   47.0904 H   0  0  0  0  0  0  0  0  0  0  0  0
   60.5328   31.7992   45.6371 H   0  0  0  0  0  0  0  0  0  0  0  0
  1  2  2  0
  2  3  1  0
  3  4  2  0
  4  5  1  0
  5  6  2  0
  6  7  1  0
  7  8  2  0
  8  9  1  0
  9 10  1  0
 10 11  2  0
 10 12  2  0
 10 13  1  0
 13 14  2  0
 14 15  1  0
 15 16  2  0
 16 17  1  0
 17 18  2  0
  2 19  1  0
 19 20  1  0
 20 21  1  0
 21 22  1  0
 22 23  2  0
 23 24  1  0
 24 25  2  0
 25 26  1  0
 26 27  2  0
 27 28  1  0
  8  3  1  0
 18 13  1  0
 28 19  1  0
 27 22  1  0
  4 29  1  0
  5 30  1  0
  6 31  1  0
  7 32  1  0
  9 33  1  0
 14 34  1  0
 15 35  1  0
 16 36  1  0
 17 37  1  0
 18 38  1  0
 20 39  1  0
 20 40  1  0
 21 41  1  0
 21 42  1  0
 23 43  1  0
 24 44  1  0
 25 45  1  0
 26 46  1  0
 28 47  1  0
 28 48  1  0
M  END
>  <UniqueID>  (35) 
32

>  <SMILES>  (35) 
O=C(c1ccccc1NS(=O)(=O)c1ccccc1)N1CCc2ccccc2C1

>  <Energy>  (35) 
64.71200981709097

>  <Genealogy>  (35) 
O=C(c1ccccc1NS(=O)(=O)c1ccccc1)N1CCc2ccccc2C1 (3D coordinates assigned)
O=C(c1ccccc1NS(=O)(=O)c1ccccc1)N1CCc2ccccc2C1 (nonaromatic ring conformer: 64.71200981709097 kcal/mol)

>  <smiles>  (35) 
O=C(c1ccccc1NS(=O)(=O)c1ccccc1)N1CCc2ccccc2C1

>  <score_type>  (35) 
oracle

>  <origin>  (35) 
adg

>  <m_score__min__energy>  (35) 
-10.43

>  <m_primary>  (35) 
energy

$$$$
35:0
     RDKit          3D

 39 41  0  0  0  0  0  0  0  0999 V2000
   58.6470   28.7780   44.3390 C   0  0  0  0  0  0  0  0  0  0  0  0
   58.5140   30.0280   45.0970 N   0  0  0  0  0  0  0  0  0  0  0  0
   57.6030   31.0720   44.6700 C   0  0  0  0  0  0  0  0  0  0  0  0
   56.3640   30.9350   44.8650 O   0  0  0  0  0  0  0  0  0  0  0  0
   58.0710   32.3340   43.9920 C   0  0  0  0  0  0  0  0  0  0  0  0
   57.4550   33.8140   44.8720 S   0  0  0  0  0  0  0  0  0  0  0  0
   58.7240   33.7780   46.1410 C   0  0  0  0  0  0  0  0  0  0  0  0
   58.3660   33.8010   47.4940 C   0  0  0  0  0  0  0  0  0  0  0  0
   59.3530   33.8240   48.4830 C   0  0  0  0  0  0  0  0  0  0  0  0
   60.7090   33.8220   48.1250 C   0  0  0  0  0  0  0  0  0  0  0  0
   61.7110   33.8670   49.1070 C   0  0  0  0  0  0  0  0  0  0  0  0
   63.0580   33.8720   48.7340 C   0  0  0  0  0  0  0  0  0  0  0  0
   63.4160   33.8320   47.3840 C   0  0  0  0  0  0  0  0  0  0  0  0
   62.4290   33.7860   46.3960 C   0  0  0  0  0  0  0  0  0  0  0  0
   61.0730   33.7800   46.7560 C   0  0  0  0  0  0  0  0  0  0  0  0
   60.0730   33.7410   45.7740 C   0  0  0  0  0  0  0  0  0  0  0  0
   59.2280   30.1630   46.3410 C   0  0  0  0  0  0  0  0  0  0  0  0
   60.6260   30.3140   46.3480 C   0  0  0  0  0  0  0  0  0  0  0  0
   61.3160   30.4570   47.5550 C   0  0  0  0  0  0  0  0  0  0  0  0
   60.6190   30.4490   48.7650 C   0  0  0  0  0  0  0  0  0  0  0  0
   59.2300   30.2990   48.7700 C   0  0  0  0  0  0  0  0  0  0  0  0
   58.5360   30.1550   47.5650 C   0  0  0  0  0  0  0  0  0  0  0  0
   58.7369   27.9332   45.0378 H   0  0  0  0  0  0  0  0  0  0  0  0
   57.7588   28.6370   43.7056 H   0  0  0  0  0  0  0  0  0  0  0  0
   59.5450   28.8271   43.7056 H   0  0  0  0  0  0  0  0  0  0  0  0
   59.1708   32.3517   43.9835 H   0  0  0  0  0  0  0  0  0  0  0  0
   57.6787   32.3473   42.9644 H   0  0  0  0  0  0  0  0  0  0  0  0
   57.3038   33.8010   47.7798 H   0  0  0  0  0  0  0  0  0  0  0  0
   59.0657   33.8437   49.5446 H   0  0  0  0  0  0  0  0  0  0  0  0
   61.4357   33.8984   50.1715 H   0  0  0  0  0  0  0  0  0  0  0  0
   63.8399   33.9076   49.5069 H   0  0  0  0  0  0  0  0  0  0  0  0
   64.4782   33.8367   47.0981 H   0  0  0  0  0  0  0  0  0  0  0  0
   62.7156   33.7544   45.3345 H   0  0  0  0  0  0  0  0  0  0  0  0
   60.3505   33.6811   44.7113 H   0  0  0  0  0  0  0  0  0  0  0  0
   61.1800   30.3196   45.3977 H   0  0  0  0  0  0  0  0  0  0  0  0
   62.4095   30.5760   47.5518 H   0  0  0  0  0  0  0  0  0  0  0  0
   61.1636   30.5608   49.7142 H   0  0  0  0  0  0  0  0  0  0  0  0
   58.6816   30.2942   49.7235 H   0  0  0  0  0  0  0  0  0  0  0  0
   57.4426   30.0348   47.5745 H   0  0  0  0  0  0  0  0  0  0  0  0
  1  2  1  0
  2  3  1  0
  3  4  2  0
  3  5  1  0
  5  6  1  0
  6  7  1  0
  7  8  2  0
  8  9  1  0
  9 10  2  0
 10 11  1  0
 11 12  2  0
 12 13  1  0
 13 14  2  0
 14 15  1  0
 15 16  2  0
  2 17  1  0
 17 18  2  0
 18 19  1  0
 19 20  2  0
 20 21  1  0
 21 22  2  0
 16  7  1  0
 22 17  1  0
 15 10  1  0
  1 23  1  0
  1 24  1  0
  1 25  1  0
  5 26  1  0
  5 27  1  0
  8 28  1  0
  9 29  1  0
 11 30  1  0
 12 31  1  0
 13 32  1  0
 14 33  1  0
 16 34  1  0
 18 35  1  0
 19 36  1  0
 20 37  1  0
 21 38  1  0
 22 39  1  0
M  END
>  <UniqueID>  (36) 
33

>  <SMILES>  (36) 
CN(C(=O)CSc1ccc2ccccc2c1)c1ccccc1

>  <Energy>  (36) 
43.70727523517534

>  <Genealogy>  (36) 
CN(C(=O)CSc1ccc2ccccc2c1)c1ccccc1 (3D coordinates assigned)
CN(C(=O)CSc1ccc2ccccc2c1)c1ccccc1 (optimized conformer: 43.70727523517534 kcal/mol)

>  <smiles>  (36) 
CN(C(=O)CSc1ccc2ccccc2c1)c1ccccc1

>  <score_type>  (36) 
oracle

>  <origin>  (36) 
adg

>  <m_score__min__energy>  (36) 
-7.6699999999999999

>  <m_primary>  (36) 
energy

$$$$
36:0
     RDKit          3D

 44 47  0  0  0  0  0  0  0  0999 V2000
   56.9530   30.5030   43.6220 O   0  0  0  0  0  0  0  0  0  0  0  0
   57.3460   30.6660   44.8070 C   0  0  0  0  0  0  0  0  0  0  0  0
   57.2250   29.5700   45.7260 N   0  0  0  0  0  0  0  0  0  0  0  0
   57.3720   28.1790   45.4060 C   0  0  0  0  0  0  0  0  0  0  0  0
   57.8170   27.7550   44.1430 C   0  0  0  0  0  0  0  0  0  0  0  0
   57.9410   26.3910   43.8600 C   0  0  0  0  0  0  0  0  0  0  0  0
   57.6040   25.4280   44.8270 C   0  0  0  0  0  0  0  0  0  0  0  0
   57.7370   23.9790   44.5280 C   0  0  0  0  0  0  0  0  0  0  0  0
   58.7470   23.2120   45.1320 C   0  0  0  0  0  0  0  0  0  0  0  0
   58.8560   21.8510   44.8380 C   0  0  0  0  0  0  0  0  0  0  0  0
   57.9880   21.2670   43.9690 N   0  0  0  0  0  0  0  0  0  0  0  0
   56.9990   21.9830   43.3670 C   0  0  0  0  0  0  0  0  0  0  0  0
   56.8550   23.3470   43.6350 C   0  0  0  0  0  0  0  0  0  0  0  0
   57.1330   25.8590   46.0810 C   0  0  0  0  0  0  0  0  0  0  0  0
   57.0130   27.2230   46.3620 C   0  0  0  0  0  0  0  0  0  0  0  0
   57.8680   31.9890   45.2260 C   0  0  0  0  0  0  0  0  0  0  0  0
   57.1900   33.1700   44.8810 C   0  0  0  0  0  0  0  0  0  0  0  0
   57.6910   34.4110   45.2760 C   0  0  0  0  0  0  0  0  0  0  0  0
   58.8750   34.4910   46.0090 C   0  0  0  0  0  0  0  0  0  0  0  0
   59.5790   33.3240   46.3530 C   0  0  0  0  0  0  0  0  0  0  0  0
   60.8420   33.4080   47.1320 C   0  0  0  0  0  0  0  0  0  0  0  0
   62.0830   33.5040   46.4780 C   0  0  0  0  0  0  0  0  0  0  0  0
   63.2570   33.5810   47.2300 C   0  0  0  0  0  0  0  0  0  0  0  0
   63.2010   33.5650   48.5880 N   0  0  0  0  0  0  0  0  0  0  0  0
   62.0180   33.4740   49.2500 C   0  0  0  0  0  0  0  0  0  0  0  0
   60.8190   33.3930   48.5370 C   0  0  0  0  0  0  0  0  0  0  0  0
   59.0700   32.0760   45.9510 C   0  0  0  0  0  0  0  0  0  0  0  0
   58.0691   28.4991   43.3731 H   0  0  0  0  0  0  0  0  0  0  0  0
   58.3050   26.0693   42.8731 H   0  0  0  0  0  0  0  0  0  0  0  0
   59.4504   23.6822   45.8349 H   0  0  0  0  0  0  0  0  0  0  0  0
   59.6464   21.2495   45.3108 H   0  0  0  0  0  0  0  0  0  0  0  0
   58.0810   20.2490   43.7590 H   0  0  0  0  0  0  0  0  0  0  0  0
   56.3108   21.4862   42.6672 H   0  0  0  0  0  0  0  0  0  0  0  0
   56.0543   23.9237   43.1488 H   0  0  0  0  0  0  0  0  0  0  0  0
   56.8574   25.1175   46.8453 H   0  0  0  0  0  0  0  0  0  0  0  0
   56.6334   27.5471   47.3423 H   0  0  0  0  0  0  0  0  0  0  0  0
   56.2596   33.1162   44.2966 H   0  0  0  0  0  0  0  0  0  0  0  0
   57.1497   35.3304   45.0081 H   0  0  0  0  0  0  0  0  0  0  0  0
   59.2602   35.4734   46.3198 H   0  0  0  0  0  0  0  0  0  0  0  0
   62.1288   33.5184   45.3790 H   0  0  0  0  0  0  0  0  0  0  0  0
   64.2299   33.6548   46.7220 H   0  0  0  0  0  0  0  0  0  0  0  0
   62.0041   33.4641   50.3499 H   0  0  0  0  0  0  0  0  0  0  0  0
   59.8614   33.3178   49.0731 H   0  0  0  0  0  0  0  0  0  0  0  0
   59.6184   31.1573   46.2066 H   0  0  0  0  0  0  0  0  0  0  0  0
  1  2  2  0
  2  3  1  0
  3  4  1  0
  4  5  2  0
  5  6  1  0
  6  7  2  0
  7  8  1  0
  8  9  2  0
  9 10  1  0
 10 11  2  0
 11 12  1  0
 12 13  2  0
  7 14  1  0
 14 15  2  0
  2 16  1  0
 16 17  2  0
 17 18  1  0
 18 19  2  0
 19 20  1  0
 20 21  1  0
 21 22  2  0
 22 23  1  0
 23 24  2  0
 24 25  1  0
 25 26  2  0
 20 27  2  0
 15  4  1  0
 27 16  1  0
 13  8  1  0
 26 21  1  0
  5 28  1  0
  6 29  1  0
  9 30  1  0
 10 31  1  0
 11 32  1  0
 12 33  1  0
 13 34  1  0
 14 35  1  0
 15 36  1  0
 17 37  1  0
 18 38  1  0
 19 39  1  0
 22 40  1  0
 23 41  1  0
 25 42  1  0
 26 43  1  0
 27 44  1  0
M  CHG  2   3  -1  11   1
M  END
>  <UniqueID>  (37) 
34

>  <SMILES>  (37) 
O=C([N-]c1ccc(-c2cc[nH+]cc2)cc1)c1cccc(-c2ccncc2)c1

>  <Energy>  (37) 
67.30911043209659

>  <Genealogy>  (37) 
O=C([N-]c1ccc(-c2cc[nH+]cc2)cc1)c1cccc(-c2ccncc2)c1 (protonated)
O=C([N-]c1ccc(-c2cc[nH+]cc2)cc1)c1cccc(-c2ccncc2)c1 (3D coordinates assigned)
O=C([N-]c1ccc(-c2cc[nH+]cc2)cc1)c1cccc(-c2ccncc2)c1 (optimized conformer: 67.30911043209659 kcal/mol)

>  <smiles>  (37) 
O=C(Nc1ccc(-c2ccncc2)cc1)c1cccc(-c2ccncc2)c1

>  <score_type>  (37) 
oracle

>  <origin>  (37) 
adg

>  <m_score__min__energy>  (37) 
-9.8399999999999999

>  <m_primary>  (37) 
energy

$$$$
37:0
     RDKit          3D

 44 47  0  0  0  0  0  0  0  0999 V2000
   55.1060   30.0050   44.0030 O   0  0  0  0  0  0  0  0  0  0  0  0
   56.2780   30.0190   44.4620 C   0  0  0  0  0  0  0  0  0  0  0  0
   57.0140   31.2490   44.4380 N   0  0  0  0  0  0  0  0  0  0  0  0
   57.7600   31.7940   45.5350 C   0  0  0  0  0  0  0  0  0  0  0  0
   57.5860   33.1400   45.8770 C   0  0  0  0  0  0  0  0  0  0  0  0
   58.3330   33.7060   46.9140 C   0  0  0  0  0  0  0  0  0  0  0  0
   59.2550   32.9270   47.6280 C   0  0  0  0  0  0  0  0  0  0  0  0
   60.2420   33.6540   48.9010 S   0  0  0  0  0  0  0  0  0  0  0  0
   60.2990   32.7150   50.0730 O   0  0  0  0  0  0  0  0  0  0  0  0
   59.5890   34.9290   49.3590 O   0  0  0  0  0  0  0  0  0  0  0  0
   61.8700   34.0060   48.3720 N   0  0  0  0  0  0  0  0  0  0  0  0
   62.0570   33.7270   46.9500 C   0  0  0  0  0  0  0  0  0  0  0  0
   63.5410   33.4550   46.7580 C   0  0  0  0  0  0  0  0  0  0  0  0
   64.0660   33.0910   48.1400 C   0  0  0  0  0  0  0  0  0  0  0  0
   62.8630   33.1890   49.0660 C   0  0  0  0  0  0  0  0  0  0  0  0
   59.3880   31.5660   47.3240 C   0  0  0  0  0  0  0  0  0  0  0  0
   58.6430   31.0000   46.2860 C   0  0  0  0  0  0  0  0  0  0  0  0
   56.8710   28.7620   44.9600 C   0  0  0  0  0  0  0  0  0  0  0  0
   58.2020   28.3680   44.8040 C   0  0  0  0  0  0  0  0  0  0  0  0
   58.2840   27.1380   45.4160 C   0  0  0  0  0  0  0  0  0  0  0  0
   59.3680   26.2770   45.5780 C   0  0  0  0  0  0  0  0  0  0  0  0
   59.1460   25.0660   46.2570 C   0  0  0  0  0  0  0  0  0  0  0  0
   57.8610   24.7460   46.7510 C   0  0  0  0  0  0  0  0  0  0  0  0
   56.7860   25.6370   46.5700 C   0  0  0  0  0  0  0  0  0  0  0  0
   57.0370   26.8310   45.8930 C   0  0  0  0  0  0  0  0  0  0  0  0
   56.1630   27.8110   45.6170 N   0  0  0  0  0  0  0  0  0  0  0  0
   56.8583   33.7551   45.3273 H   0  0  0  0  0  0  0  0  0  0  0  0
   58.1971   34.7669   47.1711 H   0  0  0  0  0  0  0  0  0  0  0  0
   61.4674   32.8468   46.6541 H   0  0  0  0  0  0  0  0  0  0  0  0
   61.7227   34.5721   46.3302 H   0  0  0  0  0  0  0  0  0  0  0  0
   63.6921   32.6211   46.0567 H   0  0  0  0  0  0  0  0  0  0  0  0
   64.0658   34.3250   46.3365 H   0  0  0  0  0  0  0  0  0  0  0  0
   64.4706   32.0681   48.1412 H   0  0  0  0  0  0  0  0  0  0  0  0
   64.8822   33.7569   48.4567 H   0  0  0  0  0  0  0  0  0  0  0  0
   62.4565   32.1870   49.2680 H   0  0  0  0  0  0  0  0  0  0  0  0
   63.1404   33.6358   50.0322 H   0  0  0  0  0  0  0  0  0  0  0  0
   60.0817   30.9403   47.9047 H   0  0  0  0  0  0  0  0  0  0  0  0
   58.7482   29.9294   46.0562 H   0  0  0  0  0  0  0  0  0  0  0  0
   59.0093   28.9207   44.3012 H   0  0  0  0  0  0  0  0  0  0  0  0
   60.3633   26.5361   45.1879 H   0  0  0  0  0  0  0  0  0  0  0  0
   59.9785   24.3624   46.4048 H   0  0  0  0  0  0  0  0  0  0  0  0
   57.6998   23.7951   47.2800 H   0  0  0  0  0  0  0  0  0  0  0  0
   55.7813   25.3997   46.9498 H   0  0  0  0  0  0  0  0  0  0  0  0
   55.1480   27.8380   45.8660 H   0  0  0  0  0  0  0  0  0  0  0  0
  1  2  2  0
  2  3  1  0
  3  4  1  0
  4  5  2  0
  5  6  1  0
  6  7  2  0
  7  8  1  0
  8  9  2  0
  8 10  2  0
  8 11  1  0
 11 12  1  0
 12 13  1  0
 13 14  1  0
 14 15  1  0
  7 16  1  0
 16 17  2  0
  2 18  1  0
 18 19  2  0
 19 20  1  0
 20 21  2  0
 21 22  1  0
 22 23  2  0
 23 24  1  0
 24 25  2  0
 25 26  1  0
 17  4  1  0
 26 18  1  0
 15 11  1  0
 25 20  1  0
  5 27  1  0
  6 28  1  0
 12 29  1  0
 12 30  1  0
 13 31  1  0
 13 32  1  0
 14 33  1  0
 14 34  1  0
 15 35  1  0
 15 36  1  0
 16 37  1  0
 17 38  1  0
 19 39  1  0
 21 40  1  0
 22 41  1  0
 23 42  1  0
 24 43  1  0
 26 44  1  0
M  CHG  1   3  -1
M  END
>  <UniqueID>  (38) 
35

>  <SMILES>  (38) 
O=C([N-]c1ccc(S(=O)(=O)N2CCCC2)cc1)c1cc2ccccc2[nH]1

>  <Energy>  (38) 
85.50255431381416

>  <Genealogy>  (38) 
O=C([N-]c1ccc(S(=O)(=O)N2CCCC2)cc1)c1cc2ccccc2[nH]1 (protonated)
O=C([N-]c1ccc(S(=O)(=O)N2CCCC2)cc1)c1cc2ccccc2[nH]1 (3D coordinates assigned)
O=C([N-]c1ccc(S(=O)(=O)N2CCCC2)cc1)c1cc2ccccc2[nH]1 (nonaromatic ring conformer: 85.50255431381416 kcal/mol)

>  <smiles>  (38) 
O=C(Nc1ccc(S(=O)(=O)N2CCCC2)cc1)c1cc2ccccc2[nH]1

>  <score_type>  (38) 
oracle

>  <origin>  (38) 
adg

>  <m_score__min__energy>  (38) 
-10.67

>  <m_primary>  (38) 
energy

$$$$
38:0
     RDKit          3D

 48 51  0  0  0  0  0  0  0  0999 V2000
   58.4753   25.8041   45.7729 H   0  0  0  0  0  0  0  0  0  0  0  0
   58.2940   26.8880   45.8210 C   0  0  0  0  0  0  0  0  0  0  0  0
   57.6520   27.5070   44.7980 N   0  0  0  0  0  0  0  0  0  0  0  0
   57.4150   28.8420   44.8150 C   0  0  0  0  0  0  0  0  0  0  0  0
   56.7650   29.4650   43.7510 C   0  0  0  0  0  0  0  0  0  0  0  0
   56.4350   28.8748   42.8834 H   0  0  0  0  0  0  0  0  0  0  0  0
   56.5410   30.8030   43.7900 N   0  0  0  0  0  0  0  0  0  0  0  0
   56.9350   31.5570   44.8540 C   0  0  0  0  0  0  0  0  0  0  0  0
   56.7200   32.8400   44.8940 N   0  0  0  0  0  0  0  0  0  0  0  0
   57.5010   33.8650   45.6000 C   0  0  0  0  0  0  0  0  0  0  0  0
   56.9218   34.7973   45.5268 H   0  0  0  0  0  0  0  0  0  0  0  0
   57.6590   33.5480   47.1030 C   0  0  0  0  0  0  0  0  0  0  0  0
   56.7516   33.8685   47.6358 H   0  0  0  0  0  0  0  0  0  0  0  0
   57.8110   32.4648   47.2192 H   0  0  0  0  0  0  0  0  0  0  0  0
   58.8760   34.2810   47.6950 C   0  0  0  0  0  0  0  0  0  0  0  0
   58.6795   34.5112   48.7525 H   0  0  0  0  0  0  0  0  0  0  0  0
   59.7590   33.6314   47.6034 H   0  0  0  0  0  0  0  0  0  0  0  0
   59.1230   35.4850   46.9960 O   0  0  0  0  0  0  0  0  0  0  0  0
   59.6520   35.2080   45.7070 C   0  0  0  0  0  0  0  0  0  0  0  0
   59.6404   36.1376   45.1191 H   0  0  0  0  0  0  0  0  0  0  0  0
   60.6702   34.8183   45.8529 H   0  0  0  0  0  0  0  0  0  0  0  0
   58.8590   34.1280   44.9310 C   0  0  0  0  0  0  0  0  0  0  0  0
   58.6926   34.4734   43.9000 H   0  0  0  0  0  0  0  0  0  0  0  0
   59.4401   33.1940   44.9318 H   0  0  0  0  0  0  0  0  0  0  0  0
   57.5690   30.9620   45.9000 N   0  0  0  0  0  0  0  0  0  0  0  0
   57.8220   29.6240   45.9090 C   0  0  0  0  0  0  0  0  0  0  0  0
   58.4660   29.0170   47.0050 C   0  0  0  0  0  0  0  0  0  0  0  0
   58.7960   29.7850   48.0130 N   0  0  0  0  0  0  0  0  0  0  0  0
   59.9360   30.6390   48.1600 C   0  0  0  0  0  0  0  0  0  0  0  0
   60.3720   31.4090   47.0760 C   0  0  0  0  0  0  0  0  0  0  0  0
   59.8608   31.3279   46.1054 H   0  0  0  0  0  0  0  0  0  0  0  0
   61.4550   32.2810   47.2220 C   0  0  0  0  0  0  0  0  0  0  0  0
   61.8090   32.8656   46.3601 H   0  0  0  0  0  0  0  0  0  0  0  0
   62.0910   32.4120   48.4650 C   0  0  0  0  0  0  0  0  0  0  0  0
   63.4740   33.4880   48.6440 S   0  0  0  0  0  0  0  0  0  0  0  0
   63.0080   34.8380   49.1100 O   0  0  0  0  0  0  0  0  0  0  0  0
   64.1660   33.6490   47.3190 O   0  0  0  0  0  0  0  0  0  0  0  0
   64.6100   32.8040   49.8310 C   0  0  0  0  0  0  0  0  0  0  0  0
   64.4450   31.4330   49.8930 F   0  0  0  0  0  0  0  0  0  0  0  0
   64.3660   33.3530   51.0750 F   0  0  0  0  0  0  0  0  0  0  0  0
   65.9070   33.0920   49.4500 F   0  0  0  0  0  0  0  0  0  0  0  0
   61.6360   31.6620   49.5590 C   0  0  0  0  0  0  0  0  0  0  0  0
   62.1322   31.7599   50.5358 H   0  0  0  0  0  0  0  0  0  0  0  0
   60.5530   30.7900   49.4110 C   0  0  0  0  0  0  0  0  0  0  0  0
   60.1840   30.2212   50.2772 H   0  0  0  0  0  0  0  0  0  0  0  0
   58.7290   27.6150   46.9390 C   0  0  0  0  0  0  0  0  0  0  0  0
   59.5180   26.8970   47.9140 C   0  0  0  0  0  0  0  0  0  0  0  0
   60.1460   26.3290   48.7030 N   0  0  0  0  0  0  0  0  0  0  0  0
  1  2  1  0
  2  3  1  0
  3  4  1  0
  4  5  2  0
  5  6  1  0
  5  7  1  0
  7  8  1  0
  8  9  2  0
  9 10  1  0
 10 11  1  0
 10 12  1  0
 12 13  1  0
 12 14  1  0
 12 15  1  0
 15 16  1  0
 15 17  1  0
 15 18  1  0
 18 19  1  0
 19 20  1  0
 19 21  1  0
 19 22  1  0
 22 23  1  0
 22 24  1  0
  8 25  1  0
 25 26  2  0
 26 27  1  0
 27 28  2  3
 28 29  1  0
 29 30  2  0
 30 31  1  0
 30 32  1  0
 32 33  1  0
 32 34  2  0
 34 35  1  0
 35 36  2  0
 35 37  2  0
 35 38  1  0
 38 39  1  0
 38 40  1  0
 38 41  1  0
 34 42  1  0
 42 43  1  0
 42 44  2  0
 44 45  1  0
 27 46  1  0
 46 47  1  0
 47 48  3  0
 46  2  2  0
 26  4  1  0
 44 29  1  0
 22 10  1  0
M  CHG  2   3  -1   7  -1
M  END
>  <UniqueID>  (39) 
36

>  <SMILES>  (39) 
N#Cc1c[n-]c2c[n-]/c(=N\C3CCOCC3)nc2c1=Nc1ccc(S(=O)(=O)C(F)(F)F)cc1

>  <Energy>  (39) 
77.35215869282818

>  <Genealogy>  (39) 
N#Cc1c[n-]c2c[n-]c(=NC3CCOCC3)nc2c1=Nc1ccc(S(=O)(=O)C(F)(F)F)cc1 (protonated)
N#Cc1c[n-]c2c[n-]/c(=N\C3CCOCC3)nc2c1=Nc1ccc(S(=O)(=O)C(F)(F)F)cc1 (cis-trans isomerization)
N#Cc1c[n-]c2c[n-]/c(=N\C3CCOCC3)nc2c1=Nc1ccc(S(=O)(=O)C(F)(F)F)cc1 (3D coordinates assigned)
N#Cc1c[n-]c2c[n-]/c(=N\C3CCOCC3)nc2c1=Nc1ccc(S(=O)(=O)C(F)(F)F)cc1 (nonaromatic ring conformer: 77.35215869282818 kcal/mol)

>  <smiles>  (39) 
N#Cc1c[nH]c2c[nH]c(=NC3CCOCC3)nc2c1=Nc1ccc(S(=O)(=O)C(F)(F)F)cc1

>  <score_type>  (39) 
oracle

>  <origin>  (39) 
adg

>  <m_score__min__energy>  (39) 
-11.130000000000001

>  <m_primary>  (39) 
energy

$$$$
39:0
     RDKit          3D

 39 42  0  0  0  0  0  0  0  0999 V2000
   55.1540   26.2050   45.9990 O   0  0  0  0  0  0  0  0  0  0  0  0
   56.3470   25.9750   45.6610 C   0  0  0  0  0  0  0  0  0  0  0  0
   56.6970   24.6800   45.0400 C   0  0  0  0  0  0  0  0  0  0  0  0
   55.8720   24.1020   44.0610 C   0  0  0  0  0  0  0  0  0  0  0  0
   56.2390   22.8820   43.4870 C   0  0  0  0  0  0  0  0  0  0  0  0
   57.4210   22.2540   43.8840 C   0  0  0  0  0  0  0  0  0  0  0  0
   58.2220   22.8600   44.8540 C   0  0  0  0  0  0  0  0  0  0  0  0
   57.8490   24.0470   45.4010 N   0  0  0  0  0  0  0  0  0  0  0  0
   57.3340   27.0040   45.8330 N   0  0  0  0  0  0  0  0  0  0  0  0
   58.5510   26.8340   46.4010 C   0  0  0  0  0  0  0  0  0  0  0  0
   59.2630   28.0280   46.4000 C   0  0  0  0  0  0  0  0  0  0  0  0
   58.4360   28.9440   45.7850 C   0  0  0  0  0  0  0  0  0  0  0  0
   58.6530   30.2840   45.4790 C   0  0  0  0  0  0  0  0  0  0  0  0
   57.6350   30.9870   44.8000 C   0  0  0  0  0  0  0  0  0  0  0  0
   57.8450   32.3660   44.4530 N   0  0  0  0  0  0  0  0  0  0  0  0
   58.4360   33.3420   45.3280 C   0  0  0  0  0  0  0  0  0  0  0  0
   58.2870   33.2030   46.7170 C   0  0  0  0  0  0  0  0  0  0  0  0
   58.8310   34.1540   47.5850 C   0  0  0  0  0  0  0  0  0  0  0  0
   59.5160   35.2590   47.0730 C   0  0  0  0  0  0  0  0  0  0  0  0
   59.6490   35.4190   45.6920 C   0  0  0  0  0  0  0  0  0  0  0  0
   59.1070   34.4700   44.8200 C   0  0  0  0  0  0  0  0  0  0  0  0
   56.4560   30.3020   44.4060 C   0  0  0  0  0  0  0  0  0  0  0  0
   56.2700   28.9460   44.7250 C   0  0  0  0  0  0  0  0  0  0  0  0
   57.2780   28.2960   45.4450 C   0  0  0  0  0  0  0  0  0  0  0  0
   54.9451   24.6054   43.7489 H   0  0  0  0  0  0  0  0  0  0  0  0
   55.5977   22.4172   42.7237 H   0  0  0  0  0  0  0  0  0  0  0  0
   57.7178   21.2933   43.4380 H   0  0  0  0  0  0  0  0  0  0  0  0
   59.1560   22.3762   45.1758 H   0  0  0  0  0  0  0  0  0  0  0  0
   58.9248   25.8826   46.8072 H   0  0  0  0  0  0  0  0  0  0  0  0
   60.2709   28.2044   46.8037 H   0  0  0  0  0  0  0  0  0  0  0  0
   59.5930   30.7821   45.7589 H   0  0  0  0  0  0  0  0  0  0  0  0
   57.5510   32.6780   43.4990 H   0  0  0  0  0  0  0  0  0  0  0  0
   57.7390   32.3407   47.1246 H   0  0  0  0  0  0  0  0  0  0  0  0
   58.7197   34.0323   48.6726 H   0  0  0  0  0  0  0  0  0  0  0  0
   59.9503   36.0026   47.7574 H   0  0  0  0  0  0  0  0  0  0  0  0
   60.1813   36.2935   45.2895 H   0  0  0  0  0  0  0  0  0  0  0  0
   59.2054   34.6055   43.7328 H   0  0  0  0  0  0  0  0  0  0  0  0
   55.6780   30.8393   43.8438 H   0  0  0  0  0  0  0  0  0  0  0  0
   55.3589   28.4117   44.4177 H   0  0  0  0  0  0  0  0  0  0  0  0
  1  2  2  0
  2  3  1  0
  3  4  2  0
  4  5  1  0
  5  6  2  0
  6  7  1  0
  7  8  2  0
  2  9  1  0
  9 10  1  0
 10 11  2  0
 11 12  1  0
 12 13  2  0
 13 14  1  0
 14 15  1  0
 15 16  1  0
 16 17  2  0
 17 18  1  0
 18 19  2  0
 19 20  1  0
 20 21  2  0
 14 22  2  0
 22 23  1  0
 23 24  2  0
  8  3  1  0
 24  9  1  0
 24 12  1  0
 21 16  1  0
  4 25  1  0
  5 26  1  0
  6 27  1  0
  7 28  1  0
 10 29  1  0
 11 30  1  0
 13 31  1  0
 15 32  1  0
 17 33  1  0
 18 34  1  0
 19 35  1  0
 20 36  1  0
 21 37  1  0
 22 38  1  0
 23 39  1  0
M  END
>  <UniqueID>  (40) 
37

>  <SMILES>  (40) 
O=C(c1ccccn1)n1ccc2cc(Nc3ccccc3)ccc21

>  <Energy>  (40) 
88.57327488434144

>  <Genealogy>  (40) 
O=C(c1ccccn1)n1ccc2cc(Nc3ccccc3)ccc21 (3D coordinates assigned)
O=C(c1ccccn1)n1ccc2cc(Nc3ccccc3)ccc21 (optimized conformer: 88.57327488434144 kcal/mol)

>  <smiles>  (40) 
O=C(c1ccccn1)n1ccc2cc(Nc3ccccc3)ccc21

>  <score_type>  (40) 
oracle

>  <origin>  (40) 
adg

>  <m_score__min__energy>  (40) 
-8.4299999999999997

>  <m_primary>  (40) 
energy

$$$$
40:0
     RDKit          3D

 40 42  0  0  0  0  0  0  0  0999 V2000
   59.8580   34.2300   48.3120 C   0  0  0  0  0  0  0  0  0  0  0  0
   59.0630   34.8600   47.2490 N   0  0  0  0  0  0  0  0  0  0  0  0
   59.1530   34.2020   45.9260 C   0  0  2  0  0  0  0  0  0  0  0  0
   57.8650   34.3120   45.0950 C   0  0  0  0  0  0  0  0  0  0  0  0
   57.1860   32.9510   45.1950 C   0  0  0  0  0  0  0  0  0  0  0  0
   58.2030   32.0330   45.6860 N   0  0  0  0  0  0  0  0  0  0  0  0
   57.9740   30.6160   45.8100 C   0  0  0  0  0  0  0  0  0  0  0  0
   58.8250   29.8010   46.5760 C   0  0  0  0  0  0  0  0  0  0  0  0
   58.5640   28.4330   46.6730 C   0  0  0  0  0  0  0  0  0  0  0  0
   57.4570   27.8810   46.0260 C   0  0  0  0  0  0  0  0  0  0  0  0
   57.2160   26.4690   46.1310 N   0  0  0  0  0  0  0  0  0  0  0  0
   56.0170   25.7830   45.7440 C   0  0  0  0  0  0  0  0  0  0  0  0
   54.9070   26.3300   45.9770 O   0  0  0  0  0  0  0  0  0  0  0  0
   56.0470   24.4770   45.0460 C   0  0  0  0  0  0  0  0  0  0  0  0
   56.6250   24.3820   43.7710 C   0  0  0  0  0  0  0  0  0  0  0  0
   56.6480   23.1520   43.1100 C   0  0  0  0  0  0  0  0  0  0  0  0
   56.1240   22.0490   43.7050 N   0  0  0  0  0  0  0  0  0  0  0  0
   55.5710   22.1040   44.9450 C   0  0  0  0  0  0  0  0  0  0  0  0
   55.5260   23.3140   45.6440 C   0  0  0  0  0  0  0  0  0  0  0  0
   55.0160   23.3350   46.9010 F   0  0  0  0  0  0  0  0  0  0  0  0
   56.6430   28.7200   45.2490 C   0  0  0  0  0  0  0  0  0  0  0  0
   56.9160   30.0480   45.1660 N   0  0  0  0  0  0  0  0  0  0  0  0
   59.4460   32.7020   46.0440 C   0  0  0  0  0  0  0  0  0  0  0  0
   59.4683   34.5388   49.2932 H   0  0  0  0  0  0  0  0  0  0  0  0
   59.7926   33.1359   48.2193 H   0  0  0  0  0  0  0  0  0  0  0  0
   60.9082   34.5437   48.2193 H   0  0  0  0  0  0  0  0  0  0  0  0
   58.0590   34.8530   47.5510 H   0  0  0  0  0  0  0  0  0  0  0  0
   59.9738   34.7383   45.4274 H   0  0  0  0  0  0  0  0  0  0  0  0
   57.2115   35.0966   45.5041 H   0  0  0  0  0  0  0  0  0  0  0  0
   58.0801   34.5803   44.0501 H   0  0  0  0  0  0  0  0  0  0  0  0
   56.3402   32.9960   45.8969 H   0  0  0  0  0  0  0  0  0  0  0  0
   56.7851   32.6273   44.2232 H   0  0  0  0  0  0  0  0  0  0  0  0
   59.6906   30.2379   47.0954 H   0  0  0  0  0  0  0  0  0  0  0  0
   59.2330   27.7878   47.2613 H   0  0  0  0  0  0  0  0  0  0  0  0
   57.0585   25.2732   43.2937 H   0  0  0  0  0  0  0  0  0  0  0  0
   57.0911   23.0763   42.1060 H   0  0  0  0  0  0  0  0  0  0  0  0
   55.1569   21.1925   45.4008 H   0  0  0  0  0  0  0  0  0  0  0  0
   55.7826   28.3013   44.7064 H   0  0  0  0  0  0  0  0  0  0  0  0
   59.7369   32.4471   47.0737 H   0  0  0  0  0  0  0  0  0  0  0  0
   60.2767   32.3960   45.3910 H   0  0  0  0  0  0  0  0  0  0  0  0
  1  2  1  0
  2  3  1  0
  3  4  1  0
  4  5  1  0
  5  6  1  0
  6  7  1  0
  7  8  2  0
  8  9  1  0
  9 10  2  0
 10 11  1  0
 11 12  1  0
 12 13  2  0
 12 14  1  0
 14 15  2  0
 15 16  1  0
 16 17  2  0
 17 18  1  0
 18 19  2  0
 19 20  1  0
 10 21  1  0
 21 22  2  0
  6 23  1  0
 23  3  1  0
 22  7  1  0
 19 14  1  0
  1 24  1  0
  1 25  1  0
  1 26  1  0
  2 27  1  0
  3 28  1  6
  4 29  1  0
  4 30  1  0
  5 31  1  0
  5 32  1  0
  8 33  1  0
  9 34  1  0
 15 35  1  0
 16 36  1  0
 18 37  1  0
 21 38  1  0
 23 39  1  0
 23 40  1  0
M  CHG  1  11  -1
M  END
>  <UniqueID>  (41) 
38

>  <SMILES>  (41) 
CN[C@@H]1CCN(c2ccc([N-]C(=O)c3ccncc3F)cn2)C1

>  <Energy>  (41) 
55.07592555205289

>  <Genealogy>  (41) 
CNC1CCN(c2ccc([N-]C(=O)c3ccncc3F)cn2)C1 (protonated)
CN[C@@H]1CCN(c2ccc([N-]C(=O)c3ccncc3F)cn2)C1 (chirality)
CN[C@@H]1CCN(c2ccc([N-]C(=O)c3ccncc3F)cn2)C1 (3D coordinates assigned)
CN[C@@H]1CCN(c2ccc([N-]C(=O)c3ccncc3F)cn2)C1 (nonaromatic ring conformer: 55.07592555205289 kcal/mol)

>  <smiles>  (41) 
CNC1CCN(c2ccc(NC(=O)c3ccncc3F)cn2)C1

>  <score_type>  (41) 
oracle

>  <origin>  (41) 
adg

>  <m_score__min__energy>  (41) 
-9.1199999999999992

>  <m_primary>  (41) 
energy

$$$$
41:0
     RDKit          3D

 48 51  0  0  0  0  0  0  0  0999 V2000
   56.6340   24.8130   47.3260 C   0  0  0  0  0  0  0  0  0  0  0  0
   56.7620   26.1220   46.6090 C   0  0  0  0  0  0  0  0  0  0  0  0
   55.7210   26.6910   46.1880 O   0  0  0  0  0  0  0  0  0  0  0  0
   58.0360   26.7270   46.3510 N   0  0  0  0  0  0  0  0  0  0  0  0
   58.3840   28.1080   46.5440 C   0  0  0  0  0  0  0  0  0  0  0  0
   59.3170   28.4800   47.5240 C   0  0  0  0  0  0  0  0  0  0  0  0
   59.6430   29.8220   47.7200 C   0  0  0  0  0  0  0  0  0  0  0  0
   59.0220   30.8210   46.9590 C   0  0  0  0  0  0  0  0  0  0  0  0
   59.3660   32.2480   47.1640 C   0  0  0  0  0  0  0  0  0  0  0  0
   58.5200   33.2730   46.6950 C   0  0  0  0  0  0  0  0  0  0  0  0
   58.8890   34.6150   46.9070 C   0  0  0  0  0  0  0  0  0  0  0  0
   60.0440   34.9210   47.5630 N   0  0  0  0  0  0  0  0  0  0  0  0
   60.8300   33.9090   48.0030 C   0  0  0  0  0  0  0  0  0  0  0  0
   62.0070   33.9990   48.7050 C   0  0  0  0  0  0  0  0  0  0  0  0
   62.3490   32.6600   48.9210 C   0  0  0  0  0  0  0  0  0  0  0  0
   63.5420   32.1560   49.6430 C   0  0  0  0  0  0  0  0  0  0  0  0
   63.4150   31.0810   50.5430 C   0  0  0  0  0  0  0  0  0  0  0  0
   64.5300   30.5950   51.2320 C   0  0  0  0  0  0  0  0  0  0  0  0
   65.7850   31.1740   51.0300 C   0  0  0  0  0  0  0  0  0  0  0  0
   66.8660   30.7010   51.6970 F   0  0  0  0  0  0  0  0  0  0  0  0
   65.9260   32.2400   50.1380 C   0  0  0  0  0  0  0  0  0  0  0  0
   64.8130   32.7310   49.4480 C   0  0  0  0  0  0  0  0  0  0  0  0
   61.4130   31.8470   48.3700 N   0  0  0  0  0  0  0  0  0  0  0  0
   60.5040   32.6270   47.8110 N   0  0  0  0  0  0  0  0  0  0  0  0
   58.0680   30.4540   45.9960 C   0  0  0  0  0  0  0  0  0  0  0  0
   57.7410   29.1030   45.7780 C   0  0  0  0  0  0  0  0  0  0  0  0
   56.7550   28.7290   44.7960 N   0  0  0  0  0  0  0  0  0  0  0  0
   55.8490   29.8750   43.8570 S   0  0  0  0  0  0  0  0  0  0  0  0
   56.6070   30.1000   42.2610 C   0  0  0  0  0  0  0  0  0  0  0  0
   54.4590   29.3430   43.6510 O   0  0  0  0  0  0  0  0  0  0  0  0
   55.7650   31.1860   44.5850 O   0  0  0  0  0  0  0  0  0  0  0  0
   56.6510   24.9866   48.4121 H   0  0  0  0  0  0  0  0  0  0  0  0
   55.6846   24.3330   47.0462 H   0  0  0  0  0  0  0  0  0  0  0  0
   57.4724   24.1582   47.0462 H   0  0  0  0  0  0  0  0  0  0  0  0
   59.7954   27.7066   48.1429 H   0  0  0  0  0  0  0  0  0  0  0  0
   60.3923   30.0976   48.4767 H   0  0  0  0  0  0  0  0  0  0  0  0
   57.5846   33.0279   46.1707 H   0  0  0  0  0  0  0  0  0  0  0  0
   58.2397   35.4235   46.5401 H   0  0  0  0  0  0  0  0  0  0  0  0
   62.5484   34.9031   49.0203 H   0  0  0  0  0  0  0  0  0  0  0  0
   62.4298   30.6194   50.7055 H   0  0  0  0  0  0  0  0  0  0  0  0
   64.4189   29.7555   51.9341 H   0  0  0  0  0  0  0  0  0  0  0  0
   66.9150   32.6943   49.9780 H   0  0  0  0  0  0  0  0  0  0  0  0
   64.9309   33.5717   48.7485 H   0  0  0  0  0  0  0  0  0  0  0  0
   57.5688   31.2346   45.4031 H   0  0  0  0  0  0  0  0  0  0  0  0
   56.6440   27.7250   44.5320 H   0  0  0  0  0  0  0  0  0  0  0  0
   57.6539   30.4108   42.3928 H   0  0  0  0  0  0  0  0  0  0  0  0
   56.5732   29.1531   41.7022 H   0  0  0  0  0  0  0  0  0  0  0  0
   56.0620   30.8751   41.7022 H   0  0  0  0  0  0  0  0  0  0  0  0
  1  2  1  0
  2  3  2  0
  2  4  1  0
  4  5  1  0
  5  6  2  0
  6  7  1  0
  7  8  2  0
  8  9  1  0
  9 10  2  0
 10 11  1  0
 11 12  2  0
 12 13  1  0
 13 14  2  0
 14 15  1  0
 15 16  1  0
 16 17  2  0
 17 18  1  0
 18 19  2  0
 19 20  1  0
 19 21  1  0
 21 22  2  0
 15 23  2  0
 23 24  1  0
  8 25  1  0
 25 26  2  0
 26 27  1  0
 27 28  1  0
 28 29  1  0
 28 30  2  0
 28 31  2  0
 26  5  1  0
 24  9  1  0
 24 13  1  0
 22 16  1  0
  1 32  1  0
  1 33  1  0
  1 34  1  0
  6 35  1  0
  7 36  1  0
 10 37  1  0
 11 38  1  0
 14 39  1  0
 17 40  1  0
 18 41  1  0
 21 42  1  0
 22 43  1  0
 25 44  1  0
 27 45  1  0
 29 46  1  0
 29 47  1  0
 29 48  1  0
M  CHG  1   4  -1
M  END
>  <UniqueID>  (42) 
39

>  <SMILES>  (42) 
CC(=O)[N-]c1ccc(-c2ccnc3cc(-c4ccc(F)cc4)nn23)cc1NS(C)(=O)=O

>  <Energy>  (42) 
98.99533931549614

>  <Genealogy>  (42) 
CC(=O)[N-]c1ccc(-c2ccnc3cc(-c4ccc(F)cc4)nn23)cc1NS(C)(=O)=O (protonated)
CC(=O)[N-]c1ccc(-c2ccnc3cc(-c4ccc(F)cc4)nn23)cc1NS(C)(=O)=O (3D coordinates assigned)
CC(=O)[N-]c1ccc(-c2ccnc3cc(-c4ccc(F)cc4)nn23)cc1NS(C)(=O)=O (optimized conformer: 98.99533931549614 kcal/mol)

>  <smiles>  (42) 
CC(=O)Nc1ccc(-c2ccnc3cc(-c4ccc(F)cc4)nn23)cc1NS(C)(=O)=O

>  <score_type>  (42) 
oracle

>  <origin>  (42) 
adg

>  <m_score__min__energy>  (42) 
-10.92

>  <m_primary>  (42) 
energy

$$$$
42:0
     RDKit          3D

 45 48  0  0  0  0  0  0  0  0999 V2000
   61.0942   26.4726   46.2985 H   0  0  0  0  0  0  0  0  0  0  0  0
   60.2500   27.1670   46.4220 C   0  0  0  0  0  0  0  0  0  0  0  0
   60.4470   28.3980   47.0510 C   0  0  0  0  0  0  0  0  0  0  0  0
   61.4418   28.6636   47.4380 H   0  0  0  0  0  0  0  0  0  0  0  0
   59.3820   29.2940   47.1900 C   0  0  0  0  0  0  0  0  0  0  0  0
   59.5900   30.5380   47.8740 N   0  0  0  0  0  0  0  0  0  0  0  0
   59.9750   31.6990   47.4030 C   0  0  0  0  0  0  0  0  0  0  0  0
   61.2150   32.2050   47.8590 C   0  0  0  0  0  0  0  0  0  0  0  0
   61.5390   33.5490   47.6210 C   0  0  0  0  0  0  0  0  0  0  0  0
   60.7060   34.3400   46.9030 N   0  0  0  0  0  0  0  0  0  0  0  0
   59.5690   33.8640   46.3390 C   0  0  0  0  0  0  0  0  0  0  0  0
   58.7990   34.7170   45.5390 C   0  0  0  0  0  0  0  0  0  0  0  0
   59.0634   35.7818   45.4595 H   0  0  0  0  0  0  0  0  0  0  0  0
   57.6980   34.2200   44.8430 C   0  0  0  0  0  0  0  0  0  0  0  0
   57.0753   34.8984   44.2413 H   0  0  0  0  0  0  0  0  0  0  0  0
   57.3870   32.8640   44.9100 C   0  0  0  0  0  0  0  0  0  0  0  0
   56.5469   32.4653   44.3224 H   0  0  0  0  0  0  0  0  0  0  0  0
   58.1370   32.0080   45.7200 C   0  0  0  0  0  0  0  0  0  0  0  0
   57.9016   30.9337   45.7394 H   0  0  0  0  0  0  0  0  0  0  0  0
   59.1960   32.5060   46.5160 C   0  0  0  0  0  0  0  0  0  0  0  0
   62.7990   34.1190   48.1980 C   0  0  0  0  0  0  0  0  0  0  0  0
   63.0479   35.0582   47.6822 H   0  0  0  0  0  0  0  0  0  0  0  0
   62.6567   34.3200   49.2701 H   0  0  0  0  0  0  0  0  0  0  0  0
   63.9370   33.1150   48.0100 C   0  0  0  0  0  0  0  0  0  0  0  0
   64.1185   32.9866   46.9327 H   0  0  0  0  0  0  0  0  0  0  0  0
   64.8217   33.5152   48.5269 H   0  0  0  0  0  0  0  0  0  0  0  0
   63.6220   31.7340   48.6260 C   0  0  0  0  0  0  0  0  0  0  0  0
   64.0714   30.9642   47.9815 H   0  0  0  0  0  0  0  0  0  0  0  0
   64.0368   31.7541   49.6446 H   0  0  0  0  0  0  0  0  0  0  0  0
   62.1160   31.4060   48.7840 C   0  0  0  0  0  0  0  0  0  0  0  0
   61.9698   30.3365   48.5721 H   0  0  0  0  0  0  0  0  0  0  0  0
   61.8360   31.6730   49.8137 H   0  0  0  0  0  0  0  0  0  0  0  0
   58.0980   28.9190   46.7600 C   0  0  0  0  0  0  0  0  0  0  0  0
   57.2459   29.5940   46.9286 H   0  0  0  0  0  0  0  0  0  0  0  0
   57.8960   27.6850   46.1150 C   0  0  0  0  0  0  0  0  0  0  0  0
   56.6090   27.2830   45.6260 N   0  0  0  0  0  0  0  0  0  0  0  0
   55.8300   25.7660   45.9490 S   0  0  0  0  0  0  0  0  0  0  0  0
   56.2740   25.2790   47.2990 O   0  0  0  0  0  0  0  0  0  0  0  0
   54.3380   25.9500   45.9670 O   0  0  0  0  0  0  0  0  0  0  0  0
   56.2890   24.5560   44.7250 C   0  0  0  0  0  0  0  0  0  0  0  0
   56.6362   23.6406   45.2265 H   0  0  0  0  0  0  0  0  0  0  0  0
   55.4174   24.3215   44.0963 H   0  0  0  0  0  0  0  0  0  0  0  0
   57.0969   24.9586   44.0963 H   0  0  0  0  0  0  0  0  0  0  0  0
   58.9830   26.8150   45.9490 C   0  0  0  0  0  0  0  0  0  0  0  0
   58.8080   25.6160   45.3380 F   0  0  0  0  0  0  0  0  0  0  0  0
  1  2  1  0
  2  3  2  0
  3  4  1  0
  3  5  1  0
  5  6  1  0
  6  7  2  0
  7  8  1  0
  8  9  2  0
  9 10  1  0
 10 11  1  0
 11 12  2  0
 12 13  1  0
 12 14  1  0
 14 15  1  0
 14 16  2  0
 16 17  1  0
 16 18  1  0
 18 19  1  0
 18 20  2  0
  9 21  1  0
 21 22  1  0
 21 23  1  0
 21 24  1  0
 24 25  1  0
 24 26  1  0
 24 27  1  0
 27 28  1  0
 27 29  1  0
 27 30  1  0
 30 31  1  0
 30 32  1  0
  5 33  2  0
 33 34  1  0
 33 35  1  0
 35 36  1  0
 36 37  1  0
 37 38  2  0
 37 39  2  0
 37 40  1  0
 40 41  1  0
 40 42  1  0
 40 43  1  0
 35 44  2  0
 44 45  1  0
 44  2  1  0
 20  7  1  0
 30  8  1  0
 20 11  1  0
M  CHG  2  10  -1  36  -1
M  END
>  <UniqueID>  (43) 
40

>  <SMILES>  (43) 
CS(=O)(=O)[N-]c1cc(/N=c2/c3c([n-]c4ccccc24)CCCC3)ccc1F

>  <Energy>  (43) 
74.62944477705757

>  <Genealogy>  (43) 
CS(=O)(=O)[N-]c1cc(N=c2c3c([n-]c4ccccc24)CCCC3)ccc1F (protonated)
CS(=O)(=O)[N-]c1cc(/N=c2/c3c([n-]c4ccccc24)CCCC3)ccc1F (cis-trans isomerization)
CS(=O)(=O)[N-]c1cc(/N=c2/c3c([n-]c4ccccc24)CCCC3)ccc1F (3D coordinates assigned)
CS(=O)(=O)[N-]c1cc(/N=c2/c3c([n-]c4ccccc24)CCCC3)ccc1F (nonaromatic ring conformer: 74.62944477705757 kcal/mol)

>  <smiles>  (43) 
CS(=O)(=O)Nc1cc(N=c2c3c([nH]c4ccccc24)CCCC3)ccc1F

>  <score_type>  (43) 
oracle

>  <origin>  (43) 
adg

>  <m_score__min__energy>  (43) 
-11.73

>  <m_primary>  (43) 
energy

$$$$
43:0
     RDKit          3D

 33 34  0  0  0  0  0  0  0  0999 V2000
   63.4250   32.5140   47.5030 C   0  0  0  0  0  0  0  0  0  0  0  0
   61.9110   32.3500   47.5820 C   0  0  0  0  0  0  0  0  0  0  0  0
   61.5650   31.0310   48.0040 O   0  0  0  0  0  0  0  0  0  0  0  0
   60.5430   30.2390   47.4560 C   0  0  0  0  0  0  0  0  0  0  0  0
   60.3950   30.2240   46.0630 C   0  0  0  0  0  0  0  0  0  0  0  0
   59.3960   29.4540   45.4610 C   0  0  0  0  0  0  0  0  0  0  0  0
   58.5310   28.6840   46.2480 C   0  0  0  0  0  0  0  0  0  0  0  0
   57.2640   27.7200   45.4990 S   0  0  0  0  0  0  0  0  0  0  0  0
   57.7760   27.1950   44.1880 O   0  0  0  0  0  0  0  0  0  0  0  0
   56.8930   26.5710   46.3940 O   0  0  0  0  0  0  0  0  0  0  0  0
   55.8670   28.7200   45.2440 N   0  0  0  0  0  0  0  0  0  0  0  0
   55.7550   29.7370   44.2430 C   0  0  0  0  0  0  0  0  0  0  0  0
   54.8060   29.6690   43.4190 O   0  0  0  0  0  0  0  0  0  0  0  0
   56.7030   30.8610   44.1410 C   0  0  0  0  0  0  0  0  0  0  0  0
   57.2860   31.2230   42.9180 C   0  0  0  0  0  0  0  0  0  0  0  0
   58.1330   32.2860   42.8670 N   0  0  0  0  0  0  0  0  0  0  0  0
   58.4200   33.0100   43.9790 C   0  0  0  0  0  0  0  0  0  0  0  0
   57.8230   32.6680   45.1930 C   0  0  0  0  0  0  0  0  0  0  0  0
   56.9750   31.6080   45.2450 N   0  0  0  0  0  0  0  0  0  0  0  0
   58.6650   28.7010   47.6410 C   0  0  0  0  0  0  0  0  0  0  0  0
   59.6630   29.4720   48.2450 C   0  0  0  0  0  0  0  0  0  0  0  0
   63.8425   32.5592   48.5197 H   0  0  0  0  0  0  0  0  0  0  0  0
   63.8591   31.6576   46.9662 H   0  0  0  0  0  0  0  0  0  0  0  0
   63.6656   33.4435   46.9662 H   0  0  0  0  0  0  0  0  0  0  0  0
   61.5067   33.0766   48.3021 H   0  0  0  0  0  0  0  0  0  0  0  0
   61.4851   32.5234   46.5827 H   0  0  0  0  0  0  0  0  0  0  0  0
   61.0717   30.8241   45.4369 H   0  0  0  0  0  0  0  0  0  0  0  0
   59.2890   29.4529   44.3662 H   0  0  0  0  0  0  0  0  0  0  0  0
   57.0598   30.6511   42.0060 H   0  0  0  0  0  0  0  0  0  0  0  0
   59.1172   33.8590   43.9235 H   0  0  0  0  0  0  0  0  0  0  0  0
   58.0373   33.2518   46.1003 H   0  0  0  0  0  0  0  0  0  0  0  0
   57.9818   28.1049   48.2638 H   0  0  0  0  0  0  0  0  0  0  0  0
   59.7615   29.4797   49.3406 H   0  0  0  0  0  0  0  0  0  0  0  0
  1  2  1  0
  2  3  1  0
  3  4  1  0
  4  5  2  0
  5  6  1  0
  6  7  2  0
  7  8  1  0
  8  9  2  0
  8 10  2  0
  8 11  1  0
 11 12  1  0
 12 13  2  0
 12 14  1  0
 14 15  2  0
 15 16  1  0
 16 17  2  0
 17 18  1  0
 18 19  2  0
  7 20  1  0
 20 21  2  0
 21  4  1  0
 19 14  1  0
  1 22  1  0
  1 23  1  0
  1 24  1  0
  2 25  1  0
  2 26  1  0
  5 27  1  0
  6 28  1  0
 15 29  1  0
 17 30  1  0
 18 31  1  0
 20 32  1  0
 21 33  1  0
M  CHG  1  11  -1
M  END
>  <UniqueID>  (44) 
41

>  <SMILES>  (44) 
CCOc1ccc(S(=O)(=O)[N-]C(=O)c2cnccn2)cc1

>  <Energy>  (44) 
41.66005225998698

>  <Genealogy>  (44) 
CCOc1ccc(S(=O)(=O)[N-]C(=O)c2cnccn2)cc1 (protonated)
CCOc1ccc(S(=O)(=O)[N-]C(=O)c2cnccn2)cc1 (3D coordinates assigned)
CCOc1ccc(S(=O)(=O)[N-]C(=O)c2cnccn2)cc1 (optimized conformer: 41.66005225998698 kcal/mol)

>  <smiles>  (44) 
CCOc1ccc(S(=O)(=O)NC(=O)c2cnccn2)cc1

>  <score_type>  (44) 
oracle

>  <origin>  (44) 
adg

>  <m_score__min__energy>  (44) 
-8.4399999999999995

>  <m_primary>  (44) 
energy

$$$$
44:0
     RDKit          3D

 40 42  0  0  0  0  0  0  0  0999 V2000
   55.8630   30.1380   43.7950 C   0  0  0  0  0  0  0  0  0  0  0  0
   57.0360   29.5560   44.5210 C   0  0  0  0  0  0  0  0  0  0  0  0
   57.3030   28.2380   44.5780 N   0  0  0  0  0  0  0  0  0  0  0  0
   58.4400   28.1370   45.2910 C   0  0  0  0  0  0  0  0  0  0  0  0
   59.1590   26.6980   45.6150 S   0  0  0  0  0  0  0  0  0  0  0  0
   58.9130   29.3420   45.6930 N   0  0  0  0  0  0  0  0  0  0  0  0
   60.1810   29.6030   46.3890 C   0  0  0  0  0  0  0  0  0  0  0  0
   59.9510   29.8680   47.8810 C   0  0  0  0  0  0  0  0  0  0  0  0
   61.0360   30.5900   48.4620 O   0  0  0  0  0  0  0  0  0  0  0  0
   61.7290   31.6530   47.8590 C   0  0  0  0  0  0  0  0  0  0  0  0
   60.9840   32.7380   47.3810 C   0  0  0  0  0  0  0  0  0  0  0  0
   61.6220   33.8330   46.7910 C   0  0  0  0  0  0  0  0  0  0  0  0
   63.0120   33.8520   46.6720 C   0  0  0  0  0  0  0  0  0  0  0  0
   63.7670   32.7700   47.1330 C   0  0  0  0  0  0  0  0  0  0  0  0
   63.1330   31.6700   47.7180 C   0  0  0  0  0  0  0  0  0  0  0  0
   58.0300   30.2450   45.1980 C   0  0  0  0  0  0  0  0  0  0  0  0
   58.1110   31.7130   45.3560 C   0  0  0  0  0  0  0  0  0  0  0  0
   58.5010   32.5260   44.2800 C   0  0  0  0  0  0  0  0  0  0  0  0
   58.5760   33.9140   44.4350 C   0  0  0  0  0  0  0  0  0  0  0  0
   58.2810   34.4960   45.6710 C   0  0  0  0  0  0  0  0  0  0  0  0
   57.9200   33.6920   46.7540 C   0  0  0  0  0  0  0  0  0  0  0  0
   57.8370   32.3050   46.6000 C   0  0  0  0  0  0  0  0  0  0  0  0
   55.1253   30.5040   44.5242 H   0  0  0  0  0  0  0  0  0  0  0  0
   56.2002   30.9733   43.1637 H   0  0  0  0  0  0  0  0  0  0  0  0
   55.4018   29.3642   43.1637 H   0  0  0  0  0  0  0  0  0  0  0  0
   56.7490   27.4610   44.1530 H   0  0  0  0  0  0  0  0  0  0  0  0
   60.8382   28.7280   46.2773 H   0  0  0  0  0  0  0  0  0  0  0  0
   60.6445   30.4960   45.9444 H   0  0  0  0  0  0  0  0  0  0  0  0
   59.0279   30.4541   48.0008 H   0  0  0  0  0  0  0  0  0  0  0  0
   59.8711   28.8979   48.3933 H   0  0  0  0  0  0  0  0  0  0  0  0
   59.8877   32.7286   47.4705 H   0  0  0  0  0  0  0  0  0  0  0  0
   61.0273   34.6808   46.4201 H   0  0  0  0  0  0  0  0  0  0  0  0
   63.5134   34.7182   46.2156 H   0  0  0  0  0  0  0  0  0  0  0  0
   64.8626   32.7840   47.0353 H   0  0  0  0  0  0  0  0  0  0  0  0
   63.7300   30.8155   48.0693 H   0  0  0  0  0  0  0  0  0  0  0  0
   58.7488   32.0693   43.3105 H   0  0  0  0  0  0  0  0  0  0  0  0
   58.8671   34.5475   43.5842 H   0  0  0  0  0  0  0  0  0  0  0  0
   58.3333   35.5882   45.7907 H   0  0  0  0  0  0  0  0  0  0  0  0
   57.7006   34.1505   47.7295 H   0  0  0  0  0  0  0  0  0  0  0  0
   57.5560   31.6746   47.4565 H   0  0  0  0  0  0  0  0  0  0  0  0
  1  2  1  0
  2  3  1  0
  3  4  1  0
  4  5  2  0
  4  6  1  0
  6  7  1  0
  7  8  1  0
  8  9  1  0
  9 10  1  0
 10 11  2  0
 11 12  1  0
 12 13  2  0
 13 14  1  0
 14 15  2  0
  6 16  1  0
 16 17  1  0
 17 18  2  0
 18 19  1  0
 19 20  2  0
 20 21  1  0
 21 22  2  0
 16  2  2  0
 22 17  1  0
 15 10  1  0
  1 23  1  0
  1 24  1  0
  1 25  1  0
  3 26  1  0
  7 27  1  0
  7 28  1  0
  8 29  1  0
  8 30  1  0
 11 31  1  0
 12 32  1  0
 13 33  1  0
 14 34  1  0
 15 35  1  0
 18 36  1  0
 19 37  1  0
 20 38  1  0
 21 39  1  0
 22 40  1  0
M  END
>  <UniqueID>  (45) 
42

>  <SMILES>  (45) 
Cc1[nH]c(=S)n(CCOc2ccccc2)c1-c1ccccc1

>  <Energy>  (45) 
73.50052742314577

>  <Genealogy>  (45) 
Cc1[nH]c(=S)n(CCOc2ccccc2)c1-c1ccccc1 (3D coordinates assigned)
Cc1[nH]c(=S)n(CCOc2ccccc2)c1-c1ccccc1 (optimized conformer: 73.50052742314577 kcal/mol)

>  <smiles>  (45) 
Cc1[nH]c(=S)n(CCOc2ccccc2)c1-c1ccccc1

>  <score_type>  (45) 
oracle

>  <origin>  (45) 
adg

>  <m_score__min__energy>  (45) 
-7.4900000000000002

>  <m_primary>  (45) 
energy

$$$$
45:0
     RDKit          3D

 57 60  0  0  0  0  0  0  0  0999 V2000
   59.4610   27.6780   45.3960 O   0  0  0  0  0  0  0  0  0  0  0  0
   58.3630   27.3510   44.8270 C   0  0  0  0  0  0  0  0  0  0  0  0
   57.4940   28.4360   44.5190 N   0  0  0  0  0  0  0  0  0  0  0  0
   57.8060   29.7920   44.8140 C   0  0  0  0  0  0  0  0  0  0  0  0
   58.1620   30.1380   46.1020 C   0  0  0  0  0  0  0  0  0  0  0  0
   58.4650   31.4510   46.3920 C   0  0  0  0  0  0  0  0  0  0  0  0
   58.4360   32.4650   45.4640 C   0  0  0  0  0  0  0  0  0  0  0  0
   58.8140   34.1230   45.8130 S   0  0  0  0  0  0  0  0  0  0  0  0
   58.1160   35.0500   44.8560 O   0  0  0  0  0  0  0  0  0  0  0  0
   58.2690   34.4210   47.2010 O   0  0  0  0  0  0  0  0  0  0  0  0
   60.5080   34.4230   45.8990 N   0  0  0  0  0  0  0  0  0  0  0  0
   61.2890   33.8990   46.7560 C   0  0  0  0  0  0  0  0  0  0  0  0
   62.5760   33.7120   46.3900 N   0  0  0  0  0  0  0  0  0  0  0  0
   63.4680   33.1700   47.2220 C   0  0  0  0  0  0  0  0  0  0  0  0
   63.1080   32.7800   48.4810 C   0  0  0  0  0  0  0  0  0  0  0  0
   61.8050   32.9620   48.8700 C   0  0  0  0  0  0  0  0  0  0  0  0
   60.9510   33.5130   47.9910 N   0  0  0  0  0  0  0  0  0  0  0  0
   58.0750   32.0960   44.1680 C   0  0  0  0  0  0  0  0  0  0  0  0
   57.7650   30.7830   43.8510 C   0  0  0  0  0  0  0  0  0  0  0  0
   58.0390   25.9620   44.5230 C   0  0  0  0  0  0  0  0  0  0  0  0
   57.3970   25.5680   43.3690 C   0  0  0  0  0  0  0  0  0  0  0  0
   57.1300   24.2300   43.1640 C   0  0  0  0  0  0  0  0  0  0  0  0
   57.4870   23.2600   44.0820 C   0  0  0  0  0  0  0  0  0  0  0  0
   57.1000   21.6130   43.7160 S   0  0  0  0  0  0  0  0  0  0  0  0
   58.2520   21.0110   42.9610 O   0  0  0  0  0  0  0  0  0  0  0  0
   55.9390   21.6160   42.7450 O   0  0  0  0  0  0  0  0  0  0  0  0
   56.7880   20.6250   45.0620 N   0  0  0  0  0  0  0  0  0  0  0  0
   57.7280   20.7000   46.1300 C   0  0  0  0  0  0  0  0  0  0  0  0
   57.0070   21.0460   47.4280 C   0  0  0  0  0  0  0  0  0  0  0  0
   56.1560   22.2880   47.2740 C   0  0  0  0  0  0  0  0  0  0  0  0
   55.1240   22.0100   46.2160 C   0  0  0  0  0  0  0  0  0  0  0  0
   55.4120   20.7490   45.4400 C   0  0  0  0  0  0  0  0  0  0  0  0
   58.1370   23.6490   45.2550 C   0  0  0  0  0  0  0  0  0  0  0  0
   58.4000   25.0030   45.4460 C   0  0  0  0  0  0  0  0  0  0  0  0
   56.5770   28.2580   44.0550 H   0  0  0  0  0  0  0  0  0  0  0  0
   58.2035   29.3722   46.8905 H   0  0  0  0  0  0  0  0  0  0  0  0
   58.7462   31.7020   47.4254 H   0  0  0  0  0  0  0  0  0  0  0  0
   64.5078   33.0354   46.8893 H   0  0  0  0  0  0  0  0  0  0  0  0
   63.8437   32.3317   49.1649 H   0  0  0  0  0  0  0  0  0  0  0  0
   61.4685   32.6649   49.8742 H   0  0  0  0  0  0  0  0  0  0  0  0
   59.9680   33.6410   48.3080 H   0  0  0  0  0  0  0  0  0  0  0  0
   58.0356   32.8635   43.3810 H   0  0  0  0  0  0  0  0  0  0  0  0
   57.4826   30.5259   42.8194 H   0  0  0  0  0  0  0  0  0  0  0  0
   57.0998   26.3142   42.6174 H   0  0  0  0  0  0  0  0  0  0  0  0
   56.6165   23.9252   42.2402 H   0  0  0  0  0  0  0  0  0  0  0  0
   58.2337   19.7294   46.2405 H   0  0  0  0  0  0  0  0  0  0  0  0
   58.4701   21.4808   45.9070 H   0  0  0  0  0  0  0  0  0  0  0  0
   56.3609   20.2029   47.7140 H   0  0  0  0  0  0  0  0  0  0  0  0
   57.7635   21.2391   48.2029 H   0  0  0  0  0  0  0  0  0  0  0  0
   55.6604   22.5226   48.2276 H   0  0  0  0  0  0  0  0  0  0  0  0
   56.7793   23.1475   46.9863 H   0  0  0  0  0  0  0  0  0  0  0  0
   54.1416   21.9086   46.7004 H   0  0  0  0  0  0  0  0  0  0  0  0
   55.1420   22.8493   45.5052 H   0  0  0  0  0  0  0  0  0  0  0  0
   55.1407   19.8843   46.0635 H   0  0  0  0  0  0  0  0  0  0  0  0
   54.8195   20.7905   44.5142 H   0  0  0  0  0  0  0  0  0  0  0  0
   58.4337   22.9049   46.0089 H   0  0  0  0  0  0  0  0  0  0  0  0
   58.9140   25.3189   46.3658 H   0  0  0  0  0  0  0  0  0  0  0  0
  1  2  2  0
  2  3  1  0
  3  4  1  0
  4  5  2  0
  5  6  1  0
  6  7  2  0
  7  8  1  0
  8  9  2  0
  8 10  2  0
  8 11  1  0
 11 12  2  3
 12 13  1  0
 13 14  2  0
 14 15  1  0
 15 16  2  0
 16 17  1  0
  7 18  1  0
 18 19  2  0
  2 20  1  0
 20 21  2  0
 21 22  1  0
 22 23  2  0
 23 24  1  0
 24 25  2  0
 24 26  2  0
 24 27  1  0
 27 28  1  0
 28 29  1  0
 29 30  1  0
 30 31  1  0
 31 32  1  0
 23 33  1  0
 33 34  2  0
 19  4  1  0
 34 20  1  0
 17 12  1  0
 32 27  1  0
  3 35  1  0
  5 36  1  0
  6 37  1  0
 14 38  1  0
 15 39  1  0
 16 40  1  0
 17 41  1  0
 18 42  1  0
 19 43  1  0
 21 44  1  0
 22 45  1  0
 28 46  1  0
 28 47  1  0
 29 48  1  0
 29 49  1  0
 30 50  1  0
 30 51  1  0
 31 52  1  0
 31 53  1  0
 32 54  1  0
 32 55  1  0
 33 56  1  0
 34 57  1  0
M  END
>  <smiles>  (46) 
O=C(Nc1ccc(S(=O)(=O)N=c2nccc[nH]2)cc1)c1ccc(S(=O)(=O)N2CCCCC2)cc1

>  <score_type>  (46) 
oracle

>  <origin>  (46) 
adg

>  <m_score__min__energy>  (46) 
-8.9800000000000004

>  <m_primary>  (46) 
energy

$$$$
46:0
     RDKit          3D

 29 30  0  0  0  0  0  0  0  0999 V2000
   59.2730   27.8890   47.5380 N   0  0  0  0  0  0  0  0  0  0  0  0
   58.8510   26.8070   46.9550 C   0  0  0  0  0  0  0  0  0  0  0  0
   57.5330   26.6380   46.7490 N   0  0  0  0  0  0  0  0  0  0  0  0
   57.0540   25.5340   46.1500 C   0  0  0  0  0  0  0  0  0  0  0  0
   55.6000   25.3350   45.9160 C   0  0  0  0  0  0  0  0  0  0  0  0
   54.9580   26.5410   46.1860 O   0  0  0  0  0  0  0  0  0  0  0  0
   57.9740   24.5680   45.7500 C   0  0  0  0  0  0  0  0  0  0  0  0
   57.5530   23.3400   45.0930 C   0  0  0  0  0  0  0  0  0  0  0  0
   57.6080   22.0990   45.6970 C   0  0  0  0  0  0  0  0  0  0  0  0
   57.1820   21.0060   44.9780 C   0  0  0  0  0  0  0  0  0  0  0  0
   56.7050   21.1030   43.6830 C   0  0  0  0  0  0  0  0  0  0  0  0
   56.2730   19.9980   42.9540 O   0  0  0  0  0  0  0  0  0  0  0  0
   56.6510   22.3570   43.0780 C   0  0  0  0  0  0  0  0  0  0  0  0
   57.0750   23.4460   43.7950 C   0  0  0  0  0  0  0  0  0  0  0  0
   59.3220   24.7650   45.9730 C   0  0  0  0  0  0  0  0  0  0  0  0
   60.2300   23.9130   45.6290 N   0  0  0  0  0  0  0  0  0  0  0  0
   59.7650   25.8940   46.5810 N   0  0  0  0  0  0  0  0  0  0  0  0
   58.6350   28.6120   47.9130 H   0  0  0  0  0  0  0  0  0  0  0  0
   56.8870   27.4040   47.0740 H   0  0  0  0  0  0  0  0  0  0  0  0
   55.4255   25.0439   44.8697 H   0  0  0  0  0  0  0  0  0  0  0  0
   55.2110   24.5378   46.5665 H   0  0  0  0  0  0  0  0  0  0  0  0
   54.0140   26.3440   46.4160 H   0  0  0  0  0  0  0  0  0  0  0  0
   57.9824   21.9875   46.7253 H   0  0  0  0  0  0  0  0  0  0  0  0
   57.2223   20.0143   45.4523 H   0  0  0  0  0  0  0  0  0  0  0  0
   56.6090   19.0820   43.1460 H   0  0  0  0  0  0  0  0  0  0  0  0
   56.2771   22.4706   42.0497 H   0  0  0  0  0  0  0  0  0  0  0  0
   57.0347   24.4393   43.3242 H   0  0  0  0  0  0  0  0  0  0  0  0
   59.9440   23.2020   44.9010 H   0  0  0  0  0  0  0  0  0  0  0  0
   60.8010   26.0350   46.7480 H   0  0  0  0  0  0  0  0  0  0  0  0
  1  2  2  3
  2  3  1  0
  3  4  1  0
  4  5  1  0
  5  6  1  0
  4  7  2  0
  7  8  1  0
  8  9  2  0
  9 10  1  0
 10 11  2  0
 11 12  1  0
 11 13  1  0
 13 14  2  0
  7 15  1  0
 15 16  2  3
 15 17  1  0
 17  2  1  0
 14  8  1  0
  1 18  1  0
  3 19  1  0
  5 20  1  0
  5 21  1  0
  6 22  1  0
  9 23  1  0
 10 24  1  0
 12 25  1  0
 13 26  1  0
 14 27  1  0
 16 28  1  0
 17 29  1  0
M  END
>  <smiles>  (47) 
N=c1[nH]c(CO)c(-c2ccc(O)cc2)c(=N)[nH]1

>  <score_type>  (47) 
oracle

>  <origin>  (47) 
adg

>  <m_score__min__energy>  (47) 
-5.5499999999999998

>  <m_primary>  (47) 
energy

$$$$
47:0
     RDKit          3D

 27 29  0  0  0  0  0  0  0  0999 V2000
   57.8080   32.3330   41.8470 S   0  0  0  0  0  0  0  0  0  0  0  0
   57.8210   31.6560   43.3480 C   0  0  0  0  0  0  0  0  0  0  0  0
   57.6810   30.3020   43.4560 N   0  0  0  0  0  0  0  0  0  0  0  0
   57.6820   29.6740   44.6720 C   0  0  0  0  0  0  0  0  0  0  0  0
   57.5290   28.1890   44.8130 C   0  0  0  0  0  0  0  0  0  0  0  0
   57.0250   27.5780   45.9840 C   0  0  0  0  0  0  0  0  0  0  0  0
   56.8990   26.1880   46.0670 C   0  0  0  0  0  0  0  0  0  0  0  0
   57.2710   25.3810   44.9930 C   0  0  0  0  0  0  0  0  0  0  0  0
   57.7720   25.9620   43.8290 C   0  0  0  0  0  0  0  0  0  0  0  0
   57.9000   27.3510   43.7370 C   0  0  0  0  0  0  0  0  0  0  0  0
   57.8280   30.4230   45.7980 N   0  0  0  0  0  0  0  0  0  0  0  0
   57.9720   31.7700   45.7550 C   0  0  0  0  0  0  0  0  0  0  0  0
   58.1190   32.4900   46.9470 C   0  0  0  0  0  0  0  0  0  0  0  0
   58.2690   33.8770   46.9140 C   0  0  0  0  0  0  0  0  0  0  0  0
   58.2710   34.5520   45.6910 C   0  0  0  0  0  0  0  0  0  0  0  0
   58.1250   33.8430   44.4960 C   0  0  0  0  0  0  0  0  0  0  0  0
   57.9730   32.4380   44.5140 C   0  0  0  0  0  0  0  0  0  0  0  0
   57.5700   29.7610   42.5740 H   0  0  0  0  0  0  0  0  0  0  0  0
   56.7287   28.2031   46.8393 H   0  0  0  0  0  0  0  0  0  0  0  0
   56.5040   25.7286   46.9851 H   0  0  0  0  0  0  0  0  0  0  0  0
   57.1694   24.2880   45.0638 H   0  0  0  0  0  0  0  0  0  0  0  0
   58.0672   25.3262   42.9813 H   0  0  0  0  0  0  0  0  0  0  0  0
   58.2954   27.7985   42.8132 H   0  0  0  0  0  0  0  0  0  0  0  0
   58.1162   31.9611   47.9115 H   0  0  0  0  0  0  0  0  0  0  0  0
   58.3858   34.4394   47.8521 H   0  0  0  0  0  0  0  0  0  0  0  0
   58.3879   35.6455   45.6687 H   0  0  0  0  0  0  0  0  0  0  0  0
   58.1284   34.3809   43.5365 H   0  0  0  0  0  0  0  0  0  0  0  0
  1  2  2  0
  2  3  1  0
  3  4  1  0
  4  5  1  0
  5  6  2  0
  6  7  1  0
  7  8  2  0
  8  9  1  0
  9 10  2  0
  4 11  2  0
 11 12  1  0
 12 13  2  0
 13 14  1  0
 14 15  2  0
 15 16  1  0
 16 17  2  0
 17  2  1  0
 10  5  1  0
 17 12  1  0
  3 18  1  0
  6 19  1  0
  7 20  1  0
  8 21  1  0
  9 22  1  0
 10 23  1  0
 13 24  1  0
 14 25  1  0
 15 26  1  0
 16 27  1  0
M  END
>  <UniqueID>  (48) 
43

>  <SMILES>  (48) 
S=c1[nH]c(-c2ccccc2)nc2ccccc12

>  <Energy>  (48) 
41.1791895582718

>  <Genealogy>  (48) 
S=c1[nH]c(-c2ccccc2)nc2ccccc12 (3D coordinates assigned)
S=c1[nH]c(-c2ccccc2)nc2ccccc12 (optimized conformer: 41.1791895582718 kcal/mol)

>  <smiles>  (48) 
S=c1[nH]c(-c2ccccc2)nc2ccccc12

>  <score_type>  (48) 
oracle

>  <origin>  (48) 
adg

>  <m_score__min__energy>  (48) 
-7.1699999999999999

>  <m_primary>  (48) 
energy

$$$$
48:0
     RDKit          3D

 58 61  0  0  0  0  0  0  0  0999 V2000
   65.2360   34.4910   51.9420 C   0  0  0  0  0  0  0  0  0  0  0  0
   65.4840   33.6040   50.7050 C   0  0  0  0  0  0  0  0  0  0  0  0
   64.6380   32.3660   50.5900 N   0  0  0  0  0  0  0  0  0  0  0  0
   65.3700   31.2240   51.2480 C   0  0  0  0  0  0  0  0  0  0  0  0
   66.8560   31.0440   50.8650 C   0  0  0  0  0  0  0  0  0  0  0  0
   63.3180   32.5750   51.2820 C   0  0  0  0  0  0  0  0  0  0  0  0
   62.1870   31.6950   50.7280 C   0  0  0  0  0  0  0  0  0  0  0  0
   62.0120   31.9430   49.2950 N   0  0  0  0  0  0  0  0  0  0  0  0
   60.8760   31.3890   48.6150 C   0  0  0  0  0  0  0  0  0  0  0  0
   60.6290   30.0220   48.7560 C   0  0  0  0  0  0  0  0  0  0  0  0
   61.3870   29.2720   49.5960 F   0  0  0  0  0  0  0  0  0  0  0  0
   59.6670   29.3950   47.9800 C   0  0  0  0  0  0  0  0  0  0  0  0
   58.9060   30.1220   47.0540 C   0  0  0  0  0  0  0  0  0  0  0  0
   57.9990   29.4550   46.2090 C   0  0  0  0  0  0  0  0  0  0  0  0
   57.8510   28.2050   46.3020 O   0  0  0  0  0  0  0  0  0  0  0  0
   57.2710   30.1790   45.2500 C   0  0  0  0  0  0  0  0  0  0  0  0
   56.3460   29.5190   44.2900 C   0  0  0  0  0  0  0  0  0  0  0  0
   56.6210   29.4490   43.0630 O   0  0  0  0  0  0  0  0  0  0  0  0
   55.1480   28.9680   44.7340 O   0  0  0  0  0  0  0  0  0  0  0  0
   57.4150   31.5700   45.2170 C   0  0  0  0  0  0  0  0  0  0  0  0
   58.2170   32.2350   46.1050 N   0  0  0  0  0  0  0  0  0  0  0  0
   58.1390   33.7090   46.0870 C   0  0  0  0  0  0  0  0  0  0  0  0
   57.3660   34.2800   44.9000 C   0  0  0  0  0  0  0  0  0  0  0  0
   58.8750   34.3800   44.9240 C   0  0  0  0  0  0  0  0  0  0  0  0
   59.0640   31.5330   46.9490 C   0  0  0  0  0  0  0  0  0  0  0  0
   60.1040   32.1620   47.7090 C   0  0  0  0  0  0  0  0  0  0  0  0
   60.3940   33.5200   47.4940 O   0  0  0  0  0  0  0  0  0  0  0  0
   60.2450   34.5560   48.4600 C   0  0  0  0  0  0  0  0  0  0  0  0
   63.1410   32.4490   48.5110 C   0  0  0  0  0  0  0  0  0  0  0  0
   64.4650   31.9810   49.1400 C   0  0  0  0  0  0  0  0  0  0  0  0
   65.4010   33.9008   52.8555 H   0  0  0  0  0  0  0  0  0  0  0  0
   65.9300   35.3443   51.9264 H   0  0  0  0  0  0  0  0  0  0  0  0
   64.2001   34.8606   51.9264 H   0  0  0  0  0  0  0  0  0  0  0  0
   65.3019   34.2181   49.8108 H   0  0  0  0  0  0  0  0  0  0  0  0
   66.5181   33.2431   50.8066 H   0  0  0  0  0  0  0  0  0  0  0  0
   65.3220   31.3792   52.3359 H   0  0  0  0  0  0  0  0  0  0  0  0
   64.8661   30.3129   50.8930 H   0  0  0  0  0  0  0  0  0  0  0  0
   67.4639   30.9704   51.7788 H   0  0  0  0  0  0  0  0  0  0  0  0
   66.9730   30.1251   50.2717 H   0  0  0  0  0  0  0  0  0  0  0  0
   67.1890   31.9084   50.2717 H   0  0  0  0  0  0  0  0  0  0  0  0
   63.4453   32.3460   52.3503 H   0  0  0  0  0  0  0  0  0  0  0  0
   63.0260   33.6216   51.1104 H   0  0  0  0  0  0  0  0  0  0  0  0
   62.4395   30.6361   50.8858 H   0  0  0  0  0  0  0  0  0  0  0  0
   61.2513   31.9389   51.2524 H   0  0  0  0  0  0  0  0  0  0  0  0
   59.4986   28.3138   48.0921 H   0  0  0  0  0  0  0  0  0  0  0  0
   56.8682   32.1459   44.4558 H   0  0  0  0  0  0  0  0  0  0  0  0
   58.1194   33.8425   47.1787 H   0  0  0  0  0  0  0  0  0  0  0  0
   56.8724   33.6012   44.1890 H   0  0  0  0  0  0  0  0  0  0  0  0
   56.5433   35.0012   44.7856 H   0  0  0  0  0  0  0  0  0  0  0  0
   59.4769   33.7732   44.2315 H   0  0  0  0  0  0  0  0  0  0  0  0
   59.6002   35.2023   44.8351 H   0  0  0  0  0  0  0  0  0  0  0  0
   60.3068   34.1265   49.4708 H   0  0  0  0  0  0  0  0  0  0  0  0
   61.0456   35.2987   48.3276 H   0  0  0  0  0  0  0  0  0  0  0  0
   59.2676   35.0430   48.3276 H   0  0  0  0  0  0  0  0  0  0  0  0
   63.0709   32.0673   47.4817 H   0  0  0  0  0  0  0  0  0  0  0  0
   63.1124   33.5486   48.5018 H   0  0  0  0  0  0  0  0  0  0  0  0
   64.5115   30.8844   49.0674 H   0  0  0  0  0  0  0  0  0  0  0  0
   65.2709   32.4825   48.5840 H   0  0  0  0  0  0  0  0  0  0  0  0
  1  2  1  0
  2  3  1  0
  3  4  1  0
  4  5  1  0
  3  6  1  0
  6  7  1  0
  7  8  1  0
  8  9  1  0
  9 10  2  0
 10 11  1  0
 10 12  1  0
 12 13  2  0
 13 14  1  0
 14 15  2  0
 14 16  1  0
 16 17  1  0
 17 18  2  0
 17 19  1  0
 16 20  2  0
 20 21  1  0
 21 22  1  0
 22 23  1  0
 23 24  1  0
 21 25  1  0
 25 26  2  0
 26 27  1  0
 27 28  1  0
  8 29  1  0
 29 30  1  0
 30  3  1  0
 26  9  1  0
 25 13  1  0
 24 22  1  0
  1 31  1  0
  1 32  1  0
  1 33  1  0
  2 34  1  0
  2 35  1  0
  4 36  1  0
  4 37  1  0
  5 38  1  0
  5 39  1  0
  5 40  1  0
  6 41  1  0
  6 42  1  0
  7 43  1  0
  7 44  1  0
 12 45  1  0
 20 46  1  0
 22 47  1  0
 23 48  1  0
 23 49  1  0
 24 50  1  0
 24 51  1  0
 28 52  1  0
 28 53  1  0
 28 54  1  0
 29 55  1  0
 29 56  1  0
 30 57  1  0
 30 58  1  0
M  CHG  2   3   1  19  -1
M  END
>  <UniqueID>  (49) 
44

>  <SMILES>  (49) 
CC[N+]1(CC)CCN(c2c(F)cc3c(=O)c(C(=O)[O-])cn(C4CC4)c3c2OC)CC1

>  <Energy>  (49) 
373.86443781432405

>  <Genealogy>  (49) 
CC[N+]1(CC)CCN(c2c(F)cc3c(=O)c(C(=O)[O-])cn(C4CC4)c3c2OC)CC1 (protonated)
CC[N+]1(CC)CCN(c2c(F)cc3c(=O)c(C(=O)[O-])cn(C4CC4)c3c2OC)CC1 (3D coordinates assigned)
CC[N+]1(CC)CCN(c2c(F)cc3c(=O)c(C(=O)[O-])cn(C4CC4)c3c2OC)CC1 (nonaromatic ring conformer: 373.86443781432405 kcal/mol)

>  <smiles>  (49) 
CC[N+]1(CC)CCN(c2c(F)cc3c(=O)c(C(=O)O)cn(C4CC4)c3c2OC)CC1

>  <score_type>  (49) 
oracle

>  <origin>  (49) 
adg

>  <m_score__min__energy>  (49) 
-8.3200000000000003

>  <m_primary>  (49) 
energy

$$$$
49:0
     RDKit          3D

 31 32  0  0  0  0  0  0  0  0999 V2000
   52.2850   23.3430   44.8380 C   0  0  0  0  0  0  0  0  0  0  0  0
   53.7290   23.7410   44.9210 C   0  0  0  0  0  0  0  0  0  0  0  0
   54.7070   22.9930   44.2500 C   0  0  0  0  0  0  0  0  0  0  0  0
   56.0500   23.3780   44.3060 C   0  0  0  0  0  0  0  0  0  0  0  0
   56.4210   24.5230   45.0160 C   0  0  0  0  0  0  0  0  0  0  0  0
   55.4450   25.3060   45.6570 C   0  0  0  0  0  0  0  0  0  0  0  0
   55.7930   26.4760   46.4100 N   0  0  0  0  0  0  0  0  0  0  0  0
   57.0710   27.1250   46.4200 C   0  0  0  0  0  0  0  0  0  0  0  0
   57.6240   27.3570   47.5270 O   0  0  0  0  0  0  0  0  0  0  0  0
   57.7040   27.6110   45.1740 C   0  0  0  0  0  0  0  0  0  0  0  0
   58.3100   26.7900   44.4340 O   0  0  0  0  0  0  0  0  0  0  0  0
   57.5960   29.0250   44.7430 C   0  0  0  0  0  0  0  0  0  0  0  0
   58.7700   29.7680   44.5300 C   0  0  0  0  0  0  0  0  0  0  0  0
   58.7010   31.1030   44.1210 C   0  0  0  0  0  0  0  0  0  0  0  0
   57.4610   31.7120   43.9300 C   0  0  0  0  0  0  0  0  0  0  0  0
   56.2850   30.9920   44.1570 C   0  0  0  0  0  0  0  0  0  0  0  0
   56.3430   29.6540   44.5730 C   0  0  0  0  0  0  0  0  0  0  0  0
   55.1610   28.9630   44.8420 O   0  0  0  0  0  0  0  0  0  0  0  0
   54.1040   24.9010   45.6180 C   0  0  0  0  0  0  0  0  0  0  0  0
   51.8767   23.2305   45.8532 H   0  0  0  0  0  0  0  0  0  0  0  0
   51.7211   24.1192   44.3000 H   0  0  0  0  0  0  0  0  0  0  0  0
   52.1984   22.3875   44.3000 H   0  0  0  0  0  0  0  0  0  0  0  0
   54.4165   22.0999   43.6773 H   0  0  0  0  0  0  0  0  0  0  0  0
   56.8153   22.7790   43.7907 H   0  0  0  0  0  0  0  0  0  0  0  0
   57.4806   24.8127   45.0736 H   0  0  0  0  0  0  0  0  0  0  0  0
   59.7508   29.2952   44.6864 H   0  0  0  0  0  0  0  0  0  0  0  0
   59.6256   31.6737   43.9497 H   0  0  0  0  0  0  0  0  0  0  0  0
   57.4086   32.7601   43.6003 H   0  0  0  0  0  0  0  0  0  0  0  0
   55.3090   31.4772   44.0086 H   0  0  0  0  0  0  0  0  0  0  0  0
   55.1480   27.9560   44.9590 H   0  0  0  0  0  0  0  0  0  0  0  0
   53.3389   25.4966   46.1376 H   0  0  0  0  0  0  0  0  0  0  0  0
  1  2  1  0
  2  3  2  0
  3  4  1  0
  4  5  2  0
  5  6  1  0
  6  7  1  0
  7  8  1  0
  8  9  2  0
  8 10  1  0
 10 11  2  0
 10 12  1  0
 12 13  2  0
 13 14  1  0
 14 15  2  0
 15 16  1  0
 16 17  2  0
 17 18  1  0
  6 19  2  0
 19  2  1  0
 17 12  1  0
  1 20  1  0
  1 21  1  0
  1 22  1  0
  3 23  1  0
  4 24  1  0
  5 25  1  0
 13 26  1  0
 14 27  1  0
 15 28  1  0
 16 29  1  0
 18 30  1  0
 19 31  1  0
M  CHG  1   7  -1
M  END
>  <UniqueID>  (50) 
45

>  <SMILES>  (50) 
Cc1cccc([N-]C(=O)C(=O)c2ccccc2O)c1

>  <Energy>  (50) 
40.898043265654664

>  <Genealogy>  (50) 
Cc1cccc([N-]C(=O)C(=O)c2ccccc2O)c1 (protonated)
Cc1cccc([N-]C(=O)C(=O)c2ccccc2O)c1 (3D coordinates assigned)
Cc1cccc([N-]C(=O)C(=O)c2ccccc2O)c1 (optimized conformer: 40.898043265654664 kcal/mol)

>  <smiles>  (50) 
Cc1cccc(NC(=O)C(=O)c2ccccc2O)c1

>  <score_type>  (50) 
oracle

>  <origin>  (50) 
adg

>  <m_score__min__energy>  (50) 
-10.039999999999999

>  <m_primary>  (50) 
energy

$$$$
50:0
     RDKit          3D

 39 41  0  0  0  0  0  0  0  0999 V2000
   56.0122   31.2318   44.5477 H   0  0  0  0  0  0  0  0  0  0  0  0
   57.1120   31.2380   44.5270 C   0  0  0  0  0  0  0  0  0  0  0  0
   57.7260   30.1850   43.9660 C   0  0  0  0  0  0  0  0  0  0  0  0
   57.5933   30.0309   42.8850 H   0  0  0  0  0  0  0  0  0  0  0  0
   58.5710   29.2150   44.7030 C   0  0  0  0  0  0  0  0  0  0  0  0
   59.9120   29.4420   44.7720 N   0  0  0  0  0  0  0  0  0  0  0  0
   60.7570   28.6340   45.4600 C   0  0  0  0  0  0  0  0  0  0  0  0
   61.8348   28.8532   45.4761 H   0  0  0  0  0  0  0  0  0  0  0  0
   60.2630   27.5290   46.1450 C   0  0  0  0  0  0  0  0  0  0  0  0
   60.9456   26.8752   46.7077 H   0  0  0  0  0  0  0  0  0  0  0  0
   58.8900   27.2550   46.1130 C   0  0  0  0  0  0  0  0  0  0  0  0
   58.3810   26.1420   46.7970 C   0  0  0  0  0  0  0  0  0  0  0  0
   59.0626   25.4939   47.3674 H   0  0  0  0  0  0  0  0  0  0  0  0
   57.0060   25.8470   46.7600 C   0  0  0  0  0  0  0  0  0  0  0  0
   56.4620   24.7420   47.4340 O   0  0  0  0  0  0  0  0  0  0  0  0
   56.8130   23.3860   47.1770 C   0  0  0  0  0  0  0  0  0  0  0  0
   56.9503   22.8557   48.1309 H   0  0  0  0  0  0  0  0  0  0  0  0
   56.0104   22.9024   46.6008 H   0  0  0  0  0  0  0  0  0  0  0  0
   57.7494   23.3525   46.6008 H   0  0  0  0  0  0  0  0  0  0  0  0
   56.1380   26.6700   46.0280 C   0  0  0  0  0  0  0  0  0  0  0  0
   54.7740   26.3390   46.0060 O   0  0  0  0  0  0  0  0  0  0  0  0
   54.2520   25.0730   45.6150 C   0  0  0  0  0  0  0  0  0  0  0  0
   54.0091   24.4838   46.5116 H   0  0  0  0  0  0  0  0  0  0  0  0
   53.3415   25.2210   45.0157 H   0  0  0  0  0  0  0  0  0  0  0  0
   55.0022   24.5363   45.0157 H   0  0  0  0  0  0  0  0  0  0  0  0
   56.6460   27.7890   45.3410 C   0  0  0  0  0  0  0  0  0  0  0  0
   55.9623   28.4289   44.7638 H   0  0  0  0  0  0  0  0  0  0  0  0
   58.0200   28.0990   45.3840 C   0  0  0  0  0  0  0  0  0  0  0  0
   57.7990   32.4070   45.1200 C   0  0  0  0  0  0  0  0  0  0  0  0
   58.2340   33.4860   44.3270 C   0  0  0  0  0  0  0  0  0  0  0  0
   58.0869   33.4592   43.2372 H   0  0  0  0  0  0  0  0  0  0  0  0
   58.8520   34.5910   44.9190 C   0  0  0  0  0  0  0  0  0  0  0  0
   59.2050   35.4238   44.2931 H   0  0  0  0  0  0  0  0  0  0  0  0
   59.0220   34.6390   46.3060 C   0  0  0  0  0  0  0  0  0  0  0  0
   59.6200   35.7140   46.8790 F   0  0  0  0  0  0  0  0  0  0  0  0
   58.5650   33.5870   47.1030 C   0  0  0  0  0  0  0  0  0  0  0  0
   58.6912   33.6299   48.1949 H   0  0  0  0  0  0  0  0  0  0  0  0
   57.9470   32.4790   46.5140 C   0  0  0  0  0  0  0  0  0  0  0  0
   57.5750   31.6596   47.1466 H   0  0  0  0  0  0  0  0  0  0  0  0
  1  2  1  0
  2  3  2  0
  3  4  1  0
  3  5  1  0
  5  6  2  0
  6  7  1  0
  7  8  1  0
  7  9  2  0
  9 10  1  0
  9 11  1  0
 11 12  2  0
 12 13  1  0
 12 14  1  0
 14 15  1  0
 15 16  1  0
 16 17  1  0
 16 18  1  0
 16 19  1  0
 14 20  2  0
 20 21  1  0
 21 22  1  0
 22 23  1  0
 22 24  1  0
 22 25  1  0
 20 26  1  0
 26 27  1  0
 26 28  2  0
  2 29  1  0
 29 30  2  0
 30 31  1  0
 30 32  1  0
 32 33  1  0
 32 34  2  0
 34 35  1  0
 34 36  1  0
 36 37  1  0
 36 38  2  0
 38 39  1  0
 28  5  1  0
 38 29  1  0
 28 11  1  0
M  END
>  <UniqueID>  (51) 
46

>  <SMILES>  (51) 
COc1cc2ccnc(/C=C\c3ccc(F)cc3)c2cc1OC

>  <Energy>  (51) 
55.16655615906677

>  <Genealogy>  (51) 
COc1cc2ccnc(/C=C\c3ccc(F)cc3)c2cc1OC (cis-trans isomerization)
COc1cc2ccnc(/C=C\c3ccc(F)cc3)c2cc1OC (3D coordinates assigned)
COc1cc2ccnc(/C=C\c3ccc(F)cc3)c2cc1OC (optimized conformer: 55.16655615906677 kcal/mol)

>  <smiles>  (51) 
COc1cc2ccnc(C=Cc3ccc(F)cc3)c2cc1OC

>  <score_type>  (51) 
oracle

>  <origin>  (51) 
adg

>  <m_score__min__energy>  (51) 
-7.7199999999999998

>  <m_primary>  (51) 
energy

$$$$
51:0
     RDKit          3D

 46 49  0  0  0  0  0  0  0  0999 V2000
   55.5070   28.9900   44.8620 O   0  0  0  0  0  0  0  0  0  0  0  0
   56.6470   29.3620   45.2550 C   0  0  0  0  0  0  0  0  0  0  0  0
   57.3930   28.5510   46.1640 N   0  0  0  0  0  0  0  0  0  0  0  0
   57.7340   27.1620   45.8930 C   0  0  0  0  0  0  0  0  0  0  0  0
   58.9410   27.0760   44.9460 C   0  0  0  0  0  0  0  0  0  0  0  0
   60.2340   27.4570   45.5600 N   0  0  0  0  0  0  0  0  0  0  0  0
   60.4390   27.0030   46.9500 C   0  0  0  0  0  0  0  0  0  0  0  0
   60.0850   28.0830   48.0010 C   0  0  0  0  0  0  0  0  0  0  0  0
   59.7510   29.3310   47.4280 O   0  0  0  0  0  0  0  0  0  0  0  0
   60.7550   29.7170   46.5180 C   0  0  0  0  0  0  0  0  0  0  0  0
   60.7080   28.8280   45.2650 C   0  0  0  0  0  0  0  0  0  0  0  0
   57.2330   30.6210   44.7570 C   0  0  0  0  0  0  0  0  0  0  0  0
   57.1120   30.8990   43.3890 C   0  0  0  0  0  0  0  0  0  0  0  0
   57.5880   32.0960   42.8620 C   0  0  0  0  0  0  0  0  0  0  0  0
   58.1990   33.0340   43.6890 C   0  0  0  0  0  0  0  0  0  0  0  0
   58.3700   32.7770   45.0650 C   0  0  0  0  0  0  0  0  0  0  0  0
   59.0120   33.7080   45.9130 C   0  0  0  0  0  0  0  0  0  0  0  0
   59.5880   35.2590   45.2710 Cl  0  0  0  0  0  0  0  0  0  0  0  0
   59.1950   33.3950   47.2760 C   0  0  0  0  0  0  0  0  0  0  0  0
   59.8310   34.2850   48.1690 C   0  0  0  0  0  0  0  0  0  0  0  0
   60.0090   33.9370   49.5110 C   0  0  0  0  0  0  0  0  0  0  0  0
   59.5630   32.7030   49.9810 C   0  0  0  0  0  0  0  0  0  0  0  0
   58.9350   31.8100   49.1130 C   0  0  0  0  0  0  0  0  0  0  0  0
   58.7420   32.1460   47.7610 C   0  0  0  0  0  0  0  0  0  0  0  0
   58.1220   31.2670   46.9250 N   0  0  0  0  0  0  0  0  0  0  0  0
   57.8970   31.5510   45.6050 C   0  0  0  0  0  0  0  0  0  0  0  0
   57.9808   26.6591   46.8397 H   0  0  0  0  0  0  0  0  0  0  0  0
   56.8728   26.6723   45.4150 H   0  0  0  0  0  0  0  0  0  0  0  0
   59.0233   26.0391   44.5881 H   0  0  0  0  0  0  0  0  0  0  0  0
   58.7550   27.7978   44.1370 H   0  0  0  0  0  0  0  0  0  0  0  0
   59.8055   26.1214   47.1272 H   0  0  0  0  0  0  0  0  0  0  0  0
   61.5083   26.7721   47.0649 H   0  0  0  0  0  0  0  0  0  0  0  0
   59.2268   27.7285   48.5908 H   0  0  0  0  0  0  0  0  0  0  0  0
   60.9789   28.2383   48.6230 H   0  0  0  0  0  0  0  0  0  0  0  0
   60.5963   30.7655   46.2255 H   0  0  0  0  0  0  0  0  0  0  0  0
   61.7375   29.6054   46.9999 H   0  0  0  0  0  0  0  0  0  0  0  0
   60.0274   29.2865   44.5325 H   0  0  0  0  0  0  0  0  0  0  0  0
   61.7324   28.7501   44.8719 H   0  0  0  0  0  0  0  0  0  0  0  0
   56.6356   30.1632   42.7244 H   0  0  0  0  0  0  0  0  0  0  0  0
   57.4808   32.3017   41.7867 H   0  0  0  0  0  0  0  0  0  0  0  0
   58.5521   33.9856   43.2649 H   0  0  0  0  0  0  0  0  0  0  0  0
   60.1891   35.2596   47.8057 H   0  0  0  0  0  0  0  0  0  0  0  0
   60.5028   34.6395   50.1985 H   0  0  0  0  0  0  0  0  0  0  0  0
   59.7065   32.4331   51.0377 H   0  0  0  0  0  0  0  0  0  0  0  0
   58.5882   30.8360   49.4885 H   0  0  0  0  0  0  0  0  0  0  0  0
   57.8410   30.3430   47.3190 H   0  0  0  0  0  0  0  0  0  0  0  0
  1  2  2  0
  2  3  1  0
  3  4  1  0
  4  5  1  0
  5  6  1  0
  6  7  1  0
  7  8  1  0
  8  9  1  0
  9 10  1  0
 10 11  1  0
  2 12  1  0
 12 13  2  0
 13 14  1  0
 14 15  2  0
 15 16  1  0
 16 17  2  0
 17 18  1  0
 17 19  1  0
 19 20  2  0
 20 21  1  0
 21 22  2  0
 22 23  1  0
 23 24  2  0
 24 25  1  0
 25 26  2  0
 11  6  1  0
 26 12  1  0
 26 16  1  0
 24 19  1  0
  4 27  1  0
  4 28  1  0
  5 29  1  0
  5 30  1  0
  7 31  1  0
  7 32  1  0
  8 33  1  0
  8 34  1  0
 10 35  1  0
 10 36  1  0
 11 37  1  0
 11 38  1  0
 13 39  1  0
 14 40  1  0
 15 41  1  0
 20 42  1  0
 21 43  1  0
 22 44  1  0
 23 45  1  0
 25 46  1  0
M  CHG  2   3  -1  25   1
M  END
>  <UniqueID>  (52) 
47

>  <SMILES>  (52) 
O=C([N-]CCN1CCOCC1)c1cccc2c(Cl)c3ccccc3[nH+]c12

>  <Energy>  (52) 
79.36013445412975

>  <Genealogy>  (52) 
O=C([N-]CCN1CCOCC1)c1cccc2c(Cl)c3ccccc3[nH+]c12 (protonated)
O=C([N-]CCN1CCOCC1)c1cccc2c(Cl)c3ccccc3[nH+]c12 (3D coordinates assigned)
O=C([N-]CCN1CCOCC1)c1cccc2c(Cl)c3ccccc3[nH+]c12 (nonaromatic ring conformer: 79.36013445412975 kcal/mol)

>  <smiles>  (52) 
O=C(NCCN1CCOCC1)c1cccc2c(Cl)c3ccccc3nc12

>  <score_type>  (52) 
oracle

>  <origin>  (52) 
adg

>  <m_score__min__energy>  (52) 
-8.8900000000000006

>  <m_primary>  (52) 
energy

$$$$
52:0
     RDKit          3D

 42 45  0  0  0  0  0  0  0  0999 V2000
   55.8910   28.3890   45.2290 O   0  0  0  0  0  0  0  0  0  0  0  0
   56.6760   29.3730   45.2960 C   0  0  0  0  0  0  0  0  0  0  0  0
   56.2970   30.6280   44.7220 N   0  0  0  0  0  0  0  0  0  0  0  0
   57.1400   31.3540   43.7840 C   0  0  0  0  0  0  0  0  0  0  0  0
   57.7590   32.5270   44.4790 C   0  0  0  0  0  0  0  0  0  0  0  0
   57.1850   33.0460   45.6490 C   0  0  0  0  0  0  0  0  0  0  0  0
   57.7640   34.1610   46.2580 C   0  0  0  0  0  0  0  0  0  0  0  0
   58.8980   34.7500   45.6950 C   0  0  0  0  0  0  0  0  0  0  0  0
   59.4350   34.2140   44.5230 C   0  0  0  0  0  0  0  0  0  0  0  0
   58.8570   33.1280   43.9430 N   0  0  0  0  0  0  0  0  0  0  0  0
   58.0160   29.2230   45.9100 C   0  0  0  0  0  0  0  0  0  0  0  0
   58.6570   30.3820   46.3740 C   0  0  0  0  0  0  0  0  0  0  0  0
   59.9560   30.3140   46.9040 C   0  0  0  0  0  0  0  0  0  0  0  0
   60.6650   31.5250   47.3910 C   0  0  0  0  0  0  0  0  0  0  0  0
   62.0340   31.7310   47.1280 C   0  0  0  0  0  0  0  0  0  0  0  0
   62.6820   32.8760   47.6030 C   0  0  0  0  0  0  0  0  0  0  0  0
   61.9780   33.8230   48.3480 C   0  0  0  0  0  0  0  0  0  0  0  0
   60.6240   33.6260   48.6240 C   0  0  0  0  0  0  0  0  0  0  0  0
   59.9700   32.4840   48.1530 C   0  0  0  0  0  0  0  0  0  0  0  0
   60.5750   29.1070   46.9860 N   0  0  0  0  0  0  0  0  0  0  0  0
   59.9880   27.9540   46.5730 C   0  0  0  0  0  0  0  0  0  0  0  0
   60.6820   26.7470   46.7030 C   0  0  0  0  0  0  0  0  0  0  0  0
   60.0840   25.5470   46.3160 C   0  0  0  0  0  0  0  0  0  0  0  0
   58.7850   25.5470   45.8080 C   0  0  0  0  0  0  0  0  0  0  0  0
   58.0810   26.7460   45.6700 C   0  0  0  0  0  0  0  0  0  0  0  0
   58.6790   27.9750   46.0290 C   0  0  0  0  0  0  0  0  0  0  0  0
   57.9322   30.6882   43.4108 H   0  0  0  0  0  0  0  0  0  0  0  0
   56.5310   31.7065   42.9385 H   0  0  0  0  0  0  0  0  0  0  0  0
   56.2880   32.5794   46.0822 H   0  0  0  0  0  0  0  0  0  0  0  0
   57.3278   34.5745   47.1793 H   0  0  0  0  0  0  0  0  0  0  0  0
   59.3631   35.6266   46.1696 H   0  0  0  0  0  0  0  0  0  0  0  0
   60.3265   34.6705   44.0682 H   0  0  0  0  0  0  0  0  0  0  0  0
   58.1384   31.3507   46.3223 H   0  0  0  0  0  0  0  0  0  0  0  0
   62.5966   30.9866   46.5454 H   0  0  0  0  0  0  0  0  0  0  0  0
   63.7498   33.0304   47.3886 H   0  0  0  0  0  0  0  0  0  0  0  0
   62.4897   34.7240   48.7174 H   0  0  0  0  0  0  0  0  0  0  0  0
   60.0702   34.3714   49.2137 H   0  0  0  0  0  0  0  0  0  0  0  0
   58.9041   32.3331   48.3793 H   0  0  0  0  0  0  0  0  0  0  0  0
   61.7032   26.7434   47.1119 H   0  0  0  0  0  0  0  0  0  0  0  0
   60.6371   24.6010   46.4116 H   0  0  0  0  0  0  0  0  0  0  0  0
   58.3123   24.5981   45.5145 H   0  0  0  0  0  0  0  0  0  0  0  0
   57.0530   26.7332   45.2788 H   0  0  0  0  0  0  0  0  0  0  0  0
  1  2  2  0
  2  3  1  0
  3  4  1  0
  4  5  1  0
  5  6  2  0
  6  7  1  0
  7  8  2  0
  8  9  1  0
  9 10  2  0
  2 11  1  0
 11 12  2  0
 12 13  1  0
 13 14  1  0
 14 15  2  0
 15 16  1  0
 16 17  2  0
 17 18  1  0
 18 19  2  0
 13 20  2  0
 20 21  1  0
 21 22  2  0
 22 23  1  0
 23 24  2  0
 24 25  1  0
 25 26  2  0
 10  5  1  0
 26 11  1  0
 19 14  1  0
 26 21  1  0
  4 27  1  0
  4 28  1  0
  6 29  1  0
  7 30  1  0
  8 31  1  0
  9 32  1  0
 12 33  1  0
 15 34  1  0
 16 35  1  0
 17 36  1  0
 18 37  1  0
 19 38  1  0
 22 39  1  0
 23 40  1  0
 24 41  1  0
 25 42  1  0
M  CHG  1   3  -1
M  END
>  <UniqueID>  (53) 
48

>  <SMILES>  (53) 
O=C([N-]Cc1ccccn1)c1cc(-c2ccccc2)nc2ccccc12

>  <Energy>  (53) 
58.46310407974105

>  <Genealogy>  (53) 
O=C([N-]Cc1ccccn1)c1cc(-c2ccccc2)nc2ccccc12 (protonated)
O=C([N-]Cc1ccccn1)c1cc(-c2ccccc2)nc2ccccc12 (3D coordinates assigned)
O=C([N-]Cc1ccccn1)c1cc(-c2ccccc2)nc2ccccc12 (optimized conformer: 58.46310407974105 kcal/mol)

>  <smiles>  (53) 
O=C(NCc1ccccn1)c1cc(-c2ccccc2)nc2ccccc12

>  <score_type>  (53) 
oracle

>  <origin>  (53) 
adg

>  <m_score__min__energy>  (53) 
-10.199999999999999

>  <m_primary>  (53) 
energy

$$$$
53:0
     RDKit          3D

 53 56  0  0  0  0  0  0  0  0999 V2000
   57.8680   31.6270   54.8320 C   0  0  0  0  0  0  0  0  0  0  0  0
   56.6590   30.9260   54.3830 N   0  0  0  0  0  0  0  0  0  0  0  0
   56.1280   30.0890   55.4650 C   0  0  0  0  0  0  0  0  0  0  0  0
   57.0320   29.9340   52.9950 S   0  0  0  0  0  0  0  0  0  0  0  0
   55.7540   29.5390   52.3060 O   0  0  0  0  0  0  0  0  0  0  0  0
   57.7210   28.6760   53.4490 O   0  0  0  0  0  0  0  0  0  0  0  0
   58.0710   30.7830   51.8480 C   0  0  0  0  0  0  0  0  0  0  0  0
   57.5090   31.5830   50.8480 C   0  0  0  0  0  0  0  0  0  0  0  0
   58.3270   32.2620   49.9420 C   0  0  0  0  0  0  0  0  0  0  0  0
   59.7340   32.1610   50.0290 C   0  0  0  0  0  0  0  0  0  0  0  0
   60.5900   32.8010   49.0970 C   0  0  0  0  0  0  0  0  0  0  0  0
   60.0330   33.3600   48.0500 N   0  0  0  0  0  0  0  0  0  0  0  0
   59.2900   32.7770   46.9700 C   0  0  0  0  0  0  0  0  0  0  0  0
   58.3520   33.5560   46.2840 C   0  0  0  0  0  0  0  0  0  0  0  0
   57.5770   32.9930   45.2660 C   0  0  0  0  0  0  0  0  0  0  0  0
   57.7240   31.6370   44.9320 C   0  0  0  0  0  0  0  0  0  0  0  0
   56.8670   31.0230   43.8580 C   0  0  0  0  0  0  0  0  0  0  0  0
   56.5470   29.5600   44.1930 C   0  0  0  0  0  0  0  0  0  0  0  0
   55.2620   29.4400   44.8790 N   0  0  0  0  0  0  0  0  0  0  0  0
   58.6280   30.8440   45.6560 C   0  0  0  0  0  0  0  0  0  0  0  0
   59.4000   31.4080   46.6750 C   0  0  0  0  0  0  0  0  0  0  0  0
   62.0030   32.7510   49.3270 C   0  0  0  0  0  0  0  0  0  0  0  0
   62.9370   33.5970   48.6840 C   0  0  0  0  0  0  0  0  0  0  0  0
   64.3090   33.4630   48.9190 C   0  0  0  0  0  0  0  0  0  0  0  0
   64.7770   32.5220   49.8350 C   0  0  0  0  0  0  0  0  0  0  0  0
   66.4990   32.3610   50.1280 Cl  0  0  0  0  0  0  0  0  0  0  0  0
   63.8690   31.7480   50.5590 C   0  0  0  0  0  0  0  0  0  0  0  0
   62.4940   31.8830   50.3390 C   0  0  0  0  0  0  0  0  0  0  0  0
   61.6340   31.2150   51.1450 N   0  0  0  0  0  0  0  0  0  0  0  0
   60.2910   31.3490   51.0420 C   0  0  0  0  0  0  0  0  0  0  0  0
   59.4620   30.6650   51.9380 C   0  0  0  0  0  0  0  0  0  0  0  0
   57.8956   31.6430   55.9315 H   0  0  0  0  0  0  0  0  0  0  0  0
   58.7577   31.1047   54.4505 H   0  0  0  0  0  0  0  0  0  0  0  0
   57.8567   32.6587   54.4505 H   0  0  0  0  0  0  0  0  0  0  0  0
   56.4050   30.5256   56.4359 H   0  0  0  0  0  0  0  0  0  0  0  0
   55.0321   30.0381   55.3851 H   0  0  0  0  0  0  0  0  0  0  0  0
   56.5489   29.0759   55.3851 H   0  0  0  0  0  0  0  0  0  0  0  0
   56.4156   31.6781   50.7745 H   0  0  0  0  0  0  0  0  0  0  0  0
   57.8723   32.8805   49.1542 H   0  0  0  0  0  0  0  0  0  0  0  0
   58.2238   34.6164   46.5469 H   0  0  0  0  0  0  0  0  0  0  0  0
   56.8490   33.6147   44.7243 H   0  0  0  0  0  0  0  0  0  0  0  0
   55.9274   31.5893   43.7774 H   0  0  0  0  0  0  0  0  0  0  0  0
   57.4146   31.0569   42.9046 H   0  0  0  0  0  0  0  0  0  0  0  0
   56.5105   28.9787   43.2599 H   0  0  0  0  0  0  0  0  0  0  0  0
   57.3333   29.1771   44.8602 H   0  0  0  0  0  0  0  0  0  0  0  0
   54.7720   28.5840   44.5310 H   0  0  0  0  0  0  0  0  0  0  0  0
   54.6710   30.2670   44.6350 H   0  0  0  0  0  0  0  0  0  0  0  0
   58.7291   29.7743   45.4203 H   0  0  0  0  0  0  0  0  0  0  0  0
   60.0962   30.7779   47.2481 H   0  0  0  0  0  0  0  0  0  0  0  0
   62.5789   34.3711   47.9894 H   0  0  0  0  0  0  0  0  0  0  0  0
   65.0221   34.1029   48.3787 H   0  0  0  0  0  0  0  0  0  0  0  0
   64.2360   31.0287   51.3059 H   0  0  0  0  0  0  0  0  0  0  0  0
   59.9071   30.0302   52.7184 H   0  0  0  0  0  0  0  0  0  0  0  0
  1  2  1  0
  2  3  1  0
  2  4  1  0
  4  5  2  0
  4  6  2  0
  4  7  1  0
  7  8  2  0
  8  9  1  0
  9 10  2  0
 10 11  1  0
 11 12  2  3
 12 13  1  0
 13 14  2  0
 14 15  1  0
 15 16  2  0
 16 17  1  0
 17 18  1  0
 18 19  1  0
 16 20  1  0
 20 21  2  0
 11 22  1  0
 22 23  2  0
 23 24  1  0
 24 25  2  0
 25 26  1  0
 25 27  1  0
 27 28  2  0
 28 29  1  0
 29 30  1  0
 30 31  2  0
 31  7  1  0
 30 10  1  0
 21 13  1  0
 28 22  1  0
  1 32  1  0
  1 33  1  0
  1 34  1  0
  3 35  1  0
  3 36  1  0
  3 37  1  0
  8 38  1  0
  9 39  1  0
 14 40  1  0
 15 41  1  0
 17 42  1  0
 17 43  1  0
 18 44  1  0
 18 45  1  0
 19 46  1  0
 19 47  1  0
 20 48  1  0
 21 49  1  0
 23 50  1  0
 24 51  1  0
 27 52  1  0
 31 53  1  0
M  CHG  1  29  -1
M  END
>  <UniqueID>  (54) 
49

>  <SMILES>  (54) 
CN(C)S(=O)(=O)c1ccc2c(=Nc3ccc(CCN)cc3)c3ccc(Cl)cc3[n-]c2c1

>  <Energy>  (54) 
78.95145001116886

>  <Genealogy>  (54) 
CN(C)S(=O)(=O)c1ccc2c(=Nc3ccc(CCN)cc3)c3ccc(Cl)cc3[n-]c2c1 (protonated)
CN(C)S(=O)(=O)c1ccc2c(=Nc3ccc(CCN)cc3)c3ccc(Cl)cc3[n-]c2c1 (3D coordinates assigned)
CN(C)S(=O)(=O)c1ccc2c(=Nc3ccc(CCN)cc3)c3ccc(Cl)cc3[n-]c2c1 (optimized conformer: 78.95145001116886 kcal/mol)

>  <smiles>  (54) 
CN(C)S(=O)(=O)c1ccc2c(=Nc3ccc(CCN)cc3)c3ccc(Cl)cc3[nH]c2c1

>  <score_type>  (54) 
oracle

>  <origin>  (54) 
adg

>  <m_score__min__energy>  (54) 
-9.8300000000000001

>  <m_primary>  (54) 
energy

$$$$
54:0
     RDKit          3D

 67 70  0  0  0  0  0  0  0  0999 V2000
   63.3830   33.8380   46.3400 C   0  0  0  0  0  0  0  0  0  0  0  0
   62.0890   34.0540   46.8920 O   0  0  0  0  0  0  0  0  0  0  0  0
   61.7900   34.0160   48.2630 C   0  0  0  0  0  0  0  0  0  0  0  0
   62.7870   34.1700   49.2470 C   0  0  0  0  0  0  0  0  0  0  0  0
   62.4600   34.0860   50.6030 C   0  0  0  0  0  0  0  0  0  0  0  0
   61.1420   33.8480   50.9930 C   0  0  0  0  0  0  0  0  0  0  0  0
   60.1450   33.6990   50.0290 C   0  0  0  0  0  0  0  0  0  0  0  0
   60.4580   33.7910   48.6630 C   0  0  0  0  0  0  0  0  0  0  0  0
   59.4260   33.6100   47.6810 N   0  0  0  0  0  0  0  0  0  0  0  0
   59.4360   34.4180   46.4570 C   0  0  0  0  0  0  0  0  0  0  0  0
   58.4910   33.8170   45.4070 C   0  0  0  0  0  0  0  0  0  0  0  0
   58.4590   32.3360   45.5190 N   0  0  0  0  0  0  0  0  0  0  0  0
   57.8330   31.7300   44.2890 C   0  0  2  0  0  0  0  0  0  0  0  0
   56.3530   31.2260   44.4300 C   0  0  0  0  0  0  0  0  0  0  0  0
   56.2040   29.7470   44.8470 C   0  0  0  0  0  0  0  0  0  0  0  0
   57.4370   29.2180   45.5810 C   0  0  1  0  0  0  0  0  0  0  0  0
   57.2100   27.8180   45.9550 N   0  0  0  0  0  0  0  0  0  0  0  0
   58.5690   27.1750   46.8290 S   0  0  0  0  0  0  0  0  0  0  0  0
   59.5330   26.5320   45.8730 O   0  0  0  0  0  0  0  0  0  0  0  0
   58.0870   26.1320   47.7970 O   0  0  0  0  0  0  0  0  0  0  0  0
   59.3640   28.4690   47.7240 C   0  0  0  0  0  0  0  0  0  0  0  0
   60.4290   29.1820   47.1570 C   0  0  0  0  0  0  0  0  0  0  0  0
   61.0310   30.2360   47.8610 C   0  0  0  0  0  0  0  0  0  0  0  0
   62.2010   30.9670   47.2700 C   0  0  0  0  0  0  0  0  0  0  0  0
   60.5750   30.5580   49.1470 C   0  0  0  0  0  0  0  0  0  0  0  0
   59.4930   29.8660   49.7110 C   0  0  0  0  0  0  0  0  0  0  0  0
   59.0200   30.2010   51.0950 C   0  0  0  0  0  0  0  0  0  0  0  0
   58.8980   28.8150   48.9990 C   0  0  0  0  0  0  0  0  0  0  0  0
   58.6990   29.3290   44.6920 C   0  0  0  0  0  0  0  0  0  0  0  0
   58.6850   30.5520   43.7460 C   0  0  0  0  0  0  0  0  0  0  0  0
   57.7870   31.9630   46.7930 C   0  0  0  0  0  0  0  0  0  0  0  0
   58.2360   32.8190   48.0020 C   0  0  0  0  0  0  0  0  0  0  0  0
   64.1131   33.7161   47.1537 H   0  0  0  0  0  0  0  0  0  0  0  0
   63.3701   32.9296   45.7198 H   0  0  0  0  0  0  0  0  0  0  0  0
   63.6659   34.7014   45.7198 H   0  0  0  0  0  0  0  0  0  0  0  0
   63.8283   34.3573   48.9460 H   0  0  0  0  0  0  0  0  0  0  0  0
   63.2440   34.2079   51.3649 H   0  0  0  0  0  0  0  0  0  0  0  0
   60.8889   33.7778   52.0612 H   0  0  0  0  0  0  0  0  0  0  0  0
   59.1074   33.5083   50.3405 H   0  0  0  0  0  0  0  0  0  0  0  0
   59.1082   35.4405   46.6958 H   0  0  0  0  0  0  0  0  0  0  0  0
   60.4574   34.4323   46.0490 H   0  0  0  0  0  0  0  0  0  0  0  0
   57.4770   34.2134   45.5641 H   0  0  0  0  0  0  0  0  0  0  0  0
   58.8549   34.0891   44.4052 H   0  0  0  0  0  0  0  0  0  0  0  0
   59.4500   32.0100   45.5930 H   0  0  0  0  0  0  0  0  0  0  0  0
   57.8060   32.5804   43.5918 H   0  0  0  0  0  0  0  0  0  0  0  0
   55.8521   31.8463   45.1879 H   0  0  0  0  0  0  0  0  0  0  0  0
   55.9032   31.3100   43.4297 H   0  0  0  0  0  0  0  0  0  0  0  0
   55.3316   29.6538   45.5105 H   0  0  0  0  0  0  0  0  0  0  0  0
   56.0803   29.1522   43.9300 H   0  0  0  0  0  0  0  0  0  0  0  0
   57.6014   29.8244   46.4839 H   0  0  0  0  0  0  0  0  0  0  0  0
   60.7949   28.9140   46.1549 H   0  0  0  0  0  0  0  0  0  0  0  0
   62.8332   31.3620   48.0789 H   0  0  0  0  0  0  0  0  0  0  0  0
   62.7896   30.2757   46.6490 H   0  0  0  0  0  0  0  0  0  0  0  0
   61.8378   31.7991   46.6490 H   0  0  0  0  0  0  0  0  0  0  0  0
   61.0689   31.3584   49.7174 H   0  0  0  0  0  0  0  0  0  0  0  0
   59.6850   29.7300   51.8338 H   0  0  0  0  0  0  0  0  0  0  0  0
   59.0332   31.2922   51.2329 H   0  0  0  0  0  0  0  0  0  0  0  0
   57.9950   29.8264   51.2329 H   0  0  0  0  0  0  0  0  0  0  0  0
   58.0600   28.2586   49.4443 H   0  0  0  0  0  0  0  0  0  0  0  0
   59.5797   29.4059   45.3466 H   0  0  0  0  0  0  0  0  0  0  0  0
   58.7262   28.4310   44.0574 H   0  0  0  0  0  0  0  0  0  0  0  0
   59.7191   30.9013   43.6095 H   0  0  0  0  0  0  0  0  0  0  0  0
   58.2318   30.2285   42.7973 H   0  0  0  0  0  0  0  0  0  0  0  0
   56.7017   32.0862   46.6631 H   0  0  0  0  0  0  0  0  0  0  0  0
   58.0655   30.9218   47.0127 H   0  0  0  0  0  0  0  0  0  0  0  0
   57.4185   33.4993   48.2827 H   0  0  0  0  0  0  0  0  0  0  0  0
   58.4825   32.1428   48.8339 H   0  0  0  0  0  0  0  0  0  0  0  0
  1  2  1  0
  2  3  1  0
  3  4  2  0
  4  5  1  0
  5  6  2  0
  6  7  1  0
  7  8  2  0
  8  9  1  0
  9 10  1  0
 10 11  1  0
 11 12  1  0
 12 13  1  0
 13 14  1  0
 14 15  1  0
 15 16  1  0
 16 17  1  0
 17 18  1  0
 18 19  2  0
 18 20  2  0
 18 21  1  0
 21 22  2  0
 22 23  1  0
 23 24  1  0
 23 25  2  0
 25 26  1  0
 26 27  1  0
 26 28  2  0
 16 29  1  0
 29 30  1  0
 12 31  1  0
 31 32  1  0
  8  3  1  0
 32  9  1  0
 30 13  1  0
 28 21  1  0
  1 33  1  0
  1 34  1  0
  1 35  1  0
  4 36  1  0
  5 37  1  0
  6 38  1  0
  7 39  1  0
 10 40  1  0
 10 41  1  0
 11 42  1  0
 11 43  1  0
 12 44  1  0
 13 45  1  6
 14 46  1  0
 14 47  1  0
 15 48  1  0
 15 49  1  0
 16 50  1  1
 22 51  1  0
 24 52  1  0
 24 53  1  0
 24 54  1  0
 25 55  1  0
 27 56  1  0
 27 57  1  0
 27 58  1  0
 28 59  1  0
 29 60  1  0
 29 61  1  0
 30 62  1  0
 30 63  1  0
 31 64  1  0
 31 65  1  0
 32 66  1  0
 32 67  1  0
M  CHG  2  12   1  17  -1
M  END
>  <UniqueID>  (55) 
50

>  <SMILES>  (55) 
COc1ccccc1N1CC[NH+](C2CCC([N-]S(=O)(=O)c3cc(C)cc(C)c3)CC2)CC1

>  <Energy>  (55) 
86.44545768799456

>  <Genealogy>  (55) 
COc1ccccc1N1CC[NH+](C2CCC([N-]S(=O)(=O)c3cc(C)cc(C)c3)CC2)CC1 (protonated)
COc1ccccc1N1CC[NH+](C2CCC([N-]S(=O)(=O)c3cc(C)cc(C)c3)CC2)CC1 (3D coordinates assigned)
COc1ccccc1N1CC[NH+](C2CCC([N-]S(=O)(=O)c3cc(C)cc(C)c3)CC2)CC1 (nonaromatic ring conformer: 86.44545768799456 kcal/mol)

>  <smiles>  (55) 
COc1ccccc1N1CCN(C2CCC(NS(=O)(=O)c3cc(C)cc(C)c3)CC2)CC1

>  <score_type>  (55) 
oracle

>  <origin>  (55) 
adg

>  <m_score__min__energy>  (55) 
-8.8200000000000003

>  <m_primary>  (55) 
energy

$$$$
55:0
     RDKit          3D

 37 40  0  0  0  0  0  0  0  0999 V2000
   65.3720   32.2130   50.1310 C   0  0  0  0  0  0  0  0  0  0  0  0
   64.8410   33.4520   49.6740 O   0  0  0  0  0  0  0  0  0  0  0  0
   63.6820   33.5380   48.8980 C   0  0  0  0  0  0  0  0  0  0  0  0
   63.7690   33.3730   47.5140 C   0  0  0  0  0  0  0  0  0  0  0  0
   62.6120   33.4550   46.7380 C   0  0  0  0  0  0  0  0  0  0  0  0
   61.3700   33.6880   47.3490 C   0  0  0  0  0  0  0  0  0  0  0  0
   60.1440   33.7930   46.5290 C   0  0  0  0  0  0  0  0  0  0  0  0
   59.6520   34.9570   45.9490 C   0  0  0  0  0  0  0  0  0  0  0  0
   58.5040   34.6700   45.2980 N   0  0  0  0  0  0  0  0  0  0  0  0
   58.3250   33.3490   45.4810 C   0  0  0  0  0  0  0  0  0  0  0  0
   57.2930   32.5730   44.9680 C   0  0  0  0  0  0  0  0  0  0  0  0
   57.3110   31.2350   45.2270 N   0  0  0  0  0  0  0  0  0  0  0  0
   58.3040   30.6450   45.9650 C   0  0  0  0  0  0  0  0  0  0  0  0
   58.2710   29.1780   46.1940 C   0  0  0  0  0  0  0  0  0  0  0  0
   57.3940   28.3410   45.4800 C   0  0  0  0  0  0  0  0  0  0  0  0
   57.3990   26.9650   45.7200 C   0  0  0  0  0  0  0  0  0  0  0  0
   58.2530   26.4340   46.6340 N   0  0  0  0  0  0  0  0  0  0  0  0
   59.1190   27.2120   47.3340 C   0  0  0  0  0  0  0  0  0  0  0  0
   59.9560   26.6440   48.2360 F   0  0  0  0  0  0  0  0  0  0  0  0
   59.1470   28.5930   47.1250 C   0  0  0  0  0  0  0  0  0  0  0  0
   59.3500   31.4530   46.4640 C   0  0  0  0  0  0  0  0  0  0  0  0
   59.2970   32.7890   46.2170 N   0  0  0  0  0  0  0  0  0  0  0  0
   61.3310   33.8660   48.7390 C   0  0  0  0  0  0  0  0  0  0  0  0
   62.4720   33.7850   49.4740 N   0  0  0  0  0  0  0  0  0  0  0  0
   65.3776   32.1999   51.2309 H   0  0  0  0  0  0  0  0  0  0  0  0
   64.7489   31.3870   49.7576 H   0  0  0  0  0  0  0  0  0  0  0  0
   66.3999   32.0946   49.7576 H   0  0  0  0  0  0  0  0  0  0  0  0
   64.7422   33.1798   47.0391 H   0  0  0  0  0  0  0  0  0  0  0  0
   62.6734   33.3369   45.6461 H   0  0  0  0  0  0  0  0  0  0  0  0
   60.1214   35.9499   46.0104 H   0  0  0  0  0  0  0  0  0  0  0  0
   57.8990   35.3300   44.7600 H   0  0  0  0  0  0  0  0  0  0  0  0
   56.4866   33.0244   44.3714 H   0  0  0  0  0  0  0  0  0  0  0  0
   56.7067   28.7688   44.7353 H   0  0  0  0  0  0  0  0  0  0  0  0
   56.7098   26.3094   45.1676 H   0  0  0  0  0  0  0  0  0  0  0  0
   59.8530   29.2214   47.6877 H   0  0  0  0  0  0  0  0  0  0  0  0
   60.1818   31.0147   47.0349 H   0  0  0  0  0  0  0  0  0  0  0  0
   60.3724   34.0723   49.2376 H   0  0  0  0  0  0  0  0  0  0  0  0
  1  2  1  0
  2  3  1  0
  3  4  2  0
  4  5  1  0
  5  6  2  0
  6  7  1  0
  7  8  2  0
  8  9  1  0
  9 10  2  0
 10 11  1  0
 11 12  2  0
 12 13  1  0
 13 14  1  0
 14 15  2  0
 15 16  1  0
 16 17  2  0
 17 18  1  0
 18 19  1  0
 18 20  2  0
 13 21  2  0
 21 22  1  0
  6 23  1  0
 23 24  2  0
 24  3  1  0
 22  7  1  0
 22 10  1  0
 20 14  1  0
  1 25  1  0
  1 26  1  0
  1 27  1  0
  4 28  1  0
  5 29  1  0
  8 30  1  0
  9 31  1  0
 11 32  1  0
 15 33  1  0
 16 34  1  0
 20 35  1  0
 21 36  1  0
 23 37  1  0
M  CHG  1   9   1
M  END
>  <UniqueID>  (56) 
51

>  <SMILES>  (56) 
COc1ccc(-c2c[nH+]c3cnc(-c4ccnc(F)c4)cn23)cn1

>  <Energy>  (56) 
87.95967167019101

>  <Genealogy>  (56) 
COc1ccc(-c2c[nH+]c3cnc(-c4ccnc(F)c4)cn23)cn1 (protonated)
COc1ccc(-c2c[nH+]c3cnc(-c4ccnc(F)c4)cn23)cn1 (3D coordinates assigned)
COc1ccc(-c2c[nH+]c3cnc(-c4ccnc(F)c4)cn23)cn1 (optimized conformer: 87.95967167019101 kcal/mol)

>  <smiles>  (56) 
COc1ccc(-c2cnc3cnc(-c4ccnc(F)c4)cn23)cn1

>  <score_type>  (56) 
oracle

>  <origin>  (56) 
adg

>  <m_score__min__energy>  (56) 
-5.6500000000000004

>  <m_primary>  (56) 
energy

$$$$
56:0
     RDKit          3D

 31 32  0  0  1  0  0  0  0  0999 V2000
   57.0400   33.9120   45.7520 C   0  0  0  0  0  0  0  0  0  0  0  0
   58.3920   34.1540   45.1010 C   0  0  2  0  0  0  0  0  0  0  0  0
   58.7540   33.0230   44.2430 N   0  0  0  0  0  0  0  0  0  0  0  0
   58.2400   31.8720   44.4760 C   0  0  0  0  0  0  0  0  0  0  0  0
   58.3220   31.2580   45.6560 N   0  0  0  0  0  0  0  0  0  0  0  0
   57.7670   30.0320   45.8820 C   0  0  0  0  0  0  0  0  0  0  0  0
   57.1060   29.4160   44.8620 N   0  0  0  0  0  0  0  0  0  0  0  0
   56.9980   30.0050   43.6440 C   0  0  0  0  0  0  0  0  0  0  0  0
   56.2980   29.3210   42.6110 N   0  0  0  0  0  0  0  0  0  0  0  0
   57.5730   31.2570   43.4370 C   0  0  0  0  0  0  0  0  0  0  0  0
   57.4500   31.8650   42.1420 C   0  0  0  0  0  0  0  0  0  0  0  0
   57.3700   32.3460   41.1030 N   0  0  0  0  0  0  0  0  0  0  0  0
   59.4020   34.0970   46.2170 C   0  0  0  0  0  0  0  0  0  0  0  0
   60.7360   33.8940   45.9900 C   0  0  0  0  0  0  0  0  0  0  0  0
   61.5990   33.8540   47.0690 C   0  0  0  0  0  0  0  0  0  0  0  0
   61.0840   34.0230   48.3570 C   0  0  0  0  0  0  0  0  0  0  0  0
   59.7410   34.2280   48.5850 C   0  0  0  0  0  0  0  0  0  0  0  0
   59.2760   34.3890   49.8650 F   0  0  0  0  0  0  0  0  0  0  0  0
   58.8830   34.2660   47.5050 C   0  0  0  0  0  0  0  0  0  0  0  0
   57.1511   33.9319   46.8462 H   0  0  0  0  0  0  0  0  0  0  0  0
   56.3370   34.6986   45.4405 H   0  0  0  0  0  0  0  0  0  0  0  0
   56.6535   32.9304   45.4405 H   0  0  0  0  0  0  0  0  0  0  0  0
   58.3647   35.0960   44.5337 H   0  0  0  0  0  0  0  0  0  0  0  0
   58.8300   31.7360   46.4330 H   0  0  0  0  0  0  0  0  0  0  0  0
   57.8515   29.5508   46.8675 H   0  0  0  0  0  0  0  0  0  0  0  0
   55.7960   29.7880   41.8350 H   0  0  0  0  0  0  0  0  0  0  0  0
   56.3010   28.2810   42.6530 H   0  0  0  0  0  0  0  0  0  0  0  0
   61.1154   33.7648   44.9656 H   0  0  0  0  0  0  0  0  0  0  0  0
   62.6761   33.6914   46.9159 H   0  0  0  0  0  0  0  0  0  0  0  0
   61.7719   33.9914   49.2148 H   0  0  0  0  0  0  0  0  0  0  0  0
   57.8052   34.4270   47.6549 H   0  0  0  0  0  0  0  0  0  0  0  0
  1  2  1  0
  2  3  1  0
  3  4  2  0
  4  5  1  0
  5  6  1  0
  6  7  2  0
  7  8  1  0
  8  9  1  0
  8 10  2  0
 10 11  1  0
 11 12  3  0
  2 13  1  0
 13 14  2  0
 14 15  1  0
 15 16  2  0
 16 17  1  0
 17 18  1  0
 17 19  2  0
 10  4  1  0
 19 13  1  0
  1 20  1  0
  1 21  1  0
  1 22  1  0
  2 23  1  6
  5 24  1  0
  6 25  1  0
  9 26  1  0
  9 27  1  0
 14 28  1  0
 15 29  1  0
 16 30  1  0
 19 31  1  0
M  END
>  <smiles>  (57) 
CC(N=c1[nH]cnc(N)c1C#N)c1cccc(F)c1

>  <score_type>  (57) 
oracle

>  <origin>  (57) 
adg

>  <m_score__min__energy>  (57) 
-6.54

>  <m_primary>  (57) 
energy

$$$$
57:0
     RDKit          3D

 31 33  0  0  0  0  0  0  0  0999 V2000
   61.7430   34.1940   49.2710 Cl  0  0  0  0  0  0  0  0  0  0  0  0
   60.4300   33.9190   48.1390 C   0  0  0  0  0  0  0  0  0  0  0  0
   59.3800   33.0610   48.4800 C   0  0  0  0  0  0  0  0  0  0  0  0
   58.3330   32.8440   47.5800 C   0  0  0  0  0  0  0  0  0  0  0  0
   58.3290   33.4830   46.3300 C   0  0  0  0  0  0  0  0  0  0  0  0
   57.1850   33.2710   45.3760 C   0  0  0  0  0  0  0  0  0  0  0  0
   57.7360   32.3770   43.8820 S   0  0  0  0  0  0  0  0  0  0  0  0
   56.9960   30.8190   44.3590 C   0  0  0  0  0  0  0  0  0  0  0  0
   55.6730   30.6370   44.5000 N   0  0  0  0  0  0  0  0  0  0  0  0
   55.5040   29.3720   44.8430 N   0  0  0  0  0  0  0  0  0  0  0  0
   56.7310   28.8190   44.9030 C   0  0  0  0  0  0  0  0  0  0  0  0
   56.9800   27.4040   45.2510 C   0  0  0  0  0  0  0  0  0  0  0  0
   58.1650   26.7660   44.8410 C   0  0  0  0  0  0  0  0  0  0  0  0
   58.3970   25.4270   45.1690 C   0  0  0  0  0  0  0  0  0  0  0  0
   57.4530   24.7120   45.9100 C   0  0  0  0  0  0  0  0  0  0  0  0
   57.7470   23.0320   46.3210 Cl  0  0  0  0  0  0  0  0  0  0  0  0
   56.2720   25.3370   46.3230 C   0  0  0  0  0  0  0  0  0  0  0  0
   56.0350   26.6760   45.9960 C   0  0  0  0  0  0  0  0  0  0  0  0
   57.7060   29.7020   44.6040 N   0  0  0  0  0  0  0  0  0  0  0  0
   59.3850   34.3470   45.9960 C   0  0  0  0  0  0  0  0  0  0  0  0
   60.4320   34.5630   46.8970 C   0  0  0  0  0  0  0  0  0  0  0  0
   59.3780   32.5564   49.4574 H   0  0  0  0  0  0  0  0  0  0  0  0
   57.5081   32.1692   47.8524 H   0  0  0  0  0  0  0  0  0  0  0  0
   56.4019   32.6840   45.8782 H   0  0  0  0  0  0  0  0  0  0  0  0
   56.7950   34.2537   45.0725 H   0  0  0  0  0  0  0  0  0  0  0  0
   58.9133   27.3240   44.2590 H   0  0  0  0  0  0  0  0  0  0  0  0
   59.3253   24.9352   44.8428 H   0  0  0  0  0  0  0  0  0  0  0  0
   55.5281   24.7744   46.9061 H   0  0  0  0  0  0  0  0  0  0  0  0
   55.1043   27.1625   46.3233 H   0  0  0  0  0  0  0  0  0  0  0  0
   59.3882   34.8561   45.0209 H   0  0  0  0  0  0  0  0  0  0  0  0
   61.2573   35.2392   46.6294 H   0  0  0  0  0  0  0  0  0  0  0  0
  1  2  1  0
  2  3  2  0
  3  4  1  0
  4  5  2  0
  5  6  1  0
  6  7  1  0
  7  8  1  0
  8  9  2  0
  9 10  1  0
 10 11  1  0
 11 12  1  0
 12 13  2  0
 13 14  1  0
 14 15  2  0
 15 16  1  0
 15 17  1  0
 17 18  2  0
 11 19  2  0
  5 20  1  0
 20 21  2  0
 21  2  1  0
 19  8  1  0
 18 12  1  0
  3 22  1  0
  4 23  1  0
  6 24  1  0
  6 25  1  0
 13 26  1  0
 14 27  1  0
 17 28  1  0
 18 29  1  0
 20 30  1  0
 21 31  1  0
M  CHG  1  10  -1
M  END
>  <UniqueID>  (58) 
52

>  <SMILES>  (58) 
Clc1ccc(CSc2n[n-]c(-c3ccc(Cl)cc3)n2)cc1

>  <Energy>  (58) 
61.38958696260315

>  <Genealogy>  (58) 
Clc1ccc(CSc2n[n-]c(-c3ccc(Cl)cc3)n2)cc1 (protonated)
Clc1ccc(CSc2n[n-]c(-c3ccc(Cl)cc3)n2)cc1 (3D coordinates assigned)
Clc1ccc(CSc2n[n-]c(-c3ccc(Cl)cc3)n2)cc1 (optimized conformer: 61.38958696260315 kcal/mol)

>  <smiles>  (58) 
Clc1ccc(CSc2n[nH]c(-c3ccc(Cl)cc3)n2)cc1

>  <score_type>  (58) 
oracle

>  <origin>  (58) 
adg

>  <m_score__min__energy>  (58) 
-9.6300000000000008

>  <m_primary>  (58) 
energy

$$$$
58:0
     RDKit          3D

 43 45  0  0  0  0  0  0  0  0999 V2000
   64.5840   33.2270   49.6040 C   0  0  0  0  0  0  0  0  0  0  0  0
   64.0860   32.5550   48.3910 N   0  0  0  0  0  0  0  0  0  0  0  0
   63.0330   31.5720   48.7500 C   0  0  0  0  0  0  0  0  0  0  0  0
   62.1250   31.2620   47.5510 C   0  0  0  0  0  0  0  0  0  0  0  0
   61.4170   32.4710   47.0540 N   0  0  0  0  0  0  0  0  0  0  0  0
   60.0170   32.5280   47.5240 C   0  0  0  0  0  0  0  0  0  0  0  0
   59.0620   32.5590   46.3490 C   0  0  0  0  0  0  0  0  0  0  0  0
   58.5840   33.8090   45.9160 C   0  0  0  0  0  0  0  0  0  0  0  0
   57.7510   33.9070   44.8020 C   0  0  0  0  0  0  0  0  0  0  0  0
   57.3860   32.7590   44.0980 C   0  0  0  0  0  0  0  0  0  0  0  0
   57.8440   31.5090   44.5140 C   0  0  0  0  0  0  0  0  0  0  0  0
   58.6740   31.3900   45.6420 C   0  0  0  0  0  0  0  0  0  0  0  0
   59.1080   30.0380   46.0510 C   0  0  0  0  0  0  0  0  0  0  0  0
   59.9800   29.3010   45.2330 C   0  0  0  0  0  0  0  0  0  0  0  0
   60.3870   28.0190   45.6160 C   0  0  0  0  0  0  0  0  0  0  0  0
   59.9180   27.4630   46.8090 C   0  0  0  0  0  0  0  0  0  0  0  0
   59.0370   28.1860   47.6200 C   0  0  0  0  0  0  0  0  0  0  0  0
   58.6280   29.4680   47.2410 C   0  0  0  0  0  0  0  0  0  0  0  0
   62.1200   33.7360   47.3750 C   0  0  0  0  0  0  0  0  0  0  0  0
   63.6430   33.5470   47.3730 C   0  0  0  0  0  0  0  0  0  0  0  0
   64.1996   32.7083   50.4946 H   0  0  0  0  0  0  0  0  0  0  0  0
   65.6837   33.2025   49.6115 H   0  0  0  0  0  0  0  0  0  0  0  0
   64.2405   34.2720   49.6115 H   0  0  0  0  0  0  0  0  0  0  0  0
   64.8930   32.0230   47.9840 H   0  0  0  0  0  0  0  0  0  0  0  0
   63.5122   30.6408   49.0865 H   0  0  0  0  0  0  0  0  0  0  0  0
   62.4145   32.0036   49.5507 H   0  0  0  0  0  0  0  0  0  0  0  0
   62.7411   30.8528   46.7368 H   0  0  0  0  0  0  0  0  0  0  0  0
   61.3653   30.5384   47.8815 H   0  0  0  0  0  0  0  0  0  0  0  0
   59.8054   31.6406   48.1387 H   0  0  0  0  0  0  0  0  0  0  0  0
   59.8789   33.4435   48.1179 H   0  0  0  0  0  0  0  0  0  0  0  0
   58.8706   34.7197   46.4624 H   0  0  0  0  0  0  0  0  0  0  0  0
   57.3811   34.8909   44.4778 H   0  0  0  0  0  0  0  0  0  0  0  0
   56.7364   32.8399   43.2140 H   0  0  0  0  0  0  0  0  0  0  0  0
   57.5529   30.6080   43.9541 H   0  0  0  0  0  0  0  0  0  0  0  0
   60.3436   29.7331   44.2890 H   0  0  0  0  0  0  0  0  0  0  0  0
   61.0770   27.4478   44.9775 H   0  0  0  0  0  0  0  0  0  0  0  0
   60.2418   26.4560   47.1107 H   0  0  0  0  0  0  0  0  0  0  0  0
   58.6656   27.7454   48.5570 H   0  0  0  0  0  0  0  0  0  0  0  0
   57.9287   30.0313   47.8764 H   0  0  0  0  0  0  0  0  0  0  0  0
   61.8526   34.4943   46.6244 H   0  0  0  0  0  0  0  0  0  0  0  0
   61.8126   34.0569   48.3812 H   0  0  0  0  0  0  0  0  0  0  0  0
   63.9557   33.1977   46.3779 H   0  0  0  0  0  0  0  0  0  0  0  0
   64.1045   34.5145   47.6198 H   0  0  0  0  0  0  0  0  0  0  0  0
  1  2  1  0
  2  3  1  0
  3  4  1  0
  4  5  1  0
  5  6  1  0
  6  7  1  0
  7  8  2  0
  8  9  1  0
  9 10  2  0
 10 11  1  0
 11 12  2  0
 12 13  1  0
 13 14  2  0
 14 15  1  0
 15 16  2  0
 16 17  1  0
 17 18  2  0
  5 19  1  0
 19 20  1  0
 20  2  1  0
 12  7  1  0
 18 13  1  0
  1 21  1  0
  1 22  1  0
  1 23  1  0
  2 24  1  0
  3 25  1  0
  3 26  1  0
  4 27  1  0
  4 28  1  0
  6 29  1  0
  6 30  1  0
  8 31  1  0
  9 32  1  0
 10 33  1  0
 11 34  1  0
 14 35  1  0
 15 36  1  0
 16 37  1  0
 17 38  1  0
 18 39  1  0
 19 40  1  0
 19 41  1  0
 20 42  1  0
 20 43  1  0
M  CHG  1   2   1
M  END
>  <UniqueID>  (59) 
53

>  <SMILES>  (59) 
C[NH+]1CCN(Cc2ccccc2-c2ccccc2)CC1

>  <Energy>  (59) 
64.2277675239023

>  <Genealogy>  (59) 
C[NH+]1CCN(Cc2ccccc2-c2ccccc2)CC1 (protonated)
C[NH+]1CCN(Cc2ccccc2-c2ccccc2)CC1 (3D coordinates assigned)
C[NH+]1CCN(Cc2ccccc2-c2ccccc2)CC1 (nonaromatic ring conformer: 64.2277675239023 kcal/mol)

>  <smiles>  (59) 
CN1CCN(Cc2ccccc2-c2ccccc2)CC1

>  <score_type>  (59) 
oracle

>  <origin>  (59) 
adg

>  <m_score__min__energy>  (59) 
-5.8099999999999996

>  <m_primary>  (59) 
energy

$$$$
59:0
     RDKit          3D

 39 42  0  0  0  0  0  0  0  0999 V2000
   59.2960   34.7000   45.0250 C   0  0  0  0  0  0  0  0  0  0  0  0
   59.3880   33.4820   45.8270 N   0  0  0  0  0  0  0  0  0  0  0  0
   58.4930   32.4590   45.8890 C   0  0  0  0  0  0  0  0  0  0  0  0
   57.2340   32.3980   45.1280 C   0  0  0  0  0  0  0  0  0  0  0  0
   56.2680   33.1240   45.4810 O   0  0  0  0  0  0  0  0  0  0  0  0
   57.0790   31.5390   43.9930 N   0  0  0  0  0  0  0  0  0  0  0  0
   56.6920   29.8510   44.0940 S   0  0  0  0  0  0  0  0  0  0  0  0
   55.4120   29.6790   44.8640 O   0  0  0  0  0  0  0  0  0  0  0  0
   56.4950   29.3060   42.7080 O   0  0  0  0  0  0  0  0  0  0  0  0
   57.9870   28.9710   44.8800 C   0  0  0  0  0  0  0  0  0  0  0  0
   59.3270   29.0000   44.5190 C   0  0  0  0  0  0  0  0  0  0  0  0
   60.1210   28.1630   45.3110 C   0  0  0  0  0  0  0  0  0  0  0  0
   59.4090   27.4810   46.2900 C   0  0  0  0  0  0  0  0  0  0  0  0
   57.7880   27.9160   46.1700 S   0  0  0  0  0  0  0  0  0  0  0  0
   58.9550   31.4410   46.7240 C   0  0  0  0  0  0  0  0  0  0  0  0
   60.1760   31.8830   47.1820 C   0  0  0  0  0  0  0  0  0  0  0  0
   61.1200   31.3090   48.0270 C   0  0  0  0  0  0  0  0  0  0  0  0
   60.9310   30.1810   48.5580 O   0  0  0  0  0  0  0  0  0  0  0  0
   62.2650   32.0200   48.2570 N   0  0  0  0  0  0  0  0  0  0  0  0
   62.4830   33.2280   47.6860 C   0  0  0  0  0  0  0  0  0  0  0  0
   61.5630   33.7980   46.8510 N   0  0  0  0  0  0  0  0  0  0  0  0
   60.4130   33.1080   46.6180 C   0  0  0  0  0  0  0  0  0  0  0  0
   63.7810   33.8290   48.0530 C   0  0  0  0  0  0  0  0  0  0  0  0
   64.3930   32.7790   48.9970 C   0  0  0  0  0  0  0  0  0  0  0  0
   63.3790   31.6220   49.0950 C   0  0  0  0  0  0  0  0  0  0  0  0
   59.2300   35.5732   45.6907 H   0  0  0  0  0  0  0  0  0  0  0  0
   60.1899   34.7895   44.3903 H   0  0  0  0  0  0  0  0  0  0  0  0
   58.3988   34.6542   44.3903 H   0  0  0  0  0  0  0  0  0  0  0  0
   59.7227   29.6155   43.6977 H   0  0  0  0  0  0  0  0  0  0  0  0
   61.2068   28.0551   45.1716 H   0  0  0  0  0  0  0  0  0  0  0  0
   59.8333   26.7760   47.0200 H   0  0  0  0  0  0  0  0  0  0  0  0
   58.4531   30.4921   46.9641 H   0  0  0  0  0  0  0  0  0  0  0  0
   61.7480   34.7260   46.4100 H   0  0  0  0  0  0  0  0  0  0  0  0
   64.4128   33.9786   47.1650 H   0  0  0  0  0  0  0  0  0  0  0  0
   63.6840   34.8229   48.5142 H   0  0  0  0  0  0  0  0  0  0  0  0
   65.3466   32.4130   48.5888 H   0  0  0  0  0  0  0  0  0  0  0  0
   64.5959   33.2105   49.9883 H   0  0  0  0  0  0  0  0  0  0  0  0
   63.8245   30.6865   48.7256 H   0  0  0  0  0  0  0  0  0  0  0  0
   63.0664   31.4365   50.1332 H   0  0  0  0  0  0  0  0  0  0  0  0
  1  2  1  0
  2  3  1  0
  3  4  1  0
  4  5  2  0
  4  6  1  0
  6  7  1  0
  7  8  2  0
  7  9  2  0
  7 10  1  0
 10 11  2  0
 11 12  1  0
 12 13  2  0
 13 14  1  0
  3 15  2  0
 15 16  1  0
 16 17  1  0
 17 18  2  0
 17 19  1  0
 19 20  1  0
 20 21  2  0
 21 22  1  0
 20 23  1  0
 23 24  1  0
 24 25  1  0
 22  2  1  0
 14 10  1  0
 22 16  2  0
 25 19  1  0
  1 26  1  0
  1 27  1  0
  1 28  1  0
 11 29  1  0
 12 30  1  0
 13 31  1  0
 15 32  1  0
 21 33  1  0
 23 34  1  0
 23 35  1  0
 24 36  1  0
 24 37  1  0
 25 38  1  0
 25 39  1  0
M  CHG  2   6  -1  21   1
M  END
>  <UniqueID>  (60) 
54

>  <SMILES>  (60) 
Cn1c(C(=O)[N-]S(=O)(=O)c2cccs2)cc2c(=O)n3c([nH+]c21)CCC3

>  <Energy>  (60) 
118.60737601818252

>  <Genealogy>  (60) 
Cn1c(C(=O)[N-]S(=O)(=O)c2cccs2)cc2c(=O)n3c([nH+]c21)CCC3 (protonated)
Cn1c(C(=O)[N-]S(=O)(=O)c2cccs2)cc2c(=O)n3c([nH+]c21)CCC3 (3D coordinates assigned)
Cn1c(C(=O)[N-]S(=O)(=O)c2cccs2)cc2c(=O)n3c([nH+]c21)CCC3 (nonaromatic ring conformer: 118.60737601818252 kcal/mol)

>  <smiles>  (60) 
Cn1c(C(=O)NS(=O)(=O)c2cccs2)cc2c(=O)n3c(nc21)CCC3

>  <score_type>  (60) 
oracle

>  <origin>  (60) 
adg

>  <m_score__min__energy>  (60) 
-8.3499999999999996

>  <m_primary>  (60) 
energy

$$$$
60:0
     RDKit          3D

 42 44  0  0  0  0  0  0  0  0999 V2000
   59.1430   33.0710   45.2630 C   0  0  0  0  0  0  0  0  0  0  0  0
   58.3820   31.7790   45.3060 C   0  0  0  0  0  0  0  0  0  0  0  0
   57.3400   31.5450   44.3960 C   0  0  0  0  0  0  0  0  0  0  0  0
   56.6440   30.3270   44.4010 C   0  0  0  0  0  0  0  0  0  0  0  0
   55.5250   30.0970   43.4200 C   0  0  0  0  0  0  0  0  0  0  0  0
   57.0090   29.3230   45.3180 C   0  0  0  0  0  0  0  0  0  0  0  0
   56.3480   28.1340   45.3340 N   0  0  0  0  0  0  0  0  0  0  0  0
   56.6640   27.1300   46.1970 C   0  0  0  0  0  0  0  0  0  0  0  0
   55.8960   25.8730   46.1510 C   0  0  0  0  0  0  0  0  0  0  0  0
   54.7280   25.8740   45.6780 O   0  0  0  0  0  0  0  0  0  0  0  0
   56.4800   24.6490   46.6130 N   0  0  0  0  0  0  0  0  0  0  0  0
   56.9620   23.6120   45.7460 C   0  0  0  0  0  0  0  0  0  0  0  0
   56.0910   22.6190   45.2350 C   0  0  0  0  0  0  0  0  0  0  0  0
   54.6310   22.5770   45.6020 C   0  0  0  0  0  0  0  0  0  0  0  0
   56.5950   21.6480   44.3560 C   0  0  0  0  0  0  0  0  0  0  0  0
   57.9490   21.6260   44.0250 C   0  0  0  0  0  0  0  0  0  0  0  0
   58.8190   22.5710   44.5670 C   0  0  0  0  0  0  0  0  0  0  0  0
   58.3380   23.5610   45.4380 C   0  0  0  0  0  0  0  0  0  0  0  0
   59.2840   24.5900   45.9940 C   0  0  0  0  0  0  0  0  0  0  0  0
   57.7110   27.3130   47.1120 C   0  0  0  0  0  0  0  0  0  0  0  0
   58.4170   28.5190   47.1280 C   0  0  0  0  0  0  0  0  0  0  0  0
   59.3570   28.6720   47.9550 O   0  0  0  0  0  0  0  0  0  0  0  0
   58.0720   29.5440   46.2270 C   0  0  0  0  0  0  0  0  0  0  0  0
   58.7540   30.7730   46.2080 C   0  0  0  0  0  0  0  0  0  0  0  0
   59.3441   33.4124   46.2892 H   0  0  0  0  0  0  0  0  0  0  0  0
   60.0954   32.9182   44.7342 H   0  0  0  0  0  0  0  0  0  0  0  0
   58.5476   33.8298   44.7342 H   0  0  0  0  0  0  0  0  0  0  0  0
   57.0658   32.3252   43.6707 H   0  0  0  0  0  0  0  0  0  0  0  0
   54.5907   29.9050   43.9679 H   0  0  0  0  0  0  0  0  0  0  0  0
   55.4026   30.9888   42.7877 H   0  0  0  0  0  0  0  0  0  0  0  0
   55.7643   29.2293   42.7877 H   0  0  0  0  0  0  0  0  0  0  0  0
   54.5282   22.5740   46.6972 H   0  0  0  0  0  0  0  0  0  0  0  0
   54.1234   23.4609   45.1884 H   0  0  0  0  0  0  0  0  0  0  0  0
   54.1750   21.6654   45.1884 H   0  0  0  0  0  0  0  0  0  0  0  0
   55.9159   20.8979   43.9245 H   0  0  0  0  0  0  0  0  0  0  0  0
   58.3322   20.8607   43.3340 H   0  0  0  0  0  0  0  0  0  0  0  0
   59.8883   22.5406   44.3106 H   0  0  0  0  0  0  0  0  0  0  0  0
   59.2552   24.5586   47.0932 H   0  0  0  0  0  0  0  0  0  0  0  0
   60.3055   24.3741   45.6477 H   0  0  0  0  0  0  0  0  0  0  0  0
   58.9831   25.5898   45.6477 H   0  0  0  0  0  0  0  0  0  0  0  0
   57.9758   26.5095   47.8151 H   0  0  0  0  0  0  0  0  0  0  0  0
   59.5860   30.9464   46.9064 H   0  0  0  0  0  0  0  0  0  0  0  0
  1  2  1  0
  2  3  2  0
  3  4  1  0
  4  5  1  0
  4  6  2  0
  6  7  1  0
  7  8  1  0
  8  9  1  0
  9 10  2  0
  9 11  1  0
 11 12  1  0
 12 13  2  0
 13 14  1  0
 13 15  1  0
 15 16  2  0
 16 17  1  0
 17 18  2  0
 18 19  1  0
  8 20  2  0
 20 21  1  0
 21 22  2  0
 21 23  1  0
 23 24  2  0
 24  2  1  0
 23  6  1  0
 18 12  1  0
  1 25  1  0
  1 26  1  0
  1 27  1  0
  3 28  1  0
  5 29  1  0
  5 30  1  0
  5 31  1  0
 14 32  1  0
 14 33  1  0
 14 34  1  0
 15 35  1  0
 16 36  1  0
 17 37  1  0
 19 38  1  0
 19 39  1  0
 19 40  1  0
 20 41  1  0
 24 42  1  0
M  CHG  2   7  -1  11  -1
M  END
>  <UniqueID>  (61) 
55

>  <SMILES>  (61) 
Cc1cc(C)c2[n-]c(C(=O)[N-]c3c(C)cccc3C)cc(=O)c2c1

>  <Energy>  (61) 
54.58476326428053

>  <Genealogy>  (61) 
Cc1cc(C)c2[n-]c(C(=O)[N-]c3c(C)cccc3C)cc(=O)c2c1 (protonated)
Cc1cc(C)c2[n-]c(C(=O)[N-]c3c(C)cccc3C)cc(=O)c2c1 (3D coordinates assigned)
Cc1cc(C)c2[n-]c(C(=O)[N-]c3c(C)cccc3C)cc(=O)c2c1 (optimized conformer: 54.58476326428053 kcal/mol)

>  <smiles>  (61) 
Cc1cc(C)c2[nH]c(C(=O)Nc3c(C)cccc3C)cc(=O)c2c1

>  <score_type>  (61) 
oracle

>  <origin>  (61) 
adg

>  <m_score__min__energy>  (61) 
-10.83

>  <m_primary>  (61) 
energy

$$$$
61:0
     RDKit          3D

 48 50  0  0  0  0  0  0  0  0999 V2000
   66.2820   33.0580   50.3590 C   0  0  0  0  0  0  0  0  0  0  0  0
   64.8490   33.0630   49.9380 C   0  0  0  0  0  0  0  0  0  0  0  0
   63.9470   33.0760   50.8200 O   0  0  0  0  0  0  0  0  0  0  0  0
   64.5120   32.9570   48.5460 N   0  0  0  0  0  0  0  0  0  0  0  0
   63.1840   33.1240   48.0220 C   0  0  0  0  0  0  0  0  0  0  0  0
   62.9580   33.7290   46.7730 C   0  0  0  0  0  0  0  0  0  0  0  0
   61.6580   33.8570   46.2760 C   0  0  0  0  0  0  0  0  0  0  0  0
   60.5640   33.3900   47.0140 C   0  0  0  0  0  0  0  0  0  0  0  0
   59.2490   33.5250   46.4580 N   0  0  0  0  0  0  0  0  0  0  0  0
   58.1270   32.6650   46.6990 C   0  0  0  0  0  0  0  0  0  0  0  0
   57.0910   33.1120   47.2610 O   0  0  0  0  0  0  0  0  0  0  0  0
   58.1280   31.2480   46.1890 C   0  0  2  0  0  0  0  0  0  0  0  0
   59.5460   30.7360   45.8630 C   0  0  0  0  0  0  0  0  0  0  0  0
   59.7950   29.3830   46.4780 C   0  0  0  0  0  0  0  0  0  0  0  0
   60.4650   28.3870   45.7470 C   0  0  0  0  0  0  0  0  0  0  0  0
   60.7290   27.1430   46.3290 C   0  0  0  0  0  0  0  0  0  0  0  0
   60.3320   26.8870   47.6440 C   0  0  0  0  0  0  0  0  0  0  0  0
   59.6730   27.8760   48.3810 C   0  0  0  0  0  0  0  0  0  0  0  0
   59.4080   29.1200   47.8030 C   0  0  0  0  0  0  0  0  0  0  0  0
   57.2330   31.1160   45.0370 N   0  0  0  0  0  0  0  0  0  0  0  0
   56.3930   29.9910   44.7500 C   0  0  0  0  0  0  0  0  0  0  0  0
   55.1680   30.1490   44.5000 O   0  0  0  0  0  0  0  0  0  0  0  0
   56.9620   28.6400   44.7390 C   0  0  0  0  0  0  0  0  0  0  0  0
   57.8390   28.1360   43.7960 C   0  0  0  0  0  0  0  0  0  0  0  0
   58.0960   26.8380   44.1840 C   0  0  0  0  0  0  0  0  0  0  0  0
   57.3610   26.6360   45.3340 C   0  0  0  0  0  0  0  0  0  0  0  0
   57.3040   25.0210   46.3430 Br  0  0  0  0  0  0  0  0  0  0  0  0
   56.6940   27.7240   45.6410 O   0  0  0  0  0  0  0  0  0  0  0  0
   60.7910   32.7450   48.2420 C   0  0  0  0  0  0  0  0  0  0  0  0
   62.0920   32.6130   48.7390 C   0  0  0  0  0  0  0  0  0  0  0  0
   66.3415   33.0578   51.4574 H   0  0  0  0  0  0  0  0  0  0  0  0
   66.7768   32.1581   49.9648 H   0  0  0  0  0  0  0  0  0  0  0  0
   66.7831   33.9544   49.9648 H   0  0  0  0  0  0  0  0  0  0  0  0
   65.2670   32.6560   47.8870 H   0  0  0  0  0  0  0  0  0  0  0  0
   63.8084   34.1033   46.1842 H   0  0  0  0  0  0  0  0  0  0  0  0
   61.4930   34.3289   45.2962 H   0  0  0  0  0  0  0  0  0  0  0  0
   57.7493   30.6092   47.0005 H   0  0  0  0  0  0  0  0  0  0  0  0
   59.6569   30.6592   44.7713 H   0  0  0  0  0  0  0  0  0  0  0  0
   60.2756   31.4461   46.2796 H   0  0  0  0  0  0  0  0  0  0  0  0
   60.7830   28.5867   44.7131 H   0  0  0  0  0  0  0  0  0  0  0  0
   61.2497   26.3653   45.7510 H   0  0  0  0  0  0  0  0  0  0  0  0
   60.5379   25.9072   48.0996 H   0  0  0  0  0  0  0  0  0  0  0  0
   59.3629   27.6743   49.4169 H   0  0  0  0  0  0  0  0  0  0  0  0
   58.8941   29.8971   48.3878 H   0  0  0  0  0  0  0  0  0  0  0  0
   58.2465   28.6609   42.9194 H   0  0  0  0  0  0  0  0  0  0  0  0
   58.7520   26.1128   43.6803 H   0  0  0  0  0  0  0  0  0  0  0  0
   59.9424   32.3424   48.8145 H   0  0  0  0  0  0  0  0  0  0  0  0
   62.2600   32.1044   49.6998 H   0  0  0  0  0  0  0  0  0  0  0  0
  1  2  1  0
  2  3  2  0
  2  4  1  0
  4  5  1  0
  5  6  2  0
  6  7  1  0
  7  8  2  0
  8  9  1  0
  9 10  1  0
 10 11  2  0
 10 12  1  0
 12 13  1  0
 13 14  1  0
 14 15  2  0
 15 16  1  0
 16 17  2  0
 17 18  1  0
 18 19  2  0
 12 20  1  0
 20 21  1  0
 21 22  2  0
 21 23  1  0
 23 24  2  0
 24 25  1  0
 25 26  2  0
 26 27  1  0
 26 28  1  0
  8 29  1  0
 29 30  2  0
 30  5  1  0
 19 14  1  0
 28 23  1  0
  1 31  1  0
  1 32  1  0
  1 33  1  0
  4 34  1  0
  6 35  1  0
  7 36  1  0
 12 37  1  1
 13 38  1  0
 13 39  1  0
 15 40  1  0
 16 41  1  0
 17 42  1  0
 18 43  1  0
 19 44  1  0
 24 45  1  0
 25 46  1  0
 29 47  1  0
 30 48  1  0
M  CHG  2   9  -1  20  -1
M  END
>  <UniqueID>  (62) 
56

>  <SMILES>  (62) 
CC(=O)Nc1ccc([N-]C(=O)[C@H](Cc2ccccc2)[N-]C(=O)c2ccc(Br)o2)cc1

>  <Energy>  (62) 
76.61627736685094

>  <Genealogy>  (62) 
CC(=O)Nc1ccc([N-]C(=O)C(Cc2ccccc2)[N-]C(=O)c2ccc(Br)o2)cc1 (protonated)
CC(=O)Nc1ccc([N-]C(=O)[C@H](Cc2ccccc2)[N-]C(=O)c2ccc(Br)o2)cc1 (chirality)
CC(=O)Nc1ccc([N-]C(=O)[C@H](Cc2ccccc2)[N-]C(=O)c2ccc(Br)o2)cc1 (3D coordinates assigned)
CC(=O)Nc1ccc([N-]C(=O)[C@H](Cc2ccccc2)[N-]C(=O)c2ccc(Br)o2)cc1 (optimized conformer: 76.61627736685094 kcal/mol)

>  <smiles>  (62) 
CC(=O)Nc1ccc(NC(=O)C(Cc2ccccc2)NC(=O)c2ccc(Br)o2)cc1

>  <score_type>  (62) 
oracle

>  <origin>  (62) 
adg

>  <m_score__min__energy>  (62) 
-11.85

>  <m_primary>  (62) 
energy

$$$$
62:0
     RDKit          3D

 43 46  0  0  0  0  0  0  0  0999 V2000
   63.3140   34.1870   52.6710 C   0  0  0  0  0  0  0  0  0  0  0  0
   64.2730   33.7830   51.5900 C   0  0  0  0  0  0  0  0  0  0  0  0
   65.6650   33.9720   51.7310 C   0  0  0  0  0  0  0  0  0  0  0  0
   66.5380   33.5750   50.6940 C   0  0  0  0  0  0  0  0  0  0  0  0
   66.0480   33.0080   49.5510 N   0  0  0  0  0  0  0  0  0  0  0  0
   64.7080   32.8310   49.4240 C   0  0  0  0  0  0  0  0  0  0  0  0
   64.0770   32.2920   48.3690 N   0  0  0  0  0  0  0  0  0  0  0  0
   62.7570   32.3130   48.6860 C   0  0  0  0  0  0  0  0  0  0  0  0
   61.6810   31.8060   47.7970 C   0  0  0  0  0  0  0  0  0  0  0  0
   60.7660   32.6920   47.2000 C   0  0  0  0  0  0  0  0  0  0  0  0
   59.7530   32.2120   46.3650 C   0  0  0  0  0  0  0  0  0  0  0  0
   59.6300   30.8370   46.1120 C   0  0  0  0  0  0  0  0  0  0  0  0
   58.5940   30.3420   45.2400 N   0  0  0  0  0  0  0  0  0  0  0  0
   57.8720   31.2440   44.3340 C   0  0  0  0  0  0  0  0  0  0  0  0
   56.3490   31.0590   44.4890 C   0  0  0  0  0  0  0  0  0  0  0  0
   55.9510   29.7130   44.9490 N   0  0  0  0  0  0  0  0  0  0  0  0
   56.9090   28.6740   44.5460 C   0  0  0  0  0  0  0  0  0  0  0  0
   58.2700   28.9100   45.2160 C   0  0  0  0  0  0  0  0  0  0  0  0
   60.5480   29.9520   46.6980 C   0  0  0  0  0  0  0  0  0  0  0  0
   61.5610   30.4300   47.5330 C   0  0  0  0  0  0  0  0  0  0  0  0
   62.5660   32.8740   49.9530 C   0  0  0  0  0  0  0  0  0  0  0  0
   63.8290   33.1980   50.4020 C   0  0  0  0  0  0  0  0  0  0  0  0
   63.7682   33.9957   53.6544 H   0  0  0  0  0  0  0  0  0  0  0  0
   63.0841   35.2585   52.5755 H   0  0  0  0  0  0  0  0  0  0  0  0
   62.3867   33.6031   52.5755 H   0  0  0  0  0  0  0  0  0  0  0  0
   66.0691   34.4277   52.6470 H   0  0  0  0  0  0  0  0  0  0  0  0
   67.6220   33.7235   50.8073 H   0  0  0  0  0  0  0  0  0  0  0  0
   66.6980   32.7160   48.7860 H   0  0  0  0  0  0  0  0  0  0  0  0
   64.5270   31.9160   47.5050 H   0  0  0  0  0  0  0  0  0  0  0  0
   60.8484   33.7720   47.3919 H   0  0  0  0  0  0  0  0  0  0  0  0
   59.0468   32.9173   45.9026 H   0  0  0  0  0  0  0  0  0  0  0  0
   58.1365   32.2847   44.5726 H   0  0  0  0  0  0  0  0  0  0  0  0
   58.1554   31.0091   43.2974 H   0  0  0  0  0  0  0  0  0  0  0  0
   55.9836   31.7961   45.2191 H   0  0  0  0  0  0  0  0  0  0  0  0
   55.9084   31.1973   43.4906 H   0  0  0  0  0  0  0  0  0  0  0  0
   55.8900   29.7170   45.9950 H   0  0  0  0  0  0  0  0  0  0  0  0
   56.5230   27.6890   44.8472 H   0  0  0  0  0  0  0  0  0  0  0  0
   57.0380   28.7125   43.4543 H   0  0  0  0  0  0  0  0  0  0  0  0
   58.2356   28.5300   46.2477 H   0  0  0  0  0  0  0  0  0  0  0  0
   59.0443   28.3813   44.6408 H   0  0  0  0  0  0  0  0  0  0  0  0
   60.4693   28.8731   46.4983 H   0  0  0  0  0  0  0  0  0  0  0  0
   62.2710   29.7237   47.9880 H   0  0  0  0  0  0  0  0  0  0  0  0
   61.6118   33.0246   50.4791 H   0  0  0  0  0  0  0  0  0  0  0  0
  1  2  1  0
  2  3  2  0
  3  4  1  0
  4  5  2  0
  5  6  1  0
  6  7  1  0
  7  8  1  0
  8  9  1  0
  9 10  2  0
 10 11  1  0
 11 12  2  0
 12 13  1  0
 13 14  1  0
 14 15  1  0
 15 16  1  0
 16 17  1  0
 17 18  1  0
 12 19  1  0
 19 20  2  0
  8 21  2  0
 21 22  1  0
 22  2  1  0
 22  6  2  0
 20  9  1  0
 18 13  1  0
  1 23  1  0
  1 24  1  0
  1 25  1  0
  3 26  1  0
  4 27  1  0
  5 28  1  0
  7 29  1  0
 10 30  1  0
 11 31  1  0
 14 32  1  0
 14 33  1  0
 15 34  1  0
 15 35  1  0
 16 36  1  0
 17 37  1  0
 17 38  1  0
 18 39  1  0
 18 40  1  0
 19 41  1  0
 20 42  1  0
 21 43  1  0
M  CHG  1   5   1
M  END
>  <UniqueID>  (63) 
57

>  <SMILES>  (63) 
Cc1cc[nH+]c2[nH]c(-c3ccc(N4CCNCC4)cc3)cc12

>  <Energy>  (63) 
90.1433601207513

>  <Genealogy>  (63) 
Cc1cc[nH+]c2[nH]c(-c3ccc(N4CCNCC4)cc3)cc12 (protonated)
Cc1cc[nH+]c2[nH]c(-c3ccc(N4CCNCC4)cc3)cc12 (3D coordinates assigned)
Cc1cc[nH+]c2[nH]c(-c3ccc(N4CCNCC4)cc3)cc12 (nonaromatic ring conformer: 90.1433601207513 kcal/mol)

>  <smiles>  (63) 
Cc1ccnc2[nH]c(-c3ccc(N4CCNCC4)cc3)cc12

>  <score_type>  (63) 
oracle

>  <origin>  (63) 
adg

>  <m_score__min__energy>  (63) 
-6.3300000000000001

>  <m_primary>  (63) 
energy

$$$$
63:0
     RDKit          3D

 34 35  0  0  0  0  0  0  0  0999 V2000
   63.7880   32.3010   48.4470 C   0  0  0  0  0  0  0  0  0  0  0  0
   62.6150   32.1060   47.5370 C   0  0  0  0  0  0  0  0  0  0  0  0
   62.3020   33.0290   46.7400 O   0  0  0  0  0  0  0  0  0  0  0  0
   61.8590   30.8880   47.5170 N   0  0  0  0  0  0  0  0  0  0  0  0
   60.6270   30.6590   46.8200 C   0  0  0  0  0  0  0  0  0  0  0  0
   59.4390   31.3130   47.1900 C   0  0  0  0  0  0  0  0  0  0  0  0
   58.2580   31.0840   46.4780 C   0  0  0  0  0  0  0  0  0  0  0  0
   58.2540   30.2090   45.3830 C   0  0  0  0  0  0  0  0  0  0  0  0
   56.7630   29.8800   44.5060 S   0  0  0  0  0  0  0  0  0  0  0  0
   55.8620   31.0840   44.5150 O   0  0  0  0  0  0  0  0  0  0  0  0
   57.1020   29.5320   43.0850 O   0  0  0  0  0  0  0  0  0  0  0  0
   55.9310   28.5460   45.2370 N   0  0  0  0  0  0  0  0  0  0  0  0
   56.5610   27.4080   45.8450 C   0  0  0  0  0  0  0  0  0  0  0  0
   57.9480   27.3620   46.0800 C   0  0  0  0  0  0  0  0  0  0  0  0
   58.5420   26.2270   46.6630 C   0  0  0  0  0  0  0  0  0  0  0  0
   59.9620   26.1750   46.8920 N   0  0  0  0  0  0  0  0  0  0  0  0
   60.4640   26.7070   47.9050 O   0  0  0  0  0  0  0  0  0  0  0  0
   60.7930   25.5420   45.9960 O   0  0  0  0  0  0  0  0  0  0  0  0
   57.7270   25.1390   47.0180 C   0  0  0  0  0  0  0  0  0  0  0  0
   56.3490   25.1840   46.7930 C   0  0  0  0  0  0  0  0  0  0  0  0
   55.7670   26.3120   46.2100 C   0  0  0  0  0  0  0  0  0  0  0  0
   54.3950   26.3390   45.9900 O   0  0  0  0  0  0  0  0  0  0  0  0
   59.4450   29.5860   44.9910 C   0  0  0  0  0  0  0  0  0  0  0  0
   60.6270   29.8180   45.7010 C   0  0  0  0  0  0  0  0  0  0  0  0
   63.4535   32.2454   49.4934 H   0  0  0  0  0  0  0  0  0  0  0  0
   64.5334   31.5144   48.2580 H   0  0  0  0  0  0  0  0  0  0  0  0
   64.2388   33.2864   48.2580 H   0  0  0  0  0  0  0  0  0  0  0  0
   59.4387   32.0076   48.0430 H   0  0  0  0  0  0  0  0  0  0  0  0
   57.3294   31.5918   46.7778 H   0  0  0  0  0  0  0  0  0  0  0  0
   58.5749   28.2230   45.8049 H   0  0  0  0  0  0  0  0  0  0  0  0
   58.1769   24.2459   47.4761 H   0  0  0  0  0  0  0  0  0  0  0  0
   55.7196   24.3275   47.0762 H   0  0  0  0  0  0  0  0  0  0  0  0
   59.4508   28.9119   44.1218 H   0  0  0  0  0  0  0  0  0  0  0  0
   61.5621   29.3369   45.3784 H   0  0  0  0  0  0  0  0  0  0  0  0
  1  2  1  0
  2  3  2  0
  2  4  1  0
  4  5  1  0
  5  6  2  0
  6  7  1  0
  7  8  2  0
  8  9  1  0
  9 10  2  0
  9 11  2  0
  9 12  1  0
 12 13  1  0
 13 14  2  0
 14 15  1  0
 15 16  1  0
 16 17  2  0
 16 18  1  0
 15 19  2  0
 19 20  1  0
 20 21  2  0
 21 22  1  0
  8 23  1  0
 23 24  2  0
 24  5  1  0
 21 13  1  0
  1 25  1  0
  1 26  1  0
  1 27  1  0
  6 28  1  0
  7 29  1  0
 14 30  1  0
 19 31  1  0
 20 32  1  0
 23 33  1  0
 24 34  1  0
M  CHG  5   4  -1  12  -1  16   1  18  -1  22  -1
M  END
>  <UniqueID>  (64) 
58

>  <SMILES>  (64) 
CC(=O)[N-]c1ccc(S(=O)(=O)[N-]c2cc([N+](=O)[O-])ccc2[O-])cc1

>  <Energy>  (64) 
42.21804966118287

>  <Genealogy>  (64) 
CC(=O)[N-]c1ccc(S(=O)(=O)[N-]c2cc([N+](=O)[O-])ccc2[O-])cc1 (protonated)
CC(=O)[N-]c1ccc(S(=O)(=O)[N-]c2cc([N+](=O)[O-])ccc2[O-])cc1 (3D coordinates assigned)
CC(=O)[N-]c1ccc(S(=O)(=O)[N-]c2cc([N+](=O)[O-])ccc2[O-])cc1 (optimized conformer: 42.21804966118287 kcal/mol)

>  <smiles>  (64) 
CC(=O)Nc1ccc(S(=O)(=O)Nc2cc([N+](=O)[O-])ccc2O)cc1

>  <score_type>  (64) 
oracle

>  <origin>  (64) 
adg

>  <m_score__min__energy>  (64) 
-14.19

>  <m_primary>  (64) 
energy

$$$$
64:0
     RDKit          3D

 23 23  0  0  0  0  0  0  0  0999 V2000
   54.7540   27.4610   46.3540 H   0  0  0  0  0  0  0  0  0  0  0  0
   55.1840   26.5880   46.1580 O   0  0  0  0  0  0  0  0  0  0  0  0
   56.5540   26.8420   46.0020 C   0  0  0  0  0  0  0  0  0  0  0  0
   57.0239   25.9953   45.4801 H   0  0  0  0  0  0  0  0  0  0  0  0
   57.0115   26.9708   46.9940 H   0  0  0  0  0  0  0  0  0  0  0  0
   56.7580   28.0920   45.2020 C   0  0  0  0  0  0  0  0  0  0  0  0
   55.7790   29.0320   45.1540 N   0  0  0  0  0  0  0  0  0  0  0  0
   55.9400   30.1930   44.4660 C   0  0  0  0  0  0  0  0  0  0  0  0
   55.1296   30.9362   44.4364 H   0  0  0  0  0  0  0  0  0  0  0  0
   57.1520   30.4380   43.7910 C   0  0  0  0  0  0  0  0  0  0  0  0
   57.3670   31.5320   43.1120 N   0  0  0  0  0  0  0  0  0  0  0  0
   58.1170   32.7110   43.5510 C   0  0  0  0  0  0  0  0  0  0  0  0
   58.2078   33.4143   42.7101 H   0  0  0  0  0  0  0  0  0  0  0  0
   59.1126   32.3891   43.8904 H   0  0  0  0  0  0  0  0  0  0  0  0
   57.4170   33.3950   44.6920 C   0  0  0  0  0  0  0  0  0  0  0  0
   56.3596   33.6795   44.5873 H   0  0  0  0  0  0  0  0  0  0  0  0
   58.0610   33.6620   45.8310 C   0  0  0  0  0  0  0  0  0  0  0  0
   57.5340   34.1631   46.6563 H   0  0  0  0  0  0  0  0  0  0  0  0
   59.1184   33.3808   45.9439 H   0  0  0  0  0  0  0  0  0  0  0  0
   58.1360   29.4950   43.8520 N   0  0  0  0  0  0  0  0  0  0  0  0
   59.0450   29.6590   43.3630 H   0  0  0  0  0  0  0  0  0  0  0  0
   57.9680   28.3360   44.5440 C   0  0  0  0  0  0  0  0  0  0  0  0
   58.7794   27.5945   44.5859 H   0  0  0  0  0  0  0  0  0  0  0  0
  1  2  1  0
  2  3  1  0
  3  4  1  0
  3  5  1  0
  3  6  1  0
  6  7  1  0
  7  8  2  0
  8  9  1  0
  8 10  1  0
 10 11  2  0
 11 12  1  0
 12 13  1  0
 12 14  1  0
 12 15  1  0
 15 16  1  0
 15 17  2  0
 17 18  1  0
 17 19  1  0
 10 20  1  0
 20 21  1  0
 20 22  1  0
 22 23  1  0
 22  6  2  0
M  END
>  <UniqueID>  (65) 
59

>  <SMILES>  (65) 
C=CC/N=c1\cnc(CO)c[nH]1

>  <Energy>  (65) 
20.518168892679565

>  <Genealogy>  (65) 
C=CC/N=c1\cnc(CO)c[nH]1 (cis-trans isomerization)
C=CC/N=c1\cnc(CO)c[nH]1 (3D coordinates assigned)
C=CC/N=c1\cnc(CO)c[nH]1 (optimized conformer: 20.518168892679565 kcal/mol)

>  <smiles>  (65) 
C=CCN=c1cnc(CO)c[nH]1

>  <score_type>  (65) 
oracle

>  <origin>  (65) 
adg

>  <m_score__min__energy>  (65) 
-5.5099999999999998

>  <m_primary>  (65) 
energy

$$$$
65:0
     RDKit          3D

 37 39  0  0  0  0  0  0  0  0999 V2000
   58.2157   30.5072   46.8635 H   0  0  0  0  0  0  0  0  0  0  0  0
   58.3330   31.3370   46.1510 C   0  0  0  0  0  0  0  0  0  0  0  0
   58.9720   32.4430   46.5910 C   0  0  0  0  0  0  0  0  0  0  0  0
   60.4510   32.5220   46.8110 C   0  0  0  0  0  0  0  0  0  0  0  0
   61.2050   31.4250   47.2740 C   0  0  0  0  0  0  0  0  0  0  0  0
   60.7032   30.4719   47.4974 H   0  0  0  0  0  0  0  0  0  0  0  0
   62.5870   31.5410   47.4510 C   0  0  0  0  0  0  0  0  0  0  0  0
   63.1722   30.6715   47.7850 H   0  0  0  0  0  0  0  0  0  0  0  0
   63.2260   32.7570   47.2050 C   0  0  0  0  0  0  0  0  0  0  0  0
   64.3171   32.8372   47.3196 H   0  0  0  0  0  0  0  0  0  0  0  0
   62.4830   33.8710   46.8140 C   0  0  0  0  0  0  0  0  0  0  0  0
   62.9874   34.8320   46.6353 H   0  0  0  0  0  0  0  0  0  0  0  0
   61.0920   33.7680   46.6480 C   0  0  0  0  0  0  0  0  0  0  0  0
   60.2720   34.9860   46.3200 C   0  0  0  0  0  0  0  0  0  0  0  0
   60.0436   34.9971   45.2440 H   0  0  0  0  0  0  0  0  0  0  0  0
   60.8367   35.8933   46.5806 H   0  0  0  0  0  0  0  0  0  0  0  0
   58.9660   34.9440   47.1210 C   0  0  0  0  0  0  0  0  0  0  0  0
   58.3751   35.8425   46.8894 H   0  0  0  0  0  0  0  0  0  0  0  0
   59.2174   34.9072   48.1912 H   0  0  0  0  0  0  0  0  0  0  0  0
   58.1360   33.6970   46.7760 C   0  0  0  0  0  0  0  0  0  0  0  0
   57.5885   33.8910   45.8419 H   0  0  0  0  0  0  0  0  0  0  0  0
   57.4616   33.5130   47.6253 H   0  0  0  0  0  0  0  0  0  0  0  0
   57.7770   31.1460   44.7920 C   0  0  0  0  0  0  0  0  0  0  0  0
   58.0630   32.0710   43.7720 C   0  0  0  0  0  0  0  0  0  0  0  0
   58.7236   32.9260   43.9783 H   0  0  0  0  0  0  0  0  0  0  0  0
   57.5130   31.9100   42.4990 C   0  0  0  0  0  0  0  0  0  0  0  0
   57.7539   32.6280   41.7013 H   0  0  0  0  0  0  0  0  0  0  0  0
   56.6580   30.8390   42.2380 C   0  0  0  0  0  0  0  0  0  0  0  0
   56.2301   30.7109   41.2328 H   0  0  0  0  0  0  0  0  0  0  0  0
   56.3440   29.9290   43.2500 C   0  0  0  0  0  0  0  0  0  0  0  0
   55.6634   29.0908   43.0395 H   0  0  0  0  0  0  0  0  0  0  0  0
   56.8940   30.0780   44.5400 C   0  0  0  0  0  0  0  0  0  0  0  0
   56.5960   29.1830   45.5810 O   0  0  0  0  0  0  0  0  0  0  0  0
   57.4040   28.0680   45.9440 C   0  0  0  0  0  0  0  0  0  0  0  0
   57.4569   27.9950   47.0403 H   0  0  0  0  0  0  0  0  0  0  0  0
   56.9623   27.1468   45.5361 H   0  0  0  0  0  0  0  0  0  0  0  0
   58.4169   28.2009   45.5361 H   0  0  0  0  0  0  0  0  0  0  0  0
  1  2  1  0
  2  3  2  0
  3  4  1  0
  4  5  2  0
  5  6  1  0
  5  7  1  0
  7  8  1  0
  7  9  2  0
  9 10  1  0
  9 11  1  0
 11 12  1  0
 11 13  2  0
 13 14  1  0
 14 15  1  0
 14 16  1  0
 14 17  1  0
 17 18  1  0
 17 19  1  0
 17 20  1  0
 20 21  1  0
 20 22  1  0
  2 23  1  0
 23 24  2  0
 24 25  1  0
 24 26  1  0
 26 27  1  0
 26 28  2  0
 28 29  1  0
 28 30  1  0
 30 31  1  0
 30 32  2  0
 32 33  1  0
 33 34  1  0
 34 35  1  0
 34 36  1  0
 34 37  1  0
 20  3  1  0
 32 23  1  0
 13  4  1  0
M  END
>  <UniqueID>  (66) 
60

>  <SMILES>  (66) 
COc1ccccc1/C=C1/CCCc2ccccc21

>  <Energy>  (66) 
51.52919097938945

>  <Genealogy>  (66) 
COc1ccccc1/C=C1/CCCc2ccccc21 (cis-trans isomerization)
COc1ccccc1/C=C1/CCCc2ccccc21 (3D coordinates assigned)
COc1ccccc1/C=C1/CCCc2ccccc21 (nonaromatic ring conformer: 51.52919097938945 kcal/mol)

>  <smiles>  (66) 
COc1ccccc1C=C1CCCc2ccccc21

>  <score_type>  (66) 
oracle

>  <origin>  (66) 
adg

>  <m_score__min__energy>  (66) 
-7.7699999999999996

>  <m_primary>  (66) 
energy

$$$$
66:0
     RDKit          3D

 31 32  0  0  0  0  0  0  0  0999 V2000
   55.3700   29.7390   44.1090 C   0  0  0  0  0  0  0  0  0  0  0  0
   55.7690   28.6930   44.9370 O   0  0  0  0  0  0  0  0  0  0  0  0
   57.0580   28.1670   45.0230 C   0  0  0  0  0  0  0  0  0  0  0  0
   58.1640   28.8260   44.5510 C   0  0  0  0  0  0  0  0  0  0  0  0
   59.4220   28.2380   44.6720 C   0  0  0  0  0  0  0  0  0  0  0  0
   59.5440   26.9910   45.2660 C   0  0  0  0  0  0  0  0  0  0  0  0
   58.4300   26.3300   45.7400 C   0  0  0  0  0  0  0  0  0  0  0  0
   58.5010   24.9870   46.3880 C   0  0  0  0  0  0  0  0  0  0  0  0
   58.0390   23.9110   45.4730 C   0  0  0  0  0  0  0  0  0  0  0  0
   56.7490   23.9710   44.9510 C   0  0  0  0  0  0  0  0  0  0  0  0
   56.2700   23.0290   44.1170 N   0  0  0  0  0  0  0  0  0  0  0  0
   57.0750   22.0080   43.7900 C   0  0  0  0  0  0  0  0  0  0  0  0
   56.6800   21.0790   43.0010 N   0  0  0  0  0  0  0  0  0  0  0  0
   58.3320   21.9110   44.2740 N   0  0  0  0  0  0  0  0  0  0  0  0
   58.8240   22.8620   45.1190 C   0  0  0  0  0  0  0  0  0  0  0  0
   60.0280   22.7550   45.5730 N   0  0  0  0  0  0  0  0  0  0  0  0
   57.1740   26.9270   45.6150 C   0  0  0  0  0  0  0  0  0  0  0  0
   55.0451   30.5906   44.7248 H   0  0  0  0  0  0  0  0  0  0  0  0
   56.2140   30.0464   43.4741 H   0  0  0  0  0  0  0  0  0  0  0  0
   54.5357   29.4062   43.4741 H   0  0  0  0  0  0  0  0  0  0  0  0
   58.0590   29.8141   44.0791 H   0  0  0  0  0  0  0  0  0  0  0  0
   60.3144   28.7611   44.2978 H   0  0  0  0  0  0  0  0  0  0  0  0
   60.5363   26.5256   45.3599 H   0  0  0  0  0  0  0  0  0  0  0  0
   59.5428   24.7856   46.6780 H   0  0  0  0  0  0  0  0  0  0  0  0
   57.8417   24.9954   47.2685 H   0  0  0  0  0  0  0  0  0  0  0  0
   56.1009   24.8151   45.2291 H   0  0  0  0  0  0  0  0  0  0  0  0
   55.3060   23.0550   43.7140 H   0  0  0  0  0  0  0  0  0  0  0  0
   57.0130   20.0970   43.0020 H   0  0  0  0  0  0  0  0  0  0  0  0
   58.9320   21.1000   43.9980 H   0  0  0  0  0  0  0  0  0  0  0  0
   60.7620   22.5110   44.8730 H   0  0  0  0  0  0  0  0  0  0  0  0
   56.2783   26.4089   45.9882 H   0  0  0  0  0  0  0  0  0  0  0  0
  1  2  1  0
  2  3  1  0
  3  4  2  0
  4  5  1  0
  5  6  2  0
  6  7  1  0
  7  8  1  0
  8  9  1  0
  9 10  2  0
 10 11  1  0
 11 12  1  0
 12 13  2  3
 12 14  1  0
 14 15  1  0
 15 16  2  3
  7 17  2  0
 17  3  1  0
 15  9  1  0
  1 18  1  0
  1 19  1  0
  1 20  1  0
  4 21  1  0
  5 22  1  0
  6 23  1  0
  8 24  1  0
  8 25  1  0
 10 26  1  0
 11 27  1  0
 13 28  1  0
 14 29  1  0
 16 30  1  0
 17 31  1  0
M  END
>  <smiles>  (67) 
COc1cccc(Cc2c[nH]c(=N)[nH]c2=N)c1

>  <score_type>  (67) 
oracle

>  <origin>  (67) 
adg

>  <m_score__min__energy>  (67) 
-6.0700000000000003

>  <m_primary>  (67) 
energy

$$$$
67:0
     RDKit          3D

 29 30  0  0  0  0  0  0  0  0999 V2000
   57.4300   26.3730   45.9620 O   0  0  0  0  0  0  0  0  0  0  0  0
   56.5190   27.2360   45.8440 C   0  0  0  0  0  0  0  0  0  0  0  0
   55.1970   26.8350   46.0030 O   0  0  0  0  0  0  0  0  0  0  0  0
   56.8420   28.6530   45.5400 C   0  0  0  0  0  0  0  0  0  0  0  0
   58.0460   29.2050   46.0180 C   0  0  0  0  0  0  0  0  0  0  0  0
   58.3900   30.5440   45.7540 C   0  0  0  0  0  0  0  0  0  0  0  0
   59.6630   31.1150   46.2640 C   0  0  0  0  0  0  0  0  0  0  0  0
   60.7780   30.4260   46.7280 C   0  0  0  0  0  0  0  0  0  0  0  0
   61.7100   31.3180   47.1070 N   0  0  0  0  0  0  0  0  0  0  0  0
   61.2420   32.5360   46.8980 N   0  0  0  0  0  0  0  0  0  0  0  0
   61.9540   33.7640   47.2470 C   0  0  0  0  0  0  0  0  0  0  0  0
   63.3450   33.7810   46.6120 C   0  0  0  0  0  0  0  0  0  0  0  0
   64.0090   32.5680   46.8470 O   0  0  0  0  0  0  0  0  0  0  0  0
   59.9970   32.4560   46.3920 C   0  0  0  0  0  0  0  0  0  0  0  0
   57.5080   31.3330   44.9980 C   0  0  0  0  0  0  0  0  0  0  0  0
   56.3130   30.7980   44.5180 C   0  0  0  0  0  0  0  0  0  0  0  0
   55.9740   29.4690   44.7820 C   0  0  0  0  0  0  0  0  0  0  0  0
   54.7720   28.9770   44.2820 O   0  0  0  0  0  0  0  0  0  0  0  0
   58.7303   28.5782   46.6086 H   0  0  0  0  0  0  0  0  0  0  0  0
   60.8807   29.3319   46.7769 H   0  0  0  0  0  0  0  0  0  0  0  0
   62.6480   31.0960   47.5080 H   0  0  0  0  0  0  0  0  0  0  0  0
   61.3806   34.6296   46.8838 H   0  0  0  0  0  0  0  0  0  0  0  0
   62.0637   33.8107   48.3405 H   0  0  0  0  0  0  0  0  0  0  0  0
   63.2456   33.9346   45.5273 H   0  0  0  0  0  0  0  0  0  0  0  0
   63.9296   34.5982   47.0596 H   0  0  0  0  0  0  0  0  0  0  0  0
   64.9770   32.7790   46.9120 H   0  0  0  0  0  0  0  0  0  0  0  0
   59.3542   33.3080   46.1255 H   0  0  0  0  0  0  0  0  0  0  0  0
   57.7618   32.3815   44.7827 H   0  0  0  0  0  0  0  0  0  0  0  0
   55.6319   31.4277   43.9267 H   0  0  0  0  0  0  0  0  0  0  0  0
  1  2  2  0
  2  3  1  0
  2  4  1  0
  4  5  2  0
  5  6  1  0
  6  7  1  0
  7  8  1  0
  8  9  2  0
  9 10  1  0
 10 11  1  0
 11 12  1  0
 12 13  1  0
 10 14  1  0
  6 15  2  0
 15 16  1  0
 16 17  2  0
 17 18  1  0
 17  4  1  0
 14  7  2  0
  5 19  1  0
  8 20  1  0
  9 21  1  0
 11 22  1  0
 11 23  1  0
 12 24  1  0
 12 25  1  0
 13 26  1  0
 14 27  1  0
 15 28  1  0
 16 29  1  0
M  CHG  3   3  -1   9   1  18  -1
M  END
>  <UniqueID>  (68) 
61

>  <SMILES>  (68) 
O=C([O-])c1cc(-c2c[nH+]n(CCO)c2)ccc1[O-]

>  <Energy>  (68) 
61.0602080408995

>  <Genealogy>  (68) 
O=C([O-])c1cc(-c2c[nH+]n(CCO)c2)ccc1[O-] (protonated)
O=C([O-])c1cc(-c2c[nH+]n(CCO)c2)ccc1[O-] (3D coordinates assigned)
O=C([O-])c1cc(-c2c[nH+]n(CCO)c2)ccc1[O-] (optimized conformer: 61.0602080408995 kcal/mol)

>  <smiles>  (68) 
O=C(O)c1cc(-c2cnn(CCO)c2)ccc1O

>  <score_type>  (68) 
oracle

>  <origin>  (68) 
adg

>  <m_score__min__energy>  (68) 
-10.859999999999999

>  <m_primary>  (68) 
energy

$$$$
68:0
     RDKit          3D

 42 43  0  0  0  0  0  0  0  0999 V2000
   56.6230   27.0760   45.7080 C   0  0  0  0  0  0  0  0  0  0  0  0
   55.9420   28.2410   45.2570 O   0  0  0  0  0  0  0  0  0  0  0  0
   56.5430   29.3170   44.5850 C   0  0  0  0  0  0  0  0  0  0  0  0
   56.0220   29.7840   43.3590 C   0  0  0  0  0  0  0  0  0  0  0  0
   56.6380   30.8360   42.6770 C   0  0  0  0  0  0  0  0  0  0  0  0
   57.7810   31.4350   43.2030 C   0  0  0  0  0  0  0  0  0  0  0  0
   58.3080   30.9880   44.4140 C   0  0  0  0  0  0  0  0  0  0  0  0
   57.7010   29.9420   45.1240 C   0  0  0  0  0  0  0  0  0  0  0  0
   58.3190   29.5700   46.3330 O   0  0  0  0  0  0  0  0  0  0  0  0
   59.7190   29.4570   46.5920 C   0  0  0  0  0  0  0  0  0  0  0  0
   60.1800   30.4550   47.6760 C   0  0  0  0  0  0  0  0  0  0  0  0
   59.0490   31.0430   48.4450 N   0  0  1  0  0  0  0  0  0  0  0  0
   58.9540   30.4220   49.7800 C   0  0  0  0  0  0  0  0  0  0  0  0
   59.0930   32.5290   48.5290 C   0  0  0  0  0  0  0  0  0  0  0  0
   58.7020   33.2460   47.2480 C   0  0  0  0  0  0  0  0  0  0  0  0
   59.6640   33.9310   46.4860 C   0  0  0  0  0  0  0  0  0  0  0  0
   59.2990   34.5850   45.3060 C   0  0  0  0  0  0  0  0  0  0  0  0
   57.9730   34.5480   44.8660 C   0  0  0  0  0  0  0  0  0  0  0  0
   57.0120   33.8530   45.6030 C   0  0  0  0  0  0  0  0  0  0  0  0
   57.3730   33.1990   46.7850 C   0  0  0  0  0  0  0  0  0  0  0  0
   56.6326   27.0596   46.8078 H   0  0  0  0  0  0  0  0  0  0  0  0
   56.1061   26.1806   45.3324 H   0  0  0  0  0  0  0  0  0  0  0  0
   57.6568   27.0871   45.3324 H   0  0  0  0  0  0  0  0  0  0  0  0
   55.1215   29.3146   42.9363 H   0  0  0  0  0  0  0  0  0  0  0  0
   56.2204   31.1920   41.7237 H   0  0  0  0  0  0  0  0  0  0  0  0
   58.2675   32.2605   42.6628 H   0  0  0  0  0  0  0  0  0  0  0  0
   59.2138   31.4631   44.8187 H   0  0  0  0  0  0  0  0  0  0  0  0
   59.9374   28.4341   46.9327 H   0  0  0  0  0  0  0  0  0  0  0  0
   60.2600   29.6858   45.6620 H   0  0  0  0  0  0  0  0  0  0  0  0
   60.8443   29.9286   48.3772 H   0  0  0  0  0  0  0  0  0  0  0  0
   60.6946   31.2817   47.1643 H   0  0  0  0  0  0  0  0  0  0  0  0
   58.1560   30.7960   47.9560 H   0  0  0  0  0  0  0  0  0  0  0  0
   59.0723   31.1953   50.5533 H   0  0  0  0  0  0  0  0  0  0  0  0
   57.9716   29.9397   49.8910 H   0  0  0  0  0  0  0  0  0  0  0  0
   59.7473   29.6681   49.8910 H   0  0  0  0  0  0  0  0  0  0  0  0
   58.4042   32.8483   49.3250 H   0  0  0  0  0  0  0  0  0  0  0  0
   60.1400   32.7993   48.7308 H   0  0  0  0  0  0  0  0  0  0  0  0
   60.7116   33.9525   46.8207 H   0  0  0  0  0  0  0  0  0  0  0  0
   60.0563   35.1295   44.7229 H   0  0  0  0  0  0  0  0  0  0  0  0
   57.6864   35.0664   43.9391 H   0  0  0  0  0  0  0  0  0  0  0  0
   55.9696   33.8199   45.2533 H   0  0  0  0  0  0  0  0  0  0  0  0
   56.6142   32.6445   47.3566 H   0  0  0  0  0  0  0  0  0  0  0  0
  1  2  1  0
  2  3  1  0
  3  4  2  0
  4  5  1  0
  5  6  2  0
  6  7  1  0
  7  8  2  0
  8  9  1  0
  9 10  1  0
 10 11  1  0
 11 12  1  0
 12 13  1  0
 12 14  1  0
 14 15  1  0
 15 16  2  0
 16 17  1  0
 17 18  2  0
 18 19  1  0
 19 20  2  0
  8  3  1  0
 20 15  1  0
  1 21  1  0
  1 22  1  0
  1 23  1  0
  4 24  1  0
  5 25  1  0
  6 26  1  0
  7 27  1  0
 10 28  1  0
 10 29  1  0
 11 30  1  0
 11 31  1  0
 12 32  1  6
 13 33  1  0
 13 34  1  0
 13 35  1  0
 14 36  1  0
 14 37  1  0
 16 38  1  0
 17 39  1  0
 18 40  1  0
 19 41  1  0
 20 42  1  0
M  CHG  1  12   1
M  END
>  <UniqueID>  (69) 
62

>  <SMILES>  (69) 
COc1ccccc1OCC[N@@H+](C)Cc1ccccc1

>  <Energy>  (69) 
49.611218155932285

>  <Genealogy>  (69) 
COc1ccccc1OCC[NH+](C)Cc1ccccc1 (protonated)
COc1ccccc1OCC[N@@H+](C)Cc1ccccc1 (chirality)
COc1ccccc1OCC[N@@H+](C)Cc1ccccc1 (3D coordinates assigned)
COc1ccccc1OCC[N@@H+](C)Cc1ccccc1 (optimized conformer: 49.611218155932285 kcal/mol)

>  <smiles>  (69) 
COc1ccccc1OCCN(C)Cc1ccccc1

>  <score_type>  (69) 
oracle

>  <origin>  (69) 
adg

>  <m_score__min__energy>  (69) 
-5.8700000000000001

>  <m_primary>  (69) 
energy

$$$$
69:0
     RDKit          3D

 51 54  0  0  1  0  0  0  0  0999 V2000
   56.3200   29.7340   42.8720 C   0  0  0  0  0  0  0  0  0  0  0  0
   57.0180   30.3110   44.0780 C   0  0  0  0  0  0  0  0  0  0  0  0
   57.0460   31.6280   44.2990 N   0  0  0  0  0  0  0  0  0  0  0  0
   57.6800   32.1210   45.3860 C   0  0  0  0  0  0  0  0  0  0  0  0
   57.6770   33.3710   45.5380 N   0  0  0  0  0  0  0  0  0  0  0  0
   58.5250   34.2740   44.8470 C   0  0  0  0  0  0  0  0  0  0  0  0
   59.5830   34.9280   45.7110 C   0  0  0  0  0  0  0  0  0  0  0  0
   59.4320   34.5070   47.1570 C   0  0  0  0  0  0  0  0  0  0  0  0
   60.5920   33.9820   47.7660 N   0  0  0  0  0  0  0  0  0  0  0  0
   60.5850   33.8040   49.1700 C   0  0  0  0  0  0  0  0  0  0  0  0
   62.0280   33.9380   49.6750 C   0  0  0  0  0  0  0  0  0  0  0  0
   62.9840   33.0870   48.8840 C   0  0  0  0  0  0  0  0  0  0  0  0
   63.5780   33.9220   47.8730 N   0  0  0  0  0  0  0  0  0  0  0  0
   62.7350   33.8550   46.6930 C   0  0  0  0  0  0  0  0  0  0  0  0
   61.4470   33.1650   46.9970 C   0  0  0  0  0  0  0  0  0  0  0  0
   58.2990   31.2770   46.2700 C   0  0  0  0  0  0  0  0  0  0  0  0
   58.9690   31.4890   47.3790 N   0  0  0  0  0  0  0  0  0  0  0  0
   59.3540   30.2530   47.8270 C   0  0  0  0  0  0  0  0  0  0  0  0
   60.0900   29.8540   48.9500 C   0  0  0  0  0  0  0  0  0  0  0  0
   60.3620   28.5370   49.2040 C   0  0  0  0  0  0  0  0  0  0  0  0
   61.2800   27.9930   50.5950 Cl  0  0  0  0  0  0  0  0  0  0  0  0
   59.8820   27.6090   48.3050 C   0  0  0  0  0  0  0  0  0  0  0  0
   59.1550   27.9300   47.1860 C   0  0  0  0  0  0  0  0  0  0  0  0
   58.9080   29.2760   46.9790 C   0  0  0  0  0  0  0  0  0  0  0  0
   58.2310   29.9270   45.9790 C   0  0  0  0  0  0  0  0  0  0  0  0
   57.6040   29.4270   44.9040 N   0  0  0  0  0  0  0  0  0  0  0  0
   55.5111   29.0653   43.2015 H   0  0  0  0  0  0  0  0  0  0  0  0
   55.8977   30.5502   42.2674 H   0  0  0  0  0  0  0  0  0  0  0  0
   57.0421   29.1657   42.2674 H   0  0  0  0  0  0  0  0  0  0  0  0
   59.0320   33.7217   44.0421 H   0  0  0  0  0  0  0  0  0  0  0  0
   57.8814   35.0841   44.4735 H   0  0  0  0  0  0  0  0  0  0  0  0
   60.5783   34.6291   45.3505 H   0  0  0  0  0  0  0  0  0  0  0  0
   59.4646   36.0198   45.6475 H   0  0  0  0  0  0  0  0  0  0  0  0
   59.1166   35.3885   47.7345 H   0  0  0  0  0  0  0  0  0  0  0  0
   58.6973   33.6883   47.1557 H   0  0  0  0  0  0  0  0  0  0  0  0
   59.9527   34.5717   49.6400 H   0  0  0  0  0  0  0  0  0  0  0  0
   60.1821   32.8131   49.4264 H   0  0  0  0  0  0  0  0  0  0  0  0
   62.3370   34.9904   49.5916 H   0  0  0  0  0  0  0  0  0  0  0  0
   62.0549   33.5967   50.7204 H   0  0  0  0  0  0  0  0  0  0  0  0
   63.7657   32.6867   49.5464 H   0  0  0  0  0  0  0  0  0  0  0  0
   62.4553   32.2398   48.4228 H   0  0  0  0  0  0  0  0  0  0  0  0
   63.6320   34.9140   48.1950 H   0  0  0  0  0  0  0  0  0  0  0  0
   62.5228   34.8762   46.3436 H   0  0  0  0  0  0  0  0  0  0  0  0
   63.2640   33.2849   45.9151 H   0  0  0  0  0  0  0  0  0  0  0  0
   60.9449   32.9124   46.0514 H   0  0  0  0  0  0  0  0  0  0  0  0
   61.6702   32.2570   47.5765 H   0  0  0  0  0  0  0  0  0  0  0  0
   59.2450   32.3060   47.9470 H   0  0  0  0  0  0  0  0  0  0  0  0
   60.4596   30.6205   49.6471 H   0  0  0  0  0  0  0  0  0  0  0  0
   60.0945   26.5467   48.4959 H   0  0  0  0  0  0  0  0  0  0  0  0
   58.7886   27.1596   46.4916 H   0  0  0  0  0  0  0  0  0  0  0  0
   57.5560   28.3950   44.6890 H   0  0  0  0  0  0  0  0  0  0  0  0
  1  2  1  0
  2  3  2  0
  3  4  1  0
  4  5  2  0
  5  6  1  0
  6  7  1  0
  7  8  1  0
  8  9  1  0
  9 10  1  0
 10 11  1  0
 11 12  1  0
 12 13  1  0
 13 14  1  0
 14 15  1  0
  4 16  1  0
 16 17  1  0
 17 18  1  0
 18 19  2  0
 19 20  1  0
 20 21  1  0
 20 22  2  0
 22 23  1  0
 23 24  2  0
 24 25  1  0
 25 26  1  0
 26  2  1  0
 15  9  1  0
 25 16  2  0
 24 18  1  0
  1 27  1  0
  1 28  1  0
  1 29  1  0
  6 30  1  0
  6 31  1  0
  7 32  1  0
  7 33  1  0
  8 34  1  0
  8 35  1  0
 10 36  1  0
 10 37  1  0
 11 38  1  0
 11 39  1  0
 12 40  1  0
 12 41  1  0
 13 42  1  0
 14 43  1  0
 14 44  1  0
 15 45  1  0
 15 46  1  0
 17 47  1  0
 19 48  1  0
 22 49  1  0
 23 50  1  0
 26 51  1  0
M  END
>  <smiles>  (70) 
Cc1nc(=NCCCN2CCCNCC2)c2[nH]c3cc(Cl)ccc3c2[nH]1

>  <score_type>  (70) 
oracle

>  <origin>  (70) 
adg

>  <m_score__min__energy>  (70) 
-6.0199999999999996

>  <m_primary>  (70) 
energy

$$$$
70:0
     RDKit          3D

 35 36  0  0  0  0  0  0  0  0999 V2000
   54.4070   23.1980   45.2750 C   0  0  0  0  0  0  0  0  0  0  0  0
   55.3650   24.3480   45.3620 C   0  0  0  0  0  0  0  0  0  0  0  0
   55.1510   25.3240   46.2860 N   0  0  0  0  0  0  0  0  0  0  0  0
   55.9710   26.3700   46.3940 N   0  0  0  0  0  0  0  0  0  0  0  0
   57.0510   26.4920   45.5810 C   0  0  0  0  0  0  0  0  0  0  0  0
   58.1390   27.9080   45.7370 S   0  0  0  0  0  0  0  0  0  0  0  0
   57.4440   28.8050   44.3010 C   0  0  0  0  0  0  0  0  0  0  0  0
   56.3130   29.7020   44.7010 C   0  0  0  0  0  0  0  0  0  0  0  0
   55.1540   29.2200   44.8260 O   0  0  0  0  0  0  0  0  0  0  0  0
   56.5290   31.1060   44.8710 N   0  0  0  0  0  0  0  0  0  0  0  0
   57.5660   31.8590   44.1750 C   0  0  0  0  0  0  0  0  0  0  0  0
   58.1330   32.9150   45.0830 C   0  0  0  0  0  0  0  0  0  0  0  0
   57.9930   32.7910   46.4760 C   0  0  0  0  0  0  0  0  0  0  0  0
   58.5400   33.7570   47.3260 C   0  0  0  0  0  0  0  0  0  0  0  0
   59.2290   34.8500   46.7950 C   0  0  0  0  0  0  0  0  0  0  0  0
   59.3760   34.9770   45.4110 C   0  0  0  0  0  0  0  0  0  0  0  0
   58.8340   34.0120   44.5560 C   0  0  0  0  0  0  0  0  0  0  0  0
   57.3020   25.5370   44.6540 N   0  0  0  0  0  0  0  0  0  0  0  0
   56.4810   24.4630   44.5130 C   0  0  0  0  0  0  0  0  0  0  0  0
   56.7970   23.4360   43.4690 C   0  0  0  0  0  0  0  0  0  0  0  0
   54.1342   22.8705   46.2891 H   0  0  0  0  0  0  0  0  0  0  0  0
   53.5019   23.5147   44.7361 H   0  0  0  0  0  0  0  0  0  0  0  0
   54.8820   22.3650   44.7361 H   0  0  0  0  0  0  0  0  0  0  0  0
   58.2374   29.4144   43.8436 H   0  0  0  0  0  0  0  0  0  0  0  0
   57.0563   28.0622   43.5883 H   0  0  0  0  0  0  0  0  0  0  0  0
   58.3695   31.1735   43.8675 H   0  0  0  0  0  0  0  0  0  0  0  0
   57.1279   32.3422   43.2892 H   0  0  0  0  0  0  0  0  0  0  0  0
   57.4517   31.9317   46.8986 H   0  0  0  0  0  0  0  0  0  0  0  0
   58.4275   33.6561   48.4156 H   0  0  0  0  0  0  0  0  0  0  0  0
   59.6556   35.6103   47.4658 H   0  0  0  0  0  0  0  0  0  0  0  0
   59.9190   35.8376   44.9933 H   0  0  0  0  0  0  0  0  0  0  0  0
   58.9571   34.1125   43.4675 H   0  0  0  0  0  0  0  0  0  0  0  0
   57.0869   22.4939   43.9573 H   0  0  0  0  0  0  0  0  0  0  0  0
   55.9096   23.2659   42.8416 H   0  0  0  0  0  0  0  0  0  0  0  0
   57.6265   23.7942   42.8416 H   0  0  0  0  0  0  0  0  0  0  0  0
  1  2  1  0
  2  3  2  0
  3  4  1  0
  4  5  2  0
  5  6  1  0
  6  7  1  0
  7  8  1  0
  8  9  2  0
  8 10  1  0
 10 11  1  0
 11 12  1  0
 12 13  2  0
 13 14  1  0
 14 15  2  0
 15 16  1  0
 16 17  2  0
  5 18  1  0
 18 19  2  0
 19 20  1  0
 19  2  1  0
 17 12  1  0
  1 21  1  0
  1 22  1  0
  1 23  1  0
  7 24  1  0
  7 25  1  0
 11 26  1  0
 11 27  1  0
 13 28  1  0
 14 29  1  0
 15 30  1  0
 16 31  1  0
 17 32  1  0
 20 33  1  0
 20 34  1  0
 20 35  1  0
M  CHG  1  10  -1
M  END
>  <UniqueID>  (71) 
63

>  <SMILES>  (71) 
Cc1nnc(SCC(=O)[N-]Cc2ccccc2)nc1C

>  <Energy>  (71) 
28.58516941884563

>  <Genealogy>  (71) 
Cc1nnc(SCC(=O)[N-]Cc2ccccc2)nc1C (protonated)
Cc1nnc(SCC(=O)[N-]Cc2ccccc2)nc1C (3D coordinates assigned)
Cc1nnc(SCC(=O)[N-]Cc2ccccc2)nc1C (optimized conformer: 28.58516941884563 kcal/mol)

>  <smiles>  (71) 
Cc1nnc(SCC(=O)NCc2ccccc2)nc1C

>  <score_type>  (71) 
oracle

>  <origin>  (71) 
adg

>  <m_score__min__energy>  (71) 
-9.9600000000000009

>  <m_primary>  (71) 
energy

$$$$
71:0
     RDKit          3D

 45 46  0  0  0  0  0  0  0  0999 V2000
   57.7910   25.9600   43.2940 C   0  0  0  0  0  0  0  0  0  0  0  0
   57.9210   27.4560   43.0310 C   0  0  0  0  0  0  0  0  0  0  0  0
   57.8460   28.1980   44.3080 N   0  0  0  0  0  0  0  0  0  0  0  0
   57.3400   27.3560   45.4090 C   0  0  0  0  0  0  0  0  0  0  0  0
   58.2200   27.5050   46.6480 C   0  0  0  0  0  0  0  0  0  0  0  0
   56.8430   29.6240   44.1360 S   0  0  0  0  0  0  0  0  0  0  0  0
   56.5910   29.8840   42.6760 O   0  0  0  0  0  0  0  0  0  0  0  0
   55.5140   29.3970   44.8020 O   0  0  0  0  0  0  0  0  0  0  0  0
   57.6170   31.0450   44.8490 C   0  0  0  0  0  0  0  0  0  0  0  0
   57.7010   32.2440   44.1280 C   0  0  0  0  0  0  0  0  0  0  0  0
   58.2880   33.3750   44.7050 C   0  0  0  0  0  0  0  0  0  0  0  0
   58.7980   33.3250   46.0130 C   0  0  0  0  0  0  0  0  0  0  0  0
   59.4070   34.5240   46.6330 C   0  0  0  0  0  0  0  0  0  0  0  0
   59.9200   35.4170   45.9070 O   0  0  0  0  0  0  0  0  0  0  0  0
   59.4400   34.6620   48.0590 N   0  0  0  0  0  0  0  0  0  0  0  0
   60.0370   33.6780   48.9570 C   0  0  0  0  0  0  0  0  0  0  0  0
   61.3980   33.2830   48.4530 C   0  0  0  0  0  0  0  0  0  0  0  0
   61.6080   32.0300   47.8590 C   0  0  0  0  0  0  0  0  0  0  0  0
   62.8770   31.7000   47.3740 C   0  0  0  0  0  0  0  0  0  0  0  0
   63.9020   32.5920   47.4740 N   0  0  0  0  0  0  0  0  0  0  0  0
   63.7230   33.8170   48.0390 C   0  0  0  0  0  0  0  0  0  0  0  0
   62.4670   34.1880   48.5300 C   0  0  0  0  0  0  0  0  0  0  0  0
   58.7270   32.1120   46.7250 C   0  0  0  0  0  0  0  0  0  0  0  0
   58.1430   30.9830   46.1450 C   0  0  0  0  0  0  0  0  0  0  0  0
   57.7752   25.7784   44.3788 H   0  0  0  0  0  0  0  0  0  0  0  0
   56.8572   25.5888   42.8465 H   0  0  0  0  0  0  0  0  0  0  0  0
   58.6468   25.4333   42.8465 H   0  0  0  0  0  0  0  0  0  0  0  0
   58.8878   27.6590   42.5471 H   0  0  0  0  0  0  0  0  0  0  0  0
   57.1015   27.7815   42.3734 H   0  0  0  0  0  0  0  0  0  0  0  0
   56.3130   27.6628   45.6561 H   0  0  0  0  0  0  0  0  0  0  0  0
   57.3560   26.3043   45.0872 H   0  0  0  0  0  0  0  0  0  0  0  0
   57.6016   27.4003   47.5517 H   0  0  0  0  0  0  0  0  0  0  0  0
   58.9961   26.7255   46.6424 H   0  0  0  0  0  0  0  0  0  0  0  0
   58.6962   28.4966   46.6424 H   0  0  0  0  0  0  0  0  0  0  0  0
   57.3035   32.2958   43.1037 H   0  0  0  0  0  0  0  0  0  0  0  0
   58.3507   34.3107   44.1301 H   0  0  0  0  0  0  0  0  0  0  0  0
   60.1328   34.1131   49.9627 H   0  0  0  0  0  0  0  0  0  0  0  0
   59.3933   32.7869   48.9967 H   0  0  0  0  0  0  0  0  0  0  0  0
   60.7794   31.3114   47.7752 H   0  0  0  0  0  0  0  0  0  0  0  0
   63.0484   30.7173   46.9103 H   0  0  0  0  0  0  0  0  0  0  0  0
   64.8430   32.3290   47.1050 H   0  0  0  0  0  0  0  0  0  0  0  0
   64.5683   34.5173   48.1097 H   0  0  0  0  0  0  0  0  0  0  0  0
   62.3184   35.1834   48.9739 H   0  0  0  0  0  0  0  0  0  0  0  0
   59.1343   32.0530   47.7451 H   0  0  0  0  0  0  0  0  0  0  0  0
   58.0962   30.0402   46.7097 H   0  0  0  0  0  0  0  0  0  0  0  0
  1  2  1  0
  2  3  1  0
  3  4  1  0
  4  5  1  0
  3  6  1  0
  6  7  2  0
  6  8  2  0
  6  9  1  0
  9 10  2  0
 10 11  1  0
 11 12  2  0
 12 13  1  0
 13 14  2  0
 13 15  1  0
 15 16  1  0
 16 17  1  0
 17 18  2  0
 18 19  1  0
 19 20  2  0
 20 21  1  0
 21 22  2  0
 12 23  1  0
 23 24  2  0
 24  9  1  0
 22 17  1  0
  1 25  1  0
  1 26  1  0
  1 27  1  0
  2 28  1  0
  2 29  1  0
  4 30  1  0
  4 31  1  0
  5 32  1  0
  5 33  1  0
  5 34  1  0
 10 35  1  0
 11 36  1  0
 16 37  1  0
 16 38  1  0
 18 39  1  0
 19 40  1  0
 20 41  1  0
 21 42  1  0
 22 43  1  0
 23 44  1  0
 24 45  1  0
M  CHG  2  15  -1  20   1
M  END
>  <UniqueID>  (72) 
64

>  <SMILES>  (72) 
CCN(CC)S(=O)(=O)c1ccc(C(=O)[N-]Cc2cc[nH+]cc2)cc1

>  <Energy>  (72) 
40.73246864804389

>  <Genealogy>  (72) 
CCN(CC)S(=O)(=O)c1ccc(C(=O)[N-]Cc2cc[nH+]cc2)cc1 (protonated)
CCN(CC)S(=O)(=O)c1ccc(C(=O)[N-]Cc2cc[nH+]cc2)cc1 (3D coordinates assigned)
CCN(CC)S(=O)(=O)c1ccc(C(=O)[N-]Cc2cc[nH+]cc2)cc1 (optimized conformer: 40.73246864804389 kcal/mol)

>  <smiles>  (72) 
CCN(CC)S(=O)(=O)c1ccc(C(=O)NCc2ccncc2)cc1

>  <score_type>  (72) 
oracle

>  <origin>  (72) 
adg

>  <m_score__min__energy>  (72) 
-8.0199999999999996

>  <m_primary>  (72) 
energy

$$$$
72:0
     RDKit          3D

 40 42  0  0  0  0  0  0  0  0999 V2000
   56.9710   34.4680   44.9960 C   0  0  0  0  0  0  0  0  0  0  0  0
   56.7780   33.0780   45.2340 O   0  0  0  0  0  0  0  0  0  0  0  0
   57.8050   32.1790   45.5600 C   0  0  0  0  0  0  0  0  0  0  0  0
   58.7400   32.5630   46.5260 C   0  0  0  0  0  0  0  0  0  0  0  0
   59.7940   31.7060   46.8860 C   0  0  0  0  0  0  0  0  0  0  0  0
   60.7560   32.0580   47.8450 O   0  0  0  0  0  0  0  0  0  0  0  0
   61.3390   31.1480   48.7720 C   0  0  0  0  0  0  0  0  0  0  0  0
   59.8990   30.4540   46.2720 C   0  0  0  0  0  0  0  0  0  0  0  0
   58.9600   30.0390   45.3080 C   0  0  0  0  0  0  0  0  0  0  0  0
   59.0700   28.6910   44.6020 C   0  0  1  0  0  0  0  0  0  0  0  0
   60.4770   28.3130   44.3660 N   0  0  0  0  0  0  0  0  0  0  0  0
   61.1250   27.7930   45.5740 C   0  0  0  0  0  0  0  0  0  0  0  0
   60.4750   26.4750   45.9920 C   0  0  0  0  0  0  0  0  0  0  0  0
   58.9730   26.5800   46.0280 C   0  0  0  0  0  0  0  0  0  0  0  0
   58.2320   25.6010   46.7090 C   0  0  0  0  0  0  0  0  0  0  0  0
   56.8320   25.6420   46.7100 C   0  0  0  0  0  0  0  0  0  0  0  0
   56.0970   24.6740   47.3930 O   0  0  0  0  0  0  0  0  0  0  0  0
   56.1650   26.6590   46.0180 C   0  0  0  0  0  0  0  0  0  0  0  0
   54.7760   26.7080   46.0180 O   0  0  0  0  0  0  0  0  0  0  0  0
   56.8940   27.6290   45.3260 C   0  0  0  0  0  0  0  0  0  0  0  0
   58.2980   27.5950   45.3170 C   0  0  0  0  0  0  0  0  0  0  0  0
   57.9220   30.9160   44.9490 C   0  0  0  0  0  0  0  0  0  0  0  0
   57.0446   34.9978   45.9572 H   0  0  0  0  0  0  0  0  0  0  0  0
   57.8984   34.6167   44.4234 H   0  0  0  0  0  0  0  0  0  0  0  0
   56.1192   34.8637   44.4234 H   0  0  0  0  0  0  0  0  0  0  0  0
   58.6496   33.5469   47.0096 H   0  0  0  0  0  0  0  0  0  0  0  0
   61.1249   31.4822   49.7979 H   0  0  0  0  0  0  0  0  0  0  0  0
   60.9150   30.1449   48.6171 H   0  0  0  0  0  0  0  0  0  0  0  0
   62.4275   31.1139   48.6171 H   0  0  0  0  0  0  0  0  0  0  0  0
   60.7270   29.7836   46.5459 H   0  0  0  0  0  0  0  0  0  0  0  0
   58.5949   28.8106   43.6171 H   0  0  0  0  0  0  0  0  0  0  0  0
   61.0130   29.1490   44.0320 H   0  0  0  0  0  0  0  0  0  0  0  0
   62.1926   27.6237   45.3701 H   0  0  0  0  0  0  0  0  0  0  0  0
   61.0110   28.5248   46.3874 H   0  0  0  0  0  0  0  0  0  0  0  0
   60.7603   25.6932   45.2727 H   0  0  0  0  0  0  0  0  0  0  0  0
   60.8252   26.2266   47.0047 H   0  0  0  0  0  0  0  0  0  0  0  0
   58.7549   24.7957   47.2458 H   0  0  0  0  0  0  0  0  0  0  0  0
   55.1280   24.8250   47.6460 H   0  0  0  0  0  0  0  0  0  0  0  0
   56.3641   28.4260   44.7837 H   0  0  0  0  0  0  0  0  0  0  0  0
   57.1935   30.6124   44.1827 H   0  0  0  0  0  0  0  0  0  0  0  0
  1  2  1  0
  2  3  1  0
  3  4  2  0
  4  5  1  0
  5  6  1  0
  6  7  1  0
  5  8  2  0
  8  9  1  0
  9 10  1  0
 10 11  1  0
 11 12  1  0
 12 13  1  0
 13 14  1  0
 14 15  2  0
 15 16  1  0
 16 17  1  0
 16 18  2  0
 18 19  1  0
 18 20  1  0
 20 21  2  0
  9 22  2  0
 22  3  1  0
 21 10  1  0
 21 14  1  0
  1 23  1  0
  1 24  1  0
  1 25  1  0
  4 26  1  0
  7 27  1  0
  7 28  1  0
  7 29  1  0
  8 30  1  0
 10 31  1  6
 11 32  1  0
 12 33  1  0
 12 34  1  0
 13 35  1  0
 13 36  1  0
 15 37  1  0
 17 38  1  0
 20 39  1  0
 22 40  1  0
M  CHG  1  19  -1
M  END
>  <UniqueID>  (73) 
65

>  <SMILES>  (73) 
COc1cc(OC)cc([C@H]2NCCc3cc(O)c([O-])cc32)c1

>  <Energy>  (73) 
44.613800688960985

>  <Genealogy>  (73) 
COc1cc(OC)cc(C2NCCc3cc(O)c([O-])cc32)c1 (protonated)
COc1cc(OC)cc([C@H]2NCCc3cc(O)c([O-])cc32)c1 (chirality)
COc1cc(OC)cc([C@H]2NCCc3cc(O)c([O-])cc32)c1 (3D coordinates assigned)
COc1cc(OC)cc([C@H]2NCCc3cc(O)c([O-])cc32)c1 (nonaromatic ring conformer: 44.613800688960985 kcal/mol)

>  <smiles>  (73) 
COc1cc(OC)cc(C2NCCc3cc(O)c(O)cc32)c1

>  <score_type>  (73) 
oracle

>  <origin>  (73) 
adg

>  <m_score__min__energy>  (73) 
-10.74

>  <m_primary>  (73) 
energy

$$$$
73:0
     RDKit          3D

 42 44  0  0  1  0  0  0  0  0999 V2000
   59.4240   33.0960   49.4170 C   0  0  0  0  0  0  0  0  0  0  0  0
   58.4950   32.7940   48.3950 O   0  0  0  0  0  0  0  0  0  0  0  0
   58.6620   33.2700   47.1050 C   0  0  0  0  0  0  0  0  0  0  0  0
   59.1800   34.5460   46.8870 C   0  0  0  0  0  0  0  0  0  0  0  0
   59.3520   35.0340   45.6110 C   0  0  0  0  0  0  0  0  0  0  0  0
   59.0010   34.2340   44.5400 C   0  0  0  0  0  0  0  0  0  0  0  0
   58.4900   32.9770   44.7680 C   0  0  0  0  0  0  0  0  0  0  0  0
   58.3020   32.4500   46.0280 C   0  0  0  0  0  0  0  0  0  0  0  0
   57.7740   31.1660   46.2640 N   0  0  0  0  0  0  0  0  0  0  0  0
   57.4460   30.4010   45.2840 C   0  0  0  0  0  0  0  0  0  0  0  0
   58.0700   29.2050   44.9960 C   0  0  0  0  0  0  0  0  0  0  0  0
   57.6440   28.4680   43.9090 C   0  0  0  0  0  0  0  0  0  0  0  0
   58.2440   27.2200   43.5950 N   0  0  0  0  0  0  0  0  0  0  0  0
   57.8000   25.9710   44.1060 C   0  0  0  0  0  0  0  0  0  0  0  0
   57.3710   24.8910   43.3590 C   0  0  0  0  0  0  0  0  0  0  0  0
   56.9900   23.8520   44.2170 C   0  0  0  0  0  0  0  0  0  0  0  0
   56.4730   22.5180   43.8160 C   0  0  0  0  0  0  0  0  0  0  0  0
   57.1880   24.3010   45.4670 N   0  0  0  0  0  0  0  0  0  0  0  0
   56.8940   23.4800   46.6360 C   0  0  0  0  0  0  0  0  0  0  0  0
   57.6730   25.5690   45.4370 C   0  0  0  0  0  0  0  0  0  0  0  0
   56.6290   28.9470   43.1690 N   0  0  0  0  0  0  0  0  0  0  0  0
   56.0130   30.1290   43.4530 C   0  0  0  0  0  0  0  0  0  0  0  0
   56.4210   30.8520   44.5070 N   0  0  0  0  0  0  0  0  0  0  0  0
   58.9520   32.9425   50.3986 H   0  0  0  0  0  0  0  0  0  0  0  0
   60.2991   32.4361   49.3238 H   0  0  0  0  0  0  0  0  0  0  0  0
   59.7438   34.1444   49.3238 H   0  0  0  0  0  0  0  0  0  0  0  0
   59.4556   35.1727   47.7480 H   0  0  0  0  0  0  0  0  0  0  0  0
   59.7612   36.0418   45.4471 H   0  0  0  0  0  0  0  0  0  0  0  0
   59.1295   34.6003   43.5108 H   0  0  0  0  0  0  0  0  0  0  0  0
   58.2171   32.3600   43.8992 H   0  0  0  0  0  0  0  0  0  0  0  0
   58.8968   28.8429   45.6246 H   0  0  0  0  0  0  0  0  0  0  0  0
   59.0750   27.1730   42.9480 H   0  0  0  0  0  0  0  0  0  0  0  0
   57.3344   24.8531   42.2603 H   0  0  0  0  0  0  0  0  0  0  0  0
   56.2443   21.9278   44.7157 H   0  0  0  0  0  0  0  0  0  0  0  0
   55.5585   22.6438   43.2177 H   0  0  0  0  0  0  0  0  0  0  0  0
   57.2334   21.9947   43.2177 H   0  0  0  0  0  0  0  0  0  0  0  0
   57.1003   24.0562   47.5500 H   0  0  0  0  0  0  0  0  0  0  0  0
   55.8344   23.1851   46.6198 H   0  0  0  0  0  0  0  0  0  0  0  0
   57.5255   22.5795   46.6198 H   0  0  0  0  0  0  0  0  0  0  0  0
   57.9245   26.1793   46.3169 H   0  0  0  0  0  0  0  0  0  0  0  0
   56.2330   28.4490   42.3350 H   0  0  0  0  0  0  0  0  0  0  0  0
   55.1865   30.4880   42.8221 H   0  0  0  0  0  0  0  0  0  0  0  0
  1  2  1  0
  2  3  1  0
  3  4  2  0
  4  5  1  0
  5  6  2  0
  6  7  1  0
  7  8  2  0
  8  9  1  0
  9 10  2  0
 10 11  1  0
 11 12  2  0
 12 13  1  0
 13 14  1  0
 14 15  1  0
 15 16  2  0
 16 17  1  0
 16 18  1  0
 18 19  1  0
 18 20  1  0
 12 21  1  0
 21 22  1  0
 22 23  2  0
  8  3  1  0
 23 10  1  0
 20 14  2  0
  1 24  1  0
  1 25  1  0
  1 26  1  0
  4 27  1  0
  5 28  1  0
  6 29  1  0
  7 30  1  0
 11 31  1  0
 13 32  1  0
 15 33  1  0
 17 34  1  0
 17 35  1  0
 17 36  1  0
 19 37  1  0
 19 38  1  0
 19 39  1  0
 20 40  1  0
 21 41  1  0
 22 42  1  0
M  END
>  <smiles>  (74) 
COc1ccccc1N=c1cc(Nc2cc(C)n(C)c2)[nH]cn1

>  <score_type>  (74) 
oracle

>  <origin>  (74) 
adg

>  <m_score__min__energy>  (74) 
-7.2199999999999998

>  <m_primary>  (74) 
energy

$$$$
74:0
     RDKit          3D

 43 45  0  0  0  0  0  0  0  0999 V2000
   57.8885   32.2083   41.2275 H   0  0  0  0  0  0  0  0  0  0  0  0
   57.7210   32.0130   42.2970 C   0  0  0  0  0  0  0  0  0  0  0  0
   56.9830   30.8960   42.6940 C   0  0  0  0  0  0  0  0  0  0  0  0
   56.5777   30.2108   41.9349 H   0  0  0  0  0  0  0  0  0  0  0  0
   56.7550   30.6420   44.0560 C   0  0  0  0  0  0  0  0  0  0  0  0
   55.9690   29.4540   44.4670 C   0  0  0  0  0  0  0  0  0  0  0  0
   54.7810   29.3300   44.0650 O   0  0  0  0  0  0  0  0  0  0  0  0
   56.5320   28.4080   45.2700 N   0  0  0  0  0  0  0  0  0  0  0  0
   57.8380   28.4100   45.8670 C   0  0  0  0  0  0  0  0  0  0  0  0
   58.8120   27.4590   45.5140 C   0  0  0  0  0  0  0  0  0  0  0  0
   58.5760   26.6814   44.7726 H   0  0  0  0  0  0  0  0  0  0  0  0
   60.0780   27.4990   46.1020 C   0  0  0  0  0  0  0  0  0  0  0  0
   60.8339   26.7477   45.8296 H   0  0  0  0  0  0  0  0  0  0  0  0
   60.3860   28.4910   47.0350 C   0  0  0  0  0  0  0  0  0  0  0  0
   61.3837   28.5181   47.4974 H   0  0  0  0  0  0  0  0  0  0  0  0
   59.4280   29.4520   47.3840 C   0  0  0  0  0  0  0  0  0  0  0  0
   59.8230   30.7220   48.5380 S   0  0  0  0  0  0  0  0  0  0  0  0
   60.8870   30.2260   49.4790 O   0  0  0  0  0  0  0  0  0  0  0  0
   58.5930   31.0760   49.3250 O   0  0  0  0  0  0  0  0  0  0  0  0
   60.3970   32.1120   47.6710 N   0  0  0  0  0  0  0  0  0  0  0  0
   59.6920   32.6740   47.1430 H   0  0  0  0  0  0  0  0  0  0  0  0
   61.6460   32.4770   47.6500 C   0  0  0  0  0  0  0  0  0  0  0  0
   62.6020   31.9370   48.5390 N   0  0  0  0  0  0  0  0  0  0  0  0
   62.4040   31.2140   49.2670 H   0  0  0  0  0  0  0  0  0  0  0  0
   63.9070   32.5110   48.2890 C   0  0  0  0  0  0  0  0  0  0  0  0
   64.6181   31.7266   47.9905 H   0  0  0  0  0  0  0  0  0  0  0  0
   64.3121   32.9948   49.1900 H   0  0  0  0  0  0  0  0  0  0  0  0
   63.7170   33.5240   47.1440 C   0  0  0  0  0  0  0  0  0  0  0  0
   64.3599   33.2543   46.2932 H   0  0  0  0  0  0  0  0  0  0  0  0
   63.9910   34.5372   47.4731 H   0  0  0  0  0  0  0  0  0  0  0  0
   62.2400   33.4720   46.7230 C   0  0  0  0  0  0  0  0  0  0  0  0
   62.1411   33.1428   45.6781 H   0  0  0  0  0  0  0  0  0  0  0  0
   61.7461   34.4534   46.7768 H   0  0  0  0  0  0  0  0  0  0  0  0
   58.1610   29.4160   46.7860 C   0  0  0  0  0  0  0  0  0  0  0  0
   57.4150   30.1834   47.0403 H   0  0  0  0  0  0  0  0  0  0  0  0
   57.3050   31.5110   45.0160 C   0  0  0  0  0  0  0  0  0  0  0  0
   57.1528   31.3049   46.0857 H   0  0  0  0  0  0  0  0  0  0  0  0
   58.0470   32.6400   44.6250 C   0  0  0  0  0  0  0  0  0  0  0  0
   58.5920   33.5300   45.6160 N   0  0  0  0  0  0  0  0  0  0  0  0
   59.7060   34.0700   45.4440 O   0  0  0  0  0  0  0  0  0  0  0  0
   57.8920   33.8100   46.7670 O   0  0  0  0  0  0  0  0  0  0  0  0
   58.2470   32.8830   43.2550 C   0  0  0  0  0  0  0  0  0  0  0  0
   58.8218   33.7646   42.9350 H   0  0  0  0  0  0  0  0  0  0  0  0
  1  2  1  0
  2  3  2  0
  3  4  1  0
  3  5  1  0
  5  6  1  0
  6  7  2  0
  6  8  1  0
  8  9  1  0
  9 10  2  0
 10 11  1  0
 10 12  1  0
 12 13  1  0
 12 14  2  0
 14 15  1  0
 14 16  1  0
 16 17  1  0
 17 18  2  0
 17 19  2  0
 17 20  1  0
 20 21  1  0
 20 22  2  0
 22 23  1  0
 23 24  1  0
 23 25  1  0
 25 26  1  0
 25 27  1  0
 25 28  1  0
 28 29  1  0
 28 30  1  0
 28 31  1  0
 31 32  1  0
 31 33  1  0
 16 34  2  0
 34 35  1  0
  5 36  2  0
 36 37  1  0
 36 38  1  0
 38 39  1  0
 39 40  2  0
 39 41  1  0
 38 42  2  0
 42 43  1  0
 42  2  1  0
 34  9  1  0
 31 22  1  0
M  CHG  4   8  -1  20   1  39   1  41  -1
M  END
>  <UniqueID>  (75) 
66

>  <SMILES>  (75) 
O=C([N-]c1cccc(S(=O)(=O)/[NH+]=C2\CCCN2)c1)c1cccc([N+](=O)[O-])c1

>  <Energy>  (75) 
60.77872338064302

>  <Genealogy>  (75) 
O=C([N-]c1cccc(S(=O)(=O)[NH+]=C2CCCN2)c1)c1cccc([N+](=O)[O-])c1 (protonated)
O=C([N-]c1cccc(S(=O)(=O)/[NH+]=C2\CCCN2)c1)c1cccc([N+](=O)[O-])c1 (cis-trans isomerization)
O=C([N-]c1cccc(S(=O)(=O)/[NH+]=C2\CCCN2)c1)c1cccc([N+](=O)[O-])c1 (3D coordinates assigned)
O=C([N-]c1cccc(S(=O)(=O)/[NH+]=C2\CCCN2)c1)c1cccc([N+](=O)[O-])c1 (nonaromatic ring conformer: 60.77872338064302 kcal/mol)

>  <smiles>  (75) 
O=C(Nc1cccc(S(=O)(=O)N=C2CCCN2)c1)c1cccc([N+](=O)[O-])c1

>  <score_type>  (75) 
oracle

>  <origin>  (75) 
adg

>  <m_score__min__energy>  (75) 
-8.3900000000000006

>  <m_primary>  (75) 
energy

$$$$
75:0
     RDKit          3D

 32 33  0  0  0  0  0  0  0  0999 V2000
   63.2485   31.4949   47.9918 H   0  0  0  0  0  0  0  0  0  0  0  0
   62.4420   32.1910   47.7180 C   0  0  0  0  0  0  0  0  0  0  0  0
   62.6730   33.1860   46.7670 C   0  0  0  0  0  0  0  0  0  0  0  0
   63.6613   33.2724   46.2918 H   0  0  0  0  0  0  0  0  0  0  0  0
   61.6530   34.0710   46.4180 C   0  0  0  0  0  0  0  0  0  0  0  0
   61.8400   34.8502   45.6644 H   0  0  0  0  0  0  0  0  0  0  0  0
   60.3870   33.9740   47.0230 C   0  0  0  0  0  0  0  0  0  0  0  0
   59.2970   34.9480   46.6440 C   0  0  0  0  0  0  0  0  0  0  0  0
   59.7289   35.9557   46.5539 H   0  0  0  0  0  0  0  0  0  0  0  0
   58.5224   34.9324   47.4249 H   0  0  0  0  0  0  0  0  0  0  0  0
   58.6860   34.5720   45.3690 N   0  0  0  0  0  0  0  0  0  0  0  0
   58.2390   33.3880   45.0750 C   0  0  0  0  0  0  0  0  0  0  0  0
   58.1300   32.7210   43.5260 S   0  0  0  0  0  0  0  0  0  0  0  0
   57.4950   31.2930   44.1660 C   0  0  0  0  0  0  0  0  0  0  0  0
   57.0350   30.1240   43.3550 C   0  0  0  0  0  0  0  0  0  0  0  0
   57.7088   29.2730   43.5330 H   0  0  0  0  0  0  0  0  0  0  0  0
   57.0477   30.4035   42.2912 H   0  0  0  0  0  0  0  0  0  0  0  0
   55.6150   29.7280   43.7420 C   0  0  0  0  0  0  0  0  0  0  0  0
   55.5270   29.7035   44.8382 H   0  0  0  0  0  0  0  0  0  0  0  0
   54.9053   30.4625   43.3336 H   0  0  0  0  0  0  0  0  0  0  0  0
   55.3878   28.7322   43.3336 H   0  0  0  0  0  0  0  0  0  0  0  0
   57.3690   31.3650   45.5110 N   0  0  0  0  0  0  0  0  0  0  0  0
   57.7910   32.5250   46.0100 N   0  0  0  0  0  0  0  0  0  0  0  0
   57.7630   32.7340   47.0340 H   0  0  0  0  0  0  0  0  0  0  0  0
   60.1480   32.9670   47.9820 C   0  0  0  0  0  0  0  0  0  0  0  0
   58.8750   32.8790   48.5710 O   0  0  0  0  0  0  0  0  0  0  0  0
   58.5650   32.0830   49.7110 C   0  0  0  0  0  0  0  0  0  0  0  0
   58.7864   32.6515   50.6263 H   0  0  0  0  0  0  0  0  0  0  0  0
   57.4977   31.8174   49.6935 H   0  0  0  0  0  0  0  0  0  0  0  0
   59.1715   31.1655   49.6935 H   0  0  0  0  0  0  0  0  0  0  0  0
   61.1870   32.0780   48.3230 C   0  0  0  0  0  0  0  0  0  0  0  0
   61.0092   31.2903   49.0699 H   0  0  0  0  0  0  0  0  0  0  0  0
  1  2  1  0
  2  3  2  0
  3  4  1  0
  3  5  1  0
  5  6  1  0
  5  7  2  0
  7  8  1  0
  8  9  1  0
  8 10  1  0
  8 11  1  0
 11 12  2  0
 12 13  1  0
 13 14  1  0
 14 15  1  0
 15 16  1  0
 15 17  1  0
 15 18  1  0
 18 19  1  0
 18 20  1  0
 18 21  1  0
 14 22  2  0
 22 23  1  0
 23 24  1  0
  7 25  1  0
 25 26  1  0
 26 27  1  0
 27 28  1  0
 27 29  1  0
 27 30  1  0
 25 31  2  0
 31 32  1  0
 31  2  1  0
 23 12  1  0
M  END
>  <UniqueID>  (76) 
67

>  <SMILES>  (76) 
CCc1n[nH]/c(=N/Cc2ccccc2OC)s1

>  <Energy>  (76) 
60.850563751697194

>  <Genealogy>  (76) 
CCc1n[nH]/c(=N/Cc2ccccc2OC)s1 (cis-trans isomerization)
CCc1n[nH]/c(=N/Cc2ccccc2OC)s1 (3D coordinates assigned)
CCc1n[nH]/c(=N/Cc2ccccc2OC)s1 (optimized conformer: 60.850563751697194 kcal/mol)

>  <smiles>  (76) 
CCc1n[nH]c(=NCc2ccccc2OC)s1

>  <score_type>  (76) 
oracle

>  <origin>  (76) 
adg

>  <m_score__min__energy>  (76) 
-6.3899999999999997

>  <m_primary>  (76) 
energy

$$$$
76:0
     RDKit          3D

 44 47  0  0  1  0  0  0  0  0999 V2000
   54.9710   26.3840   46.1750 N   0  0  0  0  0  0  0  0  0  0  0  0
   56.5000   25.6060   46.0720 S   0  0  0  0  0  0  0  0  0  0  0  0
   56.4660   24.5380   45.0320 O   0  0  0  0  0  0  0  0  0  0  0  0
   56.7620   24.9670   47.4200 O   0  0  0  0  0  0  0  0  0  0  0  0
   57.8110   26.6860   45.7350 C   0  0  0  0  0  0  0  0  0  0  0  0
   58.0980   26.9990   44.4340 C   0  0  0  0  0  0  0  0  0  0  0  0
   59.1210   27.8490   44.0610 C   0  0  0  0  0  0  0  0  0  0  0  0
   59.9020   28.4180   45.0450 C   0  0  0  0  0  0  0  0  0  0  0  0
   59.6150   28.1030   46.3600 C   0  0  0  0  0  0  0  0  0  0  0  0
   57.8100   32.4090   47.8360 N   0  0  0  0  0  0  0  0  0  0  0  0
   58.5270   31.4970   48.4090 C   0  0  0  0  0  0  0  0  0  0  0  0
   60.0590   29.5300   49.4870 N   0  0  0  0  0  0  0  0  0  0  0  0
   59.4680   30.4390   50.3070 C   0  0  0  0  0  0  0  0  0  0  0  0
   58.6830   31.4490   49.7820 C   0  0  0  0  0  0  0  0  0  0  0  0
   59.8980   29.5870   48.1530 C   0  0  0  0  0  0  0  0  0  0  0  0
   60.4580   28.7210   47.3470 N   0  0  0  0  0  0  0  0  0  0  0  0
   58.1630   32.9090   46.5540 C   0  0  0  0  0  0  0  0  0  0  0  0
   58.8500   34.0930   46.4910 C   0  0  0  0  0  0  0  0  0  0  0  0
   59.1900   34.5750   45.2330 C   0  0  0  0  0  0  0  0  0  0  0  0
   58.8270   33.8510   44.1150 C   0  0  0  0  0  0  0  0  0  0  0  0
   58.1330   32.6580   44.1930 C   0  0  0  0  0  0  0  0  0  0  0  0
   57.7710   31.9350   43.0760 C   0  0  0  0  0  0  0  0  0  0  0  0
   57.0800   30.7560   43.2610 C   0  0  0  0  0  0  0  0  0  0  0  0
   56.7380   30.2700   44.5060 C   0  0  0  0  0  0  0  0  0  0  0  0
   57.1130   31.0100   45.5780 N   0  0  0  0  0  0  0  0  0  0  0  0
   57.7900   32.1700   45.4590 C   0  0  0  0  0  0  0  0  0  0  0  0
   59.1350   30.5700   47.6350 N   0  0  0  0  0  0  0  0  0  0  0  0
   58.5930   27.2540   46.7280 C   0  0  0  0  0  0  0  0  0  0  0  0
   54.7740   27.0230   45.3880 H   0  0  0  0  0  0  0  0  0  0  0  0
   54.2010   25.7080   46.3730 H   0  0  0  0  0  0  0  0  0  0  0  0
   57.4806   26.5493   43.6424 H   0  0  0  0  0  0  0  0  0  0  0  0
   59.3091   28.0678   42.9995 H   0  0  0  0  0  0  0  0  0  0  0  0
   60.7267   29.1004   44.7916 H   0  0  0  0  0  0  0  0  0  0  0  0
   60.6360   28.7910   49.9210 H   0  0  0  0  0  0  0  0  0  0  0  0
   59.6152   30.3706   51.3950 H   0  0  0  0  0  0  0  0  0  0  0  0
   58.1986   32.1898   50.4351 H   0  0  0  0  0  0  0  0  0  0  0  0
   59.1227   34.6424   47.4041 H   0  0  0  0  0  0  0  0  0  0  0  0
   59.7413   35.5212   45.1292 H   0  0  0  0  0  0  0  0  0  0  0  0
   59.1009   34.2388   43.1227 H   0  0  0  0  0  0  0  0  0  0  0  0
   58.0261   32.2886   42.0661 H   0  0  0  0  0  0  0  0  0  0  0  0
   56.7876   30.1754   42.3736 H   0  0  0  0  0  0  0  0  0  0  0  0
   56.1864   29.3255   44.6234 H   0  0  0  0  0  0  0  0  0  0  0  0
   58.9980   30.6320   46.6130 H   0  0  0  0  0  0  0  0  0  0  0  0
   58.4022   27.0320   47.7883 H   0  0  0  0  0  0  0  0  0  0  0  0
  1  2  1  0
  2  3  2  0
  2  4  2  0
  2  5  1  0
  5  6  2  0
  6  7  1  0
  7  8  2  0
  8  9  1  0
  9 10  1  0
 10 11  2  0
 11 12  1  0
 12 13  1  0
 13 14  2  0
 14 15  1  0
 15 16  2  0
 16 17  1  0
 17 18  2  0
 18 19  1  0
 19 20  2  0
 20 21  1  0
 21 22  2  0
 22 23  1  0
 23 24  2  0
 24 25  1  0
 25 26  2  0
 15 27  1  0
  9 28  2  0
 28  5  1  0
 27 11  1  0
 26 17  1  0
 26 21  1  0
  1 29  1  0
  1 30  1  0
  6 31  1  0
  7 32  1  0
  8 33  1  0
 12 34  1  0
 13 35  1  0
 14 36  1  0
 18 37  1  0
 19 38  1  0
 20 39  1  0
 22 40  1  0
 23 41  1  0
 24 42  1  0
 27 43  1  0
 28 44  1  0
M  END
>  <smiles>  (77) 
NS(=O)(=O)c1cccc(N=c2[nH]ccc(=Nc3cccc4cccnc34)[nH]2)c1

>  <score_type>  (77) 
oracle

>  <origin>  (77) 
adg

>  <m_score__min__energy>  (77) 
-9.4900000000000002

>  <m_primary>  (77) 
energy

$$$$
77:0
     RDKit          3D

 54 57  0  0  0  0  0  0  0  0999 V2000
   58.3080   26.8170   47.1040 O   0  0  0  0  0  0  0  0  0  0  0  0
   58.1140   28.0290   46.8260 C   0  0  0  0  0  0  0  0  0  0  0  0
   56.9950   28.3760   45.9970 N   0  0  0  0  0  0  0  0  0  0  0  0
   57.0320   28.5950   44.5490 C   0  0  1  0  0  0  0  0  0  0  0  0
   56.0420   29.7170   44.1540 C   0  0  0  0  0  0  0  0  0  0  0  0
   56.5290   30.4850   42.9150 C   0  0  0  0  0  0  0  0  0  0  0  0
   57.8630   31.1220   43.1190 N   0  0  1  0  0  0  0  0  0  0  0  0
   57.7880   32.5900   43.3460 C   0  0  0  0  0  0  0  0  0  0  0  0
   58.1650   33.0330   44.7490 C   0  0  0  0  0  0  0  0  0  0  0  0
   57.3930   32.6410   45.8570 C   0  0  0  0  0  0  0  0  0  0  0  0
   57.7490   33.0470   47.1470 C   0  0  0  0  0  0  0  0  0  0  0  0
   58.8650   33.8640   47.3420 C   0  0  0  0  0  0  0  0  0  0  0  0
   59.6180   34.2890   46.2450 C   0  0  0  0  0  0  0  0  0  0  0  0
   59.2650   33.8870   44.9540 C   0  0  0  0  0  0  0  0  0  0  0  0
   58.7170   30.4360   44.1240 C   0  0  0  0  0  0  0  0  0  0  0  0
   58.4790   28.9220   44.1240 C   0  0  0  0  0  0  0  0  0  0  0  0
   59.0570   29.0400   47.3380 C   0  0  0  0  0  0  0  0  0  0  0  0
   60.2740   29.2580   46.6750 C   0  0  0  0  0  0  0  0  0  0  0  0
   61.1770   30.2110   47.1530 C   0  0  0  0  0  0  0  0  0  0  0  0
   60.8830   30.9500   48.3110 C   0  0  0  0  0  0  0  0  0  0  0  0
   61.8120   31.9390   48.7990 N   0  0  0  0  0  0  0  0  0  0  0  0
   62.0700   31.9980   50.1430 C   0  0  0  0  0  0  0  0  0  0  0  0
   62.9700   32.9330   50.6570 C   0  0  0  0  0  0  0  0  0  0  0  0
   63.6090   33.8150   49.7890 C   0  0  0  0  0  0  0  0  0  0  0  0
   63.3400   33.7580   48.4240 C   0  0  0  0  0  0  0  0  0  0  0  0
   62.4310   32.8120   47.9380 C   0  0  0  0  0  0  0  0  0  0  0  0
   62.1780   32.7860   46.7020 O   0  0  0  0  0  0  0  0  0  0  0  0
   59.6700   30.7200   48.9810 C   0  0  0  0  0  0  0  0  0  0  0  0
   58.7680   29.7650   48.5030 C   0  0  0  0  0  0  0  0  0  0  0  0
   56.7165   27.6840   44.0194 H   0  0  0  0  0  0  0  0  0  0  0  0
   55.9436   30.4196   44.9946 H   0  0  0  0  0  0  0  0  0  0  0  0
   55.0727   29.2549   43.9156 H   0  0  0  0  0  0  0  0  0  0  0  0
   55.7966   31.2707   42.6778 H   0  0  0  0  0  0  0  0  0  0  0  0
   56.6293   29.7604   42.0935 H   0  0  0  0  0  0  0  0  0  0  0  0
   58.3670   31.0180   42.2050 H   0  0  0  0  0  0  0  0  0  0  0  0
   58.4691   33.0822   42.6362 H   0  0  0  0  0  0  0  0  0  0  0  0
   56.7352   32.8743   43.2017 H   0  0  0  0  0  0  0  0  0  0  0  0
   56.5036   32.0111   45.7081 H   0  0  0  0  0  0  0  0  0  0  0  0
   57.1489   32.7223   48.0098 H   0  0  0  0  0  0  0  0  0  0  0  0
   59.1506   34.1724   48.3585 H   0  0  0  0  0  0  0  0  0  0  0  0
   60.4905   34.9413   46.3976 H   0  0  0  0  0  0  0  0  0  0  0  0
   59.8506   34.2402   44.0924 H   0  0  0  0  0  0  0  0  0  0  0  0
   58.4841   30.8344   45.1225 H   0  0  0  0  0  0  0  0  0  0  0  0
   59.7701   30.6197   43.8648 H   0  0  0  0  0  0  0  0  0  0  0  0
   59.1778   28.4470   44.8283 H   0  0  0  0  0  0  0  0  0  0  0  0
   58.6426   28.5393   43.1058 H   0  0  0  0  0  0  0  0  0  0  0  0
   60.5185   28.6757   45.7743 H   0  0  0  0  0  0  0  0  0  0  0  0
   62.1234   30.3836   46.6196 H   0  0  0  0  0  0  0  0  0  0  0  0
   61.5620   31.3004   50.8252 H   0  0  0  0  0  0  0  0  0  0  0  0
   63.1726   32.9728   51.7374 H   0  0  0  0  0  0  0  0  0  0  0  0
   64.3236   34.5540   50.1804 H   0  0  0  0  0  0  0  0  0  0  0  0
   63.8391   34.4524   47.7321 H   0  0  0  0  0  0  0  0  0  0  0  0
   59.4284   31.2948   49.8872 H   0  0  0  0  0  0  0  0  0  0  0  0
   57.8275   29.5814   49.0431 H   0  0  0  0  0  0  0  0  0  0  0  0
  1  2  2  0
  2  3  1  0
  3  4  1  0
  4  5  1  0
  5  6  1  0
  6  7  1  0
  7  8  1  0
  8  9  1  0
  9 10  2  0
 10 11  1  0
 11 12  2  0
 12 13  1  0
 13 14  2  0
  7 15  1  0
 15 16  1  0
  2 17  1  0
 17 18  2  0
 18 19  1  0
 19 20  2  0
 20 21  1  0
 21 22  1  0
 22 23  2  0
 23 24  1  0
 24 25  2  0
 25 26  1  0
 26 27  2  0
 20 28  1  0
 28 29  2  0
 16  4  1  0
 29 17  1  0
 14  9  1  0
 26 21  1  0
  4 30  1  6
  5 31  1  0
  5 32  1  0
  6 33  1  0
  6 34  1  0
  7 35  1  6
  8 36  1  0
  8 37  1  0
 10 38  1  0
 11 39  1  0
 12 40  1  0
 13 41  1  0
 14 42  1  0
 15 43  1  0
 15 44  1  0
 16 45  1  0
 16 46  1  0
 18 47  1  0
 19 48  1  0
 22 49  1  0
 23 50  1  0
 24 51  1  0
 25 52  1  0
 28 53  1  0
 29 54  1  0
M  CHG  2   3  -1   7   1
M  END
>  <UniqueID>  (78) 
68

>  <SMILES>  (78) 
O=C([N-]C1CC[NH+](Cc2ccccc2)CC1)c1ccc(-n2ccccc2=O)cc1

>  <Energy>  (78) 
81.31452258091402

>  <Genealogy>  (78) 
O=C([N-]C1CC[NH+](Cc2ccccc2)CC1)c1ccc(-n2ccccc2=O)cc1 (protonated)
O=C([N-]C1CC[NH+](Cc2ccccc2)CC1)c1ccc(-n2ccccc2=O)cc1 (3D coordinates assigned)
O=C([N-]C1CC[NH+](Cc2ccccc2)CC1)c1ccc(-n2ccccc2=O)cc1 (nonaromatic ring conformer: 81.31452258091402 kcal/mol)

>  <smiles>  (78) 
O=C(NC1CCN(Cc2ccccc2)CC1)c1ccc(-n2ccccc2=O)cc1

>  <score_type>  (78) 
oracle

>  <origin>  (78) 
adg

>  <m_score__min__energy>  (78) 
-8.4000000000000004

>  <m_primary>  (78) 
energy

$$$$
78:0
     RDKit          3D

 33 35  0  0  0  0  0  0  0  0999 V2000
   55.9720   21.4840   42.9730 O   0  0  0  0  0  0  0  0  0  0  0  0
   56.8120   22.1250   43.6580 C   0  0  0  0  0  0  0  0  0  0  0  0
   57.7650   21.4420   44.4160 C   0  0  0  0  0  0  0  0  0  0  0  0
   58.6880   22.1690   45.1670 C   0  0  0  0  0  0  0  0  0  0  0  0
   58.6610   23.5300   45.1600 N   0  0  0  0  0  0  0  0  0  0  0  0
   57.7390   24.2270   44.4290 C   0  0  0  0  0  0  0  0  0  0  0  0
   57.7420   25.7120   44.4390 C   0  0  0  0  0  0  0  0  0  0  0  0
   57.7000   26.4230   45.6510 C   0  0  0  0  0  0  0  0  0  0  0  0
   57.7060   27.8200   45.6550 C   0  0  0  0  0  0  0  0  0  0  0  0
   57.7530   28.5400   44.4480 C   0  0  0  0  0  0  0  0  0  0  0  0
   57.7580   30.0240   44.4550 C   0  0  0  0  0  0  0  0  0  0  0  0
   57.7700   30.8320   45.5830 C   0  0  0  0  0  0  0  0  0  0  0  0
   57.7720   32.1340   45.1230 C   0  0  0  0  0  0  0  0  0  0  0  0
   57.8740   33.3720   45.9600 C   0  0  0  0  0  0  0  0  0  0  0  0
   59.1730   33.8430   45.9250 F   0  0  0  0  0  0  0  0  0  0  0  0
   57.0230   34.3480   45.4720 F   0  0  0  0  0  0  0  0  0  0  0  0
   57.5280   33.0900   47.2690 F   0  0  0  0  0  0  0  0  0  0  0  0
   57.7900   32.0750   43.7430 C   0  0  0  0  0  0  0  0  0  0  0  0
   57.7700   30.7910   43.3430 N   0  0  0  0  0  0  0  0  0  0  0  0
   57.7970   27.8270   43.2370 C   0  0  0  0  0  0  0  0  0  0  0  0
   57.7910   26.4290   43.2330 C   0  0  0  0  0  0  0  0  0  0  0  0
   56.7950   23.5210   43.6610 C   0  0  0  0  0  0  0  0  0  0  0  0
   57.7875   20.3422   44.4207 H   0  0  0  0  0  0  0  0  0  0  0  0
   59.4420   21.6399   45.7683 H   0  0  0  0  0  0  0  0  0  0  0  0
   59.3560   24.0380   45.7520 H   0  0  0  0  0  0  0  0  0  0  0  0
   57.6621   25.8749   46.6040 H   0  0  0  0  0  0  0  0  0  0  0  0
   57.6736   28.3621   46.6116 H   0  0  0  0  0  0  0  0  0  0  0  0
   57.7766   30.5019   46.6323 H   0  0  0  0  0  0  0  0  0  0  0  0
   57.8167   32.9466   43.0724 H   0  0  0  0  0  0  0  0  0  0  0  0
   57.7990   30.4680   42.3510 H   0  0  0  0  0  0  0  0  0  0  0  0
   57.8365   28.3743   42.2837 H   0  0  0  0  0  0  0  0  0  0  0  0
   57.8250   25.8862   42.2768 H   0  0  0  0  0  0  0  0  0  0  0  0
   56.0474   24.0661   43.0660 H   0  0  0  0  0  0  0  0  0  0  0  0
  1  2  2  0
  2  3  1  0
  3  4  2  0
  4  5  1  0
  5  6  1  0
  6  7  1  0
  7  8  2  0
  8  9  1  0
  9 10  2  0
 10 11  1  0
 11 12  2  0
 12 13  1  0
 13 14  1  0
 14 15  1  0
 14 16  1  0
 14 17  1  0
 13 18  2  0
 18 19  1  0
 10 20  1  0
 20 21  2  0
  6 22  2  0
 22  2  1  0
 21  7  1  0
 19 11  1  0
  3 23  1  0
  4 24  1  0
  5 25  1  0
  8 26  1  0
  9 27  1  0
 12 28  1  0
 18 29  1  0
 19 30  1  0
 20 31  1  0
 21 32  1  0
 22 33  1  0
M  END
>  <UniqueID>  (79) 
69

>  <SMILES>  (79) 
O=c1cc[nH]c(-c2ccc(-c3cc(C(F)(F)F)c[nH]3)cc2)c1

>  <Energy>  (79) 
68.32136478613316

>  <Genealogy>  (79) 
O=c1cc[nH]c(-c2ccc(-c3cc(C(F)(F)F)c[nH]3)cc2)c1 (3D coordinates assigned)
O=c1cc[nH]c(-c2ccc(-c3cc(C(F)(F)F)c[nH]3)cc2)c1 (optimized conformer: 68.32136478613316 kcal/mol)

>  <smiles>  (79) 
O=c1cc[nH]c(-c2ccc(-c3cc(C(F)(F)F)c[nH]3)cc2)c1

>  <score_type>  (79) 
oracle

>  <origin>  (79) 
adg

>  <m_score__min__energy>  (79) 
-6.9400000000000004

>  <m_primary>  (79) 
energy

$$$$
79:0
     RDKit          3D

 41 44  0  0  0  0  0  0  0  0999 V2000
   57.3010   31.8390   41.6610 C   0  0  0  0  0  0  0  0  0  0  0  0
   57.3900   31.8590   43.1510 C   0  0  0  0  0  0  0  0  0  0  0  0
   58.1740   32.7020   43.9120 C   0  0  0  0  0  0  0  0  0  0  0  0
   57.9670   32.3180   45.2300 C   0  0  0  0  0  0  0  0  0  0  0  0
   58.5760   32.9150   46.4400 C   0  0  0  0  0  0  0  0  0  0  0  0
   59.3750   34.0900   46.3660 C   0  0  0  0  0  0  0  0  0  0  0  0
   59.9400   34.6450   47.5290 C   0  0  0  0  0  0  0  0  0  0  0  0
   59.6910   34.0110   48.7400 C   0  0  0  0  0  0  0  0  0  0  0  0
   58.9320   32.8900   48.8220 C   0  0  0  0  0  0  0  0  0  0  0  0
   58.3590   32.3050   47.6980 C   0  0  0  0  0  0  0  0  0  0  0  0
   58.8500   32.4840   50.1390 O   0  0  0  0  0  0  0  0  0  0  0  0
   59.6040   33.4070   50.9360 C   0  0  0  0  0  0  0  0  0  0  0  0
   60.1240   34.3670   50.0030 O   0  0  0  0  0  0  0  0  0  0  0  0
   57.1250   31.3080   45.2690 O   0  0  0  0  0  0  0  0  0  0  0  0
   56.7730   30.9980   44.0420 C   0  0  0  0  0  0  0  0  0  0  0  0
   55.8440   29.8700   43.7000 C   0  0  0  0  0  0  0  0  0  0  0  0
   55.6270   29.0050   44.8590 N   0  0  0  0  0  0  0  0  0  0  0  0
   56.5880   28.0970   45.4190 C   0  0  0  0  0  0  0  0  0  0  0  0
   56.1850   27.0030   45.8920 O   0  0  0  0  0  0  0  0  0  0  0  0
   58.0220   28.4280   45.5050 C   0  0  0  0  0  0  0  0  0  0  0  0
   58.5640   29.0140   46.6560 C   0  0  0  0  0  0  0  0  0  0  0  0
   59.9310   29.2940   46.7190 C   0  0  0  0  0  0  0  0  0  0  0  0
   60.7420   28.9920   45.6240 C   0  0  0  0  0  0  0  0  0  0  0  0
   60.2000   28.4400   44.5030 N   0  0  0  0  0  0  0  0  0  0  0  0
   58.8700   28.1620   44.4190 C   0  0  0  0  0  0  0  0  0  0  0  0
   56.2692   31.6071   41.3584 H   0  0  0  0  0  0  0  0  0  0  0  0
   57.5872   32.8239   41.2633 H   0  0  0  0  0  0  0  0  0  0  0  0
   57.9810   31.0713   41.2633 H   0  0  0  0  0  0  0  0  0  0  0  0
   58.8269   33.5098   43.5498 H   0  0  0  0  0  0  0  0  0  0  0  0
   59.5525   34.5685   45.3915 H   0  0  0  0  0  0  0  0  0  0  0  0
   60.5596   35.5526   47.4809 H   0  0  0  0  0  0  0  0  0  0  0  0
   57.7526   31.3914   47.7848 H   0  0  0  0  0  0  0  0  0  0  0  0
   58.9549   33.8991   51.6753 H   0  0  0  0  0  0  0  0  0  0  0  0
   60.4036   32.9064   51.5018 H   0  0  0  0  0  0  0  0  0  0  0  0
   54.8787   30.2844   43.3737 H   0  0  0  0  0  0  0  0  0  0  0  0
   56.2967   29.2728   42.8948 H   0  0  0  0  0  0  0  0  0  0  0  0
   57.9134   29.2536   47.5100 H   0  0  0  0  0  0  0  0  0  0  0  0
   60.3640   29.7480   47.6226 H   0  0  0  0  0  0  0  0  0  0  0  0
   61.8213   29.2002   45.6664 H   0  0  0  0  0  0  0  0  0  0  0  0
   60.8190   28.2200   43.6910 H   0  0  0  0  0  0  0  0  0  0  0  0
   58.4584   27.7272   43.4962 H   0  0  0  0  0  0  0  0  0  0  0  0
  1  2  1  0
  2  3  1  0
  3  4  2  0
  4  5  1  0
  5  6  2  0
  6  7  1  0
  7  8  2  0
  8  9  1  0
  9 10  2  0
  9 11  1  0
 11 12  1  0
 12 13  1  0
  4 14  1  0
 14 15  1  0
 15 16  1  0
 16 17  1  0
 17 18  1  0
 18 19  2  0
 18 20  1  0
 20 21  2  0
 21 22  1  0
 22 23  2  0
 23 24  1  0
 24 25  2  0
 15  2  2  0
 25 20  1  0
 10  5  1  0
 13  8  1  0
  1 26  1  0
  1 27  1  0
  1 28  1  0
  3 29  1  0
  6 30  1  0
  7 31  1  0
 10 32  1  0
 12 33  1  0
 12 34  1  0
 16 35  1  0
 16 36  1  0
 21 37  1  0
 22 38  1  0
 23 39  1  0
 24 40  1  0
 25 41  1  0
M  CHG  2  17  -1  24   1
M  END
>  <UniqueID>  (80) 
70

>  <SMILES>  (80) 
Cc1cc(-c2ccc3c(c2)OCO3)oc1C[N-]C(=O)c1ccc[nH+]c1

>  <Energy>  (80) 
100.26090583482704

>  <Genealogy>  (80) 
Cc1cc(-c2ccc3c(c2)OCO3)oc1C[N-]C(=O)c1ccc[nH+]c1 (protonated)
Cc1cc(-c2ccc3c(c2)OCO3)oc1C[N-]C(=O)c1ccc[nH+]c1 (3D coordinates assigned)
Cc1cc(-c2ccc3c(c2)OCO3)oc1C[N-]C(=O)c1ccc[nH+]c1 (nonaromatic ring conformer: 100.26090583482704 kcal/mol)

>  <smiles>  (80) 
Cc1cc(-c2ccc3c(c2)OCO3)oc1CNC(=O)c1cccnc1

>  <score_type>  (80) 
oracle

>  <origin>  (80) 
adg

>  <m_score__min__energy>  (80) 
-9.3100000000000005

>  <m_primary>  (80) 
energy

$$$$
80:0
     RDKit          3D

 39 40  0  0  0  0  0  0  0  0999 V2000
   57.7690   27.4230   44.3990 C   0  0  0  0  0  0  0  0  0  0  0  0
   57.0410   27.9770   45.6230 C   0  0  0  0  0  0  0  0  0  0  0  0
   58.0490   28.3330   46.7210 C   0  0  0  0  0  0  0  0  0  0  0  0
   56.3070   29.1400   45.2300 O   0  0  0  0  0  0  0  0  0  0  0  0
   56.8020   30.2070   44.4620 C   0  0  0  0  0  0  0  0  0  0  0  0
   56.5410   30.2030   43.0870 C   0  0  0  0  0  0  0  0  0  0  0  0
   57.0200   31.2280   42.2700 C   0  0  0  0  0  0  0  0  0  0  0  0
   57.7540   32.2790   42.8230 C   0  0  0  0  0  0  0  0  0  0  0  0
   58.0040   32.3220   44.2020 C   0  0  0  0  0  0  0  0  0  0  0  0
   58.7780   33.4050   44.7430 N   0  0  0  0  0  0  0  0  0  0  0  0
   58.5250   34.0170   46.0180 C   0  0  0  0  0  0  0  0  0  0  0  0
   57.4620   33.7720   46.6490 O   0  0  0  0  0  0  0  0  0  0  0  0
   59.4860   35.0270   46.5670 C   0  0  0  0  0  0  0  0  0  0  0  0
   60.6340   34.3330   47.2470 C   0  0  0  0  0  0  0  0  0  0  0  0
   61.6930   33.8080   46.4860 C   0  0  0  0  0  0  0  0  0  0  0  0
   62.7450   33.1340   47.1140 C   0  0  0  0  0  0  0  0  0  0  0  0
   62.7430   32.9710   48.5010 C   0  0  0  0  0  0  0  0  0  0  0  0
   61.6880   33.4800   49.2640 C   0  0  0  0  0  0  0  0  0  0  0  0
   60.6340   34.1550   48.6410 C   0  0  0  0  0  0  0  0  0  0  0  0
   57.5400   31.2720   45.0180 C   0  0  0  0  0  0  0  0  0  0  0  0
   58.6047   26.7870   44.7262 H   0  0  0  0  0  0  0  0  0  0  0  0
   57.0693   26.8269   43.7949 H   0  0  0  0  0  0  0  0  0  0  0  0
   58.1571   28.2563   43.7949 H   0  0  0  0  0  0  0  0  0  0  0  0
   56.3513   27.2186   46.0220 H   0  0  0  0  0  0  0  0  0  0  0  0
   57.5895   28.1707   47.7072 H   0  0  0  0  0  0  0  0  0  0  0  0
   58.9396   27.6950   46.6220 H   0  0  0  0  0  0  0  0  0  0  0  0
   58.3414   29.3888   46.6220 H   0  0  0  0  0  0  0  0  0  0  0  0
   55.9530   29.3845   42.6463 H   0  0  0  0  0  0  0  0  0  0  0  0
   56.8189   31.2078   41.1887 H   0  0  0  0  0  0  0  0  0  0  0  0
   58.1387   33.0785   42.1727 H   0  0  0  0  0  0  0  0  0  0  0  0
   59.5100   33.8360   44.1340 H   0  0  0  0  0  0  0  0  0  0  0  0
   59.8717   35.6468   45.7442 H   0  0  0  0  0  0  0  0  0  0  0  0
   58.9634   35.6597   47.2995 H   0  0  0  0  0  0  0  0  0  0  0  0
   61.6941   33.9278   45.3925 H   0  0  0  0  0  0  0  0  0  0  0  0
   63.5751   32.7317   46.5148 H   0  0  0  0  0  0  0  0  0  0  0  0
   63.5721   32.4418   48.9934 H   0  0  0  0  0  0  0  0  0  0  0  0
   61.6871   33.3492   50.3562 H   0  0  0  0  0  0  0  0  0  0  0  0
   59.8021   34.5480   49.2439 H   0  0  0  0  0  0  0  0  0  0  0  0
   57.7549   31.2829   46.0968 H   0  0  0  0  0  0  0  0  0  0  0  0
  1  2  1  0
  2  3  1  0
  2  4  1  0
  4  5  1  0
  5  6  2  0
  6  7  1  0
  7  8  2  0
  8  9  1  0
  9 10  1  0
 10 11  1  0
 11 12  2  0
 11 13  1  0
 13 14  1  0
 14 15  2  0
 15 16  1  0
 16 17  2  0
 17 18  1  0
 18 19  2  0
  9 20  2  0
 20  5  1  0
 19 14  1  0
  1 21  1  0
  1 22  1  0
  1 23  1  0
  2 24  1  0
  3 25  1  0
  3 26  1  0
  3 27  1  0
  6 28  1  0
  7 29  1  0
  8 30  1  0
 10 31  1  0
 13 32  1  0
 13 33  1  0
 15 34  1  0
 16 35  1  0
 17 36  1  0
 18 37  1  0
 19 38  1  0
 20 39  1  0
M  END
>  <UniqueID>  (81) 
71

>  <SMILES>  (81) 
CC(C)Oc1cccc(NC(=O)Cc2ccccc2)c1

>  <Energy>  (81) 
36.14378413554353

>  <Genealogy>  (81) 
CC(C)Oc1cccc(NC(=O)Cc2ccccc2)c1 (3D coordinates assigned)
CC(C)Oc1cccc(NC(=O)Cc2ccccc2)c1 (optimized conformer: 36.14378413554353 kcal/mol)

>  <smiles>  (81) 
CC(C)Oc1cccc(NC(=O)Cc2ccccc2)c1

>  <score_type>  (81) 
oracle

>  <origin>  (81) 
adg

>  <m_score__min__energy>  (81) 
-8.0399999999999991

>  <m_primary>  (81) 
energy

$$$$
81:0
     RDKit          3D

 34 36  0  0  0  0  0  0  0  0999 V2000
   56.2540   29.3840   42.5060 C   0  0  0  0  0  0  0  0  0  0  0  0
   57.4370   29.2560   43.3800 N   0  0  2  0  0  0  0  0  0  0  0  0
   57.8680   27.8430   43.4750 C   0  0  0  0  0  0  0  0  0  0  0  0
   57.6810   27.3930   44.9090 C   0  0  0  0  0  0  0  0  0  0  0  0
   57.7440   28.6720   45.7010 C   0  0  0  0  0  0  0  0  0  0  0  0
   57.1490   29.7250   44.7630 C   0  0  1  0  0  0  0  0  0  0  0  0
   57.6550   31.1450   45.0700 C   0  0  0  0  0  0  0  0  0  0  0  0
   57.7040   32.1110   44.0410 C   0  0  0  0  0  0  0  0  0  0  0  0
   58.2150   33.3900   44.2730 C   0  0  0  0  0  0  0  0  0  0  0  0
   58.7240   33.7290   45.5300 C   0  0  0  0  0  0  0  0  0  0  0  0
   59.2410   35.0120   45.7710 C   0  0  0  0  0  0  0  0  0  0  0  0
   59.7630   35.3330   47.0270 C   0  0  0  0  0  0  0  0  0  0  0  0
   59.7750   34.3780   48.0470 C   0  0  0  0  0  0  0  0  0  0  0  0
   59.2640   33.0970   47.8180 C   0  0  0  0  0  0  0  0  0  0  0  0
   58.7330   32.7640   46.5620 C   0  0  0  0  0  0  0  0  0  0  0  0
   58.2180   31.4800   46.3220 C   0  0  0  0  0  0  0  0  0  0  0  0
   55.3498   29.4818   43.1248 H   0  0  0  0  0  0  0  0  0  0  0  0
   56.3620   30.2757   41.8710 H   0  0  0  0  0  0  0  0  0  0  0  0
   56.1688   28.4898   41.8710 H   0  0  0  0  0  0  0  0  0  0  0  0
   58.2290   29.7920   42.9550 H   0  0  0  0  0  0  0  0  0  0  0  0
   57.2566   27.2202   42.8054 H   0  0  0  0  0  0  0  0  0  0  0  0
   58.9223   27.7439   43.1774 H   0  0  0  0  0  0  0  0  0  0  0  0
   56.7070   26.8989   45.0403 H   0  0  0  0  0  0  0  0  0  0  0  0
   58.4377   26.6602   45.2258 H   0  0  0  0  0  0  0  0  0  0  0  0
   57.1490   28.5898   46.6225 H   0  0  0  0  0  0  0  0  0  0  0  0
   58.7675   28.9208   46.0182 H   0  0  0  0  0  0  0  0  0  0  0  0
   56.0620   29.8205   44.9023 H   0  0  0  0  0  0  0  0  0  0  0  0
   57.3330   31.8514   43.0385 H   0  0  0  0  0  0  0  0  0  0  0  0
   58.2169   34.1340   43.4628 H   0  0  0  0  0  0  0  0  0  0  0  0
   59.2352   35.7657   44.9699 H   0  0  0  0  0  0  0  0  0  0  0  0
   60.1653   36.3397   47.2131 H   0  0  0  0  0  0  0  0  0  0  0  0
   60.1880   34.6350   49.0336 H   0  0  0  0  0  0  0  0  0  0  0  0
   59.2781   32.3484   48.6238 H   0  0  0  0  0  0  0  0  0  0  0  0
   58.2533   30.7239   47.1202 H   0  0  0  0  0  0  0  0  0  0  0  0
  1  2  1  0
  2  3  1  0
  3  4  1  0
  4  5  1  0
  5  6  1  0
  6  7  1  0
  7  8  2  0
  8  9  1  0
  9 10  2  0
 10 11  1  0
 11 12  2  0
 12 13  1  0
 13 14  2  0
 14 15  1  0
 15 16  2  0
  6  2  1  0
 16  7  1  0
 15 10  1  0
  1 17  1  0
  1 18  1  0
  1 19  1  0
  2 20  1  6
  3 21  1  0
  3 22  1  0
  4 23  1  0
  4 24  1  0
  5 25  1  0
  5 26  1  0
  6 27  1  6
  8 28  1  0
  9 29  1  0
 11 30  1  0
 12 31  1  0
 13 32  1  0
 14 33  1  0
 16 34  1  0
M  CHG  1   2   1
M  END
>  <UniqueID>  (82) 
72

>  <SMILES>  (82) 
C[N@@H+]1CCC[C@H]1c1ccc2ccccc2c1

>  <Energy>  (82) 
47.767680150696776

>  <Genealogy>  (82) 
C[NH+]1CCCC1c1ccc2ccccc2c1 (protonated)
C[N@@H+]1CCC[C@H]1c1ccc2ccccc2c1 (chirality)
C[N@@H+]1CCC[C@H]1c1ccc2ccccc2c1 (3D coordinates assigned)
C[N@@H+]1CCC[C@H]1c1ccc2ccccc2c1 (nonaromatic ring conformer: 47.767680150696776 kcal/mol)

>  <smiles>  (82) 
CN1CCCC1c1ccc2ccccc2c1

>  <score_type>  (82) 
oracle

>  <origin>  (82) 
adg

>  <m_score__min__energy>  (82) 
-5.5

>  <m_primary>  (82) 
energy

$$$$
82:0
     RDKit          3D

 27 28  0  0  0  0  0  0  0  0999 V2000
   56.2640   29.0010   42.4440 O   0  0  0  0  0  0  0  0  0  0  0  0
   56.7120   29.6410   43.7290 S   0  0  0  0  0  0  0  0  0  0  0  0
   55.5030   30.1130   44.4860 O   0  0  0  0  0  0  0  0  0  0  0  0
   57.7230   31.0040   43.3660 N   0  0  0  0  0  0  0  0  0  0  0  0
   58.1440   31.9750   44.3400 C   0  0  0  0  0  0  0  0  0  0  0  0
   58.6580   31.5310   45.5690 C   0  0  0  0  0  0  0  0  0  0  0  0
   59.0710   32.4480   46.5410 C   0  0  0  0  0  0  0  0  0  0  0  0
   58.9760   33.8200   46.2940 C   0  0  0  0  0  0  0  0  0  0  0  0
   59.4920   34.9700   47.5140 Cl  0  0  0  0  0  0  0  0  0  0  0  0
   58.4720   34.2750   45.0720 C   0  0  0  0  0  0  0  0  0  0  0  0
   58.0590   33.3610   44.0980 C   0  0  0  0  0  0  0  0  0  0  0  0
   57.6120   28.4530   44.6680 C   0  0  0  0  0  0  0  0  0  0  0  0
   59.0070   28.3710   44.5590 C   0  0  0  0  0  0  0  0  0  0  0  0
   59.7130   27.4180   45.3000 C   0  0  0  0  0  0  0  0  0  0  0  0
   59.0310   26.5480   46.1550 C   0  0  0  0  0  0  0  0  0  0  0  0
   59.7200   25.6240   46.8710 F   0  0  0  0  0  0  0  0  0  0  0  0
   57.6390   26.6300   46.2700 C   0  0  0  0  0  0  0  0  0  0  0  0
   56.9750   25.7870   47.0990 F   0  0  0  0  0  0  0  0  0  0  0  0
   56.9310   27.5820   45.5300 C   0  0  0  0  0  0  0  0  0  0  0  0
   58.0920   31.0710   42.3910 H   0  0  0  0  0  0  0  0  0  0  0  0
   58.7366   30.4522   45.7691 H   0  0  0  0  0  0  0  0  0  0  0  0
   59.4709   32.0888   47.5007 H   0  0  0  0  0  0  0  0  0  0  0  0
   58.4002   35.3551   44.8763 H   0  0  0  0  0  0  0  0  0  0  0  0
   57.6656   33.7255   43.1376 H   0  0  0  0  0  0  0  0  0  0  0  0
   59.5471   29.0570   43.8899 H   0  0  0  0  0  0  0  0  0  0  0  0
   60.8074   27.3530   45.2097 H   0  0  0  0  0  0  0  0  0  0  0  0
   55.8370   27.6477   45.6244 H   0  0  0  0  0  0  0  0  0  0  0  0
  1  2  2  0
  2  3  2  0
  2  4  1  0
  4  5  1  0
  5  6  2  0
  6  7  1  0
  7  8  2  0
  8  9  1  0
  8 10  1  0
 10 11  2  0
  2 12  1  0
 12 13  2  0
 13 14  1  0
 14 15  2  0
 15 16  1  0
 15 17  1  0
 17 18  1  0
 17 19  2  0
 11  5  1  0
 19 12  1  0
  4 20  1  0
  6 21  1  0
  7 22  1  0
 10 23  1  0
 11 24  1  0
 13 25  1  0
 14 26  1  0
 19 27  1  0
M  END
>  <UniqueID>  (83) 
73

>  <SMILES>  (83) 
O=S(=O)(Nc1ccc(Cl)cc1)c1ccc(F)c(F)c1

>  <Energy>  (83) 
30.455862815340396

>  <Genealogy>  (83) 
O=S(=O)(Nc1ccc(Cl)cc1)c1ccc(F)c(F)c1 (3D coordinates assigned)
O=S(=O)(Nc1ccc(Cl)cc1)c1ccc(F)c(F)c1 (optimized conformer: 30.455862815340396 kcal/mol)

>  <smiles>  (83) 
O=S(=O)(Nc1ccc(Cl)cc1)c1ccc(F)c(F)c1

>  <score_type>  (83) 
oracle

>  <origin>  (83) 
adg

>  <m_score__min__energy>  (83) 
-7.1399999999999997

>  <m_primary>  (83) 
energy

$$$$
83:0
     RDKit          3D

 32 33  0  0  0  0  0  0  0  0999 V2000
   64.0540   32.4300   48.6520 C   0  0  0  0  0  0  0  0  0  0  0  0
   62.9730   33.2310   48.0590 N   0  0  0  0  0  0  0  0  0  0  0  0
   63.3640   33.7860   46.7540 C   0  0  0  0  0  0  0  0  0  0  0  0
   62.3960   34.2350   48.9840 C   0  0  0  0  0  0  0  0  0  0  0  0
   60.8600   34.1950   49.1380 C   0  0  0  0  0  0  0  0  0  0  0  0
   60.2010   33.6890   47.9350 N   0  0  0  0  0  0  0  0  0  0  0  0
   59.6700   34.4610   46.8550 C   0  0  0  0  0  0  0  0  0  0  0  0
   59.8700   35.6950   46.6970 O   0  0  0  0  0  0  0  0  0  0  0  0
   58.8420   33.6200   45.9980 C   0  0  0  0  0  0  0  0  0  0  0  0
   58.1410   33.9200   44.8350 C   0  0  0  0  0  0  0  0  0  0  0  0
   57.4060   32.8910   44.2200 C   0  0  0  0  0  0  0  0  0  0  0  0
   57.3810   31.5830   44.7740 C   0  0  0  0  0  0  0  0  0  0  0  0
   56.6260   30.5350   44.1370 N   0  0  0  0  0  0  0  0  0  0  0  0
   56.7950   30.2720   42.9290 O   0  0  0  0  0  0  0  0  0  0  0  0
   55.7030   29.8070   44.8530 O   0  0  0  0  0  0  0  0  0  0  0  0
   58.1040   31.3170   45.9600 C   0  0  0  0  0  0  0  0  0  0  0  0
   58.8250   32.3560   46.5440 C   0  0  0  0  0  0  0  0  0  0  0  0
   59.6420   32.3850   47.7520 C   0  0  0  0  0  0  0  0  0  0  0  0
   59.8310   31.4140   48.5330 O   0  0  0  0  0  0  0  0  0  0  0  0
   63.9875   32.4793   49.7489 H   0  0  0  0  0  0  0  0  0  0  0  0
   63.9569   31.3841   48.3254 H   0  0  0  0  0  0  0  0  0  0  0  0
   65.0263   32.8274   48.3254 H   0  0  0  0  0  0  0  0  0  0  0  0
   63.9913   34.6765   46.9074 H   0  0  0  0  0  0  0  0  0  0  0  0
   63.9308   33.0310   46.1894 H   0  0  0  0  0  0  0  0  0  0  0  0
   62.4623   34.0655   46.1894 H   0  0  0  0  0  0  0  0  0  0  0  0
   62.8401   34.0745   49.9775 H   0  0  0  0  0  0  0  0  0  0  0  0
   62.6291   35.2168   48.5461 H   0  0  0  0  0  0  0  0  0  0  0  0
   60.6051   33.5403   49.9844 H   0  0  0  0  0  0  0  0  0  0  0  0
   60.5093   35.2233   49.3100 H   0  0  0  0  0  0  0  0  0  0  0  0
   58.1609   34.9336   44.4082 H   0  0  0  0  0  0  0  0  0  0  0  0
   56.8434   33.1014   43.2985 H   0  0  0  0  0  0  0  0  0  0  0  0
   58.0972   30.3135   46.4106 H   0  0  0  0  0  0  0  0  0  0  0  0
  1  2  1  0
  2  3  1  0
  2  4  1  0
  4  5  1  0
  5  6  1  0
  6  7  1  0
  7  8  2  0
  7  9  1  0
  9 10  2  0
 10 11  1  0
 11 12  2  0
 12 13  1  0
 13 14  2  0
 13 15  1  0
 12 16  1  0
 16 17  2  0
 17 18  1  0
 18 19  2  0
 18  6  1  0
 17  9  1  0
  1 20  1  0
  1 21  1  0
  1 22  1  0
  3 23  1  0
  3 24  1  0
  3 25  1  0
  4 26  1  0
  4 27  1  0
  5 28  1  0
  5 29  1  0
 10 30  1  0
 11 31  1  0
 16 32  1  0
M  CHG  2  13   1  15  -1
M  END
>  <UniqueID>  (84) 
74

>  <SMILES>  (84) 
CN(C)CCN1C(=O)c2ccc([N+](=O)[O-])cc2C1=O

>  <Energy>  (84) 
67.34305937258137

>  <Genealogy>  (84) 
CN(C)CCN1C(=O)c2ccc([N+](=O)[O-])cc2C1=O (3D coordinates assigned)
CN(C)CCN1C(=O)c2ccc([N+](=O)[O-])cc2C1=O (nonaromatic ring conformer: 67.34305937258137 kcal/mol)

>  <smiles>  (84) 
CN(C)CCN1C(=O)c2ccc([N+](=O)[O-])cc2C1=O

>  <score_type>  (84) 
oracle

>  <origin>  (84) 
adg

>  <m_score__min__energy>  (84) 
-6.6500000000000004

>  <m_primary>  (84) 
energy

$$$$
84:0
     RDKit          3D

 51 54  0  0  0  0  0  0  0  0999 V2000
   58.9130   23.6580   45.5180 C   0  0  0  0  0  0  0  0  0  0  0  0
   58.9490   25.0830   45.8590 N   0  0  0  0  0  0  0  0  0  0  0  0
   60.1900   25.6830   46.3690 C   0  0  0  0  0  0  0  0  0  0  0  0
   60.0110   27.1670   46.5410 C   0  0  0  0  0  0  0  0  0  0  0  0
   60.4270   28.0500   45.5300 C   0  0  0  0  0  0  0  0  0  0  0  0
   60.3100   29.4330   45.7120 C   0  0  0  0  0  0  0  0  0  0  0  0
   59.7800   29.9400   46.9040 C   0  0  0  0  0  0  0  0  0  0  0  0
   59.3790   29.0660   47.9190 C   0  0  0  0  0  0  0  0  0  0  0  0
   59.4960   27.6840   47.7420 C   0  0  0  0  0  0  0  0  0  0  0  0
   57.7060   25.8010   45.9520 C   0  0  0  0  0  0  0  0  0  0  0  0
   56.8170   25.3970   46.7500 O   0  0  0  0  0  0  0  0  0  0  0  0
   57.4370   26.9970   45.1200 C   0  0  0  0  0  0  0  0  0  0  0  0
   56.6380   28.0400   45.6210 C   0  0  0  0  0  0  0  0  0  0  0  0
   56.3530   29.1550   44.8300 C   0  0  0  0  0  0  0  0  0  0  0  0
   56.8650   29.2550   43.5320 C   0  0  0  0  0  0  0  0  0  0  0  0
   56.5180   30.3970   42.7370 N   0  0  0  0  0  0  0  0  0  0  0  0
   57.2910   31.5960   42.5950 C   0  0  0  0  0  0  0  0  0  0  0  0
   57.5870   32.0340   41.4500 O   0  0  0  0  0  0  0  0  0  0  0  0
   57.7680   32.2740   43.7640 N   0  0  0  0  0  0  0  0  0  0  0  0
   57.3950   31.8990   45.1300 C   0  0  0  0  0  0  0  0  0  0  0  0
   58.1100   32.9040   45.9560 C   0  0  0  0  0  0  0  0  0  0  0  0
   58.1500   32.9950   47.3480 C   0  0  0  0  0  0  0  0  0  0  0  0
   58.9100   34.0230   47.9290 C   0  0  0  0  0  0  0  0  0  0  0  0
   59.6090   34.9370   47.1150 C   0  0  0  0  0  0  0  0  0  0  0  0
   59.5610   34.8230   45.7160 C   0  0  0  0  0  0  0  0  0  0  0  0
   58.7990   33.7940   45.1600 C   0  0  0  0  0  0  0  0  0  0  0  0
   58.6290   33.4590   43.7250 C   0  0  0  0  0  0  0  0  0  0  0  0
   57.6460   28.2030   43.0150 C   0  0  0  0  0  0  0  0  0  0  0  0
   57.9250   27.0820   43.8040 C   0  0  0  0  0  0  0  0  0  0  0  0
   58.8979   23.0603   46.4413 H   0  0  0  0  0  0  0  0  0  0  0  0
   58.0092   23.4448   44.9284 H   0  0  0  0  0  0  0  0  0  0  0  0
   59.8049   23.3994   44.9284 H   0  0  0  0  0  0  0  0  0  0  0  0
   60.4408   25.2313   47.3401 H   0  0  0  0  0  0  0  0  0  0  0  0
   61.0024   25.4980   45.6508 H   0  0  0  0  0  0  0  0  0  0  0  0
   60.8456   27.6534   44.5933 H   0  0  0  0  0  0  0  0  0  0  0  0
   60.6347   30.1215   44.9179 H   0  0  0  0  0  0  0  0  0  0  0  0
   59.6789   31.0266   47.0424 H   0  0  0  0  0  0  0  0  0  0  0  0
   58.9707   29.4664   48.8586 H   0  0  0  0  0  0  0  0  0  0  0  0
   59.1842   26.9997   48.5448 H   0  0  0  0  0  0  0  0  0  0  0  0
   56.2349   27.9772   46.6425 H   0  0  0  0  0  0  0  0  0  0  0  0
   55.7209   29.9611   45.2308 H   0  0  0  0  0  0  0  0  0  0  0  0
   56.3070   31.9681   45.2764 H   0  0  0  0  0  0  0  0  0  0  0  0
   57.6584   30.8615   45.3832 H   0  0  0  0  0  0  0  0  0  0  0  0
   57.5993   32.2785   47.9752 H   0  0  0  0  0  0  0  0  0  0  0  0
   58.9600   34.1153   49.0240 H   0  0  0  0  0  0  0  0  0  0  0  0
   60.1955   35.7442   47.5781 H   0  0  0  0  0  0  0  0  0  0  0  0
   60.1104   35.5273   45.0741 H   0  0  0  0  0  0  0  0  0  0  0  0
   58.1436   34.2829   43.1813 H   0  0  0  0  0  0  0  0  0  0  0  0
   59.5822   33.2858   43.2040 H   0  0  0  0  0  0  0  0  0  0  0  0
   58.0374   28.2630   41.9887 H   0  0  0  0  0  0  0  0  0  0  0  0
   58.5304   26.2612   43.3920 H   0  0  0  0  0  0  0  0  0  0  0  0
  1  2  1  0
  2  3  1  0
  3  4  1  0
  4  5  2  0
  5  6  1  0
  6  7  2  0
  7  8  1  0
  8  9  2  0
  2 10  1  0
 10 11  2  0
 10 12  1  0
 12 13  2  0
 13 14  1  0
 14 15  2  0
 15 16  1  0
 16 17  1  0
 17 18  2  0
 17 19  1  0
 19 20  1  0
 20 21  1  0
 21 22  2  0
 22 23  1  0
 23 24  2  0
 24 25  1  0
 25 26  2  0
 26 27  1  0
 15 28  1  0
 28 29  2  0
  9  4  1  0
 29 12  1  0
 27 19  1  0
 26 21  1  0
  1 30  1  0
  1 31  1  0
  1 32  1  0
  3 33  1  0
  3 34  1  0
  5 35  1  0
  6 36  1  0
  7 37  1  0
  8 38  1  0
  9 39  1  0
 13 40  1  0
 14 41  1  0
 20 42  1  0
 20 43  1  0
 22 44  1  0
 23 45  1  0
 24 46  1  0
 25 47  1  0
 27 48  1  0
 27 49  1  0
 28 50  1  0
 29 51  1  0
M  CHG  1  16  -1
M  END
>  <UniqueID>  (85) 
75

>  <SMILES>  (85) 
CN(Cc1ccccc1)C(=O)c1ccc([N-]C(=O)N2Cc3ccccc3C2)cc1

>  <Energy>  (85) 
69.96045665377947

>  <Genealogy>  (85) 
CN(Cc1ccccc1)C(=O)c1ccc([N-]C(=O)N2Cc3ccccc3C2)cc1 (protonated)
CN(Cc1ccccc1)C(=O)c1ccc([N-]C(=O)N2Cc3ccccc3C2)cc1 (3D coordinates assigned)
CN(Cc1ccccc1)C(=O)c1ccc([N-]C(=O)N2Cc3ccccc3C2)cc1 (nonaromatic ring conformer: 69.96045665377947 kcal/mol)

>  <smiles>  (85) 
CN(Cc1ccccc1)C(=O)c1ccc(NC(=O)N2Cc3ccccc3C2)cc1

>  <score_type>  (85) 
oracle

>  <origin>  (85) 
adg

>  <m_score__min__energy>  (85) 
-10.199999999999999

>  <m_primary>  (85) 
energy

$$$$
85:0
     RDKit          3D

 33 34  0  0  0  0  0  0  0  0999 V2000
   58.1230   28.0950   44.2550 C   0  0  0  0  0  0  0  0  0  0  0  0
   56.6500   28.5410   45.2320 S   0  0  0  0  0  0  0  0  0  0  0  0
   55.9610   29.7060   44.0060 C   0  0  0  0  0  0  0  0  0  0  0  0
   56.8230   30.9210   43.9010 C   0  0  0  0  0  0  0  0  0  0  0  0
   57.3590   31.4350   42.7370 C   0  0  0  0  0  0  0  0  0  0  0  0
   58.0630   32.5590   43.1130 C   0  0  0  0  0  0  0  0  0  0  0  0
   57.9120   32.6580   44.4860 C   0  0  0  0  0  0  0  0  0  0  0  0
   58.4700   33.6970   45.3680 C   0  0  0  0  0  0  0  0  0  0  0  0
   58.7850   34.8110   44.8710 O   0  0  0  0  0  0  0  0  0  0  0  0
   58.6590   33.4600   46.7730 N   0  0  0  0  0  0  0  0  0  0  0  0
   59.2990   34.4400   47.6500 C   0  0  0  0  0  0  0  0  0  0  0  0
   60.7700   34.1490   47.7680 C   0  0  0  0  0  0  0  0  0  0  0  0
   61.4130   34.2080   49.0160 C   0  0  0  0  0  0  0  0  0  0  0  0
   62.7860   33.9570   49.1130 C   0  0  0  0  0  0  0  0  0  0  0  0
   63.5240   33.6500   47.9670 C   0  0  0  0  0  0  0  0  0  0  0  0
   62.8920   33.5960   46.7210 C   0  0  0  0  0  0  0  0  0  0  0  0
   61.5200   33.8450   46.6200 C   0  0  0  0  0  0  0  0  0  0  0  0
   57.1660   31.6670   44.9240 O   0  0  0  0  0  0  0  0  0  0  0  0
   58.9512   27.8442   44.9341 H   0  0  0  0  0  0  0  0  0  0  0  0
   57.8930   27.2262   43.6207 H   0  0  0  0  0  0  0  0  0  0  0  0
   58.4136   28.9454   43.6207 H   0  0  0  0  0  0  0  0  0  0  0  0
   55.9103   29.2116   43.0247 H   0  0  0  0  0  0  0  0  0  0  0  0
   54.9541   30.0095   44.3286 H   0  0  0  0  0  0  0  0  0  0  0  0
   57.2474   31.0311   41.7199 H   0  0  0  0  0  0  0  0  0  0  0  0
   58.6284   33.2376   42.4573 H   0  0  0  0  0  0  0  0  0  0  0  0
   58.3250   32.5700   47.2020 H   0  0  0  0  0  0  0  0  0  0  0  0
   59.1604   35.4476   47.2311 H   0  0  0  0  0  0  0  0  0  0  0  0
   58.8404   34.3819   48.6482 H   0  0  0  0  0  0  0  0  0  0  0  0
   60.8351   34.4523   49.9195 H   0  0  0  0  0  0  0  0  0  0  0  0
   63.2849   34.0014   50.0924 H   0  0  0  0  0  0  0  0  0  0  0  0
   64.6030   33.4507   48.0451 H   0  0  0  0  0  0  0  0  0  0  0  0
   63.4749   33.3573   45.8192 H   0  0  0  0  0  0  0  0  0  0  0  0
   61.0261   33.8027   45.6380 H   0  0  0  0  0  0  0  0  0  0  0  0
  1  2  1  0
  2  3  1  0
  3  4  1  0
  4  5  2  0
  5  6  1  0
  6  7  2  0
  7  8  1  0
  8  9  2  0
  8 10  1  0
 10 11  1  0
 11 12  1  0
 12 13  2  0
 13 14  1  0
 14 15  2  0
 15 16  1  0
 16 17  2  0
  7 18  1  0
 18  4  1  0
 17 12  1  0
  1 19  1  0
  1 20  1  0
  1 21  1  0
  3 22  1  0
  3 23  1  0
  5 24  1  0
  6 25  1  0
 10 26  1  0
 11 27  1  0
 11 28  1  0
 13 29  1  0
 14 30  1  0
 15 31  1  0
 16 32  1  0
 17 33  1  0
M  END
>  <UniqueID>  (86) 
76

>  <SMILES>  (86) 
CSCc1ccc(C(=O)NCc2ccccc2)o1

>  <Energy>  (86) 
51.23053481470791

>  <Genealogy>  (86) 
CSCc1ccc(C(=O)NCc2ccccc2)o1 (3D coordinates assigned)
CSCc1ccc(C(=O)NCc2ccccc2)o1 (optimized conformer: 51.23053481470791 kcal/mol)

>  <smiles>  (86) 
CSCc1ccc(C(=O)NCc2ccccc2)o1

>  <score_type>  (86) 
oracle

>  <origin>  (86) 
adg

>  <m_score__min__energy>  (86) 
-7.1100000000000003

>  <m_primary>  (86) 
energy

$$$$
86:0
     RDKit          3D

 16 16  0  0  0  0  0  0  0  0999 V2000
   57.7090   32.2910   42.7640 N   0  0  0  0  0  0  0  0  0  0  0  0
   57.5970   31.3230   43.3880 C   0  0  0  0  0  0  0  0  0  0  0  0
   57.4570   30.1150   44.1670 C   0  0  0  0  0  0  0  0  0  0  0  0
   58.6000   29.4330   44.5980 C   0  0  0  0  0  0  0  0  0  0  0  0
   58.4770   28.2510   45.3440 C   0  0  0  0  0  0  0  0  0  0  0  0
   59.7000   27.5350   45.8570 C   0  0  0  0  0  0  0  0  0  0  0  0
   60.8390   27.9920   45.2190 F   0  0  0  0  0  0  0  0  0  0  0  0
   59.5650   26.1790   45.6230 F   0  0  0  0  0  0  0  0  0  0  0  0
   59.8530   27.7440   47.2170 F   0  0  0  0  0  0  0  0  0  0  0  0
   57.1900   27.8030   45.6820 C   0  0  0  0  0  0  0  0  0  0  0  0
   56.0890   28.4790   45.2540 N   0  0  0  0  0  0  0  0  0  0  0  0
   56.1920   29.6140   44.5070 C   0  0  0  0  0  0  0  0  0  0  0  0
   55.1460   30.2100   44.1300 O   0  0  0  0  0  0  0  0  0  0  0  0
   59.5979   29.8245   44.3513 H   0  0  0  0  0  0  0  0  0  0  0  0
   57.0707   26.8990   46.2973 H   0  0  0  0  0  0  0  0  0  0  0  0
   55.1440   28.1170   45.5130 H   0  0  0  0  0  0  0  0  0  0  0  0
  1  2  3  0
  2  3  1  0
  3  4  2  0
  4  5  1  0
  5  6  1  0
  6  7  1  0
  6  8  1  0
  6  9  1  0
  5 10  2  0
 10 11  1  0
 11 12  1  0
 12 13  2  0
 12  3  1  0
  4 14  1  0
 10 15  1  0
 11 16  1  0
M  END
>  <UniqueID>  (87) 
77

>  <SMILES>  (87) 
N#Cc1cc(C(F)(F)F)c[nH]c1=O

>  <Energy>  (87) 
15.512585162298803

>  <Genealogy>  (87) 
N#Cc1cc(C(F)(F)F)c[nH]c1=O (3D coordinates assigned)
N#Cc1cc(C(F)(F)F)c[nH]c1=O (optimized conformer: 15.512585162298803 kcal/mol)

>  <smiles>  (87) 
N#Cc1cc(C(F)(F)F)c[nH]c1=O

>  <score_type>  (87) 
oracle

>  <origin>  (87) 
adg

>  <m_score__min__energy>  (87) 
-4.3300000000000001

>  <m_primary>  (87) 
energy

$$$$
87:0
     RDKit          3D

 42 44  0  0  0  0  0  0  0  0999 V2000
   64.5330   32.3540   46.6210 H   0  0  0  0  0  0  0  0  0  0  0  0
   63.7710   33.0240   46.3690 N   0  0  0  0  0  0  0  0  0  0  0  0
   62.8390   33.3710   47.2030 C   0  0  0  0  0  0  0  0  0  0  0  0
   61.6400   33.9190   46.7240 C   0  0  0  0  0  0  0  0  0  0  0  0
   61.4901   34.0575   45.6431 H   0  0  0  0  0  0  0  0  0  0  0  0
   60.6380   34.2880   47.6220 C   0  0  0  0  0  0  0  0  0  0  0  0
   59.0980   34.9710   47.0050 S   0  0  0  0  0  0  0  0  0  0  0  0
   58.6470   33.4410   46.1880 C   0  0  0  0  0  0  0  0  0  0  0  0
   58.7990   32.2210   46.8520 C   0  0  0  0  0  0  0  0  0  0  0  0
   59.2033   32.2002   47.8748 H   0  0  0  0  0  0  0  0  0  0  0  0
   58.4390   31.0270   46.2210 C   0  0  0  0  0  0  0  0  0  0  0  0
   58.5612   30.0725   46.7540 H   0  0  0  0  0  0  0  0  0  0  0  0
   57.9200   31.0310   44.9070 C   0  0  0  0  0  0  0  0  0  0  0  0
   57.5430   29.7920   44.2510 N   0  0  0  0  0  0  0  0  0  0  0  0
   56.3670   29.7390   43.3740 C   0  0  0  0  0  0  0  0  0  0  0  0
   55.4543   29.6979   43.9866 H   0  0  0  0  0  0  0  0  0  0  0  0
   56.3423   30.6369   42.7391 H   0  0  0  0  0  0  0  0  0  0  0  0
   56.4232   28.8425   42.7391 H   0  0  0  0  0  0  0  0  0  0  0  0
   58.3330   28.5710   44.4540 C   0  0  0  0  0  0  0  0  0  0  0  0
   58.4524   28.3865   45.5318 H   0  0  0  0  0  0  0  0  0  0  0  0
   57.8151   27.7180   43.9911 H   0  0  0  0  0  0  0  0  0  0  0  0
   59.3233   28.6938   43.9911 H   0  0  0  0  0  0  0  0  0  0  0  0
   57.7780   32.2730   44.2500 C   0  0  0  0  0  0  0  0  0  0  0  0
   57.3782   32.3038   43.2257 H   0  0  0  0  0  0  0  0  0  0  0  0
   58.1400   33.4640   44.8870 C   0  0  0  0  0  0  0  0  0  0  0  0
   58.0249   34.4232   44.3610 H   0  0  0  0  0  0  0  0  0  0  0  0
   60.8200   34.1260   48.9610 N   0  0  0  0  0  0  0  0  0  0  0  0
   60.0510   34.4120   49.6090 H   0  0  0  0  0  0  0  0  0  0  0  0
   61.9720   33.5960   49.4660 C   0  0  0  0  0  0  0  0  0  0  0  0
   62.1260   33.4360   50.8510 C   0  0  0  0  0  0  0  0  0  0  0  0
   61.3155   33.7404   51.5296 H   0  0  0  0  0  0  0  0  0  0  0  0
   63.3010   32.8930   51.3740 C   0  0  0  0  0  0  0  0  0  0  0  0
   63.4109   32.7724   52.4618 H   0  0  0  0  0  0  0  0  0  0  0  0
   64.3460   32.4990   50.5170 C   0  0  0  0  0  0  0  0  0  0  0  0
   65.5440   31.9500   50.9980 O   0  0  0  0  0  0  0  0  0  0  0  0
   66.8390   32.3050   50.5250 C   0  0  0  0  0  0  0  0  0  0  0  0
   67.5048   32.4875   51.3814 H   0  0  0  0  0  0  0  0  0  0  0  0
   67.2438   31.4847   49.9141 H   0  0  0  0  0  0  0  0  0  0  0  0
   66.7689   33.2171   49.9141 H   0  0  0  0  0  0  0  0  0  0  0  0
   64.1960   32.6570   49.1340 C   0  0  0  0  0  0  0  0  0  0  0  0
   65.0106   32.3510   48.4611 H   0  0  0  0  0  0  0  0  0  0  0  0
   63.0150   33.2030   48.5930 C   0  0  0  0  0  0  0  0  0  0  0  0
  1  2  1  0
  2  3  2  0
  3  4  1  0
  4  5  1  0
  4  6  2  0
  6  7  1  0
  7  8  1  0
  8  9  2  0
  9 10  1  0
  9 11  1  0
 11 12  1  0
 11 13  2  0
 13 14  1  0
 14 15  1  0
 15 16  1  0
 15 17  1  0
 15 18  1  0
 14 19  1  0
 19 20  1  0
 19 21  1  0
 19 22  1  0
 13 23  1  0
 23 24  1  0
 23 25  2  0
 25 26  1  0
  6 27  1  0
 27 28  1  0
 27 29  1  0
 29 30  2  0
 30 31  1  0
 30 32  1  0
 32 33  1  0
 32 34  2  0
 34 35  1  0
 35 36  1  0
 36 37  1  0
 36 38  1  0
 36 39  1  0
 34 40  1  0
 40 41  1  0
 40 42  2  0
 42  3  1  0
 25  8  1  0
 42 29  1  0
M  END
>  <UniqueID>  (88) 
78

>  <SMILES>  (88) 
[H]/N=c1\cc(Sc2ccc(N(C)C)cc2)[nH]c2ccc(OC)cc12

>  <Energy>  (88) 
45.42456636507073

>  <Genealogy>  (88) 
[H]/N=c1\cc(Sc2ccc(N(C)C)cc2)[nH]c2ccc(OC)cc12 (cis-trans isomerization)
[H]/N=c1\cc(Sc2ccc(N(C)C)cc2)[nH]c2ccc(OC)cc12 (3D coordinates assigned)
[H]/N=c1\cc(Sc2ccc(N(C)C)cc2)[nH]c2ccc(OC)cc12 (optimized conformer: 45.42456636507073 kcal/mol)

>  <smiles>  (88) 
COc1ccc2[nH]c(Sc3ccc(N(C)C)cc3)cc(=N)c2c1

>  <score_type>  (88) 
oracle

>  <origin>  (88) 
adg

>  <m_score__min__energy>  (88) 
-7.2699999999999996

>  <m_primary>  (88) 
energy

$$$$
88:0
     RDKit          3D

 31 32  0  0  0  0  0  0  0  0999 V2000
   57.3921   33.5329   43.4002 H   0  0  0  0  0  0  0  0  0  0  0  0
   57.7210   33.4050   44.4420 C   0  0  0  0  0  0  0  0  0  0  0  0
   58.4690   34.4100   45.0610 C   0  0  0  0  0  0  0  0  0  0  0  0
   58.7378   35.3173   44.5002 H   0  0  0  0  0  0  0  0  0  0  0  0
   58.8780   34.2660   46.3940 C   0  0  0  0  0  0  0  0  0  0  0  0
   59.6420   35.2940   47.0300 N   0  0  0  0  0  0  0  0  0  0  0  0
   59.2430   36.2500   47.1650 H   0  0  0  0  0  0  0  0  0  0  0  0
   60.6120   35.1080   47.3690 H   0  0  0  0  0  0  0  0  0  0  0  0
   58.5240   33.1090   47.1030 C   0  0  0  0  0  0  0  0  0  0  0  0
   58.8354   32.9925   48.1515 H   0  0  0  0  0  0  0  0  0  0  0  0
   57.7770   32.1030   46.4830 C   0  0  0  0  0  0  0  0  0  0  0  0
   57.4930   31.2035   47.0489 H   0  0  0  0  0  0  0  0  0  0  0  0
   57.3870   32.2370   45.1370 C   0  0  0  0  0  0  0  0  0  0  0  0
   56.6000   31.2400   44.4690 N   0  0  0  0  0  0  0  0  0  0  0  0
   56.4280   29.8750   44.8680 C   0  0  0  0  0  0  0  0  0  0  0  0
   55.2880   29.3400   44.8320 O   0  0  0  0  0  0  0  0  0  0  0  0
   57.5860   29.1260   45.2700 N   0  0  0  0  0  0  0  0  0  0  0  0
   57.6600   27.9700   45.8750 C   0  0  0  0  0  0  0  0  0  0  0  0
   58.7000   27.6410   46.7710 C   0  0  0  0  0  0  0  0  0  0  0  0
   59.4961   28.3688   46.9868 H   0  0  0  0  0  0  0  0  0  0  0  0
   58.7110   26.3860   47.3810 C   0  0  0  0  0  0  0  0  0  0  0  0
   59.5113   26.1271   48.0899 H   0  0  0  0  0  0  0  0  0  0  0  0
   57.7110   25.4610   47.0940 C   0  0  0  0  0  0  0  0  0  0  0  0
   57.7067   24.4773   47.5863 H   0  0  0  0  0  0  0  0  0  0  0  0
   56.7120   25.7940   46.1740 C   0  0  0  0  0  0  0  0  0  0  0  0
   55.6130   24.8180   45.8750 C   0  0  0  0  0  0  0  0  0  0  0  0
   55.1898   24.4421   46.8182 H   0  0  0  0  0  0  0  0  0  0  0  0
   54.8252   25.3196   45.2938 H   0  0  0  0  0  0  0  0  0  0  0  0
   56.0180   23.9765   45.2938 H   0  0  0  0  0  0  0  0  0  0  0  0
   56.7060   27.0320   45.5980 N   0  0  0  0  0  0  0  0  0  0  0  0
   55.9390   27.2740   44.9290 H   0  0  0  0  0  0  0  0  0  0  0  0
  1  2  1  0
  2  3  2  0
  3  4  1  0
  3  5  1  0
  5  6  1  0
  6  7  1  0
  6  8  1  0
  5  9  2  0
  9 10  1  0
  9 11  1  0
 11 12  1  0
 11 13  2  0
 13 14  1  0
 14 15  1  0
 15 16  2  0
 15 17  1  0
 17 18  2  0
 18 19  1  0
 19 20  1  0
 19 21  2  0
 21 22  1  0
 21 23  1  0
 23 24  1  0
 23 25  2  0
 25 26  1  0
 26 27  1  0
 26 28  1  0
 26 29  1  0
 25 30  1  0
 30 31  1  0
 13  2  1  0
 30 18  1  0
M  CHG  1  14  -1
M  END
>  <UniqueID>  (89) 
79

>  <SMILES>  (89) 
Cc1ccc/c(=N\C(=O)[N-]c2ccc(N)cc2)[nH]1

>  <Energy>  (89) 
41.349001521559266

>  <Genealogy>  (89) 
Cc1cccc(=NC(=O)[N-]c2ccc(N)cc2)[nH]1 (protonated)
Cc1ccc/c(=N\C(=O)[N-]c2ccc(N)cc2)[nH]1 (cis-trans isomerization)
Cc1ccc/c(=N\C(=O)[N-]c2ccc(N)cc2)[nH]1 (3D coordinates assigned)
Cc1ccc/c(=N\C(=O)[N-]c2ccc(N)cc2)[nH]1 (optimized conformer: 41.349001521559266 kcal/mol)

>  <smiles>  (89) 
Cc1cccc(=NC(=O)Nc2ccc(N)cc2)[nH]1

>  <score_type>  (89) 
oracle

>  <origin>  (89) 
adg

>  <m_score__min__energy>  (89) 
-8.4900000000000002

>  <m_primary>  (89) 
energy

$$$$
89:0
     RDKit          3D

 58 61  0  0  0  0  0  0  0  0999 V2000
   55.5450   29.7200   45.9790 H   0  0  0  0  0  0  0  0  0  0  0  0
   55.5340   29.6360   44.9390 N   0  0  0  0  0  0  0  0  0  0  0  0
   56.4360   30.1990   44.1970 C   0  0  0  0  0  0  0  0  0  0  0  0
   57.3270   31.2320   44.7830 C   0  0  0  0  0  0  0  0  0  0  0  0
   57.0120   32.5940   44.6560 C   0  0  0  0  0  0  0  0  0  0  0  0
   56.0994   32.8944   44.1204 H   0  0  0  0  0  0  0  0  0  0  0  0
   57.8460   33.5710   45.2030 C   0  0  0  0  0  0  0  0  0  0  0  0
   57.5774   34.6333   45.1058 H   0  0  0  0  0  0  0  0  0  0  0  0
   59.0260   33.2100   45.8770 C   0  0  0  0  0  0  0  0  0  0  0  0
   59.9080   34.2160   46.4160 N   0  0  0  0  0  0  0  0  0  0  0  0
   60.2280   34.9940   45.7970 H   0  0  0  0  0  0  0  0  0  0  0  0
   60.2550   34.3090   47.8340 C   0  0  0  0  0  0  0  0  0  0  0  0
   60.1696   35.3557   48.1613 H   0  0  0  0  0  0  0  0  0  0  0  0
   59.5668   33.6771   48.4146 H   0  0  0  0  0  0  0  0  0  0  0  0
   61.6570   33.8350   48.0540 C   0  0  0  0  0  0  0  0  0  0  0  0
   62.1540   33.5080   49.2660 N   0  0  0  0  0  0  0  0  0  0  0  0
   63.4690   33.1660   49.1990 C   0  0  0  0  0  0  0  0  0  0  0  0
   64.0461   32.8627   50.0850 H   0  0  0  0  0  0  0  0  0  0  0  0
   64.0300   33.2280   47.9280 C   0  0  0  0  0  0  0  0  0  0  0  0
   65.0728   32.9929   47.6685 H   0  0  0  0  0  0  0  0  0  0  0  0
   62.8320   33.7260   46.8580 S   0  0  0  0  0  0  0  0  0  0  0  0
   59.3640   31.8480   45.9880 C   0  0  0  0  0  0  0  0  0  0  0  0
   60.5890   31.4710   46.6340 N   0  0  0  0  0  0  0  0  0  0  0  0
   60.7780   30.2980   47.4390 C   0  0  0  0  0  0  0  0  0  0  0  0
   61.6670   30.3150   48.3310 O   0  0  0  0  0  0  0  0  0  0  0  0
   59.9910   29.0620   47.2180 C   0  0  0  0  0  0  0  0  0  0  0  0
   58.9000   28.7460   48.0460 C   0  0  0  0  0  0  0  0  0  0  0  0
   58.6202   29.4263   48.8638 H   0  0  0  0  0  0  0  0  0  0  0  0
   58.1690   27.5750   47.8380 C   0  0  0  0  0  0  0  0  0  0  0  0
   57.3268   27.3324   48.5027 H   0  0  0  0  0  0  0  0  0  0  0  0
   58.5000   26.7040   46.7870 C   0  0  0  0  0  0  0  0  0  0  0  0
   57.7530   25.4880   46.5830 N   0  0  0  0  0  0  0  0  0  0  0  0
   57.4900   24.9780   45.2320 C   0  0  0  0  0  0  0  0  0  0  0  0
   57.7814   25.7410   44.4952 H   0  0  0  0  0  0  0  0  0  0  0  0
   58.0746   24.0584   45.0817 H   0  0  0  0  0  0  0  0  0  0  0  0
   55.9930   24.6480   45.0540 C   0  0  0  0  0  0  0  0  0  0  0  0
   55.5045   25.4951   44.5502 H   0  0  0  0  0  0  0  0  0  0  0  0
   55.9273   23.7246   44.4599 H   0  0  0  0  0  0  0  0  0  0  0  0
   55.2990   24.3990   46.3410 N   0  0  0  0  0  0  0  0  0  0  0  0
   54.0760   23.6110   46.1230 C   0  0  0  0  0  0  0  0  0  0  0  0
   53.6420   23.3314   47.0943 H   0  0  0  0  0  0  0  0  0  0  0  0
   53.3493   24.2112   45.5558 H   0  0  0  0  0  0  0  0  0  0  0  0
   54.3222   22.7012   45.5558 H   0  0  0  0  0  0  0  0  0  0  0  0
   56.1770   23.7330   47.3190 C   0  0  0  0  0  0  0  0  0  0  0  0
   55.5904   23.4425   48.2030 H   0  0  0  0  0  0  0  0  0  0  0  0
   56.6202   22.8332   46.8674 H   0  0  0  0  0  0  0  0  0  0  0  0
   57.2880   24.7030   47.7360 C   0  0  0  0  0  0  0  0  0  0  0  0
   56.9002   25.3868   48.5055 H   0  0  0  0  0  0  0  0  0  0  0  0
   58.1339   24.1222   48.1324 H   0  0  0  0  0  0  0  0  0  0  0  0
   59.5840   27.0250   45.9530 C   0  0  0  0  0  0  0  0  0  0  0  0
   59.8572   26.3499   45.1286 H   0  0  0  0  0  0  0  0  0  0  0  0
   60.3180   28.1960   46.1630 C   0  0  0  0  0  0  0  0  0  0  0  0
   61.1582   28.4406   45.4964 H   0  0  0  0  0  0  0  0  0  0  0  0
   58.5070   30.8690   45.4540 C   0  0  0  0  0  0  0  0  0  0  0  0
   58.7639   29.8050   45.5631 H   0  0  0  0  0  0  0  0  0  0  0  0
   56.5650   29.8090   42.8240 N   0  0  0  0  0  0  0  0  0  0  0  0
   55.8900   29.1350   42.3990 H   0  0  0  0  0  0  0  0  0  0  0  0
   57.3740   30.1200   42.2430 H   0  0  0  0  0  0  0  0  0  0  0  0
  1  2  1  0
  2  3  2  0
  3  4  1  0
  4  5  2  0
  5  6  1  0
  5  7  1  0
  7  8  1  0
  7  9  2  0
  9 10  1  0
 10 11  1  0
 10 12  1  0
 12 13  1  0
 12 14  1  0
 12 15  1  0
 15 16  2  0
 16 17  1  0
 17 18  1  0
 17 19  2  0
 19 20  1  0
 19 21  1  0
  9 22  1  0
 22 23  1  0
 23 24  1  0
 24 25  2  0
 24 26  1  0
 26 27  2  0
 27 28  1  0
 27 29  1  0
 29 30  1  0
 29 31  2  0
 31 32  1  0
 32 33  1  0
 33 34  1  0
 33 35  1  0
 33 36  1  0
 36 37  1  0
 36 38  1  0
 36 39  1  0
 39 40  1  0
 40 41  1  0
 40 42  1  0
 40 43  1  0
 39 44  1  0
 44 45  1  0
 44 46  1  0
 44 47  1  0
 47 48  1  0
 47 49  1  0
 31 50  1  0
 50 51  1  0
 50 52  2  0
 52 53  1  0
 22 54  2  0
 54 55  1  0
  3 56  1  0
 56 57  1  0
 56 58  1  0
 54  4  1  0
 21 15  1  0
 52 26  1  0
 47 32  1  0
M  CHG  1  23  -1
M  END
>  <UniqueID>  (90) 
80

>  <SMILES>  (90) 
[H]/N=C(\N)c1ccc(NCc2nccs2)c([N-]C(=O)c2ccc(N3CCN(C)CC3)cc2)c1

>  <Energy>  (90) 
106.26298552216313

>  <Genealogy>  (90) 
CN1CCN(c2ccc(C(=O)[N-]c3cc(C(=N)N)ccc3NCc3nccs3)cc2)CC1 (protonated)
[H]/N=C(\N)c1ccc(NCc2nccs2)c([N-]C(=O)c2ccc(N3CCN(C)CC3)cc2)c1 (cis-trans isomerization)
[H]/N=C(\N)c1ccc(NCc2nccs2)c([N-]C(=O)c2ccc(N3CCN(C)CC3)cc2)c1 (3D coordinates assigned)
[H]/N=C(\N)c1ccc(NCc2nccs2)c([N-]C(=O)c2ccc(N3CCN(C)CC3)cc2)c1 (nonaromatic ring conformer: 106.26298552216313 kcal/mol)

>  <smiles>  (90) 
CN1CCN(c2ccc(C(=O)Nc3cc(C(=N)N)ccc3NCc3nccs3)cc2)CC1

>  <score_type>  (90) 
oracle

>  <origin>  (90) 
adg

>  <m_score__min__energy>  (90) 
-9.8300000000000001

>  <m_primary>  (90) 
energy

$$$$
90:0
     RDKit          3D

 42 44  0  0  0  0  0  0  0  0999 V2000
   55.4805   30.6698   52.3494 H   0  0  0  0  0  0  0  0  0  0  0  0
   56.5190   30.7550   51.9970 C   0  0  0  0  0  0  0  0  0  0  0  0
   57.3370   29.6760   51.8700 N   0  0  0  0  0  0  0  0  0  0  0  0
   58.5630   30.0360   51.4290 C   0  0  0  0  0  0  0  0  0  0  0  0
   59.5310   29.2000   51.1950 N   0  0  0  0  0  0  0  0  0  0  0  0
   60.5260   29.3400   50.1690 C   0  0  0  0  0  0  0  0  0  0  0  0
   61.7270   29.4870   50.5150 O   0  0  0  0  0  0  0  0  0  0  0  0
   60.1930   29.2570   48.7270 C   0  0  0  0  0  0  0  0  0  0  0  0
   60.8950   30.0400   47.7950 C   0  0  0  0  0  0  0  0  0  0  0  0
   61.6870   30.7206   48.1408 H   0  0  0  0  0  0  0  0  0  0  0  0
   60.5950   29.9610   46.4320 C   0  0  0  0  0  0  0  0  0  0  0  0
   61.1464   30.5839   45.7123 H   0  0  0  0  0  0  0  0  0  0  0  0
   59.5930   29.0900   45.9790 C   0  0  0  0  0  0  0  0  0  0  0  0
   59.2700   28.9870   44.5120 C   0  0  0  0  0  0  0  0  0  0  0  0
   59.9680   28.2830   44.0354 H   0  0  0  0  0  0  0  0  0  0  0  0
   59.3668   29.9823   44.0538 H   0  0  0  0  0  0  0  0  0  0  0  0
   57.8890   28.5050   44.3240 N   0  0  0  0  0  0  0  0  0  0  0  0
   57.7990   27.6090   43.1610 C   0  0  0  0  0  0  0  0  0  0  0  0
   57.6946   26.5697   43.5060 H   0  0  0  0  0  0  0  0  0  0  0  0
   56.9239   27.8834   42.5536 H   0  0  0  0  0  0  0  0  0  0  0  0
   58.7112   27.7038   42.5536 H   0  0  0  0  0  0  0  0  0  0  0  0
   56.8210   29.8660   44.0810 S   0  0  0  0  0  0  0  0  0  0  0  0
   55.5410   29.6610   44.8420 O   0  0  0  0  0  0  0  0  0  0  0  0
   56.5070   30.0050   42.6160 O   0  0  0  0  0  0  0  0  0  0  0  0
   57.5960   31.3320   44.6750 C   0  0  0  0  0  0  0  0  0  0  0  0
   58.0340   32.3030   43.7640 C   0  0  0  0  0  0  0  0  0  0  0  0
   57.8984   32.1428   42.6842 H   0  0  0  0  0  0  0  0  0  0  0  0
   58.6430   33.4750   44.2240 C   0  0  0  0  0  0  0  0  0  0  0  0
   58.9821   34.2366   43.5064 H   0  0  0  0  0  0  0  0  0  0  0  0
   58.8210   33.6790   45.5960 C   0  0  0  0  0  0  0  0  0  0  0  0
   59.6520   35.2800   46.2250 Br  0  0  0  0  0  0  0  0  0  0  0  0
   58.3900   32.7090   46.5080 C   0  0  0  0  0  0  0  0  0  0  0  0
   58.5314   32.8682   47.5872 H   0  0  0  0  0  0  0  0  0  0  0  0
   57.7800   31.5380   46.0490 C   0  0  0  0  0  0  0  0  0  0  0  0
   57.4436   30.7764   46.7679 H   0  0  0  0  0  0  0  0  0  0  0  0
   58.9060   28.2890   46.9030 C   0  0  0  0  0  0  0  0  0  0  0  0
   58.1269   27.5955   46.5537 H   0  0  0  0  0  0  0  0  0  0  0  0
   59.2070   28.3680   48.2660 C   0  0  0  0  0  0  0  0  0  0  0  0
   58.6685   27.7301   48.9823 H   0  0  0  0  0  0  0  0  0  0  0  0
   58.6780   31.6880   51.1620 S   0  0  0  0  0  0  0  0  0  0  0  0
   57.0910   31.9740   51.6490 C   0  0  0  0  0  0  0  0  0  0  0  0
   56.5936   32.9544   51.6854 H   0  0  0  0  0  0  0  0  0  0  0  0
  1  2  1  0
  2  3  1  0
  3  4  1  0
  4  5  2  0
  5  6  1  0
  6  7  2  0
  6  8  1  0
  8  9  2  0
  9 10  1  0
  9 11  1  0
 11 12  1  0
 11 13  2  0
 13 14  1  0
 14 15  1  0
 14 16  1  0
 14 17  1  0
 17 18  1  0
 18 19  1  0
 18 20  1  0
 18 21  1  0
 17 22  1  0
 22 23  2  0
 22 24  2  0
 22 25  1  0
 25 26  2  0
 26 27  1  0
 26 28  1  0
 28 29  1  0
 28 30  2  0
 30 31  1  0
 30 32  1  0
 32 33  1  0
 32 34  2  0
 34 35  1  0
 13 36  1  0
 36 37  1  0
 36 38  2  0
 38 39  1  0
  4 40  1  0
 40 41  1  0
 41 42  1  0
 41  2  2  0
 38  8  1  0
 34 25  1  0
M  CHG  1   3  -1
M  END
>  <UniqueID>  (91) 
81

>  <SMILES>  (91) 
CN(Cc1ccc(C(=O)/N=c2\[n-]ccs2)cc1)S(=O)(=O)c1ccc(Br)cc1

>  <Energy>  (91) 
79.70159162074903

>  <Genealogy>  (91) 
CN(Cc1ccc(C(=O)N=c2[n-]ccs2)cc1)S(=O)(=O)c1ccc(Br)cc1 (protonated)
CN(Cc1ccc(C(=O)/N=c2\[n-]ccs2)cc1)S(=O)(=O)c1ccc(Br)cc1 (cis-trans isomerization)
CN(Cc1ccc(C(=O)/N=c2\[n-]ccs2)cc1)S(=O)(=O)c1ccc(Br)cc1 (3D coordinates assigned)
CN(Cc1ccc(C(=O)/N=c2\[n-]ccs2)cc1)S(=O)(=O)c1ccc(Br)cc1 (optimized conformer: 79.70159162074903 kcal/mol)

>  <smiles>  (91) 
CN(Cc1ccc(C(=O)N=c2[nH]ccs2)cc1)S(=O)(=O)c1ccc(Br)cc1

>  <score_type>  (91) 
oracle

>  <origin>  (91) 
adg

>  <m_score__min__energy>  (91) 
-10.35

>  <m_primary>  (91) 
energy

$$$$
91:0
     RDKit          3D

 65 68  0  0  0  0  0  0  0  0999 V2000
   55.8910   25.7110   45.9750 C   0  0  0  0  0  0  0  0  0  0  0  0
   56.3710   27.0510   45.9770 O   0  0  0  0  0  0  0  0  0  0  0  0
   57.7000   27.4200   46.2460 C   0  0  0  0  0  0  0  0  0  0  0  0
   58.3270   27.1250   47.4750 C   0  0  0  0  0  0  0  0  0  0  0  0
   59.6540   27.5100   47.7020 C   0  0  0  0  0  0  0  0  0  0  0  0
   60.3630   28.1980   46.7140 C   0  0  0  0  0  0  0  0  0  0  0  0
   59.7490   28.5000   45.4960 C   0  0  0  0  0  0  0  0  0  0  0  0
   58.4220   28.1100   45.2570 C   0  0  0  0  0  0  0  0  0  0  0  0
   57.8020   28.4320   44.0070 N   0  0  0  0  0  0  0  0  0  0  0  0
   57.7810   27.4410   42.9340 C   0  0  0  0  0  0  0  0  0  0  0  0
   56.7230   29.7900   43.9340 S   0  0  0  0  0  0  0  0  0  0  0  0
   55.5630   29.5540   44.8620 O   0  0  0  0  0  0  0  0  0  0  0  0
   56.1870   29.9420   42.5380 O   0  0  0  0  0  0  0  0  0  0  0  0
   57.5810   31.2600   44.3900 C   0  0  0  0  0  0  0  0  0  0  0  0
   57.8570   32.2290   43.4190 C   0  0  0  0  0  0  0  0  0  0  0  0
   58.5080   33.4110   43.7730 C   0  0  0  0  0  0  0  0  0  0  0  0
   58.8780   33.6380   45.1010 C   0  0  0  0  0  0  0  0  0  0  0  0
   58.5990   32.6810   46.0930 C   0  0  0  0  0  0  0  0  0  0  0  0
   59.0030   32.9250   47.5010 C   0  0  0  0  0  0  0  0  0  0  0  0
   58.8500   34.0710   48.0070 O   0  0  0  0  0  0  0  0  0  0  0  0
   59.6070   31.8910   48.2940 N   0  0  0  0  0  0  0  0  0  0  0  0
   58.8940   30.6210   48.4530 C   0  0  0  0  0  0  0  0  0  0  0  0
   60.7070   32.2220   49.1700 C   0  0  0  0  0  0  0  0  0  0  0  0
   60.6560   32.9170   50.3760 C   0  0  0  0  0  0  0  0  0  0  0  0
   59.4350   33.5260   51.0020 C   0  0  0  0  0  0  0  0  0  0  0  0
   61.9080   32.9650   50.8990 N   0  0  0  0  0  0  0  0  0  0  0  0
   62.2840   33.6370   52.1470 C   0  0  0  0  0  0  0  0  0  0  0  0
   62.7470   32.3550   50.0630 N   0  0  0  0  0  0  0  0  0  0  0  0
   64.1580   32.1730   50.2600 C   0  0  0  0  0  0  0  0  0  0  0  0
   65.0680   33.1210   49.7670 C   0  0  0  0  0  0  0  0  0  0  0  0
   66.4410   32.9600   49.9880 C   0  0  0  0  0  0  0  0  0  0  0  0
   66.9090   31.8530   50.7060 C   0  0  0  0  0  0  0  0  0  0  0  0
   66.0040   30.9090   51.2060 C   0  0  0  0  0  0  0  0  0  0  0  0
   64.6320   31.0720   50.9900 C   0  0  0  0  0  0  0  0  0  0  0  0
   62.0440   31.9020   49.0070 C   0  0  0  0  0  0  0  0  0  0  0  0
   62.5430   31.2510   48.0500 O   0  0  0  0  0  0  0  0  0  0  0  0
   57.9650   31.4800   45.7200 C   0  0  0  0  0  0  0  0  0  0  0  0
   55.7669   25.3644   47.0116 H   0  0  0  0  0  0  0  0  0  0  0  0
   54.9221   25.6694   45.4559 H   0  0  0  0  0  0  0  0  0  0  0  0
   56.6131   25.0636   45.4559 H   0  0  0  0  0  0  0  0  0  0  0  0
   57.7707   26.5899   48.2587 H   0  0  0  0  0  0  0  0  0  0  0  0
   60.1391   27.2704   48.6598 H   0  0  0  0  0  0  0  0  0  0  0  0
   61.4046   28.5018   46.8952 H   0  0  0  0  0  0  0  0  0  0  0  0
   60.3077   29.0456   44.7212 H   0  0  0  0  0  0  0  0  0  0  0  0
   57.7596   26.4306   43.3684 H   0  0  0  0  0  0  0  0  0  0  0  0
   56.8859   27.5921   42.3128 H   0  0  0  0  0  0  0  0  0  0  0  0
   58.6817   27.5540   42.3128 H   0  0  0  0  0  0  0  0  0  0  0  0
   57.5599   32.0583   42.3737 H   0  0  0  0  0  0  0  0  0  0  0  0
   58.7305   34.1661   43.0047 H   0  0  0  0  0  0  0  0  0  0  0  0
   59.3913   34.5722   45.3727 H   0  0  0  0  0  0  0  0  0  0  0  0
   58.7707   30.4013   49.5238 H   0  0  0  0  0  0  0  0  0  0  0  0
   57.9048   30.6938   47.9773 H   0  0  0  0  0  0  0  0  0  0  0  0
   59.4712   29.8144   47.9773 H   0  0  0  0  0  0  0  0  0  0  0  0
   59.5238   33.4817   52.0975 H   0  0  0  0  0  0  0  0  0  0  0  0
   59.3441   34.5750   50.6836 H   0  0  0  0  0  0  0  0  0  0  0  0
   58.5424   32.9675   50.6836 H   0  0  0  0  0  0  0  0  0  0  0  0
   61.9471   33.0348   53.0036 H   0  0  0  0  0  0  0  0  0  0  0  0
   63.3773   33.7516   52.1868 H   0  0  0  0  0  0  0  0  0  0  0  0
   61.8097   34.6287   52.1868 H   0  0  0  0  0  0  0  0  0  0  0  0
   64.7014   33.9929   49.2054 H   0  0  0  0  0  0  0  0  0  0  0  0
   67.1519   33.7031   49.5976 H   0  0  0  0  0  0  0  0  0  0  0  0
   67.9880   31.7249   50.8773 H   0  0  0  0  0  0  0  0  0  0  0  0
   66.3723   30.0387   51.7690 H   0  0  0  0  0  0  0  0  0  0  0  0
   63.9221   30.3350   51.3935 H   0  0  0  0  0  0  0  0  0  0  0  0
   57.7695   30.7080   46.4789 H   0  0  0  0  0  0  0  0  0  0  0  0
  1  2  1  0
  2  3  1  0
  3  4  2  0
  4  5  1  0
  5  6  2  0
  6  7  1  0
  7  8  2  0
  8  9  1  0
  9 10  1  0
  9 11  1  0
 11 12  2  0
 11 13  2  0
 11 14  1  0
 14 15  2  0
 15 16  1  0
 16 17  2  0
 17 18  1  0
 18 19  1  0
 19 20  2  0
 19 21  1  0
 21 22  1  0
 21 23  1  0
 23 24  2  0
 24 25  1  0
 24 26  1  0
 26 27  1  0
 26 28  1  0
 28 29  1  0
 29 30  2  0
 30 31  1  0
 31 32  2  0
 32 33  1  0
 33 34  2  0
 28 35  1  0
 35 36  2  0
 18 37  2  0
  8  3  1  0
 37 14  1  0
 35 23  1  0
 34 29  1  0
  1 38  1  0
  1 39  1  0
  1 40  1  0
  4 41  1  0
  5 42  1  0
  6 43  1  0
  7 44  1  0
 10 45  1  0
 10 46  1  0
 10 47  1  0
 15 48  1  0
 16 49  1  0
 17 50  1  0
 22 51  1  0
 22 52  1  0
 22 53  1  0
 25 54  1  0
 25 55  1  0
 25 56  1  0
 27 57  1  0
 27 58  1  0
 27 59  1  0
 30 60  1  0
 31 61  1  0
 32 62  1  0
 33 63  1  0
 34 64  1  0
 37 65  1  0
M  END
>  <UniqueID>  (92) 
82

>  <SMILES>  (92) 
COc1ccccc1N(C)S(=O)(=O)c1cccc(C(=O)N(C)c2c(C)n(C)n(-c3ccccc3)c2=O)c1

>  <Energy>  (92) 
123.41999301555688

>  <Genealogy>  (92) 
COc1ccccc1N(C)S(=O)(=O)c1cccc(C(=O)N(C)c2c(C)n(C)n(-c3ccccc3)c2=O)c1 (3D coordinates assigned)
COc1ccccc1N(C)S(=O)(=O)c1cccc(C(=O)N(C)c2c(C)n(C)n(-c3ccccc3)c2=O)c1 (optimized conformer: 123.41999301555688 kcal/mol)

>  <smiles>  (92) 
COc1ccccc1N(C)S(=O)(=O)c1cccc(C(=O)N(C)c2c(C)n(C)n(-c3ccccc3)c2=O)c1

>  <score_type>  (92) 
oracle

>  <origin>  (92) 
adg

>  <m_score__min__energy>  (92) 
-9.7699999999999996

>  <m_primary>  (92) 
energy

$$$$
92:0
     RDKit          3D

 52 54  0  0  0  0  0  0  0  0999 V2000
   60.2770   30.2130   46.3820 C   0  0  0  0  0  0  0  0  0  0  0  0
   58.9020   29.8650   46.2580 O   0  0  0  0  0  0  0  0  0  0  0  0
   58.4000   28.5580   46.3530 C   0  0  0  0  0  0  0  0  0  0  0  0
   59.1340   27.5190   46.9560 C   0  0  0  0  0  0  0  0  0  0  0  0
   58.5860   26.2390   47.0680 C   0  0  0  0  0  0  0  0  0  0  0  0
   57.3010   25.9770   46.5810 C   0  0  0  0  0  0  0  0  0  0  0  0
   56.6170   24.3610   46.7440 S   0  0  0  0  0  0  0  0  0  0  0  0
   55.1580   24.4210   46.3850 O   0  0  0  0  0  0  0  0  0  0  0  0
   56.7410   23.8990   48.1700 O   0  0  0  0  0  0  0  0  0  0  0  0
   57.4650   23.2690   45.6690 N   0  0  0  0  0  0  0  0  0  0  0  0
   56.6500   22.0740   45.3330 C   0  0  0  0  0  0  0  0  0  0  0  0
   56.3080   21.9460   43.8380 C   0  0  0  0  0  0  0  0  0  0  0  0
   55.8760   23.2970   43.2700 C   0  0  0  0  0  0  0  0  0  0  0  0
   56.9570   24.3750   43.4700 C   0  0  0  0  0  0  0  0  0  0  0  0
   58.0280   23.9770   44.5020 C   0  0  0  0  0  0  0  0  0  0  0  0
   56.5640   27.0060   45.9840 C   0  0  0  0  0  0  0  0  0  0  0  0
   57.1170   28.2840   45.8420 C   0  0  0  0  0  0  0  0  0  0  0  0
   56.3340   29.3130   45.2240 N   0  0  0  0  0  0  0  0  0  0  0  0
   56.7460   30.0820   44.0880 C   0  0  0  0  0  0  0  0  0  0  0  0
   56.6960   29.5540   42.9460 O   0  0  0  0  0  0  0  0  0  0  0  0
   57.3540   31.4520   44.2360 C   0  0  0  0  0  0  0  0  0  0  0  0
   57.3870   31.8480   45.6510 N   0  0  0  0  0  0  0  0  0  0  0  0
   58.2170   33.0170   45.8220 C   0  0  0  0  0  0  0  0  0  0  0  0
   58.4440   33.8810   44.7370 C   0  0  0  0  0  0  0  0  0  0  0  0
   59.2200   35.0270   44.9000 C   0  0  0  0  0  0  0  0  0  0  0  0
   59.7610   35.3140   46.1520 C   0  0  0  0  0  0  0  0  0  0  0  0
   59.5270   34.4830   47.2020 N   0  0  0  0  0  0  0  0  0  0  0  0
   58.7740   33.3560   47.0760 C   0  0  0  0  0  0  0  0  0  0  0  0
   58.5230   32.3640   48.5040 Cl  0  0  0  0  0  0  0  0  0  0  0  0
   60.5435   30.2805   47.4471 H   0  0  0  0  0  0  0  0  0  0  0  0
   60.8953   29.4430   45.8974 H   0  0  0  0  0  0  0  0  0  0  0  0
   60.4545   31.1844   45.8974 H   0  0  0  0  0  0  0  0  0  0  0  0
   60.1452   27.7163   47.3413 H   0  0  0  0  0  0  0  0  0  0  0  0
   59.1672   25.4338   47.5411 H   0  0  0  0  0  0  0  0  0  0  0  0
   57.2101   21.1774   45.6371 H   0  0  0  0  0  0  0  0  0  0  0  0
   55.6951   22.1808   45.8685 H   0  0  0  0  0  0  0  0  0  0  0  0
   57.1951   21.5911   43.2929 H   0  0  0  0  0  0  0  0  0  0  0  0
   55.4804   21.2306   43.7225 H   0  0  0  0  0  0  0  0  0  0  0  0
   55.6808   23.1843   42.1933 H   0  0  0  0  0  0  0  0  0  0  0  0
   54.9703   23.6184   43.8052 H   0  0  0  0  0  0  0  0  0  0  0  0
   57.4522   24.5566   42.5047 H   0  0  0  0  0  0  0  0  0  0  0  0
   56.4536   25.2752   43.8524 H   0  0  0  0  0  0  0  0  0  0  0  0
   58.7606   23.3189   44.0118 H   0  0  0  0  0  0  0  0  0  0  0  0
   58.4928   24.9035   44.8701 H   0  0  0  0  0  0  0  0  0  0  0  0
   55.5434   26.8092   45.6240 H   0  0  0  0  0  0  0  0  0  0  0  0
   58.3800   31.4379   43.8396 H   0  0  0  0  0  0  0  0  0  0  0  0
   56.7427   32.1759   43.6772 H   0  0  0  0  0  0  0  0  0  0  0  0
   56.4180   32.0360   45.9970 H   0  0  0  0  0  0  0  0  0  0  0  0
   57.7720   31.0590   46.2220 H   0  0  0  0  0  0  0  0  0  0  0  0
   58.0069   33.6515   43.7540 H   0  0  0  0  0  0  0  0  0  0  0  0
   59.4038   35.6987   44.0486 H   0  0  0  0  0  0  0  0  0  0  0  0
   60.3781   36.2140   46.2906 H   0  0  0  0  0  0  0  0  0  0  0  0
  1  2  1  0
  2  3  1  0
  3  4  2  0
  4  5  1  0
  5  6  2  0
  6  7  1  0
  7  8  2  0
  7  9  2  0
  7 10  1  0
 10 11  1  0
 11 12  1  0
 12 13  1  0
 13 14  1  0
 14 15  1  0
  6 16  1  0
 16 17  2  0
 17 18  1  0
 18 19  1  0
 19 20  2  0
 19 21  1  0
 21 22  1  0
 22 23  1  0
 23 24  2  0
 24 25  1  0
 25 26  2  0
 26 27  1  0
 27 28  2  0
 28 29  1  0
 17  3  1  0
 28 23  1  0
 15 10  1  0
  1 30  1  0
  1 31  1  0
  1 32  1  0
  4 33  1  0
  5 34  1  0
 11 35  1  0
 11 36  1  0
 12 37  1  0
 12 38  1  0
 13 39  1  0
 13 40  1  0
 14 41  1  0
 14 42  1  0
 15 43  1  0
 15 44  1  0
 16 45  1  0
 21 46  1  0
 21 47  1  0
 22 48  1  0
 22 49  1  0
 24 50  1  0
 25 51  1  0
 26 52  1  0
M  CHG  2  18  -1  22   1
M  END
>  <UniqueID>  (93) 
83

>  <SMILES>  (93) 
COc1ccc(S(=O)(=O)N2CCCCC2)cc1[N-]C(=O)C[NH2+]c1cccnc1Cl

>  <Energy>  (93) 
65.54068393077226

>  <Genealogy>  (93) 
COc1ccc(S(=O)(=O)N2CCCCC2)cc1[N-]C(=O)C[NH2+]c1cccnc1Cl (protonated)
COc1ccc(S(=O)(=O)N2CCCCC2)cc1[N-]C(=O)C[NH2+]c1cccnc1Cl (3D coordinates assigned)
COc1ccc(S(=O)(=O)N2CCCCC2)cc1[N-]C(=O)C[NH2+]c1cccnc1Cl (nonaromatic ring conformer: 65.54068393077226 kcal/mol)

>  <smiles>  (93) 
COc1ccc(S(=O)(=O)N2CCCCC2)cc1NC(=O)CNc1cccnc1Cl

>  <score_type>  (93) 
oracle

>  <origin>  (93) 
adg

>  <m_score__min__energy>  (93) 
-9.8599999999999994

>  <m_primary>  (93) 
energy

$$$$
93:0
     RDKit          3D

 58 61  0  0  0  0  0  0  0  0999 V2000
   57.0595   25.5535   45.7331 H   0  0  0  0  0  0  0  0  0  0  0  0
   57.5270   26.5490   45.7540 C   0  0  0  0  0  0  0  0  0  0  0  0
   56.7800   27.6560   45.4960 N   0  0  0  0  0  0  0  0  0  0  0  0
   57.3090   28.9100   45.5100 C   0  0  0  0  0  0  0  0  0  0  0  0
   56.5220   29.9170   45.2520 N   0  0  0  0  0  0  0  0  0  0  0  0
   55.6090   30.0650   44.1160 C   0  0  0  0  0  0  0  0  0  0  0  0
   54.8232   30.7880   44.3802 H   0  0  0  0  0  0  0  0  0  0  0  0
   55.1736   29.0802   43.8911 H   0  0  0  0  0  0  0  0  0  0  0  0
   56.3470   30.5640   42.8660 C   0  0  0  0  0  0  0  0  0  0  0  0
   55.8793   31.4999   42.5264 H   0  0  0  0  0  0  0  0  0  0  0  0
   56.2771   29.7838   42.0937 H   0  0  0  0  0  0  0  0  0  0  0  0
   57.8340   30.8250   43.1470 C   0  0  0  0  0  0  0  0  0  0  0  0
   58.4329   30.2688   42.4108 H   0  0  0  0  0  0  0  0  0  0  0  0
   58.0378   30.4938   44.1760 H   0  0  0  0  0  0  0  0  0  0  0  0
   58.2080   32.3100   43.0600 C   0  0  0  0  0  0  0  0  0  0  0  0
   57.7600   32.7386   42.1513 H   0  0  0  0  0  0  0  0  0  0  0  0
   59.3048   32.3880   43.0308 H   0  0  0  0  0  0  0  0  0  0  0  0
   57.7370   33.0380   44.1980 O   0  0  0  0  0  0  0  0  0  0  0  0
   58.4300   33.2540   45.4010 C   0  0  0  0  0  0  0  0  0  0  0  0
   58.9580   34.5230   45.6300 C   0  0  0  0  0  0  0  0  0  0  0  0
   58.8050   35.3185   44.8859 H   0  0  0  0  0  0  0  0  0  0  0  0
   59.6780   34.7950   46.7920 C   0  0  0  0  0  0  0  0  0  0  0  0
   60.0884   35.8035   46.9483 H   0  0  0  0  0  0  0  0  0  0  0  0
   59.8900   33.8060   47.7680 C   0  0  0  0  0  0  0  0  0  0  0  0
   59.3320   32.5190   47.5580 C   0  0  0  0  0  0  0  0  0  0  0  0
   58.6110   32.2580   46.3770 C   0  0  0  0  0  0  0  0  0  0  0  0
   58.1821   31.2581   46.2152 H   0  0  0  0  0  0  0  0  0  0  0  0
   59.4980   31.4030   48.5050 C   0  0  0  0  0  0  0  0  0  0  0  0
   58.4560   30.8510   48.9620 O   0  0  0  0  0  0  0  0  0  0  0  0
   60.8090   31.0320   49.0000 N   0  0  1  0  0  0  0  0  0  0  0  0
   60.6760   30.1410   49.5340 H   0  0  0  0  0  0  0  0  0  0  0  0
   61.7640   30.7500   47.9100 C   0  0  0  0  0  0  0  0  0  0  0  0
   62.7355   30.4631   48.3388 H   0  0  0  0  0  0  0  0  0  0  0  0
   61.3797   29.9270   47.2895 H   0  0  0  0  0  0  0  0  0  0  0  0
   61.8884   31.6498   47.2895 H   0  0  0  0  0  0  0  0  0  0  0  0
   61.3890   32.0060   49.9050 C   0  0  0  0  0  0  0  0  0  0  0  0
   61.4670   31.7060   51.0900 O   0  0  0  0  0  0  0  0  0  0  0  0
   61.8440   33.4090   49.4630 C   0  0  0  0  0  0  0  0  0  0  0  0
   60.7010   34.1560   48.9120 N   0  0  0  0  0  0  0  0  0  0  0  0
   60.4170   35.0280   49.4150 H   0  0  0  0  0  0  0  0  0  0  0  0
   62.4510   34.1890   50.6530 C   0  0  0  0  0  0  0  0  0  0  0  0
   62.4055   35.2718   50.4649 H   0  0  0  0  0  0  0  0  0  0  0  0
   61.8995   33.9997   51.5858 H   0  0  0  0  0  0  0  0  0  0  0  0
   63.8960   33.7290   50.7530 C   0  0  0  0  0  0  0  0  0  0  0  0
   64.5350   34.5487   51.1131 H   0  0  0  0  0  0  0  0  0  0  0  0
   64.0078   32.8958   51.4625 H   0  0  0  0  0  0  0  0  0  0  0  0
   64.3000   33.3220   49.3410 C   0  0  0  0  0  0  0  0  0  0  0  0
   65.0598   34.0146   48.9498 H   0  0  0  0  0  0  0  0  0  0  0  0
   64.7319   32.3104   49.3296 H   0  0  0  0  0  0  0  0  0  0  0  0
   63.0360   33.3890   48.4850 C   0  0  0  0  0  0  0  0  0  0  0  0
   63.0401   34.3027   47.8725 H   0  0  0  0  0  0  0  0  0  0  0  0
   62.9738   32.5303   47.8004 H   0  0  0  0  0  0  0  0  0  0  0  0
   58.6820   29.0700   45.7950 C   0  0  0  0  0  0  0  0  0  0  0  0
   59.1334   30.0730   45.8051 H   0  0  0  0  0  0  0  0  0  0  0  0
   59.4620   27.9440   46.0640 C   0  0  0  0  0  0  0  0  0  0  0  0
   60.5323   28.0580   46.2910 H   0  0  0  0  0  0  0  0  0  0  0  0
   58.8850   26.6750   46.0450 C   0  0  0  0  0  0  0  0  0  0  0  0
   59.4937   25.7837   46.2570 H   0  0  0  0  0  0  0  0  0  0  0  0
  1  2  1  0
  2  3  1  0
  3  4  1  0
  4  5  2  0
  5  6  1  0
  6  7  1  0
  6  8  1  0
  6  9  1  0
  9 10  1  0
  9 11  1  0
  9 12  1  0
 12 13  1  0
 12 14  1  0
 12 15  1  0
 15 16  1  0
 15 17  1  0
 15 18  1  0
 18 19  1  0
 19 20  2  0
 20 21  1  0
 20 22  1  0
 22 23  1  0
 22 24  2  0
 24 25  1  0
 25 26  2  0
 26 27  1  0
 25 28  1  0
 28 29  2  0
 28 30  1  0
 30 31  1  1
 30 32  1  0
 32 33  1  0
 32 34  1  0
 32 35  1  0
 30 36  1  0
 36 37  2  0
 36 38  1  0
 38 39  1  0
 39 40  1  0
 38 41  1  0
 41 42  1  0
 41 43  1  0
 41 44  1  0
 44 45  1  0
 44 46  1  0
 44 47  1  0
 47 48  1  0
 47 49  1  0
 47 50  1  0
 50 51  1  0
 50 52  1  0
  4 53  1  0
 53 54  1  0
 53 55  2  0
 55 56  1  0
 55 57  1  0
 57 58  1  0
 57  2  2  0
 26 19  1  0
 50 38  1  0
 39 24  1  0
M  CHG  2   3  -1  30   1
M  END
>  <UniqueID>  (94) 
84

>  <SMILES>  (94) 
C[N@@H+]1C(=O)c2cc(OCCCC/N=c3\cccc[n-]3)ccc2NC2(CCCC2)C1=O

>  <Energy>  (94) 
85.14118086856624

>  <Genealogy>  (94) 
C[NH+]1C(=O)c2cc(OCCCCN=c3cccc[n-]3)ccc2NC2(CCCC2)C1=O (protonated)
C[N@@H+]1C(=O)c2cc(OCCCCN=c3cccc[n-]3)ccc2NC2(CCCC2)C1=O (chirality)
C[N@@H+]1C(=O)c2cc(OCCCC/N=c3\cccc[n-]3)ccc2NC2(CCCC2)C1=O (cis-trans isomerization)
C[N@@H+]1C(=O)c2cc(OCCCC/N=c3\cccc[n-]3)ccc2NC2(CCCC2)C1=O (3D coordinates assigned)
C[N@@H+]1C(=O)c2cc(OCCCC/N=c3\cccc[n-]3)ccc2NC2(CCCC2)C1=O (nonaromatic ring conformer: 85.14118086856624 kcal/mol)

>  <smiles>  (94) 
CN1C(=O)c2cc(OCCCCN=c3cccc[nH]3)ccc2NC2(CCCC2)C1=O

>  <score_type>  (94) 
oracle

>  <origin>  (94) 
adg

>  <m_score__min__energy>  (94) 
-6.9500000000000002

>  <m_primary>  (94) 
energy

$$$$
94:0
     RDKit          3D

 35 37  0  0  0  0  0  0  0  0999 V2000
   56.7010   26.7300   45.9720 C   0  0  0  0  0  0  0  0  0  0  0  0
   55.8980   27.8240   45.5390 O   0  0  0  0  0  0  0  0  0  0  0  0
   56.4090   29.0270   45.0300 C   0  0  0  0  0  0  0  0  0  0  0  0
   55.8970   29.6340   43.8670 C   0  0  0  0  0  0  0  0  0  0  0  0
   56.4420   30.8330   43.3990 C   0  0  0  0  0  0  0  0  0  0  0  0
   57.4990   31.4480   44.0870 C   0  0  0  0  0  0  0  0  0  0  0  0
   58.1210   32.7110   43.5500 C   0  0  0  0  0  0  0  0  0  0  0  0
   57.8850   33.8980   44.4940 C   0  0  0  0  0  0  0  0  0  0  0  0
   58.7420   33.8000   45.6740 N   0  0  0  0  0  0  0  0  0  0  0  0
   58.3210   33.8410   46.9640 C   0  0  0  0  0  0  0  0  0  0  0  0
   59.4470   33.8220   47.7590 C   0  0  0  0  0  0  0  0  0  0  0  0
   59.6380   33.8720   49.1340 C   0  0  0  0  0  0  0  0  0  0  0  0
   60.9690   33.8630   49.5960 C   0  0  0  0  0  0  0  0  0  0  0  0
   62.0380   33.8110   48.6670 C   0  0  0  0  0  0  0  0  0  0  0  0
   63.6940   33.8070   49.2400 Cl  0  0  0  0  0  0  0  0  0  0  0  0
   61.7910   33.7710   47.3220 N   0  0  0  0  0  0  0  0  0  0  0  0
   60.5030   33.7720   46.8980 C   0  0  0  0  0  0  0  0  0  0  0  0
   60.0700   33.7630   45.6290 N   0  0  0  0  0  0  0  0  0  0  0  0
   58.0120   30.8400   45.2430 C   0  0  0  0  0  0  0  0  0  0  0  0
   57.4680   29.6410   45.7090 C   0  0  0  0  0  0  0  0  0  0  0  0
   56.7212   26.7025   47.0715 H   0  0  0  0  0  0  0  0  0  0  0  0
   56.2769   25.7899   45.5894 H   0  0  0  0  0  0  0  0  0  0  0  0
   57.7250   26.8528   45.5894 H   0  0  0  0  0  0  0  0  0  0  0  0
   55.0644   29.1624   43.3244 H   0  0  0  0  0  0  0  0  0  0  0  0
   56.0400   31.2970   42.4863 H   0  0  0  0  0  0  0  0  0  0  0  0
   59.2038   32.5555   43.4347 H   0  0  0  0  0  0  0  0  0  0  0  0
   57.6539   32.9416   42.5812 H   0  0  0  0  0  0  0  0  0  0  0  0
   58.1106   34.8334   43.9609 H   0  0  0  0  0  0  0  0  0  0  0  0
   56.8342   33.8870   44.8190 H   0  0  0  0  0  0  0  0  0  0  0  0
   57.2776   33.8817   47.3098 H   0  0  0  0  0  0  0  0  0  0  0  0
   58.7881   33.9166   49.8309 H   0  0  0  0  0  0  0  0  0  0  0  0
   61.1780   33.8963   50.6755 H   0  0  0  0  0  0  0  0  0  0  0  0
   60.6510   33.7560   44.7620 H   0  0  0  0  0  0  0  0  0  0  0  0
   58.8463   31.3098   45.7846 H   0  0  0  0  0  0  0  0  0  0  0  0
   57.8756   29.1748   46.6181 H   0  0  0  0  0  0  0  0  0  0  0  0
  1  2  1  0
  2  3  1  0
  3  4  2  0
  4  5  1  0
  5  6  2  0
  6  7  1  0
  7  8  1  0
  8  9  1  0
  9 10  1  0
 10 11  2  0
 11 12  1  0
 12 13  2  0
 13 14  1  0
 14 15  1  0
 14 16  2  0
 16 17  1  0
 17 18  2  0
  6 19  1  0
 19 20  2  0
 20  3  1  0
 18  9  1  0
 17 11  1  0
  1 21  1  0
  1 22  1  0
  1 23  1  0
  4 24  1  0
  5 25  1  0
  7 26  1  0
  7 27  1  0
  8 28  1  0
  8 29  1  0
 10 30  1  0
 12 31  1  0
 13 32  1  0
 18 33  1  0
 19 34  1  0
 20 35  1  0
M  CHG  1  18   1
M  END
>  <UniqueID>  (95) 
85

>  <SMILES>  (95) 
COc1ccc(CCn2cc3ccc(Cl)nc3[nH+]2)cc1

>  <Energy>  (95) 
72.90865212934715

>  <Genealogy>  (95) 
COc1ccc(CCn2cc3ccc(Cl)nc3[nH+]2)cc1 (protonated)
COc1ccc(CCn2cc3ccc(Cl)nc3[nH+]2)cc1 (3D coordinates assigned)
COc1ccc(CCn2cc3ccc(Cl)nc3[nH+]2)cc1 (optimized conformer: 72.90865212934715 kcal/mol)

>  <smiles>  (95) 
COc1ccc(CCn2cc3ccc(Cl)nc3n2)cc1

>  <score_type>  (95) 
oracle

>  <origin>  (95) 
adg

>  <m_score__min__energy>  (95) 
-6.3499999999999996

>  <m_primary>  (95) 
energy

$$$$
95:0
     RDKit          3D

 49 51  0  0  0  0  0  0  0  0999 V2000
   58.1060   31.1550   43.6460 C   0  0  0  0  0  0  0  0  0  0  0  0
   57.6080   30.8100   44.9350 O   0  0  0  0  0  0  0  0  0  0  0  0
   57.6860   29.5340   45.5160 C   0  0  0  0  0  0  0  0  0  0  0  0
   58.8660   29.1030   46.1530 C   0  0  0  0  0  0  0  0  0  0  0  0
   58.9440   27.8340   46.7360 C   0  0  0  0  0  0  0  0  0  0  0  0
   60.2230   27.3680   47.3760 C   0  0  0  0  0  0  0  0  0  0  0  0
   60.0430   27.3050   48.8320 N   0  0  0  0  0  0  0  0  0  0  0  0
   60.7400   28.4080   49.5060 C   0  0  0  0  0  0  0  0  0  0  0  0
   60.4690   29.7070   48.7940 C   0  0  0  0  0  0  0  0  0  0  0  0
   59.2680   30.4010   49.0030 C   0  0  0  0  0  0  0  0  0  0  0  0
   59.0390   31.6240   48.3670 C   0  0  0  0  0  0  0  0  0  0  0  0
   60.0080   32.1770   47.5100 C   0  0  0  0  0  0  0  0  0  0  0  0
   59.7760   33.4420   46.8570 N   0  0  0  0  0  0  0  0  0  0  0  0
   59.3280   33.6430   45.6050 C   0  0  0  0  0  0  0  0  0  0  0  0
   59.2480   34.9990   45.3900 C   0  0  0  0  0  0  0  0  0  0  0  0
   59.6470   35.6560   46.4970 N   0  0  0  0  0  0  0  0  0  0  0  0
   59.9600   34.6770   47.3710 C   0  0  0  0  0  0  0  0  0  0  0  0
   61.2110   31.4770   47.3060 C   0  0  0  0  0  0  0  0  0  0  0  0
   61.4400   30.2550   47.9440 C   0  0  0  0  0  0  0  0  0  0  0  0
   57.8480   26.9710   46.6600 C   0  0  0  0  0  0  0  0  0  0  0  0
   56.6590   27.3800   46.0340 C   0  0  0  0  0  0  0  0  0  0  0  0
   55.5380   26.5370   45.9530 O   0  0  0  0  0  0  0  0  0  0  0  0
   55.5950   25.1310   45.7350 C   0  0  0  0  0  0  0  0  0  0  0  0
   56.5680   28.6610   45.4630 C   0  0  0  0  0  0  0  0  0  0  0  0
   55.3420   28.9970   44.8580 O   0  0  0  0  0  0  0  0  0  0  0  0
   55.1620   29.7130   43.6420 C   0  0  0  0  0  0  0  0  0  0  0  0
   59.0057   31.7783   43.7553 H   0  0  0  0  0  0  0  0  0  0  0  0
   58.3599   30.2383   43.0936 H   0  0  0  0  0  0  0  0  0  0  0  0
   57.3370   31.7149   43.0936 H   0  0  0  0  0  0  0  0  0  0  0  0
   59.7375   29.7731   46.1925 H   0  0  0  0  0  0  0  0  0  0  0  0
   60.4821   26.3694   46.9944 H   0  0  0  0  0  0  0  0  0  0  0  0
   61.0331   28.0722   47.1353 H   0  0  0  0  0  0  0  0  0  0  0  0
   60.4650   26.4070   49.1650 H   0  0  0  0  0  0  0  0  0  0  0  0
   60.3846   28.4818   50.5444 H   0  0  0  0  0  0  0  0  0  0  0  0
   61.8220   28.2103   49.4925 H   0  0  0  0  0  0  0  0  0  0  0  0
   58.5023   29.9802   49.6712 H   0  0  0  0  0  0  0  0  0  0  0  0
   58.0931   32.1589   48.5379 H   0  0  0  0  0  0  0  0  0  0  0  0
   59.0701   32.8584   44.8784 H   0  0  0  0  0  0  0  0  0  0  0  0
   58.9101   35.4745   44.4574 H   0  0  0  0  0  0  0  0  0  0  0  0
   60.3254   34.8645   48.3915 H   0  0  0  0  0  0  0  0  0  0  0  0
   61.9784   31.8954   46.6382 H   0  0  0  0  0  0  0  0  0  0  0  0
   62.3869   29.7203   47.7785 H   0  0  0  0  0  0  0  0  0  0  0  0
   57.9168   25.9626   47.0941 H   0  0  0  0  0  0  0  0  0  0  0  0
   55.6161   24.6103   46.7037 H   0  0  0  0  0  0  0  0  0  0  0  0
   54.7091   24.8119   45.1664 H   0  0  0  0  0  0  0  0  0  0  0  0
   56.5039   24.8847   45.1664 H   0  0  0  0  0  0  0  0  0  0  0  0
   54.8995   30.7573   43.8668 H   0  0  0  0  0  0  0  0  0  0  0  0
   56.0947   29.6867   43.0595 H   0  0  0  0  0  0  0  0  0  0  0  0
   54.3526   29.2487   43.0595 H   0  0  0  0  0  0  0  0  0  0  0  0
  1  2  1  0
  2  3  1  0
  3  4  2  0
  4  5  1  0
  5  6  1  0
  6  7  1  0
  7  8  1  0
  8  9  1  0
  9 10  2  0
 10 11  1  0
 11 12  2  0
 12 13  1  0
 13 14  1  0
 14 15  2  0
 15 16  1  0
 16 17  2  0
 12 18  1  0
 18 19  2  0
  5 20  2  0
 20 21  1  0
 21 22  1  0
 22 23  1  0
 21 24  2  0
 24 25  1  0
 25 26  1  0
 24  3  1  0
 19  9  1  0
 17 13  1  0
  1 27  1  0
  1 28  1  0
  1 29  1  0
  4 30  1  0
  6 31  1  0
  6 32  1  0
  7 33  1  0
  8 34  1  0
  8 35  1  0
 10 36  1  0
 11 37  1  0
 14 38  1  0
 15 39  1  0
 17 40  1  0
 18 41  1  0
 19 42  1  0
 20 43  1  0
 23 44  1  0
 23 45  1  0
 23 46  1  0
 26 47  1  0
 26 48  1  0
 26 49  1  0
M  END
>  <UniqueID>  (96) 
86

>  <SMILES>  (96) 
COc1cc(CNCc2ccc(-n3ccnc3)cc2)cc(OC)c1OC

>  <Energy>  (96) 
82.89163442789737

>  <Genealogy>  (96) 
COc1cc(CNCc2ccc(-n3ccnc3)cc2)cc(OC)c1OC (3D coordinates assigned)
COc1cc(CNCc2ccc(-n3ccnc3)cc2)cc(OC)c1OC (optimized conformer: 82.89163442789737 kcal/mol)

>  <smiles>  (96) 
COc1cc(CNCc2ccc(-n3ccnc3)cc2)cc(OC)c1OC

>  <score_type>  (96) 
oracle

>  <origin>  (96) 
adg

>  <m_score__min__energy>  (96) 
-6.8899999999999997

>  <m_primary>  (96) 
energy

$$$$
