0:0
     RDKit          3D

 50 53  0  0  1  0  0  0  0  0999 V2000
   57.0980   27.5980   45.6990 C   0  0  0  0  0  0  0  0  0  0  0  0
   57.8540   28.5800   44.9410 N   0  0  0  0  0  0  0  0  0  0  0  0
   59.2380   28.4250   44.5830 C   0  0  0  0  0  0  0  0  0  0  0  0
   57.1760   29.7580   44.5380 C   0  0  0  0  0  0  0  0  0  0  0  0
   55.9550   29.8460   44.8820 O   0  0  0  0  0  0  0  0  0  0  0  0
   57.8510   30.8280   43.7590 C   0  0  0  0  0  0  0  0  0  0  0  0
   58.0510   31.9930   44.6390 C   0  0  0  0  0  0  0  0  0  0  0  0
   57.4100   33.1860   44.2990 C   0  0  0  0  0  0  0  0  0  0  0  0
   57.5980   34.2860   45.1260 C   0  0  0  0  0  0  0  0  0  0  0  0
   58.4040   34.2040   46.2650 C   0  0  0  0  0  0  0  0  0  0  0  0
   59.0290   33.0020   46.5770 C   0  0  0  0  0  0  0  0  0  0  0  0
   59.8330   33.0060   47.7550 N   0  0  0  0  0  0  0  0  0  0  0  0
   61.1170   33.0610   47.6690 C   0  0  0  0  0  0  0  0  0  0  0  0
   61.7820   33.8120   46.7480 C   0  0  0  0  0  0  0  0  0  0  0  0
   63.1580   33.7880   46.7580 C   0  0  0  0  0  0  0  0  0  0  0  0
   63.8570   33.0430   47.6540 N   0  0  0  0  0  0  0  0  0  0  0  0
   63.1820   32.3100   48.5520 C   0  0  0  0  0  0  0  0  0  0  0  0
   63.7360   31.5690   49.4450 N   0  0  0  0  0  0  0  0  0  0  0  0
   64.9870   31.9900   49.9730 C   0  0  0  0  0  0  0  0  0  0  0  0
   65.7260   33.0750   49.6780 N   0  0  0  0  0  0  0  0  0  0  0  0
   66.8540   33.0740   50.4290 C   0  0  0  0  0  0  0  0  0  0  0  0
   67.9200   33.9480   50.5040 C   0  0  0  0  0  0  0  0  0  0  0  0
   68.9710   33.7050   51.3790 C   0  0  0  0  0  0  0  0  0  0  0  0
   68.9150   32.5560   52.1750 C   0  0  0  0  0  0  0  0  0  0  0  0
   67.8370   31.7110   52.0700 C   0  0  0  0  0  0  0  0  0  0  0  0
   66.7770   31.9390   51.2000 C   0  0  0  0  0  0  0  0  0  0  0  0
   65.6320   31.2600   50.9310 N   0  0  0  0  0  0  0  0  0  0  0  0
   61.8170   32.3210   48.5570 N   0  0  0  0  0  0  0  0  0  0  0  0
   58.8470   31.9230   45.7700 C   0  0  0  0  0  0  0  0  0  0  0  0
   57.2373   27.7789   46.7750 H   0  0  0  0  0  0  0  0  0  0  0  0
   56.0305   27.6836   45.4480 H   0  0  0  0  0  0  0  0  0  0  0  0
   57.4538   26.5879   45.4480 H   0  0  0  0  0  0  0  0  0  0  0  0
   59.8475   28.3567   45.4961 H   0  0  0  0  0  0  0  0  0  0  0  0
   59.3627   27.5073   43.9895 H   0  0  0  0  0  0  0  0  0  0  0  0
   59.5626   29.2924   43.9895 H   0  0  0  0  0  0  0  0  0  0  0  0
   58.8243   30.4653   43.3968 H   0  0  0  0  0  0  0  0  0  0  0  0
   57.2329   31.1111   42.8942 H   0  0  0  0  0  0  0  0  0  0  0  0
   56.7752   33.2527   43.4031 H   0  0  0  0  0  0  0  0  0  0  0  0
   57.1042   35.2378   44.8804 H   0  0  0  0  0  0  0  0  0  0  0  0
   58.5428   35.0842   46.9099 H   0  0  0  0  0  0  0  0  0  0  0  0
   61.2336   34.4220   46.0151 H   0  0  0  0  0  0  0  0  0  0  0  0
   63.7080   34.3894   46.0192 H   0  0  0  0  0  0  0  0  0  0  0  0
   64.9050   33.0210   47.6650 H   0  0  0  0  0  0  0  0  0  0  0  0
   67.9372   34.8438   49.8658 H   0  0  0  0  0  0  0  0  0  0  0  0
   69.8237   34.3968   51.4442 H   0  0  0  0  0  0  0  0  0  0  0  0
   69.7286   32.3307   52.8802 H   0  0  0  0  0  0  0  0  0  0  0  0
   67.8114   30.8123   52.7037 H   0  0  0  0  0  0  0  0  0  0  0  0
   65.3170   30.3700   51.3670 H   0  0  0  0  0  0  0  0  0  0  0  0
   61.2900   31.7380   49.2740 H   0  0  0  0  0  0  0  0  0  0  0  0
   59.3429   30.9737   46.0210 H   0  0  0  0  0  0  0  0  0  0  0  0
  1  2  1  0
  2  3  1  0
  2  4  1  0
  4  5  2  0
  4  6  1  0
  6  7  1  0
  7  8  2  0
  8  9  1  0
  9 10  2  0
 10 11  1  0
 11 12  1  0
 12 13  2  0
 13 14  1  0
 14 15  2  0
 15 16  1  0
 16 17  1  0
 17 18  2  0
 18 19  1  0
 19 20  2  0
 20 21  1  0
 21 22  2  0
 22 23  1  0
 23 24  2  0
 24 25  1  0
 25 26  2  0
 26 27  1  0
 17 28  1  0
 11 29  2  0
 29  7  1  0
 28 13  1  0
 27 19  1  0
 26 21  1  0
  1 30  1  0
  1 31  1  0
  1 32  1  0
  3 33  1  0
  3 34  1  0
  3 35  1  0
  6 36  1  0
  6 37  1  0
  8 38  1  0
  9 39  1  0
 10 40  1  0
 14 41  1  0
 15 42  1  0
 16 43  1  0
 22 44  1  0
 23 45  1  0
 24 46  1  0
 25 47  1  0
 27 48  1  0
 28 49  1  0
 29 50  1  0
M  END
>  <smiles>  (1) 
CN(C)C(=O)Cc1cccc(N=c2cc[nH]c(=Nc3nc4ccccc4[nH]3)[nH]2)c1

>  <score_type>  (1) 
oracle

>  <origin>  (1) 
adg

>  <m_score__min__energy>  (1) 
-9

>  <m_primary>  (1) 
energy

$$$$
1:0
     RDKit          3D

 40 42  0  0  0  0  0  0  0  0999 V2000
   60.5570   26.8700   48.1450 C   0  0  0  0  0  0  0  0  0  0  0  0
   61.1180   26.4400   47.0130 C   0  0  0  0  0  0  0  0  0  0  0  0
   60.3760   25.5620   46.0440 C   0  0  0  0  0  0  0  0  0  0  0  0
   58.9390   25.9030   46.0240 N   0  0  0  0  0  0  0  0  0  0  0  0
   58.0110   24.9620   46.3950 C   0  0  0  0  0  0  0  0  0  0  0  0
   58.3720   23.8100   46.7600 O   0  0  0  0  0  0  0  0  0  0  0  0
   56.6890   25.2590   46.3740 N   0  0  0  0  0  0  0  0  0  0  0  0
   56.2360   26.4740   45.9860 C   0  0  0  0  0  0  0  0  0  0  0  0
   54.8670   26.7110   45.9600 O   0  0  0  0  0  0  0  0  0  0  0  0
   57.1460   27.4650   45.5970 C   0  0  0  0  0  0  0  0  0  0  0  0
   56.6630   28.7900   45.1270 C   0  0  0  0  0  0  0  0  0  0  0  0
   55.4380   28.9450   44.8790 O   0  0  0  0  0  0  0  0  0  0  0  0
   57.5350   29.9280   45.0090 N   0  0  0  0  0  0  0  0  0  0  0  0
   57.9870   30.6590   45.9870 C   0  0  0  0  0  0  0  0  0  0  0  0
   58.4310   30.1160   47.1420 N   0  0  0  0  0  0  0  0  0  0  0  0
   58.8960   31.0630   47.9990 C   0  0  0  0  0  0  0  0  0  0  0  0
   58.8000   32.3710   47.5330 C   0  0  0  0  0  0  0  0  0  0  0  0
   59.3960   33.5810   48.1780 C   0  0  0  0  0  0  0  0  0  0  0  0
   60.8780   33.6070   47.9220 C   0  0  0  0  0  0  0  0  0  0  0  0
   61.3680   33.7460   46.6130 C   0  0  0  0  0  0  0  0  0  0  0  0
   62.7450   33.8450   46.3830 C   0  0  0  0  0  0  0  0  0  0  0  0
   63.6390   33.8180   47.4570 C   0  0  0  0  0  0  0  0  0  0  0  0
   63.1580   33.6910   48.7640 C   0  0  0  0  0  0  0  0  0  0  0  0
   61.7840   33.5890   48.9980 C   0  0  0  0  0  0  0  0  0  0  0  0
   58.1230   32.3420   45.9950 S   0  0  0  0  0  0  0  0  0  0  0  0
   58.5210   27.1600   45.6570 C   0  0  0  0  0  0  0  0  0  0  0  0
   59.3680   28.0520   45.3750 O   0  0  0  0  0  0  0  0  0  0  0  0
   61.1277   27.5115   48.8326 H   0  0  0  0  0  0  0  0  0  0  0  0
   59.5239   26.5830   48.3904 H   0  0  0  0  0  0  0  0  0  0  0  0
   62.1520   26.7362   46.7825 H   0  0  0  0  0  0  0  0  0  0  0  0
   60.7943   25.7025   45.0364 H   0  0  0  0  0  0  0  0  0  0  0  0
   60.4861   24.5144   46.3608 H   0  0  0  0  0  0  0  0  0  0  0  0
   59.3159   30.8148   48.9849 H   0  0  0  0  0  0  0  0  0  0  0  0
   58.9350   34.4862   47.7558 H   0  0  0  0  0  0  0  0  0  0  0  0
   59.2117   33.5471   49.2619 H   0  0  0  0  0  0  0  0  0  0  0  0
   60.6671   33.7771   45.7658 H   0  0  0  0  0  0  0  0  0  0  0  0
   63.1243   33.9442   45.3552 H   0  0  0  0  0  0  0  0  0  0  0  0
   64.7209   33.8966   47.2742 H   0  0  0  0  0  0  0  0  0  0  0  0
   63.8621   33.6714   49.6089 H   0  0  0  0  0  0  0  0  0  0  0  0
   61.4094   33.4942   50.0279 H   0  0  0  0  0  0  0  0  0  0  0  0
  1  2  2  0
  2  3  1  0
  3  4  1  0
  4  5  1  0
  5  6  2  0
  5  7  1  0
  7  8  1  0
  8  9  1  0
  8 10  2  0
 10 11  1  0
 11 12  2  0
 11 13  1  0
 13 14  2  3
 14 15  1  0
 15 16  1  0
 16 17  2  0
 17 18  1  0
 18 19  1  0
 19 20  2  0
 20 21  1  0
 21 22  2  0
 22 23  1  0
 23 24  2  0
 17 25  1  0
 10 26  1  0
 26 27  2  0
 26  4  1  0
 25 14  1  0
 24 19  1  0
  1 28  1  0
  1 29  1  0
  2 30  1  0
  3 31  1  0
  3 32  1  0
 16 33  1  0
 18 34  1  0
 18 35  1  0
 20 36  1  0
 21 37  1  0
 22 38  1  0
 23 39  1  0
 24 40  1  0
M  CHG  3   7  -1   9  -1  15  -1
M  END
>  <UniqueID>  (2) 
1

>  <SMILES>  (2) 
C=CCn1c(=O)[n-]c([O-])c(C(=O)N=c2[n-]cc(Cc3ccccc3)s2)c1=O

>  <Energy>  (2) 
82.38239348927623

>  <Genealogy>  (2) 
C=CCn1c(=O)[n-]c([O-])c(C(=O)N=c2[n-]cc(Cc3ccccc3)s2)c1=O (protonated)
C=CCn1c(=O)[n-]c([O-])c(C(=O)N=c2[n-]cc(Cc3ccccc3)s2)c1=O (3D coordinates assigned)
C=CCn1c(=O)[n-]c([O-])c(C(=O)N=c2[n-]cc(Cc3ccccc3)s2)c1=O (optimized conformer: 82.38239348927623 kcal/mol)

>  <smiles>  (2) 
C=CCn1c(=O)[nH]c(O)c(C(=O)N=c2[nH]cc(Cc3ccccc3)s2)c1=O

>  <score_type>  (2) 
oracle

>  <origin>  (2) 
adg

>  <m_score__min__energy>  (2) 
-16.329999999999998

>  <m_primary>  (2) 
energy

$$$$
2:0
     RDKit          3D

 24 25  0  0  0  0  0  0  0  0999 V2000
   58.7210   34.8040   44.8930 C   0  0  0  0  0  0  0  0  0  0  0  0
   58.5230   33.5830   45.4010 C   0  0  0  0  0  0  0  0  0  0  0  0
   58.5990   33.4180   46.7470 N   0  0  0  0  0  0  0  0  0  0  0  0
   58.4000   32.2080   47.3220 C   0  0  0  0  0  0  0  0  0  0  0  0
   58.4680   32.0880   48.5730 O   0  0  0  0  0  0  0  0  0  0  0  0
   58.1290   31.1250   46.5520 N   0  0  0  0  0  0  0  0  0  0  0  0
   58.0500   31.2050   45.1960 C   0  0  0  0  0  0  0  0  0  0  0  0
   57.7830   30.0640   44.5260 C   0  0  0  0  0  0  0  0  0  0  0  0
   57.5510   28.7380   45.1340 C   0  0  0  0  0  0  0  0  0  0  0  0
   58.6510   27.9490   45.4950 C   0  0  0  0  0  0  0  0  0  0  0  0
   58.4560   26.6770   46.0410 C   0  0  0  0  0  0  0  0  0  0  0  0
   57.1620   26.1780   46.2120 C   0  0  0  0  0  0  0  0  0  0  0  0
   56.9760   24.9130   46.7570 O   0  0  0  0  0  0  0  0  0  0  0  0
   56.0570   26.9480   45.8290 C   0  0  0  0  0  0  0  0  0  0  0  0
   54.7710   26.4450   45.9890 O   0  0  0  0  0  0  0  0  0  0  0  0
   56.2480   28.2240   45.2800 C   0  0  0  0  0  0  0  0  0  0  0  0
   55.1450   28.9720   44.8800 O   0  0  0  0  0  0  0  0  0  0  0  0
   58.2320   32.4720   44.5810 C   0  0  0  0  0  0  0  0  0  0  0  0
   58.1120   32.6210   43.3320 O   0  0  0  0  0  0  0  0  0  0  0  0
   58.6647   34.9632   43.8060 H   0  0  0  0  0  0  0  0  0  0  0  0
   58.9402   35.6492   45.5621 H   0  0  0  0  0  0  0  0  0  0  0  0
   57.7338   30.1274   43.4289 H   0  0  0  0  0  0  0  0  0  0  0  0
   59.6717   28.3318   45.3483 H   0  0  0  0  0  0  0  0  0  0  0  0
   59.3228   26.0677   46.3366 H   0  0  0  0  0  0  0  0  0  0  0  0
  1  2  2  0
  2  3  1  0
  3  4  1  0
  4  5  2  0
  4  6  1  0
  6  7  1  0
  7  8  2  3
  8  9  1  0
  9 10  2  0
 10 11  1  0
 11 12  2  0
 12 13  1  0
 12 14  1  0
 14 15  1  0
 14 16  2  0
 16 17  1  0
  7 18  1  0
 18 19  2  0
 18  2  1  0
 16  9  1  0
  1 20  1  0
  1 21  1  0
  8 22  1  0
 10 23  1  0
 11 24  1  0
M  CHG  5   3  -1   6  -1  13  -1  15  -1  17  -1
M  END
>  <UniqueID>  (3) 
2

>  <SMILES>  (3) 
C=c1[n-]c(=O)[n-]c(=Cc2ccc([O-])c([O-])c2[O-])c1=O

>  <Energy>  (3) 
41.02323455902747

>  <Genealogy>  (3) 
C=c1[n-]c(=O)[n-]c(=Cc2ccc([O-])c([O-])c2[O-])c1=O (protonated)
C=c1[n-]c(=O)[n-]c(=Cc2ccc([O-])c([O-])c2[O-])c1=O (3D coordinates assigned)
C=c1[n-]c(=O)[n-]c(=Cc2ccc([O-])c([O-])c2[O-])c1=O (optimized conformer: 41.02323455902747 kcal/mol)

>  <smiles>  (3) 
C=c1[nH]c(=O)[nH]c(=Cc2ccc(O)c(O)c2O)c1=O

>  <score_type>  (3) 
oracle

>  <origin>  (3) 
adg

>  <m_score__min__energy>  (3) 
-18.300000000000001

>  <m_primary>  (3) 
energy

$$$$
3:0
     RDKit          3D

 18 19  0  0  0  0  0  0  0  0999 V2000
   57.3640   23.1650   47.4140 O   0  0  0  0  0  0  0  0  0  0  0  0
   57.0340   24.3070   47.0010 C   0  0  0  0  0  0  0  0  0  0  0  0
   55.7510   24.6520   46.7640 N   0  0  0  0  0  0  0  0  0  0  0  0
   55.8600   25.9240   46.3500 C   0  0  0  0  0  0  0  0  0  0  0  0
   54.7710   26.7140   46.0020 O   0  0  0  0  0  0  0  0  0  0  0  0
   57.1820   26.3180   46.3500 C   0  0  0  0  0  0  0  0  0  0  0  0
   57.7250   27.6300   45.9290 C   0  0  0  0  0  0  0  0  0  0  0  0
   57.0320   28.3860   44.9650 C   0  0  0  0  0  0  0  0  0  0  0  0
   57.5300   29.6180   44.5330 C   0  0  0  0  0  0  0  0  0  0  0  0
   58.7250   30.1100   45.0550 C   0  0  0  0  0  0  0  0  0  0  0  0
   59.4250   29.3740   46.0130 C   0  0  0  0  0  0  0  0  0  0  0  0
   58.9360   28.1370   46.4550 C   0  0  0  0  0  0  0  0  0  0  0  0
   59.9300   27.2330   47.8260 Br  0  0  0  0  0  0  0  0  0  0  0  0
   57.9370   25.2830   46.7630 N   0  0  0  0  0  0  0  0  0  0  0  0
   56.0890   28.0032   44.5476 H   0  0  0  0  0  0  0  0  0  0  0  0
   56.9783   30.2002   43.7802 H   0  0  0  0  0  0  0  0  0  0  0  0
   59.1169   31.0789   44.7120 H   0  0  0  0  0  0  0  0  0  0  0  0
   60.3665   29.7676   46.4236 H   0  0  0  0  0  0  0  0  0  0  0  0
  1  2  2  0
  2  3  1  0
  3  4  1  0
  4  5  1  0
  4  6  2  0
  6  7  1  0
  7  8  2  0
  8  9  1  0
  9 10  2  0
 10 11  1  0
 11 12  2  0
 12 13  1  0
  6 14  1  0
 14  2  1  0
 12  7  1  0
  8 15  1  0
  9 16  1  0
 10 17  1  0
 11 18  1  0
M  CHG  3   3  -1   5  -1  14  -1
M  END
>  <UniqueID>  (4) 
3

>  <SMILES>  (4) 
O=c1[n-]c([O-])c(-c2ccccc2Br)[n-]1

>  <Energy>  (4) 
54.36908243947172

>  <Genealogy>  (4) 
O=c1[n-]c([O-])c(-c2ccccc2Br)[n-]1 (protonated)
O=c1[n-]c([O-])c(-c2ccccc2Br)[n-]1 (3D coordinates assigned)
O=c1[n-]c([O-])c(-c2ccccc2Br)[n-]1 (optimized conformer: 54.36908243947172 kcal/mol)

>  <smiles>  (4) 
O=c1[nH]c(O)c(-c2ccccc2Br)[nH]1

>  <score_type>  (4) 
oracle

>  <origin>  (4) 
adg

>  <m_score__min__energy>  (4) 
-14.960000000000001

>  <m_primary>  (4) 
energy

$$$$
4:0
     RDKit          3D

 57 60  0  0  0  0  0  0  0  0999 V2000
   61.1110   32.9290   52.1340 C   0  0  0  0  0  0  0  0  0  0  0  0
   62.0440   32.4770   51.3540 N   0  0  0  0  0  0  0  0  0  0  0  0
   61.9660   32.3010   49.9270 C   0  0  0  0  0  0  0  0  0  0  0  0
   63.1680   32.2660   49.2040 C   0  0  0  0  0  0  0  0  0  0  0  0
   63.1580   32.0820   47.8190 C   0  0  0  0  0  0  0  0  0  0  0  0
   61.9490   31.9280   47.1410 C   0  0  0  0  0  0  0  0  0  0  0  0
   60.7380   31.9550   47.8450 C   0  0  0  0  0  0  0  0  0  0  0  0
   59.2280   31.7170   46.9660 S   0  0  0  0  0  0  0  0  0  0  0  0
   58.4870   30.6050   47.6540 O   0  0  0  0  0  0  0  0  0  0  0  0
   59.5230   31.2910   45.5580 O   0  0  0  0  0  0  0  0  0  0  0  0
   58.2690   33.1930   46.9970 N   0  0  0  0  0  0  0  0  0  0  0  0
   58.8920   34.2420   47.8260 C   0  0  0  0  0  0  0  0  0  0  0  0
   60.1500   34.8370   47.1680 C   0  0  0  0  0  0  0  0  0  0  0  0
   60.0310   34.9670   45.6390 C   0  0  0  0  0  0  0  0  0  0  0  0
   58.5770   34.9500   45.1610 C   0  0  0  0  0  0  0  0  0  0  0  0
   57.7760   33.7220   45.6910 C   0  0  1  0  0  0  0  0  0  0  0  0
   57.5220   32.6430   44.6420 C   0  0  0  0  0  0  0  0  0  0  0  0
   58.1630   32.7340   43.3940 C   0  0  0  0  0  0  0  0  0  0  0  0
   57.9180   31.7860   42.4000 C   0  0  0  0  0  0  0  0  0  0  0  0
   57.0320   30.7340   42.6340 C   0  0  0  0  0  0  0  0  0  0  0  0
   56.3730   30.6190   43.8690 C   0  0  0  0  0  0  0  0  0  0  0  0
   55.4400   29.4970   44.1220 C   0  0  0  0  0  0  0  0  0  0  0  0
   54.4200   29.3470   43.3970 O   0  0  0  0  0  0  0  0  0  0  0  0
   55.6740   28.6000   45.2170 N   0  0  0  0  0  0  0  0  0  0  0  0
   56.8990   27.9060   45.4830 C   0  0  0  0  0  0  0  0  0  0  0  0
   58.1040   28.5110   45.1050 C   0  0  0  0  0  0  0  0  0  0  0  0
   59.3240   27.8650   45.3340 C   0  0  0  0  0  0  0  0  0  0  0  0
   60.8270   28.6440   44.8760 Cl  0  0  0  0  0  0  0  0  0  0  0  0
   59.3430   26.5980   45.9210 C   0  0  0  0  0  0  0  0  0  0  0  0
   58.1440   25.9700   46.2680 C   0  0  0  0  0  0  0  0  0  0  0  0
   56.9180   26.6100   46.0420 C   0  0  0  0  0  0  0  0  0  0  0  0
   55.7260   25.9530   46.3440 O   0  0  0  0  0  0  0  0  0  0  0  0
   56.6200   31.5830   44.8640 C   0  0  0  0  0  0  0  0  0  0  0  0
   60.7450   32.1350   49.2360 C   0  0  0  0  0  0  0  0  0  0  0  0
   61.2930   33.0175   53.2152 H   0  0  0  0  0  0  0  0  0  0  0  0
   60.1379   33.2237   51.7141 H   0  0  0  0  0  0  0  0  0  0  0  0
   64.1258   32.3844   49.7318 H   0  0  0  0  0  0  0  0  0  0  0  0
   64.1062   32.0585   47.2619 H   0  0  0  0  0  0  0  0  0  0  0  0
   61.9462   31.7849   46.0503 H   0  0  0  0  0  0  0  0  0  0  0  0
   58.1608   35.0483   47.9845 H   0  0  0  0  0  0  0  0  0  0  0  0
   59.1959   33.7821   48.7779 H   0  0  0  0  0  0  0  0  0  0  0  0
   60.3261   35.8370   47.5912 H   0  0  0  0  0  0  0  0  0  0  0  0
   60.9830   34.1486   47.3736 H   0  0  0  0  0  0  0  0  0  0  0  0
   60.4934   35.9156   45.3285 H   0  0  0  0  0  0  0  0  0  0  0  0
   60.5410   34.1023   45.1892 H   0  0  0  0  0  0  0  0  0  0  0  0
   58.0824   35.8684   45.5102 H   0  0  0  0  0  0  0  0  0  0  0  0
   58.5923   34.8840   44.0631 H   0  0  0  0  0  0  0  0  0  0  0  0
   56.7775   34.1253   45.9157 H   0  0  0  0  0  0  0  0  0  0  0  0
   58.8635   33.5595   43.1996 H   0  0  0  0  0  0  0  0  0  0  0  0
   58.4256   31.8684   41.4276 H   0  0  0  0  0  0  0  0  0  0  0  0
   56.8482   29.9893   41.8456 H   0  0  0  0  0  0  0  0  0  0  0  0
   58.0915   29.5006   44.6249 H   0  0  0  0  0  0  0  0  0  0  0  0
   60.3023   26.0942   46.1103 H   0  0  0  0  0  0  0  0  0  0  0  0
   58.1626   24.9678   46.7210 H   0  0  0  0  0  0  0  0  0  0  0  0
   55.0550   26.3370   47.0010 H   0  0  0  0  0  0  0  0  0  0  0  0
   56.1006   31.5080   45.8308 H   0  0  0  0  0  0  0  0  0  0  0  0
   59.7956   32.1470   49.7913 H   0  0  0  0  0  0  0  0  0  0  0  0
  1  2  2  0
  2  3  1  0
  3  4  2  0
  4  5  1  0
  5  6  2  0
  6  7  1  0
  7  8  1  0
  8  9  2  0
  8 10  2  0
  8 11  1  0
 11 12  1  0
 12 13  1  0
 13 14  1  0
 14 15  1  0
 15 16  1  0
 16 17  1  0
 17 18  2  0
 18 19  1  0
 19 20  2  0
 20 21  1  0
 21 22  1  0
 22 23  2  0
 22 24  1  0
 24 25  1  0
 25 26  2  0
 26 27  1  0
 27 28  1  0
 27 29  2  0
 29 30  1  0
 30 31  2  0
 31 32  1  0
 21 33  2  0
  7 34  2  0
 34  3  1  0
 16 11  1  0
 33 17  1  0
 31 25  1  0
  1 35  1  0
  1 36  1  0
  4 37  1  0
  5 38  1  0
  6 39  1  0
 12 40  1  0
 12 41  1  0
 13 42  1  0
 13 43  1  0
 14 44  1  0
 14 45  1  0
 15 46  1  0
 15 47  1  0
 16 48  1  1
 18 49  1  0
 19 50  1  0
 20 51  1  0
 26 52  1  0
 29 53  1  0
 30 54  1  0
 32 55  1  0
 33 56  1  0
 34 57  1  0
M  CHG  1  24  -1
M  END
>  <UniqueID>  (5) 
4

>  <SMILES>  (5) 
C=Nc1cccc(S(=O)(=O)N2CCCC[C@H]2c2cccc(C(=O)[N-]c3cc(Cl)ccc3O)c2)c1

>  <Energy>  (5) 
85.29424813193519

>  <Genealogy>  (5) 
C=Nc1cccc(S(=O)(=O)N2CCCCC2c2cccc(C(=O)[N-]c3cc(Cl)ccc3O)c2)c1 (protonated)
C=Nc1cccc(S(=O)(=O)N2CCCC[C@H]2c2cccc(C(=O)[N-]c3cc(Cl)ccc3O)c2)c1 (chirality)
C=Nc1cccc(S(=O)(=O)N2CCCC[C@H]2c2cccc(C(=O)[N-]c3cc(Cl)ccc3O)c2)c1 (3D coordinates assigned)
C=Nc1cccc(S(=O)(=O)N2CCCC[C@H]2c2cccc(C(=O)[N-]c3cc(Cl)ccc3O)c2)c1 (nonaromatic ring conformer: 85.29424813193519 kcal/mol)

>  <smiles>  (5) 
C=Nc1cccc(S(=O)(=O)N2CCCCC2c2cccc(C(=O)Nc3cc(Cl)ccc3O)c2)c1

>  <score_type>  (5) 
oracle

>  <origin>  (5) 
adg

>  <m_score__min__energy>  (5) 
-13.67

>  <m_primary>  (5) 
energy

$$$$
5:0
     RDKit          3D

 69 72  0  0  0  0  0  0  0  0999 V2000
   54.0240   26.3390   46.4180 H   0  0  0  0  0  0  0  0  0  0  0  0
   54.9090   26.5700   45.9870 O   0  0  0  0  0  0  0  0  0  0  0  0
   56.0850   25.8770   46.2740 C   0  0  0  0  0  0  0  0  0  0  0  0
   55.9990   24.6870   46.9240 N   0  0  0  0  0  0  0  0  0  0  0  0
   57.1090   23.9660   47.2270 C   0  0  0  0  0  0  0  0  0  0  0  0
   56.9990   22.8670   47.8310 O   0  0  0  0  0  0  0  0  0  0  0  0
   58.3370   24.4260   46.8750 N   0  0  0  0  0  0  0  0  0  0  0  0
   58.4820   25.6090   46.2250 C   0  0  0  0  0  0  0  0  0  0  0  0
   59.6370   26.0040   45.9070 O   0  0  0  0  0  0  0  0  0  0  0  0
   57.3500   26.3810   45.9140 C   0  0  0  0  0  0  0  0  0  0  0  0
   57.4980   27.6600   45.1990 C   0  0  0  0  0  0  0  0  0  0  0  0
   57.2620   27.6679   44.1246 H   0  0  0  0  0  0  0  0  0  0  0  0
   57.8990   28.8220   45.7530 C   0  0  0  0  0  0  0  0  0  0  0  0
   58.2230   28.9300   47.0940 C   0  0  0  0  0  0  0  0  0  0  0  0
   58.2161   28.1174   47.8354 H   0  0  0  0  0  0  0  0  0  0  0  0
   58.5560   30.2470   47.3260 C   0  0  0  0  0  0  0  0  0  0  0  0
   58.8330   30.8170   48.6840 C   0  0  0  0  0  0  0  0  0  0  0  0
   58.4900   30.1112   49.4548 H   0  0  0  0  0  0  0  0  0  0  0  0
   59.9140   30.9865   48.7970 H   0  0  0  0  0  0  0  0  0  0  0  0
   58.2984   31.7717   48.7970 H   0  0  0  0  0  0  0  0  0  0  0  0
   58.4680   30.9620   46.1820 N   0  0  0  0  0  0  0  0  0  0  0  0
   58.7490   32.3690   46.0450 C   0  0  0  0  0  0  0  0  0  0  0  0
   57.7770   33.2140   45.4910 C   0  0  0  0  0  0  0  0  0  0  0  0
   56.7911   32.8085   45.2199 H   0  0  0  0  0  0  0  0  0  0  0  0
   58.0520   34.5670   45.2810 C   0  0  0  0  0  0  0  0  0  0  0  0
   57.2808   35.2240   44.8525 H   0  0  0  0  0  0  0  0  0  0  0  0
   59.3040   35.0870   45.6140 C   0  0  0  0  0  0  0  0  0  0  0  0
   59.5204   36.1513   45.4395 H   0  0  0  0  0  0  0  0  0  0  0  0
   60.2820   34.2590   46.1680 C   0  0  0  0  0  0  0  0  0  0  0  0
   61.2697   34.6719   46.4208 H   0  0  0  0  0  0  0  0  0  0  0  0
   60.0110   32.9020   46.4040 C   0  0  0  0  0  0  0  0  0  0  0  0
   61.0580   32.0570   47.0110 C   0  0  0  0  0  0  0  0  0  0  0  0
   61.4580   31.0340   46.3900 O   0  0  0  0  0  0  0  0  0  0  0  0
   61.6250   32.3870   48.2910 N   0  0  0  0  0  0  0  0  0  0  0  0
   61.9920   33.7860   48.5590 C   0  0  0  0  0  0  0  0  0  0  0  0
   62.6875   34.1275   47.7782 H   0  0  0  0  0  0  0  0  0  0  0  0
   61.0708   34.3872   48.5584 H   0  0  0  0  0  0  0  0  0  0  0  0
   62.6640   33.9460   49.9260 C   0  0  0  0  0  0  0  0  0  0  0  0
   63.6917   33.5570   49.8750 H   0  0  0  0  0  0  0  0  0  0  0  0
   62.6828   35.0117   50.1977 H   0  0  0  0  0  0  0  0  0  0  0  0
   61.8790   33.1690   50.9870 C   0  0  0  0  0  0  0  0  0  0  0  0
   60.8418   33.5354   50.9953 H   0  0  0  0  0  0  0  0  0  0  0  0
   62.4900   33.3930   52.2950 N   0  0  0  0  0  0  0  0  0  0  0  0
   63.7170   32.7910   52.7120 C   0  0  0  0  0  0  0  0  0  0  0  0
   63.7220   31.9620   53.6630 O   0  0  0  0  0  0  0  0  0  0  0  0
   64.8990   33.1330   52.0390 O   0  0  0  0  0  0  0  0  0  0  0  0
   65.6760   32.2720   51.1930 C   0  0  0  0  0  0  0  0  0  0  0  0
   65.1590   30.8240   51.2650 C   0  0  0  0  0  0  0  0  0  0  0  0
   65.0522   30.5248   52.3181 H   0  0  0  0  0  0  0  0  0  0  0  0
   64.1818   30.7582   50.7642 H   0  0  0  0  0  0  0  0  0  0  0  0
   65.8735   30.1542   50.7642 H   0  0  0  0  0  0  0  0  0  0  0  0
   65.6650   32.7830   49.7400 C   0  0  0  0  0  0  0  0  0  0  0  0
   65.6413   33.8827   49.7383 H   0  0  0  0  0  0  0  0  0  0  0  0
   66.5708   32.4349   49.2220 H   0  0  0  0  0  0  0  0  0  0  0  0
   64.7750   32.3963   49.2220 H   0  0  0  0  0  0  0  0  0  0  0  0
   67.1190   32.3080   51.7190 C   0  0  0  0  0  0  0  0  0  0  0  0
   67.1084   32.3077   52.8190 H   0  0  0  0  0  0  0  0  0  0  0  0
   67.6633   31.4232   51.3573 H   0  0  0  0  0  0  0  0  0  0  0  0
   67.6185   33.2189   51.3573 H   0  0  0  0  0  0  0  0  0  0  0  0
   61.8250   31.6550   50.6620 C   0  0  0  0  0  0  0  0  0  0  0  0
   62.5855   31.1445   51.2711 H   0  0  0  0  0  0  0  0  0  0  0  0
   60.8016   31.3207   50.8876 H   0  0  0  0  0  0  0  0  0  0  0  0
   62.0840   31.3150   49.1830 C   0  0  0  0  0  0  0  0  0  0  0  0
   63.1638   31.1662   49.0352 H   0  0  0  0  0  0  0  0  0  0  0  0
   61.5229   30.4011   48.9379 H   0  0  0  0  0  0  0  0  0  0  0  0
   58.0510   30.1100   45.2080 C   0  0  0  0  0  0  0  0  0  0  0  0
   57.8030   30.5030   43.9470 C   0  0  0  0  0  0  0  0  0  0  0  0
   57.9674   31.5507   43.6551 H   0  0  0  0  0  0  0  0  0  0  0  0
   57.4357   29.7769   43.2068 H   0  0  0  0  0  0  0  0  0  0  0  0
  1  2  1  0
  2  3  1  0
  3  4  1  0
  4  5  1  0
  5  6  2  0
  5  7  1  0
  7  8  1  0
  8  9  2  0
  8 10  1  0
 10 11  1  0
 11 12  1  0
 11 13  2  0
 13 14  1  0
 14 15  1  0
 14 16  2  0
 16 17  1  0
 17 18  1  0
 17 19  1  0
 17 20  1  0
 16 21  1  0
 21 22  1  0
 22 23  2  0
 23 24  1  0
 23 25  1  0
 25 26  1  0
 25 27  2  0
 27 28  1  0
 27 29  1  0
 29 30  1  0
 29 31  2  0
 31 32  1  0
 32 33  2  0
 32 34  1  0
 34 35  1  0
 35 36  1  0
 35 37  1  0
 35 38  1  0
 38 39  1  0
 38 40  1  0
 38 41  1  0
 41 42  1  0
 41 43  1  0
 43 44  1  0
 44 45  2  0
 44 46  1  0
 46 47  1  0
 47 48  1  0
 48 49  1  0
 48 50  1  0
 48 51  1  0
 47 52  1  0
 52 53  1  0
 52 54  1  0
 52 55  1  0
 47 56  1  0
 56 57  1  0
 56 58  1  0
 56 59  1  0
 41 60  1  0
 60 61  1  0
 60 62  1  0
 60 63  1  0
 63 64  1  0
 63 65  1  0
 21 66  1  0
 66 67  2  0
 67 68  1  0
 67 69  1  0
 10  3  2  0
 66 13  1  0
 31 22  1  0
 63 34  1  0
M  CHG  3   4  -1   7  -1  43  -1
M  END
>  <UniqueID>  (6) 
5

>  <SMILES>  (6) 
C=c1/c(=C\c2c(O)[n-]c(=O)[n-]c2=O)cc(C)n1-c1ccccc1C(=O)N1CCC([N-]C(=O)OC(C)(C)C)CC1

>  <Energy>  (6) 
118.40548738228857

>  <Genealogy>  (6) 
C=c1c(=Cc2c(O)[n-]c(=O)[n-]c2=O)cc(C)n1-c1ccccc1C(=O)N1CCC([N-]C(=O)OC(C)(C)C)CC1 (protonated)
C=c1/c(=C\c2c(O)[n-]c(=O)[n-]c2=O)cc(C)n1-c1ccccc1C(=O)N1CCC([N-]C(=O)OC(C)(C)C)CC1 (cis-trans isomerization)
C=c1/c(=C\c2c(O)[n-]c(=O)[n-]c2=O)cc(C)n1-c1ccccc1C(=O)N1CCC([N-]C(=O)OC(C)(C)C)CC1 (3D coordinates assigned)
C=c1/c(=C\c2c(O)[n-]c(=O)[n-]c2=O)cc(C)n1-c1ccccc1C(=O)N1CCC([N-]C(=O)OC(C)(C)C)CC1 (nonaromatic ring conformer: 118.40548738228857 kcal/mol)

>  <smiles>  (6) 
C=c1c(=Cc2c(O)[nH]c(=O)[nH]c2=O)cc(C)n1-c1ccccc1C(=O)N1CCC(NC(=O)OC(C)(C)C)CC1

>  <score_type>  (6) 
oracle

>  <origin>  (6) 
adg

>  <m_score__min__energy>  (6) 
-15.109999999999999

>  <m_primary>  (6) 
energy

$$$$
6:0
     RDKit          3D

 51 53  0  0  0  0  0  0  0  0999 V2000
   55.0480   26.1730   45.9840 N   0  0  0  0  0  0  0  0  0  0  0  0
   56.7750   26.1630   45.9150 S   0  0  0  0  0  0  0  0  0  0  0  0
   57.3100   25.3070   47.0280 O   0  0  0  0  0  0  0  0  0  0  0  0
   57.2240   25.5860   44.6020 O   0  0  0  0  0  0  0  0  0  0  0  0
   57.3780   27.8090   46.0730 C   0  0  0  0  0  0  0  0  0  0  0  0
   58.2740   28.1460   47.0980 C   0  0  0  0  0  0  0  0  0  0  0  0
   58.7340   29.4590   47.2260 C   0  0  0  0  0  0  0  0  0  0  0  0
   58.2950   30.4550   46.3410 C   0  0  0  0  0  0  0  0  0  0  0  0
   58.8070   31.8630   46.4670 C   0  0  0  0  0  0  0  0  0  0  0  0
   57.7080   32.7940   46.9840 C   0  0  0  0  0  0  0  0  0  0  0  0
   57.7550   34.0700   46.2790 N   0  0  0  0  0  0  0  0  0  0  0  0
   58.8160   34.4460   45.3960 C   0  0  0  0  0  0  0  0  0  0  0  0
   58.7370   34.2080   44.1600 O   0  0  0  0  0  0  0  0  0  0  0  0
   60.0020   35.1760   45.9400 C   0  0  0  0  0  0  0  0  0  0  0  0
   60.6650   34.3590   46.9530 N   0  0  0  0  0  0  0  0  0  0  0  0
   62.0120   33.8060   46.8170 C   0  0  0  0  0  0  0  0  0  0  0  0
   62.4240   33.3330   48.2340 C   0  0  0  0  0  0  0  0  0  0  0  0
   61.3330   33.7340   49.1150 N   0  0  0  0  0  0  0  0  0  0  0  0
   61.2650   33.4830   50.5520 C   0  0  0  0  0  0  0  0  0  0  0  0
   59.8960   32.9840   50.9220 C   0  0  0  0  0  0  0  0  0  0  0  0
   59.3790   31.8160   50.3340 C   0  0  0  0  0  0  0  0  0  0  0  0
   58.1260   31.3310   50.7180 C   0  0  0  0  0  0  0  0  0  0  0  0
   57.3840   32.0020   51.6940 C   0  0  0  0  0  0  0  0  0  0  0  0
   56.1700   31.5280   52.0690 F   0  0  0  0  0  0  0  0  0  0  0  0
   57.8960   33.1580   52.2910 C   0  0  0  0  0  0  0  0  0  0  0  0
   59.1500   33.6470   51.9110 C   0  0  0  0  0  0  0  0  0  0  0  0
   60.3280   34.3320   48.3240 C   0  0  0  0  0  0  0  0  0  0  0  0
   59.2640   34.8160   48.7920 O   0  0  0  0  0  0  0  0  0  0  0  0
   57.4040   30.1140   45.3100 C   0  0  0  0  0  0  0  0  0  0  0  0
   56.9440   28.8000   45.1820 C   0  0  0  0  0  0  0  0  0  0  0  0
   54.7640   27.0920   46.3900 H   0  0  0  0  0  0  0  0  0  0  0  0
   58.6156   27.3741   47.8033 H   0  0  0  0  0  0  0  0  0  0  0  0
   59.4450   29.7134   48.0259 H   0  0  0  0  0  0  0  0  0  0  0  0
   59.6531   31.8780   47.1698 H   0  0  0  0  0  0  0  0  0  0  0  0
   59.1287   32.2124   45.4748 H   0  0  0  0  0  0  0  0  0  0  0  0
   56.7270   32.3242   46.8198 H   0  0  0  0  0  0  0  0  0  0  0  0
   57.8645   32.9718   48.0582 H   0  0  0  0  0  0  0  0  0  0  0  0
   60.7071   35.3872   45.1226 H   0  0  0  0  0  0  0  0  0  0  0  0
   59.6691   36.1200   46.3961 H   0  0  0  0  0  0  0  0  0  0  0  0
   62.0081   32.9576   46.1169 H   0  0  0  0  0  0  0  0  0  0  0  0
   62.7161   34.5524   46.4206 H   0  0  0  0  0  0  0  0  0  0  0  0
   62.5503   32.2404   48.2523 H   0  0  0  0  0  0  0  0  0  0  0  0
   63.3822   33.7732   48.5470 H   0  0  0  0  0  0  0  0  0  0  0  0
   62.0149   32.7262   50.8256 H   0  0  0  0  0  0  0  0  0  0  0  0
   61.4664   34.4197   51.0923 H   0  0  0  0  0  0  0  0  0  0  0  0
   59.9627   31.2824   49.5694 H   0  0  0  0  0  0  0  0  0  0  0  0
   57.7231   30.4199   50.2515 H   0  0  0  0  0  0  0  0  0  0  0  0
   57.3117   33.6836   53.0606 H   0  0  0  0  0  0  0  0  0  0  0  0
   59.5532   34.5528   52.3875 H   0  0  0  0  0  0  0  0  0  0  0  0
   57.0668   30.8840   44.6004 H   0  0  0  0  0  0  0  0  0  0  0  0
   56.2383   28.5428   44.3784 H   0  0  0  0  0  0  0  0  0  0  0  0
  1  2  1  0
  2  3  2  0
  2  4  2  0
  2  5  1  0
  5  6  2  0
  6  7  1  0
  7  8  2  0
  8  9  1  0
  9 10  1  0
 10 11  1  0
 11 12  1  0
 12 13  2  0
 12 14  1  0
 14 15  1  0
 15 16  1  0
 16 17  1  0
 17 18  1  0
 18 19  1  0
 19 20  1  0
 20 21  2  0
 21 22  1  0
 22 23  2  0
 23 24  1  0
 23 25  1  0
 25 26  2  0
 18 27  1  0
 27 28  2  0
  8 29  1  0
 29 30  2  0
 30  5  1  0
 27 15  1  0
 26 20  1  0
  1 31  1  0
  6 32  1  0
  7 33  1  0
  9 34  1  0
  9 35  1  0
 10 36  1  0
 10 37  1  0
 14 38  1  0
 14 39  1  0
 16 40  1  0
 16 41  1  0
 17 42  1  0
 17 43  1  0
 19 44  1  0
 19 45  1  0
 21 46  1  0
 22 47  1  0
 25 48  1  0
 26 49  1  0
 29 50  1  0
 30 51  1  0
M  CHG  2   1  -1  11  -1
M  END
>  <UniqueID>  (7) 
6

>  <SMILES>  (7) 
[NH-]S(=O)(=O)c1ccc(CC[N-]C(=O)CN2CCN(Cc3ccc(F)cc3)C2=O)cc1

>  <Energy>  (7) 
55.164447191750234

>  <Genealogy>  (7) 
[NH-]S(=O)(=O)c1ccc(CC[N-]C(=O)CN2CCN(Cc3ccc(F)cc3)C2=O)cc1 (protonated)
[NH-]S(=O)(=O)c1ccc(CC[N-]C(=O)CN2CCN(Cc3ccc(F)cc3)C2=O)cc1 (3D coordinates assigned)
[NH-]S(=O)(=O)c1ccc(CC[N-]C(=O)CN2CCN(Cc3ccc(F)cc3)C2=O)cc1 (nonaromatic ring conformer: 55.164447191750234 kcal/mol)

>  <smiles>  (7) 
NS(=O)(=O)c1ccc(CCNC(=O)CN2CCN(Cc3ccc(F)cc3)C2=O)cc1

>  <score_type>  (7) 
oracle

>  <origin>  (7) 
adg

>  <m_score__min__energy>  (7) 
-12.029999999999999

>  <m_primary>  (7) 
energy

$$$$
7:0
     RDKit          3D

 61 64  0  0  0  0  0  0  0  0999 V2000
   55.9790   29.3370   51.6820 H   0  0  0  0  0  0  0  0  0  0  0  0
   55.4650   30.1870   51.6190 O   0  0  0  0  0  0  0  0  0  0  0  0
   54.9730   30.4350   52.9090 C   0  0  0  0  0  0  0  0  0  0  0  0
   53.9462   30.0490   52.9908 H   0  0  0  0  0  0  0  0  0  0  0  0
   54.9725   31.5182   53.1005 H   0  0  0  0  0  0  0  0  0  0  0  0
   55.8620   29.7370   53.9320 C   0  0  0  0  0  0  0  0  0  0  0  0
   55.4840   28.7199   54.1126 H   0  0  0  0  0  0  0  0  0  0  0  0
   55.8521   30.3051   54.8739 H   0  0  0  0  0  0  0  0  0  0  0  0
   57.2240   29.6650   53.4240 N   0  0  0  0  0  0  0  0  0  0  0  0
   58.3060   30.4270   53.9710 C   0  0  0  0  0  0  0  0  0  0  0  0
   59.0880   29.8930   54.8030 O   0  0  0  0  0  0  0  0  0  0  0  0
   58.4240   31.8650   53.6390 C   0  0  0  0  0  0  0  0  0  0  0  0
   58.9720   32.7070   54.6250 C   0  0  0  0  0  0  0  0  0  0  0  0
   59.2349   32.2892   55.6080 H   0  0  0  0  0  0  0  0  0  0  0  0
   59.1870   34.0620   54.3760 C   0  0  0  0  0  0  0  0  0  0  0  0
   59.6131   34.7042   55.1608 H   0  0  0  0  0  0  0  0  0  0  0  0
   58.8630   34.6020   53.1360 C   0  0  0  0  0  0  0  0  0  0  0  0
   59.0439   35.6685   52.9364 H   0  0  0  0  0  0  0  0  0  0  0  0
   58.3090   33.7920   52.1460 C   0  0  0  0  0  0  0  0  0  0  0  0
   58.0660   34.2280   51.1658 H   0  0  0  0  0  0  0  0  0  0  0  0
   58.0540   32.4240   52.3770 C   0  0  0  0  0  0  0  0  0  0  0  0
   57.3590   31.6670   51.3520 N   0  0  0  0  0  0  0  0  0  0  0  0
   56.9660   30.7970   51.7810 H   0  0  0  0  0  0  0  0  0  0  0  0
   56.5490   32.1760   50.9440 H   0  0  0  0  0  0  0  0  0  0  0  0
   58.2770   31.3200   50.2920 C   0  0  0  0  0  0  0  0  0  0  0  0
   58.7300   32.3000   49.3890 C   0  0  0  0  0  0  0  0  0  0  0  0
   58.3441   33.3278   49.4583 H   0  0  0  0  0  0  0  0  0  0  0  0
   59.6690   31.9740   48.4030 C   0  0  0  0  0  0  0  0  0  0  0  0
   60.0244   32.7468   47.7056 H   0  0  0  0  0  0  0  0  0  0  0  0
   60.1560   30.6650   48.3040 C   0  0  0  0  0  0  0  0  0  0  0  0
   61.3440   30.2180   47.0350 S   0  0  0  0  0  0  0  0  0  0  0  0
   60.2970   28.9360   46.3340 C   0  0  0  0  0  0  0  0  0  0  0  0
   60.7690   27.6200   46.2390 C   0  0  0  0  0  0  0  0  0  0  0  0
   61.7906   27.3780   46.5674 H   0  0  0  0  0  0  0  0  0  0  0  0
   59.9460   26.6170   45.7290 C   0  0  0  0  0  0  0  0  0  0  0  0
   60.3251   25.5883   45.6394 H   0  0  0  0  0  0  0  0  0  0  0  0
   58.6420   26.9160   45.3320 C   0  0  0  0  0  0  0  0  0  0  0  0
   57.9953   26.1168   44.9408 H   0  0  0  0  0  0  0  0  0  0  0  0
   58.1460   28.2290   45.4270 C   0  0  0  0  0  0  0  0  0  0  0  0
   56.7300   28.5010   45.0630 C   0  0  0  0  0  0  0  0  0  0  0  0
   55.8130   27.8350   45.6230 O   0  0  0  0  0  0  0  0  0  0  0  0
   56.3570   29.5440   44.1480 N   0  0  0  0  0  0  0  0  0  0  0  0
   56.8490   30.7500   44.1220 C   0  0  0  0  0  0  0  0  0  0  0  0
   56.6940   31.5990   45.1810 N   0  0  0  0  0  0  0  0  0  0  0  0
   57.1870   32.8690   45.1660 C   0  0  0  0  0  0  0  0  0  0  0  0
   57.0270   33.7430   46.3730 C   0  0  0  0  0  0  0  0  0  0  0  0
   57.1383   33.1353   47.2831 H   0  0  0  0  0  0  0  0  0  0  0  0
   57.7961   34.5293   46.3609 H   0  0  0  0  0  0  0  0  0  0  0  0
   56.0292   34.2059   46.3609 H   0  0  0  0  0  0  0  0  0  0  0  0
   57.8870   33.3290   44.0420 C   0  0  0  0  0  0  0  0  0  0  0  0
   58.2848   34.3543   44.0172 H   0  0  0  0  0  0  0  0  0  0  0  0
   58.0750   32.4730   42.9530 C   0  0  0  0  0  0  0  0  0  0  0  0
   58.6262   32.8204   42.0667 H   0  0  0  0  0  0  0  0  0  0  0  0
   57.5610   31.1760   42.9940 C   0  0  0  0  0  0  0  0  0  0  0  0
   57.7142   30.4928   42.1456 H   0  0  0  0  0  0  0  0  0  0  0  0
   58.9870   29.2410   45.9370 C   0  0  0  0  0  0  0  0  0  0  0  0
   58.5200   30.5030   46.1190 F   0  0  0  0  0  0  0  0  0  0  0  0
   59.6900   29.6800   49.1820 C   0  0  0  0  0  0  0  0  0  0  0  0
   60.0570   28.6470   49.0916 H   0  0  0  0  0  0  0  0  0  0  0  0
   58.7610   30.0040   50.1720 C   0  0  0  0  0  0  0  0  0  0  0  0
   58.4049   29.2257   50.8629 H   0  0  0  0  0  0  0  0  0  0  0  0
  1  2  1  0
  2  3  1  0
  3  4  1  0
  3  5  1  0
  3  6  1  0
  6  7  1  0
  6  8  1  0
  6  9  1  0
  9 10  1  0
 10 11  2  0
 10 12  1  0
 12 13  2  0
 13 14  1  0
 13 15  1  0
 15 16  1  0
 15 17  2  0
 17 18  1  0
 17 19  1  0
 19 20  1  0
 19 21  2  0
 21 22  1  0
 22 23  1  0
 22 24  1  0
 22 25  1  0
 25 26  2  0
 26 27  1  0
 26 28  1  0
 28 29  1  0
 28 30  2  0
 30 31  1  0
 31 32  1  0
 32 33  2  0
 33 34  1  0
 33 35  1  0
 35 36  1  0
 35 37  2  0
 37 38  1  0
 37 39  1  0
 39 40  1  0
 40 41  2  0
 40 42  1  0
 42 43  2  0
 43 44  1  0
 44 45  1  0
 45 46  1  0
 46 47  1  0
 46 48  1  0
 46 49  1  0
 45 50  2  0
 50 51  1  0
 50 52  1  0
 52 53  1  0
 52 54  2  0
 54 55  1  0
 39 56  2  0
 56 57  1  0
 30 58  1  0
 58 59  1  0
 58 60  2  0
 60 61  1  0
 21 12  1  0
 60 25  1  0
 56 32  1  0
 54 43  1  0
M  CHG  3   9  -1  22   1  44  -1
M  END
>  <UniqueID>  (8) 
7

>  <SMILES>  (8) 
Cc1ccc/c(=N/C(=O)c2cccc(Sc3ccc([NH2+]c4ccccc4C(=O)[N-]CCO)cc3)c2F)[n-]1

>  <Energy>  (8) 
69.52329722374726

>  <Genealogy>  (8) 
Cc1cccc(=NC(=O)c2cccc(Sc3ccc([NH2+]c4ccccc4C(=O)[N-]CCO)cc3)c2F)[n-]1 (protonated)
Cc1ccc/c(=N/C(=O)c2cccc(Sc3ccc([NH2+]c4ccccc4C(=O)[N-]CCO)cc3)c2F)[n-]1 (cis-trans isomerization)
Cc1ccc/c(=N/C(=O)c2cccc(Sc3ccc([NH2+]c4ccccc4C(=O)[N-]CCO)cc3)c2F)[n-]1 (3D coordinates assigned)
Cc1ccc/c(=N/C(=O)c2cccc(Sc3ccc([NH2+]c4ccccc4C(=O)[N-]CCO)cc3)c2F)[n-]1 (optimized conformer: 69.52329722374726 kcal/mol)

>  <smiles>  (8) 
Cc1cccc(=NC(=O)c2cccc(Sc3ccc(Nc4ccccc4C(=O)NCCO)cc3)c2F)[nH]1

>  <score_type>  (8) 
oracle

>  <origin>  (8) 
adg

>  <m_score__min__energy>  (8) 
-11.619999999999999

>  <m_primary>  (8) 
energy

$$$$
8:0
     RDKit          3D

 55 58  0  0  0  0  0  0  0  0999 V2000
   60.4580   27.1420   48.1250 O   0  0  0  0  0  0  0  0  0  0  0  0
   59.8530   28.0800   47.5370 C   0  0  0  0  0  0  0  0  0  0  0  0
   58.7900   27.7830   46.6100 N   0  0  0  0  0  0  0  0  0  0  0  0
   58.3880   26.4520   46.2490 C   0  0  0  0  0  0  0  0  0  0  0  0
   59.3340   25.4440   45.9870 C   0  0  0  0  0  0  0  0  0  0  0  0
   58.9140   24.1620   45.6220 C   0  0  0  0  0  0  0  0  0  0  0  0
   57.5530   23.8770   45.5010 C   0  0  0  0  0  0  0  0  0  0  0  0
   56.6000   24.8770   45.7390 C   0  0  0  0  0  0  0  0  0  0  0  0
   54.8780   24.5160   45.5990 S   0  0  0  0  0  0  0  0  0  0  0  0
   54.6200   23.8480   44.2770 O   0  0  0  0  0  0  0  0  0  0  0  0
   54.1000   25.8020   45.6260 O   0  0  0  0  0  0  0  0  0  0  0  0
   54.3190   23.4700   46.8880 N   0  0  0  0  0  0  0  0  0  0  0  0
   54.0940   22.1050   46.4020 C   0  0  0  0  0  0  0  0  0  0  0  0
   55.3220   21.2710   46.7330 C   0  0  0  0  0  0  0  0  0  0  0  0
   56.0920   22.0660   47.7690 C   0  0  0  0  0  0  0  0  0  0  0  0
   55.3180   23.3640   47.9580 C   0  0  0  0  0  0  0  0  0  0  0  0
   57.0240   26.1640   46.0960 C   0  0  0  0  0  0  0  0  0  0  0  0
   60.2480   29.4780   47.8250 C   0  0  0  0  0  0  0  0  0  0  0  0
   60.1230   30.0220   49.1160 C   0  0  0  0  0  0  0  0  0  0  0  0
   60.5040   31.3430   49.3690 C   0  0  0  0  0  0  0  0  0  0  0  0
   61.0210   32.1420   48.3380 C   0  0  0  0  0  0  0  0  0  0  0  0
   61.3840   33.5780   48.5960 C   0  0  0  0  0  0  0  0  0  0  0  0
   59.8950   34.5840   48.9250 S   0  0  0  0  0  0  0  0  0  0  0  0
   59.1480   34.2980   47.3160 C   0  0  0  0  0  0  0  0  0  0  0  0
   58.0430   33.4440   47.1970 C   0  0  0  0  0  0  0  0  0  0  0  0
   57.4740   33.2100   45.9410 C   0  0  0  0  0  0  0  0  0  0  0  0
   58.0050   33.8280   44.8040 C   0  0  0  0  0  0  0  0  0  0  0  0
   59.1020   34.6880   44.9240 C   0  0  0  0  0  0  0  0  0  0  0  0
   59.6700   34.9270   46.1790 C   0  0  0  0  0  0  0  0  0  0  0  0
   61.1570   31.6010   47.0520 C   0  0  0  0  0  0  0  0  0  0  0  0
   60.7820   30.2780   46.7990 C   0  0  0  0  0  0  0  0  0  0  0  0
   58.2290   28.5690   46.2140 H   0  0  0  0  0  0  0  0  0  0  0  0
   60.4082   25.6658   46.0698 H   0  0  0  0  0  0  0  0  0  0  0  0
   59.6582   23.3752   45.4295 H   0  0  0  0  0  0  0  0  0  0  0  0
   57.2274   22.8651   45.2181 H   0  0  0  0  0  0  0  0  0  0  0  0
   53.2092   21.6759   46.8950 H   0  0  0  0  0  0  0  0  0  0  0  0
   53.9235   22.1132   45.3153 H   0  0  0  0  0  0  0  0  0  0  0  0
   55.0234   20.2949   47.1430 H   0  0  0  0  0  0  0  0  0  0  0  0
   55.9311   21.0732   45.8386 H   0  0  0  0  0  0  0  0  0  0  0  0
   56.1443   21.5101   48.7168 H   0  0  0  0  0  0  0  0  0  0  0  0
   57.1263   22.2556   47.4462 H   0  0  0  0  0  0  0  0  0  0  0  0
   54.8148   23.3570   48.9362 H   0  0  0  0  0  0  0  0  0  0  0  0
   56.0052   24.2220   47.9186 H   0  0  0  0  0  0  0  0  0  0  0  0
   56.2790   26.9569   46.2580 H   0  0  0  0  0  0  0  0  0  0  0  0
   59.7225   29.4034   49.9326 H   0  0  0  0  0  0  0  0  0  0  0  0
   60.3979   31.7584   50.3820 H   0  0  0  0  0  0  0  0  0  0  0  0
   62.0517   33.6285   49.4687 H   0  0  0  0  0  0  0  0  0  0  0  0
   61.8851   33.9777   47.7021 H   0  0  0  0  0  0  0  0  0  0  0  0
   57.6237   32.9583   48.0905 H   0  0  0  0  0  0  0  0  0  0  0  0
   56.6075   32.5389   45.8471 H   0  0  0  0  0  0  0  0  0  0  0  0
   57.5603   33.6379   43.8160 H   0  0  0  0  0  0  0  0  0  0  0  0
   59.5179   35.1764   44.0304 H   0  0  0  0  0  0  0  0  0  0  0  0
   60.5275   35.6096   46.2733 H   0  0  0  0  0  0  0  0  0  0  0  0
   61.5608   32.2205   46.2377 H   0  0  0  0  0  0  0  0  0  0  0  0
   60.9057   29.8595   45.7893 H   0  0  0  0  0  0  0  0  0  0  0  0
  1  2  2  0
  2  3  1  0
  3  4  1  0
  4  5  2  0
  5  6  1  0
  6  7  2  0
  7  8  1  0
  8  9  1  0
  9 10  2  0
  9 11  2  0
  9 12  1  0
 12 13  1  0
 13 14  1  0
 14 15  1  0
 15 16  1  0
  8 17  2  0
  2 18  1  0
 18 19  2  0
 19 20  1  0
 20 21  2  0
 21 22  1  0
 22 23  1  0
 23 24  1  0
 24 25  2  0
 25 26  1  0
 26 27  2  0
 27 28  1  0
 28 29  2  0
 21 30  1  0
 30 31  2  0
 17  4  1  0
 31 18  1  0
 16 12  1  0
 29 24  1  0
  3 32  1  0
  5 33  1  0
  6 34  1  0
  7 35  1  0
 13 36  1  0
 13 37  1  0
 14 38  1  0
 14 39  1  0
 15 40  1  0
 15 41  1  0
 16 42  1  0
 16 43  1  0
 17 44  1  0
 19 45  1  0
 20 46  1  0
 22 47  1  0
 22 48  1  0
 25 49  1  0
 26 50  1  0
 27 51  1  0
 28 52  1  0
 29 53  1  0
 30 54  1  0
 31 55  1  0
M  END
>  <UniqueID>  (9) 
8

>  <SMILES>  (9) 
O=C(Nc1cccc(S(=O)(=O)N2CCCC2)c1)c1ccc(CSc2ccccc2)cc1

>  <Energy>  (9) 
59.71143449217019

>  <Genealogy>  (9) 
O=C(Nc1cccc(S(=O)(=O)N2CCCC2)c1)c1ccc(CSc2ccccc2)cc1 (3D coordinates assigned)
O=C(Nc1cccc(S(=O)(=O)N2CCCC2)c1)c1ccc(CSc2ccccc2)cc1 (nonaromatic ring conformer: 59.71143449217019 kcal/mol)

>  <smiles>  (9) 
O=C(Nc1cccc(S(=O)(=O)N2CCCC2)c1)c1ccc(CSc2ccccc2)cc1

>  <score_type>  (9) 
oracle

>  <origin>  (9) 
adg

>  <m_score__min__energy>  (9) 
-9.7599999999999998

>  <m_primary>  (9) 
energy

$$$$
9:0
     RDKit          3D

 41 43  0  0  0  0  0  0  0  0999 V2000
   53.8550   28.1990   53.1790 C   0  0  0  0  0  0  0  0  0  0  0  0
   54.7310   29.1860   52.9390 C   0  0  0  0  0  0  0  0  0  0  0  0
   56.0480   28.8810   53.0970 N   0  0  0  0  0  0  0  0  0  0  0  0
   57.0590   29.7000   52.7090 C   0  0  0  0  0  0  0  0  0  0  0  0
   58.4720   29.2430   52.9290 C   0  0  0  0  0  0  0  0  0  0  0  0
   56.7560   30.9130   52.0650 C   0  0  0  0  0  0  0  0  0  0  0  0
   57.8080   31.8350   51.5770 C   0  0  0  0  0  0  0  0  0  0  0  0
   57.9970   32.9240   52.1820 O   0  0  0  0  0  0  0  0  0  0  0  0
   58.5840   31.5290   50.4000 N   0  0  0  0  0  0  0  0  0  0  0  0
   58.9750   30.1380   50.1070 C   0  0  0  0  0  0  0  0  0  0  0  0
   58.5340   29.7300   48.7000 C   0  0  0  0  0  0  0  0  0  0  0  0
   59.1860   30.8780   47.5030 S   0  0  0  0  0  0  0  0  0  0  0  0
   58.0730   31.4010   46.6380 O   0  0  0  0  0  0  0  0  0  0  0  0
   60.2130   30.1980   46.6420 O   0  0  0  0  0  0  0  0  0  0  0  0
   59.9410   32.2210   48.3940 C   0  0  0  0  0  0  0  0  0  0  0  0
   59.0480   32.6540   49.5630 C   0  0  0  0  0  0  0  0  0  0  0  0
   55.4120   31.2740   51.9160 C   0  0  0  0  0  0  0  0  0  0  0  0
   54.3710   30.4650   52.4130 C   0  0  0  0  0  0  0  0  0  0  0  0
   53.1160   30.9820   52.3710 C   0  0  0  0  0  0  0  0  0  0  0  0
   52.2250   31.0220   51.1970 C   0  0  0  0  0  0  0  0  0  0  0  0
   52.2940   30.1400   50.1840 N   0  0  0  0  0  0  0  0  0  0  0  0
   51.3930   30.6120   49.2960 C   0  0  0  0  0  0  0  0  0  0  0  0
   51.1530   30.0360   48.2030 O   0  0  0  0  0  0  0  0  0  0  0  0
   50.7750   31.7540   49.6670 N   0  0  0  0  0  0  0  0  0  0  0  0
   51.3230   32.0090   50.8650 C   0  0  0  0  0  0  0  0  0  0  0  0
   51.0270   33.1350   51.6230 O   0  0  0  0  0  0  0  0  0  0  0  0
   52.7760   28.3824   53.0688 H   0  0  0  0  0  0  0  0  0  0  0  0
   54.2156   27.2062   53.4860 H   0  0  0  0  0  0  0  0  0  0  0  0
   58.6725   29.1782   54.0086 H   0  0  0  0  0  0  0  0  0  0  0  0
   58.6130   28.2534   52.4698 H   0  0  0  0  0  0  0  0  0  0  0  0
   59.1658   29.9626   52.4698 H   0  0  0  0  0  0  0  0  0  0  0  0
   60.0688   30.0484   50.1814 H   0  0  0  0  0  0  0  0  0  0  0  0
   58.4840   29.4750   50.8345 H   0  0  0  0  0  0  0  0  0  0  0  0
   58.9093   28.7200   48.4787 H   0  0  0  0  0  0  0  0  0  0  0  0
   57.4352   29.7381   48.6483 H   0  0  0  0  0  0  0  0  0  0  0  0
   60.9163   31.8945   48.7842 H   0  0  0  0  0  0  0  0  0  0  0  0
   60.0739   33.0730   47.7111 H   0  0  0  0  0  0  0  0  0  0  0  0
   59.6183   33.3479   50.1980 H   0  0  0  0  0  0  0  0  0  0  0  0
   58.1532   33.1240   49.1289 H   0  0  0  0  0  0  0  0  0  0  0  0
   55.1624   32.2120   51.3984 H   0  0  0  0  0  0  0  0  0  0  0  0
   52.7258   31.4133   53.3046 H   0  0  0  0  0  0  0  0  0  0  0  0
  1  2  2  0
  2  3  1  0
  3  4  2  0
  4  5  1  0
  4  6  1  0
  6  7  1  0
  7  8  2  0
  7  9  1  0
  9 10  1  0
 10 11  1  0
 11 12  1  0
 12 13  2  0
 12 14  2  0
 12 15  1  0
 15 16  1  0
  6 17  2  0
 17 18  1  0
 18 19  2  3
 19 20  1  0
 20 21  1  0
 21 22  1  0
 22 23  2  0
 22 24  1  0
 24 25  1  0
 25 26  1  0
 18  2  1  0
 25 20  2  0
 16  9  1  0
  1 27  1  0
  1 28  1  0
  5 29  1  0
  5 30  1  0
  5 31  1  0
 10 32  1  0
 10 33  1  0
 11 34  1  0
 11 35  1  0
 15 36  1  0
 15 37  1  0
 16 38  1  0
 16 39  1  0
 17 40  1  0
 19 41  1  0
M  CHG  3  21  -1  24  -1  26  -1
M  END
>  <UniqueID>  (10) 
9

>  <SMILES>  (10) 
C=c1nc(C)c(C(=O)N2CCS(=O)(=O)CC2)cc1=Cc1[n-]c(=O)[n-]c1[O-]

>  <Energy>  (10) 
93.58530849217091

>  <Genealogy>  (10) 
C=c1nc(C)c(C(=O)N2CCS(=O)(=O)CC2)cc1=Cc1[n-]c(=O)[n-]c1[O-] (protonated)
C=c1nc(C)c(C(=O)N2CCS(=O)(=O)CC2)cc1=Cc1[n-]c(=O)[n-]c1[O-] (3D coordinates assigned)
C=c1nc(C)c(C(=O)N2CCS(=O)(=O)CC2)cc1=Cc1[n-]c(=O)[n-]c1[O-] (nonaromatic ring conformer: 93.58530849217091 kcal/mol)

>  <smiles>  (10) 
C=c1nc(C)c(C(=O)N2CCS(=O)(=O)CC2)cc1=Cc1[nH]c(=O)[nH]c1O

>  <score_type>  (10) 
oracle

>  <origin>  (10) 
adg

>  <m_score__min__energy>  (10) 
-16.870000000000001

>  <m_primary>  (10) 
energy

$$$$
10:0
     RDKit          3D

 43 44  0  0  0  0  0  0  0  0999 V2000
   58.4120   30.0080   46.4410 N   0  0  0  0  0  0  0  0  0  0  0  0
   58.5060   28.8600   47.2900 C   0  0  0  0  0  0  0  0  0  0  0  0
   58.9110   29.0080   48.4750 O   0  0  0  0  0  0  0  0  0  0  0  0
   58.1340   27.5130   46.7930 C   0  0  0  0  0  0  0  0  0  0  0  0
   58.8510   26.3850   47.2370 C   0  0  0  0  0  0  0  0  0  0  0  0
   58.5320   25.1090   46.7660 C   0  0  0  0  0  0  0  0  0  0  0  0
   57.4930   24.9390   45.8520 C   0  0  0  0  0  0  0  0  0  0  0  0
   56.7710   26.0460   45.4020 C   0  0  0  0  0  0  0  0  0  0  0  0
   57.0890   27.3350   45.8580 C   0  0  0  0  0  0  0  0  0  0  0  0
   56.3730   28.4670   45.3390 N   0  0  0  0  0  0  0  0  0  0  0  0
   56.6830   29.1200   44.1000 C   0  0  0  0  0  0  0  0  0  0  0  0
   57.3890   28.5160   43.2510 O   0  0  0  0  0  0  0  0  0  0  0  0
   56.1560   30.4890   43.7790 C   0  0  0  0  0  0  0  0  0  0  0  0
   56.4750   31.3990   44.8700 N   0  0  0  0  0  0  0  0  0  0  0  0
   57.5870   32.2940   44.8530 C   0  0  0  0  0  0  0  0  0  0  0  0
   58.7650   31.8500   44.7680 O   0  0  0  0  0  0  0  0  0  0  0  0
   57.3430   33.7680   44.9150 C   0  0  0  0  0  0  0  0  0  0  0  0
   58.6690   34.5350   44.9070 C   0  0  0  0  0  0  0  0  0  0  0  0
   59.1440   34.8900   46.3250 C   0  0  0  0  0  0  0  0  0  0  0  0
   59.9780   33.8200   46.8990 N   0  0  0  0  0  0  0  0  0  0  0  0
   61.3280   33.8450   46.6760 C   0  0  0  0  0  0  0  0  0  0  0  0
   62.1490   32.8420   47.1870 C   0  0  0  0  0  0  0  0  0  0  0  0
   61.5660   31.8160   47.9230 C   0  0  0  0  0  0  0  0  0  0  0  0
   62.2780   30.8930   48.4010 O   0  0  0  0  0  0  0  0  0  0  0  0
   60.2250   31.8100   48.1270 N   0  0  0  0  0  0  0  0  0  0  0  0
   59.4310   32.7920   47.6250 C   0  0  0  0  0  0  0  0  0  0  0  0
   58.1880   32.7380   47.8350 O   0  0  0  0  0  0  0  0  0  0  0  0
   57.9620   29.9520   45.5010 H   0  0  0  0  0  0  0  0  0  0  0  0
   58.7310   30.9400   46.7840 H   0  0  0  0  0  0  0  0  0  0  0  0
   59.6695   26.5098   47.9612 H   0  0  0  0  0  0  0  0  0  0  0  0
   59.1020   24.2362   47.1172 H   0  0  0  0  0  0  0  0  0  0  0  0
   57.2421   23.9327   45.4854 H   0  0  0  0  0  0  0  0  0  0  0  0
   55.9478   25.9073   44.6857 H   0  0  0  0  0  0  0  0  0  0  0  0
   56.6204   30.8525   42.8505 H   0  0  0  0  0  0  0  0  0  0  0  0
   55.0649   30.4409   43.6482 H   0  0  0  0  0  0  0  0  0  0  0  0
   56.7442   34.0722   44.0439 H   0  0  0  0  0  0  0  0  0  0  0  0
   56.8051   33.9995   45.8462 H   0  0  0  0  0  0  0  0  0  0  0  0
   59.4354   33.9122   44.4224 H   0  0  0  0  0  0  0  0  0  0  0  0
   58.5113   35.4755   44.3588 H   0  0  0  0  0  0  0  0  0  0  0  0
   59.7327   35.8182   46.2828 H   0  0  0  0  0  0  0  0  0  0  0  0
   58.2577   35.0170   46.9640 H   0  0  0  0  0  0  0  0  0  0  0  0
   61.7686   34.6639   46.0884 H   0  0  0  0  0  0  0  0  0  0  0  0
   63.2348   32.8612   47.0121 H   0  0  0  0  0  0  0  0  0  0  0  0
  1  2  1  0
  2  3  2  0
  2  4  1  0
  4  5  2  0
  5  6  1  0
  6  7  2  0
  7  8  1  0
  8  9  2  0
  9 10  1  0
 10 11  1  0
 11 12  2  0
 11 13  1  0
 13 14  1  0
 14 15  1  0
 15 16  2  0
 15 17  1  0
 17 18  1  0
 18 19  1  0
 19 20  1  0
 20 21  1  0
 21 22  2  0
 22 23  1  0
 23 24  2  0
 23 25  1  0
 25 26  1  0
 26 27  2  0
  9  4  1  0
 26 20  1  0
  1 28  1  0
  1 29  1  0
  5 30  1  0
  6 31  1  0
  7 32  1  0
  8 33  1  0
 13 34  1  0
 13 35  1  0
 17 36  1  0
 17 37  1  0
 18 38  1  0
 18 39  1  0
 19 40  1  0
 19 41  1  0
 21 42  1  0
 22 43  1  0
M  CHG  3  10  -1  14  -1  25  -1
M  END
>  <UniqueID>  (11) 
10

>  <SMILES>  (11) 
NC(=O)c1ccccc1[N-]C(=O)C[N-]C(=O)CCCn1ccc(=O)[n-]c1=O

>  <Energy>  (11) 
45.09476910627423

>  <Genealogy>  (11) 
NC(=O)c1ccccc1[N-]C(=O)C[N-]C(=O)CCCn1ccc(=O)[n-]c1=O (protonated)
NC(=O)c1ccccc1[N-]C(=O)C[N-]C(=O)CCCn1ccc(=O)[n-]c1=O (3D coordinates assigned)
NC(=O)c1ccccc1[N-]C(=O)C[N-]C(=O)CCCn1ccc(=O)[n-]c1=O (optimized conformer: 45.09476910627423 kcal/mol)

>  <smiles>  (11) 
NC(=O)c1ccccc1NC(=O)CNC(=O)CCCn1ccc(=O)[nH]c1=O

>  <score_type>  (11) 
oracle

>  <origin>  (11) 
adg

>  <m_score__min__energy>  (11) 
-12.66

>  <m_primary>  (11) 
energy

$$$$
11:0
     RDKit          3D

 67 71  0  0  0  0  0  0  0  0999 V2000
   57.2210   31.9620   41.4940 C   0  0  0  0  0  0  0  0  0  0  0  0
   57.9210   32.2810   42.7730 C   0  0  0  0  0  0  0  0  0  0  0  0
   58.4960   33.4500   43.0010 O   0  0  0  0  0  0  0  0  0  0  0  0
   58.8030   33.4730   44.2560 C   0  0  0  0  0  0  0  0  0  0  0  0
   59.2940   34.5420   44.9190 N   0  0  0  0  0  0  0  0  0  0  0  0
   59.4010   34.4940   46.2650 C   0  0  0  0  0  0  0  0  0  0  0  0
   59.0370   33.3480   46.9850 N   0  0  0  0  0  0  0  0  0  0  0  0
   59.1320   33.3830   48.4350 C   0  0  0  0  0  0  0  0  0  0  0  0
   60.5300   33.2640   48.9670 C   0  0  0  0  0  0  0  0  0  0  0  0
   60.7420   33.7990   50.1050 O   0  0  0  0  0  0  0  0  0  0  0  0
   61.4730   32.2910   48.4510 N   0  0  0  0  0  0  0  0  0  0  0  0
   62.1460   32.4660   47.1550 C   0  0  0  0  0  0  0  0  0  0  0  0
   63.3360   33.4450   47.3520 C   0  0  0  0  0  0  0  0  0  0  0  0
   63.9020   33.4400   48.7870 C   0  0  0  0  0  0  0  0  0  0  0  0
   63.6590   32.1480   49.5990 C   0  0  0  0  0  0  0  0  0  0  0  0
   62.2840   31.5000   49.3920 C   0  0  0  0  0  0  0  0  0  0  0  0
   58.6300   32.2360   46.3000 C   0  0  0  0  0  0  0  0  0  0  0  0
   58.3110   31.1770   46.9330 O   0  0  0  0  0  0  0  0  0  0  0  0
   58.4930   32.2890   44.9140 C   0  0  0  0  0  0  0  0  0  0  0  0
   57.9400   31.4680   43.9210 C   0  0  0  0  0  0  0  0  0  0  0  0
   57.0990   29.8960   44.1060 S   0  0  0  0  0  0  0  0  0  0  0  0
   55.9120   30.0220   45.0480 O   0  0  0  0  0  0  0  0  0  0  0  0
   56.5300   29.5410   42.7330 O   0  0  0  0  0  0  0  0  0  0  0  0
   58.1580   28.6030   44.6910 N   0  0  0  0  0  0  0  0  0  0  0  0
   58.3390   27.4900   43.7340 C   0  0  0  0  0  0  0  0  0  0  0  0
   57.7710   26.1390   44.1900 C   0  0  0  0  0  0  0  0  0  0  0  0
   56.8270   26.3350   45.2950 N   0  0  0  0  0  0  0  0  0  0  0  0
   56.1600   25.0680   45.6600 C   0  0  0  0  0  0  0  0  0  0  0  0
   56.6540   23.9220   44.8120 C   0  0  0  0  0  0  0  0  0  0  0  0
   55.9500   23.5850   43.6390 C   0  0  0  0  0  0  0  0  0  0  0  0
   56.3190   22.4620   42.8960 C   0  0  0  0  0  0  0  0  0  0  0  0
   57.3700   21.6500   43.3340 C   0  0  0  0  0  0  0  0  0  0  0  0
   58.0910   21.9790   44.4910 C   0  0  0  0  0  0  0  0  0  0  0  0
   57.7430   23.1210   45.2240 C   0  0  0  0  0  0  0  0  0  0  0  0
   57.6040   26.8760   46.4270 C   0  0  0  0  0  0  0  0  0  0  0  0
   57.9880   28.3140   46.1270 C   0  0  0  0  0  0  0  0  0  0  0  0
   56.2403   31.5151   41.7143 H   0  0  0  0  0  0  0  0  0  0  0  0
   57.0809   32.8852   40.9125 H   0  0  0  0  0  0  0  0  0  0  0  0
   57.8258   31.2506   40.9125 H   0  0  0  0  0  0  0  0  0  0  0  0
   59.7816   35.3724   46.8068 H   0  0  0  0  0  0  0  0  0  0  0  0
   58.7108   34.3371   48.7846 H   0  0  0  0  0  0  0  0  0  0  0  0
   58.5786   32.5083   48.8074 H   0  0  0  0  0  0  0  0  0  0  0  0
   62.5183   31.4955   46.7951 H   0  0  0  0  0  0  0  0  0  0  0  0
   61.4413   32.8702   46.4134 H   0  0  0  0  0  0  0  0  0  0  0  0
   64.1409   33.1595   46.6587 H   0  0  0  0  0  0  0  0  0  0  0  0
   62.9582   34.4592   47.1553 H   0  0  0  0  0  0  0  0  0  0  0  0
   64.9885   33.5991   48.7222 H   0  0  0  0  0  0  0  0  0  0  0  0
   63.3656   34.2365   49.3235 H   0  0  0  0  0  0  0  0  0  0  0  0
   64.4279   31.4154   49.3125 H   0  0  0  0  0  0  0  0  0  0  0  0
   63.7051   32.4384   50.6590 H   0  0  0  0  0  0  0  0  0  0  0  0
   62.4197   30.4859   48.9880 H   0  0  0  0  0  0  0  0  0  0  0  0
   61.7630   31.4582   50.3599 H   0  0  0  0  0  0  0  0  0  0  0  0
   57.8437   27.7671   42.7917 H   0  0  0  0  0  0  0  0  0  0  0  0
   59.4250   27.3469   43.6331 H   0  0  0  0  0  0  0  0  0  0  0  0
   57.2503   25.6605   43.3475 H   0  0  0  0  0  0  0  0  0  0  0  0
   58.5973   25.4987   44.5324 H   0  0  0  0  0  0  0  0  0  0  0  0
   56.3670   24.8461   46.7173 H   0  0  0  0  0  0  0  0  0  0  0  0
   55.0794   25.1840   45.4900 H   0  0  0  0  0  0  0  0  0  0  0  0
   55.1068   24.2088   43.3075 H   0  0  0  0  0  0  0  0  0  0  0  0
   55.7836   22.2162   41.9671 H   0  0  0  0  0  0  0  0  0  0  0  0
   57.6334   20.7455   42.7661 H   0  0  0  0  0  0  0  0  0  0  0  0
   58.9258   21.3434   44.8214 H   0  0  0  0  0  0  0  0  0  0  0  0
   58.3179   23.3945   46.1210 H   0  0  0  0  0  0  0  0  0  0  0  0
   56.9942   26.8412   47.3418 H   0  0  0  0  0  0  0  0  0  0  0  0
   58.5127   26.2736   46.5730 H   0  0  0  0  0  0  0  0  0  0  0  0
   57.1994   28.9719   46.5211 H   0  0  0  0  0  0  0  0  0  0  0  0
   58.9636   28.4887   46.6042 H   0  0  0  0  0  0  0  0  0  0  0  0
  1  2  1  0
  2  3  1  0
  3  4  1  0
  4  5  1  0
  5  6  2  0
  6  7  1  0
  7  8  1  0
  8  9  1  0
  9 10  2  0
  9 11  1  0
 11 12  1  0
 12 13  1  0
 13 14  1  0
 14 15  1  0
 15 16  1  0
  7 17  1  0
 17 18  2  0
 17 19  1  0
 19 20  1  0
 20 21  1  0
 21 22  2  0
 21 23  2  0
 21 24  1  0
 24 25  1  0
 25 26  1  0
 26 27  1  0
 27 28  1  0
 28 29  1  0
 29 30  2  0
 30 31  1  0
 31 32  2  0
 32 33  1  0
 33 34  2  0
 27 35  1  0
 35 36  1  0
 20  2  2  0
 36 24  1  0
 19  4  2  0
 34 29  1  0
 16 11  1  0
  1 37  1  0
  1 38  1  0
  1 39  1  0
  6 40  1  0
  8 41  1  0
  8 42  1  0
 12 43  1  0
 12 44  1  0
 13 45  1  0
 13 46  1  0
 14 47  1  0
 14 48  1  0
 15 49  1  0
 15 50  1  0
 16 51  1  0
 16 52  1  0
 25 53  1  0
 25 54  1  0
 26 55  1  0
 26 56  1  0
 28 57  1  0
 28 58  1  0
 30 59  1  0
 31 60  1  0
 32 61  1  0
 33 62  1  0
 34 63  1  0
 35 64  1  0
 35 65  1  0
 36 66  1  0
 36 67  1  0
M  END
>  <UniqueID>  (12) 
11

>  <SMILES>  (12) 
Cc1oc2ncn(CC(=O)N3CCCCC3)c(=O)c2c1S(=O)(=O)N1CCN(Cc2ccccc2)CC1

>  <Energy>  (12) 
155.8726796657257

>  <Genealogy>  (12) 
Cc1oc2ncn(CC(=O)N3CCCCC3)c(=O)c2c1S(=O)(=O)N1CCN(Cc2ccccc2)CC1 (3D coordinates assigned)
Cc1oc2ncn(CC(=O)N3CCCCC3)c(=O)c2c1S(=O)(=O)N1CCN(Cc2ccccc2)CC1 (nonaromatic ring conformer: 155.8726796657257 kcal/mol)

>  <smiles>  (12) 
Cc1oc2ncn(CC(=O)N3CCCCC3)c(=O)c2c1S(=O)(=O)N1CCN(Cc2ccccc2)CC1

>  <score_type>  (12) 
oracle

>  <origin>  (12) 
adg

>  <m_score__min__energy>  (12) 
-10.98

>  <m_primary>  (12) 
energy

$$$$
12:0
     RDKit          3D

 62 64  0  0  0  0  0  0  0  0999 V2000
   57.0040   24.4990   43.4840 C   0  0  0  0  0  0  0  0  0  0  0  0
   57.0270   24.7170   44.9950 C   0  0  0  0  0  0  0  0  0  0  0  0
   58.2780   24.0800   45.6100 C   0  0  0  0  0  0  0  0  0  0  0  0
   57.0070   26.1210   45.2610 O   0  0  0  0  0  0  0  0  0  0  0  0
   58.1620   26.8830   45.4700 C   0  0  0  0  0  0  0  0  0  0  0  0
   58.9530   27.1310   44.5150 O   0  0  0  0  0  0  0  0  0  0  0  0
   58.4670   27.4010   46.8500 C   0  0  0  0  0  0  0  0  0  0  0  0
   58.2270   28.9300   46.9360 C   0  0  0  0  0  0  0  0  0  0  0  0
   59.5300   29.7330   46.8710 C   0  0  0  0  0  0  0  0  0  0  0  0
   60.4500   29.2990   47.9360 N   0  0  0  0  0  0  0  0  0  0  0  0
   61.2510   30.2570   48.6590 C   0  0  0  0  0  0  0  0  0  0  0  0
   61.5680   30.0190   49.8570 O   0  0  0  0  0  0  0  0  0  0  0  0
   61.7210   31.5170   48.0370 C   0  0  0  0  0  0  0  0  0  0  0  0
   63.0570   31.6360   47.6220 C   0  0  0  0  0  0  0  0  0  0  0  0
   63.5090   32.8120   47.0200 C   0  0  0  0  0  0  0  0  0  0  0  0
   62.6290   33.8780   46.8160 C   0  0  0  0  0  0  0  0  0  0  0  0
   61.2850   33.7710   47.2060 C   0  0  0  0  0  0  0  0  0  0  0  0
   60.3490   34.9250   46.9730 C   0  0  0  0  0  0  0  0  0  0  0  0
   59.0020   34.4610   46.8720 O   0  0  0  0  0  0  0  0  0  0  0  0
   58.5160   33.5810   45.8910 C   0  0  0  0  0  0  0  0  0  0  0  0
   58.7080   33.9190   44.5470 C   0  0  0  0  0  0  0  0  0  0  0  0
   58.2400   33.0840   43.5280 C   0  0  0  0  0  0  0  0  0  0  0  0
   57.5650   31.8950   43.8420 C   0  0  0  0  0  0  0  0  0  0  0  0
   57.0380   31.0120   42.7440 C   0  0  0  0  0  0  0  0  0  0  0  0
   56.5060   29.7290   43.3090 C   0  0  0  0  0  0  0  0  0  0  0  0
   57.3250   28.5580   43.3520 N   0  0  0  0  0  0  0  0  0  0  0  0
   55.3240   29.6800   43.7420 O   0  0  0  0  0  0  0  0  0  0  0  0
   57.3580   31.5590   45.1900 C   0  0  0  0  0  0  0  0  0  0  0  0
   57.8350   32.3890   46.2080 C   0  0  0  0  0  0  0  0  0  0  0  0
   60.8340   32.5860   47.8130 C   0  0  0  0  0  0  0  0  0  0  0  0
   60.4600   27.8920   48.3650 C   0  0  0  0  0  0  0  0  0  0  0  0
   59.8950   26.9800   47.2730 C   0  0  0  0  0  0  0  0  0  0  0  0
   56.8908   23.4260   43.2700 H   0  0  0  0  0  0  0  0  0  0  0  0
   56.1591   25.0512   43.0467 H   0  0  0  0  0  0  0  0  0  0  0  0
   57.9455   24.8628   43.0467 H   0  0  0  0  0  0  0  0  0  0  0  0
   56.1438   24.2413   45.4463 H   0  0  0  0  0  0  0  0  0  0  0  0
   58.2064   24.1164   46.7071 H   0  0  0  0  0  0  0  0  0  0  0  0
   58.3552   23.0328   45.2822 H   0  0  0  0  0  0  0  0  0  0  0  0
   59.1702   24.6336   45.2822 H   0  0  0  0  0  0  0  0  0  0  0  0
   57.7729   26.9463   47.5721 H   0  0  0  0  0  0  0  0  0  0  0  0
   57.5832   29.2337   46.0974 H   0  0  0  0  0  0  0  0  0  0  0  0
   57.7532   29.1399   47.9063 H   0  0  0  0  0  0  0  0  0  0  0  0
   60.0064   29.5736   45.8924 H   0  0  0  0  0  0  0  0  0  0  0  0
   59.3006   30.8000   47.0084 H   0  0  0  0  0  0  0  0  0  0  0  0
   63.7524   30.7970   47.7721 H   0  0  0  0  0  0  0  0  0  0  0  0
   64.5596   32.8994   46.7058 H   0  0  0  0  0  0  0  0  0  0  0  0
   62.9912   34.8051   46.3477 H   0  0  0  0  0  0  0  0  0  0  0  0
   60.4273   35.6305   47.8133 H   0  0  0  0  0  0  0  0  0  0  0  0
   60.6257   35.4246   46.0329 H   0  0  0  0  0  0  0  0  0  0  0  0
   59.2324   34.8510   44.2895 H   0  0  0  0  0  0  0  0  0  0  0  0
   58.4017   33.3605   42.4757 H   0  0  0  0  0  0  0  0  0  0  0  0
   56.2292   31.5369   42.2146 H   0  0  0  0  0  0  0  0  0  0  0  0
   57.8592   30.7805   42.0497 H   0  0  0  0  0  0  0  0  0  0  0  0
   56.9580   27.6700   43.7560 H   0  0  0  0  0  0  0  0  0  0  0  0
   58.2860   28.5660   42.9450 H   0  0  0  0  0  0  0  0  0  0  0  0
   56.8167   30.6363   45.4461 H   0  0  0  0  0  0  0  0  0  0  0  0
   57.6782   32.1107   47.2606 H   0  0  0  0  0  0  0  0  0  0  0  0
   59.7803   32.4938   48.1150 H   0  0  0  0  0  0  0  0  0  0  0  0
   61.4948   27.5907   48.5852 H   0  0  0  0  0  0  0  0  0  0  0  0
   59.8306   27.7952   49.2619 H   0  0  0  0  0  0  0  0  0  0  0  0
   60.5546   27.0273   46.3940 H   0  0  0  0  0  0  0  0  0  0  0  0
   59.8433   25.9578   47.6760 H   0  0  0  0  0  0  0  0  0  0  0  0
  1  2  1  0
  2  3  1  0
  2  4  1  0
  4  5  1  0
  5  6  2  0
  5  7  1  0
  7  8  1  0
  8  9  1  0
  9 10  1  0
 10 11  1  0
 11 12  2  0
 11 13  1  0
 13 14  2  0
 14 15  1  0
 15 16  2  0
 16 17  1  0
 17 18  1  0
 18 19  1  0
 19 20  1  0
 20 21  2  0
 21 22  1  0
 22 23  2  0
 23 24  1  0
 24 25  1  0
 25 26  1  0
 25 27  2  0
 23 28  1  0
 28 29  2  0
 17 30  2  0
 10 31  1  0
 31 32  1  0
 32  7  1  0
 30 13  1  0
 29 20  1  0
  1 33  1  0
  1 34  1  0
  1 35  1  0
  2 36  1  0
  3 37  1  0
  3 38  1  0
  3 39  1  0
  7 40  1  0
  8 41  1  0
  8 42  1  0
  9 43  1  0
  9 44  1  0
 14 45  1  0
 15 46  1  0
 16 47  1  0
 18 48  1  0
 18 49  1  0
 21 50  1  0
 22 51  1  0
 24 52  1  0
 24 53  1  0
 26 54  1  0
 26 55  1  0
 28 56  1  0
 29 57  1  0
 30 58  1  0
 31 59  1  0
 31 60  1  0
 32 61  1  0
 32 62  1  0
M  END
>  <UniqueID>  (13) 
12

>  <SMILES>  (13) 
CC(C)OC(=O)C1CCN(C(=O)c2cccc(COc3ccc(CC(N)=O)cc3)c2)CC1

>  <Energy>  (13) 
59.61379450964115

>  <Genealogy>  (13) 
CC(C)OC(=O)C1CCN(C(=O)c2cccc(COc3ccc(CC(N)=O)cc3)c2)CC1 (3D coordinates assigned)
CC(C)OC(=O)C1CCN(C(=O)c2cccc(COc3ccc(CC(N)=O)cc3)c2)CC1 (nonaromatic ring conformer: 59.61379450964115 kcal/mol)

>  <smiles>  (13) 
CC(C)OC(=O)C1CCN(C(=O)c2cccc(COc3ccc(CC(N)=O)cc3)c2)CC1

>  <score_type>  (13) 
oracle

>  <origin>  (13) 
adg

>  <m_score__min__energy>  (13) 
-9.0899999999999999

>  <m_primary>  (13) 
energy

$$$$
13:0
     RDKit          3D

 72 75  0  0  1  0  0  0  0  0999 V2000
   60.7610   32.7910   50.4550 C   0  0  0  0  0  0  0  0  0  0  0  0
   59.4440   32.3280   50.9920 C   0  0  0  0  0  0  0  0  0  0  0  0
   58.6280   33.1740   51.7400 C   0  0  0  0  0  0  0  0  0  0  0  0
   57.4110   32.7430   52.2360 C   0  0  0  0  0  0  0  0  0  0  0  0
   56.9920   31.4370   51.9850 C   0  0  0  0  0  0  0  0  0  0  0  0
   57.7810   30.5760   51.2460 C   0  0  0  0  0  0  0  0  0  0  0  0
   58.9920   31.0250   50.7600 C   0  0  0  0  0  0  0  0  0  0  0  0
   59.8690   30.2050   49.9880 N   0  0  0  0  0  0  0  0  0  0  0  0
   59.7590   30.0890   48.7010 C   0  0  0  0  0  0  0  0  0  0  0  0
   59.9480   28.8970   48.1300 N   0  0  0  0  0  0  0  0  0  0  0  0
   59.8320   28.7840   46.7940 C   0  0  0  0  0  0  0  0  0  0  0  0
   60.0860   27.1890   46.0450 S   0  0  0  0  0  0  0  0  0  0  0  0
   58.6400   26.2260   45.9850 C   0  0  0  0  0  0  0  0  0  0  0  0
   57.7660   25.8380   44.9990 C   0  0  0  0  0  0  0  0  0  0  0  0
   56.7460   25.0990   45.2520 N   0  0  0  0  0  0  0  0  0  0  0  0
   56.4960   24.6730   46.5220 C   0  0  0  0  0  0  0  0  0  0  0  0
   55.5830   23.9570   47.0160 N   0  0  0  0  0  0  0  0  0  0  0  0
   55.9640   22.7610   47.7200 C   0  0  0  0  0  0  0  0  0  0  0  0
   56.9540   22.8700   48.4790 O   0  0  0  0  0  0  0  0  0  0  0  0
   55.1710   21.5610   47.4840 C   0  0  0  0  0  0  0  0  0  0  0  0
   56.0000   20.4520   46.9110 C   0  0  0  0  0  0  0  0  0  0  0  0
   56.2830   20.6720   45.4580 C   0  0  0  0  0  0  0  0  0  0  0  0
   57.5290   21.5110   45.2990 C   0  0  0  0  0  0  0  0  0  0  0  0
   58.0870   21.5130   43.9060 C   0  0  0  0  0  0  0  0  0  0  0  0
   56.9770   21.6480   42.8680 C   0  0  0  0  0  0  0  0  0  0  0  0
   56.2300   22.9090   43.1010 C   0  0  0  0  0  0  0  0  0  0  0  0
   55.1220   22.9570   43.7000 O   0  0  0  0  0  0  0  0  0  0  0  0
   56.8300   24.0790   42.6090 O   0  0  0  0  0  0  0  0  0  0  0  0
   57.8790   25.4060   47.5010 S   0  0  0  0  0  0  0  0  0  0  0  0
   59.5150   29.9190   46.0410 C   0  0  0  0  0  0  0  0  0  0  0  0
   59.3210   31.1540   46.6550 C   0  0  0  0  0  0  0  0  0  0  0  0
   59.0000   32.2980   45.8750 N   0  0  0  0  0  0  0  0  0  0  0  0
   59.5100   33.5700   46.3220 C   0  0  0  0  0  0  0  0  0  0  0  0
   59.0450   34.7200   45.4790 C   0  0  0  0  0  0  0  0  0  0  0  0
   57.5790   34.4560   45.1530 C   0  0  0  0  0  0  0  0  0  0  0  0
   57.6250   33.3470   44.1060 C   0  0  0  0  0  0  0  0  0  0  0  0
   58.1950   32.1100   44.7000 C   0  0  0  0  0  0  0  0  0  0  0  0
   59.4510   31.2070   47.9990 N   0  0  0  0  0  0  0  0  0  0  0  0
   61.4351   33.0280   51.2913 H   0  0  0  0  0  0  0  0  0  0  0  0
   61.2061   31.9954   49.8394 H   0  0  0  0  0  0  0  0  0  0  0  0
   60.6103   33.6901   49.8394 H   0  0  0  0  0  0  0  0  0  0  0  0
   58.9579   34.2042   51.9399 H   0  0  0  0  0  0  0  0  0  0  0  0
   56.7788   33.4249   52.8237 H   0  0  0  0  0  0  0  0  0  0  0  0
   56.0255   31.0891   52.3784 H   0  0  0  0  0  0  0  0  0  0  0  0
   57.4481   29.5465   51.0478 H   0  0  0  0  0  0  0  0  0  0  0  0
   57.9441   26.1688   43.9652 H   0  0  0  0  0  0  0  0  0  0  0  0
   56.0430   24.7790   44.4960 H   0  0  0  0  0  0  0  0  0  0  0  0
   54.7386   21.2262   48.4384 H   0  0  0  0  0  0  0  0  0  0  0  0
   54.3819   21.8089   46.7588 H   0  0  0  0  0  0  0  0  0  0  0  0
   56.9536   20.4001   47.4568 H   0  0  0  0  0  0  0  0  0  0  0  0
   55.4375   19.5124   47.0142 H   0  0  0  0  0  0  0  0  0  0  0  0
   56.4318   19.7005   44.9641 H   0  0  0  0  0  0  0  0  0  0  0  0
   55.4321   21.1960   44.9982 H   0  0  0  0  0  0  0  0  0  0  0  0
   57.2864   22.5474   45.5764 H   0  0  0  0  0  0  0  0  0  0  0  0
   58.2972   21.0683   45.9501 H   0  0  0  0  0  0  0  0  0  0  0  0
   58.7829   22.3582   43.7993 H   0  0  0  0  0  0  0  0  0  0  0  0
   58.6076   20.5587   43.7376 H   0  0  0  0  0  0  0  0  0  0  0  0
   57.4178   21.6642   41.8603 H   0  0  0  0  0  0  0  0  0  0  0  0
   56.2892   20.7939   42.9547 H   0  0  0  0  0  0  0  0  0  0  0  0
   57.0180   24.1590   41.6330 H   0  0  0  0  0  0  0  0  0  0  0  0
   59.4175   29.8352   44.9485 H   0  0  0  0  0  0  0  0  0  0  0  0
   59.1760   33.7370   47.3567 H   0  0  0  0  0  0  0  0  0  0  0  0
   60.6065   33.5291   46.2444 H   0  0  0  0  0  0  0  0  0  0  0  0
   59.1462   35.6637   46.0351 H   0  0  0  0  0  0  0  0  0  0  0  0
   59.6458   34.8081   44.5618 H   0  0  0  0  0  0  0  0  0  0  0  0
   57.0331   34.1250   46.0488 H   0  0  0  0  0  0  0  0  0  0  0  0
   57.0577   35.3553   44.7931 H   0  0  0  0  0  0  0  0  0  0  0  0
   56.6055   33.1424   43.7472 H   0  0  0  0  0  0  0  0  0  0  0  0
   58.2585   33.6693   43.2665 H   0  0  0  0  0  0  0  0  0  0  0  0
   57.3591   31.4461   44.9654 H   0  0  0  0  0  0  0  0  0  0  0  0
   58.8696   31.6938   43.9373 H   0  0  0  0  0  0  0  0  0  0  0  0
   59.3170   32.1020   48.5060 H   0  0  0  0  0  0  0  0  0  0  0  0
  1  2  1  0
  2  3  2  0
  3  4  1  0
  4  5  2  0
  5  6  1  0
  6  7  2  0
  7  8  1  0
  8  9  2  0
  9 10  1  0
 10 11  2  0
 11 12  1  0
 12 13  1  0
 13 14  2  0
 14 15  1  0
 15 16  1  0
 16 17  2  0
 17 18  1  0
 18 19  2  0
 18 20  1  0
 20 21  1  0
 21 22  1  0
 22 23  1  0
 23 24  1  0
 24 25  1  0
 25 26  1  0
 26 27  2  0
 26 28  1  0
 16 29  1  0
 11 30  1  0
 30 31  2  0
 31 32  1  0
 32 33  1  0
 33 34  1  0
 34 35  1  0
 35 36  1  0
 36 37  1  0
 31 38  1  0
  7  2  1  0
 38  9  1  0
 29 13  1  0
 37 32  1  0
  1 39  1  0
  1 40  1  0
  1 41  1  0
  3 42  1  0
  4 43  1  0
  5 44  1  0
  6 45  1  0
 14 46  1  0
 15 47  1  0
 20 48  1  0
 20 49  1  0
 21 50  1  0
 21 51  1  0
 22 52  1  0
 22 53  1  0
 23 54  1  0
 23 55  1  0
 24 56  1  0
 24 57  1  0
 25 58  1  0
 25 59  1  0
 28 60  1  0
 30 61  1  0
 33 62  1  0
 33 63  1  0
 34 64  1  0
 34 65  1  0
 35 66  1  0
 35 67  1  0
 36 68  1  0
 36 69  1  0
 37 70  1  0
 37 71  1  0
 38 72  1  0
M  END
>  <smiles>  (14) 
Cc1ccccc1N=c1nc(Sc2c[nH]c(=NC(=O)CCCCCCC(=O)O)s2)cc(N2CCCCC2)[nH]1

>  <score_type>  (14) 
oracle

>  <origin>  (14) 
adg

>  <m_score__min__energy>  (14) 
-10.949999999999999

>  <m_primary>  (14) 
energy

$$$$
14:0
     RDKit          3D

 42 44  0  0  0  0  0  0  0  0999 V2000
   60.2730   31.4760   53.6170 C   0  0  0  0  0  0  0  0  0  0  0  0
   58.8610   30.9970   53.8340 C   0  0  0  0  0  0  0  0  0  0  0  0
   58.5480   30.2800   54.9990 C   0  0  0  0  0  0  0  0  0  0  0  0
   57.2410   29.8620   55.2440 C   0  0  0  0  0  0  0  0  0  0  0  0
   56.2320   30.1420   54.3230 C   0  0  0  0  0  0  0  0  0  0  0  0
   56.5220   30.8310   53.1410 C   0  0  0  0  0  0  0  0  0  0  0  0
   55.4490   31.1050   52.2320 N   0  0  0  0  0  0  0  0  0  0  0  0
   54.2540   30.3220   52.1520 C   0  0  0  0  0  0  0  0  0  0  0  0
   54.3100   29.0950   51.8690 O   0  0  0  0  0  0  0  0  0  0  0  0
   52.9330   30.9620   52.4270 C   0  0  0  0  0  0  0  0  0  0  0  0
   52.1450   31.0800   51.1620 C   0  0  0  0  0  0  0  0  0  0  0  0
   52.1340   29.9480   49.9140 S   0  0  0  0  0  0  0  0  0  0  0  0
   51.0340   30.8400   49.0070 C   0  0  0  0  0  0  0  0  0  0  0  0
   50.6040   30.4930   47.8770 O   0  0  0  0  0  0  0  0  0  0  0  0
   50.6510   31.9770   49.6240 N   0  0  0  0  0  0  0  0  0  0  0  0
   51.2650   32.1070   50.8290 C   0  0  0  0  0  0  0  0  0  0  0  0
   51.0210   33.1930   51.6590 O   0  0  0  0  0  0  0  0  0  0  0  0
   57.8380   31.2900   52.8990 C   0  0  0  0  0  0  0  0  0  0  0  0
   58.1350   32.1440   51.7280 C   0  0  0  0  0  0  0  0  0  0  0  0
   57.9830   33.3900   51.8380 O   0  0  0  0  0  0  0  0  0  0  0  0
   58.5090   31.5690   50.4560 N   0  0  0  0  0  0  0  0  0  0  0  0
   58.7400   30.1210   50.3510 C   0  0  0  0  0  0  0  0  0  0  0  0
   59.4660   29.7700   49.0520 C   0  0  0  0  0  0  0  0  0  0  0  0
   58.8280   30.3730   47.9470 O   0  0  0  0  0  0  0  0  0  0  0  0
   58.9900   31.7740   48.0260 C   0  0  0  0  0  0  0  0  0  0  0  0
   58.2470   32.3480   49.2360 C   0  0  0  0  0  0  0  0  0  0  0  0
   60.7580   31.6405   54.5905 H   0  0  0  0  0  0  0  0  0  0  0  0
   60.8344   30.7180   53.0511 H   0  0  0  0  0  0  0  0  0  0  0  0
   60.2574   32.4191   53.0511 H   0  0  0  0  0  0  0  0  0  0  0  0
   59.3406   30.0459   55.7249 H   0  0  0  0  0  0  0  0  0  0  0  0
   57.0050   29.3101   56.1658 H   0  0  0  0  0  0  0  0  0  0  0  0
   55.2007   29.8187   54.5277 H   0  0  0  0  0  0  0  0  0  0  0  0
   52.3740   30.3471   53.1476 H   0  0  0  0  0  0  0  0  0  0  0  0
   53.0997   31.9670   52.8419 H   0  0  0  0  0  0  0  0  0  0  0  0
   59.3518   29.7924   51.2041 H   0  0  0  0  0  0  0  0  0  0  0  0
   57.7651   29.6115   50.3540 H   0  0  0  0  0  0  0  0  0  0  0  0
   60.5042   30.1289   49.1099 H   0  0  0  0  0  0  0  0  0  0  0  0
   59.4472   28.6782   48.9195 H   0  0  0  0  0  0  0  0  0  0  0  0
   60.0610   32.0071   48.1185 H   0  0  0  0  0  0  0  0  0  0  0  0
   58.5732   32.2257   47.1138 H   0  0  0  0  0  0  0  0  0  0  0  0
   58.5767   33.3849   49.3976 H   0  0  0  0  0  0  0  0  0  0  0  0
   57.1678   32.3051   49.0273 H   0  0  0  0  0  0  0  0  0  0  0  0
  1  2  1  0
  2  3  2  0
  3  4  1  0
  4  5  2  0
  5  6  1  0
  6  7  1  0
  7  8  1  0
  8  9  2  0
  8 10  1  0
 10 11  1  0
 11 12  1  0
 12 13  1  0
 13 14  2  0
 13 15  1  0
 15 16  1  0
 16 17  1  0
  6 18  2  0
 18 19  1  0
 19 20  2  0
 19 21  1  0
 21 22  1  0
 22 23  1  0
 23 24  1  0
 24 25  1  0
 25 26  1  0
 18  2  1  0
 26 21  1  0
 16 11  2  0
  1 27  1  0
  1 28  1  0
  1 29  1  0
  3 30  1  0
  4 31  1  0
  5 32  1  0
 10 33  1  0
 10 34  1  0
 22 35  1  0
 22 36  1  0
 23 37  1  0
 23 38  1  0
 25 39  1  0
 25 40  1  0
 26 41  1  0
 26 42  1  0
M  CHG  3   7  -1  15  -1  17  -1
M  END
>  <UniqueID>  (15) 
13

>  <SMILES>  (15) 
Cc1cccc([N-]C(=O)Cc2sc(=O)[n-]c2[O-])c1C(=O)N1CCOCC1

>  <Energy>  (15) 
84.60108092773164

>  <Genealogy>  (15) 
Cc1cccc([N-]C(=O)Cc2sc(=O)[n-]c2[O-])c1C(=O)N1CCOCC1 (protonated)
Cc1cccc([N-]C(=O)Cc2sc(=O)[n-]c2[O-])c1C(=O)N1CCOCC1 (3D coordinates assigned)
Cc1cccc([N-]C(=O)Cc2sc(=O)[n-]c2[O-])c1C(=O)N1CCOCC1 (nonaromatic ring conformer: 84.60108092773164 kcal/mol)

>  <smiles>  (15) 
Cc1cccc(NC(=O)Cc2sc(=O)[nH]c2O)c1C(=O)N1CCOCC1

>  <score_type>  (15) 
oracle

>  <origin>  (15) 
adg

>  <m_score__min__energy>  (15) 
-15.640000000000001

>  <m_primary>  (15) 
energy

$$$$
15:0
     RDKit          3D

 48 51  0  0  0  0  0  0  0  0999 V2000
   63.7660   33.4890   47.2800 C   0  0  0  0  0  0  0  0  0  0  0  0
   63.9170   33.4170   48.7300 N   0  0  0  0  0  0  0  0  0  0  0  0
   64.9670   32.8810   49.3820 C   0  0  0  0  0  0  0  0  0  0  0  0
   64.7400   32.9120   50.7440 C   0  0  0  0  0  0  0  0  0  0  0  0
   63.4950   33.4800   50.9260 C   0  0  0  0  0  0  0  0  0  0  0  0
   63.0120   33.7810   49.6660 C   0  0  0  0  0  0  0  0  0  0  0  0
   61.6500   34.3510   49.3810 C   0  0  0  0  0  0  0  0  0  0  0  0
   60.9520   33.5400   48.3760 N   0  0  0  0  0  0  0  0  0  0  0  0
   61.1130   32.0800   48.3730 C   0  0  0  0  0  0  0  0  0  0  0  0
   59.7580   31.3860   48.1950 C   0  0  0  0  0  0  0  0  0  0  0  0
   59.0320   31.9200   46.9840 C   0  0  0  0  0  0  0  0  0  0  0  0
   58.1450   31.0940   46.2790 C   0  0  0  0  0  0  0  0  0  0  0  0
   57.3850   31.6070   45.2100 C   0  0  0  0  0  0  0  0  0  0  0  0
   56.4560   30.8350   44.4930 O   0  0  0  0  0  0  0  0  0  0  0  0
   56.5690   30.4350   43.1240 C   0  0  0  0  0  0  0  0  0  0  0  0
   56.9820   28.9640   43.0090 C   0  0  0  0  0  0  0  0  0  0  0  0
   57.5680   28.4720   44.2520 N   0  0  0  0  0  0  0  0  0  0  0  0
   58.8810   28.3220   44.5050 C   0  0  0  0  0  0  0  0  0  0  0  0
   59.0240   27.8730   45.8000 C   0  0  0  0  0  0  0  0  0  0  0  0
   57.7320   27.7690   46.2800 C   0  0  0  0  0  0  0  0  0  0  0  0
   56.8620   28.1390   45.3220 N   0  0  0  0  0  0  0  0  0  0  0  0
   57.5510   32.9450   44.8380 C   0  0  0  0  0  0  0  0  0  0  0  0
   58.4270   33.7770   45.5380 C   0  0  0  0  0  0  0  0  0  0  0  0
   59.1640   33.2740   46.6210 C   0  0  0  0  0  0  0  0  0  0  0  0
   60.0830   34.1380   47.3940 C   0  0  0  0  0  0  0  0  0  0  0  0
   60.0910   35.3840   47.2030 O   0  0  0  0  0  0  0  0  0  0  0  0
   62.7981   33.9505   47.0346 H   0  0  0  0  0  0  0  0  0  0  0  0
   64.5796   34.0961   46.8563 H   0  0  0  0  0  0  0  0  0  0  0  0
   63.8065   32.4747   46.8563 H   0  0  0  0  0  0  0  0  0  0  0  0
   65.8708   32.4785   48.9011 H   0  0  0  0  0  0  0  0  0  0  0  0
   65.4196   32.5535   51.5312 H   0  0  0  0  0  0  0  0  0  0  0  0
   62.9870   33.6581   51.8852 H   0  0  0  0  0  0  0  0  0  0  0  0
   61.0608   34.3619   50.3098 H   0  0  0  0  0  0  0  0  0  0  0  0
   61.7669   35.3738   48.9933 H   0  0  0  0  0  0  0  0  0  0  0  0
   61.7778   31.7917   47.5454 H   0  0  0  0  0  0  0  0  0  0  0  0
   61.5455   31.7699   49.3357 H   0  0  0  0  0  0  0  0  0  0  0  0
   59.9210   30.3054   48.0693 H   0  0  0  0  0  0  0  0  0  0  0  0
   59.1440   31.5818   49.0865 H   0  0  0  0  0  0  0  0  0  0  0  0
   58.0419   30.0364   46.5633 H   0  0  0  0  0  0  0  0  0  0  0  0
   55.5972   30.5747   42.6280 H   0  0  0  0  0  0  0  0  0  0  0  0
   57.3421   31.0525   42.6433 H   0  0  0  0  0  0  0  0  0  0  0  0
   56.0934   28.3613   42.7701 H   0  0  0  0  0  0  0  0  0  0  0  0
   57.7385   28.8800   42.2149 H   0  0  0  0  0  0  0  0  0  0  0  0
   59.7001   28.5233   43.7989 H   0  0  0  0  0  0  0  0  0  0  0  0
   59.9591   27.6474   46.3335 H   0  0  0  0  0  0  0  0  0  0  0  0
   57.4567   27.4347   47.2912 H   0  0  0  0  0  0  0  0  0  0  0  0
   56.9851   33.3464   43.9844 H   0  0  0  0  0  0  0  0  0  0  0  0
   58.5397   34.8298   45.2396 H   0  0  0  0  0  0  0  0  0  0  0  0
  1  2  1  0
  2  3  1  0
  3  4  2  0
  4  5  1  0
  5  6  2  0
  6  7  1  0
  7  8  1  0
  8  9  1  0
  9 10  1  0
 10 11  1  0
 11 12  2  0
 12 13  1  0
 13 14  1  0
 14 15  1  0
 15 16  1  0
 16 17  1  0
 17 18  1  0
 18 19  2  0
 19 20  1  0
 20 21  2  0
 13 22  2  0
 22 23  1  0
 23 24  2  0
 24 25  1  0
 25 26  2  0
  6  2  1  0
 25  8  1  0
 24 11  1  0
 21 17  1  0
  1 27  1  0
  1 28  1  0
  1 29  1  0
  3 30  1  0
  4 31  1  0
  5 32  1  0
  7 33  1  0
  7 34  1  0
  9 35  1  0
  9 36  1  0
 10 37  1  0
 10 38  1  0
 12 39  1  0
 15 40  1  0
 15 41  1  0
 16 42  1  0
 16 43  1  0
 18 44  1  0
 19 45  1  0
 20 46  1  0
 22 47  1  0
 23 48  1  0
M  END
>  <UniqueID>  (16) 
14

>  <SMILES>  (16) 
Cn1cccc1CN1CCc2cc(OCCn3cccn3)ccc2C1=O

>  <Energy>  (16) 
101.93585560598736

>  <Genealogy>  (16) 
Cn1cccc1CN1CCc2cc(OCCn3cccn3)ccc2C1=O (3D coordinates assigned)
Cn1cccc1CN1CCc2cc(OCCn3cccn3)ccc2C1=O (nonaromatic ring conformer: 101.93585560598736 kcal/mol)

>  <smiles>  (16) 
Cn1cccc1CN1CCc2cc(OCCn3cccn3)ccc2C1=O

>  <score_type>  (16) 
oracle

>  <origin>  (16) 
adg

>  <m_score__min__energy>  (16) 
-7.9400000000000004

>  <m_primary>  (16) 
energy

$$$$
16:0
     RDKit          3D

 48 50  0  0  0  0  0  0  0  0999 V2000
   54.7910   26.0570   45.8840 N   0  0  0  0  0  0  0  0  0  0  0  0
   55.9520   25.3050   46.2370 C   0  0  0  0  0  0  0  0  0  0  0  0
   55.8590   23.9330   46.4930 C   0  0  0  0  0  0  0  0  0  0  0  0
   57.0230   23.2400   46.8300 C   0  0  0  0  0  0  0  0  0  0  0  0
   56.9790   22.0040   47.0650 O   0  0  0  0  0  0  0  0  0  0  0  0
   58.2070   23.8990   46.9040 N   0  0  0  0  0  0  0  0  0  0  0  0
   58.2790   25.2340   46.6580 C   0  0  0  0  0  0  0  0  0  0  0  0
   59.8540   26.0790   46.7650 S   0  0  0  0  0  0  0  0  0  0  0  0
   59.3370   27.1880   48.1180 C   0  0  0  0  0  0  0  0  0  0  0  0
   58.8210   28.4850   47.5710 C   0  0  0  0  0  0  0  0  0  0  0  0
   59.0390   29.5540   48.2040 O   0  0  0  0  0  0  0  0  0  0  0  0
   58.0630   28.4970   46.3530 N   0  0  0  0  0  0  0  0  0  0  0  0
   57.5800   29.7020   45.7390 C   0  0  0  0  0  0  0  0  0  0  0  0
   58.3120   30.8880   45.8940 C   0  0  0  0  0  0  0  0  0  0  0  0
   57.8730   32.0810   45.3030 C   0  0  0  0  0  0  0  0  0  0  0  0
   58.8320   33.5560   45.4580 S   0  0  0  0  0  0  0  0  0  0  0  0
   59.6040   33.7820   44.1880 O   0  0  0  0  0  0  0  0  0  0  0  0
   57.9100   34.7260   45.6560 O   0  0  0  0  0  0  0  0  0  0  0  0
   59.9420   33.4600   46.8060 N   0  0  0  0  0  0  0  0  0  0  0  0
   60.6860   32.1810   46.7670 C   0  0  0  0  0  0  0  0  0  0  0  0
   61.3460   31.8790   48.1160 C   0  0  0  0  0  0  0  0  0  0  0  0
   60.2910   31.7190   49.2250 C   0  0  0  0  0  0  0  0  0  0  0  0
   58.9880   32.4790   48.9210 C   0  0  0  0  0  0  0  0  0  0  0  0
   59.2640   33.7440   48.0960 C   0  0  0  0  0  0  0  0  0  0  0  0
   56.6750   32.0920   44.5770 C   0  0  0  0  0  0  0  0  0  0  0  0
   55.9230   30.9220   44.4440 C   0  0  0  0  0  0  0  0  0  0  0  0
   56.3640   29.7310   45.0300 C   0  0  0  0  0  0  0  0  0  0  0  0
   55.5730   28.5920   44.9250 O   0  0  0  0  0  0  0  0  0  0  0  0
   57.1580   25.9260   46.3240 N   0  0  0  0  0  0  0  0  0  0  0  0
   53.9430   25.5720   45.5130 H   0  0  0  0  0  0  0  0  0  0  0  0
   54.7710   27.0950   45.9910 H   0  0  0  0  0  0  0  0  0  0  0  0
   54.8919   23.4126   46.4303 H   0  0  0  0  0  0  0  0  0  0  0  0
   58.5421   26.7001   48.7012 H   0  0  0  0  0  0  0  0  0  0  0  0
   60.2072   27.3950   48.7582 H   0  0  0  0  0  0  0  0  0  0  0  0
   57.7060   27.5840   45.9890 H   0  0  0  0  0  0  0  0  0  0  0  0
   59.2397   30.8822   46.4851 H   0  0  0  0  0  0  0  0  0  0  0  0
   59.9877   31.3678   46.5198 H   0  0  0  0  0  0  0  0  0  0  0  0
   61.4752   32.2618   46.0050 H   0  0  0  0  0  0  0  0  0  0  0  0
   61.9239   30.9468   48.0326 H   0  0  0  0  0  0  0  0  0  0  0  0
   62.0048   32.7198   48.3789 H   0  0  0  0  0  0  0  0  0  0  0  0
   60.0569   30.6500   49.3360 H   0  0  0  0  0  0  0  0  0  0  0  0
   60.7137   32.1416   50.1484 H   0  0  0  0  0  0  0  0  0  0  0  0
   58.3125   31.8212   48.3544 H   0  0  0  0  0  0  0  0  0  0  0  0
   58.5280   32.7779   49.8744 H   0  0  0  0  0  0  0  0  0  0  0  0
   58.3056   34.2414   47.8860 H   0  0  0  0  0  0  0  0  0  0  0  0
   59.9372   34.3818   48.6876 H   0  0  0  0  0  0  0  0  0  0  0  0
   56.3253   33.0246   44.1102 H   0  0  0  0  0  0  0  0  0  0  0  0
   54.9808   30.9376   43.8765 H   0  0  0  0  0  0  0  0  0  0  0  0
  1  2  1  0
  2  3  2  0
  3  4  1  0
  4  5  2  0
  4  6  1  0
  6  7  1  0
  7  8  1  0
  8  9  1  0
  9 10  1  0
 10 11  2  0
 10 12  1  0
 12 13  1  0
 13 14  2  0
 14 15  1  0
 15 16  1  0
 16 17  2  0
 16 18  2  0
 16 19  1  0
 19 20  1  0
 20 21  1  0
 21 22  1  0
 22 23  1  0
 23 24  1  0
 15 25  2  0
 25 26  1  0
 26 27  2  0
 27 28  1  0
  7 29  2  0
 29  2  1  0
 27 13  1  0
 24 19  1  0
  1 30  1  0
  1 31  1  0
  3 32  1  0
  9 33  1  0
  9 34  1  0
 12 35  1  0
 14 36  1  0
 20 37  1  0
 20 38  1  0
 21 39  1  0
 21 40  1  0
 22 41  1  0
 22 42  1  0
 23 43  1  0
 23 44  1  0
 24 45  1  0
 24 46  1  0
 25 47  1  0
 26 48  1  0
M  CHG  2   6  -1  28  -1
M  END
>  <UniqueID>  (17) 
15

>  <SMILES>  (17) 
Nc1cc(=O)[n-]c(SCC(=O)Nc2cc(S(=O)(=O)N3CCCCC3)ccc2[O-])n1

>  <Energy>  (17) 
52.86474856947547

>  <Genealogy>  (17) 
Nc1cc(=O)[n-]c(SCC(=O)Nc2cc(S(=O)(=O)N3CCCCC3)ccc2[O-])n1 (protonated)
Nc1cc(=O)[n-]c(SCC(=O)Nc2cc(S(=O)(=O)N3CCCCC3)ccc2[O-])n1 (3D coordinates assigned)
Nc1cc(=O)[n-]c(SCC(=O)Nc2cc(S(=O)(=O)N3CCCCC3)ccc2[O-])n1 (nonaromatic ring conformer: 52.86474856947547 kcal/mol)

>  <smiles>  (17) 
Nc1cc(=O)[nH]c(SCC(=O)Nc2cc(S(=O)(=O)N3CCCCC3)ccc2O)n1

>  <score_type>  (17) 
oracle

>  <origin>  (17) 
adg

>  <m_score__min__energy>  (17) 
-12.85

>  <m_primary>  (17) 
energy

$$$$
17:0
     RDKit          3D

 63 67  0  0  0  0  0  0  0  0999 V2000
   59.2190   29.8400   44.4400 C   0  0  0  0  0  0  0  0  0  0  0  0
   59.0550   29.5140   45.7330 C   0  0  0  0  0  0  0  0  0  0  0  0
   58.4820   28.3350   46.2300 C   0  0  0  0  0  0  0  0  0  0  0  0
   57.8020   27.3490   45.6130 C   0  0  0  0  0  0  0  0  0  0  0  0
   57.2250   26.1620   46.2670 C   0  0  0  0  0  0  0  0  0  0  0  0
   57.9360   25.1000   46.6920 N   0  0  0  0  0  0  0  0  0  0  0  0
   56.9840   24.2260   47.0830 C   0  0  0  0  0  0  0  0  0  0  0  0
   57.2580   23.0960   47.5650 O   0  0  0  0  0  0  0  0  0  0  0  0
   55.7140   24.6530   46.9060 N   0  0  0  0  0  0  0  0  0  0  0  0
   55.8880   25.8740   46.3750 C   0  0  0  0  0  0  0  0  0  0  0  0
   54.8420   26.7050   45.9910 O   0  0  0  0  0  0  0  0  0  0  0  0
   58.7000   28.3470   47.5930 C   0  0  0  0  0  0  0  0  0  0  0  0
   59.3160   29.5450   47.9060 C   0  0  0  0  0  0  0  0  0  0  0  0
   59.6060   29.9920   49.3010 C   0  0  0  0  0  0  0  0  0  0  0  0
   60.3930   29.3170   50.0170 O   0  0  0  0  0  0  0  0  0  0  0  0
   59.0410   31.2280   49.8160 N   0  0  1  0  0  0  0  0  0  0  0  0
   58.6710   31.1840   51.2410 C   0  0  0  0  0  0  0  0  0  0  0  0
   58.7090   32.6230   51.7580 C   0  0  0  0  0  0  0  0  0  0  0  0
   59.3060   33.4520   50.6280 C   0  0  0  0  0  0  0  0  0  0  0  0
   59.8870   32.4310   49.6510 C   0  0  1  0  0  0  0  0  0  0  0  0
   61.4190   32.2070   49.8470 C   0  0  0  0  0  0  0  0  0  0  0  0
   62.2220   33.4340   49.5950 N   0  0  0  0  0  0  0  0  0  0  0  0
   63.6390   33.1270   49.3420 C   0  0  0  0  0  0  0  0  0  0  0  0
   63.8020   32.9090   47.8510 C   0  0  0  0  0  0  0  0  0  0  0  0
   62.6730   33.6980   47.2190 C   0  0  0  0  0  0  0  0  0  0  0  0
   61.7920   34.1480   48.3800 C   0  0  0  0  0  0  0  0  0  0  0  0
   59.5510   30.2520   46.7660 N   0  0  0  0  0  0  0  0  0  0  0  0
   60.2520   31.5430   46.6440 C   0  0  0  0  0  0  0  0  0  0  0  0
   59.3230   32.6310   46.1620 C   0  0  0  0  0  0  0  0  0  0  0  0
   57.9320   32.4480   46.2440 C   0  0  0  0  0  0  0  0  0  0  0  0
   57.0600   33.4320   45.7660 C   0  0  0  0  0  0  0  0  0  0  0  0
   57.5680   34.6000   45.1920 C   0  0  0  0  0  0  0  0  0  0  0  0
   58.9480   34.7840   45.0910 C   0  0  0  0  0  0  0  0  0  0  0  0
   59.8230   33.8050   45.5680 C   0  0  0  0  0  0  0  0  0  0  0  0
   59.6845   30.7992   44.1694 H   0  0  0  0  0  0  0  0  0  0  0  0
   58.8877   29.1477   43.6520 H   0  0  0  0  0  0  0  0  0  0  0  0
   57.6657   27.4383   44.5251 H   0  0  0  0  0  0  0  0  0  0  0  0
   58.4325   27.5490   48.3012 H   0  0  0  0  0  0  0  0  0  0  0  0
   58.1450   31.4000   49.2960 H   0  0  0  0  0  0  0  0  0  0  0  0
   57.6592   30.7680   51.3558 H   0  0  0  0  0  0  0  0  0  0  0  0
   59.3650   30.5453   51.8070 H   0  0  0  0  0  0  0  0  0  0  0  0
   57.6931   32.9724   51.9945 H   0  0  0  0  0  0  0  0  0  0  0  0
   59.3025   32.7072   52.6803 H   0  0  0  0  0  0  0  0  0  0  0  0
   58.5274   34.0555   50.1385 H   0  0  0  0  0  0  0  0  0  0  0  0
   60.0691   34.1560   50.9914 H   0  0  0  0  0  0  0  0  0  0  0  0
   59.8516   32.7744   48.6066 H   0  0  0  0  0  0  0  0  0  0  0  0
   61.5958   31.8785   50.8818 H   0  0  0  0  0  0  0  0  0  0  0  0
   61.7373   31.4491   49.1160 H   0  0  0  0  0  0  0  0  0  0  0  0
   64.2690   33.9673   49.6692 H   0  0  0  0  0  0  0  0  0  0  0  0
   63.9451   32.2293   49.8992 H   0  0  0  0  0  0  0  0  0  0  0  0
   64.7771   33.2857   47.5086 H   0  0  0  0  0  0  0  0  0  0  0  0
   63.7661   31.8433   47.5807 H   0  0  0  0  0  0  0  0  0  0  0  0
   63.0691   34.5692   46.6766 H   0  0  0  0  0  0  0  0  0  0  0  0
   62.1116   33.0953   46.4899 H   0  0  0  0  0  0  0  0  0  0  0  0
   61.8994   35.2326   48.5290 H   0  0  0  0  0  0  0  0  0  0  0  0
   60.7373   33.9229   48.1631 H   0  0  0  0  0  0  0  0  0  0  0  0
   60.6546   31.8260   47.6278 H   0  0  0  0  0  0  0  0  0  0  0  0
   61.0622   31.4288   45.9088 H   0  0  0  0  0  0  0  0  0  0  0  0
   57.5267   31.5261   46.6864 H   0  0  0  0  0  0  0  0  0  0  0  0
   55.9724   33.2858   45.8422 H   0  0  0  0  0  0  0  0  0  0  0  0
   56.8809   35.3742   44.8199 H   0  0  0  0  0  0  0  0  0  0  0  0
   59.3474   35.7018   44.6348 H   0  0  0  0  0  0  0  0  0  0  0  0
   60.9094   33.9525   45.4788 H   0  0  0  0  0  0  0  0  0  0  0  0
  1  2  2  0
  2  3  1  0
  3  4  2  3
  4  5  1  0
  5  6  1  0
  6  7  1  0
  7  8  2  0
  7  9  1  0
  9 10  1  0
 10 11  1  0
  3 12  1  0
 12 13  2  0
 13 14  1  0
 14 15  2  0
 14 16  1  0
 16 17  1  0
 17 18  1  0
 18 19  1  0
 19 20  1  0
 20 21  1  0
 21 22  1  0
 22 23  1  0
 23 24  1  0
 24 25  1  0
 25 26  1  0
 13 27  1  0
 27 28  1  0
 28 29  1  0
 29 30  2  0
 30 31  1  0
 31 32  2  0
 32 33  1  0
 33 34  2  0
 27  2  1  0
 34 29  1  0
 10  5  2  0
 20 16  1  0
 26 22  1  0
  1 35  1  0
  1 36  1  0
  4 37  1  0
 12 38  1  0
 16 39  1  6
 17 40  1  0
 17 41  1  0
 18 42  1  0
 18 43  1  0
 19 44  1  0
 19 45  1  0
 20 46  1  6
 21 47  1  0
 21 48  1  0
 23 49  1  0
 23 50  1  0
 24 51  1  0
 24 52  1  0
 25 53  1  0
 25 54  1  0
 26 55  1  0
 26 56  1  0
 28 57  1  0
 28 58  1  0
 30 59  1  0
 31 60  1  0
 32 61  1  0
 33 62  1  0
 34 63  1  0
M  CHG  4   6  -1   9  -1  11  -1  16   1
M  END
>  <UniqueID>  (18) 
16

>  <SMILES>  (18) 
C=c1c(=Cc2[n-]c(=O)[n-]c2[O-])cc(C(=O)[N@H+]2CCC[C@H]2CN2CCCC2)n1Cc1ccccc1

>  <Energy>  (18) 
154.92538250251093

>  <Genealogy>  (18) 
C=c1c(=Cc2[n-]c(=O)[n-]c2[O-])cc(C(=O)[NH+]2CCCC2CN2CCCC2)n1Cc1ccccc1 (protonated)
C=c1c(=Cc2[n-]c(=O)[n-]c2[O-])cc(C(=O)[N@H+]2CCC[C@H]2CN2CCCC2)n1Cc1ccccc1 (chirality)
C=c1c(=Cc2[n-]c(=O)[n-]c2[O-])cc(C(=O)[N@H+]2CCC[C@H]2CN2CCCC2)n1Cc1ccccc1 (3D coordinates assigned)
C=c1c(=Cc2[n-]c(=O)[n-]c2[O-])cc(C(=O)[N@H+]2CCC[C@H]2CN2CCCC2)n1Cc1ccccc1 (nonaromatic ring conformer: 154.92538250251093 kcal/mol)

>  <smiles>  (18) 
C=c1c(=Cc2[nH]c(=O)[nH]c2O)cc(C(=O)N2CCCC2CN2CCCC2)n1Cc1ccccc1

>  <score_type>  (18) 
oracle

>  <origin>  (18) 
adg

>  <m_score__min__energy>  (18) 
-16

>  <m_primary>  (18) 
energy

$$$$
18:0
     RDKit          3D

 38 39  0  0  0  0  0  0  0  0999 V2000
   55.0590   29.3530   43.8250 N   0  0  0  0  0  0  0  0  0  0  0  0
   56.1760   30.1970   44.1010 C   0  0  0  0  0  0  0  0  0  0  0  0
   56.4970   31.0880   43.2690 O   0  0  0  0  0  0  0  0  0  0  0  0
   56.9170   30.0250   45.3200 N   0  0  0  0  0  0  0  0  0  0  0  0
   58.0730   30.8080   45.6780 C   0  0  0  0  0  0  0  0  0  0  0  0
   58.5090   31.6860   44.8850 O   0  0  0  0  0  0  0  0  0  0  0  0
   58.7590   30.5870   46.9740 C   0  0  0  0  0  0  0  0  0  0  0  0
   59.0500   31.7710   47.8740 C   0  0  0  0  0  0  0  0  0  0  0  0
   60.3740   32.3960   47.5460 C   0  0  0  0  0  0  0  0  0  0  0  0
   60.5770   33.5250   46.7570 C   0  0  0  0  0  0  0  0  0  0  0  0
   61.9300   33.8240   46.5620 C   0  0  0  0  0  0  0  0  0  0  0  0
   62.7950   32.9270   47.1740 C   0  0  0  0  0  0  0  0  0  0  0  0
   61.8740   31.7580   47.9580 S   0  0  0  0  0  0  0  0  0  0  0  0
   59.0360   29.3560   47.3160 N   0  0  0  0  0  0  0  0  0  0  0  0
   59.9950   28.4350   46.7710 C   0  0  0  0  0  0  0  0  0  0  0  0
   60.8590   28.7960   45.9280 O   0  0  0  0  0  0  0  0  0  0  0  0
   59.9460   27.0030   47.2030 C   0  0  0  0  0  0  0  0  0  0  0  0
   58.7360   26.3270   46.6200 C   0  0  0  0  0  0  0  0  0  0  0  0
   58.8480   25.0540   46.0370 C   0  0  0  0  0  0  0  0  0  0  0  0
   57.7310   24.4440   45.4590 C   0  0  0  0  0  0  0  0  0  0  0  0
   56.4990   25.1040   45.4480 C   0  0  0  0  0  0  0  0  0  0  0  0
   56.3820   26.3770   46.0140 C   0  0  0  0  0  0  0  0  0  0  0  0
   55.1590   27.0350   45.9950 O   0  0  0  0  0  0  0  0  0  0  0  0
   57.4970   26.9890   46.5960 C   0  0  0  0  0  0  0  0  0  0  0  0
   54.7750   28.6080   44.4990 H   0  0  0  0  0  0  0  0  0  0  0  0
   54.5140   29.4710   42.9420 H   0  0  0  0  0  0  0  0  0  0  0  0
   56.5930   29.2750   45.9710 H   0  0  0  0  0  0  0  0  0  0  0  0
   58.2575   32.5226   47.7440 H   0  0  0  0  0  0  0  0  0  0  0  0
   59.0836   31.4149   48.9142 H   0  0  0  0  0  0  0  0  0  0  0  0
   59.7571   34.1214   46.3303 H   0  0  0  0  0  0  0  0  0  0  0  0
   62.2761   34.6895   45.9780 H   0  0  0  0  0  0  0  0  0  0  0  0
   63.8938   32.9729   47.1503 H   0  0  0  0  0  0  0  0  0  0  0  0
   60.8533   26.4872   46.8556 H   0  0  0  0  0  0  0  0  0  0  0  0
   59.8875   26.9605   48.3006 H   0  0  0  0  0  0  0  0  0  0  0  0
   59.8180   24.5353   46.0353 H   0  0  0  0  0  0  0  0  0  0  0  0
   57.8217   23.4430   45.0121 H   0  0  0  0  0  0  0  0  0  0  0  0
   55.6210   24.6216   44.9938 H   0  0  0  0  0  0  0  0  0  0  0  0
   57.4034   27.9925   47.0366 H   0  0  0  0  0  0  0  0  0  0  0  0
  1  2  1  0
  2  3  2  0
  2  4  1  0
  4  5  1  0
  5  6  2  0
  5  7  1  0
  7  8  1  0
  8  9  1  0
  9 10  2  0
 10 11  1  0
 11 12  2  0
 12 13  1  0
  7 14  2  3
 14 15  1  0
 15 16  2  0
 15 17  1  0
 17 18  1  0
 18 19  2  0
 19 20  1  0
 20 21  2  0
 21 22  1  0
 22 23  1  0
 22 24  2  0
 13  9  1  0
 24 18  1  0
  1 25  1  0
  1 26  1  0
  4 27  1  0
  8 28  1  0
  8 29  1  0
 10 30  1  0
 11 31  1  0
 12 32  1  0
 17 33  1  0
 17 34  1  0
 19 35  1  0
 20 36  1  0
 21 37  1  0
 24 38  1  0
M  CHG  1  23  -1
M  END
>  <UniqueID>  (19) 
17

>  <SMILES>  (19) 
NC(=O)NC(=O)C(Cc1cccs1)=NC(=O)Cc1cccc([O-])c1

>  <Energy>  (19) 
63.285124168262136

>  <Genealogy>  (19) 
NC(=O)NC(=O)C(Cc1cccs1)=NC(=O)Cc1cccc([O-])c1 (protonated)
NC(=O)NC(=O)C(Cc1cccs1)=NC(=O)Cc1cccc([O-])c1 (3D coordinates assigned)
NC(=O)NC(=O)C(Cc1cccs1)=NC(=O)Cc1cccc([O-])c1 (optimized conformer: 63.285124168262136 kcal/mol)

>  <smiles>  (19) 
NC(=O)NC(=O)C(Cc1cccs1)=NC(=O)Cc1cccc(O)c1

>  <score_type>  (19) 
oracle

>  <origin>  (19) 
adg

>  <m_score__min__energy>  (19) 
-11.949999999999999

>  <m_primary>  (19) 
energy

$$$$
19:0
     RDKit          3D

 29 30  0  0  0  0  0  0  0  0999 V2000
   55.8060   28.8370   45.2100 O   0  0  0  0  0  0  0  0  0  0  0  0
   57.0180   28.5380   45.3750 C   0  0  0  0  0  0  0  0  0  0  0  0
   57.5400   27.2600   44.7780 C   0  0  0  0  0  0  0  0  0  0  0  0
   57.1100   26.0700   45.5850 C   0  0  0  0  0  0  0  0  0  0  0  0
   57.9070   25.0310   46.0250 C   0  0  0  0  0  0  0  0  0  0  0  0
   57.0870   24.2400   46.8020 C   0  0  0  0  0  0  0  0  0  0  0  0
   57.4970   23.0720   47.4380 O   0  0  0  0  0  0  0  0  0  0  0  0
   55.8370   24.7340   46.8900 N   0  0  0  0  0  0  0  0  0  0  0  0
   55.8670   25.8590   46.1510 C   0  0  0  0  0  0  0  0  0  0  0  0
   54.7700   26.7000   46.0020 O   0  0  0  0  0  0  0  0  0  0  0  0
   57.8350   29.3950   46.1830 N   0  0  0  0  0  0  0  0  0  0  0  0
   58.8970   30.2740   45.7010 C   0  0  0  0  0  0  0  0  0  0  0  0
   58.4330   31.7130   45.6770 C   0  0  0  0  0  0  0  0  0  0  0  0
   58.5420   32.5150   46.8340 C   0  0  0  0  0  0  0  0  0  0  0  0
   59.0430   32.0060   47.9870 F   0  0  0  0  0  0  0  0  0  0  0  0
   58.1140   33.8450   46.8140 C   0  0  0  0  0  0  0  0  0  0  0  0
   57.5640   34.3900   45.6540 C   0  0  0  0  0  0  0  0  0  0  0  0
   57.4210   33.6020   44.5120 C   0  0  0  0  0  0  0  0  0  0  0  0
   57.8430   32.2670   44.5170 C   0  0  0  0  0  0  0  0  0  0  0  0
   57.5990   31.3180   43.0510 Cl  0  0  0  0  0  0  0  0  0  0  0  0
   57.1528   27.1579   43.7535 H   0  0  0  0  0  0  0  0  0  0  0  0
   58.6393   27.3002   44.7743 H   0  0  0  0  0  0  0  0  0  0  0  0
   58.9719   24.8687   45.8024 H   0  0  0  0  0  0  0  0  0  0  0  0
   56.8310   22.4930   47.9340 H   0  0  0  0  0  0  0  0  0  0  0  0
   59.7677   30.1868   46.3676 H   0  0  0  0  0  0  0  0  0  0  0  0
   59.1667   29.9732   44.6779 H   0  0  0  0  0  0  0  0  0  0  0  0
   58.2113   34.4650   47.7174 H   0  0  0  0  0  0  0  0  0  0  0  0
   57.2428   35.4420   45.6397 H   0  0  0  0  0  0  0  0  0  0  0  0
   56.9745   34.0315   43.6030 H   0  0  0  0  0  0  0  0  0  0  0  0
  1  2  2  0
  2  3  1  0
  3  4  1  0
  4  5  1  0
  5  6  2  0
  6  7  1  0
  6  8  1  0
  8  9  1  0
  9 10  1  0
  2 11  1  0
 11 12  1  0
 12 13  1  0
 13 14  2  0
 14 15  1  0
 14 16  1  0
 16 17  2  0
 17 18  1  0
 18 19  2  0
 19 20  1  0
  9  4  2  0
 19 13  1  0
  3 21  1  0
  3 22  1  0
  5 23  1  0
  7 24  1  0
 12 25  1  0
 12 26  1  0
 16 27  1  0
 17 28  1  0
 18 29  1  0
M  CHG  3   8  -1  10  -1  11  -1
M  END
>  <UniqueID>  (20) 
18

>  <SMILES>  (20) 
O=C(Cc1cc(O)[n-]c1[O-])[N-]Cc1c(F)cccc1Cl

>  <Energy>  (20) 
53.89352705547514

>  <Genealogy>  (20) 
O=C(Cc1cc(O)[n-]c1[O-])[N-]Cc1c(F)cccc1Cl (protonated)
O=C(Cc1cc(O)[n-]c1[O-])[N-]Cc1c(F)cccc1Cl (3D coordinates assigned)
O=C(Cc1cc(O)[n-]c1[O-])[N-]Cc1c(F)cccc1Cl (optimized conformer: 53.89352705547514 kcal/mol)

>  <smiles>  (20) 
O=C(Cc1cc(O)[nH]c1O)NCc1c(F)cccc1Cl

>  <score_type>  (20) 
oracle

>  <origin>  (20) 
adg

>  <m_score__min__energy>  (20) 
-14.619999999999999

>  <m_primary>  (20) 
energy

$$$$
20:0
     RDKit          3D

 43 45  0  0  0  0  0  0  0  0999 V2000
   54.3140   25.9350   45.9550 O   0  0  0  0  0  0  0  0  0  0  0  0
   55.5510   26.1700   45.9960 C   0  0  0  0  0  0  0  0  0  0  0  0
   56.4980   25.1010   46.4360 C   0  0  0  0  0  0  0  0  0  0  0  0
   56.6510   24.0490   45.3710 C   0  0  0  0  0  0  0  0  0  0  0  0
   56.3390   24.3540   44.0350 C   0  0  0  0  0  0  0  0  0  0  0  0
   56.5110   23.3930   43.0350 C   0  0  0  0  0  0  0  0  0  0  0  0
   56.9800   22.1180   43.3610 C   0  0  0  0  0  0  0  0  0  0  0  0
   57.2670   21.7980   44.6910 C   0  0  0  0  0  0  0  0  0  0  0  0
   57.0970   22.7540   45.6960 C   0  0  0  0  0  0  0  0  0  0  0  0
   57.3760   22.4230   46.9820 F   0  0  0  0  0  0  0  0  0  0  0  0
   56.0580   27.4520   45.6170 N   0  0  0  0  0  0  0  0  0  0  0  0
   57.4280   27.6520   45.1650 C   0  0  0  0  0  0  0  0  0  0  0  0
   57.9430   28.9550   45.6980 C   0  0  0  0  0  0  0  0  0  0  0  0
   57.8990   29.1580   46.9400 O   0  0  0  0  0  0  0  0  0  0  0  0
   58.5170   29.9640   44.8580 N   0  0  0  0  0  0  0  0  0  0  0  0
   57.7510   31.4510   44.4030 S   0  0  0  0  0  0  0  0  0  0  0  0
   56.3020   31.4000   44.7980 O   0  0  0  0  0  0  0  0  0  0  0  0
   57.8220   31.6050   42.9100 O   0  0  0  0  0  0  0  0  0  0  0  0
   58.5190   32.8220   45.2220 C   0  0  0  0  0  0  0  0  0  0  0  0
   58.6960   34.0170   44.5050 C   0  0  0  0  0  0  0  0  0  0  0  0
   59.2410   35.1450   45.1200 C   0  0  0  0  0  0  0  0  0  0  0  0
   59.6010   35.1070   46.4640 C   0  0  0  0  0  0  0  0  0  0  0  0
   59.4470   33.9260   47.2000 C   0  0  0  0  0  0  0  0  0  0  0  0
   59.8080   33.8820   48.5520 C   0  0  0  0  0  0  0  0  0  0  0  0
   59.6720   32.6970   49.2700 C   0  0  0  0  0  0  0  0  0  0  0  0
   59.1670   31.5650   48.6330 C   0  0  0  0  0  0  0  0  0  0  0  0
   58.8000   31.6140   47.3230 N   0  0  0  0  0  0  0  0  0  0  0  0
   58.9170   32.7630   46.5830 C   0  0  0  0  0  0  0  0  0  0  0  0
   57.4802   25.5518   46.6410 H   0  0  0  0  0  0  0  0  0  0  0  0
   56.0964   24.6270   47.3438 H   0  0  0  0  0  0  0  0  0  0  0  0
   55.9580   25.3528   43.7755 H   0  0  0  0  0  0  0  0  0  0  0  0
   56.2767   23.6409   41.9892 H   0  0  0  0  0  0  0  0  0  0  0  0
   57.1234   21.3660   42.5711 H   0  0  0  0  0  0  0  0  0  0  0  0
   57.6277   20.7909   44.9473 H   0  0  0  0  0  0  0  0  0  0  0  0
   58.0595   26.8298   45.5327 H   0  0  0  0  0  0  0  0  0  0  0  0
   57.4533   27.6691   44.0654 H   0  0  0  0  0  0  0  0  0  0  0  0
   58.4015   34.0642   43.4462 H   0  0  0  0  0  0  0  0  0  0  0  0
   59.3867   36.0682   44.5400 H   0  0  0  0  0  0  0  0  0  0  0  0
   60.0074   36.0068   46.9489 H   0  0  0  0  0  0  0  0  0  0  0  0
   60.1989   34.7833   49.0467 H   0  0  0  0  0  0  0  0  0  0  0  0
   59.9606   32.6546   50.3306 H   0  0  0  0  0  0  0  0  0  0  0  0
   59.0641   30.6241   49.1934 H   0  0  0  0  0  0  0  0  0  0  0  0
   58.4310   30.7340   46.9060 H   0  0  0  0  0  0  0  0  0  0  0  0
  1  2  2  0
  2  3  1  0
  3  4  1  0
  4  5  2  0
  5  6  1  0
  6  7  2  0
  7  8  1  0
  8  9  2  0
  9 10  1  0
  2 11  1  0
 11 12  1  0
 12 13  1  0
 13 14  2  0
 13 15  1  0
 15 16  1  0
 16 17  2  0
 16 18  2  0
 16 19  1  0
 19 20  2  0
 20 21  1  0
 21 22  2  0
 22 23  1  0
 23 24  2  0
 24 25  1  0
 25 26  2  0
 26 27  1  0
 27 28  2  0
  9  4  1  0
 28 19  1  0
 28 23  1  0
  3 29  1  0
  3 30  1  0
  5 31  1  0
  6 32  1  0
  7 33  1  0
  8 34  1  0
 12 35  1  0
 12 36  1  0
 20 37  1  0
 21 38  1  0
 22 39  1  0
 24 40  1  0
 25 41  1  0
 26 42  1  0
 27 43  1  0
M  CHG  3  11  -1  15  -1  27   1
M  END
>  <UniqueID>  (21) 
19

>  <SMILES>  (21) 
O=C(Cc1ccccc1F)[N-]CC(=O)[N-]S(=O)(=O)c1cccc2ccc[nH+]c12

>  <Energy>  (21) 
43.981494689833056

>  <Genealogy>  (21) 
O=C(Cc1ccccc1F)[N-]CC(=O)[N-]S(=O)(=O)c1cccc2ccc[nH+]c12 (protonated)
O=C(Cc1ccccc1F)[N-]CC(=O)[N-]S(=O)(=O)c1cccc2ccc[nH+]c12 (3D coordinates assigned)
O=C(Cc1ccccc1F)[N-]CC(=O)[N-]S(=O)(=O)c1cccc2ccc[nH+]c12 (optimized conformer: 43.981494689833056 kcal/mol)

>  <smiles>  (21) 
O=C(Cc1ccccc1F)NCC(=O)NS(=O)(=O)c1cccc2cccnc12

>  <score_type>  (21) 
oracle

>  <origin>  (21) 
adg

>  <m_score__min__energy>  (21) 
-10.550000000000001

>  <m_primary>  (21) 
energy

$$$$
21:0
     RDKit          3D

 37 39  0  0  0  0  0  0  0  0999 V2000
   55.7887   25.4700   46.2744 H   0  0  0  0  0  0  0  0  0  0  0  0
   56.4480   26.3060   45.9980 C   0  0  0  0  0  0  0  0  0  0  0  0
   55.9100   27.4960   45.6210 N   0  0  0  0  0  0  0  0  0  0  0  0
   56.6830   28.5570   45.2550 C   0  0  0  0  0  0  0  0  0  0  0  0
   56.1540   29.6920   44.8980 N   0  0  0  0  0  0  0  0  0  0  0  0
   56.7800   30.7400   44.1360 C   0  0  0  0  0  0  0  0  0  0  0  0
   56.7570   30.7170   42.8730 O   0  0  0  0  0  0  0  0  0  0  0  0
   57.4570   31.8570   44.8370 C   0  0  0  0  0  0  0  0  0  0  0  0
   58.1240   31.6390   46.0580 C   0  0  0  0  0  0  0  0  0  0  0  0
   58.1445   30.6305   46.4968 H   0  0  0  0  0  0  0  0  0  0  0  0
   58.7600   32.6950   46.7160 C   0  0  0  0  0  0  0  0  0  0  0  0
   59.2765   32.5148   47.6704 H   0  0  0  0  0  0  0  0  0  0  0  0
   58.7420   33.9780   46.1660 C   0  0  0  0  0  0  0  0  0  0  0  0
   59.2452   34.8069   46.6854 H   0  0  0  0  0  0  0  0  0  0  0  0
   58.0840   34.2080   44.9550 C   0  0  0  0  0  0  0  0  0  0  0  0
   58.0687   35.2192   44.5223 H   0  0  0  0  0  0  0  0  0  0  0  0
   57.4450   33.1560   44.2920 C   0  0  0  0  0  0  0  0  0  0  0  0
   56.9295   33.3438   43.3386 H   0  0  0  0  0  0  0  0  0  0  0  0
   58.0760   28.4240   45.2570 C   0  0  0  0  0  0  0  0  0  0  0  0
   58.7128   29.2698   44.9584 H   0  0  0  0  0  0  0  0  0  0  0  0
   58.6530   27.2120   45.6400 C   0  0  0  0  0  0  0  0  0  0  0  0
   59.7469   27.0964   45.6317 H   0  0  0  0  0  0  0  0  0  0  0  0
   57.8360   26.1400   46.0360 C   0  0  0  0  0  0  0  0  0  0  0  0
   58.3730   24.8640   46.4160 N   0  0  0  0  0  0  0  0  0  0  0  0
   58.8910   23.8570   45.5360 C   0  0  0  0  0  0  0  0  0  0  0  0
   60.0880   23.4750   45.6460 O   0  0  0  0  0  0  0  0  0  0  0  0
   58.0050   23.2240   44.5300 C   0  0  0  0  0  0  0  0  0  0  0  0
   56.9550   23.9530   43.9400 C   0  0  0  0  0  0  0  0  0  0  0  0
   56.7899   25.0018   44.2275 H   0  0  0  0  0  0  0  0  0  0  0  0
   56.1200   23.3540   42.9910 C   0  0  0  0  0  0  0  0  0  0  0  0
   55.3034   23.9327   42.5346 H   0  0  0  0  0  0  0  0  0  0  0  0
   56.3220   22.0210   42.6220 C   0  0  0  0  0  0  0  0  0  0  0  0
   55.6640   21.5507   41.8764 H   0  0  0  0  0  0  0  0  0  0  0  0
   57.3590   21.2870   43.2000 C   0  0  0  0  0  0  0  0  0  0  0  0
   57.5175   20.2383   42.9082 H   0  0  0  0  0  0  0  0  0  0  0  0
   58.1970   21.8810   44.1490 C   0  0  0  0  0  0  0  0  0  0  0  0
   59.0115   21.2960   44.6011 H   0  0  0  0  0  0  0  0  0  0  0  0
  1  2  1  0
  2  3  1  0
  3  4  1  0
  4  5  2  0
  5  6  1  0
  6  7  2  0
  6  8  1  0
  8  9  2  0
  9 10  1  0
  9 11  1  0
 11 12  1  0
 11 13  2  0
 13 14  1  0
 13 15  1  0
 15 16  1  0
 15 17  2  0
 17 18  1  0
  4 19  1  0
 19 20  1  0
 19 21  2  0
 21 22  1  0
 21 23  1  0
 23 24  1  0
 24 25  1  0
 25 26  2  0
 25 27  1  0
 27 28  2  0
 28 29  1  0
 28 30  1  0
 30 31  1  0
 30 32  2  0
 32 33  1  0
 32 34  1  0
 34 35  1  0
 34 36  2  0
 36 37  1  0
 23  2  2  0
 36 27  1  0
 17  8  1  0
M  CHG  2   3  -1  24  -1
M  END
>  <UniqueID>  (22) 
20

>  <SMILES>  (22) 
O=C(/N=c1\ccc([N-]C(=O)c2ccccc2)c[n-]1)c1ccccc1

>  <Energy>  (22) 
48.662157460401176

>  <Genealogy>  (22) 
O=C(N=c1ccc([N-]C(=O)c2ccccc2)c[n-]1)c1ccccc1 (protonated)
O=C(/N=c1\ccc([N-]C(=O)c2ccccc2)c[n-]1)c1ccccc1 (cis-trans isomerization)
O=C(/N=c1\ccc([N-]C(=O)c2ccccc2)c[n-]1)c1ccccc1 (3D coordinates assigned)
O=C(/N=c1\ccc([N-]C(=O)c2ccccc2)c[n-]1)c1ccccc1 (optimized conformer: 48.662157460401176 kcal/mol)

>  <smiles>  (22) 
O=C(N=c1ccc(NC(=O)c2ccccc2)c[nH]1)c1ccccc1

>  <score_type>  (22) 
oracle

>  <origin>  (22) 
adg

>  <m_score__min__energy>  (22) 
-11.57

>  <m_primary>  (22) 
energy

$$$$
22:0
     RDKit          3D

 58 62  0  0  0  0  0  0  0  0999 V2000
   54.6690   28.3790   53.0640 C   0  0  0  0  0  0  0  0  0  0  0  0
   55.1040   29.6420   52.9190 C   0  0  0  0  0  0  0  0  0  0  0  0
   54.3350   30.7510   52.5250 C   0  0  0  0  0  0  0  0  0  0  0  0
   53.0040   30.9050   52.3890 C   0  0  0  0  0  0  0  0  0  0  0  0
   52.2840   31.0520   51.1130 C   0  0  0  0  0  0  0  0  0  0  0  0
   52.2920   30.1430   50.1200 N   0  0  0  0  0  0  0  0  0  0  0  0
   51.3930   30.6370   49.2390 C   0  0  0  0  0  0  0  0  0  0  0  0
   51.1250   30.0640   48.1500 O   0  0  0  0  0  0  0  0  0  0  0  0
   50.7970   31.7870   49.6220 N   0  0  0  0  0  0  0  0  0  0  0  0
   51.3630   32.0270   50.8170 C   0  0  0  0  0  0  0  0  0  0  0  0
   51.0400   33.1120   51.6230 O   0  0  0  0  0  0  0  0  0  0  0  0
   55.2310   31.7760   52.2810 C   0  0  0  0  0  0  0  0  0  0  0  0
   56.4840   31.2970   52.5910 C   0  0  0  0  0  0  0  0  0  0  0  0
   57.7470   32.0950   52.4640 C   0  0  0  0  0  0  0  0  0  0  0  0
   56.4150   30.0040   52.9900 N   0  0  0  0  0  0  0  0  0  0  0  0
   57.5740   29.1440   53.2800 C   0  0  0  0  0  0  0  0  0  0  0  0
   58.5120   29.1220   52.1130 C   0  0  0  0  0  0  0  0  0  0  0  0
   59.8350   28.6980   52.1400 C   0  0  0  0  0  0  0  0  0  0  0  0
   60.4950   28.8550   50.9150 C   0  0  0  0  0  0  0  0  0  0  0  0
   59.6910   29.4120   49.9210 C   0  0  0  0  0  0  0  0  0  0  0  0
   60.0710   29.7070   48.5230 C   0  0  0  0  0  0  0  0  0  0  0  0
   60.2360   28.7370   47.7300 O   0  0  0  0  0  0  0  0  0  0  0  0
   60.3000   31.0650   48.0650 N   0  0  0  0  0  0  0  0  0  0  0  0
   59.6210   31.2980   46.7610 C   0  0  0  0  0  0  0  0  0  0  0  0
   58.3410   32.1420   46.8930 C   0  0  0  0  0  0  0  0  0  0  0  0
   58.5850   33.4450   47.5600 N   0  0  0  0  0  0  0  0  0  0  0  0
   58.5080   34.5850   46.6050 C   0  0  0  0  0  0  0  0  0  0  0  0
   58.1390   34.2360   45.1770 C   0  0  0  0  0  0  0  0  0  0  0  0
   59.3920   34.6530   44.6830 O   0  0  0  0  0  0  0  0  0  0  0  0
   59.8160   35.0230   45.9740 C   0  0  0  0  0  0  0  0  0  0  0  0
   59.7100   33.4370   48.5320 C   0  0  0  0  0  0  0  0  0  0  0  0
   59.9220   32.0370   49.1200 C   0  0  0  0  0  0  0  0  0  0  0  0
   58.1640   29.6910   50.5700 S   0  0  0  0  0  0  0  0  0  0  0  0
   55.3672   27.5896   53.3794 H   0  0  0  0  0  0  0  0  0  0  0  0
   53.6147   28.1344   52.8673 H   0  0  0  0  0  0  0  0  0  0  0  0
   52.4032   30.9225   53.3102 H   0  0  0  0  0  0  0  0  0  0  0  0
   54.9886   32.7827   51.9098 H   0  0  0  0  0  0  0  0  0  0  0  0
   58.1301   32.3371   53.4663 H   0  0  0  0  0  0  0  0  0  0  0  0
   58.4985   31.5074   51.9163 H   0  0  0  0  0  0  0  0  0  0  0  0
   57.5390   33.0260   51.9163 H   0  0  0  0  0  0  0  0  0  0  0  0
   58.1025   29.5333   54.1627 H   0  0  0  0  0  0  0  0  0  0  0  0
   57.2198   28.1206   53.4728 H   0  0  0  0  0  0  0  0  0  0  0  0
   60.3168   28.2799   53.0361 H   0  0  0  0  0  0  0  0  0  0  0  0
   61.5442   28.5673   50.7528 H   0  0  0  0  0  0  0  0  0  0  0  0
   61.3260   31.1990   47.9100 H   0  0  0  0  0  0  0  0  0  0  0  0
   60.3187   31.8216   46.0909 H   0  0  0  0  0  0  0  0  0  0  0  0
   59.3282   30.3157   46.3619 H   0  0  0  0  0  0  0  0  0  0  0  0
   57.9378   32.3308   45.8871 H   0  0  0  0  0  0  0  0  0  0  0  0
   57.6308   31.5766   47.5142 H   0  0  0  0  0  0  0  0  0  0  0  0
   57.8983   35.2279   47.2568 H   0  0  0  0  0  0  0  0  0  0  0  0
   57.9416   33.1647   45.0242 H   0  0  0  0  0  0  0  0  0  0  0  0
   57.2245   34.6659   44.7423 H   0  0  0  0  0  0  0  0  0  0  0  0
   60.6871   34.4532   46.3297 H   0  0  0  0  0  0  0  0  0  0  0  0
   60.1726   36.0496   46.1442 H   0  0  0  0  0  0  0  0  0  0  0  0
   60.6300   33.7543   48.0192 H   0  0  0  0  0  0  0  0  0  0  0  0
   59.4670   34.1275   49.3531 H   0  0  0  0  0  0  0  0  0  0  0  0
   60.7239   32.0809   49.8717 H   0  0  0  0  0  0  0  0  0  0  0  0
   58.9790   31.7048   49.5787 H   0  0  0  0  0  0  0  0  0  0  0  0
  1  2  2  0
  2  3  1  0
  3  4  2  3
  4  5  1  0
  5  6  1  0
  6  7  1  0
  7  8  2  0
  7  9  1  0
  9 10  1  0
 10 11  1  0
  3 12  1  0
 12 13  2  0
 13 14  1  0
 13 15  1  0
 15 16  1  0
 16 17  1  0
 17 18  2  0
 18 19  1  0
 19 20  2  0
 20 21  1  0
 21 22  2  0
 21 23  1  0
 23 24  1  0
 24 25  1  0
 25 26  1  0
 26 27  1  0
 27 28  1  0
 28 29  1  0
 29 30  1  0
 26 31  1  0
 31 32  1  0
 20 33  1  0
 15  2  1  0
 33 17  1  0
 10  5  2  0
 32 23  1  0
 30 27  1  0
  1 34  1  0
  1 35  1  0
  4 36  1  0
 12 37  1  0
 14 38  1  0
 14 39  1  0
 14 40  1  0
 16 41  1  0
 16 42  1  0
 18 43  1  0
 19 44  1  0
 23 45  1  0
 24 46  1  0
 24 47  1  0
 25 48  1  0
 25 49  1  0
 27 50  1  0
 28 51  1  0
 28 52  1  0
 30 53  1  0
 30 54  1  0
 31 55  1  0
 31 56  1  0
 32 57  1  0
 32 58  1  0
M  CHG  4   6  -1   9  -1  11  -1  23   1
M  END
>  <UniqueID>  (23) 
21

>  <SMILES>  (23) 
C=c1c(=Cc2[n-]c(=O)[n-]c2[O-])cc(C)n1Cc1ccc(C(=O)[NH+]2CCN(C3COC3)CC2)s1

>  <Energy>  (23) 
242.26656801815346

>  <Genealogy>  (23) 
C=c1c(=Cc2[n-]c(=O)[n-]c2[O-])cc(C)n1Cc1ccc(C(=O)[NH+]2CCN(C3COC3)CC2)s1 (protonated)
C=c1c(=Cc2[n-]c(=O)[n-]c2[O-])cc(C)n1Cc1ccc(C(=O)[NH+]2CCN(C3COC3)CC2)s1 (3D coordinates assigned)
C=c1c(=Cc2[n-]c(=O)[n-]c2[O-])cc(C)n1Cc1ccc(C(=O)[NH+]2CCN(C3COC3)CC2)s1 (nonaromatic ring conformer: 242.26656801815346 kcal/mol)

>  <smiles>  (23) 
C=c1c(=Cc2[nH]c(=O)[nH]c2O)cc(C)n1Cc1ccc(C(=O)N2CCN(C3COC3)CC2)s1

>  <score_type>  (23) 
oracle

>  <origin>  (23) 
adg

>  <m_score__min__energy>  (23) 
-16.98

>  <m_primary>  (23) 
energy

$$$$
23:0
     RDKit          3D

 57 60  0  0  0  0  0  0  0  0999 V2000
   64.5740   30.9640   52.6490 H   0  0  0  0  0  0  0  0  0  0  0  0
   64.7400   30.9610   51.6700 O   0  0  0  0  0  0  0  0  0  0  0  0
   64.1910   32.1390   51.1220 C   0  0  2  0  0  0  0  0  0  0  0  0
   63.9130   33.0990   52.3050 C   0  0  0  0  0  0  0  0  0  0  0  0
   65.1060   33.5560   52.8390 F   0  0  0  0  0  0  0  0  0  0  0  0
   63.2180   32.4340   53.3020 F   0  0  0  0  0  0  0  0  0  0  0  0
   63.1650   34.1900   51.8950 F   0  0  0  0  0  0  0  0  0  0  0  0
   62.8490   31.8050   50.4000 C   0  0  0  0  0  0  0  0  0  0  0  0
   62.3564   30.9758   50.9289 H   0  0  0  0  0  0  0  0  0  0  0  0
   62.2202   32.7075   50.4099 H   0  0  0  0  0  0  0  0  0  0  0  0
   63.0780   31.3960   48.9350 C   0  0  0  0  0  0  0  0  0  0  0  0
   63.6984   30.4878   48.9177 H   0  0  0  0  0  0  0  0  0  0  0  0
   62.0896   31.2276   48.4826 H   0  0  0  0  0  0  0  0  0  0  0  0
   63.7600   32.4520   48.1340 N   0  0  1  0  0  0  0  0  0  0  0  0
   64.4780   31.9780   47.5360 H   0  0  0  0  0  0  0  0  0  0  0  0
   62.8110   33.1200   47.2610 C   0  0  0  0  0  0  0  0  0  0  0  0
   63.2270   33.9180   46.3740 O   0  0  0  0  0  0  0  0  0  0  0  0
   61.3450   32.9440   47.4270 C   0  0  0  0  0  0  0  0  0  0  0  0
   60.6490   33.7230   48.3670 C   0  0  0  0  0  0  0  0  0  0  0  0
   61.1919   34.4667   48.9687 H   0  0  0  0  0  0  0  0  0  0  0  0
   59.2730   33.5600   48.5430 C   0  0  0  0  0  0  0  0  0  0  0  0
   58.7368   34.1808   49.2759 H   0  0  0  0  0  0  0  0  0  0  0  0
   58.5760   32.6120   47.7920 C   0  0  0  0  0  0  0  0  0  0  0  0
   57.4917   32.4900   47.9316 H   0  0  0  0  0  0  0  0  0  0  0  0
   59.2550   31.8160   46.8610 C   0  0  0  0  0  0  0  0  0  0  0  0
   58.5430   30.8300   46.0920 N   0  0  0  0  0  0  0  0  0  0  0  0
   57.5610   31.0850   45.1990 C   0  0  0  0  0  0  0  0  0  0  0  0
   57.0320   32.4470   44.8660 C   0  0  0  0  0  0  0  0  0  0  0  0
   56.8191   32.9951   45.7957 H   0  0  0  0  0  0  0  0  0  0  0  0
   57.7815   32.9980   44.2789 H   0  0  0  0  0  0  0  0  0  0  0  0
   56.1071   32.3477   44.2789 H   0  0  0  0  0  0  0  0  0  0  0  0
   57.0970   29.9090   44.6460 C   0  0  0  0  0  0  0  0  0  0  0  0
   56.2828   29.8058   43.9135 H   0  0  0  0  0  0  0  0  0  0  0  0
   57.8530   28.8830   45.1900 C   0  0  0  0  0  0  0  0  0  0  0  0
   57.7070   27.5960   44.8160 C   0  0  0  0  0  0  0  0  0  0  0  0
   57.7185   27.3807   43.7373 H   0  0  0  0  0  0  0  0  0  0  0  0
   57.5330   26.4510   45.7320 C   0  0  0  0  0  0  0  0  0  0  0  0
   56.2780   26.1380   46.2800 C   0  0  0  0  0  0  0  0  0  0  0  0
   55.1510   26.8790   45.9450 O   0  0  0  0  0  0  0  0  0  0  0  0
   56.1590   25.1030   47.1520 N   0  0  0  0  0  0  0  0  0  0  0  0
   57.2410   24.3720   47.5230 C   0  0  0  0  0  0  0  0  0  0  0  0
   57.1050   23.4160   48.3300 O   0  0  0  0  0  0  0  0  0  0  0  0
   58.4680   24.6730   47.0290 N   0  0  0  0  0  0  0  0  0  0  0  0
   58.6400   25.6970   46.1530 C   0  0  0  0  0  0  0  0  0  0  0  0
   59.7950   25.9530   45.7180 O   0  0  0  0  0  0  0  0  0  0  0  0
   58.7220   29.4830   46.1180 C   0  0  0  0  0  0  0  0  0  0  0  0
   59.5210   28.8650   47.0020 C   0  0  0  0  0  0  0  0  0  0  0  0
   60.1566   29.4573   47.6767 H   0  0  0  0  0  0  0  0  0  0  0  0
   59.5402   27.7663   47.0517 H   0  0  0  0  0  0  0  0  0  0  0  0
   60.6360   31.9830   46.6810 C   0  0  0  0  0  0  0  0  0  0  0  0
   61.1700   31.3576   45.9505 H   0  0  0  0  0  0  0  0  0  0  0  0
   64.5160   33.4440   48.9440 C   0  0  0  0  0  0  0  0  0  0  0  0
   65.2720   33.9254   48.3062 H   0  0  0  0  0  0  0  0  0  0  0  0
   63.8048   34.1869   49.3342 H   0  0  0  0  0  0  0  0  0  0  0  0
   65.2180   32.7760   50.1330 C   0  0  0  0  0  0  0  0  0  0  0  0
   65.8868   31.9882   49.7562 H   0  0  0  0  0  0  0  0  0  0  0  0
   65.7857   33.5466   50.6751 H   0  0  0  0  0  0  0  0  0  0  0  0
  1  2  1  0
  3  2  1  1
  3  4  1  0
  4  5  1  0
  4  6  1  0
  4  7  1  0
  3  8  1  0
  8  9  1  0
  8 10  1  0
  8 11  1  0
 11 12  1  0
 11 13  1  0
 11 14  1  0
 14 15  1  6
 14 16  1  0
 16 17  2  0
 16 18  1  0
 18 19  2  0
 19 20  1  0
 19 21  1  0
 21 22  1  0
 21 23  2  0
 23 24  1  0
 23 25  1  0
 25 26  1  0
 26 27  1  0
 27 28  1  0
 28 29  1  0
 28 30  1  0
 28 31  1  0
 27 32  2  0
 32 33  1  0
 32 34  1  0
 34 35  2  0
 35 36  1  0
 35 37  1  0
 37 38  2  0
 38 39  1  0
 38 40  1  0
 40 41  1  0
 41 42  2  0
 41 43  1  0
 43 44  1  0
 44 45  2  0
 34 46  1  0
 46 47  2  0
 47 48  1  0
 47 49  1  0
 25 50  2  0
 50 51  1  0
 14 52  1  0
 52 53  1  0
 52 54  1  0
 52 55  1  0
 55 56  1  0
 55 57  1  0
 55  3  1  0
 50 18  1  0
 46 26  1  0
 44 37  1  0
M  CHG  4  14   1  39  -1  40  -1  43  -1
M  END
>  <UniqueID>  (24) 
22

>  <SMILES>  (24) 
C=c1/c(=C\c2c([O-])[n-]c(=O)[n-]c2=O)cc(C)n1-c1cccc(C(=O)[NH+]2CCC(O)(C(F)(F)F)CC2)c1

>  <Energy>  (24) 
124.43143017569766

>  <Genealogy>  (24) 
C=c1c(=Cc2c([O-])[n-]c(=O)[n-]c2=O)cc(C)n1-c1cccc(C(=O)[NH+]2CCC(O)(C(F)(F)F)CC2)c1 (protonated)
C=c1/c(=C\c2c([O-])[n-]c(=O)[n-]c2=O)cc(C)n1-c1cccc(C(=O)[NH+]2CCC(O)(C(F)(F)F)CC2)c1 (cis-trans isomerization)
C=c1/c(=C\c2c([O-])[n-]c(=O)[n-]c2=O)cc(C)n1-c1cccc(C(=O)[NH+]2CCC(O)(C(F)(F)F)CC2)c1 (3D coordinates assigned)
C=c1/c(=C\c2c([O-])[n-]c(=O)[n-]c2=O)cc(C)n1-c1cccc(C(=O)[NH+]2CCC(O)(C(F)(F)F)CC2)c1 (nonaromatic ring conformer: 124.43143017569766 kcal/mol)

>  <smiles>  (24) 
C=c1c(=Cc2c(O)[nH]c(=O)[nH]c2=O)cc(C)n1-c1cccc(C(=O)N2CCC(O)(C(F)(F)F)CC2)c1

>  <score_type>  (24) 
oracle

>  <origin>  (24) 
adg

>  <m_score__min__energy>  (24) 
-15.31

>  <m_primary>  (24) 
energy

$$$$
24:0
     RDKit          3D

 63 67  0  0  0  0  0  0  0  0999 V2000
   55.3430   30.8230   52.1020 C   0  0  0  0  0  0  0  0  0  0  0  0
   56.4100   31.5890   52.3520 C   0  0  0  0  0  0  0  0  0  0  0  0
   57.2950   31.3480   53.5390 C   0  0  0  0  0  0  0  0  0  0  0  0
   58.6280   31.9100   53.3180 N   0  0  0  0  0  0  0  0  0  0  0  0
   59.2610   32.8630   54.0500 C   0  0  0  0  0  0  0  0  0  0  0  0
   58.7550   33.4060   55.0700 O   0  0  0  0  0  0  0  0  0  0  0  0
   60.4860   33.1780   53.5640 N   0  0  0  0  0  0  0  0  0  0  0  0
   61.4130   34.1980   54.0470 C   0  0  0  0  0  0  0  0  0  0  0  0
   60.6170   32.4010   52.4710 C   0  0  0  0  0  0  0  0  0  0  0  0
   61.6740   32.3430   51.5660 C   0  0  0  0  0  0  0  0  0  0  0  0
   61.5470   31.4880   50.4520 C   0  0  0  0  0  0  0  0  0  0  0  0
   62.6020   31.4530   49.4910 N   0  0  0  0  0  0  0  0  0  0  0  0
   62.9380   32.8320   48.5020 S   0  0  0  0  0  0  0  0  0  0  0  0
   63.8520   32.4410   47.3770 O   0  0  0  0  0  0  0  0  0  0  0  0
   63.6310   33.8750   49.3330 O   0  0  0  0  0  0  0  0  0  0  0  0
   61.4390   33.4900   47.8570 C   0  0  0  0  0  0  0  0  0  0  0  0
   61.2140   33.5240   46.4750 C   0  0  0  0  0  0  0  0  0  0  0  0
   60.0260   34.0620   45.9690 C   0  0  0  0  0  0  0  0  0  0  0  0
   59.0620   34.5760   46.8440 C   0  0  0  0  0  0  0  0  0  0  0  0
   59.2870   34.5540   48.2210 C   0  0  0  0  0  0  0  0  0  0  0  0
   60.4710   34.0090   48.7290 C   0  0  0  0  0  0  0  0  0  0  0  0
   60.3690   30.7020   50.2770 C   0  0  0  0  0  0  0  0  0  0  0  0
   60.1920   29.8630   49.1190 N   0  0  0  0  0  0  0  0  0  0  0  0
   60.0160   28.4140   49.3130 C   0  0  0  0  0  0  0  0  0  0  0  0
   60.6430   27.6450   48.1490 C   0  0  0  0  0  0  0  0  0  0  0  0
   60.1690   28.2230   46.8880 N   0  0  0  0  0  0  0  0  0  0  0  0
   59.0700   27.6330   46.1610 C   0  0  0  0  0  0  0  0  0  0  0  0
   58.0060   27.0530   46.7600 N   0  0  0  0  0  0  0  0  0  0  0  0
   57.1250   26.5410   45.8570 C   0  0  0  0  0  0  0  0  0  0  0  0
   55.8860   25.8730   46.2770 C   0  0  0  0  0  0  0  0  0  0  0  0
   54.7670   26.3380   45.9310 O   0  0  0  0  0  0  0  0  0  0  0  0
   55.9390   24.7260   47.0600 O   0  0  0  0  0  0  0  0  0  0  0  0
   57.4760   26.7190   44.5220 C   0  0  0  0  0  0  0  0  0  0  0  0
   58.9470   27.5340   44.4830 S   0  0  0  0  0  0  0  0  0  0  0  0
   60.5110   29.6340   46.6880 C   0  0  0  0  0  0  0  0  0  0  0  0
   59.8750   30.4570   47.8100 C   0  0  0  0  0  0  0  0  0  0  0  0
   59.3310   30.7770   51.2310 C   0  0  0  0  0  0  0  0  0  0  0  0
   59.4910   31.6390   52.3150 C   0  0  0  0  0  0  0  0  0  0  0  0
   54.7140   31.0261   51.2228 H   0  0  0  0  0  0  0  0  0  0  0  0
   55.0942   29.9897   52.7756 H   0  0  0  0  0  0  0  0  0  0  0  0
   56.6452   32.4184   51.6688 H   0  0  0  0  0  0  0  0  0  0  0  0
   56.8466   31.8216   54.4248 H   0  0  0  0  0  0  0  0  0  0  0  0
   57.3915   30.2629   53.6915 H   0  0  0  0  0  0  0  0  0  0  0  0
   61.4151   34.2003   55.1470 H   0  0  0  0  0  0  0  0  0  0  0  0
   62.4257   33.9769   53.6789 H   0  0  0  0  0  0  0  0  0  0  0  0
   61.0964   35.1851   53.6789 H   0  0  0  0  0  0  0  0  0  0  0  0
   62.5814   32.9465   51.7159 H   0  0  0  0  0  0  0  0  0  0  0  0
   63.3010   30.6800   49.5360 H   0  0  0  0  0  0  0  0  0  0  0  0
   61.9735   33.1266   45.7857 H   0  0  0  0  0  0  0  0  0  0  0  0
   59.8494   34.0811   44.8834 H   0  0  0  0  0  0  0  0  0  0  0  0
   58.1270   34.9973   46.4462 H   0  0  0  0  0  0  0  0  0  0  0  0
   58.5326   34.9656   48.9077 H   0  0  0  0  0  0  0  0  0  0  0  0
   60.6432   33.9875   49.8152 H   0  0  0  0  0  0  0  0  0  0  0  0
   60.5022   28.1115   50.2522 H   0  0  0  0  0  0  0  0  0  0  0  0
   58.9408   28.1857   49.3561 H   0  0  0  0  0  0  0  0  0  0  0  0
   61.7389   27.7234   48.2023 H   0  0  0  0  0  0  0  0  0  0  0  0
   60.3551   26.5848   48.2046 H   0  0  0  0  0  0  0  0  0  0  0  0
   56.8955   26.3863   43.6489 H   0  0  0  0  0  0  0  0  0  0  0  0
   61.6038   29.7570   46.7126 H   0  0  0  0  0  0  0  0  0  0  0  0
   60.1345   29.9762   45.7127 H   0  0  0  0  0  0  0  0  0  0  0  0
   60.2658   31.4846   47.7731 H   0  0  0  0  0  0  0  0  0  0  0  0
   58.7834   30.4651   47.6746 H   0  0  0  0  0  0  0  0  0  0  0  0
   58.4195   30.1710   51.1218 H   0  0  0  0  0  0  0  0  0  0  0  0
  1  2  2  0
  2  3  1  0
  3  4  1  0
  4  5  1  0
  5  6  2  0
  5  7  1  0
  7  8  1  0
  7  9  1  0
  9 10  2  0
 10 11  1  0
 11 12  1  0
 12 13  1  0
 13 14  2  0
 13 15  2  0
 13 16  1  0
 16 17  2  0
 17 18  1  0
 18 19  2  0
 19 20  1  0
 20 21  2  0
 11 22  2  0
 22 23  1  0
 23 24  1  0
 24 25  1  0
 25 26  1  0
 26 27  1  0
 27 28  2  0
 28 29  1  0
 29 30  1  0
 30 31  2  0
 30 32  1  0
 29 33  2  0
 33 34  1  0
 26 35  1  0
 35 36  1  0
 22 37  1  0
 37 38  2  0
 38  4  1  0
 38  9  1  0
 21 16  1  0
 36 23  1  0
 34 27  1  0
  1 39  1  0
  1 40  1  0
  2 41  1  0
  3 42  1  0
  3 43  1  0
  8 44  1  0
  8 45  1  0
  8 46  1  0
 10 47  1  0
 12 48  1  0
 17 49  1  0
 18 50  1  0
 19 51  1  0
 20 52  1  0
 21 53  1  0
 24 54  1  0
 24 55  1  0
 25 56  1  0
 25 57  1  0
 33 58  1  0
 35 59  1  0
 35 60  1  0
 36 61  1  0
 36 62  1  0
 37 63  1  0
M  CHG  1  32  -1
M  END
>  <UniqueID>  (25) 
23

>  <SMILES>  (25) 
C=CCn1c(=O)n(C)c2cc(NS(=O)(=O)c3ccccc3)c(N3CCN(c4nc(C(=O)[O-])cs4)CC3)cc21

>  <Energy>  (25) 
145.93538907348545

>  <Genealogy>  (25) 
C=CCn1c(=O)n(C)c2cc(NS(=O)(=O)c3ccccc3)c(N3CCN(c4nc(C(=O)[O-])cs4)CC3)cc21 (protonated)
C=CCn1c(=O)n(C)c2cc(NS(=O)(=O)c3ccccc3)c(N3CCN(c4nc(C(=O)[O-])cs4)CC3)cc21 (3D coordinates assigned)
C=CCn1c(=O)n(C)c2cc(NS(=O)(=O)c3ccccc3)c(N3CCN(c4nc(C(=O)[O-])cs4)CC3)cc21 (nonaromatic ring conformer: 145.93538907348545 kcal/mol)

>  <smiles>  (25) 
C=CCn1c(=O)n(C)c2cc(NS(=O)(=O)c3ccccc3)c(N3CCN(c4nc(C(=O)O)cs4)CC3)cc21

>  <score_type>  (25) 
oracle

>  <origin>  (25) 
adg

>  <m_score__min__energy>  (25) 
-12.880000000000001

>  <m_primary>  (25) 
energy

$$$$
25:0
     RDKit          3D

 62 64  0  0  0  0  0  0  0  0999 V2000
   69.0290   25.6940   50.0920 C   0  0  0  0  0  0  0  0  0  0  0  0
   68.4920   27.0590   49.6880 C   0  0  0  0  0  0  0  0  0  0  0  0
   68.0830   27.7870   50.8450 O   0  0  0  0  0  0  0  0  0  0  0  0
   66.7400   27.9850   51.2000 C   0  0  0  0  0  0  0  0  0  0  0  0
   65.9750   26.9950   51.3480 O   0  0  0  0  0  0  0  0  0  0  0  0
   66.2340   29.3190   51.3970 N   0  0  0  0  0  0  0  0  0  0  0  0
   64.7880   29.5160   51.6160 C   0  0  0  0  0  0  0  0  0  0  0  0
   64.4510   30.9760   51.9500 C   0  0  0  0  0  0  0  0  0  0  0  0
   65.1980   31.8850   51.0690 N   0  0  0  0  0  0  0  0  0  0  0  0
   64.5870   33.0810   50.5570 C   0  0  0  0  0  0  0  0  0  0  0  0
   65.1360   34.1950   50.7930 O   0  0  0  0  0  0  0  0  0  0  0  0
   63.2770   33.0390   49.7770 C   0  0  0  0  0  0  0  0  0  0  0  0
   63.4800   32.4200   48.3790 C   0  0  0  0  0  0  0  0  0  0  0  0
   62.1680   32.4150   47.5820 C   0  0  0  0  0  0  0  0  0  0  0  0
   60.9900   31.9470   48.3540 N   0  0  0  0  0  0  0  0  0  0  0  0
   59.7290   33.1590   48.4340 S   0  0  0  0  0  0  0  0  0  0  0  0
   60.2900   34.4850   48.8700 O   0  0  0  0  0  0  0  0  0  0  0  0
   58.6620   32.7510   49.4110 O   0  0  0  0  0  0  0  0  0  0  0  0
   59.0100   33.2980   46.8290 C   0  0  0  0  0  0  0  0  0  0  0  0
   59.5500   34.1760   45.8790 C   0  0  0  0  0  0  0  0  0  0  0  0
   59.0240   34.2160   44.5830 C   0  0  0  0  0  0  0  0  0  0  0  0
   57.9630   33.3740   44.2250 C   0  0  0  0  0  0  0  0  0  0  0  0
   57.4160   32.4880   45.1760 C   0  0  0  0  0  0  0  0  0  0  0  0
   56.3360   31.5980   44.8570 N   0  0  0  0  0  0  0  0  0  0  0  0
   56.5140   29.9850   44.2440 S   0  0  0  0  0  0  0  0  0  0  0  0
   58.1550   29.4170   44.6120 C   0  0  0  0  0  0  0  0  0  0  0  0
   56.3230   29.9640   42.7550 O   0  0  0  0  0  0  0  0  0  0  0  0
   55.5160   29.0620   44.8880 O   0  0  0  0  0  0  0  0  0  0  0  0
   57.9430   32.4610   46.4740 C   0  0  0  0  0  0  0  0  0  0  0  0
   61.3080   31.3600   49.6690 C   0  0  0  0  0  0  0  0  0  0  0  0
   62.1570   32.2920   50.5510 C   0  0  0  0  0  0  0  0  0  0  0  0
   66.6390   31.6900   50.8480 C   0  0  0  0  0  0  0  0  0  0  0  0
   67.1670   30.4450   51.5670 C   0  0  0  0  0  0  0  0  0  0  0  0
   69.0576   25.6213   51.1892 H   0  0  0  0  0  0  0  0  0  0  0  0
   68.3730   24.9081   49.6894 H   0  0  0  0  0  0  0  0  0  0  0  0
   70.0446   25.5657   49.6894 H   0  0  0  0  0  0  0  0  0  0  0  0
   69.2806   27.6200   49.1651 H   0  0  0  0  0  0  0  0  0  0  0  0
   67.6260   26.9230   49.0235 H   0  0  0  0  0  0  0  0  0  0  0  0
   64.2477   29.2268   50.7025 H   0  0  0  0  0  0  0  0  0  0  0  0
   64.4857   28.8932   52.4709 H   0  0  0  0  0  0  0  0  0  0  0  0
   63.3723   31.1406   51.8110 H   0  0  0  0  0  0  0  0  0  0  0  0
   64.7310   31.1786   52.9943 H   0  0  0  0  0  0  0  0  0  0  0  0
   62.9487   34.0813   49.6509 H   0  0  0  0  0  0  0  0  0  0  0  0
   64.2311   33.0080   47.8312 H   0  0  0  0  0  0  0  0  0  0  0  0
   63.8182   31.3806   48.5025 H   0  0  0  0  0  0  0  0  0  0  0  0
   61.9696   33.4406   47.2375 H   0  0  0  0  0  0  0  0  0  0  0  0
   62.3045   31.7060   46.7521 H   0  0  0  0  0  0  0  0  0  0  0  0
   60.3879   34.8341   46.1526 H   0  0  0  0  0  0  0  0  0  0  0  0
   59.4453   34.9114   43.8421 H   0  0  0  0  0  0  0  0  0  0  0  0
   57.5570   33.4040   43.2031 H   0  0  0  0  0  0  0  0  0  0  0  0
   58.2908   29.3700   45.7026 H   0  0  0  0  0  0  0  0  0  0  0  0
   58.3018   28.4158   44.1807 H   0  0  0  0  0  0  0  0  0  0  0  0
   58.8893   30.1132   44.1807 H   0  0  0  0  0  0  0  0  0  0  0  0
   57.5154   31.7766   47.2215 H   0  0  0  0  0  0  0  0  0  0  0  0
   60.3658   31.1425   50.1934 H   0  0  0  0  0  0  0  0  0  0  0  0
   61.8966   30.4482   49.4899 H   0  0  0  0  0  0  0  0  0  0  0  0
   61.4914   33.0404   51.0059 H   0  0  0  0  0  0  0  0  0  0  0  0
   62.6535   31.6588   51.3010 H   0  0  0  0  0  0  0  0  0  0  0  0
   66.8211   31.5807   49.7687 H   0  0  0  0  0  0  0  0  0  0  0  0
   67.1663   32.5658   51.2540 H   0  0  0  0  0  0  0  0  0  0  0  0
   68.1457   30.1713   51.1461 H   0  0  0  0  0  0  0  0  0  0  0  0
   67.2654   30.6676   52.6397 H   0  0  0  0  0  0  0  0  0  0  0  0
  1  2  1  0
  2  3  1  0
  3  4  1  0
  4  5  2  0
  4  6  1  0
  6  7  1  0
  7  8  1  0
  8  9  1  0
  9 10  1  0
 10 11  2  0
 10 12  1  0
 12 13  1  0
 13 14  1  0
 14 15  1  0
 15 16  1  0
 16 17  2  0
 16 18  2  0
 16 19  1  0
 19 20  2  0
 20 21  1  0
 21 22  2  0
 22 23  1  0
 23 24  1  0
 24 25  1  0
 25 26  1  0
 25 27  2  0
 25 28  2  0
 23 29  2  0
 15 30  1  0
 30 31  1  0
  9 32  1  0
 32 33  1  0
 33  6  1  0
 31 12  1  0
 29 19  1  0
  1 34  1  0
  1 35  1  0
  1 36  1  0
  2 37  1  0
  2 38  1  0
  7 39  1  0
  7 40  1  0
  8 41  1  0
  8 42  1  0
 12 43  1  0
 13 44  1  0
 13 45  1  0
 14 46  1  0
 14 47  1  0
 20 48  1  0
 21 49  1  0
 22 50  1  0
 26 51  1  0
 26 52  1  0
 26 53  1  0
 29 54  1  0
 30 55  1  0
 30 56  1  0
 31 57  1  0
 31 58  1  0
 32 59  1  0
 32 60  1  0
 33 61  1  0
 33 62  1  0
M  CHG  1  24  -1
M  END
>  <UniqueID>  (26) 
24

>  <SMILES>  (26) 
CCOC(=O)N1CCN(C(=O)C2CCN(S(=O)(=O)c3cccc([N-]S(C)(=O)=O)c3)CC2)CC1

>  <Energy>  (26) 
70.75754650771685

>  <Genealogy>  (26) 
CCOC(=O)N1CCN(C(=O)C2CCN(S(=O)(=O)c3cccc([N-]S(C)(=O)=O)c3)CC2)CC1 (protonated)
CCOC(=O)N1CCN(C(=O)C2CCN(S(=O)(=O)c3cccc([N-]S(C)(=O)=O)c3)CC2)CC1 (3D coordinates assigned)
CCOC(=O)N1CCN(C(=O)C2CCN(S(=O)(=O)c3cccc([N-]S(C)(=O)=O)c3)CC2)CC1 (nonaromatic ring conformer: 70.75754650771685 kcal/mol)

>  <smiles>  (26) 
CCOC(=O)N1CCN(C(=O)C2CCN(S(=O)(=O)c3cccc(NS(C)(=O)=O)c3)CC2)CC1

>  <score_type>  (26) 
oracle

>  <origin>  (26) 
adg

>  <m_score__min__energy>  (26) 
-11.51

>  <m_primary>  (26) 
energy

$$$$
26:0
     RDKit          3D

 52 54  0  0  0  0  0  0  0  0999 V2000
   55.6890   31.1270   44.5030 O   0  0  0  0  0  0  0  0  0  0  0  0
   56.7940   30.8540   43.9600 C   0  0  0  0  0  0  0  0  0  0  0  0
   57.7280   31.9740   43.5650 C   0  0  0  0  0  0  0  0  0  0  0  0
   58.0030   32.9160   44.6980 C   0  0  0  0  0  0  0  0  0  0  0  0
   57.4350   32.8580   45.9640 C   0  0  0  0  0  0  0  0  0  0  0  0
   57.9370   33.8280   46.8380 C   0  0  0  0  0  0  0  0  0  0  0  0
   58.9070   34.6440   46.2690 C   0  0  0  0  0  0  0  0  0  0  0  0
   59.1430   34.1530   44.6780 S   0  0  0  0  0  0  0  0  0  0  0  0
   57.1100   29.4680   43.7380 N   0  0  0  0  0  0  0  0  0  0  0  0
   57.4330   28.5630   44.6150 C   0  0  0  0  0  0  0  0  0  0  0  0
   56.6290   28.1300   45.6130 N   0  0  0  0  0  0  0  0  0  0  0  0
   57.2080   27.2130   46.3860 N   0  0  0  0  0  0  0  0  0  0  0  0
   58.4670   26.9050   45.9980 C   0  0  0  0  0  0  0  0  0  0  0  0
   59.3540   25.9630   46.7460 C   0  0  0  0  0  0  0  0  0  0  0  0
   60.6320   26.6740   47.1930 C   0  0  0  0  0  0  0  0  0  0  0  0
   60.3130   27.7470   48.1880 C   0  0  0  0  0  0  0  0  0  0  0  0
   60.9530   27.7960   49.2740 O   0  0  0  0  0  0  0  0  0  0  0  0
   59.2620   28.6870   47.9230 N   0  0  0  0  0  0  0  0  0  0  0  0
   58.8970   29.7440   48.8650 C   0  0  0  0  0  0  0  0  0  0  0  0
   59.2820   31.1230   48.2910 C   0  0  0  0  0  0  0  0  0  0  0  0
   60.5950   31.6230   48.7500 N   0  0  0  0  0  0  0  0  0  0  0  0
   60.7190   33.1020   48.7810 C   0  0  0  0  0  0  0  0  0  0  0  0
   61.6800   33.6320   47.7090 C   0  0  0  0  0  0  0  0  0  0  0  0
   63.0940   33.0300   47.8710 C   0  0  0  0  0  0  0  0  0  0  0  0
   63.7390   32.9960   46.6230 O   0  0  0  0  0  0  0  0  0  0  0  0
   63.0630   31.6070   48.4700 C   0  0  0  0  0  0  0  0  0  0  0  0
   61.7420   30.8980   48.1560 C   0  0  0  0  0  0  0  0  0  0  0  0
   58.9370   27.8110   44.6550 S   0  0  0  0  0  0  0  0  0  0  0  0
   58.6804   31.5378   43.2294 H   0  0  0  0  0  0  0  0  0  0  0  0
   57.2421   32.5481   42.7623 H   0  0  0  0  0  0  0  0  0  0  0  0
   56.6679   32.1235   46.2505 H   0  0  0  0  0  0  0  0  0  0  0  0
   57.5958   33.9347   47.8783 H   0  0  0  0  0  0  0  0  0  0  0  0
   59.4308   35.4697   46.7729 H   0  0  0  0  0  0  0  0  0  0  0  0
   58.8195   25.5879   47.6313 H   0  0  0  0  0  0  0  0  0  0  0  0
   59.6242   25.1267   46.0845 H   0  0  0  0  0  0  0  0  0  0  0  0
   61.3111   25.9421   47.6547 H   0  0  0  0  0  0  0  0  0  0  0  0
   61.1102   27.1329   46.3151 H   0  0  0  0  0  0  0  0  0  0  0  0
   58.7740   28.6540   46.9990 H   0  0  0  0  0  0  0  0  0  0  0  0
   57.8118   29.7141   49.0425 H   0  0  0  0  0  0  0  0  0  0  0  0
   59.4359   29.5849   49.8106 H   0  0  0  0  0  0  0  0  0  0  0  0
   59.3061   31.0459   47.1940 H   0  0  0  0  0  0  0  0  0  0  0  0
   58.5272   31.8379   48.6505 H   0  0  0  0  0  0  0  0  0  0  0  0
   59.7254   33.5432   48.6136 H   0  0  0  0  0  0  0  0  0  0  0  0
   61.1253   33.3835   49.7637 H   0  0  0  0  0  0  0  0  0  0  0  0
   61.2896   33.3661   46.7156 H   0  0  0  0  0  0  0  0  0  0  0  0
   61.7541   34.7238   47.8202 H   0  0  0  0  0  0  0  0  0  0  0  0
   63.6454   33.6741   48.5718 H   0  0  0  0  0  0  0  0  0  0  0  0
   64.5770   32.4780   46.7490 H   0  0  0  0  0  0  0  0  0  0  0  0
   63.8928   31.0221   48.0465 H   0  0  0  0  0  0  0  0  0  0  0  0
   63.1613   31.6887   49.5626 H   0  0  0  0  0  0  0  0  0  0  0  0
   61.6105   30.8494   47.0650 H   0  0  0  0  0  0  0  0  0  0  0  0
   61.7771   29.8861   48.5859 H   0  0  0  0  0  0  0  0  0  0  0  0
  1  2  2  0
  2  3  1  0
  3  4  1  0
  4  5  2  0
  5  6  1  0
  6  7  2  0
  7  8  1  0
  2  9  1  0
  9 10  2  3
 10 11  1  0
 11 12  1  0
 12 13  2  0
 13 14  1  0
 14 15  1  0
 15 16  1  0
 16 17  2  0
 16 18  1  0
 18 19  1  0
 19 20  1  0
 20 21  1  0
 21 22  1  0
 22 23  1  0
 23 24  1  0
 24 25  1  0
 24 26  1  0
 26 27  1  0
 13 28  1  0
  8  4  1  0
 28 10  1  0
 27 21  1  0
  3 29  1  0
  3 30  1  0
  5 31  1  0
  6 32  1  0
  7 33  1  0
 14 34  1  0
 14 35  1  0
 15 36  1  0
 15 37  1  0
 18 38  1  0
 19 39  1  0
 19 40  1  0
 20 41  1  0
 20 42  1  0
 22 43  1  0
 22 44  1  0
 23 45  1  0
 23 46  1  0
 24 47  1  0
 25 48  1  0
 26 49  1  0
 26 50  1  0
 27 51  1  0
 27 52  1  0
M  CHG  1  11  -1
M  END
>  <UniqueID>  (27) 
25

>  <SMILES>  (27) 
O=C(Cc1cccs1)N=c1[n-]nc(CCC(=O)NCCN2CCC(O)CC2)s1

>  <Energy>  (27) 
117.42918529015701

>  <Genealogy>  (27) 
O=C(Cc1cccs1)N=c1[n-]nc(CCC(=O)NCCN2CCC(O)CC2)s1 (protonated)
O=C(Cc1cccs1)N=c1[n-]nc(CCC(=O)NCCN2CCC(O)CC2)s1 (3D coordinates assigned)
O=C(Cc1cccs1)N=c1[n-]nc(CCC(=O)NCCN2CCC(O)CC2)s1 (nonaromatic ring conformer: 117.42918529015701 kcal/mol)

>  <smiles>  (27) 
O=C(Cc1cccs1)N=c1[nH]nc(CCC(=O)NCCN2CCC(O)CC2)s1

>  <score_type>  (27) 
oracle

>  <origin>  (27) 
adg

>  <m_score__min__energy>  (27) 
-11.23

>  <m_primary>  (27) 
energy

$$$$
27:0
     RDKit          3D

 38 40  0  0  0  0  0  0  0  0999 V2000
   59.6640   32.7630   45.7340 O   0  0  0  0  0  0  0  0  0  0  0  0
   58.8710   32.2830   46.5910 C   0  0  0  0  0  0  0  0  0  0  0  0
   57.8760   31.3320   46.1820 N   0  0  0  0  0  0  0  0  0  0  0  0
   57.4550   31.1790   44.8160 C   0  0  0  0  0  0  0  0  0  0  0  0
   57.9180   32.0780   43.8460 C   0  0  0  0  0  0  0  0  0  0  0  0
   57.5220   31.9420   42.5160 C   0  0  0  0  0  0  0  0  0  0  0  0
   56.6750   30.8930   42.1600 C   0  0  0  0  0  0  0  0  0  0  0  0
   56.2560   30.0080   43.1030 N   0  0  0  0  0  0  0  0  0  0  0  0
   56.6210   30.1180   44.4120 C   0  0  0  0  0  0  0  0  0  0  0  0
   56.2200   29.1500   45.3420 O   0  0  0  0  0  0  0  0  0  0  0  0
   56.9170   27.9640   45.6040 C   0  0  0  0  0  0  0  0  0  0  0  0
   58.3180   27.9970   45.6060 C   0  0  0  0  0  0  0  0  0  0  0  0
   59.0540   26.8370   45.8610 C   0  0  0  0  0  0  0  0  0  0  0  0
   58.3930   25.6350   46.1300 C   0  0  0  0  0  0  0  0  0  0  0  0
   56.9970   25.5950   46.1570 C   0  0  0  0  0  0  0  0  0  0  0  0
   56.2540   26.7560   45.9080 C   0  0  0  0  0  0  0  0  0  0  0  0
   54.8680   26.7090   45.9970 O   0  0  0  0  0  0  0  0  0  0  0  0
   59.0060   32.6800   48.0140 C   0  0  0  0  0  0  0  0  0  0  0  0
   58.5180   31.8420   49.0320 C   0  0  0  0  0  0  0  0  0  0  0  0
   58.6480   32.2040   50.3750 C   0  0  0  0  0  0  0  0  0  0  0  0
   59.2770   33.4100   50.7320 C   0  0  0  0  0  0  0  0  0  0  0  0
   59.4130   33.7860   52.1150 N   0  0  0  0  0  0  0  0  0  0  0  0
   58.4550   34.2910   52.7360 O   0  0  0  0  0  0  0  0  0  0  0  0
   60.6040   33.5950   52.7780 O   0  0  0  0  0  0  0  0  0  0  0  0
   59.7750   34.2420   49.7170 C   0  0  0  0  0  0  0  0  0  0  0  0
   59.6430   33.8810   48.3720 C   0  0  0  0  0  0  0  0  0  0  0  0
   57.5730   30.6060   46.8690 H   0  0  0  0  0  0  0  0  0  0  0  0
   58.5965   32.8942   44.1349 H   0  0  0  0  0  0  0  0  0  0  0  0
   57.8740   32.6547   41.7556 H   0  0  0  0  0  0  0  0  0  0  0  0
   56.3459   30.7816   41.1163 H   0  0  0  0  0  0  0  0  0  0  0  0
   58.8421   28.9431   45.4053 H   0  0  0  0  0  0  0  0  0  0  0  0
   60.1535   26.8696   45.8501 H   0  0  0  0  0  0  0  0  0  0  0  0
   58.9727   24.7198   46.3206 H   0  0  0  0  0  0  0  0  0  0  0  0
   56.4796   24.6489   46.3745 H   0  0  0  0  0  0  0  0  0  0  0  0
   58.0293   30.8924   48.7685 H   0  0  0  0  0  0  0  0  0  0  0  0
   58.2552   31.5404   51.1595 H   0  0  0  0  0  0  0  0  0  0  0  0
   60.2735   35.1862   49.9816 H   0  0  0  0  0  0  0  0  0  0  0  0
   60.0409   34.5422   47.5881 H   0  0  0  0  0  0  0  0  0  0  0  0
  1  2  2  0
  2  3  1  0
  3  4  1  0
  4  5  2  0
  5  6  1  0
  6  7  2  0
  7  8  1  0
  8  9  2  0
  9 10  1  0
 10 11  1  0
 11 12  2  0
 12 13  1  0
 13 14  2  0
 14 15  1  0
 15 16  2  0
 16 17  1  0
  2 18  1  0
 18 19  2  0
 19 20  1  0
 20 21  2  0
 21 22  1  0
 22 23  2  0
 22 24  1  0
 21 25  1  0
 25 26  2  0
  9  4  1  0
 16 11  1  0
 26 18  1  0
  3 27  1  0
  5 28  1  0
  6 29  1  0
  7 30  1  0
 12 31  1  0
 13 32  1  0
 14 33  1  0
 15 34  1  0
 19 35  1  0
 20 36  1  0
 25 37  1  0
 26 38  1  0
M  CHG  3  17  -1  22   1  24  -1
M  END
>  <UniqueID>  (28) 
26

>  <SMILES>  (28) 
O=C(Nc1cccnc1Oc1ccccc1[O-])c1ccc([N+](=O)[O-])cc1

>  <Energy>  (28) 
55.90716586208913

>  <Genealogy>  (28) 
O=C(Nc1cccnc1Oc1ccccc1[O-])c1ccc([N+](=O)[O-])cc1 (protonated)
O=C(Nc1cccnc1Oc1ccccc1[O-])c1ccc([N+](=O)[O-])cc1 (3D coordinates assigned)
O=C(Nc1cccnc1Oc1ccccc1[O-])c1ccc([N+](=O)[O-])cc1 (optimized conformer: 55.90716586208913 kcal/mol)

>  <smiles>  (28) 
O=C(Nc1cccnc1Oc1ccccc1O)c1ccc([N+](=O)[O-])cc1

>  <score_type>  (28) 
oracle

>  <origin>  (28) 
adg

>  <m_score__min__energy>  (28) 
-11.66

>  <m_primary>  (28) 
energy

$$$$
28:0
     RDKit          3D

 48 51  0  0  0  0  0  0  0  0999 V2000
   54.4050   26.6630   46.7440 H   0  0  0  0  0  0  0  0  0  0  0  0
   55.1190   26.4690   46.0530 O   0  0  0  0  0  0  0  0  0  0  0  0
   56.0280   25.4260   46.2160 C   0  0  0  0  0  0  0  0  0  0  0  0
   55.8600   24.4370   47.1100 N   0  0  0  0  0  0  0  0  0  0  0  0
   56.9600   23.6800   46.9280 C   0  0  0  0  0  0  0  0  0  0  0  0
   57.1810   22.6350   47.5930 O   0  0  0  0  0  0  0  0  0  0  0  0
   57.8060   24.1290   45.9770 N   0  0  0  0  0  0  0  0  0  0  0  0
   57.2120   25.2510   45.5320 C   0  0  0  0  0  0  0  0  0  0  0  0
   57.7080   26.0800   44.4120 C   0  0  0  0  0  0  0  0  0  0  0  0
   58.0076   25.5668   43.4863 H   0  0  0  0  0  0  0  0  0  0  0  0
   57.8170   27.4230   44.4510 C   0  0  0  0  0  0  0  0  0  0  0  0
   57.4830   28.3110   43.4350 C   0  0  0  0  0  0  0  0  0  0  0  0
   57.0542   28.0567   42.4545 H   0  0  0  0  0  0  0  0  0  0  0  0
   57.7940   29.5730   43.8960 C   0  0  0  0  0  0  0  0  0  0  0  0
   57.5980   30.8360   43.1140 C   0  0  0  0  0  0  0  0  0  0  0  0
   57.4670   31.6799   43.8073 H   0  0  0  0  0  0  0  0  0  0  0  0
   58.4791   31.0154   42.4803 H   0  0  0  0  0  0  0  0  0  0  0  0
   56.7040   30.7399   42.4803 H   0  0  0  0  0  0  0  0  0  0  0  0
   58.2870   29.5110   45.1530 N   0  0  0  0  0  0  0  0  0  0  0  0
   58.6830   30.6350   45.9560 C   0  0  0  0  0  0  0  0  0  0  0  0
   59.8710   30.5860   46.6980 C   0  0  0  0  0  0  0  0  0  0  0  0
   60.4920   29.6783   46.6759 H   0  0  0  0  0  0  0  0  0  0  0  0
   60.2730   31.6860   47.4680 C   0  0  0  0  0  0  0  0  0  0  0  0
   61.4920   31.6040   48.2210 N   0  0  0  0  0  0  0  0  0  0  0  0
   62.7460   32.0130   47.5870 C   0  0  0  0  0  0  0  0  0  0  0  0
   63.1257   31.1911   46.9622 H   0  0  0  0  0  0  0  0  0  0  0  0
   62.5670   32.8990   46.9601 H   0  0  0  0  0  0  0  0  0  0  0  0
   63.7770   32.3520   48.6640 C   0  0  0  0  0  0  0  0  0  0  0  0
   64.7487   32.5486   48.1874 H   0  0  0  0  0  0  0  0  0  0  0  0
   63.4408   33.2432   49.2143 H   0  0  0  0  0  0  0  0  0  0  0  0
   63.9110   31.2730   49.5710 O   0  0  0  0  0  0  0  0  0  0  0  0
   62.7090   31.1170   50.3050 C   0  0  0  0  0  0  0  0  0  0  0  0
   62.8511   30.3316   51.0619 H   0  0  0  0  0  0  0  0  0  0  0  0
   62.4667   32.0784   50.7814 H   0  0  0  0  0  0  0  0  0  0  0  0
   61.5410   30.7230   49.3890 C   0  0  0  0  0  0  0  0  0  0  0  0
   61.6768   29.6840   49.0544 H   0  0  0  0  0  0  0  0  0  0  0  0
   60.5991   30.8184   49.9490 H   0  0  0  0  0  0  0  0  0  0  0  0
   59.4800   32.8530   47.4870 C   0  0  0  0  0  0  0  0  0  0  0  0
   59.8730   34.0090   48.2530 C   0  0  0  0  0  0  0  0  0  0  0  0
   60.1890   34.9380   48.8660 N   0  0  0  0  0  0  0  0  0  0  0  0
   58.2920   32.8980   46.7480 C   0  0  0  0  0  0  0  0  0  0  0  0
   57.6706   33.8055   46.7648 H   0  0  0  0  0  0  0  0  0  0  0  0
   57.8920   31.7950   45.9890 C   0  0  0  0  0  0  0  0  0  0  0  0
   56.7270   31.8470   45.2980 F   0  0  0  0  0  0  0  0  0  0  0  0
   58.3180   28.2000   45.5020 C   0  0  0  0  0  0  0  0  0  0  0  0
   58.7320   27.7560   46.6990 C   0  0  0  0  0  0  0  0  0  0  0  0
   59.1081   28.4670   47.4493 H   0  0  0  0  0  0  0  0  0  0  0  0
   58.6952   26.6811   46.9297 H   0  0  0  0  0  0  0  0  0  0  0  0
  1  2  1  0
  2  3  1  0
  3  4  1  0
  4  5  1  0
  5  6  2  0
  5  7  1  0
  7  8  1  0
  8  9  1  0
  9 10  1  0
  9 11  2  0
 11 12  1  0
 12 13  1  0
 12 14  2  0
 14 15  1  0
 15 16  1  0
 15 17  1  0
 15 18  1  0
 14 19  1  0
 19 20  1  0
 20 21  2  0
 21 22  1  0
 21 23  1  0
 23 24  1  0
 24 25  1  0
 25 26  1  0
 25 27  1  0
 25 28  1  0
 28 29  1  0
 28 30  1  0
 28 31  1  0
 31 32  1  0
 32 33  1  0
 32 34  1  0
 32 35  1  0
 35 36  1  0
 35 37  1  0
 23 38  2  0
 38 39  1  0
 39 40  3  0
 38 41  1  0
 41 42  1  0
 41 43  2  0
 43 44  1  0
 19 45  1  0
 45 46  2  0
 46 47  1  0
 46 48  1  0
  8  3  2  0
 45 11  1  0
 43 20  1  0
 35 24  1  0
M  CHG  2   4  -1   7  -1
M  END
>  <UniqueID>  (29) 
27

>  <SMILES>  (29) 
C=c1/c(=C/c2[n-]c(=O)[n-]c2O)cc(C)n1-c1cc(N2CCOCC2)c(C#N)cc1F

>  <Energy>  (29) 
126.3587908267858

>  <Genealogy>  (29) 
C=c1c(=Cc2[n-]c(=O)[n-]c2O)cc(C)n1-c1cc(N2CCOCC2)c(C#N)cc1F (protonated)
C=c1/c(=C/c2[n-]c(=O)[n-]c2O)cc(C)n1-c1cc(N2CCOCC2)c(C#N)cc1F (cis-trans isomerization)
C=c1/c(=C/c2[n-]c(=O)[n-]c2O)cc(C)n1-c1cc(N2CCOCC2)c(C#N)cc1F (3D coordinates assigned)
C=c1/c(=C/c2[n-]c(=O)[n-]c2O)cc(C)n1-c1cc(N2CCOCC2)c(C#N)cc1F (nonaromatic ring conformer: 126.3587908267858 kcal/mol)

>  <smiles>  (29) 
C=c1c(=Cc2[nH]c(=O)[nH]c2O)cc(C)n1-c1cc(N2CCOCC2)c(C#N)cc1F

>  <score_type>  (29) 
oracle

>  <origin>  (29) 
adg

>  <m_score__min__energy>  (29) 
-12.94

>  <m_primary>  (29) 
energy

$$$$
29:0
     RDKit          3D

 41 43  0  0  0  0  0  0  0  0999 V2000
   58.2710   25.2420   47.1280 C   0  0  0  0  0  0  0  0  0  0  0  0
   57.1350   25.7290   46.6230 C   0  0  0  0  0  0  0  0  0  0  0  0
   56.0290   24.9770   46.4610 N   0  0  0  0  0  0  0  0  0  0  0  0
   55.1390   25.8400   45.9290 C   0  0  0  0  0  0  0  0  0  0  0  0
   53.9620   25.5040   45.6330 O   0  0  0  0  0  0  0  0  0  0  0  0
   55.6080   27.0910   45.7450 N   0  0  0  0  0  0  0  0  0  0  0  0
   56.8810   27.0230   46.1810 C   0  0  0  0  0  0  0  0  0  0  0  0
   57.7220   28.0700   46.2010 C   0  0  0  0  0  0  0  0  0  0  0  0
   57.6370   29.1850   45.2410 C   0  0  0  0  0  0  0  0  0  0  0  0
   56.6630   29.1410   43.8700 S   0  0  0  0  0  0  0  0  0  0  0  0
   57.0930   30.6890   43.3940 C   0  0  0  0  0  0  0  0  0  0  0  0
   56.6550   31.2510   42.3550 O   0  0  0  0  0  0  0  0  0  0  0  0
   57.9610   31.2690   44.2590 N   0  0  0  0  0  0  0  0  0  0  0  0
   58.4680   32.6400   44.0950 C   0  0  0  0  0  0  0  0  0  0  0  0
   57.8440   33.5660   45.0920 C   0  0  0  0  0  0  0  0  0  0  0  0
   56.6400   33.3990   45.4160 O   0  0  0  0  0  0  0  0  0  0  0  0
   58.6410   34.5640   45.7430 N   0  0  0  0  0  0  0  0  0  0  0  0
   59.6700   34.3300   46.7170 C   0  0  0  0  0  0  0  0  0  0  0  0
   59.3350   34.3970   48.0750 C   0  0  0  0  0  0  0  0  0  0  0  0
   60.3020   34.1540   49.0530 C   0  0  0  0  0  0  0  0  0  0  0  0
   61.6110   33.8310   48.6830 C   0  0  0  0  0  0  0  0  0  0  0  0
   61.9600   33.7430   47.3270 C   0  0  0  0  0  0  0  0  0  0  0  0
   63.3500   33.3470   46.9190 C   0  0  0  0  0  0  0  0  0  0  0  0
   60.9820   33.9760   46.3460 C   0  0  0  0  0  0  0  0  0  0  0  0
   58.2470   30.4490   45.3190 C   0  0  0  0  0  0  0  0  0  0  0  0
   59.1080   30.8870   46.4730 C   0  0  0  0  0  0  0  0  0  0  0  0
   59.1479   25.8965   47.2408 H   0  0  0  0  0  0  0  0  0  0  0  0
   58.3300   24.1863   47.4313 H   0  0  0  0  0  0  0  0  0  0  0  0
   58.5096   28.0965   46.9684 H   0  0  0  0  0  0  0  0  0  0  0  0
   59.5587   32.6396   44.2380 H   0  0  0  0  0  0  0  0  0  0  0  0
   58.2118   32.9896   43.0840 H   0  0  0  0  0  0  0  0  0  0  0  0
   58.3049   34.6423   48.3730 H   0  0  0  0  0  0  0  0  0  0  0  0
   60.0329   34.2169   50.1177 H   0  0  0  0  0  0  0  0  0  0  0  0
   62.3697   33.6453   49.4575 H   0  0  0  0  0  0  0  0  0  0  0  0
   63.9603   33.1731   47.8175 H   0  0  0  0  0  0  0  0  0  0  0  0
   63.3078   32.4251   46.3203 H   0  0  0  0  0  0  0  0  0  0  0  0
   63.8000   34.1527   46.3203 H   0  0  0  0  0  0  0  0  0  0  0  0
   61.2423   33.8814   45.2814 H   0  0  0  0  0  0  0  0  0  0  0  0
   58.6090   30.6331   47.4198 H   0  0  0  0  0  0  0  0  0  0  0  0
   60.0794   30.3735   46.4213 H   0  0  0  0  0  0  0  0  0  0  0  0
   59.2649   31.9745   46.4213 H   0  0  0  0  0  0  0  0  0  0  0  0
  1  2  2  0
  2  3  1  0
  3  4  1  0
  4  5  2  0
  4  6  1  0
  6  7  1  0
  7  8  2  3
  8  9  1  0
  9 10  1  0
 10 11  1  0
 11 12  2  0
 11 13  1  0
 13 14  1  0
 14 15  1  0
 15 16  2  0
 15 17  1  0
 17 18  1  0
 18 19  2  0
 19 20  1  0
 20 21  2  0
 21 22  1  0
 22 23  1  0
 22 24  2  0
 13 25  1  0
 25 26  1  0
  7  2  1  0
 25  9  2  0
 24 18  1  0
  1 27  1  0
  1 28  1  0
  8 29  1  0
 14 30  1  0
 14 31  1  0
 19 32  1  0
 20 33  1  0
 21 34  1  0
 23 35  1  0
 23 36  1  0
 23 37  1  0
 24 38  1  0
 26 39  1  0
 26 40  1  0
 26 41  1  0
M  CHG  3   3  -1   6  -1  17  -1
M  END
>  <UniqueID>  (30) 
28

>  <SMILES>  (30) 
C=c1[n-]c(=O)[n-]c1=Cc1sc(=O)n(CC(=O)[N-]c2cccc(C)c2)c1C

>  <Energy>  (30) 
111.27656872326905

>  <Genealogy>  (30) 
C=c1[n-]c(=O)[n-]c1=Cc1sc(=O)n(CC(=O)[N-]c2cccc(C)c2)c1C (protonated)
C=c1[n-]c(=O)[n-]c1=Cc1sc(=O)n(CC(=O)[N-]c2cccc(C)c2)c1C (3D coordinates assigned)
C=c1[n-]c(=O)[n-]c1=Cc1sc(=O)n(CC(=O)[N-]c2cccc(C)c2)c1C (optimized conformer: 111.27656872326905 kcal/mol)

>  <smiles>  (30) 
C=c1[nH]c(=O)[nH]c1=Cc1sc(=O)n(CC(=O)Nc2cccc(C)c2)c1C

>  <score_type>  (30) 
oracle

>  <origin>  (30) 
adg

>  <m_score__min__energy>  (30) 
-13.92

>  <m_primary>  (30) 
energy

$$$$
30:0
     RDKit          3D

 52 55  0  0  0  0  0  0  0  0999 V2000
   59.6250   29.6880   44.7420 C   0  0  0  0  0  0  0  0  0  0  0  0
   59.3560   29.4900   46.0420 C   0  0  0  0  0  0  0  0  0  0  0  0
   58.7770   28.3450   46.6000 C   0  0  0  0  0  0  0  0  0  0  0  0
   58.4340   27.2090   45.9620 C   0  0  0  0  0  0  0  0  0  0  0  0
   57.1200   26.5540   46.0980 C   0  0  0  0  0  0  0  0  0  0  0  0
   56.9720   25.2660   46.4570 N   0  0  0  0  0  0  0  0  0  0  0  0
   55.6390   25.0680   46.3730 C   0  0  0  0  0  0  0  0  0  0  0  0
   55.0990   23.9660   46.6500 O   0  0  0  0  0  0  0  0  0  0  0  0
   54.9320   26.1400   45.9580 N   0  0  0  0  0  0  0  0  0  0  0  0
   55.8840   27.0690   45.7760 C   0  0  0  0  0  0  0  0  0  0  0  0
   55.6290   28.3410   45.2800 O   0  0  0  0  0  0  0  0  0  0  0  0
   58.6730   28.5860   47.9610 C   0  0  0  0  0  0  0  0  0  0  0  0
   59.1590   29.8590   48.1770 C   0  0  0  0  0  0  0  0  0  0  0  0
   59.2500   30.4920   49.5110 C   0  0  0  0  0  0  0  0  0  0  0  0
   58.1690   30.7270   50.1170 O   0  0  0  0  0  0  0  0  0  0  0  0
   60.5080   30.8710   50.1380 N   0  0  0  0  0  0  0  0  0  0  0  0
   60.5560   32.2780   50.6220 C   0  0  0  0  0  0  0  0  0  0  0  0
   60.9550   33.2700   49.5190 C   0  0  0  0  0  0  0  0  0  0  0  0
   62.1860   32.8400   48.8550 N   0  0  0  0  0  0  0  0  0  0  0  0
   62.8310   33.7430   47.9430 C   0  0  0  0  0  0  0  0  0  0  0  0
   63.9340   33.4490   47.4090 O   0  0  0  0  0  0  0  0  0  0  0  0
   62.7720   31.5400   49.1940 C   0  0  0  0  0  0  0  0  0  0  0  0
   61.6590   30.4840   49.2660 C   0  0  0  0  0  0  0  0  0  0  0  0
   59.5960   30.4050   47.0180 N   0  0  0  0  0  0  0  0  0  0  0  0
   60.2170   31.7290   46.8590 C   0  0  0  0  0  0  0  0  0  0  0  0
   59.2630   32.7010   46.2090 C   0  0  0  0  0  0  0  0  0  0  0  0
   59.7450   33.8890   45.6320 C   0  0  0  0  0  0  0  0  0  0  0  0
   58.8620   34.7810   45.0150 C   0  0  0  0  0  0  0  0  0  0  0  0
   57.4970   34.4910   44.9580 C   0  0  0  0  0  0  0  0  0  0  0  0
   57.0110   33.3070   45.5170 C   0  0  0  0  0  0  0  0  0  0  0  0
   57.8890   32.4120   46.1360 C   0  0  0  0  0  0  0  0  0  0  0  0
   60.0840   30.6319   44.4129 H   0  0  0  0  0  0  0  0  0  0  0  0
   59.3865   28.9063   44.0057 H   0  0  0  0  0  0  0  0  0  0  0  0
   59.1785   26.7424   45.3003 H   0  0  0  0  0  0  0  0  0  0  0  0
   58.2792   27.8958   48.7217 H   0  0  0  0  0  0  0  0  0  0  0  0
   60.5710   30.2810   51.0030 H   0  0  0  0  0  0  0  0  0  0  0  0
   59.5609   32.5542   51.0008 H   0  0  0  0  0  0  0  0  0  0  0  0
   61.3206   32.3325   51.4110 H   0  0  0  0  0  0  0  0  0  0  0  0
   60.1458   33.3282   48.7762 H   0  0  0  0  0  0  0  0  0  0  0  0
   61.1263   34.2558   49.9760 H   0  0  0  0  0  0  0  0  0  0  0  0
   62.3548   34.7061   47.7070 H   0  0  0  0  0  0  0  0  0  0  0  0
   63.5011   31.2532   48.4219 H   0  0  0  0  0  0  0  0  0  0  0  0
   63.2792   31.6074   50.1678 H   0  0  0  0  0  0  0  0  0  0  0  0
   61.2791   30.3121   48.2481 H   0  0  0  0  0  0  0  0  0  0  0  0
   62.1050   29.5819   49.7101 H   0  0  0  0  0  0  0  0  0  0  0  0
   60.5024   32.1134   47.8493 H   0  0  0  0  0  0  0  0  0  0  0  0
   61.1028   31.6248   46.2152 H   0  0  0  0  0  0  0  0  0  0  0  0
   60.8204   34.1177   45.6659 H   0  0  0  0  0  0  0  0  0  0  0  0
   59.2436   35.7134   44.5735 H   0  0  0  0  0  0  0  0  0  0  0  0
   56.8048   35.1950   44.4729 H   0  0  0  0  0  0  0  0  0  0  0  0
   55.9361   33.0783   45.4702 H   0  0  0  0  0  0  0  0  0  0  0  0
   57.5028   31.4770   46.5681 H   0  0  0  0  0  0  0  0  0  0  0  0
  1  2  2  0
  2  3  1  0
  3  4  2  3
  4  5  1  0
  5  6  1  0
  6  7  1  0
  7  8  2  0
  7  9  1  0
  9 10  1  0
 10 11  1  0
  3 12  1  0
 12 13  2  0
 13 14  1  0
 14 15  2  0
 14 16  1  0
 16 17  1  0
 17 18  1  0
 18 19  1  0
 19 20  1  0
 20 21  2  0
 19 22  1  0
 22 23  1  0
 13 24  1  0
 24 25  1  0
 25 26  1  0
 26 27  2  0
 27 28  1  0
 28 29  2  0
 29 30  1  0
 30 31  2  0
 24  2  1  0
 31 26  1  0
 10  5  2  0
 23 16  1  0
  1 32  1  0
  1 33  1  0
  4 34  1  0
 12 35  1  0
 16 36  1  0
 17 37  1  0
 17 38  1  0
 18 39  1  0
 18 40  1  0
 20 41  1  0
 22 42  1  0
 22 43  1  0
 23 44  1  0
 23 45  1  0
 25 46  1  0
 25 47  1  0
 27 48  1  0
 28 49  1  0
 29 50  1  0
 30 51  1  0
 31 52  1  0
M  CHG  4   6  -1   9  -1  11  -1  16   1
M  END
>  <UniqueID>  (31) 
29

>  <SMILES>  (31) 
C=c1c(=Cc2[n-]c(=O)[n-]c2[O-])cc(C(=O)[NH+]2CCN(C=O)CC2)n1Cc1ccccc1

>  <Energy>  (31) 
138.19686676223824

>  <Genealogy>  (31) 
C=c1c(=Cc2[n-]c(=O)[n-]c2[O-])cc(C(=O)[NH+]2CCN(C=O)CC2)n1Cc1ccccc1 (protonated)
C=c1c(=Cc2[n-]c(=O)[n-]c2[O-])cc(C(=O)[NH+]2CCN(C=O)CC2)n1Cc1ccccc1 (3D coordinates assigned)
C=c1c(=Cc2[n-]c(=O)[n-]c2[O-])cc(C(=O)[NH+]2CCN(C=O)CC2)n1Cc1ccccc1 (nonaromatic ring conformer: 138.19686676223824 kcal/mol)

>  <smiles>  (31) 
C=c1c(=Cc2[nH]c(=O)[nH]c2O)cc(C(=O)N2CCN(C=O)CC2)n1Cc1ccccc1

>  <score_type>  (31) 
oracle

>  <origin>  (31) 
adg

>  <m_score__min__energy>  (31) 
-15.44

>  <m_primary>  (31) 
energy

$$$$
31:0
     RDKit          3D

 59 63  0  0  0  0  0  0  0  0999 V2000
   54.5109   28.8619   55.5043 H   0  0  0  0  0  0  0  0  0  0  0  0
   53.8880   29.1510   54.6450 C   0  0  0  0  0  0  0  0  0  0  0  0
   52.8943   28.6993   54.5093 H   0  0  0  0  0  0  0  0  0  0  0  0
   54.3410   30.0560   53.7610 C   0  0  0  0  0  0  0  0  0  0  0  0
   53.6680   30.5240   52.6220 C   0  0  0  0  0  0  0  0  0  0  0  0
   52.3850   30.3930   52.2330 C   0  0  0  0  0  0  0  0  0  0  0  0
   51.6923   29.9165   52.9423 H   0  0  0  0  0  0  0  0  0  0  0  0
   51.8280   30.8310   50.9430 C   0  0  0  0  0  0  0  0  0  0  0  0
   51.7290   30.0570   49.8460 N   0  0  0  0  0  0  0  0  0  0  0  0
   51.0440   30.8330   48.9780 C   0  0  0  0  0  0  0  0  0  0  0  0
   50.7620   30.4580   47.8100 O   0  0  0  0  0  0  0  0  0  0  0  0
   50.6760   32.0390   49.4630 N   0  0  0  0  0  0  0  0  0  0  0  0
   51.1680   32.0130   50.7120 C   0  0  0  0  0  0  0  0  0  0  0  0
   51.0120   33.0490   51.6250 O   0  0  0  0  0  0  0  0  0  0  0  0
   54.5970   31.2400   51.8920 C   0  0  0  0  0  0  0  0  0  0  0  0
   54.4348   31.7124   50.9119 H   0  0  0  0  0  0  0  0  0  0  0  0
   55.7670   31.2510   52.6240 C   0  0  0  0  0  0  0  0  0  0  0  0
   56.9890   31.9760   52.2060 C   0  0  0  0  0  0  0  0  0  0  0  0
   57.3470   33.0020   52.8450 O   0  0  0  0  0  0  0  0  0  0  0  0
   57.7400   31.5640   51.0490 N   0  0  0  0  0  0  0  0  0  0  0  0
   58.5160   32.5630   50.3000 C   0  0  0  0  0  0  0  0  0  0  0  0
   57.9285   33.4895   50.2195 H   0  0  0  0  0  0  0  0  0  0  0  0
   59.4578   32.7516   50.8361 H   0  0  0  0  0  0  0  0  0  0  0  0
   58.8460   32.0540   48.8930 C   0  0  0  0  0  0  0  0  0  0  0  0
   57.9072   31.9206   48.3355 H   0  0  0  0  0  0  0  0  0  0  0  0
   59.4971   32.7972   48.4096 H   0  0  0  0  0  0  0  0  0  0  0  0
   59.6020   30.7100   48.9210 C   0  0  0  0  0  0  0  0  0  0  0  0
   60.6711   30.9193   49.0734 H   0  0  0  0  0  0  0  0  0  0  0  0
   59.3860   30.0460   47.6710 O   0  0  0  0  0  0  0  0  0  0  0  0
   59.2280   28.6610   47.4960 C   0  0  0  0  0  0  0  0  0  0  0  0
   58.0380   28.1990   47.0260 N   0  0  0  0  0  0  0  0  0  0  0  0
   57.8130   26.8730   46.8330 C   0  0  0  0  0  0  0  0  0  0  0  0
   56.8407   26.5251   46.4540 H   0  0  0  0  0  0  0  0  0  0  0  0
   58.8240   25.9570   47.1190 C   0  0  0  0  0  0  0  0  0  0  0  0
   58.6563   24.8804   46.9681 H   0  0  0  0  0  0  0  0  0  0  0  0
   60.0190   26.4060   47.5860 N   0  0  0  0  0  0  0  0  0  0  0  0
   60.2470   27.7320   47.7810 C   0  0  0  0  0  0  0  0  0  0  0  0
   61.2209   28.0768   48.1588 H   0  0  0  0  0  0  0  0  0  0  0  0
   59.1720   29.7990   50.1000 C   0  0  0  0  0  0  0  0  0  0  0  0
   59.1595   28.7556   49.7518 H   0  0  0  0  0  0  0  0  0  0  0  0
   59.8954   29.9479   50.9152 H   0  0  0  0  0  0  0  0  0  0  0  0
   57.7850   30.1500   50.6440 C   0  0  0  0  0  0  0  0  0  0  0  0
   57.0324   29.9721   49.8618 H   0  0  0  0  0  0  0  0  0  0  0  0
   57.5732   29.5192   51.5199 H   0  0  0  0  0  0  0  0  0  0  0  0
   55.6130   30.5420   53.7700 N   0  0  0  0  0  0  0  0  0  0  0  0
   56.6520   30.2650   54.7770 C   0  0  0  0  0  0  0  0  0  0  0  0
   56.9407   31.2072   55.2659 H   0  0  0  0  0  0  0  0  0  0  0  0
   56.2469   29.5584   55.5164 H   0  0  0  0  0  0  0  0  0  0  0  0
   57.8690   29.6480   54.1350 C   0  0  0  0  0  0  0  0  0  0  0  0
   57.8530   28.3050   53.7190 C   0  0  0  0  0  0  0  0  0  0  0  0
   56.9443   27.7005   53.8561 H   0  0  0  0  0  0  0  0  0  0  0  0
   58.9860   27.7340   53.1320 C   0  0  0  0  0  0  0  0  0  0  0  0
   58.9646   26.6844   52.8035 H   0  0  0  0  0  0  0  0  0  0  0  0
   60.1460   28.4950   52.9620 C   0  0  0  0  0  0  0  0  0  0  0  0
   61.0352   28.0450   52.4962 H   0  0  0  0  0  0  0  0  0  0  0  0
   60.1770   29.8260   53.3830 C   0  0  0  0  0  0  0  0  0  0  0  0
   61.0916   30.4229   53.2514 H   0  0  0  0  0  0  0  0  0  0  0  0
   59.0460   30.4010   53.9720 C   0  0  0  0  0  0  0  0  0  0  0  0
   59.0771   31.4475   54.3095 H   0  0  0  0  0  0  0  0  0  0  0  0
  1  2  1  0
  2  3  1  0
  2  4  2  0
  4  5  1  0
  5  6  2  0
  6  7  1  0
  6  8  1  0
  8  9  1  0
  9 10  1  0
 10 11  2  0
 10 12  1  0
 12 13  1  0
 13 14  1  0
  5 15  1  0
 15 16  1  0
 15 17  2  0
 17 18  1  0
 18 19  2  0
 18 20  1  0
 20 21  1  0
 21 22  1  0
 21 23  1  0
 21 24  1  0
 24 25  1  0
 24 26  1  0
 24 27  1  0
 27 28  1  0
 27 29  1  0
 29 30  1  0
 30 31  2  0
 31 32  1  0
 32 33  1  0
 32 34  2  0
 34 35  1  0
 34 36  1  0
 36 37  2  0
 37 38  1  0
 27 39  1  0
 39 40  1  0
 39 41  1  0
 39 42  1  0
 42 43  1  0
 42 44  1  0
 17 45  1  0
 45 46  1  0
 46 47  1  0
 46 48  1  0
 46 49  1  0
 49 50  2  0
 50 51  1  0
 50 52  1  0
 52 53  1  0
 52 54  2  0
 54 55  1  0
 54 56  1  0
 56 57  1  0
 56 58  2  0
 58 59  1  0
 45  4  1  0
 58 49  1  0
 13  8  2  0
 42 20  1  0
 37 30  1  0
M  CHG  3   9  -1  12  -1  14  -1
M  END
>  <UniqueID>  (32) 
30

>  <SMILES>  (32) 
C=c1/c(=C\c2[n-]c(=O)[n-]c2[O-])cc(C(=O)N2CCC(Oc3cnccn3)CC2)n1Cc1ccccc1

>  <Energy>  (32) 
142.7632554666082

>  <Genealogy>  (32) 
C=c1c(=Cc2[n-]c(=O)[n-]c2[O-])cc(C(=O)N2CCC(Oc3cnccn3)CC2)n1Cc1ccccc1 (protonated)
C=c1/c(=C\c2[n-]c(=O)[n-]c2[O-])cc(C(=O)N2CCC(Oc3cnccn3)CC2)n1Cc1ccccc1 (cis-trans isomerization)
C=c1/c(=C\c2[n-]c(=O)[n-]c2[O-])cc(C(=O)N2CCC(Oc3cnccn3)CC2)n1Cc1ccccc1 (3D coordinates assigned)
C=c1/c(=C\c2[n-]c(=O)[n-]c2[O-])cc(C(=O)N2CCC(Oc3cnccn3)CC2)n1Cc1ccccc1 (nonaromatic ring conformer: 142.7632554666082 kcal/mol)

>  <smiles>  (32) 
C=c1c(=Cc2[nH]c(=O)[nH]c2O)cc(C(=O)N2CCC(Oc3cnccn3)CC2)n1Cc1ccccc1

>  <score_type>  (32) 
oracle

>  <origin>  (32) 
adg

>  <m_score__min__energy>  (32) 
-17.07

>  <m_primary>  (32) 
energy

$$$$
32:0
     RDKit          3D

 44 47  0  0  0  0  0  0  0  0999 V2000
   55.8312   29.0125   44.9927 H   0  0  0  0  0  0  0  0  0  0  0  0
   56.7560   29.6050   44.9330 C   0  0  0  0  0  0  0  0  0  0  0  0
   57.3820   25.7590   46.0880 C   0  0  0  0  0  0  0  0  0  0  0  0
   57.8950   24.6870   46.6390 O   0  0  0  0  0  0  0  0  0  0  0  0
   56.9020   24.0670   47.2400 C   0  0  0  0  0  0  0  0  0  0  0  0
   57.0470   22.9930   47.8800 O   0  0  0  0  0  0  0  0  0  0  0  0
   55.7100   24.6870   47.1080 N   0  0  0  0  0  0  0  0  0  0  0  0
   56.0360   25.7620   46.3640 C   0  0  0  0  0  0  0  0  0  0  0  0
   55.1200   26.7210   45.9500 O   0  0  0  0  0  0  0  0  0  0  0  0
   57.8040   29.1990   45.6740 C   0  0  0  0  0  0  0  0  0  0  0  0
   59.6370   28.2260   46.4000 C   0  0  0  0  0  0  0  0  0  0  0  0
   60.5690   27.4050   46.6180 O   0  0  0  0  0  0  0  0  0  0  0  0
   59.6140   29.4910   46.8650 N   0  0  0  0  0  0  0  0  0  0  0  0
   60.6150   30.1490   47.6650 C   0  0  0  0  0  0  0  0  0  0  0  0
   60.7280   29.8560   49.0340 C   0  0  0  0  0  0  0  0  0  0  0  0
   60.0462   29.1257   49.4942 H   0  0  0  0  0  0  0  0  0  0  0  0
   61.7010   30.4860   49.8160 C   0  0  0  0  0  0  0  0  0  0  0  0
   61.7758   30.2509   50.8880 H   0  0  0  0  0  0  0  0  0  0  0  0
   62.5830   31.4160   49.2440 C   0  0  0  0  0  0  0  0  0  0  0  0
   63.6120   32.0810   50.0750 C   0  0  0  0  0  0  0  0  0  0  0  0
   64.8270   32.0350   49.7480 O   0  0  0  0  0  0  0  0  0  0  0  0
   63.2490   32.7650   51.2300 O   0  0  0  0  0  0  0  0  0  0  0  0
   62.4740   31.7040   47.8720 C   0  0  0  0  0  0  0  0  0  0  0  0
   63.1597   32.4297   47.4102 H   0  0  0  0  0  0  0  0  0  0  0  0
   61.5010   31.0750   47.0910 C   0  0  0  0  0  0  0  0  0  0  0  0
   61.4285   31.3070   46.0182 H   0  0  0  0  0  0  0  0  0  0  0  0
   58.4990   30.0680   46.4420 N   0  0  0  0  0  0  0  0  0  0  0  0
   58.2430   31.0660   46.6240 H   0  0  0  0  0  0  0  0  0  0  0  0
   58.4820   27.9640   45.6810 C   0  0  0  0  0  0  0  0  0  0  0  0
   58.1130   26.7360   45.2640 C   0  0  0  0  0  0  0  0  0  0  0  0
   58.3764   26.4438   44.2368 H   0  0  0  0  0  0  0  0  0  0  0  0
   56.7540   30.7870   44.0450 C   0  0  0  0  0  0  0  0  0  0  0  0
   56.2510   30.6850   42.8920 O   0  0  0  0  0  0  0  0  0  0  0  0
   57.3870   32.0680   44.4570 C   0  0  0  0  0  0  0  0  0  0  0  0
   56.9790   32.7060   45.6450 C   0  0  0  0  0  0  0  0  0  0  0  0
   56.1777   32.2630   46.2547 H   0  0  0  0  0  0  0  0  0  0  0  0
   57.5840   33.8970   46.0550 C   0  0  0  0  0  0  0  0  0  0  0  0
   57.2548   34.3884   46.9824 H   0  0  0  0  0  0  0  0  0  0  0  0
   58.6050   34.4650   45.2910 C   0  0  0  0  0  0  0  0  0  0  0  0
   59.0781   35.4037   45.6150 H   0  0  0  0  0  0  0  0  0  0  0  0
   59.0250   33.8400   44.1150 C   0  0  0  0  0  0  0  0  0  0  0  0
   59.8315   34.2862   43.5146 H   0  0  0  0  0  0  0  0  0  0  0  0
   58.4240   32.6500   43.6990 C   0  0  0  0  0  0  0  0  0  0  0  0
   58.7622   32.1628   42.7726 H   0  0  0  0  0  0  0  0  0  0  0  0
  1  2  1  0
  2  3  1  0
  3  4  1  0
  4  5  1  0
  5  6  2  0
  5  7  1  0
  7  8  1  0
  8  9  1  0
  2 10  2  0
 10 11  1  0
 11 12  2  0
 11 13  1  0
 13 14  1  0
 14 15  2  0
 15 16  1  0
 15 17  1  0
 17 18  1  0
 17 19  2  0
 19 20  1  0
 20 21  2  0
 20 22  1  0
 19 23  1  0
 23 24  1  0
 23 25  2  0
 25 26  1  0
 13 27  1  0
 27 28  1  0
 27 29  1  0
 29 30  2  0
 30 31  1  0
 30 32  1  0
 32 33  2  0
 32 34  1  0
 34 35  2  0
 35 36  1  0
 35 37  1  0
 37 38  1  0
 37 39  2  0
 39 40  1  0
 39 41  1  0
 41 42  1  0
 41 43  2  0
 43 44  1  0
  8  3  2  0
 29 10  1  0
 43 34  1  0
 25 14  1  0
M  CHG  3   7  -1   9  -1  22  -1
M  END
>  <UniqueID>  (33) 
31

>  <SMILES>  (33) 
O=C([O-])c1ccc(-n2[nH]c(=C/C(=O)c3ccccc3)/c(=C\c3oc(=O)[n-]c3[O-])c2=O)cc1

>  <Energy>  (33) 
140.77143173526

>  <Genealogy>  (33) 
O=C([O-])c1ccc(-n2[nH]c(=CC(=O)c3ccccc3)c(=Cc3oc(=O)[n-]c3[O-])c2=O)cc1 (protonated)
O=C([O-])c1ccc(-n2[nH]c(=C/C(=O)c3ccccc3)/c(=C\c3oc(=O)[n-]c3[O-])c2=O)cc1 (cis-trans isomerization)
O=C([O-])c1ccc(-n2[nH]c(=C/C(=O)c3ccccc3)/c(=C\c3oc(=O)[n-]c3[O-])c2=O)cc1 (3D coordinates assigned)
O=C([O-])c1ccc(-n2[nH]c(=C/C(=O)c3ccccc3)/c(=C\c3oc(=O)[n-]c3[O-])c2=O)cc1 (optimized conformer: 140.77143173526 kcal/mol)

>  <smiles>  (33) 
O=C(O)c1ccc(-n2[nH]c(=CC(=O)c3ccccc3)c(=Cc3oc(=O)[nH]c3O)c2=O)cc1

>  <score_type>  (33) 
oracle

>  <origin>  (33) 
adg

>  <m_score__min__energy>  (33) 
-15.119999999999999

>  <m_primary>  (33) 
energy

$$$$
33:0
     RDKit          3D

 24 25  0  0  0  0  0  0  0  0999 V2000
   58.0840   33.6132   45.0589 H   0  0  0  0  0  0  0  0  0  0  0  0
   57.7780   32.7140   44.5040 C   0  0  0  0  0  0  0  0  0  0  0  0
   57.3740   31.6050   45.1780 N   0  0  0  0  0  0  0  0  0  0  0  0
   56.9940   30.4660   44.5330 C   0  0  0  0  0  0  0  0  0  0  0  0
   56.5900   29.4130   45.1880 N   0  0  0  0  0  0  0  0  0  0  0  0
   57.3890   28.4310   45.8680 C   0  0  0  0  0  0  0  0  0  0  0  0
   57.7970   28.6980   47.0310 O   0  0  0  0  0  0  0  0  0  0  0  0
   57.7480   27.1050   45.2430 C   0  0  0  0  0  0  0  0  0  0  0  0
   57.3891   27.0935   44.2033 H   0  0  0  0  0  0  0  0  0  0  0  0
   58.8414   26.9929   45.2872 H   0  0  0  0  0  0  0  0  0  0  0  0
   57.1330   25.9520   45.9810 C   0  0  0  0  0  0  0  0  0  0  0  0
   55.8020   25.7720   46.2810 C   0  0  0  0  0  0  0  0  0  0  0  0
   54.7770   26.6660   45.9950 O   0  0  0  0  0  0  0  0  0  0  0  0
   55.6120   24.5870   46.8940 N   0  0  0  0  0  0  0  0  0  0  0  0
   56.8590   24.0710   46.9380 C   0  0  0  0  0  0  0  0  0  0  0  0
   57.1160   22.9460   47.4410 O   0  0  0  0  0  0  0  0  0  0  0  0
   57.8020   24.8630   46.3920 N   0  0  0  0  0  0  0  0  0  0  0  0
   58.8250   24.6690   46.2990 H   0  0  0  0  0  0  0  0  0  0  0  0
   57.0010   30.4350   43.1320 C   0  0  0  0  0  0  0  0  0  0  0  0
   56.6852   29.5277   42.5962 H   0  0  0  0  0  0  0  0  0  0  0  0
   57.4120   31.5650   42.4210 C   0  0  0  0  0  0  0  0  0  0  0  0
   57.4256   31.5492   41.3212 H   0  0  0  0  0  0  0  0  0  0  0  0
   57.8050   32.7130   43.1080 C   0  0  0  0  0  0  0  0  0  0  0  0
   58.1323   33.6069   42.5569 H   0  0  0  0  0  0  0  0  0  0  0  0
  1  2  1  0
  2  3  1  0
  3  4  1  0
  4  5  2  0
  5  6  1  0
  6  7  2  0
  6  8  1  0
  8  9  1  0
  8 10  1  0
  8 11  1  0
 11 12  2  0
 12 13  1  0
 12 14  1  0
 14 15  1  0
 15 16  2  0
 15 17  1  0
 17 18  1  0
  4 19  1  0
 19 20  1  0
 19 21  2  0
 21 22  1  0
 21 23  1  0
 23 24  1  0
 23  2  2  0
 17 11  1  0
M  CHG  3   3  -1  13  -1  14  -1
M  END
>  <UniqueID>  (34) 
32

>  <SMILES>  (34) 
O=C(Cc1[nH]c(=O)[n-]c1[O-])/N=c1/cccc[n-]1

>  <Energy>  (34) 
60.20240181499767

>  <Genealogy>  (34) 
O=C(Cc1[nH]c(=O)[n-]c1[O-])N=c1cccc[n-]1 (protonated)
O=C(Cc1[nH]c(=O)[n-]c1[O-])/N=c1/cccc[n-]1 (cis-trans isomerization)
O=C(Cc1[nH]c(=O)[n-]c1[O-])/N=c1/cccc[n-]1 (3D coordinates assigned)
O=C(Cc1[nH]c(=O)[n-]c1[O-])/N=c1/cccc[n-]1 (optimized conformer: 60.20240181499767 kcal/mol)

>  <smiles>  (34) 
O=C(Cc1[nH]c(=O)[nH]c1O)N=c1cccc[nH]1

>  <score_type>  (34) 
oracle

>  <origin>  (34) 
adg

>  <m_score__min__energy>  (34) 
-14.08

>  <m_primary>  (34) 
energy

$$$$
34:0
     RDKit          3D

 33 34  0  0  0  0  0  0  0  0999 V2000
   60.1287   35.5923   45.3027 H   0  0  0  0  0  0  0  0  0  0  0  0
   59.3050   34.9830   45.7030 C   0  0  0  0  0  0  0  0  0  0  0  0
   59.1251   34.9458   46.7876 H   0  0  0  0  0  0  0  0  0  0  0  0
   58.5240   34.2890   44.8730 C   0  0  0  0  0  0  0  0  0  0  0  0
   58.7184   34.3379   43.7914 H   0  0  0  0  0  0  0  0  0  0  0  0
   57.3860   33.4420   45.3720 C   0  0  0  0  0  0  0  0  0  0  0  0
   56.9989   33.8676   46.3096 H   0  0  0  0  0  0  0  0  0  0  0  0
   56.5894   33.4242   44.6137 H   0  0  0  0  0  0  0  0  0  0  0  0
   57.8510   32.0690   45.6160 N   0  0  0  0  0  0  0  0  0  0  0  0
   58.4490   31.6310   46.7480 C   0  0  0  0  0  0  0  0  0  0  0  0
   58.8040   32.4910   47.9220 C   0  0  0  0  0  0  0  0  0  0  0  0
   58.5808   31.9502   48.8535 H   0  0  0  0  0  0  0  0  0  0  0  0
   59.8762   32.7345   47.8873 H   0  0  0  0  0  0  0  0  0  0  0  0
   58.2158   33.4199   47.8873 H   0  0  0  0  0  0  0  0  0  0  0  0
   58.6970   30.2770   46.6690 C   0  0  0  0  0  0  0  0  0  0  0  0
   59.1707   29.6524   47.4407 H   0  0  0  0  0  0  0  0  0  0  0  0
   58.2370   29.8530   45.4350 C   0  0  0  0  0  0  0  0  0  0  0  0
   58.3680   28.5800   45.0090 C   0  0  0  0  0  0  0  0  0  0  0  0
   59.1104   28.3883   44.2203 H   0  0  0  0  0  0  0  0  0  0  0  0
   57.6020   27.4220   45.5090 C   0  0  0  0  0  0  0  0  0  0  0  0
   56.2080   27.4960   45.6310 C   0  0  0  0  0  0  0  0  0  0  0  0
   55.5270   28.6430   45.2330 O   0  0  0  0  0  0  0  0  0  0  0  0
   55.5110   26.4410   46.1310 N   0  0  0  0  0  0  0  0  0  0  0  0
   54.4700   26.5020   46.2060 H   0  0  0  0  0  0  0  0  0  0  0  0
   56.1510   25.3110   46.5360 C   0  0  0  0  0  0  0  0  0  0  0  0
   55.4920   24.3400   46.9930 O   0  0  0  0  0  0  0  0  0  0  0  0
   57.5030   25.2270   46.4530 N   0  0  0  0  0  0  0  0  0  0  0  0
   58.2420   26.2550   45.9620 C   0  0  0  0  0  0  0  0  0  0  0  0
   59.4970   26.1500   45.9210 O   0  0  0  0  0  0  0  0  0  0  0  0
   57.6760   30.9830   44.8150 C   0  0  0  0  0  0  0  0  0  0  0  0
   56.9700   31.0150   43.6730 C   0  0  0  0  0  0  0  0  0  0  0  0
   56.5834   31.9718   43.2920 H   0  0  0  0  0  0  0  0  0  0  0  0
   56.7784   30.0845   43.1186 H   0  0  0  0  0  0  0  0  0  0  0  0
  1  2  1  0
  2  3  1  0
  2  4  2  0
  4  5  1  0
  4  6  1  0
  6  7  1  0
  6  8  1  0
  6  9  1  0
  9 10  1  0
 10 11  1  0
 11 12  1  0
 11 13  1  0
 11 14  1  0
 10 15  2  0
 15 16  1  0
 15 17  1  0
 17 18  2  0
 18 19  1  0
 18 20  1  0
 20 21  2  0
 21 22  1  0
 21 23  1  0
 23 24  1  0
 23 25  1  0
 25 26  2  0
 25 27  1  0
 27 28  1  0
 28 29  2  0
 17 30  1  0
 30 31  2  0
 31 32  1  0
 31 33  1  0
 30  9  1  0
 28 20  1  0
M  CHG  2  22  -1  27  -1
M  END
>  <UniqueID>  (35) 
33

>  <SMILES>  (35) 
C=CCn1c(C)c/c(=C/c2c([O-])[nH]c(=O)[n-]c2=O)c1=C

>  <Energy>  (35) 
73.13478556355335

>  <Genealogy>  (35) 
C=CCn1c(C)cc(=Cc2c([O-])[nH]c(=O)[n-]c2=O)c1=C (protonated)
C=CCn1c(C)c/c(=C/c2c([O-])[nH]c(=O)[n-]c2=O)c1=C (cis-trans isomerization)
C=CCn1c(C)c/c(=C/c2c([O-])[nH]c(=O)[n-]c2=O)c1=C (3D coordinates assigned)
C=CCn1c(C)c/c(=C/c2c([O-])[nH]c(=O)[n-]c2=O)c1=C (optimized conformer: 73.13478556355335 kcal/mol)

>  <smiles>  (35) 
C=CCn1c(C)cc(=Cc2c(O)[nH]c(=O)[nH]c2=O)c1=C

>  <score_type>  (35) 
oracle

>  <origin>  (35) 
adg

>  <m_score__min__energy>  (35) 
-12.43

>  <m_primary>  (35) 
energy

$$$$
35:0
     RDKit          3D

 34 36  0  0  0  0  0  0  0  0999 V2000
   57.2140   26.7710   47.2370 O   0  0  0  0  0  0  0  0  0  0  0  0
   57.8890   26.3450   46.2640 C   0  0  0  0  0  0  0  0  0  0  0  0
   59.1920   26.9000   45.8580 C   0  0  0  0  0  0  0  0  0  0  0  0
   59.7240   28.2130   46.9900 S   0  0  0  0  0  0  0  0  0  0  0  0
   59.0610   29.7420   46.3800 C   0  0  0  0  0  0  0  0  0  0  0  0
   57.9130   29.7250   45.6640 N   0  0  0  0  0  0  0  0  0  0  0  0
   57.3950   30.8740   45.1930 C   0  0  0  0  0  0  0  0  0  0  0  0
   56.3310   30.8780   44.5260 O   0  0  0  0  0  0  0  0  0  0  0  0
   57.9940   32.1010   45.4140 C   0  0  0  0  0  0  0  0  0  0  0  0
   57.4550   33.2660   44.9270 C   0  0  0  0  0  0  0  0  0  0  0  0
   58.0860   34.4820   45.1690 C   0  0  0  0  0  0  0  0  0  0  0  0
   59.2670   34.4560   45.9130 C   0  0  0  0  0  0  0  0  0  0  0  0
   59.8020   33.2810   46.3970 C   0  0  0  0  0  0  0  0  0  0  0  0
   59.1750   32.0780   46.1570 C   0  0  0  0  0  0  0  0  0  0  0  0
   59.6920   30.9210   46.6270 N   0  0  0  0  0  0  0  0  0  0  0  0
   57.3440   25.2330   45.4960 C   0  0  0  0  0  0  0  0  0  0  0  0
   58.1510   24.2940   44.8880 C   0  0  0  0  0  0  0  0  0  0  0  0
   57.5430   23.2610   44.1720 C   0  0  0  0  0  0  0  0  0  0  0  0
   56.1550   23.1990   44.0860 C   0  0  0  0  0  0  0  0  0  0  0  0
   55.5660   22.2870   43.4510 O   0  0  0  0  0  0  0  0  0  0  0  0
   55.3810   24.1320   44.6900 N   0  0  0  0  0  0  0  0  0  0  0  0
   55.9520   25.1390   45.3890 C   0  0  0  0  0  0  0  0  0  0  0  0
   55.1140   26.0610   45.9850 O   0  0  0  0  0  0  0  0  0  0  0  0
   59.9423   26.0956   45.8629 H   0  0  0  0  0  0  0  0  0  0  0  0
   59.0905   27.3280   44.8498 H   0  0  0  0  0  0  0  0  0  0  0  0
   56.5224   33.2379   44.3443 H   0  0  0  0  0  0  0  0  0  0  0  0
   57.6706   35.4270   44.7890 H   0  0  0  0  0  0  0  0  0  0  0  0
   59.7872   35.4029   46.1196 H   0  0  0  0  0  0  0  0  0  0  0  0
   60.7354   33.3043   46.9785 H   0  0  0  0  0  0  0  0  0  0  0  0
   60.5640   30.8970   47.1760 H   0  0  0  0  0  0  0  0  0  0  0  0
   59.2464   24.3574   44.9653 H   0  0  0  0  0  0  0  0  0  0  0  0
   58.1601   22.4970   43.6764 H   0  0  0  0  0  0  0  0  0  0  0  0
   54.3320   24.0640   44.6110 H   0  0  0  0  0  0  0  0  0  0  0  0
   55.1110   26.3130   46.9620 H   0  0  0  0  0  0  0  0  0  0  0  0
  1  2  2  0
  2  3  1  0
  3  4  1  0
  4  5  1  0
  5  6  2  0
  6  7  1  0
  7  8  2  0
  7  9  1  0
  9 10  2  0
 10 11  1  0
 11 12  2  0
 12 13  1  0
 13 14  2  0
 14 15  1  0
  2 16  1  0
 16 17  1  0
 17 18  2  0
 18 19  1  0
 19 20  2  0
 19 21  1  0
 21 22  1  0
 22 23  1  0
 15  5  1  0
 22 16  2  0
 14  9  1  0
  3 24  1  0
  3 25  1  0
 10 26  1  0
 11 27  1  0
 12 28  1  0
 13 29  1  0
 15 30  1  0
 17 31  1  0
 18 32  1  0
 21 33  1  0
 23 34  1  0
M  END
>  <smiles>  (36) 
O=C(CSc1nc(=O)c2ccccc2[nH]1)c1ccc(=O)[nH]c1O

>  <score_type>  (36) 
oracle

>  <origin>  (36) 
adg

>  <m_score__min__energy>  (36) 
-8.6799999999999997

>  <m_primary>  (36) 
energy

$$$$
36:0
     RDKit          3D

 57 62  0  0  0  0  0  0  0  0999 V2000
   58.4661   33.8646   50.1806 H   0  0  0  0  0  0  0  0  0  0  0  0
   59.5200   33.6160   49.9870 C   0  0  0  0  0  0  0  0  0  0  0  0
   60.3530   34.5530   49.3790 C   0  0  0  0  0  0  0  0  0  0  0  0
   59.9560   35.5363   49.0868 H   0  0  0  0  0  0  0  0  0  0  0  0
   61.6910   34.2410   49.1420 C   0  0  0  0  0  0  0  0  0  0  0  0
   62.3504   34.9805   48.6641 H   0  0  0  0  0  0  0  0  0  0  0  0
   62.1980   32.9880   49.5110 C   0  0  0  0  0  0  0  0  0  0  0  0
   61.3630   32.0220   50.1140 C   0  0  0  0  0  0  0  0  0  0  0  0
   60.0170   32.3620   50.3520 C   0  0  0  0  0  0  0  0  0  0  0  0
   59.3488   31.6313   50.8311 H   0  0  0  0  0  0  0  0  0  0  0  0
   61.8770   30.7080   50.4660 N   0  0  0  0  0  0  0  0  0  0  0  0
   61.1510   29.5040   50.0120 C   0  0  0  0  0  0  0  0  0  0  0  0
   61.0858   28.7975   50.8526 H   0  0  0  0  0  0  0  0  0  0  0  0
   61.7111   29.0857   49.1627 H   0  0  0  0  0  0  0  0  0  0  0  0
   59.7250   29.8060   49.5150 C   0  0  0  0  0  0  0  0  0  0  0  0
   59.5908   30.8953   49.4410 H   0  0  0  0  0  0  0  0  0  0  0  0
   59.0030   29.3819   50.2283 H   0  0  0  0  0  0  0  0  0  0  0  0
   59.4930   29.1830   48.1570 C   0  0  0  0  0  0  0  0  0  0  0  0
   58.5090   28.1890   48.0270 C   0  0  0  0  0  0  0  0  0  0  0  0
   57.9319   27.8756   48.9095 H   0  0  0  0  0  0  0  0  0  0  0  0
   58.2560   27.5950   46.7900 C   0  0  0  0  0  0  0  0  0  0  0  0
   57.4738   26.8266   46.7027 H   0  0  0  0  0  0  0  0  0  0  0  0
   58.9900   27.9700   45.6610 C   0  0  0  0  0  0  0  0  0  0  0  0
   58.7080   27.3320   44.4090 N   0  0  0  0  0  0  0  0  0  0  0  0
   57.8370   27.8330   43.3870 C   0  0  0  0  0  0  0  0  0  0  0  0
   57.7860   27.2660   42.2610 O   0  0  0  0  0  0  0  0  0  0  0  0
   56.9920   28.9510   43.6880 N   0  0  0  0  0  0  0  0  0  0  0  0
   57.3780   30.0970   44.1680 C   0  0  0  0  0  0  0  0  0  0  0  0
   57.2590   30.4560   45.4720 N   0  0  0  0  0  0  0  0  0  0  0  0
   57.7740   31.6940   45.6790 C   0  0  0  0  0  0  0  0  0  0  0  0
   57.8160   32.3370   46.9170 C   0  0  0  0  0  0  0  0  0  0  0  0
   57.4016   31.8531   47.8137 H   0  0  0  0  0  0  0  0  0  0  0  0
   58.3970   33.6130   46.9970 C   0  0  0  0  0  0  0  0  0  0  0  0
   58.4382   34.1343   47.9647 H   0  0  0  0  0  0  0  0  0  0  0  0
   58.9280   34.2310   45.8460 C   0  0  0  0  0  0  0  0  0  0  0  0
   59.6550   35.8220   45.9670 Cl  0  0  0  0  0  0  0  0  0  0  0  0
   58.8830   33.5720   44.6060 C   0  0  0  0  0  0  0  0  0  0  0  0
   59.2975   34.0416   43.7017 H   0  0  0  0  0  0  0  0  0  0  0  0
   58.3000   32.3090   44.5520 C   0  0  0  0  0  0  0  0  0  0  0  0
   58.1200   31.2880   43.2270 S   0  0  0  0  0  0  0  0  0  0  0  0
   59.9440   28.9940   45.7720 C   0  0  0  0  0  0  0  0  0  0  0  0
   60.4971   29.3223   44.8796 H   0  0  0  0  0  0  0  0  0  0  0  0
   60.1980   29.6010   47.0070 C   0  0  0  0  0  0  0  0  0  0  0  0
   61.3990   30.8860   47.0630 Cl  0  0  0  0  0  0  0  0  0  0  0  0
   63.2510   30.5520   50.9080 C   0  0  0  0  0  0  0  0  0  0  0  0
   64.2720   31.3690   50.3850 C   0  0  0  0  0  0  0  0  0  0  0  0
   65.5960   31.1690   50.7870 C   0  0  0  0  0  0  0  0  0  0  0  0
   66.3972   31.8051   50.3826 H   0  0  0  0  0  0  0  0  0  0  0  0
   65.8980   30.1620   51.7010 C   0  0  0  0  0  0  0  0  0  0  0  0
   66.9371   29.9933   52.0202 H   0  0  0  0  0  0  0  0  0  0  0  0
   64.8680   29.3710   52.2060 C   0  0  0  0  0  0  0  0  0  0  0  0
   65.0936   28.5771   52.9332 H   0  0  0  0  0  0  0  0  0  0  0  0
   63.5850   29.5760   51.8040 N   0  0  0  0  0  0  0  0  0  0  0  0
   62.8510   28.9670   52.2180 H   0  0  0  0  0  0  0  0  0  0  0  0
   63.8820   32.6220   49.2380 S   0  0  0  0  0  0  0  0  0  0  0  0
   64.7210   33.8410   49.5040 O   0  0  0  0  0  0  0  0  0  0  0  0
   64.0940   32.1380   47.8300 O   0  0  0  0  0  0  0  0  0  0  0  0
  1  2  1  0
  2  3  2  0
  3  4  1  0
  3  5  1  0
  5  6  1  0
  5  7  2  0
  7  8  1  0
  8  9  2  0
  9 10  1  0
  8 11  1  0
 11 12  1  0
 12 13  1  0
 12 14  1  0
 12 15  1  0
 15 16  1  0
 15 17  1  0
 15 18  1  0
 18 19  2  0
 19 20  1  0
 19 21  1  0
 21 22  1  0
 21 23  2  0
 23 24  1  0
 24 25  1  0
 25 26  2  0
 25 27  1  0
 27 28  2  0
 28 29  1  0
 29 30  1  0
 30 31  2  0
 31 32  1  0
 31 33  1  0
 33 34  1  0
 33 35  2  0
 35 36  1  0
 35 37  1  0
 37 38  1  0
 37 39  2  0
 39 40  1  0
 23 41  1  0
 41 42  1  0
 41 43  2  0
 43 44  1  0
 11 45  1  0
 45 46  2  0
 46 47  1  0
 47 48  1  0
 47 49  2  0
 49 50  1  0
 49 51  1  0
 51 52  1  0
 51 53  2  0
 53 54  1  0
 46 55  1  0
 55 56  2  0
 55 57  2  0
  9  2  1  0
 43 18  1  0
 53 45  1  0
 55  7  1  0
 40 28  1  0
 39 30  1  0
M  CHG  3  24  -1  29  -1  53   1
M  END
>  <UniqueID>  (37) 
34

>  <SMILES>  (37) 
O=C(/N=c1\[n-]c2ccc(Cl)cc2s1)[N-]c1ccc(CCN2c3ccccc3S(=O)(=O)c3ccc[nH+]c32)c(Cl)c1

>  <Energy>  (37) 
121.53033820837707

>  <Genealogy>  (37) 
O=C(N=c1[n-]c2ccc(Cl)cc2s1)[N-]c1ccc(CCN2c3ccccc3S(=O)(=O)c3ccc[nH+]c32)c(Cl)c1 (protonated)
O=C(/N=c1\[n-]c2ccc(Cl)cc2s1)[N-]c1ccc(CCN2c3ccccc3S(=O)(=O)c3ccc[nH+]c32)c(Cl)c1 (cis-trans isomerization)
O=C(/N=c1\[n-]c2ccc(Cl)cc2s1)[N-]c1ccc(CCN2c3ccccc3S(=O)(=O)c3ccc[nH+]c32)c(Cl)c1 (3D coordinates assigned)
O=C(/N=c1\[n-]c2ccc(Cl)cc2s1)[N-]c1ccc(CCN2c3ccccc3S(=O)(=O)c3ccc[nH+]c32)c(Cl)c1 (nonaromatic ring conformer: 121.53033820837707 kcal/mol)

>  <smiles>  (37) 
O=C(N=c1[nH]c2ccc(Cl)cc2s1)Nc1ccc(CCN2c3ccccc3S(=O)(=O)c3cccnc32)c(Cl)c1

>  <score_type>  (37) 
oracle

>  <origin>  (37) 
adg

>  <m_score__min__energy>  (37) 
-12.85

>  <m_primary>  (37) 
energy

$$$$
37:0
     RDKit          3D

 59 62  0  0  1  0  0  0  0  0999 V2000
   63.5950   33.3300   47.4370 C   0  0  0  0  0  0  0  0  0  0  0  0
   62.2220   33.2740   47.8580 N   0  0  0  0  0  0  0  0  0  0  0  0
   61.4320   32.3540   47.0650 C   0  0  0  0  0  0  0  0  0  0  0  0
   61.3210   30.9970   47.7310 C   0  0  0  0  0  0  0  0  0  0  0  0
   60.7280   31.0640   49.0450 N   0  0  0  0  0  0  0  0  0  0  0  0
   59.4100   30.4600   49.0430 C   0  0  0  0  0  0  0  0  0  0  0  0
   59.5110   29.0230   48.6460 C   0  0  0  0  0  0  0  0  0  0  0  0
   60.6170   28.3060   49.0780 C   0  0  0  0  0  0  0  0  0  0  0  0
   60.7760   26.9690   48.7480 C   0  0  0  0  0  0  0  0  0  0  0  0
   59.7990   26.3760   47.9770 C   0  0  0  0  0  0  0  0  0  0  0  0
   58.6760   27.0800   47.5310 C   0  0  0  0  0  0  0  0  0  0  0  0
   57.7090   26.3270   46.7150 C   0  0  0  0  0  0  0  0  0  0  0  0
   57.8470   26.8280   44.9970 S   0  0  0  0  0  0  0  0  0  0  0  0
   58.3540   28.5360   44.9140 C   0  0  0  0  0  0  0  0  0  0  0  0
   59.5820   28.9620   45.2640 N   0  0  0  0  0  0  0  0  0  0  0  0
   59.6500   30.2780   45.0870 N   0  0  0  0  0  0  0  0  0  0  0  0
   58.4530   30.7300   44.6150 C   0  0  0  0  0  0  0  0  0  0  0  0
   58.1970   31.9640   44.3400 N   0  0  0  0  0  0  0  0  0  0  0  0
   58.5910   33.0430   45.2120 C   0  0  0  0  0  0  0  0  0  0  0  0
   58.2020   32.9090   46.5470 C   0  0  0  0  0  0  0  0  0  0  0  0
   58.5410   33.9090   47.4630 C   0  0  0  0  0  0  0  0  0  0  0  0
   59.2530   35.0080   47.0140 C   0  0  0  0  0  0  0  0  0  0  0  0
   59.6280   35.1220   45.6870 C   0  0  0  0  0  0  0  0  0  0  0  0
   59.2910   34.1230   44.7700 C   0  0  0  0  0  0  0  0  0  0  0  0
   57.6280   29.6330   44.5030 C   0  0  0  0  0  0  0  0  0  0  0  0
   56.2550   29.6470   44.0230 C   0  0  0  0  0  0  0  0  0  0  0  0
   55.9000   29.6820   42.6480 N   0  0  0  0  0  0  0  0  0  0  0  0
   55.3000   29.6280   44.8480 O   0  0  0  0  0  0  0  0  0  0  0  0
   58.5390   28.4050   47.8710 C   0  0  0  0  0  0  0  0  0  0  0  0
   60.6970   32.4300   49.4780 C   0  0  0  0  0  0  0  0  0  0  0  0
   62.1000   33.0000   49.2760 C   0  0  0  0  0  0  0  0  0  0  0  0
   64.2488   33.3567   48.3212 H   0  0  0  0  0  0  0  0  0  0  0  0
   63.8301   32.4407   46.8338 H   0  0  0  0  0  0  0  0  0  0  0  0
   63.7569   34.2355   46.8338 H   0  0  0  0  0  0  0  0  0  0  0  0
   60.4226   32.7712   46.9342 H   0  0  0  0  0  0  0  0  0  0  0  0
   61.9308   32.2209   46.0937 H   0  0  0  0  0  0  0  0  0  0  0  0
   60.7005   30.3451   47.0985 H   0  0  0  0  0  0  0  0  0  0  0  0
   62.3409   30.6021   47.8485 H   0  0  0  0  0  0  0  0  0  0  0  0
   58.9747   30.5305   50.0508 H   0  0  0  0  0  0  0  0  0  0  0  0
   58.7689   30.9908   48.3237 H   0  0  0  0  0  0  0  0  0  0  0  0
   61.3801   28.8063   49.6923 H   0  0  0  0  0  0  0  0  0  0  0  0
   61.6530   26.3999   49.0901 H   0  0  0  0  0  0  0  0  0  0  0  0
   59.9062   25.3158   47.7041 H   0  0  0  0  0  0  0  0  0  0  0  0
   57.9189   25.2506   46.7999 H   0  0  0  0  0  0  0  0  0  0  0  0
   56.6901   26.5343   47.0741 H   0  0  0  0  0  0  0  0  0  0  0  0
   60.3620   28.3800   45.6150 H   0  0  0  0  0  0  0  0  0  0  0  0
   60.5070   30.8460   45.2890 H   0  0  0  0  0  0  0  0  0  0  0  0
   57.6345   32.0253   46.8742 H   0  0  0  0  0  0  0  0  0  0  0  0
   58.2478   33.8243   48.5198 H   0  0  0  0  0  0  0  0  0  0  0  0
   59.5250   35.8034   47.7235 H   0  0  0  0  0  0  0  0  0  0  0  0
   60.1943   36.0036   45.3522 H   0  0  0  0  0  0  0  0  0  0  0  0
   59.5852   34.2078   43.7135 H   0  0  0  0  0  0  0  0  0  0  0  0
   55.1560   29.0700   42.2450 H   0  0  0  0  0  0  0  0  0  0  0  0
   56.4440   30.3760   42.0510 H   0  0  0  0  0  0  0  0  0  0  0  0
   57.6616   28.9740   47.5299 H   0  0  0  0  0  0  0  0  0  0  0  0
   59.9696   32.9985   48.8800 H   0  0  0  0  0  0  0  0  0  0  0  0
   60.3962   32.4982   50.5339 H   0  0  0  0  0  0  0  0  0  0  0  0
   62.2228   33.9267   49.8559 H   0  0  0  0  0  0  0  0  0  0  0  0
   62.8730   32.2957   49.6173 H   0  0  0  0  0  0  0  0  0  0  0  0
  1  2  1  0
  2  3  1  0
  3  4  1  0
  4  5  1  0
  5  6  1  0
  6  7  1  0
  7  8  2  0
  8  9  1  0
  9 10  2  0
 10 11  1  0
 11 12  1  0
 12 13  1  0
 13 14  1  0
 14 15  1  0
 15 16  1  0
 16 17  1  0
 17 18  2  0
 18 19  1  0
 19 20  2  0
 20 21  1  0
 21 22  2  0
 22 23  1  0
 23 24  2  0
 17 25  1  0
 25 26  1  0
 26 27  1  0
 26 28  2  0
 11 29  2  0
  5 30  1  0
 30 31  1  0
 31  2  1  0
 29  7  1  0
 25 14  2  0
 24 19  1  0
  1 32  1  0
  1 33  1  0
  1 34  1  0
  3 35  1  0
  3 36  1  0
  4 37  1  0
  4 38  1  0
  6 39  1  0
  6 40  1  0
  8 41  1  0
  9 42  1  0
 10 43  1  0
 12 44  1  0
 12 45  1  0
 15 46  1  0
 16 47  1  0
 20 48  1  0
 21 49  1  0
 22 50  1  0
 23 51  1  0
 24 52  1  0
 27 53  1  0
 27 54  1  0
 29 55  1  0
 30 56  1  0
 30 57  1  0
 31 58  1  0
 31 59  1  0
M  END
>  <smiles>  (38) 
CN1CCN(Cc2cccc(CSc3[nH][nH]c(=Nc4ccccc4)c3C(N)=O)c2)CC1

>  <score_type>  (38) 
oracle

>  <origin>  (38) 
adg

>  <m_score__min__energy>  (38) 
-9.8100000000000005

>  <m_primary>  (38) 
energy

$$$$
38:0
     RDKit          3D

 40 42  0  0  0  0  0  0  0  0999 V2000
   57.2510   31.7510   41.8810 O   0  0  0  0  0  0  0  0  0  0  0  0
   57.6690   31.8640   43.0660 C   0  0  0  0  0  0  0  0  0  0  0  0
   58.1620   33.1280   43.5270 N   0  0  0  0  0  0  0  0  0  0  0  0
   57.6360   33.8230   44.6970 C   0  0  0  0  0  0  0  0  0  0  0  0
   58.6000   33.7100   45.8470 C   0  0  0  0  0  0  0  0  0  0  0  0
   59.8660   34.3150   45.7810 C   0  0  0  0  0  0  0  0  0  0  0  0
   60.7460   34.2220   46.8640 C   0  0  0  0  0  0  0  0  0  0  0  0
   60.3680   33.5330   48.0180 C   0  0  0  0  0  0  0  0  0  0  0  0
   59.1060   32.9340   48.0940 C   0  0  0  0  0  0  0  0  0  0  0  0
   58.5880   31.9970   49.6750 Br  0  0  0  0  0  0  0  0  0  0  0  0
   58.2230   33.0230   47.0120 C   0  0  0  0  0  0  0  0  0  0  0  0
   57.6500   30.6950   43.9750 C   0  0  0  0  0  0  0  0  0  0  0  0
   58.8050   30.3220   44.6860 C   0  0  0  0  0  0  0  0  0  0  0  0
   58.7840   29.2180   45.5440 C   0  0  0  0  0  0  0  0  0  0  0  0
   57.6090   28.4700   45.7120 C   0  0  0  0  0  0  0  0  0  0  0  0
   57.6010   27.2620   46.6090 C   0  0  0  0  0  0  0  0  0  0  0  0
   57.0750   26.0600   45.8670 C   0  0  0  0  0  0  0  0  0  0  0  0
   57.9670   25.1720   45.2470 C   0  0  0  0  0  0  0  0  0  0  0  0
   57.4830   24.0770   44.5300 C   0  0  0  0  0  0  0  0  0  0  0  0
   56.1040   23.8800   44.4310 C   0  0  0  0  0  0  0  0  0  0  0  0
   55.6500   22.8990   43.7880 O   0  0  0  0  0  0  0  0  0  0  0  0
   55.2490   24.7530   45.0260 N   0  0  0  0  0  0  0  0  0  0  0  0
   55.6930   25.8280   45.7320 C   0  0  0  0  0  0  0  0  0  0  0  0
   54.7680   26.6870   46.3130 O   0  0  0  0  0  0  0  0  0  0  0  0
   56.4570   28.8330   44.9970 C   0  0  0  0  0  0  0  0  0  0  0  0
   56.4760   29.9370   44.1400 C   0  0  0  0  0  0  0  0  0  0  0  0
   57.4862   34.8848   44.4517 H   0  0  0  0  0  0  0  0  0  0  0  0
   56.6785   33.3649   44.9856 H   0  0  0  0  0  0  0  0  0  0  0  0
   60.1659   34.8631   44.8756 H   0  0  0  0  0  0  0  0  0  0  0  0
   61.7385   34.6929   46.8065 H   0  0  0  0  0  0  0  0  0  0  0  0
   61.0628   33.4611   48.8678 H   0  0  0  0  0  0  0  0  0  0  0  0
   57.2303   32.5532   47.0744 H   0  0  0  0  0  0  0  0  0  0  0  0
   59.7314   30.9029   44.5662 H   0  0  0  0  0  0  0  0  0  0  0  0
   59.6951   28.9340   46.0910 H   0  0  0  0  0  0  0  0  0  0  0  0
   58.6265   27.0571   46.9502 H   0  0  0  0  0  0  0  0  0  0  0  0
   56.9486   27.4624   47.4716 H   0  0  0  0  0  0  0  0  0  0  0  0
   59.0513   25.3395   45.3264 H   0  0  0  0  0  0  0  0  0  0  0  0
   58.1805   23.3763   44.0478 H   0  0  0  0  0  0  0  0  0  0  0  0
   55.5342   28.2454   45.1117 H   0  0  0  0  0  0  0  0  0  0  0  0
   55.5652   30.2157   43.5897 H   0  0  0  0  0  0  0  0  0  0  0  0
  1  2  2  0
  2  3  1  0
  3  4  1  0
  4  5  1  0
  5  6  2  0
  6  7  1  0
  7  8  2  0
  8  9  1  0
  9 10  1  0
  9 11  2  0
  2 12  1  0
 12 13  2  0
 13 14  1  0
 14 15  2  0
 15 16  1  0
 16 17  1  0
 17 18  1  0
 18 19  2  0
 19 20  1  0
 20 21  2  0
 20 22  1  0
 22 23  1  0
 23 24  1  0
 15 25  1  0
 25 26  2  0
 11  5  1  0
 26 12  1  0
 23 17  2  0
  4 27  1  0
  4 28  1  0
  6 29  1  0
  7 30  1  0
  8 31  1  0
 11 32  1  0
 13 33  1  0
 14 34  1  0
 16 35  1  0
 16 36  1  0
 18 37  1  0
 19 38  1  0
 25 39  1  0
 26 40  1  0
M  CHG  3   3  -1  22  -1  24  -1
M  END
>  <UniqueID>  (39) 
35

>  <SMILES>  (39) 
O=C([N-]Cc1cccc(Br)c1)c1ccc(Cc2ccc(=O)[n-]c2[O-])cc1

>  <Energy>  (39) 
41.30936108006162

>  <Genealogy>  (39) 
O=C([N-]Cc1cccc(Br)c1)c1ccc(Cc2ccc(=O)[n-]c2[O-])cc1 (protonated)
O=C([N-]Cc1cccc(Br)c1)c1ccc(Cc2ccc(=O)[n-]c2[O-])cc1 (3D coordinates assigned)
O=C([N-]Cc1cccc(Br)c1)c1ccc(Cc2ccc(=O)[n-]c2[O-])cc1 (optimized conformer: 41.30936108006162 kcal/mol)

>  <smiles>  (39) 
O=C(NCc1cccc(Br)c1)c1ccc(Cc2ccc(=O)[nH]c2O)cc1

>  <score_type>  (39) 
oracle

>  <origin>  (39) 
adg

>  <m_score__min__energy>  (39) 
-15.65

>  <m_primary>  (39) 
energy

$$$$
39:0
     RDKit          3D

 50 52  0  0  0  0  0  0  0  0999 V2000
   57.3990   21.9540   46.3630 C   0  0  0  0  0  0  0  0  0  0  0  0
   57.2750   22.7850   47.5520 N   0  0  0  0  0  0  0  0  0  0  0  0
   56.9880   24.1830   47.4910 C   0  0  0  0  0  0  0  0  0  0  0  0
   55.8580   24.5800   47.0970 O   0  0  0  0  0  0  0  0  0  0  0  0
   57.9580   25.0920   47.9310 O   0  0  0  0  0  0  0  0  0  0  0  0
   58.2230   26.3430   47.3520 C   0  0  0  0  0  0  0  0  0  0  0  0
   59.2700   27.1080   47.8770 C   0  0  0  0  0  0  0  0  0  0  0  0
   59.5640   28.3650   47.3440 C   0  0  0  0  0  0  0  0  0  0  0  0
   58.8280   28.8590   46.2650 C   0  0  0  0  0  0  0  0  0  0  0  0
   57.8050   28.0830   45.6920 C   0  0  0  0  0  0  0  0  0  0  0  0
   57.0200   28.5540   44.5870 N   0  0  0  0  0  0  0  0  0  0  0  0
   56.0350   29.5950   44.6160 C   0  0  0  0  0  0  0  0  0  0  0  0
   54.8110   29.3270   44.4800 O   0  0  0  0  0  0  0  0  0  0  0  0
   56.4540   30.9390   44.8550 N   0  0  0  0  0  0  0  0  0  0  0  0
   57.6240   31.5250   44.2170 C   0  0  0  0  0  0  0  0  0  0  0  0
   58.1650   32.6270   45.0830 C   0  0  0  0  0  0  0  0  0  0  0  0
   58.4910   33.8680   44.5190 C   0  0  0  0  0  0  0  0  0  0  0  0
   59.0280   34.8820   45.3150 C   0  0  0  0  0  0  0  0  0  0  0  0
   59.2560   34.6620   46.6760 C   0  0  0  0  0  0  0  0  0  0  0  0
   58.9480   33.4190   47.2570 C   0  0  0  0  0  0  0  0  0  0  0  0
   59.1920   33.1830   48.7020 C   0  0  0  0  0  0  0  0  0  0  0  0
   60.1070   33.9810   49.4120 C   0  0  0  0  0  0  0  0  0  0  0  0
   60.3360   33.7550   50.7710 C   0  0  0  0  0  0  0  0  0  0  0  0
   59.6540   32.7360   51.4390 C   0  0  0  0  0  0  0  0  0  0  0  0
   58.7320   31.9390   50.7490 C   0  0  0  0  0  0  0  0  0  0  0  0
   57.8740   30.6530   51.5920 S   0  0  0  0  0  0  0  0  0  0  0  0
   56.1840   31.0150   51.6190 N   0  0  0  0  0  0  0  0  0  0  0  0
   58.3860   30.5360   53.0000 O   0  0  0  0  0  0  0  0  0  0  0  0
   58.0980   29.3460   50.8850 O   0  0  0  0  0  0  0  0  0  0  0  0
   58.5100   32.1580   49.3820 C   0  0  0  0  0  0  0  0  0  0  0  0
   58.4070   32.4030   46.4490 C   0  0  0  0  0  0  0  0  0  0  0  0
   57.5000   26.8340   46.2470 C   0  0  0  0  0  0  0  0  0  0  0  0
   57.5552   20.9070   46.6621 H   0  0  0  0  0  0  0  0  0  0  0  0
   56.4794   22.0310   45.7643 H   0  0  0  0  0  0  0  0  0  0  0  0
   58.2560   22.2961   45.7643 H   0  0  0  0  0  0  0  0  0  0  0  0
   59.8656   26.7169   48.7151 H   0  0  0  0  0  0  0  0  0  0  0  0
   60.3772   28.9673   47.7752 H   0  0  0  0  0  0  0  0  0  0  0  0
   59.0492   29.8583   45.8620 H   0  0  0  0  0  0  0  0  0  0  0  0
   58.3948   30.7518   44.0828 H   0  0  0  0  0  0  0  0  0  0  0  0
   57.3414   31.9339   43.2357 H   0  0  0  0  0  0  0  0  0  0  0  0
   58.3234   34.0438   43.4462 H   0  0  0  0  0  0  0  0  0  0  0  0
   59.2724   35.8574   44.8690 H   0  0  0  0  0  0  0  0  0  0  0  0
   59.6789   35.4658   47.2965 H   0  0  0  0  0  0  0  0  0  0  0  0
   60.6455   34.7881   48.8937 H   0  0  0  0  0  0  0  0  0  0  0  0
   61.0562   34.3820   51.3171 H   0  0  0  0  0  0  0  0  0  0  0  0
   59.8411   32.5590   52.5084 H   0  0  0  0  0  0  0  0  0  0  0  0
   56.0020   31.6790   50.8340 H   0  0  0  0  0  0  0  0  0  0  0  0
   57.7964   31.5228   48.8368 H   0  0  0  0  0  0  0  0  0  0  0  0
   58.1710   31.4235   46.8905 H   0  0  0  0  0  0  0  0  0  0  0  0
   56.6878   26.2303   45.8159 H   0  0  0  0  0  0  0  0  0  0  0  0
  1  2  1  0
  2  3  1  0
  3  4  2  0
  3  5  1  0
  5  6  1  0
  6  7  2  0
  7  8  1  0
  8  9  2  0
  9 10  1  0
 10 11  1  0
 11 12  1  0
 12 13  2  0
 12 14  1  0
 14 15  1  0
 15 16  1  0
 16 17  2  0
 17 18  1  0
 18 19  2  0
 19 20  1  0
 20 21  1  0
 21 22  2  0
 22 23  1  0
 23 24  2  0
 24 25  1  0
 25 26  1  0
 26 27  1  0
 26 28  2  0
 26 29  2  0
 25 30  2  0
 20 31  2  0
 10 32  2  0
 32  6  1  0
 31 16  1  0
 30 21  1  0
  1 33  1  0
  1 34  1  0
  1 35  1  0
  7 36  1  0
  8 37  1  0
  9 38  1  0
 15 39  1  0
 15 40  1  0
 17 41  1  0
 18 42  1  0
 19 43  1  0
 22 44  1  0
 23 45  1  0
 24 46  1  0
 27 47  1  0
 30 48  1  0
 31 49  1  0
 32 50  1  0
M  CHG  4   2  -1  11  -1  14  -1  27  -1
M  END
>  <UniqueID>  (40) 
36

>  <SMILES>  (40) 
C[N-]C(=O)Oc1cccc([N-]C(=O)[N-]Cc2cccc(-c3cccc(S([NH-])(=O)=O)c3)c2)c1

>  <Energy>  (40) 
59.94602666258757

>  <Genealogy>  (40) 
C[N-]C(=O)Oc1cccc([N-]C(=O)[N-]Cc2cccc(-c3cccc(S([NH-])(=O)=O)c3)c2)c1 (protonated)
C[N-]C(=O)Oc1cccc([N-]C(=O)[N-]Cc2cccc(-c3cccc(S([NH-])(=O)=O)c3)c2)c1 (3D coordinates assigned)
C[N-]C(=O)Oc1cccc([N-]C(=O)[N-]Cc2cccc(-c3cccc(S([NH-])(=O)=O)c3)c2)c1 (optimized conformer: 59.94602666258757 kcal/mol)

>  <smiles>  (40) 
CNC(=O)Oc1cccc(NC(=O)NCc2cccc(-c3cccc(S(N)(=O)=O)c3)c2)c1

>  <score_type>  (40) 
oracle

>  <origin>  (40) 
adg

>  <m_score__min__energy>  (40) 
-17.120000000000001

>  <m_primary>  (40) 
energy

$$$$
40:0
     RDKit          3D

 59 61  0  0  0  0  0  0  0  0999 V2000
   59.1360   22.2580   44.5900 C   0  0  0  0  0  0  0  0  0  0  0  0
   57.7470   21.8530   44.1060 C   0  0  0  0  0  0  0  0  0  0  0  0
   56.7390   22.5730   44.8130 O   0  0  0  0  0  0  0  0  0  0  0  0
   56.9790   23.2760   46.0000 C   0  0  0  0  0  0  0  0  0  0  0  0
   57.3260   22.6580   47.0430 O   0  0  0  0  0  0  0  0  0  0  0  0
   56.7930   24.7440   46.0370 C   0  0  0  0  0  0  0  0  0  0  0  0
   55.6270   25.4440   45.7530 C   0  0  0  0  0  0  0  0  0  0  0  0
   54.3090   24.8550   45.3500 C   0  0  0  0  0  0  0  0  0  0  0  0
   55.8500   26.7700   45.8210 N   0  0  0  0  0  0  0  0  0  0  0  0
   57.1460   26.9460   46.1540 C   0  0  0  0  0  0  0  0  0  0  0  0
   57.7950   28.2740   46.2670 C   0  0  0  0  0  0  0  0  0  0  0  0
   57.9090   28.8190   47.3980 O   0  0  0  0  0  0  0  0  0  0  0  0
   58.3200   28.9990   45.0530 C   0  0  0  0  0  0  0  0  0  0  0  0
   58.1850   30.4620   45.2140 N   0  0  0  0  0  0  0  0  0  0  0  0
   57.0250   31.0810   44.8420 C   0  0  0  0  0  0  0  0  0  0  0  0
   56.0520   30.4100   44.3990 O   0  0  0  0  0  0  0  0  0  0  0  0
   56.9140   32.4260   44.9320 N   0  0  0  0  0  0  0  0  0  0  0  0
   57.9390   33.1780   45.3990 C   0  0  0  0  0  0  0  0  0  0  0  0
   57.8190   34.4340   45.4110 O   0  0  0  0  0  0  0  0  0  0  0  0
   59.0870   32.5760   45.8500 N   0  0  0  0  0  0  0  0  0  0  0  0
   60.1990   33.3880   46.3990 C   0  0  0  0  0  0  0  0  0  0  0  0
   60.3320   33.2430   47.9100 C   0  0  0  0  0  0  0  0  0  0  0  0
   59.1500   33.1680   48.6860 C   0  0  0  0  0  0  0  0  0  0  0  0
   57.9260   33.1810   48.0990 F   0  0  0  0  0  0  0  0  0  0  0  0
   59.2140   33.0940   50.0780 C   0  0  0  0  0  0  0  0  0  0  0  0
   60.4460   33.0890   50.7220 C   0  0  0  0  0  0  0  0  0  0  0  0
   61.6240   33.1380   49.9800 C   0  0  0  0  0  0  0  0  0  0  0  0
   61.5950   33.1930   48.5740 C   0  0  0  0  0  0  0  0  0  0  0  0
   63.1470   33.2170   47.7090 S   0  0  0  0  0  0  0  0  0  0  0  0
   63.6000   31.6050   47.0940 C   0  0  0  0  0  0  0  0  0  0  0  0
   64.2320   33.6860   48.6350 O   0  0  0  0  0  0  0  0  0  0  0  0
   63.0600   34.1300   46.5170 O   0  0  0  0  0  0  0  0  0  0  0  0
   59.2230   31.2170   45.6950 C   0  0  0  0  0  0  0  0  0  0  0  0
   60.3220   30.6620   45.9770 O   0  0  0  0  0  0  0  0  0  0  0  0
   57.7620   25.7060   46.3160 C   0  0  0  0  0  0  0  0  0  0  0  0
   59.1900   25.4390   46.6980 C   0  0  0  0  0  0  0  0  0  0  0  0
   59.1540   22.2632   45.6898 H   0  0  0  0  0  0  0  0  0  0  0  0
   59.8792   21.5391   44.2146 H   0  0  0  0  0  0  0  0  0  0  0  0
   59.3763   23.2636   44.2146 H   0  0  0  0  0  0  0  0  0  0  0  0
   57.6608   22.0715   43.0314 H   0  0  0  0  0  0  0  0  0  0  0  0
   57.6079   20.7771   44.2881 H   0  0  0  0  0  0  0  0  0  0  0  0
   53.7320   24.5971   46.2503 H   0  0  0  0  0  0  0  0  0  0  0  0
   53.7474   25.5878   44.7520 H   0  0  0  0  0  0  0  0  0  0  0  0
   54.4803   23.9478   44.7520 H   0  0  0  0  0  0  0  0  0  0  0  0
   55.1470   27.5100   45.5970 H   0  0  0  0  0  0  0  0  0  0  0  0
   59.3821   28.7482   44.9149 H   0  0  0  0  0  0  0  0  0  0  0  0
   57.7345   28.6861   44.1759 H   0  0  0  0  0  0  0  0  0  0  0  0
   56.0330   32.8920   44.6150 H   0  0  0  0  0  0  0  0  0  0  0  0
   61.1391   33.0638   45.9287 H   0  0  0  0  0  0  0  0  0  0  0  0
   59.9830   34.4443   46.1808 H   0  0  0  0  0  0  0  0  0  0  0  0
   58.2869   33.0395   50.6675 H   0  0  0  0  0  0  0  0  0  0  0  0
   60.4908   33.0462   51.8203 H   0  0  0  0  0  0  0  0  0  0  0  0
   62.5925   33.1336   50.5015 H   0  0  0  0  0  0  0  0  0  0  0  0
   63.7898   30.9294   47.9411 H   0  0  0  0  0  0  0  0  0  0  0  0
   62.7801   31.2028   46.4808 H   0  0  0  0  0  0  0  0  0  0  0  0
   64.5094   31.6887   46.4808 H   0  0  0  0  0  0  0  0  0  0  0  0
   59.2793   25.4223   47.7942 H   0  0  0  0  0  0  0  0  0  0  0  0
   59.5031   24.4667   46.2897 H   0  0  0  0  0  0  0  0  0  0  0  0
   59.8333   26.2324   46.2897 H   0  0  0  0  0  0  0  0  0  0  0  0
  1  2  1  0
  2  3  1  0
  3  4  1  0
  4  5  2  0
  4  6  1  0
  6  7  2  0
  7  8  1  0
  7  9  1  0
  9 10  1  0
 10 11  1  0
 11 12  2  0
 11 13  1  0
 13 14  1  0
 14 15  1  0
 15 16  2  0
 15 17  1  0
 17 18  1  0
 18 19  2  0
 18 20  1  0
 20 21  1  0
 21 22  1  0
 22 23  2  0
 23 24  1  0
 23 25  1  0
 25 26  2  0
 26 27  1  0
 27 28  2  0
 28 29  1  0
 29 30  1  0
 29 31  2  0
 29 32  2  0
 20 33  1  0
 33 34  2  0
 10 35  2  0
 35 36  1  0
 35  6  1  0
 33 14  1  0
 28 22  1  0
  1 37  1  0
  1 38  1  0
  1 39  1  0
  2 40  1  0
  2 41  1  0
  8 42  1  0
  8 43  1  0
  8 44  1  0
  9 45  1  0
 13 46  1  0
 13 47  1  0
 17 48  1  0
 21 49  1  0
 21 50  1  0
 25 51  1  0
 26 52  1  0
 27 53  1  0
 30 54  1  0
 30 55  1  0
 30 56  1  0
 36 57  1  0
 36 58  1  0
 36 59  1  0
M  END
>  <UniqueID>  (41) 
37

>  <SMILES>  (41) 
CCOC(=O)c1c(C)[nH]c(C(=O)Cn2c(=O)[nH]c(=O)n(Cc3c(F)cccc3S(C)(=O)=O)c2=O)c1C

>  <Energy>  (41) 
96.8440924312016

>  <Genealogy>  (41) 
CCOC(=O)c1c(C)[nH]c(C(=O)Cn2c(=O)[nH]c(=O)n(Cc3c(F)cccc3S(C)(=O)=O)c2=O)c1C (3D coordinates assigned)
CCOC(=O)c1c(C)[nH]c(C(=O)Cn2c(=O)[nH]c(=O)n(Cc3c(F)cccc3S(C)(=O)=O)c2=O)c1C (optimized conformer: 96.8440924312016 kcal/mol)

>  <smiles>  (41) 
CCOC(=O)c1c(C)[nH]c(C(=O)Cn2c(=O)[nH]c(=O)n(Cc3c(F)cccc3S(C)(=O)=O)c2=O)c1C

>  <score_type>  (41) 
oracle

>  <origin>  (41) 
adg

>  <m_score__min__energy>  (41) 
-8.9499999999999993

>  <m_primary>  (41) 
energy

$$$$
41:0
     RDKit          3D

 75 79  0  0  0  0  0  0  0  0999 V2000
   60.8350   30.8220   47.4570 C   0  0  0  0  0  0  0  0  0  0  0  0
   60.7500   30.1180   48.5880 C   0  0  0  0  0  0  0  0  0  0  0  0
   59.5210   29.3140   48.9320 C   0  0  0  0  0  0  0  0  0  0  0  0
   59.0800   28.5440   47.7550 N   0  0  0  0  0  0  0  0  0  0  0  0
   58.1770   29.1050   46.8940 C   0  0  0  0  0  0  0  0  0  0  0  0
   57.7700   28.4460   45.7250 C   0  0  0  0  0  0  0  0  0  0  0  0
   56.7460   29.0910   44.8580 C   0  0  0  0  0  0  0  0  0  0  0  0
   55.5200   28.8550   45.0310 O   0  0  0  0  0  0  0  0  0  0  0  0
   57.1550   30.0580   43.8810 N   0  0  0  0  0  0  0  0  0  0  0  0
   57.6710   31.3710   44.1430 C   0  0  0  0  0  0  0  0  0  0  0  0
   58.0940   32.2280   43.1130 C   0  0  0  0  0  0  0  0  0  0  0  0
   58.6550   33.4690   43.4180 C   0  0  0  0  0  0  0  0  0  0  0  0
   58.7990   33.8680   44.7490 C   0  0  0  0  0  0  0  0  0  0  0  0
   58.3750   33.0270   45.7930 C   0  0  0  0  0  0  0  0  0  0  0  0
   58.4890   33.4720   47.1960 C   0  0  0  0  0  0  0  0  0  0  0  0
   57.5750   33.1900   48.0200 O   0  0  0  0  0  0  0  0  0  0  0  0
   59.6340   34.2240   47.6180 N   0  0  0  0  0  0  0  0  0  0  0  0
   60.3220   34.0790   48.8700 C   0  0  0  0  0  0  0  0  0  0  0  0
   61.7200   34.0710   48.8730 C   0  0  0  0  0  0  0  0  0  0  0  0
   62.4260   33.8500   50.0610 C   0  0  0  0  0  0  0  0  0  0  0  0
   61.7370   33.6370   51.2560 C   0  0  0  0  0  0  0  0  0  0  0  0
   60.3380   33.6320   51.2660 C   0  0  0  0  0  0  0  0  0  0  0  0
   59.6040   33.4500   52.5300 C   0  0  0  0  0  0  0  0  0  0  0  0
   59.9160   34.1740   53.5170 O   0  0  0  0  0  0  0  0  0  0  0  0
   58.5540   32.4690   52.6560 N   0  0  0  0  0  0  0  0  0  0  0  0
   57.8550   31.9820   51.4570 C   0  0  0  0  0  0  0  0  0  0  0  0
   56.4910   31.3760   51.8140 C   0  0  0  0  0  0  0  0  0  0  0  0
   56.5960   30.2910   52.9120 C   0  0  0  0  0  0  0  0  0  0  0  0
   56.7550   29.0170   52.3360 O   0  0  0  0  0  0  0  0  0  0  0  0
   57.7130   30.5620   53.9500 C   0  0  0  0  0  0  0  0  0  0  0  0
   58.1120   32.0400   53.9920 C   0  0  0  0  0  0  0  0  0  0  0  0
   59.6300   33.8660   50.0770 C   0  0  0  0  0  0  0  0  0  0  0  0
   57.8160   31.7760   45.4790 C   0  0  0  0  0  0  0  0  0  0  0  0
   58.3760   27.2060   45.4040 C   0  0  0  0  0  0  0  0  0  0  0  0
   58.0610   26.3930   43.8180 S   0  0  0  0  0  0  0  0  0  0  0  0
   57.0320   25.1140   44.5470 C   0  0  0  0  0  0  0  0  0  0  0  0
   56.9140   23.8660   43.9250 C   0  0  0  0  0  0  0  0  0  0  0  0
   56.1240   22.8660   44.4950 C   0  0  0  0  0  0  0  0  0  0  0  0
   55.4170   23.1270   45.6750 C   0  0  0  0  0  0  0  0  0  0  0  0
   55.5100   24.3830   46.2870 C   0  0  0  0  0  0  0  0  0  0  0  0
   56.3130   25.3800   45.7240 C   0  0  0  0  0  0  0  0  0  0  0  0
   59.2800   26.6250   46.3120 C   0  0  0  0  0  0  0  0  0  0  0  0
   59.8910   25.3440   46.0290 C   0  0  0  0  0  0  0  0  0  0  0  0
   60.3810   24.3160   45.8110 N   0  0  0  0  0  0  0  0  0  0  0  0
   59.6240   27.3150   47.4860 C   0  0  0  0  0  0  0  0  0  0  0  0
   60.4570   26.8010   48.2890 O   0  0  0  0  0  0  0  0  0  0  0  0
   61.7453   31.3983   47.2350 H   0  0  0  0  0  0  0  0  0  0  0  0
   59.9948   30.8258   46.7471 H   0  0  0  0  0  0  0  0  0  0  0  0
   61.5988   30.1244   49.2877 H   0  0  0  0  0  0  0  0  0  0  0  0
   59.7563   28.6216   49.7537 H   0  0  0  0  0  0  0  0  0  0  0  0
   58.7159   29.9970   49.2406 H   0  0  0  0  0  0  0  0  0  0  0  0
   57.7602   30.0966   47.1241 H   0  0  0  0  0  0  0  0  0  0  0  0
   57.9826   31.9198   42.0629 H   0  0  0  0  0  0  0  0  0  0  0  0
   58.9850   34.1354   42.6074 H   0  0  0  0  0  0  0  0  0  0  0  0
   59.2466   34.8455   44.9816 H   0  0  0  0  0  0  0  0  0  0  0  0
   62.2690   34.2396   47.9348 H   0  0  0  0  0  0  0  0  0  0  0  0
   63.5260   33.8441   50.0530 H   0  0  0  0  0  0  0  0  0  0  0  0
   62.2941   33.4730   52.1902 H   0  0  0  0  0  0  0  0  0  0  0  0
   57.7032   32.8230   50.7644 H   0  0  0  0  0  0  0  0  0  0  0  0
   58.4710   31.1994   50.9900 H   0  0  0  0  0  0  0  0  0  0  0  0
   55.8309   32.1792   52.1732 H   0  0  0  0  0  0  0  0  0  0  0  0
   56.0892   30.8983   50.9083 H   0  0  0  0  0  0  0  0  0  0  0  0
   55.6473   30.3270   53.4676 H   0  0  0  0  0  0  0  0  0  0  0  0
   57.7320   28.8410   52.2660 H   0  0  0  0  0  0  0  0  0  0  0  0
   57.3527   30.2632   54.9454 H   0  0  0  0  0  0  0  0  0  0  0  0
   58.5985   29.9796   53.6555 H   0  0  0  0  0  0  0  0  0  0  0  0
   57.2470   32.6442   54.3032 H   0  0  0  0  0  0  0  0  0  0  0  0
   58.9336   32.1767   54.7105 H   0  0  0  0  0  0  0  0  0  0  0  0
   58.5302   33.8830   50.0884 H   0  0  0  0  0  0  0  0  0  0  0  0
   57.4888   31.1074   46.2889 H   0  0  0  0  0  0  0  0  0  0  0  0
   57.4464   23.6720   42.9822 H   0  0  0  0  0  0  0  0  0  0  0  0
   56.0572   21.8767   44.0188 H   0  0  0  0  0  0  0  0  0  0  0  0
   54.7872   22.3438   46.1222 H   0  0  0  0  0  0  0  0  0  0  0  0
   54.9505   24.5858   47.2121 H   0  0  0  0  0  0  0  0  0  0  0  0
   56.3813   26.3688   46.2011 H   0  0  0  0  0  0  0  0  0  0  0  0
  1  2  2  0
  2  3  1  0
  3  4  1  0
  4  5  1  0
  5  6  2  0
  6  7  1  0
  7  8  2  0
  7  9  1  0
  9 10  1  0
 10 11  2  0
 11 12  1  0
 12 13  2  0
 13 14  1  0
 14 15  1  0
 15 16  2  0
 15 17  1  0
 17 18  1  0
 18 19  2  0
 19 20  1  0
 20 21  2  0
 21 22  1  0
 22 23  1  0
 23 24  2  0
 23 25  1  0
 25 26  1  0
 26 27  1  0
 27 28  1  0
 28 29  1  0
 28 30  1  0
 30 31  1  0
 22 32  2  0
 14 33  2  0
  6 34  1  0
 34 35  1  0
 35 36  1  0
 36 37  2  0
 37 38  1  0
 38 39  2  0
 39 40  1  0
 40 41  2  0
 34 42  2  0
 42 43  1  0
 43 44  3  0
 42 45  1  0
 45 46  2  0
 45  4  1  0
 33 10  1  0
 41 36  1  0
 32 18  1  0
 31 25  1  0
  1 47  1  0
  1 48  1  0
  2 49  1  0
  3 50  1  0
  3 51  1  0
  5 52  1  0
 11 53  1  0
 12 54  1  0
 13 55  1  0
 19 56  1  0
 20 57  1  0
 21 58  1  0
 26 59  1  0
 26 60  1  0
 27 61  1  0
 27 62  1  0
 28 63  1  0
 29 64  1  0
 30 65  1  0
 30 66  1  0
 31 67  1  0
 31 68  1  0
 32 69  1  0
 33 70  1  0
 37 71  1  0
 38 72  1  0
 39 73  1  0
 40 74  1  0
 41 75  1  0
M  CHG  2   9  -1  17  -1
M  END
>  <UniqueID>  (42) 
38

>  <SMILES>  (42) 
C=CCn1cc(C(=O)[N-]c2cccc(C(=O)[N-]c3cccc(C(=O)N4CCC(O)CC4)c3)c2)c(Sc2ccccc2)c(C#N)c1=O

>  <Energy>  (42) 
100.37657936676834

>  <Genealogy>  (42) 
C=CCn1cc(C(=O)[N-]c2cccc(C(=O)[N-]c3cccc(C(=O)N4CCC(O)CC4)c3)c2)c(Sc2ccccc2)c(C#N)c1=O (protonated)
C=CCn1cc(C(=O)[N-]c2cccc(C(=O)[N-]c3cccc(C(=O)N4CCC(O)CC4)c3)c2)c(Sc2ccccc2)c(C#N)c1=O (3D coordinates assigned)
C=CCn1cc(C(=O)[N-]c2cccc(C(=O)[N-]c3cccc(C(=O)N4CCC(O)CC4)c3)c2)c(Sc2ccccc2)c(C#N)c1=O (nonaromatic ring conformer: 100.37657936676834 kcal/mol)

>  <smiles>  (42) 
C=CCn1cc(C(=O)Nc2cccc(C(=O)Nc3cccc(C(=O)N4CCC(O)CC4)c3)c2)c(Sc2ccccc2)c(C#N)c1=O

>  <score_type>  (42) 
oracle

>  <origin>  (42) 
adg

>  <m_score__min__energy>  (42) 
-13.859999999999999

>  <m_primary>  (42) 
energy

$$$$
43:0
     RDKit          3D

 79 83  0  0  0  0  0  0  0  0999 V2000
   59.7810   33.8810   49.8480 C   0  0  0  0  0  0  0  0  0  0  0  0
   58.8490   33.0160   48.9930 C   0  0  2  0  0  0  0  0  0  0  0  0
   59.3280   31.6320   48.9940 N   0  0  0  0  0  0  0  0  0  0  0  0
   59.5080   30.8720   50.2000 C   0  0  0  0  0  0  0  0  0  0  0  0
   59.1970   31.3700   51.3170 O   0  0  0  0  0  0  0  0  0  0  0  0
   60.0100   29.4560   50.1320 C   0  0  2  0  0  0  0  0  0  0  0  0
   61.5450   29.4420   50.0950 C   0  0  0  0  0  0  0  0  0  0  0  0
   62.0960   30.8280   50.2770 C   0  0  0  0  0  0  0  0  0  0  0  0
   62.4040   31.4410   51.4900 C   0  0  0  0  0  0  0  0  0  0  0  0
   63.0040   32.6350   51.2790 N   0  0  0  0  0  0  0  0  0  0  0  0
   63.0890   32.7760   49.9440 C   0  0  0  0  0  0  0  0  0  0  0  0
   63.6770   33.8290   49.2440 C   0  0  0  0  0  0  0  0  0  0  0  0
   63.7210   33.7430   47.8410 C   0  0  0  0  0  0  0  0  0  0  0  0
   63.1770   32.6220   47.1750 C   0  0  0  0  0  0  0  0  0  0  0  0
   62.5770   31.5830   47.9060 C   0  0  0  0  0  0  0  0  0  0  0  0
   62.5520   31.6930   49.2980 C   0  0  0  0  0  0  0  0  0  0  0  0
   59.4880   28.8070   48.9310 N   0  0  0  0  0  0  0  0  0  0  0  0
   60.0430   28.9500   47.6220 C   0  0  0  0  0  0  0  0  0  0  0  0
   60.5520   30.0450   47.2590 O   0  0  0  0  0  0  0  0  0  0  0  0
   59.9790   27.7750   46.6890 C   0  0  0  0  0  0  0  0  0  0  0  0
   58.6310   27.5610   46.1500 N   0  0  0  0  0  0  0  0  0  0  0  0
   57.5710   28.5420   46.3970 C   0  0  0  0  0  0  0  0  0  0  0  0
   57.4940   29.5200   45.2540 C   0  0  0  0  0  0  0  0  0  0  0  0
   58.6350   30.2460   44.8660 C   0  0  0  0  0  0  0  0  0  0  0  0
   58.5720   31.1440   43.7940 C   0  0  0  0  0  0  0  0  0  0  0  0
   57.3790   31.3080   43.0870 C   0  0  0  0  0  0  0  0  0  0  0  0
   56.2440   30.5800   43.4530 C   0  0  0  0  0  0  0  0  0  0  0  0
   56.2950   29.6860   44.5280 C   0  0  0  0  0  0  0  0  0  0  0  0
   55.1540   28.9660   44.8710 O   0  0  0  0  0  0  0  0  0  0  0  0
   58.3360   26.3400   45.4580 C   0  0  0  0  0  0  0  0  0  0  0  0
   58.5630   25.2380   46.0190 O   0  0  0  0  0  0  0  0  0  0  0  0
   57.8370   26.3930   44.0680 C   0  0  0  0  0  0  0  0  0  0  0  0
   57.3970   25.3380   43.3620 C   0  0  0  0  0  0  0  0  0  0  0  0
   56.7470   24.1390   43.9320 C   0  0  0  0  0  0  0  0  0  0  0  0
   55.8010   24.2950   44.9560 C   0  0  0  0  0  0  0  0  0  0  0  0
   55.1840   23.1750   45.5260 C   0  0  0  0  0  0  0  0  0  0  0  0
   55.5280   21.8920   45.0940 C   0  0  0  0  0  0  0  0  0  0  0  0
   56.5000   21.7260   44.1050 C   0  0  0  0  0  0  0  0  0  0  0  0
   57.1180   22.8410   43.5310 C   0  0  0  0  0  0  0  0  0  0  0  0
   58.6780   33.4970   47.5610 C   0  0  0  0  0  0  0  0  0  0  0  0
   59.7260   34.0860   46.8190 C   0  0  0  0  0  0  0  0  0  0  0  0
   59.5150   34.4990   45.4970 C   0  0  0  0  0  0  0  0  0  0  0  0
   58.2700   34.3100   44.8940 C   0  0  0  0  0  0  0  0  0  0  0  0
   57.2330   33.7060   45.6060 C   0  0  0  0  0  0  0  0  0  0  0  0
   57.4360   33.2980   46.9280 C   0  0  0  0  0  0  0  0  0  0  0  0
   59.5799   33.6943   50.9132 H   0  0  0  0  0  0  0  0  0  0  0  0
   60.8271   33.6265   49.6223 H   0  0  0  0  0  0  0  0  0  0  0  0
   59.6051   34.9431   49.6223 H   0  0  0  0  0  0  0  0  0  0  0  0
   57.8543   33.0935   49.4563 H   0  0  0  0  0  0  0  0  0  0  0  0
   59.4660   31.1510   48.0740 H   0  0  0  0  0  0  0  0  0  0  0  0
   59.6661   28.9119   51.0240 H   0  0  0  0  0  0  0  0  0  0  0  0
   61.9193   28.7962   50.9030 H   0  0  0  0  0  0  0  0  0  0  0  0
   61.8705   29.0589   49.1166 H   0  0  0  0  0  0  0  0  0  0  0  0
   62.1893   31.0137   52.4806 H   0  0  0  0  0  0  0  0  0  0  0  0
   63.3600   33.2920   52.0090 H   0  0  0  0  0  0  0  0  0  0  0  0
   64.0932   34.6993   49.7725 H   0  0  0  0  0  0  0  0  0  0  0  0
   64.1821   34.5540   47.2582 H   0  0  0  0  0  0  0  0  0  0  0  0
   63.2235   32.5624   46.0776 H   0  0  0  0  0  0  0  0  0  0  0  0
   62.1407   30.7104   47.3979 H   0  0  0  0  0  0  0  0  0  0  0  0
   60.6704   27.9508   45.8517 H   0  0  0  0  0  0  0  0  0  0  0  0
   60.2579   26.8775   47.2606 H   0  0  0  0  0  0  0  0  0  0  0  0
   56.6077   28.0199   46.4946 H   0  0  0  0  0  0  0  0  0  0  0  0
   57.7959   29.0892   47.3244 H   0  0  0  0  0  0  0  0  0  0  0  0
   59.5820   30.1072   45.4081 H   0  0  0  0  0  0  0  0  0  0  0  0
   59.4636   31.7213   43.5081 H   0  0  0  0  0  0  0  0  0  0  0  0
   57.3328   32.0105   42.2418 H   0  0  0  0  0  0  0  0  0  0  0  0
   55.3060   30.7103   42.8934 H   0  0  0  0  0  0  0  0  0  0  0  0
   57.8249   27.3746   43.5718 H   0  0  0  0  0  0  0  0  0  0  0  0
   57.5314   25.3690   42.2707 H   0  0  0  0  0  0  0  0  0  0  0  0
   55.5426   25.3028   45.3131 H   0  0  0  0  0  0  0  0  0  0  0  0
   54.4280   23.3054   46.3144 H   0  0  0  0  0  0  0  0  0  0  0  0
   55.0335   21.0127   45.5326 H   0  0  0  0  0  0  0  0  0  0  0  0
   56.7804   20.7143   43.7765 H   0  0  0  0  0  0  0  0  0  0  0  0
   57.8954   22.7042   42.7648 H   0  0  0  0  0  0  0  0  0  0  0  0
   60.7144   34.2213   47.2824 H   0  0  0  0  0  0  0  0  0  0  0  0
   60.3318   34.9731   44.9330 H   0  0  0  0  0  0  0  0  0  0  0  0
   58.1064   34.6375   43.8567 H   0  0  0  0  0  0  0  0  0  0  0  0
   56.2551   33.5507   45.1269 H   0  0  0  0  0  0  0  0  0  0  0  0
   56.6157   32.8159   47.4800 H   0  0  0  0  0  0  0  0  0  0  0  0
  1  2  1  0
  2  3  1  0
  3  4  1  0
  4  5  2  0
  4  6  1  0
  6  7  1  0
  7  8  1  0
  8  9  2  0
  9 10  1  0
 10 11  1  0
 11 12  2  0
 12 13  1  0
 13 14  2  0
 14 15  1  0
 15 16  2  0
  6 17  1  0
 17 18  1  0
 18 19  2  0
 18 20  1  0
 20 21  1  0
 21 22  1  0
 22 23  1  0
 23 24  2  0
 24 25  1  0
 25 26  2  0
 26 27  1  0
 27 28  2  0
 28 29  1  0
 21 30  1  0
 30 31  2  0
 30 32  1  0
 32 33  2  3
 33 34  1  0
 34 35  2  0
 35 36  1  0
 36 37  2  0
 37 38  1  0
 38 39  2  0
  2 40  1  0
 40 41  2  0
 41 42  1  0
 42 43  2  0
 43 44  1  0
 44 45  2  0
 16  8  1  0
 28 23  1  0
 39 34  1  0
 45 40  1  0
 16 11  1  0
  1 46  1  0
  1 47  1  0
  1 48  1  0
  2 49  1  1
  3 50  1  0
  6 51  1  1
  7 52  1  0
  7 53  1  0
  9 54  1  0
 10 55  1  0
 12 56  1  0
 13 57  1  0
 14 58  1  0
 15 59  1  0
 20 60  1  0
 20 61  1  0
 22 62  1  0
 22 63  1  0
 24 64  1  0
 25 65  1  0
 26 66  1  0
 27 67  1  0
 32 68  1  0
 33 69  1  0
 35 70  1  0
 36 71  1  0
 37 72  1  0
 38 73  1  0
 39 74  1  0
 41 75  1  0
 42 76  1  0
 43 77  1  0
 44 78  1  0
 45 79  1  0
M  CHG  2  17  -1  29  -1
M  END
>  <UniqueID>  (43) 
39

>  <SMILES>  (43) 
C[C@H](NC(=O)[C@H](Cc1c[nH]c2ccccc12)[N-]C(=O)CN(Cc1ccccc1[O-])C(=O)C=Cc1ccccc1)c1ccccc1

>  <Energy>  (43) 
120.26487763467242

>  <Genealogy>  (43) 
CC(NC(=O)C(Cc1c[nH]c2ccccc12)[N-]C(=O)CN(Cc1ccccc1[O-])C(=O)C=Cc1ccccc1)c1ccccc1 (protonated)
C[C@H](NC(=O)[C@H](Cc1c[nH]c2ccccc12)[N-]C(=O)CN(Cc1ccccc1[O-])C(=O)C=Cc1ccccc1)c1ccccc1 (chirality)
C[C@H](NC(=O)[C@H](Cc1c[nH]c2ccccc12)[N-]C(=O)CN(Cc1ccccc1[O-])C(=O)C=Cc1ccccc1)c1ccccc1 (3D coordinates assigned)
C[C@H](NC(=O)[C@H](Cc1c[nH]c2ccccc12)[N-]C(=O)CN(Cc1ccccc1[O-])C(=O)C=Cc1ccccc1)c1ccccc1 (optimized conformer: 120.26487763467242 kcal/mol)

>  <smiles>  (43) 
CC(NC(=O)C(Cc1c[nH]c2ccccc12)NC(=O)CN(Cc1ccccc1O)C(=O)C=Cc1ccccc1)c1ccccc1

>  <score_type>  (43) 
oracle

>  <origin>  (43) 
adg

>  <m_score__min__energy>  (43) 
-15.699999999999999

>  <m_primary>  (43) 
energy

$$$$
44:0
     RDKit          3D

 48 51  0  0  0  0  0  0  0  0999 V2000
   59.6257   26.4206   46.6599 H   0  0  0  0  0  0  0  0  0  0  0  0
   58.5380   26.3940   46.4980 C   0  0  0  0  0  0  0  0  0  0  0  0
   57.9150   27.4390   45.8920 N   0  0  0  0  0  0  0  0  0  0  0  0
   56.5740   27.4610   45.6620 C   0  0  0  0  0  0  0  0  0  0  0  0
   56.0790   28.5090   45.0590 N   0  0  0  0  0  0  0  0  0  0  0  0
   56.7830   29.5170   44.3180 C   0  0  0  0  0  0  0  0  0  0  0  0
   56.7780   29.4550   43.0590 O   0  0  0  0  0  0  0  0  0  0  0  0
   57.4390   30.6600   45.0010 C   0  0  0  0  0  0  0  0  0  0  0  0
   58.2530   30.4550   46.1290 C   0  0  0  0  0  0  0  0  0  0  0  0
   58.3983   29.4367   46.5189 H   0  0  0  0  0  0  0  0  0  0  0  0
   58.8790   31.5340   46.7590 C   0  0  0  0  0  0  0  0  0  0  0  0
   59.5085   31.3595   47.6441 H   0  0  0  0  0  0  0  0  0  0  0  0
   58.7100   32.8390   46.2700 C   0  0  0  0  0  0  0  0  0  0  0  0
   59.3690   33.9820   46.9380 C   0  0  0  0  0  0  0  0  0  0  0  0
   58.8420   35.1260   46.8640 O   0  0  0  0  0  0  0  0  0  0  0  0
   60.6000   33.8150   47.6650 N   0  0  0  0  0  0  0  0  0  0  0  0
   61.7120   33.0940   47.0260 C   0  0  0  0  0  0  0  0  0  0  0  0
   61.4538   32.0268   46.9604 H   0  0  0  0  0  0  0  0  0  0  0  0
   61.8694   33.5241   46.0259 H   0  0  0  0  0  0  0  0  0  0  0  0
   63.0170   33.2420   47.8210 C   0  0  0  0  0  0  0  0  0  0  0  0
   63.7503   32.5159   47.4401 H   0  0  0  0  0  0  0  0  0  0  0  0
   63.3794   34.2729   47.6948 H   0  0  0  0  0  0  0  0  0  0  0  0
   62.8000   32.9890   49.3360 C   0  0  0  0  0  0  0  0  0  0  0  0
   62.5890   31.5260   49.5760 C   0  0  0  0  0  0  0  0  0  0  0  0
   61.5190   30.9120   49.3230 O   0  0  0  0  0  0  0  0  0  0  0  0
   63.7190   30.8700   50.1120 N   0  0  0  0  0  0  0  0  0  0  0  0
   64.7880   31.8370   50.2540 C   0  0  0  0  0  0  0  0  0  0  0  0
   65.5455   31.6875   49.4706 H   0  0  0  0  0  0  0  0  0  0  0  0
   65.2979   31.7354   51.2234 H   0  0  0  0  0  0  0  0  0  0  0  0
   64.1310   33.2170   50.1050 C   0  0  0  0  0  0  0  0  0  0  0  0
   64.7880   33.8917   49.5365 H   0  0  0  0  0  0  0  0  0  0  0  0
   63.9502   33.6804   51.0861 H   0  0  0  0  0  0  0  0  0  0  0  0
   61.6270   33.8490   49.9180 C   0  0  0  0  0  0  0  0  0  0  0  0
   60.9264   33.1757   50.4336 H   0  0  0  0  0  0  0  0  0  0  0  0
   62.0785   34.5880   50.5963 H   0  0  0  0  0  0  0  0  0  0  0  0
   60.8470   34.6370   48.8550 C   0  0  0  0  0  0  0  0  0  0  0  0
   59.8829   34.9549   49.2787 H   0  0  0  0  0  0  0  0  0  0  0  0
   61.4454   35.5110   48.5584 H   0  0  0  0  0  0  0  0  0  0  0  0
   57.8750   33.0500   45.1640 C   0  0  0  0  0  0  0  0  0  0  0  0
   57.7118   34.0717   44.7905 H   0  0  0  0  0  0  0  0  0  0  0  0
   57.2480   31.9720   44.5320 C   0  0  0  0  0  0  0  0  0  0  0  0
   56.6003   32.1514   43.6612 H   0  0  0  0  0  0  0  0  0  0  0  0
   55.7880   26.3650   46.1040 C   0  0  0  0  0  0  0  0  0  0  0  0
   54.4040   26.3410   45.9800 O   0  0  0  0  0  0  0  0  0  0  0  0
   56.4190   25.2790   46.7180 C   0  0  0  0  0  0  0  0  0  0  0  0
   55.8246   24.4140   47.0473 H   0  0  0  0  0  0  0  0  0  0  0  0
   57.7980   25.2890   46.9140 C   0  0  0  0  0  0  0  0  0  0  0  0
   58.2976   24.4336   47.3922 H   0  0  0  0  0  0  0  0  0  0  0  0
  1  2  1  0
  2  3  1  0
  3  4  1  0
  4  5  2  0
  5  6  1  0
  6  7  2  0
  6  8  1  0
  8  9  2  0
  9 10  1  0
  9 11  1  0
 11 12  1  0
 11 13  2  0
 13 14  1  0
 14 15  2  0
 14 16  1  0
 16 17  1  0
 17 18  1  0
 17 19  1  0
 17 20  1  0
 20 21  1  0
 20 22  1  0
 20 23  1  0
 23 24  1  0
 24 25  2  0
 24 26  1  0
 26 27  1  0
 27 28  1  0
 27 29  1  0
 27 30  1  0
 30 31  1  0
 30 32  1  0
 23 33  1  0
 33 34  1  0
 33 35  1  0
 33 36  1  0
 36 37  1  0
 36 38  1  0
 13 39  1  0
 39 40  1  0
 39 41  2  0
 41 42  1  0
  4 43  1  0
 43 44  1  0
 43 45  2  0
 45 46  1  0
 45 47  1  0
 47 48  1  0
 47  2  2  0
 41  8  1  0
 36 16  1  0
 30 23  1  0
M  CHG  3   3  -1  26  -1  44  -1
M  END
>  <UniqueID>  (44) 
40

>  <SMILES>  (44) 
O=C(/N=c1/[n-]cccc1[O-])c1ccc(C(=O)N2CCC3(CC[N-]C3=O)CC2)cc1

>  <Energy>  (44) 
83.83589665336403

>  <Genealogy>  (44) 
O=C(N=c1[n-]cccc1[O-])c1ccc(C(=O)N2CCC3(CC[N-]C3=O)CC2)cc1 (protonated)
O=C(/N=c1/[n-]cccc1[O-])c1ccc(C(=O)N2CCC3(CC[N-]C3=O)CC2)cc1 (cis-trans isomerization)
O=C(/N=c1/[n-]cccc1[O-])c1ccc(C(=O)N2CCC3(CC[N-]C3=O)CC2)cc1 (3D coordinates assigned)
O=C(/N=c1/[n-]cccc1[O-])c1ccc(C(=O)N2CCC3(CC[N-]C3=O)CC2)cc1 (nonaromatic ring conformer: 83.83589665336403 kcal/mol)

>  <smiles>  (44) 
O=C(N=c1[nH]cccc1O)c1ccc(C(=O)N2CCC3(CCNC3=O)CC2)cc1

>  <score_type>  (44) 
oracle

>  <origin>  (44) 
adg

>  <m_score__min__energy>  (44) 
-15.529999999999999

>  <m_primary>  (44) 
energy

$$$$
45:0
     RDKit          3D

 55 58  0  0  0  0  0  0  0  0999 V2000
   66.2812   26.2266   52.8633 H   0  0  0  0  0  0  0  0  0  0  0  0
   65.2160   25.9680   52.9550 C   0  0  0  0  0  0  0  0  0  0  0  0
   64.7760   25.1870   54.0290 C   0  0  0  0  0  0  0  0  0  0  0  0
   65.4956   24.8321   54.7814 H   0  0  0  0  0  0  0  0  0  0  0  0
   63.4220   24.8570   54.1470 C   0  0  0  0  0  0  0  0  0  0  0  0
   63.0817   24.2365   54.9891 H   0  0  0  0  0  0  0  0  0  0  0  0
   62.4930   25.3140   53.1950 C   0  0  0  0  0  0  0  0  0  0  0  0
   61.0460   24.9120   53.3060 C   0  0  0  0  0  0  0  0  0  0  0  0
   60.9511   24.0893   54.0300 H   0  0  0  0  0  0  0  0  0  0  0  0
   60.6857   24.5846   52.3196 H   0  0  0  0  0  0  0  0  0  0  0  0
   60.2240   26.0770   53.7680 C   0  0  0  0  0  0  0  0  0  0  0  0
   59.8600   26.1350   54.9740 O   0  0  0  0  0  0  0  0  0  0  0  0
   59.8350   27.0990   52.8350 N   0  0  0  0  0  0  0  0  0  0  0  0
   60.2220   27.0500   51.8660 H   0  0  0  0  0  0  0  0  0  0  0  0
   58.8960   28.1420   53.1480 C   0  0  0  0  0  0  0  0  0  0  0  0
   58.1380   28.0260   54.1490 O   0  0  0  0  0  0  0  0  0  0  0  0
   58.7800   29.3420   52.2860 C   0  0  0  0  0  0  0  0  0  0  0  0
   57.6680   30.1930   52.4070 C   0  0  0  0  0  0  0  0  0  0  0  0
   56.8842   29.9658   53.1446 H   0  0  0  0  0  0  0  0  0  0  0  0
   57.5510   31.3270   51.5960 C   0  0  0  0  0  0  0  0  0  0  0  0
   56.6768   31.9862   51.7024 H   0  0  0  0  0  0  0  0  0  0  0  0
   58.5370   31.6290   50.6510 C   0  0  0  0  0  0  0  0  0  0  0  0
   58.3870   32.7820   49.8670 O   0  0  0  0  0  0  0  0  0  0  0  0
   58.8670   32.9470   48.5590 C   0  0  0  0  0  0  0  0  0  0  0  0
   60.2040   33.2920   48.2960 C   0  0  0  0  0  0  0  0  0  0  0  0
   60.9047   33.4474   49.1296 H   0  0  0  0  0  0  0  0  0  0  0  0
   60.6450   33.4380   46.9790 C   0  0  0  0  0  0  0  0  0  0  0  0
   61.6885   33.7226   46.7789 H   0  0  0  0  0  0  0  0  0  0  0  0
   59.7660   33.2240   45.9150 C   0  0  0  0  0  0  0  0  0  0  0  0
   60.1184   33.3511   44.8807 H   0  0  0  0  0  0  0  0  0  0  0  0
   58.4330   32.8470   46.1580 C   0  0  0  0  0  0  0  0  0  0  0  0
   57.4940   32.5990   45.0320 C   0  0  0  0  0  0  0  0  0  0  0  0
   57.3400   33.4740   44.1390 O   0  0  0  0  0  0  0  0  0  0  0  0
   56.8110   31.3460   44.8920 N   0  0  0  0  0  0  0  0  0  0  0  0
   57.3220   30.1430   44.9040 C   0  0  0  0  0  0  0  0  0  0  0  0
   56.5350   28.9620   44.9410 C   0  0  0  0  0  0  0  0  0  0  0  0
   55.1460   28.9910   44.9150 O   0  0  0  0  0  0  0  0  0  0  0  0
   57.1720   27.7180   44.9740 C   0  0  0  0  0  0  0  0  0  0  0  0
   56.5729   26.7967   45.0215 H   0  0  0  0  0  0  0  0  0  0  0  0
   58.5620   27.6410   44.9470 C   0  0  0  0  0  0  0  0  0  0  0  0
   59.0658   26.6636   44.9767 H   0  0  0  0  0  0  0  0  0  0  0  0
   59.3070   28.8160   44.8820 C   0  0  0  0  0  0  0  0  0  0  0  0
   60.4055   28.7668   44.8515 H   0  0  0  0  0  0  0  0  0  0  0  0
   58.6820   30.0250   44.8560 N   0  0  0  0  0  0  0  0  0  0  0  0
   59.2750   30.8870   44.8120 H   0  0  0  0  0  0  0  0  0  0  0  0
   57.9950   32.7120   47.4890 C   0  0  0  0  0  0  0  0  0  0  0  0
   56.9544   32.4181   47.6910 H   0  0  0  0  0  0  0  0  0  0  0  0
   59.6690   30.8020   50.5510 C   0  0  0  0  0  0  0  0  0  0  0  0
   60.4664   31.0494   49.8348 H   0  0  0  0  0  0  0  0  0  0  0  0
   59.7860   29.6660   51.3580 C   0  0  0  0  0  0  0  0  0  0  0  0
   60.6720   29.0206   51.2663 H   0  0  0  0  0  0  0  0  0  0  0  0
   62.9440   26.0930   52.1110 C   0  0  0  0  0  0  0  0  0  0  0  0
   62.0760   26.5320   51.1630 F   0  0  0  0  0  0  0  0  0  0  0  0
   64.3020   26.4200   51.9980 C   0  0  0  0  0  0  0  0  0  0  0  0
   64.6500   27.0339   51.1542 H   0  0  0  0  0  0  0  0  0  0  0  0
  1  2  1  0
  2  3  2  0
  3  4  1  0
  3  5  1  0
  5  6  1  0
  5  7  2  0
  7  8  1  0
  8  9  1  0
  8 10  1  0
  8 11  1  0
 11 12  2  0
 11 13  1  0
 13 14  1  0
 13 15  1  0
 15 16  2  0
 15 17  1  0
 17 18  2  0
 18 19  1  0
 18 20  1  0
 20 21  1  0
 20 22  2  0
 22 23  1  0
 23 24  1  0
 24 25  2  0
 25 26  1  0
 25 27  1  0
 27 28  1  0
 27 29  2  0
 29 30  1  0
 29 31  1  0
 31 32  1  0
 32 33  2  0
 32 34  1  0
 34 35  2  0
 35 36  1  0
 36 37  1  0
 36 38  2  0
 38 39  1  0
 38 40  1  0
 40 41  1  0
 40 42  2  0
 42 43  1  0
 42 44  1  0
 44 45  1  0
 31 46  2  0
 46 47  1  0
 22 48  1  0
 48 49  1  0
 48 50  2  0
 50 51  1  0
  7 52  1  0
 52 53  1  0
 52 54  2  0
 54 55  1  0
 54  2  1  0
 50 17  1  0
 46 24  1  0
 44 35  1  0
M  CHG  1  37  -1
M  END
>  <UniqueID>  (45) 
41

>  <SMILES>  (45) 
O=C(Cc1ccccc1F)NC(=O)c1ccc(Oc2cccc(C(=O)/N=c3/[nH]cccc3[O-])c2)cc1

>  <Energy>  (45) 
82.23214960706377

>  <Genealogy>  (45) 
O=C(Cc1ccccc1F)NC(=O)c1ccc(Oc2cccc(C(=O)N=c3[nH]cccc3[O-])c2)cc1 (protonated)
O=C(Cc1ccccc1F)NC(=O)c1ccc(Oc2cccc(C(=O)/N=c3/[nH]cccc3[O-])c2)cc1 (cis-trans isomerization)
O=C(Cc1ccccc1F)NC(=O)c1ccc(Oc2cccc(C(=O)/N=c3/[nH]cccc3[O-])c2)cc1 (3D coordinates assigned)
O=C(Cc1ccccc1F)NC(=O)c1ccc(Oc2cccc(C(=O)/N=c3/[nH]cccc3[O-])c2)cc1 (optimized conformer: 82.23214960706377 kcal/mol)

>  <smiles>  (45) 
O=C(Cc1ccccc1F)NC(=O)c1ccc(Oc2cccc(C(=O)N=c3[nH]cccc3O)c2)cc1

>  <score_type>  (45) 
oracle

>  <origin>  (45) 
adg

>  <m_score__min__energy>  (45) 
-13.48

>  <m_primary>  (45) 
energy

$$$$
46:0
     RDKit          3D

 50 52  0  0  0  0  0  0  0  0999 V2000
   57.0300   23.4660   44.2850 C   0  0  0  0  0  0  0  0  0  0  0  0
   57.0040   24.4230   45.3490 O   0  0  0  0  0  0  0  0  0  0  0  0
   57.2870   25.7320   44.9890 C   0  0  0  0  0  0  0  0  0  0  0  0
   57.7880   26.0280   43.7410 C   0  0  0  0  0  0  0  0  0  0  0  0
   58.0730   27.3470   43.3750 C   0  0  0  0  0  0  0  0  0  0  0  0
   57.8750   28.4060   44.2250 C   0  0  0  0  0  0  0  0  0  0  0  0
   58.1380   29.7590   43.9200 N   0  0  0  0  0  0  0  0  0  0  0  0
   57.3320   30.8610   44.2270 C   0  0  0  0  0  0  0  0  0  0  0  0
   56.2470   30.7620   44.8270 O   0  0  0  0  0  0  0  0  0  0  0  0
   57.7380   32.2610   43.8380 C   0  0  0  0  0  0  0  0  0  0  0  0
   58.2280   32.9560   45.0590 C   0  0  0  0  0  0  0  0  0  0  0  0
   58.8300   34.1900   44.9450 C   0  0  0  0  0  0  0  0  0  0  0  0
   59.2830   34.8220   46.0820 C   0  0  0  0  0  0  0  0  0  0  0  0
   59.8460   35.9630   46.0400 O   0  0  0  0  0  0  0  0  0  0  0  0
   59.1240   34.2160   47.2710 N   0  0  0  0  0  0  0  0  0  0  0  0
   58.5300   32.9950   47.3920 C   0  0  0  0  0  0  0  0  0  0  0  0
   58.4050   32.3280   49.0300 S   0  0  0  0  0  0  0  0  0  0  0  0
   59.9560   32.4370   49.9360 C   0  0  0  0  0  0  0  0  0  0  0  0
   60.9640   33.3090   49.3770 C   0  0  0  0  0  0  0  0  0  0  0  0
   60.6760   34.5770   49.3710 O   0  0  0  0  0  0  0  0  0  0  0  0
   62.2210   33.0080   48.8270 N   0  0  0  0  0  0  0  0  0  0  0  0
   63.1200   34.0740   48.3350 C   0  0  0  0  0  0  0  0  0  0  0  0
   63.3510   33.5290   46.9180 C   0  0  0  0  0  0  0  0  0  0  0  0
   63.4260   32.0310   47.1250 C   0  0  0  0  0  0  0  0  0  0  0  0
   62.9380   31.7910   48.5650 C   0  0  0  0  0  0  0  0  0  0  0  0
   58.1070   32.4170   46.2720 N   0  0  0  0  0  0  0  0  0  0  0  0
   57.3710   28.1010   45.4800 C   0  0  0  0  0  0  0  0  0  0  0  0
   57.0890   26.8010   45.8430 C   0  0  0  0  0  0  0  0  0  0  0  0
   57.0576   22.4502   44.7061 H   0  0  0  0  0  0  0  0  0  0  0  0
   56.1284   23.5818   43.6656 H   0  0  0  0  0  0  0  0  0  0  0  0
   57.9240   23.6306   43.6656 H   0  0  0  0  0  0  0  0  0  0  0  0
   57.9665   25.2151   43.0217 H   0  0  0  0  0  0  0  0  0  0  0  0
   58.4707   27.5431   42.3683 H   0  0  0  0  0  0  0  0  0  0  0  0
   59.0410   29.9750   43.4040 H   0  0  0  0  0  0  0  0  0  0  0  0
   58.5387   32.2214   43.0848 H   0  0  0  0  0  0  0  0  0  0  0  0
   56.8809   32.8014   43.4098 H   0  0  0  0  0  0  0  0  0  0  0  0
   58.9473   34.6641   43.9594 H   0  0  0  0  0  0  0  0  0  0  0  0
   59.4790   34.7250   48.1120 H   0  0  0  0  0  0  0  0  0  0  0  0
   59.7272   32.7961   50.9502 H   0  0  0  0  0  0  0  0  0  0  0  0
   60.3890   31.4265   49.8990 H   0  0  0  0  0  0  0  0  0  0  0  0
   62.6311   35.0594   48.3270 H   0  0  0  0  0  0  0  0  0  0  0  0
   64.0247   34.2545   48.9341 H   0  0  0  0  0  0  0  0  0  0  0  0
   62.5149   33.7930   46.2538 H   0  0  0  0  0  0  0  0  0  0  0  0
   64.2522   33.9419   46.4411 H   0  0  0  0  0  0  0  0  0  0  0  0
   62.7756   31.5104   46.4067 H   0  0  0  0  0  0  0  0  0  0  0  0
   64.4453   31.6477   46.9699 H   0  0  0  0  0  0  0  0  0  0  0  0
   62.2772   30.9137   48.6251 H   0  0  0  0  0  0  0  0  0  0  0  0
   63.7434   31.5796   49.2837 H   0  0  0  0  0  0  0  0  0  0  0  0
   57.1925   28.9125   46.2008 H   0  0  0  0  0  0  0  0  0  0  0  0
   56.6915   26.6072   46.8502 H   0  0  0  0  0  0  0  0  0  0  0  0
  1  2  1  0
  2  3  1  0
  3  4  2  0
  4  5  1  0
  5  6  2  0
  6  7  1  0
  7  8  1  0
  8  9  2  0
  8 10  1  0
 10 11  1  0
 11 12  2  0
 12 13  1  0
 13 14  2  0
 13 15  1  0
 15 16  1  0
 16 17  1  0
 17 18  1  0
 18 19  1  0
 19 20  2  0
 19 21  1  0
 21 22  1  0
 22 23  1  0
 23 24  1  0
 24 25  1  0
 16 26  2  0
  6 27  1  0
 27 28  2  0
 28  3  1  0
 26 11  1  0
 25 21  1  0
  1 29  1  0
  1 30  1  0
  1 31  1  0
  4 32  1  0
  5 33  1  0
  7 34  1  0
 10 35  1  0
 10 36  1  0
 12 37  1  0
 15 38  1  0
 18 39  1  0
 18 40  1  0
 22 41  1  0
 22 42  1  0
 23 43  1  0
 23 44  1  0
 24 45  1  0
 24 46  1  0
 25 47  1  0
 25 48  1  0
 27 49  1  0
 28 50  1  0
M  END
>  <smiles>  (46) 
COc1ccc(NC(=O)Cc2cc(=O)[nH]c(SCC(=O)N3CCCC3)n2)cc1

>  <score_type>  (46) 
oracle

>  <origin>  (46) 
adg

>  <m_score__min__energy>  (46) 
-8.5

>  <m_primary>  (46) 
energy

$$$$
47:0
     RDKit          3D

 37 39  0  0  0  0  0  0  0  0999 V2000
   57.4770   31.1800   43.2620 O   0  0  0  0  0  0  0  0  0  0  0  0
   57.2080   30.9490   44.4700 C   0  0  0  0  0  0  0  0  0  0  0  0
   57.0190   32.0630   45.3560 N   0  0  0  0  0  0  0  0  0  0  0  0
   57.8660   33.0060   45.6730 C   0  0  0  0  0  0  0  0  0  0  0  0
   58.1870   33.9170   44.7130 N   0  0  0  0  0  0  0  0  0  0  0  0
   59.0800   34.9180   44.9240 C   0  0  0  0  0  0  0  0  0  0  0  0
   59.7070   35.0470   46.1610 C   0  0  0  0  0  0  0  0  0  0  0  0
   59.3900   34.1520   47.1800 C   0  0  0  0  0  0  0  0  0  0  0  0
   58.4530   33.1370   46.9590 C   0  0  0  0  0  0  0  0  0  0  0  0
   58.0980   32.3230   48.0280 O   0  0  0  0  0  0  0  0  0  0  0  0
   57.1980   29.5510   44.9780 C   0  0  0  0  0  0  0  0  0  0  0  0
   58.3940   28.9480   45.3970 C   0  0  0  0  0  0  0  0  0  0  0  0
   58.3950   27.6660   45.9620 C   0  0  0  0  0  0  0  0  0  0  0  0
   59.6860   27.0970   46.5010 C   0  0  0  0  0  0  0  0  0  0  0  0
   60.0540   27.7860   47.7880 C   0  0  0  0  0  0  0  0  0  0  0  0
   60.4500   27.0300   48.9040 C   0  0  0  0  0  0  0  0  0  0  0  0
   60.7380   27.6640   50.1170 C   0  0  0  0  0  0  0  0  0  0  0  0
   60.6290   29.0520   50.2270 C   0  0  0  0  0  0  0  0  0  0  0  0
   60.2290   29.8150   49.1260 C   0  0  0  0  0  0  0  0  0  0  0  0
   60.1230   31.1990   49.2500 O   0  0  0  0  0  0  0  0  0  0  0  0
   59.9360   29.1820   47.9100 C   0  0  0  0  0  0  0  0  0  0  0  0
   57.1730   26.9800   46.0700 C   0  0  0  0  0  0  0  0  0  0  0  0
   57.1220   25.8280   46.5780 O   0  0  0  0  0  0  0  0  0  0  0  0
   56.0280   27.5610   45.6280 N   0  0  0  0  0  0  0  0  0  0  0  0
   56.0050   28.8110   45.0930 C   0  0  0  0  0  0  0  0  0  0  0  0
   54.7870   29.3460   44.6900 O   0  0  0  0  0  0  0  0  0  0  0  0
   59.3087   35.6286   44.1161 H   0  0  0  0  0  0  0  0  0  0  0  0
   60.4436   35.8460   46.3311 H   0  0  0  0  0  0  0  0  0  0  0  0
   59.8779   34.2435   48.1616 H   0  0  0  0  0  0  0  0  0  0  0  0
   59.3442   29.4897   45.2801 H   0  0  0  0  0  0  0  0  0  0  0  0
   59.5599   26.0202   46.6872 H   0  0  0  0  0  0  0  0  0  0  0  0
   60.4868   27.2566   45.7639 H   0  0  0  0  0  0  0  0  0  0  0  0
   60.5338   25.9362   48.8236 H   0  0  0  0  0  0  0  0  0  0  0  0
   61.0512   27.0678   50.9867 H   0  0  0  0  0  0  0  0  0  0  0  0
   60.8585   29.5462   51.1826 H   0  0  0  0  0  0  0  0  0  0  0  0
   59.3660   31.7130   48.8150 H   0  0  0  0  0  0  0  0  0  0  0  0
   59.6119   29.7808   47.0461 H   0  0  0  0  0  0  0  0  0  0  0  0
  1  2  2  0
  2  3  1  0
  3  4  2  3
  4  5  1  0
  5  6  1  0
  6  7  2  0
  7  8  1  0
  8  9  2  0
  9 10  1  0
  2 11  1  0
 11 12  1  0
 12 13  2  0
 13 14  1  0
 14 15  1  0
 15 16  2  0
 16 17  1  0
 17 18  2  0
 18 19  1  0
 19 20  1  0
 19 21  2  0
 13 22  1  0
 22 23  2  0
 22 24  1  0
 24 25  1  0
 25 26  1  0
  9  4  1  0
 25 11  2  0
 21 15  1  0
  6 27  1  0
  7 28  1  0
  8 29  1  0
 12 30  1  0
 14 31  1  0
 14 32  1  0
 16 33  1  0
 17 34  1  0
 18 35  1  0
 20 36  1  0
 21 37  1  0
M  CHG  4   5  -1  10  -1  24  -1  26  -1
M  END
>  <UniqueID>  (47) 
42

>  <SMILES>  (47) 
O=C(N=c1[n-]cccc1[O-])c1cc(Cc2cccc(O)c2)c(=O)[n-]c1[O-]

>  <Energy>  (47) 
53.502423930754546

>  <Genealogy>  (47) 
O=C(N=c1[n-]cccc1[O-])c1cc(Cc2cccc(O)c2)c(=O)[n-]c1[O-] (protonated)
O=C(N=c1[n-]cccc1[O-])c1cc(Cc2cccc(O)c2)c(=O)[n-]c1[O-] (3D coordinates assigned)
O=C(N=c1[n-]cccc1[O-])c1cc(Cc2cccc(O)c2)c(=O)[n-]c1[O-] (optimized conformer: 53.502423930754546 kcal/mol)

>  <smiles>  (47) 
O=C(N=c1[nH]cccc1O)c1cc(Cc2cccc(O)c2)c(=O)[nH]c1O

>  <score_type>  (47) 
oracle

>  <origin>  (47) 
adg

>  <m_score__min__energy>  (47) 
-17.399999999999999

>  <m_primary>  (47) 
energy

$$$$
48:0
     RDKit          3D

 50 53  0  0  0  0  0  0  0  0999 V2000
   59.3300   33.5410   49.5180 O   0  0  0  0  0  0  0  0  0  0  0  0
   59.6550   34.3500   48.6110 C   0  0  0  0  0  0  0  0  0  0  0  0
   59.2500   34.1190   47.2050 C   0  0  0  0  0  0  0  0  0  0  0  0
   59.5870   35.0780   46.2330 C   0  0  0  0  0  0  0  0  0  0  0  0
   59.2540   34.8830   44.8950 C   0  0  0  0  0  0  0  0  0  0  0  0
   58.5750   33.7340   44.5000 C   0  0  0  0  0  0  0  0  0  0  0  0
   58.2170   32.7570   45.4450 C   0  0  0  0  0  0  0  0  0  0  0  0
   57.4680   31.5540   44.9970 C   0  0  0  0  0  0  0  0  0  0  0  0
   56.2280   31.6290   44.7700 O   0  0  0  0  0  0  0  0  0  0  0  0
   58.1040   30.2740   44.9150 N   0  0  0  0  0  0  0  0  0  0  0  0
   57.8570   29.2230   45.6460 C   0  0  0  0  0  0  0  0  0  0  0  0
   56.8930   28.2900   45.3290 C   0  0  0  0  0  0  0  0  0  0  0  0
   57.0290   27.3190   46.3150 C   0  0  0  0  0  0  0  0  0  0  0  0
   56.2440   26.0680   46.3960 C   0  0  0  0  0  0  0  0  0  0  0  0
   56.7640   25.0650   46.9540 O   0  0  0  0  0  0  0  0  0  0  0  0
   54.8990   25.9510   45.9040 N   0  0  0  0  0  0  0  0  0  0  0  0
   54.1740   24.7280   45.5650 C   0  0  0  0  0  0  0  0  0  0  0  0
   55.0790   23.7250   44.9020 C   0  0  0  0  0  0  0  0  0  0  0  0
   55.7910   24.0580   43.7390 C   0  0  0  0  0  0  0  0  0  0  0  0
   56.6350   23.1050   43.1580 C   0  0  0  0  0  0  0  0  0  0  0  0
   56.7740   21.8440   43.7460 C   0  0  0  0  0  0  0  0  0  0  0  0
   56.0620   21.5530   44.9110 C   0  0  0  0  0  0  0  0  0  0  0  0
   55.2440   22.4920   45.4620 N   0  0  0  0  0  0  0  0  0  0  0  0
   58.0230   27.6630   47.1670 N   0  0  0  0  0  0  0  0  0  0  0  0
   58.5240   28.8200   46.7640 N   0  0  0  0  0  0  0  0  0  0  0  0
   59.5930   29.4540   47.4690 C   0  0  0  0  0  0  0  0  0  0  0  0
   60.5660   30.1700   46.7610 C   0  0  0  0  0  0  0  0  0  0  0  0
   61.5730   30.8500   47.4480 C   0  0  0  0  0  0  0  0  0  0  0  0
   61.5970   30.8410   48.8460 C   0  0  0  0  0  0  0  0  0  0  0  0
   60.6150   30.1470   49.5560 C   0  0  0  0  0  0  0  0  0  0  0  0
   59.6120   29.4550   48.8700 C   0  0  0  0  0  0  0  0  0  0  0  0
   58.5470   32.9510   46.8090 C   0  0  0  0  0  0  0  0  0  0  0  0
   58.1240   31.9990   47.7460 O   0  0  0  0  0  0  0  0  0  0  0  0
   60.2479   35.2409   48.8655 H   0  0  0  0  0  0  0  0  0  0  0  0
   60.1197   35.9924   46.5331 H   0  0  0  0  0  0  0  0  0  0  0  0
   59.5289   35.6408   44.1466 H   0  0  0  0  0  0  0  0  0  0  0  0
   58.3167   33.5895   43.4406 H   0  0  0  0  0  0  0  0  0  0  0  0
   56.1813   28.3092   44.4905 H   0  0  0  0  0  0  0  0  0  0  0  0
   53.7634   24.2874   46.4855 H   0  0  0  0  0  0  0  0  0  0  0  0
   53.3661   24.9849   44.8641 H   0  0  0  0  0  0  0  0  0  0  0  0
   55.6867   25.0566   43.2895 H   0  0  0  0  0  0  0  0  0  0  0  0
   57.1889   23.3477   42.2391 H   0  0  0  0  0  0  0  0  0  0  0  0
   57.4366   21.0901   43.2959 H   0  0  0  0  0  0  0  0  0  0  0  0
   56.1618   20.5649   45.3840 H   0  0  0  0  0  0  0  0  0  0  0  0
   60.5368   30.1966   45.6617 H   0  0  0  0  0  0  0  0  0  0  0  0
   62.3487   31.3937   46.8888 H   0  0  0  0  0  0  0  0  0  0  0  0
   62.3890   31.3803   49.3863 H   0  0  0  0  0  0  0  0  0  0  0  0
   60.6305   30.1447   50.6559 H   0  0  0  0  0  0  0  0  0  0  0  0
   58.8375   28.9111   49.4306 H   0  0  0  0  0  0  0  0  0  0  0  0
   58.5300   31.8910   48.6650 H   0  0  0  0  0  0  0  0  0  0  0  0
  1  2  2  0
  2  3  1  0
  3  4  2  0
  4  5  1  0
  5  6  2  0
  6  7  1  0
  7  8  1  0
  8  9  2  0
  8 10  1  0
 10 11  2  3
 11 12  1  0
 12 13  2  0
 13 14  1  0
 14 15  2  0
 14 16  1  0
 16 17  1  0
 17 18  1  0
 18 19  2  0
 19 20  1  0
 20 21  2  0
 21 22  1  0
 22 23  2  0
 13 24  1  0
 24 25  1  0
 25 26  1  0
 26 27  2  0
 27 28  1  0
 28 29  2  0
 29 30  1  0
 30 31  2  0
  7 32  2  0
 32 33  1  0
 32  3  1  0
 25 11  1  0
 31 26  1  0
 23 18  1  0
  2 34  1  0
  4 35  1  0
  5 36  1  0
  6 37  1  0
 12 38  1  0
 17 39  1  0
 17 40  1  0
 19 41  1  0
 20 42  1  0
 21 43  1  0
 22 44  1  0
 27 45  1  0
 28 46  1  0
 29 47  1  0
 30 48  1  0
 31 49  1  0
 33 50  1  0
M  CHG  2  16  -1  24  -1
M  END
>  <UniqueID>  (48) 
43

>  <SMILES>  (48) 
O=Cc1cccc(C(=O)N=c2cc(C(=O)[N-]Cc3ccccn3)[n-]n2-c2ccccc2)c1O

>  <Energy>  (48) 
106.47860028214822

>  <Genealogy>  (48) 
O=Cc1cccc(C(=O)N=c2cc(C(=O)[N-]Cc3ccccn3)[n-]n2-c2ccccc2)c1O (protonated)
O=Cc1cccc(C(=O)N=c2cc(C(=O)[N-]Cc3ccccn3)[n-]n2-c2ccccc2)c1O (3D coordinates assigned)
O=Cc1cccc(C(=O)N=c2cc(C(=O)[N-]Cc3ccccn3)[n-]n2-c2ccccc2)c1O (optimized conformer: 106.47860028214822 kcal/mol)

>  <smiles>  (48) 
O=Cc1cccc(C(=O)N=c2cc(C(=O)NCc3ccccn3)[nH]n2-c2ccccc2)c1O

>  <score_type>  (48) 
oracle

>  <origin>  (48) 
adg

>  <m_score__min__energy>  (48) 
-12.83

>  <m_primary>  (48) 
energy

$$$$
49:0
     RDKit          3D

 63 65  0  0  0  0  0  0  0  0999 V2000
   54.0030   30.0110   52.1670 C   0  0  0  0  0  0  0  0  0  0  0  0
   54.9380   30.9890   51.6260 N   0  0  0  0  0  0  0  0  0  0  0  0
   56.3570   30.7850   51.6810 C   0  0  0  0  0  0  0  0  0  0  0  0
   56.8180   29.6560   52.0020 O   0  0  0  0  0  0  0  0  0  0  0  0
   57.2670   31.8300   51.3190 N   0  0  0  0  0  0  0  0  0  0  0  0
   58.5090   31.6590   50.6200 C   0  0  0  0  0  0  0  0  0  0  0  0
   58.9070   30.4070   50.1210 C   0  0  0  0  0  0  0  0  0  0  0  0
   60.0960   30.2860   49.3990 C   0  0  0  0  0  0  0  0  0  0  0  0
   60.8790   31.4130   49.1390 C   0  0  0  0  0  0  0  0  0  0  0  0
   60.4780   32.6760   49.6030 C   0  0  0  0  0  0  0  0  0  0  0  0
   61.2490   33.9100   49.2010 C   0  0  0  0  0  0  0  0  0  0  0  0
   60.6980   34.4660   47.9600 N   0  0  0  0  0  0  0  0  0  0  0  0
   59.3300   34.9550   47.8670 C   0  0  0  0  0  0  0  0  0  0  0  0
   58.8820   34.7190   46.4150 C   0  0  0  0  0  0  0  0  0  0  0  0
   59.9840   33.8850   45.7260 C   0  0  2  0  0  0  0  0  0  0  0  0
   59.6420   32.4640   45.6320 N   0  0  0  0  0  0  0  0  0  0  0  0
   58.0140   32.1190   46.1370 S   0  0  0  0  0  0  0  0  0  0  0  0
   57.7740   32.5820   47.5480 O   0  0  0  0  0  0  0  0  0  0  0  0
   57.0490   32.8190   45.2220 O   0  0  0  0  0  0  0  0  0  0  0  0
   57.7810   30.3800   46.0020 C   0  0  0  0  0  0  0  0  0  0  0  0
   56.9580   29.8330   45.0080 C   0  0  0  0  0  0  0  0  0  0  0  0
   56.7310   28.4530   44.9640 C   0  0  0  0  0  0  0  0  0  0  0  0
   57.3220   27.6080   45.9210 C   0  0  0  0  0  0  0  0  0  0  0  0
   57.1280   26.1870   45.9030 N   0  0  0  0  0  0  0  0  0  0  0  0
   55.8960   25.5010   45.6480 C   0  0  0  0  0  0  0  0  0  0  0  0
   54.7980   26.0330   45.9730 O   0  0  0  0  0  0  0  0  0  0  0  0
   55.9280   24.1240   45.0110 C   0  0  0  0  0  0  0  0  0  0  0  0
   54.5060   23.6460   44.6440 C   0  0  0  0  0  0  0  0  0  0  0  0
   56.5540   23.1170   45.9960 C   0  0  0  0  0  0  0  0  0  0  0  0
   56.7820   24.1890   43.7310 C   0  0  0  0  0  0  0  0  0  0  0  0
   58.1730   28.1570   46.8870 C   0  0  0  0  0  0  0  0  0  0  0  0
   58.3920   29.5350   46.9370 C   0  0  0  0  0  0  0  0  0  0  0  0
   61.1020   34.0050   46.6820 C   0  0  0  0  0  0  0  0  0  0  0  0
   62.2840   33.6530   46.4240 O   0  0  0  0  0  0  0  0  0  0  0  0
   59.2910   32.7880   50.3470 C   0  0  0  0  0  0  0  0  0  0  0  0
   54.0338   30.0432   53.2661 H   0  0  0  0  0  0  0  0  0  0  0  0
   52.9855   30.2464   51.8216 H   0  0  0  0  0  0  0  0  0  0  0  0
   54.2839   29.0051   51.8216 H   0  0  0  0  0  0  0  0  0  0  0  0
   54.5580   31.8530   51.1750 H   0  0  0  0  0  0  0  0  0  0  0  0
   58.2806   29.5206   50.2996 H   0  0  0  0  0  0  0  0  0  0  0  0
   60.4172   29.2994   49.0336 H   0  0  0  0  0  0  0  0  0  0  0  0
   61.8138   31.3106   48.5683 H   0  0  0  0  0  0  0  0  0  0  0  0
   61.1755   34.6617   50.0007 H   0  0  0  0  0  0  0  0  0  0  0  0
   62.3026   33.6393   49.0379 H   0  0  0  0  0  0  0  0  0  0  0  0
   58.6801   34.4011   48.5604 H   0  0  0  0  0  0  0  0  0  0  0  0
   59.2683   36.0200   48.1351 H   0  0  0  0  0  0  0  0  0  0  0  0
   57.9289   34.1701   46.3993 H   0  0  0  0  0  0  0  0  0  0  0  0
   58.7325   35.6754   45.8925 H   0  0  0  0  0  0  0  0  0  0  0  0
   60.1730   34.2327   44.6997 H   0  0  0  0  0  0  0  0  0  0  0  0
   56.4894   30.4902   44.2607 H   0  0  0  0  0  0  0  0  0  0  0  0
   56.0886   28.0276   44.1789 H   0  0  0  0  0  0  0  0  0  0  0  0
   53.9348   23.4540   45.5643 H   0  0  0  0  0  0  0  0  0  0  0  0
   53.9990   24.4231   44.0532 H   0  0  0  0  0  0  0  0  0  0  0  0
   54.5714   22.7204   44.0532 H   0  0  0  0  0  0  0  0  0  0  0  0
   56.3530   23.4403   47.0280 H   0  0  0  0  0  0  0  0  0  0  0  0
   56.1151   22.1219   45.8314 H   0  0  0  0  0  0  0  0  0  0  0  0
   57.6406   23.0702   45.8314 H   0  0  0  0  0  0  0  0  0  0  0  0
   57.8448   24.2699   44.0030 H   0  0  0  0  0  0  0  0  0  0  0  0
   56.6238   23.2762   43.1379 H   0  0  0  0  0  0  0  0  0  0  0  0
   56.4874   25.0673   43.1379 H   0  0  0  0  0  0  0  0  0  0  0  0
   58.6730   27.4980   47.6121 H   0  0  0  0  0  0  0  0  0  0  0  0
   59.0465   29.9583   47.7132 H   0  0  0  0  0  0  0  0  0  0  0  0
   58.9728   33.7731   50.7189 H   0  0  0  0  0  0  0  0  0  0  0  0
  1  2  1  0
  2  3  1  0
  3  4  2  0
  3  5  1  0
  5  6  1  0
  6  7  2  0
  7  8  1  0
  8  9  2  0
  9 10  1  0
 10 11  1  0
 11 12  1  0
 12 13  1  0
 13 14  1  0
 14 15  1  0
 15 16  1  0
 16 17  1  0
 17 18  2  0
 17 19  2  0
 17 20  1  0
 20 21  2  0
 21 22  1  0
 22 23  2  0
 23 24  1  0
 24 25  1  0
 25 26  2  0
 25 27  1  0
 27 28  1  0
 27 29  1  0
 27 30  1  0
 23 31  1  0
 31 32  2  0
 15 33  1  0
 33 34  2  0
 10 35  2  0
 35  6  1  0
 33 12  1  0
 32 20  1  0
  1 36  1  0
  1 37  1  0
  1 38  1  0
  2 39  1  0
  7 40  1  0
  8 41  1  0
  9 42  1  0
 11 43  1  0
 11 44  1  0
 13 45  1  0
 13 46  1  0
 14 47  1  0
 14 48  1  0
 15 49  1  6
 21 50  1  0
 22 51  1  0
 28 52  1  0
 28 53  1  0
 28 54  1  0
 29 55  1  0
 29 56  1  0
 29 57  1  0
 30 58  1  0
 30 59  1  0
 30 60  1  0
 31 61  1  0
 32 62  1  0
 35 63  1  0
M  CHG  3   5  -1  16  -1  24  -1
M  END
>  <UniqueID>  (49) 
44

>  <SMILES>  (49) 
CNC(=O)[N-]c1cccc(CN2CC[C@H]([N-]S(=O)(=O)c3ccc([N-]C(=O)C(C)(C)C)cc3)C2=O)c1

>  <Energy>  (49) 
69.49036683046016

>  <Genealogy>  (49) 
CNC(=O)[N-]c1cccc(CN2CCC([N-]S(=O)(=O)c3ccc([N-]C(=O)C(C)(C)C)cc3)C2=O)c1 (protonated)
CNC(=O)[N-]c1cccc(CN2CC[C@H]([N-]S(=O)(=O)c3ccc([N-]C(=O)C(C)(C)C)cc3)C2=O)c1 (chirality)
CNC(=O)[N-]c1cccc(CN2CC[C@H]([N-]S(=O)(=O)c3ccc([N-]C(=O)C(C)(C)C)cc3)C2=O)c1 (3D coordinates assigned)
CNC(=O)[N-]c1cccc(CN2CC[C@H]([N-]S(=O)(=O)c3ccc([N-]C(=O)C(C)(C)C)cc3)C2=O)c1 (nonaromatic ring conformer: 69.49036683046016 kcal/mol)

>  <smiles>  (49) 
CNC(=O)Nc1cccc(CN2CCC(NS(=O)(=O)c3ccc(NC(=O)C(C)(C)C)cc3)C2=O)c1

>  <score_type>  (49) 
oracle

>  <origin>  (49) 
adg

>  <m_score__min__energy>  (49) 
-14.44

>  <m_primary>  (49) 
energy

$$$$
50:0
     RDKit          3D

 57 59  0  0  0  0  0  0  0  0999 V2000
   56.9950   24.3210   43.5460 C   0  0  0  0  0  0  0  0  0  0  0  0
   55.9110   23.3010   43.8600 C   0  0  0  0  0  0  0  0  0  0  0  0
   54.7580   23.9710   44.4470 N   0  0  0  0  0  0  0  0  0  0  0  0
   54.7800   24.5380   45.7560 C   0  0  0  0  0  0  0  0  0  0  0  0
   54.6730   23.7760   46.7540 O   0  0  0  0  0  0  0  0  0  0  0  0
   54.9190   25.9600   45.9220 N   0  0  0  0  0  0  0  0  0  0  0  0
   56.0370   26.6190   45.9880 C   0  0  0  0  0  0  0  0  0  0  0  0
   56.2370   27.8400   45.4400 N   0  0  0  0  0  0  0  0  0  0  0  0
   57.5020   28.2860   45.6640 C   0  0  0  0  0  0  0  0  0  0  0  0
   58.3020   27.4100   46.3900 C   0  0  0  0  0  0  0  0  0  0  0  0
   59.9740   27.6860   46.8420 S   0  0  0  0  0  0  0  0  0  0  0  0
   60.8190   26.5730   46.2850 O   0  0  0  0  0  0  0  0  0  0  0  0
   60.4420   28.9930   46.2640 O   0  0  0  0  0  0  0  0  0  0  0  0
   60.1170   27.6750   48.5790 N   0  0  0  0  0  0  0  0  0  0  0  0
   59.8190   28.9920   49.1740 C   0  0  0  0  0  0  0  0  0  0  0  0
   58.8260   29.8040   48.2990 C   0  0  0  0  0  0  0  0  0  0  0  0
   58.8760   31.2980   48.6300 C   0  0  0  0  0  0  0  0  0  0  0  0
   60.2390   31.8310   48.4840 N   0  0  0  0  0  0  0  0  0  0  0  0
   60.4230   33.2570   48.3540 C   0  0  0  0  0  0  0  0  0  0  0  0
   59.5150   34.0360   48.7590 O   0  0  0  0  0  0  0  0  0  0  0  0
   61.6970   33.8360   47.7900 C   0  0  0  0  0  0  0  0  0  0  0  0
   62.8370   33.7380   48.7710 C   0  0  0  0  0  0  0  0  0  0  0  0
   63.9910   33.0100   48.4470 C   0  0  0  0  0  0  0  0  0  0  0  0
   65.0330   32.8890   49.3720 C   0  0  0  0  0  0  0  0  0  0  0  0
   64.9290   33.4900   50.6410 C   0  0  0  0  0  0  0  0  0  0  0  0
   65.9440   33.3950   51.6050 O   0  0  0  0  0  0  0  0  0  0  0  0
   67.2940   33.0460   51.3170 C   0  0  0  0  0  0  0  0  0  0  0  0
   63.7710   34.2070   50.9640 C   0  0  0  0  0  0  0  0  0  0  0  0
   62.7290   34.3280   50.0390 C   0  0  0  0  0  0  0  0  0  0  0  0
   61.3830   30.9050   48.4520 C   0  0  0  0  0  0  0  0  0  0  0  0
   61.1500   29.7450   49.4270 C   0  0  0  0  0  0  0  0  0  0  0  0
   57.4050   26.0380   46.7730 S   0  0  0  0  0  0  0  0  0  0  0  0
   57.4122   24.7136   44.4851 H   0  0  0  0  0  0  0  0  0  0  0  0
   57.7938   23.8394   42.9629 H   0  0  0  0  0  0  0  0  0  0  0  0
   56.5629   25.1476   42.9629 H   0  0  0  0  0  0  0  0  0  0  0  0
   55.6060   22.7949   42.9322 H   0  0  0  0  0  0  0  0  0  0  0  0
   56.3037   22.5617   44.5736 H   0  0  0  0  0  0  0  0  0  0  0  0
   57.8629   29.2596   45.3008 H   0  0  0  0  0  0  0  0  0  0  0  0
   61.0780   27.3540   48.8350 H   0  0  0  0  0  0  0  0  0  0  0  0
   59.3125   28.8522   50.1404 H   0  0  0  0  0  0  0  0  0  0  0  0
   59.0867   29.6640   47.2395 H   0  0  0  0  0  0  0  0  0  0  0  0
   57.8086   29.4396   48.5043 H   0  0  0  0  0  0  0  0  0  0  0  0
   58.2043   31.8392   47.9474 H   0  0  0  0  0  0  0  0  0  0  0  0
   58.5596   31.4335   49.6748 H   0  0  0  0  0  0  0  0  0  0  0  0
   61.9648   33.2852   46.8763 H   0  0  0  0  0  0  0  0  0  0  0  0
   61.5228   34.9001   47.5725 H   0  0  0  0  0  0  0  0  0  0  0  0
   64.0771   32.5316   47.4602 H   0  0  0  0  0  0  0  0  0  0  0  0
   65.9375   32.3219   49.1070 H   0  0  0  0  0  0  0  0  0  0  0  0
   67.8448   32.9036   52.2585 H   0  0  0  0  0  0  0  0  0  0  0  0
   67.3153   32.1128   50.7350 H   0  0  0  0  0  0  0  0  0  0  0  0
   67.7649   33.8519   50.7350 H   0  0  0  0  0  0  0  0  0  0  0  0
   63.6798   34.6791   51.9533 H   0  0  0  0  0  0  0  0  0  0  0  0
   61.8210   34.8882   50.3069 H   0  0  0  0  0  0  0  0  0  0  0  0
   61.4998   30.5062   47.4335 H   0  0  0  0  0  0  0  0  0  0  0  0
   62.2931   31.4471   48.7486 H   0  0  0  0  0  0  0  0  0  0  0  0
   61.9804   29.0308   49.3253 H   0  0  0  0  0  0  0  0  0  0  0  0
   61.0953   30.1743   50.4383 H   0  0  0  0  0  0  0  0  0  0  0  0
  1  2  1  0
  2  3  1  0
  3  4  1  0
  4  5  2  0
  4  6  1  0
  6  7  2  3
  7  8  1  0
  8  9  1  0
  9 10  2  0
 10 11  1  0
 11 12  2  0
 11 13  2  0
 11 14  1  0
 14 15  1  0
 15 16  1  0
 16 17  1  0
 17 18  1  0
 18 19  1  0
 19 20  2  0
 19 21  1  0
 21 22  1  0
 22 23  2  0
 23 24  1  0
 24 25  2  0
 25 26  1  0
 26 27  1  0
 25 28  1  0
 28 29  2  0
 18 30  1  0
 30 31  1  0
 10 32  1  0
 32  7  1  0
 31 15  1  0
 29 22  1  0
  1 33  1  0
  1 34  1  0
  1 35  1  0
  2 36  1  0
  2 37  1  0
  9 38  1  0
 14 39  1  0
 15 40  1  0
 16 41  1  0
 16 42  1  0
 17 43  1  0
 17 44  1  0
 21 45  1  0
 21 46  1  0
 23 47  1  0
 24 48  1  0
 27 49  1  0
 27 50  1  0
 27 51  1  0
 28 52  1  0
 29 53  1  0
 30 54  1  0
 30 55  1  0
 31 56  1  0
 31 57  1  0
M  CHG  2   3  -1   8  -1
M  END
>  <UniqueID>  (50) 
45

>  <SMILES>  (50) 
CC[N-]C(=O)N=c1[n-]cc(S(=O)(=O)NC2CCN(C(=O)Cc3ccc(OC)cc3)CC2)s1

>  <Energy>  (50) 
87.51346839124669

>  <Genealogy>  (50) 
CC[N-]C(=O)N=c1[n-]cc(S(=O)(=O)NC2CCN(C(=O)Cc3ccc(OC)cc3)CC2)s1 (protonated)
CC[N-]C(=O)N=c1[n-]cc(S(=O)(=O)NC2CCN(C(=O)Cc3ccc(OC)cc3)CC2)s1 (3D coordinates assigned)
CC[N-]C(=O)N=c1[n-]cc(S(=O)(=O)NC2CCN(C(=O)Cc3ccc(OC)cc3)CC2)s1 (nonaromatic ring conformer: 87.51346839124669 kcal/mol)

>  <smiles>  (50) 
CCNC(=O)N=c1[nH]cc(S(=O)(=O)NC2CCN(C(=O)Cc3ccc(OC)cc3)CC2)s1

>  <score_type>  (50) 
oracle

>  <origin>  (50) 
adg

>  <m_score__min__energy>  (50) 
-11.74

>  <m_primary>  (50) 
energy

$$$$
51:0
     RDKit          3D

 37 39  0  0  0  0  0  0  0  0999 V2000
   55.7380   29.7140   45.9530 H   0  0  0  0  0  0  0  0  0  0  0  0
   55.9730   29.0060   45.2690 O   0  0  0  0  0  0  0  0  0  0  0  0
   56.2730   27.6990   45.6440 C   0  0  0  0  0  0  0  0  0  0  0  0
   55.3530   26.7210   45.7020 N   0  0  0  0  0  0  0  0  0  0  0  0
   56.0610   25.6720   46.1710 C   0  0  0  0  0  0  0  0  0  0  0  0
   55.5430   24.5430   46.3750 O   0  0  0  0  0  0  0  0  0  0  0  0
   57.3640   25.9280   46.4120 N   0  0  0  0  0  0  0  0  0  0  0  0
   57.5000   27.2170   46.0530 C   0  0  0  0  0  0  0  0  0  0  0  0
   58.7670   27.9590   46.1800 C   0  0  0  0  0  0  0  0  0  0  0  0
   59.5708   27.7441   45.4605 H   0  0  0  0  0  0  0  0  0  0  0  0
   58.9930   28.8870   47.1310 C   0  0  0  0  0  0  0  0  0  0  0  0
   58.8750   28.6980   48.4980 C   0  0  0  0  0  0  0  0  0  0  0  0
   58.6135   27.7609   49.0112 H   0  0  0  0  0  0  0  0  0  0  0  0
   59.1490   29.9130   49.0910 C   0  0  0  0  0  0  0  0  0  0  0  0
   59.0400   30.1700   50.5660 C   0  0  0  0  0  0  0  0  0  0  0  0
   59.4112   29.2947   51.1191 H   0  0  0  0  0  0  0  0  0  0  0  0
   59.6413   31.0525   50.8298 H   0  0  0  0  0  0  0  0  0  0  0  0
   57.9876   30.3512   50.8298 H   0  0  0  0  0  0  0  0  0  0  0  0
   59.4550   30.8460   48.1550 N   0  0  0  0  0  0  0  0  0  0  0  0
   59.7590   32.2650   48.4230 C   0  0  0  0  0  0  0  0  0  0  0  0
   59.0108   32.8889   47.9121 H   0  0  0  0  0  0  0  0  0  0  0  0
   59.7321   32.4133   49.5126 H   0  0  0  0  0  0  0  0  0  0  0  0
   61.1440   32.6650   47.9350 C   0  0  0  0  0  0  0  0  0  0  0  0
   61.3000   33.5720   46.8550 C   0  0  0  0  0  0  0  0  0  0  0  0
   59.9320   34.2620   45.9920 Cl  0  0  0  0  0  0  0  0  0  0  0  0
   62.5780   33.9330   46.4160 C   0  0  0  0  0  0  0  0  0  0  0  0
   62.6884   34.6493   45.5885 H   0  0  0  0  0  0  0  0  0  0  0  0
   63.7120   33.3930   47.0180 C   0  0  0  0  0  0  0  0  0  0  0  0
   64.7130   33.6926   46.6742 H   0  0  0  0  0  0  0  0  0  0  0  0
   63.5780   32.4740   48.0550 C   0  0  0  0  0  0  0  0  0  0  0  0
   64.4764   32.0403   48.5185 H   0  0  0  0  0  0  0  0  0  0  0  0
   62.3110   32.0970   48.5130 C   0  0  0  0  0  0  0  0  0  0  0  0
   62.2510   30.9060   49.8120 Cl  0  0  0  0  0  0  0  0  0  0  0  0
   59.3200   30.2340   46.9460 C   0  0  0  0  0  0  0  0  0  0  0  0
   59.4440   30.8560   45.7640 C   0  0  0  0  0  0  0  0  0  0  0  0
   59.7060   31.9238   45.7292 H   0  0  0  0  0  0  0  0  0  0  0  0
   59.2837   30.2983   44.8295 H   0  0  0  0  0  0  0  0  0  0  0  0
  1  2  1  0
  2  3  1  0
  3  4  1  0
  4  5  1  0
  5  6  2  0
  5  7  1  0
  7  8  1  0
  8  9  1  0
  9 10  1  0
  9 11  2  0
 11 12  1  0
 12 13  1  0
 12 14  2  0
 14 15  1  0
 15 16  1  0
 15 17  1  0
 15 18  1  0
 14 19  1  0
 19 20  1  0
 20 21  1  0
 20 22  1  0
 20 23  1  0
 23 24  2  0
 24 25  1  0
 24 26  1  0
 26 27  1  0
 26 28  2  0
 28 29  1  0
 28 30  1  0
 30 31  1  0
 30 32  2  0
 32 33  1  0
 19 34  1  0
 34 35  2  0
 35 36  1  0
 35 37  1  0
  8  3  2  0
 34 11  1  0
 32 23  1  0
M  CHG  2   4  -1   7  -1
M  END
>  <UniqueID>  (51) 
46

>  <SMILES>  (51) 
C=c1/c(=C/c2[n-]c(=O)[n-]c2O)cc(C)n1Cc1c(Cl)cccc1Cl

>  <Energy>  (51) 
108.64757315925122

>  <Genealogy>  (51) 
C=c1c(=Cc2[n-]c(=O)[n-]c2O)cc(C)n1Cc1c(Cl)cccc1Cl (protonated)
C=c1/c(=C/c2[n-]c(=O)[n-]c2O)cc(C)n1Cc1c(Cl)cccc1Cl (cis-trans isomerization)
C=c1/c(=C/c2[n-]c(=O)[n-]c2O)cc(C)n1Cc1c(Cl)cccc1Cl (3D coordinates assigned)
C=c1/c(=C/c2[n-]c(=O)[n-]c2O)cc(C)n1Cc1c(Cl)cccc1Cl (optimized conformer: 108.64757315925122 kcal/mol)

>  <smiles>  (51) 
C=c1c(=Cc2[nH]c(=O)[nH]c2O)cc(C)n1Cc1c(Cl)cccc1Cl

>  <score_type>  (51) 
oracle

>  <origin>  (51) 
adg

>  <m_score__min__energy>  (51) 
-12.470000000000001

>  <m_primary>  (51) 
energy

$$$$
52:0
     RDKit          3D

 70 75  0  0  0  0  0  0  0  0999 V2000
   61.2510   28.1470   53.9120 O   0  0  0  0  0  0  0  0  0  0  0  0
   62.0070   28.3280   52.9200 C   0  0  0  0  0  0  0  0  0  0  0  0
   63.4240   28.4360   53.1080 N   0  0  0  0  0  0  0  0  0  0  0  0
   64.3150   29.2740   52.3550 C   0  0  0  0  0  0  0  0  0  0  0  0
   63.8790   30.4800   51.7780 C   0  0  0  0  0  0  0  0  0  0  0  0
   64.7690   31.2790   51.0450 C   0  0  0  0  0  0  0  0  0  0  0  0
   64.2050   32.7700   50.2930 S   0  0  0  0  0  0  0  0  0  0  0  0
   65.2580   33.8350   50.4270 O   0  0  0  0  0  0  0  0  0  0  0  0
   62.9630   33.2340   51.0040 O   0  0  0  0  0  0  0  0  0  0  0  0
   63.8460   32.4850   48.6060 N   0  0  0  0  0  0  0  0  0  0  0  0
   63.7540   33.7740   47.8810 C   0  0  0  0  0  0  0  0  0  0  0  0
   62.9930   33.6250   46.5610 C   0  0  0  0  0  0  0  0  0  0  0  0
   61.5410   33.1810   46.8110 C   0  0  0  0  0  0  0  0  0  0  0  0
   61.3800   32.3820   48.1150 C   0  0  0  0  0  0  0  0  0  0  0  0
   62.6610   31.6050   48.4530 C   0  0  0  0  0  0  0  0  0  0  0  0
   66.0970   30.8620   50.8770 C   0  0  0  0  0  0  0  0  0  0  0  0
   66.5250   29.6480   51.4200 C   0  0  0  0  0  0  0  0  0  0  0  0
   65.6370   28.8510   52.1510 C   0  0  0  0  0  0  0  0  0  0  0  0
   66.0750   27.6420   52.6810 O   0  0  0  0  0  0  0  0  0  0  0  0
   61.4380   28.3430   51.5510 C   0  0  0  0  0  0  0  0  0  0  0  0
   61.3440   27.1570   50.8010 C   0  0  0  0  0  0  0  0  0  0  0  0
   60.7670   27.1650   49.5280 C   0  0  0  0  0  0  0  0  0  0  0  0
   60.2710   28.3580   48.9760 C   0  0  0  0  0  0  0  0  0  0  0  0
   59.6000   28.3540   47.6520 C   0  0  0  0  0  0  0  0  0  0  0  0
   58.2580   27.9510   47.5360 C   0  0  0  0  0  0  0  0  0  0  0  0
   57.6400   27.8980   46.2840 C   0  0  0  0  0  0  0  0  0  0  0  0
   58.3480   28.2520   45.1250 C   0  0  0  0  0  0  0  0  0  0  0  0
   57.6950   28.0990   43.7720 C   0  0  0  0  0  0  0  0  0  0  0  0
   57.0650   29.3870   43.3080 C   0  0  0  0  0  0  0  0  0  0  0  0
   56.2800   29.3910   42.3190 O   0  0  0  0  0  0  0  0  0  0  0  0
   57.4040   30.6650   43.9550 C   0  0  0  0  0  0  0  0  0  0  0  0
   57.0630   30.9600   45.2380 N   0  0  0  0  0  0  0  0  0  0  0  0
   57.5790   32.1880   45.4000 C   0  0  0  0  0  0  0  0  0  0  0  0
   57.5340   32.9920   46.5380 C   0  0  0  0  0  0  0  0  0  0  0  0
   58.1540   34.2540   46.4710 C   0  0  0  0  0  0  0  0  0  0  0  0
   58.7910   34.6760   45.2820 C   0  0  0  0  0  0  0  0  0  0  0  0
   58.8130   33.8380   44.1510 C   0  0  0  0  0  0  0  0  0  0  0  0
   58.1940   32.5940   44.2560 C   0  0  0  0  0  0  0  0  0  0  0  0
   58.0990   31.6430   43.3160 N   0  0  0  0  0  0  0  0  0  0  0  0
   59.6870   28.6640   45.2370 C   0  0  0  0  0  0  0  0  0  0  0  0
   60.3990   28.9980   44.1310 F   0  0  0  0  0  0  0  0  0  0  0  0
   60.3040   28.7180   46.4900 C   0  0  0  0  0  0  0  0  0  0  0  0
   60.3810   29.5470   49.7180 C   0  0  0  0  0  0  0  0  0  0  0  0
   60.9610   29.5410   50.9890 C   0  0  0  0  0  0  0  0  0  0  0  0
   62.8336   30.7988   51.9022 H   0  0  0  0  0  0  0  0  0  0  0  0
   63.2292   34.5036   48.5152 H   0  0  0  0  0  0  0  0  0  0  0  0
   64.7749   34.1142   47.6531 H   0  0  0  0  0  0  0  0  0  0  0  0
   62.9886   34.5920   46.0367 H   0  0  0  0  0  0  0  0  0  0  0  0
   63.4944   32.8593   45.9509 H   0  0  0  0  0  0  0  0  0  0  0  0
   60.9040   34.0761   46.8660 H   0  0  0  0  0  0  0  0  0  0  0  0
   61.2475   32.5227   45.9800 H   0  0  0  0  0  0  0  0  0  0  0  0
   61.1553   33.0780   48.9367 H   0  0  0  0  0  0  0  0  0  0  0  0
   60.5603   31.6606   47.9821 H   0  0  0  0  0  0  0  0  0  0  0  0
   62.5033   31.0613   49.3961 H   0  0  0  0  0  0  0  0  0  0  0  0
   62.8633   30.9211   47.6155 H   0  0  0  0  0  0  0  0  0  0  0  0
   66.8034   31.4920   50.3165 H   0  0  0  0  0  0  0  0  0  0  0  0
   67.5637   29.3175   51.2724 H   0  0  0  0  0  0  0  0  0  0  0  0
   61.7279   26.2151   51.2198 H   0  0  0  0  0  0  0  0  0  0  0  0
   60.7007   26.2293   48.9534 H   0  0  0  0  0  0  0  0  0  0  0  0
   57.6906   27.6755   48.4372 H   0  0  0  0  0  0  0  0  0  0  0  0
   56.5909   27.5765   46.2061 H   0  0  0  0  0  0  0  0  0  0  0  0
   58.4573   27.7915   43.0410 H   0  0  0  0  0  0  0  0  0  0  0  0
   56.9024   27.3411   43.8577 H   0  0  0  0  0  0  0  0  0  0  0  0
   57.0318   32.6523   47.4558 H   0  0  0  0  0  0  0  0  0  0  0  0
   58.1426   34.9159   47.3495 H   0  0  0  0  0  0  0  0  0  0  0  0
   59.2721   35.6643   45.2401 H   0  0  0  0  0  0  0  0  0  0  0  0
   59.3015   34.1540   43.2175 H   0  0  0  0  0  0  0  0  0  0  0  0
   61.3503   29.0484   46.5681 H   0  0  0  0  0  0  0  0  0  0  0  0
   60.0070   30.4906   49.2940 H   0  0  0  0  0  0  0  0  0  0  0  0
   61.0453   30.4806   51.5547 H   0  0  0  0  0  0  0  0  0  0  0  0
  1  2  2  0
  2  3  1  0
  3  4  1  0
  4  5  2  0
  5  6  1  0
  6  7  1  0
  7  8  2  0
  7  9  2  0
  7 10  1  0
 10 11  1  0
 11 12  1  0
 12 13  1  0
 13 14  1  0
 14 15  1  0
  6 16  2  0
 16 17  1  0
 17 18  2  0
 18 19  1  0
  2 20  1  0
 20 21  2  0
 21 22  1  0
 22 23  2  0
 23 24  1  0
 24 25  2  0
 25 26  1  0
 26 27  2  0
 27 28  1  0
 28 29  1  0
 29 30  2  0
 29 31  1  0
 31 32  2  0
 32 33  1  0
 33 34  2  0
 34 35  1  0
 35 36  2  0
 36 37  1  0
 37 38  2  0
 38 39  1  0
 27 40  1  0
 40 41  1  0
 40 42  2  0
 23 43  1  0
 43 44  2  0
 18  4  1  0
 44 20  1  0
 15 10  1  0
 42 24  1  0
 39 31  1  0
 38 33  1  0
  5 45  1  0
 11 46  1  0
 11 47  1  0
 12 48  1  0
 12 49  1  0
 13 50  1  0
 13 51  1  0
 14 52  1  0
 14 53  1  0
 15 54  1  0
 15 55  1  0
 16 56  1  0
 17 57  1  0
 21 58  1  0
 22 59  1  0
 25 60  1  0
 26 61  1  0
 28 62  1  0
 28 63  1  0
 34 64  1  0
 35 65  1  0
 36 66  1  0
 37 67  1  0
 42 68  1  0
 43 69  1  0
 44 70  1  0
M  CHG  3   3  -1  19  -1  39  -1
M  END
>  <UniqueID>  (52) 
47

>  <SMILES>  (52) 
O=C([N-]c1cc(S(=O)(=O)N2CCCCC2)ccc1[O-])c1ccc(-c2ccc(CC(=O)c3nc4ccccc4[n-]3)c(F)c2)cc1

>  <Energy>  (52) 
127.66381915135844

>  <Genealogy>  (52) 
O=C([N-]c1cc(S(=O)(=O)N2CCCCC2)ccc1[O-])c1ccc(-c2ccc(CC(=O)c3nc4ccccc4[n-]3)c(F)c2)cc1 (protonated)
O=C([N-]c1cc(S(=O)(=O)N2CCCCC2)ccc1[O-])c1ccc(-c2ccc(CC(=O)c3nc4ccccc4[n-]3)c(F)c2)cc1 (3D coordinates assigned)
O=C([N-]c1cc(S(=O)(=O)N2CCCCC2)ccc1[O-])c1ccc(-c2ccc(CC(=O)c3nc4ccccc4[n-]3)c(F)c2)cc1 (nonaromatic ring conformer: 127.66381915135844 kcal/mol)

>  <smiles>  (52) 
O=C(Nc1cc(S(=O)(=O)N2CCCCC2)ccc1O)c1ccc(-c2ccc(CC(=O)c3nc4ccccc4[nH]3)c(F)c2)cc1

>  <score_type>  (52) 
oracle

>  <origin>  (52) 
adg

>  <m_score__min__energy>  (52) 
-14.779999999999999

>  <m_primary>  (52) 
energy

$$$$
53:0
     RDKit          3D

 95101  0  0  0  0  0  0  0  0999 V2000
   61.0720   33.7430   50.6600 C   0  0  0  0  0  0  0  0  0  0  0  0
   59.6600   33.4630   50.1280 C   0  0  1  0  0  0  0  0  0  0  0  0
   59.7140   32.7240   48.8710 N   0  0  0  0  0  0  0  0  0  0  0  0
   60.0620   33.2890   47.6020 C   0  0  0  0  0  0  0  0  0  0  0  0
   60.9590   34.1720   47.5230 O   0  0  0  0  0  0  0  0  0  0  0  0
   59.3570   32.8370   46.3870 C   0  0  0  0  0  0  0  0  0  0  0  0
   59.0100   33.7620   45.3670 C   0  0  0  0  0  0  0  0  0  0  0  0
   58.3860   33.3280   44.1850 C   0  0  0  0  0  0  0  0  0  0  0  0
   58.1010   31.9670   44.0530 C   0  0  0  0  0  0  0  0  0  0  0  0
   58.4030   31.0730   45.0510 C   0  0  0  0  0  0  0  0  0  0  0  0
   59.0310   31.4740   46.2300 C   0  0  0  0  0  0  0  0  0  0  0  0
   57.9760   29.8270   44.6250 C   0  0  0  0  0  0  0  0  0  0  0  0
   58.0590   28.5210   45.3650 C   0  0  0  0  0  0  0  0  0  0  0  0
   58.7910   28.6850   46.6700 C   0  0  0  0  0  0  0  0  0  0  0  0
   60.1090   28.2220   46.8150 C   0  0  0  0  0  0  0  0  0  0  0  0
   60.7580   28.3120   48.0470 C   0  0  0  0  0  0  0  0  0  0  0  0
   60.1110   28.8920   49.1520 C   0  0  0  0  0  0  0  0  0  0  0  0
   60.7860   28.9600   50.4660 C   0  0  0  0  0  0  0  0  0  0  0  0
   60.5430   29.9210   51.2420 O   0  0  0  0  0  0  0  0  0  0  0  0
   61.6590   27.8950   50.8870 N   0  0  0  0  0  0  0  0  0  0  0  0
   62.5580   27.9740   52.0050 C   0  0  0  0  0  0  0  0  0  0  0  0
   62.3180   27.2690   53.1940 C   0  0  0  0  0  0  0  0  0  0  0  0
   63.1990   27.3800   54.2730 C   0  0  0  0  0  0  0  0  0  0  0  0
   64.3190   28.2070   54.1830 C   0  0  0  0  0  0  0  0  0  0  0  0
   64.5660   28.9310   53.0070 C   0  0  0  0  0  0  0  0  0  0  0  0
   65.7250   29.7780   52.9000 N   0  0  0  0  0  0  0  0  0  0  0  0
   66.6700   29.5980   51.7920 C   0  0  0  0  0  0  0  0  0  0  0  0
   67.7990   30.6450   51.8280 C   0  0  0  0  0  0  0  0  0  0  0  0
   67.3150   32.0120   52.1430 N   0  0  0  0  0  0  0  0  0  0  0  0
   67.0670   32.8770   50.9700 C   0  0  0  0  0  0  0  0  0  0  0  0
   65.7110   33.6050   51.0220 C   0  0  0  0  0  0  0  0  0  0  0  0
   64.6990   32.9150   50.1490 C   0  0  0  0  0  0  0  0  0  0  0  0
   64.5260   33.3200   48.8120 C   0  0  0  0  0  0  0  0  0  0  0  0
   63.6080   32.6550   47.9900 C   0  0  0  0  0  0  0  0  0  0  0  0
   62.8600   31.5860   48.4980 C   0  0  0  0  0  0  0  0  0  0  0  0
   63.0330   31.1740   49.8250 C   0  0  0  0  0  0  0  0  0  0  0  0
   63.9560   31.8290   50.6480 C   0  0  0  0  0  0  0  0  0  0  0  0
   66.2910   32.1350   53.2070 C   0  0  0  0  0  0  0  0  0  0  0  0
   65.9920   30.8080   53.9090 C   0  0  0  0  0  0  0  0  0  0  0  0
   63.6720   28.8210   51.9290 C   0  0  0  0  0  0  0  0  0  0  0  0
   58.8110   29.4000   48.9940 C   0  0  0  0  0  0  0  0  0  0  0  0
   58.1530   29.2810   47.7660 C   0  0  0  0  0  0  0  0  0  0  0  0
   57.4420   30.0260   43.3570 C   0  0  0  0  0  0  0  0  0  0  0  0
   57.5180   31.3340   43.0130 N   0  0  0  0  0  0  0  0  0  0  0  0
   57.0290   31.9310   41.7730 C   0  0  0  0  0  0  0  0  0  0  0  0
   58.8720   32.6630   51.1370 C   0  0  0  0  0  0  0  0  0  0  0  0
   57.7520   31.9070   50.7350 C   0  0  0  0  0  0  0  0  0  0  0  0
   57.0290   31.1650   51.6730 C   0  0  0  0  0  0  0  0  0  0  0  0
   57.4180   31.1640   53.0170 C   0  0  0  0  0  0  0  0  0  0  0  0
   58.5270   31.9110   53.4250 C   0  0  0  0  0  0  0  0  0  0  0  0
   59.2550   32.6550   52.4910 C   0  0  0  0  0  0  0  0  0  0  0  0
   61.0567   33.7400   51.7599 H   0  0  0  0  0  0  0  0  0  0  0  0
   61.7604   32.9639   50.3007 H   0  0  0  0  0  0  0  0  0  0  0  0
   61.4110   34.7259   50.3007 H   0  0  0  0  0  0  0  0  0  0  0  0
   59.1669   34.4308   49.9540 H   0  0  0  0  0  0  0  0  0  0  0  0
   59.2322   34.8306   45.5037 H   0  0  0  0  0  0  0  0  0  0  0  0
   58.1293   34.0398   43.3866 H   0  0  0  0  0  0  0  0  0  0  0  0
   59.2664   30.7443   47.0188 H   0  0  0  0  0  0  0  0  0  0  0  0
   57.0409   28.1569   45.5671 H   0  0  0  0  0  0  0  0  0  0  0  0
   58.6100   27.8004   44.7427 H   0  0  0  0  0  0  0  0  0  0  0  0
   60.6330   27.7856   45.9519 H   0  0  0  0  0  0  0  0  0  0  0  0
   61.7827   27.9265   48.1542 H   0  0  0  0  0  0  0  0  0  0  0  0
   61.5080   26.9580   50.4550 H   0  0  0  0  0  0  0  0  0  0  0  0
   61.4304   26.6246   53.2774 H   0  0  0  0  0  0  0  0  0  0  0  0
   63.0088   26.8134   55.1965 H   0  0  0  0  0  0  0  0  0  0  0  0
   65.0093   28.2915   55.0353 H   0  0  0  0  0  0  0  0  0  0  0  0
   67.1133   28.5937   51.8616 H   0  0  0  0  0  0  0  0  0  0  0  0
   66.1184   29.7219   50.8484 H   0  0  0  0  0  0  0  0  0  0  0  0
   68.5289   30.3466   52.5949 H   0  0  0  0  0  0  0  0  0  0  0  0
   68.2472   30.6789   50.8240 H   0  0  0  0  0  0  0  0  0  0  0  0
   67.8659   33.6314   50.9181 H   0  0  0  0  0  0  0  0  0  0  0  0
   67.0517   32.2255   50.0838 H   0  0  0  0  0  0  0  0  0  0  0  0
   65.3459   33.6132   52.0596 H   0  0  0  0  0  0  0  0  0  0  0  0
   65.8491   34.6330   50.6558 H   0  0  0  0  0  0  0  0  0  0  0  0
   65.1129   34.1602   48.4124 H   0  0  0  0  0  0  0  0  0  0  0  0
   63.4745   32.9724   46.9453 H   0  0  0  0  0  0  0  0  0  0  0  0
   62.1346   31.0685   47.8530 H   0  0  0  0  0  0  0  0  0  0  0  0
   62.4427   30.3345   50.2210 H   0  0  0  0  0  0  0  0  0  0  0  0
   64.1009   31.4947   51.6859 H   0  0  0  0  0  0  0  0  0  0  0  0
   66.6504   32.8547   53.9572 H   0  0  0  0  0  0  0  0  0  0  0  0
   65.3591   32.4700   52.7281 H   0  0  0  0  0  0  0  0  0  0  0  0
   66.8584   30.5106   54.5180 H   0  0  0  0  0  0  0  0  0  0  0  0
   65.1129   30.9242   54.5600 H   0  0  0  0  0  0  0  0  0  0  0  0
   63.8484   29.4065   51.0146 H   0  0  0  0  0  0  0  0  0  0  0  0
   58.3088   29.8932   49.8393 H   0  0  0  0  0  0  0  0  0  0  0  0
   57.1254   29.6586   47.6594 H   0  0  0  0  0  0  0  0  0  0  0  0
   57.0178   29.2336   42.7228 H   0  0  0  0  0  0  0  0  0  0  0  0
   56.3483   32.7620   42.0097 H   0  0  0  0  0  0  0  0  0  0  0  0
   57.8800   32.3094   41.1877 H   0  0  0  0  0  0  0  0  0  0  0  0
   56.4904   31.1712   41.1877 H   0  0  0  0  0  0  0  0  0  0  0  0
   57.4459   31.9011   49.6785 H   0  0  0  0  0  0  0  0  0  0  0  0
   56.1530   30.5810   51.3543 H   0  0  0  0  0  0  0  0  0  0  0  0
   56.8509   30.5751   53.7530 H   0  0  0  0  0  0  0  0  0  0  0  0
   58.8277   31.9136   54.4831 H   0  0  0  0  0  0  0  0  0  0  0  0
   60.1305   33.2362   52.8161 H   0  0  0  0  0  0  0  0  0  0  0  0
  1  2  1  0
  2  3  1  0
  3  4  1  0
  4  5  2  0
  4  6  1  0
  6  7  2  0
  7  8  1  0
  8  9  2  0
  9 10  1  0
 10 11  2  0
 10 12  1  0
 12 13  1  0
 13 14  1  0
 14 15  2  0
 15 16  1  0
 16 17  2  0
 17 18  1  0
 18 19  2  0
 18 20  1  0
 20 21  1  0
 21 22  2  0
 22 23  1  0
 23 24  2  0
 24 25  1  0
 25 26  1  0
 26 27  1  0
 27 28  1  0
 28 29  1  0
 29 30  1  0
 30 31  1  0
 31 32  1  0
 32 33  2  0
 33 34  1  0
 34 35  2  0
 35 36  1  0
 36 37  2  0
 29 38  1  0
 38 39  1  0
 25 40  2  0
 17 41  1  0
 41 42  2  0
 12 43  2  0
 43 44  1  0
 44 45  1  0
  2 46  1  0
 46 47  2  0
 47 48  1  0
 48 49  2  0
 49 50  1  0
 50 51  2  0
 11  6  1  0
 42 14  1  0
 51 46  1  0
 44  9  1  0
 40 21  1  0
 39 26  1  0
 37 32  1  0
  1 52  1  0
  1 53  1  0
  1 54  1  0
  2 55  1  6
  7 56  1  0
  8 57  1  0
 11 58  1  0
 13 59  1  0
 13 60  1  0
 15 61  1  0
 16 62  1  0
 20 63  1  0
 22 64  1  0
 23 65  1  0
 24 66  1  0
 27 67  1  0
 27 68  1  0
 28 69  1  0
 28 70  1  0
 30 71  1  0
 30 72  1  0
 31 73  1  0
 31 74  1  0
 33 75  1  0
 34 76  1  0
 35 77  1  0
 36 78  1  0
 37 79  1  0
 38 80  1  0
 38 81  1  0
 39 82  1  0
 39 83  1  0
 40 84  1  0
 41 85  1  0
 42 86  1  0
 43 87  1  0
 45 88  1  0
 45 89  1  0
 45 90  1  0
 47 91  1  0
 48 92  1  0
 49 93  1  0
 50 94  1  0
 51 95  1  0
M  CHG  1   3  -1
M  END
>  <UniqueID>  (53) 
48

>  <SMILES>  (53) 
C[C@@H]([N-]C(=O)c1ccc2c(c1)c(Cc1ccc(C(=O)Nc3cccc(N4CCN(CCc5ccccc5)CC4)c3)cc1)cn2C)c1ccccc1

>  <Energy>  (53) 
146.76526030996948

>  <Genealogy>  (53) 
CC([N-]C(=O)c1ccc2c(c1)c(Cc1ccc(C(=O)Nc3cccc(N4CCN(CCc5ccccc5)CC4)c3)cc1)cn2C)c1ccccc1 (protonated)
C[C@@H]([N-]C(=O)c1ccc2c(c1)c(Cc1ccc(C(=O)Nc3cccc(N4CCN(CCc5ccccc5)CC4)c3)cc1)cn2C)c1ccccc1 (chirality)
C[C@@H]([N-]C(=O)c1ccc2c(c1)c(Cc1ccc(C(=O)Nc3cccc(N4CCN(CCc5ccccc5)CC4)c3)cc1)cn2C)c1ccccc1 (3D coordinates assigned)
C[C@@H]([N-]C(=O)c1ccc2c(c1)c(Cc1ccc(C(=O)Nc3cccc(N4CCN(CCc5ccccc5)CC4)c3)cc1)cn2C)c1ccccc1 (nonaromatic ring conformer: 146.76526030996948 kcal/mol)

>  <smiles>  (53) 
CC(NC(=O)c1ccc2c(c1)c(Cc1ccc(C(=O)Nc3cccc(N4CCN(CCc5ccccc5)CC4)c3)cc1)cn2C)c1ccccc1

>  <score_type>  (53) 
oracle

>  <origin>  (53) 
adg

>  <m_score__min__energy>  (53) 
-11.619999999999999

>  <m_primary>  (53) 
energy

$$$$
54:0
     RDKit          3D

 39 41  0  0  0  0  0  0  0  0999 V2000
   59.8322   30.3038   52.8214 H   0  0  0  0  0  0  0  0  0  0  0  0
   58.7680   30.0550   52.6970 C   0  0  0  0  0  0  0  0  0  0  0  0
   57.9880   30.7350   51.7440 C   0  0  0  0  0  0  0  0  0  0  0  0
   58.5590   31.7960   50.8740 C   0  0  0  0  0  0  0  0  0  0  0  0
   59.2780   32.8580   51.4520 C   0  0  0  0  0  0  0  0  0  0  0  0
   59.4170   32.8941   52.5426 H   0  0  0  0  0  0  0  0  0  0  0  0
   59.8160   33.8660   50.6510 C   0  0  0  0  0  0  0  0  0  0  0  0
   60.3833   34.6881   51.1119 H   0  0  0  0  0  0  0  0  0  0  0  0
   59.6370   33.8350   49.2670 C   0  0  0  0  0  0  0  0  0  0  0  0
   60.0671   34.6318   48.6424 H   0  0  0  0  0  0  0  0  0  0  0  0
   58.9140   32.7970   48.6690 C   0  0  0  0  0  0  0  0  0  0  0  0
   58.7460   32.8160   47.2440 N   0  0  0  0  0  0  0  0  0  0  0  0
   59.7050   33.7240   46.1190 S   0  0  0  0  0  0  0  0  0  0  0  0
   59.2060   33.4990   44.7190 O   0  0  0  0  0  0  0  0  0  0  0  0
   61.1280   33.2510   46.2070 O   0  0  0  0  0  0  0  0  0  0  0  0
   59.6530   35.4570   46.5260 C   0  0  0  0  0  0  0  0  0  0  0  0
   59.6494   35.5769   47.6194 H   0  0  0  0  0  0  0  0  0  0  0  0
   60.5365   35.9592   46.1050 H   0  0  0  0  0  0  0  0  0  0  0  0
   58.7410   35.9053   46.1050 H   0  0  0  0  0  0  0  0  0  0  0  0
   58.3720   31.7790   49.4780 C   0  0  0  0  0  0  0  0  0  0  0  0
   57.7974   30.9632   49.0152 H   0  0  0  0  0  0  0  0  0  0  0  0
   56.6660   30.4190   51.6280 N   0  0  0  0  0  0  0  0  0  0  0  0
   56.0670   29.4640   52.3940 C   0  0  0  0  0  0  0  0  0  0  0  0
   54.8090   29.1680   52.2420 N   0  0  0  0  0  0  0  0  0  0  0  0
   53.7180   30.0960   52.1140 C   0  0  0  0  0  0  0  0  0  0  0  0
   53.0430   30.6100   53.2380 C   0  0  0  0  0  0  0  0  0  0  0  0
   53.3627   30.3203   54.2498 H   0  0  0  0  0  0  0  0  0  0  0  0
   51.9670   31.4880   53.0710 C   0  0  0  0  0  0  0  0  0  0  0  0
   51.4541   31.9009   53.9522 H   0  0  0  0  0  0  0  0  0  0  0  0
   51.5420   31.8420   51.7880 C   0  0  0  0  0  0  0  0  0  0  0  0
   50.4750   32.7150   51.6230 O   0  0  0  0  0  0  0  0  0  0  0  0
   52.1890   31.3090   50.6680 C   0  0  0  0  0  0  0  0  0  0  0  0
   51.8507   31.5811   49.6573 H   0  0  0  0  0  0  0  0  0  0  0  0
   53.2650   30.4310   50.8310 C   0  0  0  0  0  0  0  0  0  0  0  0
   53.7586   30.0009   49.9471 H   0  0  0  0  0  0  0  0  0  0  0  0
   56.8290   28.7580   53.3310 C   0  0  0  0  0  0  0  0  0  0  0  0
   56.3657   27.9696   53.9424 H   0  0  0  0  0  0  0  0  0  0  0  0
   58.1820   29.0630   53.4830 C   0  0  0  0  0  0  0  0  0  0  0  0
   58.7874   28.5203   54.2239 H   0  0  0  0  0  0  0  0  0  0  0  0
  1  2  1  0
  2  3  2  0
  3  4  1  0
  4  5  2  0
  5  6  1  0
  5  7  1  0
  7  8  1  0
  7  9  2  0
  9 10  1  0
  9 11  1  0
 11 12  1  0
 12 13  1  0
 13 14  2  0
 13 15  2  0
 13 16  1  0
 16 17  1  0
 16 18  1  0
 16 19  1  0
 11 20  2  0
 20 21  1  0
  3 22  1  0
 22 23  1  0
 23 24  2  0
 24 25  1  0
 25 26  2  0
 26 27  1  0
 26 28  1  0
 28 29  1  0
 28 30  2  0
 30 31  1  0
 30 32  1  0
 32 33  1  0
 32 34  2  0
 34 35  1  0
 23 36  1  0
 36 37  1  0
 36 38  2  0
 38 39  1  0
 38  2  1  0
 20  4  1  0
 34 25  1  0
M  CHG  3  12  -1  22  -1  31  -1
M  END
>  <UniqueID>  (54) 
49

>  <SMILES>  (54) 
CS(=O)(=O)[N-]c1cccc(-c2ccc/c(=N/c3ccc([O-])cc3)[n-]2)c1

>  <Energy>  (54) 
50.9653815275688

>  <Genealogy>  (54) 
CS(=O)(=O)[N-]c1cccc(-c2cccc(=Nc3ccc([O-])cc3)[n-]2)c1 (protonated)
CS(=O)(=O)[N-]c1cccc(-c2ccc/c(=N/c3ccc([O-])cc3)[n-]2)c1 (cis-trans isomerization)
CS(=O)(=O)[N-]c1cccc(-c2ccc/c(=N/c3ccc([O-])cc3)[n-]2)c1 (3D coordinates assigned)
CS(=O)(=O)[N-]c1cccc(-c2ccc/c(=N/c3ccc([O-])cc3)[n-]2)c1 (optimized conformer: 50.9653815275688 kcal/mol)

>  <smiles>  (54) 
CS(=O)(=O)Nc1cccc(-c2cccc(=Nc3ccc(O)cc3)[nH]2)c1

>  <score_type>  (54) 
oracle

>  <origin>  (54) 
adg

>  <m_score__min__energy>  (54) 
-14.43

>  <m_primary>  (54) 
energy

$$$$
55:0
     RDKit          3D

 33 34  0  0  0  0  0  0  0  0999 V2000
   57.5490   34.0710   44.7700 C   0  0  0  0  0  0  0  0  0  0  0  0
   58.5890   33.9100   45.8470 C   0  0  0  0  0  0  0  0  0  0  0  0
   59.3990   35.0100   46.1710 C   0  0  0  0  0  0  0  0  0  0  0  0
   60.3320   34.9270   47.2060 C   0  0  0  0  0  0  0  0  0  0  0  0
   60.4760   33.7480   47.9400 C   0  0  0  0  0  0  0  0  0  0  0  0
   61.4420   33.7140   49.0020 N   0  0  0  0  0  0  0  0  0  0  0  0
   62.6760   33.4470   48.8310 C   0  0  0  0  0  0  0  0  0  0  0  0
   64.2360   33.1100   48.6130 S   0  0  0  0  0  0  0  0  0  0  0  0
   59.6800   32.6350   47.6130 C   0  0  0  0  0  0  0  0  0  0  0  0
   58.7670   32.6900   46.5480 C   0  0  0  0  0  0  0  0  0  0  0  0
   58.0170   31.5020   46.2340 N   0  0  0  0  0  0  0  0  0  0  0  0
   58.5730   30.3220   45.6280 C   0  0  0  0  0  0  0  0  0  0  0  0
   59.8540   29.9130   46.0260 C   0  0  0  0  0  0  0  0  0  0  0  0
   60.4040   28.7240   45.5430 C   0  0  0  0  0  0  0  0  0  0  0  0
   59.6820   27.9330   44.6520 C   0  0  0  0  0  0  0  0  0  0  0  0
   58.4180   28.3410   44.2190 C   0  0  0  0  0  0  0  0  0  0  0  0
   57.8600   29.5470   44.6760 C   0  0  0  0  0  0  0  0  0  0  0  0
   56.5690   29.9840   44.1060 C   0  0  0  0  0  0  0  0  0  0  0  0
   56.0210   29.3390   42.9560 N   0  0  0  0  0  0  0  0  0  0  0  0
   55.9170   30.9050   44.6670 O   0  0  0  0  0  0  0  0  0  0  0  0
   56.5627   34.2237   45.2326 H   0  0  0  0  0  0  0  0  0  0  0  0
   57.7997   34.9410   44.1453 H   0  0  0  0  0  0  0  0  0  0  0  0
   57.5249   33.1659   44.1453 H   0  0  0  0  0  0  0  0  0  0  0  0
   59.2974   35.9468   45.6035 H   0  0  0  0  0  0  0  0  0  0  0  0
   60.9594   35.7982   47.4455 H   0  0  0  0  0  0  0  0  0  0  0  0
   59.7743   31.7093   48.1997 H   0  0  0  0  0  0  0  0  0  0  0  0
   56.9970   31.4960   46.4630 H   0  0  0  0  0  0  0  0  0  0  0  0
   60.4313   30.5352   46.7257 H   0  0  0  0  0  0  0  0  0  0  0  0
   61.4080   28.4116   45.8662 H   0  0  0  0  0  0  0  0  0  0  0  0
   60.1077   26.9859   44.2889 H   0  0  0  0  0  0  0  0  0  0  0  0
   57.8544   27.7124   43.5139 H   0  0  0  0  0  0  0  0  0  0  0  0
   55.1220   29.6730   42.5430 H   0  0  0  0  0  0  0  0  0  0  0  0
   56.4900   28.5070   42.5320 H   0  0  0  0  0  0  0  0  0  0  0  0
  1  2  1  0
  2  3  2  0
  3  4  1  0
  4  5  2  0
  5  6  1  0
  6  7  2  0
  7  8  2  0
  5  9  1  0
  9 10  2  0
 10 11  1  0
 11 12  1  0
 12 13  2  0
 13 14  1  0
 14 15  2  0
 15 16  1  0
 16 17  2  0
 17 18  1  0
 18 19  1  0
 18 20  2  0
 10  2  1  0
 17 12  1  0
  1 21  1  0
  1 22  1  0
  1 23  1  0
  3 24  1  0
  4 25  1  0
  9 26  1  0
 11 27  1  0
 13 28  1  0
 14 29  1  0
 15 30  1  0
 16 31  1  0
 19 32  1  0
 19 33  1  0
M  END
>  <UniqueID>  (55) 
50

>  <SMILES>  (55) 
Cc1ccc(N=C=S)cc1Nc1ccccc1C(N)=O

>  <Energy>  (55) 
46.675494350122506

>  <Genealogy>  (55) 
Cc1ccc(N=C=S)cc1Nc1ccccc1C(N)=O (3D coordinates assigned)
Cc1ccc(N=C=S)cc1Nc1ccccc1C(N)=O (optimized conformer: 46.675494350122506 kcal/mol)

>  <smiles>  (55) 
Cc1ccc(N=C=S)cc1Nc1ccccc1C(N)=O

>  <score_type>  (55) 
oracle

>  <origin>  (55) 
adg

>  <m_score__min__energy>  (55) 
-7.7800000000000002

>  <m_primary>  (55) 
energy

$$$$
56:0
     RDKit          3D

 61 64  0  0  0  0  0  0  0  0999 V2000
   60.6880   27.8440   49.5600 C   0  0  0  0  0  0  0  0  0  0  0  0
   59.7780   28.0070   48.3700 C   0  0  0  0  0  0  0  0  0  0  0  0
   59.7950   27.0240   47.3670 C   0  0  0  0  0  0  0  0  0  0  0  0
   58.9840   27.1460   46.2380 C   0  0  0  0  0  0  0  0  0  0  0  0
   58.1310   28.2470   46.0950 C   0  0  0  0  0  0  0  0  0  0  0  0
   57.3150   28.4150   44.9290 N   0  0  0  0  0  0  0  0  0  0  0  0
   56.4180   29.5020   44.6660 C   0  0  0  0  0  0  0  0  0  0  0  0
   55.1980   29.3540   44.9410 O   0  0  0  0  0  0  0  0  0  0  0  0
   56.8590   30.7340   43.9170 C   0  0  0  0  0  0  0  0  0  0  0  0
   57.3590   31.7910   44.8550 C   0  0  0  0  0  0  0  0  0  0  0  0
   56.6670   32.9330   45.2470 C   0  0  0  0  0  0  0  0  0  0  0  0
   57.4120   33.7680   46.0890 C   0  0  0  0  0  0  0  0  0  0  0  0
   58.6830   33.2770   46.3530 C   0  0  0  0  0  0  0  0  0  0  0  0
   59.9250   34.0820   47.2960 S   0  0  0  0  0  0  0  0  0  0  0  0
   59.2600   34.9620   48.3180 O   0  0  0  0  0  0  0  0  0  0  0  0
   60.7670   34.9390   46.3920 O   0  0  0  0  0  0  0  0  0  0  0  0
   60.9230   32.8900   48.0940 N   0  0  0  0  0  0  0  0  0  0  0  0
   61.6340   33.4800   49.2570 C   0  0  0  0  0  0  0  0  0  0  0  0
   63.1170   33.7510   48.9470 C   0  0  0  0  0  0  0  0  0  0  0  0
   63.8320   32.5830   48.5690 O   0  0  0  0  0  0  0  0  0  0  0  0
   63.0570   31.6500   47.8280 C   0  0  0  0  0  0  0  0  0  0  0  0
   61.8410   32.2670   47.1170 C   0  0  0  0  0  0  0  0  0  0  0  0
   58.8970   31.8220   45.5420 S   0  0  0  0  0  0  0  0  0  0  0  0
   58.1420   29.2540   47.0650 C   0  0  0  0  0  0  0  0  0  0  0  0
   58.9540   29.1480   48.2060 C   0  0  0  0  0  0  0  0  0  0  0  0
   58.9230   30.4580   49.4020 S   0  0  0  0  0  0  0  0  0  0  0  0
   58.5010   31.7290   48.7190 O   0  0  0  0  0  0  0  0  0  0  0  0
   60.2970   30.6610   49.9800 O   0  0  0  0  0  0  0  0  0  0  0  0
   57.8040   30.0750   50.6860 N   0  0  0  0  0  0  0  0  0  0  0  0
   58.4980   29.3420   51.7590 C   0  0  0  0  0  0  0  0  0  0  0  0
   57.5900   29.2000   52.9980 C   0  0  0  0  0  0  0  0  0  0  0  0
   56.2650   29.6020   52.7120 O   0  0  0  0  0  0  0  0  0  0  0  0
   56.2460   30.9780   52.3790 C   0  0  0  0  0  0  0  0  0  0  0  0
   57.2080   31.3090   51.2170 C   0  0  0  0  0  0  0  0  0  0  0  0
   60.1033   27.9487   50.4858 H   0  0  0  0  0  0  0  0  0  0  0  0
   61.1541   26.8481   49.5314 H   0  0  0  0  0  0  0  0  0  0  0  0
   61.4709   28.6162   49.5314 H   0  0  0  0  0  0  0  0  0  0  0  0
   60.4539   26.1495   47.4724 H   0  0  0  0  0  0  0  0  0  0  0  0
   59.0150   26.3729   45.4561 H   0  0  0  0  0  0  0  0  0  0  0  0
   57.6663   30.4609   43.2216 H   0  0  0  0  0  0  0  0  0  0  0  0
   55.9938   31.1362   43.3696 H   0  0  0  0  0  0  0  0  0  0  0  0
   55.6385   33.1572   44.9277 H   0  0  0  0  0  0  0  0  0  0  0  0
   57.0296   34.7146   46.4985 H   0  0  0  0  0  0  0  0  0  0  0  0
   60.2760   32.1480   48.4510 H   0  0  0  0  0  0  0  0  0  0  0  0
   61.1480   34.4293   49.5265 H   0  0  0  0  0  0  0  0  0  0  0  0
   61.5857   32.7596   50.0869 H   0  0  0  0  0  0  0  0  0  0  0  0
   63.1749   34.4782   48.1237 H   0  0  0  0  0  0  0  0  0  0  0  0
   63.5792   34.1333   49.8690 H   0  0  0  0  0  0  0  0  0  0  0  0
   63.7049   31.1899   47.0674 H   0  0  0  0  0  0  0  0  0  0  0  0
   62.6645   30.9195   48.5507 H   0  0  0  0  0  0  0  0  0  0  0  0
   62.1880   33.0335   46.4084 H   0  0  0  0  0  0  0  0  0  0  0  0
   61.3016   31.4699   46.5844 H   0  0  0  0  0  0  0  0  0  0  0  0
   57.5058   30.1416   46.9326 H   0  0  0  0  0  0  0  0  0  0  0  0
   58.7705   28.3406   51.3944 H   0  0  0  0  0  0  0  0  0  0  0  0
   59.4002   29.9030   52.0442 H   0  0  0  0  0  0  0  0  0  0  0  0
   57.5839   28.1480   53.3193 H   0  0  0  0  0  0  0  0  0  0  0  0
   57.9853   29.8476   53.7945 H   0  0  0  0  0  0  0  0  0  0  0  0
   55.2239   31.2571   52.0835 H   0  0  0  0  0  0  0  0  0  0  0  0
   56.5753   31.5444   53.2626 H   0  0  0  0  0  0  0  0  0  0  0  0
   56.6501   31.8170   50.4166 H   0  0  0  0  0  0  0  0  0  0  0  0
   58.0095   31.9640   51.5893 H   0  0  0  0  0  0  0  0  0  0  0  0
  1  2  1  0
  2  3  2  0
  3  4  1  0
  4  5  2  0
  5  6  1  0
  6  7  1  0
  7  8  2  0
  7  9  1  0
  9 10  1  0
 10 11  2  0
 11 12  1  0
 12 13  2  0
 13 14  1  0
 14 15  2  0
 14 16  2  0
 14 17  1  0
 17 18  1  0
 18 19  1  0
 19 20  1  0
 20 21  1  0
 21 22  1  0
 13 23  1  0
  5 24  1  0
 24 25  2  0
 25 26  1  0
 26 27  2  0
 26 28  2  0
 26 29  1  0
 29 30  1  0
 30 31  1  0
 31 32  1  0
 32 33  1  0
 33 34  1  0
 25  2  1  0
 34 29  1  0
 23 10  1  0
 22 17  1  0
  1 35  1  0
  1 36  1  0
  1 37  1  0
  3 38  1  0
  4 39  1  0
  9 40  1  0
  9 41  1  0
 11 42  1  0
 12 43  1  0
 17 44  1  0
 18 45  1  0
 18 46  1  0
 19 47  1  0
 19 48  1  0
 21 49  1  0
 21 50  1  0
 22 51  1  0
 22 52  1  0
 24 53  1  0
 30 54  1  0
 30 55  1  0
 31 56  1  0
 31 57  1  0
 33 58  1  0
 33 59  1  0
 34 60  1  0
 34 61  1  0
M  CHG  2   6  -1  17   1
M  END
>  <UniqueID>  (56) 
51

>  <SMILES>  (56) 
Cc1ccc([N-]C(=O)Cc2ccc(S(=O)(=O)[NH+]3CCOCC3)s2)cc1S(=O)(=O)N1CCOCC1

>  <Energy>  (56) 
112.66442568349576

>  <Genealogy>  (56) 
Cc1ccc([N-]C(=O)Cc2ccc(S(=O)(=O)[NH+]3CCOCC3)s2)cc1S(=O)(=O)N1CCOCC1 (protonated)
Cc1ccc([N-]C(=O)Cc2ccc(S(=O)(=O)[NH+]3CCOCC3)s2)cc1S(=O)(=O)N1CCOCC1 (3D coordinates assigned)
Cc1ccc([N-]C(=O)Cc2ccc(S(=O)(=O)[NH+]3CCOCC3)s2)cc1S(=O)(=O)N1CCOCC1 (nonaromatic ring conformer: 112.66442568349576 kcal/mol)

>  <smiles>  (56) 
Cc1ccc(NC(=O)Cc2ccc(S(=O)(=O)N3CCOCC3)s2)cc1S(=O)(=O)N1CCOCC1

>  <score_type>  (56) 
oracle

>  <origin>  (56) 
adg

>  <m_score__min__energy>  (56) 
-11.529999999999999

>  <m_primary>  (56) 
energy

$$$$
57:0
     RDKit          3D

 52 55  0  0  0  0  0  0  0  0999 V2000
   59.3149   28.8472   48.6507 H   0  0  0  0  0  0  0  0  0  0  0  0
   59.3140   27.9330   48.0390 C   0  0  0  0  0  0  0  0  0  0  0  0
   58.1630   27.2250   47.8750 N   0  0  0  0  0  0  0  0  0  0  0  0
   58.1150   26.0910   47.1190 C   0  0  0  0  0  0  0  0  0  0  0  0
   57.0100   25.4150   46.9810 N   0  0  0  0  0  0  0  0  0  0  0  0
   55.8640   25.7810   46.1930 C   0  0  0  0  0  0  0  0  0  0  0  0
   54.9130   24.9720   46.0220 O   0  0  0  0  0  0  0  0  0  0  0  0
   55.7550   27.0980   45.6400 N   0  0  0  0  0  0  0  0  0  0  0  0
   56.8380   27.9300   45.1980 C   0  0  0  0  0  0  0  0  0  0  0  0
   57.7680   27.4000   44.2950 C   0  0  0  0  0  0  0  0  0  0  0  0
   57.6470   26.3703   43.9275 H   0  0  0  0  0  0  0  0  0  0  0  0
   58.8480   28.1700   43.8580 C   0  0  0  0  0  0  0  0  0  0  0  0
   59.5680   27.7485   43.1412 H   0  0  0  0  0  0  0  0  0  0  0  0
   59.0160   29.4740   44.3290 C   0  0  0  0  0  0  0  0  0  0  0  0
   59.8633   30.0796   43.9750 H   0  0  0  0  0  0  0  0  0  0  0  0
   58.1070   30.0150   45.2530 C   0  0  0  0  0  0  0  0  0  0  0  0
   58.2650   31.3590   45.7410 N   0  0  0  0  0  0  0  0  0  0  0  0
   58.7740   31.6020   47.0890 C   0  0  0  0  0  0  0  0  0  0  0  0
   58.5345   30.7397   47.7286 H   0  0  0  0  0  0  0  0  0  0  0  0
   59.8638   31.7431   47.0408 H   0  0  0  0  0  0  0  0  0  0  0  0
   58.1320   32.8640   47.6790 C   0  0  0  0  0  0  0  0  0  0  0  0
   57.0840   32.6413   47.9282 H   0  0  0  0  0  0  0  0  0  0  0  0
   58.7131   33.1451   48.5697 H   0  0  0  0  0  0  0  0  0  0  0  0
   58.1620   34.0100   46.7500 N   0  0  0  0  0  0  0  0  0  0  0  0
   59.2780   34.9690   46.9050 C   0  0  0  0  0  0  0  0  0  0  0  0
   59.4410   35.4698   45.9393 H   0  0  0  0  0  0  0  0  0  0  0  0
   58.9879   35.6708   47.7008 H   0  0  0  0  0  0  0  0  0  0  0  0
   60.5770   34.3310   47.3350 C   0  0  0  0  0  0  0  0  0  0  0  0
   61.4940   33.8660   46.3780 C   0  0  0  0  0  0  0  0  0  0  0  0
   61.2615   33.9601   45.3070 H   0  0  0  0  0  0  0  0  0  0  0  0
   62.7010   33.2840   46.7790 C   0  0  0  0  0  0  0  0  0  0  0  0
   63.4065   32.9068   46.0240 H   0  0  0  0  0  0  0  0  0  0  0  0
   63.0120   33.1810   48.1390 C   0  0  0  0  0  0  0  0  0  0  0  0
   64.1830   32.6180   48.5260 F   0  0  0  0  0  0  0  0  0  0  0  0
   62.1190   33.6690   49.0970 C   0  0  0  0  0  0  0  0  0  0  0  0
   62.3679   33.5977   50.1661 H   0  0  0  0  0  0  0  0  0  0  0  0
   60.9090   34.2480   48.6990 C   0  0  0  0  0  0  0  0  0  0  0  0
   60.2143   34.6400   49.4564 H   0  0  0  0  0  0  0  0  0  0  0  0
   57.7100   33.7270   45.3720 C   0  0  0  0  0  0  0  0  0  0  0  0
   56.6172   33.6015   45.3802 H   0  0  0  0  0  0  0  0  0  0  0  0
   58.0209   34.5741   44.7428 H   0  0  0  0  0  0  0  0  0  0  0  0
   58.3420   32.4630   44.7840 C   0  0  0  0  0  0  0  0  0  0  0  0
   57.8055   32.1838   43.8652 H   0  0  0  0  0  0  0  0  0  0  0  0
   59.3995   32.6656   44.5588 H   0  0  0  0  0  0  0  0  0  0  0  0
   57.0310   29.2310   45.6980 C   0  0  0  0  0  0  0  0  0  0  0  0
   56.3325   29.6373   46.4443 H   0  0  0  0  0  0  0  0  0  0  0  0
   59.2820   25.6290   46.4950 C   0  0  0  0  0  0  0  0  0  0  0  0
   59.2593   24.7149   45.8836 H   0  0  0  0  0  0  0  0  0  0  0  0
   60.4740   26.3390   46.6560 C   0  0  0  0  0  0  0  0  0  0  0  0
   61.3962   25.9842   46.1726 H   0  0  0  0  0  0  0  0  0  0  0  0
   60.4930   27.4990   47.4310 C   0  0  0  0  0  0  0  0  0  0  0  0
   61.4270   28.0653   47.5614 H   0  0  0  0  0  0  0  0  0  0  0  0
  1  2  1  0
  2  3  1  0
  3  4  1  0
  4  5  2  0
  5  6  1  0
  6  7  2  0
  6  8  1  0
  8  9  1  0
  9 10  2  0
 10 11  1  0
 10 12  1  0
 12 13  1  0
 12 14  2  0
 14 15  1  0
 14 16  1  0
 16 17  1  0
 17 18  1  0
 18 19  1  0
 18 20  1  0
 18 21  1  0
 21 22  1  0
 21 23  1  0
 21 24  1  0
 24 25  1  0
 25 26  1  0
 25 27  1  0
 25 28  1  0
 28 29  2  0
 29 30  1  0
 29 31  1  0
 31 32  1  0
 31 33  2  0
 33 34  1  0
 33 35  1  0
 35 36  1  0
 35 37  2  0
 37 38  1  0
 24 39  1  0
 39 40  1  0
 39 41  1  0
 39 42  1  0
 42 43  1  0
 42 44  1  0
 16 45  2  0
 45 46  1  0
  4 47  1  0
 47 48  1  0
 47 49  2  0
 49 50  1  0
 49 51  1  0
 51 52  1  0
 51  2  2  0
 45  9  1  0
 42 17  1  0
 37 28  1  0
M  CHG  2   3  -1   8  -1
M  END
>  <UniqueID>  (57) 
52

>  <SMILES>  (57) 
O=C(/N=c1/cccc[n-]1)[N-]c1cccc(N2CCN(Cc3ccc(F)cc3)CC2)c1

>  <Energy>  (57) 
73.88653471872875

>  <Genealogy>  (57) 
O=C(N=c1cccc[n-]1)[N-]c1cccc(N2CCN(Cc3ccc(F)cc3)CC2)c1 (protonated)
O=C(/N=c1/cccc[n-]1)[N-]c1cccc(N2CCN(Cc3ccc(F)cc3)CC2)c1 (cis-trans isomerization)
O=C(/N=c1/cccc[n-]1)[N-]c1cccc(N2CCN(Cc3ccc(F)cc3)CC2)c1 (3D coordinates assigned)
O=C(/N=c1/cccc[n-]1)[N-]c1cccc(N2CCN(Cc3ccc(F)cc3)CC2)c1 (nonaromatic ring conformer: 73.88653471872875 kcal/mol)

>  <smiles>  (57) 
O=C(N=c1cccc[nH]1)Nc1cccc(N2CCN(Cc3ccc(F)cc3)CC2)c1

>  <score_type>  (57) 
oracle

>  <origin>  (57) 
adg

>  <m_score__min__energy>  (57) 
-11.77

>  <m_primary>  (57) 
energy

$$$$
58:0
     RDKit          3D

 31 33  0  0  0  0  0  0  0  0999 V2000
   64.8630   33.0440   47.1360 H   0  0  0  0  0  0  0  0  0  0  0  0
   64.0100   33.1460   46.5980 O   0  0  0  0  0  0  0  0  0  0  0  0
   62.8010   33.4980   47.1970 C   0  0  0  0  0  0  0  0  0  0  0  0
   61.6150   33.5200   46.4490 C   0  0  0  0  0  0  0  0  0  0  0  0
   61.6373   33.2602   45.3804 H   0  0  0  0  0  0  0  0  0  0  0  0
   60.3990   33.8720   47.0570 C   0  0  0  0  0  0  0  0  0  0  0  0
   59.1350   33.9390   46.2460 C   0  0  0  0  0  0  0  0  0  0  0  0
   59.3250   34.5046   45.3219 H   0  0  0  0  0  0  0  0  0  0  0  0
   58.3537   34.4397   46.8367 H   0  0  0  0  0  0  0  0  0  0  0  0
   58.6760   32.5580   45.8960 C   0  0  0  0  0  0  0  0  0  0  0  0
   58.8350   31.2010   46.8790 S   0  0  0  0  0  0  0  0  0  0  0  0
   58.2120   30.1740   45.7030 C   0  0  0  0  0  0  0  0  0  0  0  0
   58.0690   28.8940   45.8750 N   0  0  0  0  0  0  0  0  0  0  0  0
   56.8660   28.1390   45.6560 C   0  0  0  0  0  0  0  0  0  0  0  0
   55.8610   28.6650   45.1030 O   0  0  0  0  0  0  0  0  0  0  0  0
   56.8010   26.7300   46.0710 C   0  0  0  0  0  0  0  0  0  0  0  0
   57.8780   25.9960   46.4050 N   0  0  0  0  0  0  0  0  0  0  0  0
   57.3540   24.7900   46.7120 C   0  0  0  0  0  0  0  0  0  0  0  0
   58.0620   23.8150   47.0780 O   0  0  0  0  0  0  0  0  0  0  0  0
   56.0110   24.7080   46.5900 N   0  0  0  0  0  0  0  0  0  0  0  0
   55.6760   25.9430   46.1820 C   0  0  0  0  0  0  0  0  0  0  0  0
   54.3690   26.3390   45.9230 O   0  0  0  0  0  0  0  0  0  0  0  0
   57.8940   30.8330   44.5650 N   0  0  0  0  0  0  0  0  0  0  0  0
   58.1570   32.1610   44.6670 C   0  0  0  0  0  0  0  0  0  0  0  0
   57.9744   32.8673   43.8437 H   0  0  0  0  0  0  0  0  0  0  0  0
   60.3850   34.2220   48.4170 C   0  0  0  0  0  0  0  0  0  0  0  0
   59.4403   34.5169   48.8972 H   0  0  0  0  0  0  0  0  0  0  0  0
   61.5660   34.1970   49.1620 C   0  0  0  0  0  0  0  0  0  0  0  0
   61.5468   34.4637   50.2290 H   0  0  0  0  0  0  0  0  0  0  0  0
   62.7730   33.8340   48.5560 C   0  0  0  0  0  0  0  0  0  0  0  0
   63.9410   33.8090   49.3070 O   0  0  0  0  0  0  0  0  0  0  0  0
  1  2  1  0
  2  3  1  0
  3  4  2  0
  4  5  1  0
  4  6  1  0
  6  7  1  0
  7  8  1  0
  7  9  1  0
  7 10  1  0
 10 11  1  0
 11 12  1  0
 12 13  2  0
 13 14  1  0
 14 15  2  0
 14 16  1  0
 16 17  1  0
 17 18  1  0
 18 19  2  0
 18 20  1  0
 20 21  1  0
 21 22  1  0
 12 23  1  0
 23 24  1  0
 24 25  1  0
  6 26  2  0
 26 27  1  0
 26 28  1  0
 28 29  1  0
 28 30  2  0
 30 31  1  0
 30  3  1  0
 24 10  2  0
 21 16  2  0
M  CHG  5  17  -1  20  -1  22  -1  23  -1  31  -1
M  END
>  <UniqueID>  (58) 
53

>  <SMILES>  (58) 
O=C(/N=c1\[n-]cc(Cc2ccc([O-])c(O)c2)s1)c1[n-]c(=O)[n-]c1[O-]

>  <Energy>  (58) 
92.65097845190991

>  <Genealogy>  (58) 
O=C(N=c1[n-]cc(Cc2ccc([O-])c(O)c2)s1)c1[n-]c(=O)[n-]c1[O-] (protonated)
O=C(/N=c1\[n-]cc(Cc2ccc([O-])c(O)c2)s1)c1[n-]c(=O)[n-]c1[O-] (cis-trans isomerization)
O=C(/N=c1\[n-]cc(Cc2ccc([O-])c(O)c2)s1)c1[n-]c(=O)[n-]c1[O-] (3D coordinates assigned)
O=C(/N=c1\[n-]cc(Cc2ccc([O-])c(O)c2)s1)c1[n-]c(=O)[n-]c1[O-] (optimized conformer: 92.65097845190991 kcal/mol)

>  <smiles>  (58) 
O=C(N=c1[nH]cc(Cc2ccc(O)c(O)c2)s1)c1[nH]c(=O)[nH]c1O

>  <score_type>  (58) 
oracle

>  <origin>  (58) 
adg

>  <m_score__min__energy>  (58) 
-17.280000000000001

>  <m_primary>  (58) 
energy

$$$$
59:0
     RDKit          3D

 59 62  0  0  0  0  0  0  0  0999 V2000
   55.4372   28.8039   43.9919 H   0  0  0  0  0  0  0  0  0  0  0  0
   56.0090   29.7290   43.8270 C   0  0  0  0  0  0  0  0  0  0  0  0
   56.2500   30.5730   44.8650 N   0  0  0  0  0  0  0  0  0  0  0  0
   56.9580   31.7250   44.7180 C   0  0  0  0  0  0  0  0  0  0  0  0
   57.1320   32.4830   45.7630 N   0  0  0  0  0  0  0  0  0  0  0  0
   58.3300   33.1740   46.1420 C   0  0  0  0  0  0  0  0  0  0  0  0
   58.2650   34.4040   46.4070 O   0  0  0  0  0  0  0  0  0  0  0  0
   59.6160   32.4190   46.3950 C   0  0  1  0  0  0  0  0  0  0  0  0
   60.4060   32.8400   45.7557 H   0  0  0  0  0  0  0  0  0  0  0  0
   60.1050   32.5960   47.8550 C   0  0  0  0  0  0  0  0  0  0  0  0
   61.2012   32.6875   47.8575 H   0  0  0  0  0  0  0  0  0  0  0  0
   59.6389   33.5015   48.2708 H   0  0  0  0  0  0  0  0  0  0  0  0
   59.7010   31.3990   48.7250 C   0  0  0  0  0  0  0  0  0  0  0  0
   60.0318   31.5808   49.7582 H   0  0  0  0  0  0  0  0  0  0  0  0
   58.6074   31.2914   48.6761 H   0  0  0  0  0  0  0  0  0  0  0  0
   60.3160   30.1340   48.2360 N   0  0  1  0  0  0  0  0  0  0  0  0
   61.2960   30.1370   48.6110 H   0  0  0  0  0  0  0  0  0  0  0  0
   59.6830   28.9290   48.8370 C   0  0  0  0  0  0  0  0  0  0  0  0
   58.7355   29.2354   49.3044 H   0  0  0  0  0  0  0  0  0  0  0  0
   60.4064   28.5223   49.5590 H   0  0  0  0  0  0  0  0  0  0  0  0
   59.3860   27.8150   47.8480 C   0  0  0  0  0  0  0  0  0  0  0  0
   60.4280   27.0630   47.2820 C   0  0  0  0  0  0  0  0  0  0  0  0
   61.4705   27.2762   47.5609 H   0  0  0  0  0  0  0  0  0  0  0  0
   60.1480   26.0460   46.3670 C   0  0  0  0  0  0  0  0  0  0  0  0
   60.9716   25.4752   45.9133 H   0  0  0  0  0  0  0  0  0  0  0  0
   58.8280   25.7510   46.0260 C   0  0  0  0  0  0  0  0  0  0  0  0
   58.6172   24.9587   45.2926 H   0  0  0  0  0  0  0  0  0  0  0  0
   57.7660   26.4590   46.6130 C   0  0  0  0  0  0  0  0  0  0  0  0
   56.3600   26.1120   46.2790 C   0  0  0  0  0  0  0  0  0  0  0  0
   55.5450   27.0250   45.9780 O   0  0  0  0  0  0  0  0  0  0  0  0
   55.8770   24.7640   46.3750 N   0  0  0  0  0  0  0  0  0  0  0  0
   56.3170   23.6930   45.7690 C   0  0  0  0  0  0  0  0  0  0  0  0
   57.4440   23.1120   46.2660 N   0  0  0  0  0  0  0  0  0  0  0  0
   58.0150   22.0170   45.7050 C   0  0  0  0  0  0  0  0  0  0  0  0
   58.9256   21.5847   46.1454 H   0  0  0  0  0  0  0  0  0  0  0  0
   57.4490   21.4410   44.5730 C   0  0  0  0  0  0  0  0  0  0  0  0
   57.9195   20.5658   44.1011 H   0  0  0  0  0  0  0  0  0  0  0  0
   56.2800   21.9830   44.0420 C   0  0  0  0  0  0  0  0  0  0  0  0
   55.8243   21.5301   43.1491 H   0  0  0  0  0  0  0  0  0  0  0  0
   55.6780   23.1070   44.6410 C   0  0  0  0  0  0  0  0  0  0  0  0
   54.4630   23.6180   44.1600 O   0  0  0  0  0  0  0  0  0  0  0  0
   53.3360   23.9350   44.9690 C   0  0  0  0  0  0  0  0  0  0  0  0
   53.6132   23.8570   46.0306 H   0  0  0  0  0  0  0  0  0  0  0  0
   53.0050   24.9611   44.7508 H   0  0  0  0  0  0  0  0  0  0  0  0
   52.5186   23.2319   44.7508 H   0  0  0  0  0  0  0  0  0  0  0  0
   58.0560   27.4890   47.5270 C   0  0  0  0  0  0  0  0  0  0  0  0
   57.2319   28.0463   47.9964 H   0  0  0  0  0  0  0  0  0  0  0  0
   60.4510   30.0520   46.7520 C   0  0  0  0  0  0  0  0  0  0  0  0
   61.4638   30.3775   46.4720 H   0  0  0  0  0  0  0  0  0  0  0  0
   60.2638   29.0087   46.4580 H   0  0  0  0  0  0  0  0  0  0  0  0
   59.4310   30.9320   46.0160 C   0  0  0  0  0  0  0  0  0  0  0  0
   59.5708   30.8161   44.9311 H   0  0  0  0  0  0  0  0  0  0  0  0
   58.4180   30.6169   46.3068 H   0  0  0  0  0  0  0  0  0  0  0  0
   57.4420   32.0720   43.4390 C   0  0  0  0  0  0  0  0  0  0  0  0
   58.0021   33.0074   43.2929 H   0  0  0  0  0  0  0  0  0  0  0  0
   57.2040   31.2180   42.3600 C   0  0  0  0  0  0  0  0  0  0  0  0
   57.5813   31.4767   41.3596 H   0  0  0  0  0  0  0  0  0  0  0  0
   56.4870   30.0360   42.5520 C   0  0  0  0  0  0  0  0  0  0  0  0
   56.3009   29.3546   41.7087 H   0  0  0  0  0  0  0  0  0  0  0  0
  1  2  1  0
  2  3  1  0
  3  4  1  0
  4  5  2  3
  5  6  1  0
  6  7  2  0
  6  8  1  0
  8  9  1  6
  8 10  1  0
 10 11  1  0
 10 12  1  0
 10 13  1  0
 13 14  1  0
 13 15  1  0
 13 16  1  0
 16 17  1  1
 16 18  1  0
 18 19  1  0
 18 20  1  0
 18 21  1  0
 21 22  2  0
 22 23  1  0
 22 24  1  0
 24 25  1  0
 24 26  2  0
 26 27  1  0
 26 28  1  0
 28 29  1  0
 29 30  2  0
 29 31  1  0
 31 32  2  0
 32 33  1  0
 33 34  1  0
 34 35  1  0
 34 36  2  0
 36 37  1  0
 36 38  1  0
 38 39  1  0
 38 40  2  0
 40 41  1  0
 41 42  1  0
 42 43  1  0
 42 44  1  0
 42 45  1  0
 28 46  2  0
 46 47  1  0
 16 48  1  0
 48 49  1  0
 48 50  1  0
 48 51  1  0
 51 52  1  0
 51 53  1  0
  4 54  1  0
 54 55  1  0
 54 56  2  0
 56 57  1  0
 56 58  1  0
 58 59  1  0
 58  2  2  0
 51  8  1  0
 46 21  1  0
 40 32  1  0
M  CHG  3   3  -1  16   1  33  -1
M  END
>  <UniqueID>  (59) 
54

>  <SMILES>  (59) 
COc1ccc[n-]/c1=N/C(=O)c1cccc(C[NH+]2CCC(C(=O)N=c3cccc[n-]3)CC2)c1

>  <Energy>  (59) 
96.66596923086112

>  <Genealogy>  (59) 
COc1ccc[n-]c1=NC(=O)c1cccc(C[NH+]2CCC(C(=O)N=c3cccc[n-]3)CC2)c1 (protonated)
COc1ccc[n-]/c1=N/C(=O)c1cccc(C[NH+]2CCC(C(=O)N=c3cccc[n-]3)CC2)c1 (cis-trans isomerization)
COc1ccc[n-]/c1=N/C(=O)c1cccc(C[NH+]2CCC(C(=O)N=c3cccc[n-]3)CC2)c1 (3D coordinates assigned)
COc1ccc[n-]/c1=N/C(=O)c1cccc(C[NH+]2CCC(C(=O)N=c3cccc[n-]3)CC2)c1 (nonaromatic ring conformer: 96.66596923086112 kcal/mol)

>  <smiles>  (59) 
COc1ccc[nH]c1=NC(=O)c1cccc(CN2CCC(C(=O)N=c3cccc[nH]3)CC2)c1

>  <score_type>  (59) 
oracle

>  <origin>  (59) 
adg

>  <m_score__min__energy>  (59) 
-11.51

>  <m_primary>  (59) 
energy

$$$$
60:0
     RDKit          3D

 54 56  0  0  0  0  0  0  0  0999 V2000
   56.6338   30.2396   42.6443 H   0  0  0  0  0  0  0  0  0  0  0  0
   56.9010   29.2880   43.1270 C   0  0  0  0  0  0  0  0  0  0  0  0
   56.7993   28.3429   42.5734 H   0  0  0  0  0  0  0  0  0  0  0  0
   57.3510   29.2800   44.3910 C   0  0  0  0  0  0  0  0  0  0  0  0
   57.7330   28.1560   45.1480 C   0  0  0  0  0  0  0  0  0  0  0  0
   57.6280   26.8370   44.8970 C   0  0  0  0  0  0  0  0  0  0  0  0
   57.9871   26.4838   43.9191 H   0  0  0  0  0  0  0  0  0  0  0  0
   57.0760   25.8250   45.8130 C   0  0  0  0  0  0  0  0  0  0  0  0
   57.7200   24.7100   46.2010 N   0  0  0  0  0  0  0  0  0  0  0  0
   56.7820   24.0350   46.8990 C   0  0  0  0  0  0  0  0  0  0  0  0
   57.0120   22.9280   47.4490 O   0  0  0  0  0  0  0  0  0  0  0  0
   55.5730   24.6360   46.9520 N   0  0  0  0  0  0  0  0  0  0  0  0
   55.7740   25.7600   46.2460 C   0  0  0  0  0  0  0  0  0  0  0  0
   54.7860   26.7050   45.9990 O   0  0  0  0  0  0  0  0  0  0  0  0
   58.2580   28.6480   46.3310 C   0  0  0  0  0  0  0  0  0  0  0  0
   58.6935   28.0567   47.1500 H   0  0  0  0  0  0  0  0  0  0  0  0
   58.1310   30.0200   46.2870 C   0  0  0  0  0  0  0  0  0  0  0  0
   58.5390   30.9490   47.3920 C   0  0  0  0  0  0  0  0  0  0  0  0
   58.3315   30.4766   48.3635 H   0  0  0  0  0  0  0  0  0  0  0  0
   59.6146   31.1646   47.3114 H   0  0  0  0  0  0  0  0  0  0  0  0
   57.9700   31.8869   47.3114 H   0  0  0  0  0  0  0  0  0  0  0  0
   57.5860   30.4060   45.1130 N   0  0  0  0  0  0  0  0  0  0  0  0
   57.3780   31.7750   44.7140 C   0  0  0  0  0  0  0  0  0  0  0  0
   56.3940   32.4080   45.1890 O   0  0  0  0  0  0  0  0  0  0  0  0
   58.3580   32.4590   43.8980 N   0  0  1  0  0  0  0  0  0  0  0  0
   59.2830   31.9840   44.0110 H   0  0  0  0  0  0  0  0  0  0  0  0
   57.9730   32.3930   42.4740 C   0  0  0  0  0  0  0  0  0  0  0  0
   56.8916   32.2076   42.3947 H   0  0  0  0  0  0  0  0  0  0  0  0
   58.2185   33.3463   41.9832 H   0  0  0  0  0  0  0  0  0  0  0  0
   58.5220   31.5759   41.9832 H   0  0  0  0  0  0  0  0  0  0  0  0
   58.4900   33.8560   44.3650 C   0  0  0  0  0  0  0  0  0  0  0  0
   59.0738   34.4239   43.6256 H   0  0  0  0  0  0  0  0  0  0  0  0
   57.4786   34.2731   44.4789 H   0  0  0  0  0  0  0  0  0  0  0  0
   59.1840   33.9420   45.7050 C   0  0  0  0  0  0  0  0  0  0  0  0
   58.7230   34.8420   46.6780 C   0  0  0  0  0  0  0  0  0  0  0  0
   57.8641   35.4933   46.4587 H   0  0  0  0  0  0  0  0  0  0  0  0
   59.3500   34.9140   47.9230 C   0  0  0  0  0  0  0  0  0  0  0  0
   58.9838   35.6209   48.6821 H   0  0  0  0  0  0  0  0  0  0  0  0
   60.4430   34.0890   48.2070 C   0  0  0  0  0  0  0  0  0  0  0  0
   61.0430   34.1720   49.4210 F   0  0  0  0  0  0  0  0  0  0  0  0
   60.9180   33.1830   47.2500 C   0  0  0  0  0  0  0  0  0  0  0  0
   62.0190   32.3780   47.5900 O   0  0  0  0  0  0  0  0  0  0  0  0
   63.3930   32.7610   47.5110 C   0  0  0  0  0  0  0  0  0  0  0  0
   64.0056   31.8872   47.2444 H   0  0  0  0  0  0  0  0  0  0  0  0
   63.8270   33.3050   48.8710 C   0  0  0  0  0  0  0  0  0  0  0  0
   63.3554   32.7139   49.6698 H   0  0  0  0  0  0  0  0  0  0  0  0
   64.9211   33.2363   48.9612 H   0  0  0  0  0  0  0  0  0  0  0  0
   63.5170   34.3565   48.9612 H   0  0  0  0  0  0  0  0  0  0  0  0
   63.5890   33.8290   46.4280 C   0  0  0  0  0  0  0  0  0  0  0  0
   63.7681   34.8047   46.9034 H   0  0  0  0  0  0  0  0  0  0  0  0
   64.4532   33.5621   45.8019 H   0  0  0  0  0  0  0  0  0  0  0  0
   62.6864   33.8863   45.8019 H   0  0  0  0  0  0  0  0  0  0  0  0
   60.2760   33.1080   45.9980 C   0  0  0  0  0  0  0  0  0  0  0  0
   60.6326   32.3908   45.2440 H   0  0  0  0  0  0  0  0  0  0  0  0
  1  2  1  0
  2  3  1  0
  2  4  2  0
  4  5  1  0
  5  6  2  0
  6  7  1  0
  6  8  1  0
  8  9  1  0
  9 10  1  0
 10 11  2  0
 10 12  1  0
 12 13  1  0
 13 14  1  0
  5 15  1  0
 15 16  1  0
 15 17  2  0
 17 18  1  0
 18 19  1  0
 18 20  1  0
 18 21  1  0
 17 22  1  0
 22 23  1  0
 23 24  2  0
 23 25  1  0
 25 26  1  6
 25 27  1  0
 27 28  1  0
 27 29  1  0
 27 30  1  0
 25 31  1  0
 31 32  1  0
 31 33  1  0
 31 34  1  0
 34 35  2  0
 35 36  1  0
 35 37  1  0
 37 38  1  0
 37 39  2  0
 39 40  1  0
 39 41  1  0
 41 42  1  0
 42 43  1  0
 43 44  1  0
 43 45  1  0
 45 46  1  0
 45 47  1  0
 45 48  1  0
 43 49  1  0
 49 50  1  0
 49 51  1  0
 49 52  1  0
 41 53  2  0
 53 54  1  0
 22  4  1  0
 53 34  1  0
 13  8  2  0
M  CHG  4   9  -1  12  -1  14  -1  25   1
M  END
>  <UniqueID>  (60) 
55

>  <SMILES>  (60) 
C=c1/c(=C\c2[n-]c(=O)[n-]c2[O-])cc(C)n1C(=O)[N@@H+](C)Cc1ccc(F)c(OC(C)C)c1

>  <Energy>  (60) 
128.08454083677836

>  <Genealogy>  (60) 
C=c1c(=Cc2[n-]c(=O)[n-]c2[O-])cc(C)n1C(=O)[NH+](C)Cc1ccc(F)c(OC(C)C)c1 (protonated)
C=c1c(=Cc2[n-]c(=O)[n-]c2[O-])cc(C)n1C(=O)[N@@H+](C)Cc1ccc(F)c(OC(C)C)c1 (chirality)
C=c1/c(=C\c2[n-]c(=O)[n-]c2[O-])cc(C)n1C(=O)[N@@H+](C)Cc1ccc(F)c(OC(C)C)c1 (cis-trans isomerization)
C=c1/c(=C\c2[n-]c(=O)[n-]c2[O-])cc(C)n1C(=O)[N@@H+](C)Cc1ccc(F)c(OC(C)C)c1 (3D coordinates assigned)
C=c1/c(=C\c2[n-]c(=O)[n-]c2[O-])cc(C)n1C(=O)[N@@H+](C)Cc1ccc(F)c(OC(C)C)c1 (optimized conformer: 128.08454083677836 kcal/mol)

>  <smiles>  (60) 
C=c1c(=Cc2[nH]c(=O)[nH]c2O)cc(C)n1C(=O)N(C)Cc1ccc(F)c(OC(C)C)c1

>  <score_type>  (60) 
oracle

>  <origin>  (60) 
adg

>  <m_score__min__energy>  (60) 
-15.42

>  <m_primary>  (60) 
energy

$$$$
61:0
     RDKit          3D

 42 44  0  0  0  0  0  0  0  0999 V2000
   60.3600   27.9440   49.0960 C   0  0  0  0  0  0  0  0  0  0  0  0
   59.4930   27.7400   47.8550 C   0  0  2  0  0  0  0  0  0  0  0  0
   59.6970   26.3620   47.2770 C   0  0  0  0  0  0  0  0  0  0  0  0
   60.1280   26.4180   46.0240 C   0  0  0  0  0  0  0  0  0  0  0  0
   60.2480   27.8120   45.6690 C   0  0  0  0  0  0  0  0  0  0  0  0
   60.5490   28.2350   44.5220 O   0  0  0  0  0  0  0  0  0  0  0  0
   59.9030   28.6380   46.7750 N   0  0  0  0  0  0  0  0  0  0  0  0
   59.6930   30.0620   46.7630 C   0  0  0  0  0  0  0  0  0  0  0  0
   60.6230   30.8160   47.1600 O   0  0  0  0  0  0  0  0  0  0  0  0
   58.3580   30.6630   46.3600 C   0  0  2  0  0  0  0  0  0  0  0  0
   57.7440   29.9410   45.2440 N   0  0  0  0  0  0  0  0  0  0  0  0
   56.6540   29.0150   45.3180 C   0  0  0  0  0  0  0  0  0  0  0  0
   55.5340   29.3640   44.8630 O   0  0  0  0  0  0  0  0  0  0  0  0
   56.8120   27.7600   45.9990 N   0  0  0  0  0  0  0  0  0  0  0  0
   56.4750   26.5640   45.6060 C   0  0  0  0  0  0  0  0  0  0  0  0
   57.3270   25.7330   44.8470 C   0  0  0  0  0  0  0  0  0  0  0  0
   56.8920   24.4570   44.4800 C   0  0  0  0  0  0  0  0  0  0  0  0
   55.6310   24.0090   44.8700 C   0  0  0  0  0  0  0  0  0  0  0  0
   54.8200   24.8460   45.6360 C   0  0  0  0  0  0  0  0  0  0  0  0
   55.2580   26.0850   45.9850 N   0  0  0  0  0  0  0  0  0  0  0  0
   58.3970   32.1520   46.0500 C   0  0  0  0  0  0  0  0  0  0  0  0
   59.0660   33.0760   46.8790 C   0  0  0  0  0  0  0  0  0  0  0  0
   59.1310   34.4280   46.5280 C   0  0  0  0  0  0  0  0  0  0  0  0
   58.5430   34.8740   45.3430 C   0  0  0  0  0  0  0  0  0  0  0  0
   57.8930   33.9680   44.5040 C   0  0  0  0  0  0  0  0  0  0  0  0
   57.8260   32.6150   44.8490 C   0  0  0  0  0  0  0  0  0  0  0  0
   59.7480   27.8000   49.9986 H   0  0  0  0  0  0  0  0  0  0  0  0
   61.1839   27.2152   49.0915 H   0  0  0  0  0  0  0  0  0  0  0  0
   60.7725   28.9637   49.0915 H   0  0  0  0  0  0  0  0  0  0  0  0
   58.4570   27.9154   48.1806 H   0  0  0  0  0  0  0  0  0  0  0  0
   59.5115   25.4271   47.8262 H   0  0  0  0  0  0  0  0  0  0  0  0
   60.3529   25.5594   45.3742 H   0  0  0  0  0  0  0  0  0  0  0  0
   57.7350   30.5478   47.2592 H   0  0  0  0  0  0  0  0  0  0  0  0
   58.3244   26.0868   44.5472 H   0  0  0  0  0  0  0  0  0  0  0  0
   57.5458   23.8048   43.8823 H   0  0  0  0  0  0  0  0  0  0  0  0
   55.2801   23.0084   44.5774 H   0  0  0  0  0  0  0  0  0  0  0  0
   53.8255   24.5036   45.9580 H   0  0  0  0  0  0  0  0  0  0  0  0
   59.5405   32.7304   47.8093 H   0  0  0  0  0  0  0  0  0  0  0  0
   59.6467   35.1418   47.1872 H   0  0  0  0  0  0  0  0  0  0  0  0
   58.5920   35.9387   45.0709 H   0  0  0  0  0  0  0  0  0  0  0  0
   57.4323   34.3193   43.5690 H   0  0  0  0  0  0  0  0  0  0  0  0
   57.3225   31.9054   44.1760 H   0  0  0  0  0  0  0  0  0  0  0  0
  1  2  1  0
  2  3  1  0
  3  4  2  0
  4  5  1  0
  5  6  2  0
  5  7  1  0
  7  8  1  0
  8  9  2  0
  8 10  1  0
 10 11  1  0
 11 12  1  0
 12 13  2  0
 12 14  1  0
 14 15  2  3
 15 16  1  0
 16 17  2  0
 17 18  1  0
 18 19  2  0
 19 20  1  0
 10 21  1  0
 21 22  2  0
 22 23  1  0
 23 24  2  0
 24 25  1  0
 25 26  2  0
  7  2  1  0
 20 15  1  0
 26 21  1  0
  1 27  1  0
  1 28  1  0
  1 29  1  0
  2 30  1  1
  3 31  1  0
  4 32  1  0
 10 33  1  1
 16 34  1  0
 17 35  1  0
 18 36  1  0
 19 37  1  0
 22 38  1  0
 23 39  1  0
 24 40  1  0
 25 41  1  0
 26 42  1  0
M  CHG  2  11  -1  20  -1
M  END
>  <UniqueID>  (61) 
56

>  <SMILES>  (61) 
C[C@@H]1C=CC(=O)N1C(=O)[C@H]([N-]C(=O)N=c1cccc[n-]1)c1ccccc1

>  <Energy>  (61) 
69.07726321151264

>  <Genealogy>  (61) 
CC1C=CC(=O)N1C(=O)C([N-]C(=O)N=c1cccc[n-]1)c1ccccc1 (protonated)
C[C@@H]1C=CC(=O)N1C(=O)[C@H]([N-]C(=O)N=c1cccc[n-]1)c1ccccc1 (chirality)
C[C@@H]1C=CC(=O)N1C(=O)[C@H]([N-]C(=O)N=c1cccc[n-]1)c1ccccc1 (3D coordinates assigned)
C[C@@H]1C=CC(=O)N1C(=O)[C@H]([N-]C(=O)N=c1cccc[n-]1)c1ccccc1 (nonaromatic ring conformer: 69.07726321151264 kcal/mol)

>  <smiles>  (61) 
CC1C=CC(=O)N1C(=O)C(NC(=O)N=c1cccc[nH]1)c1ccccc1

>  <score_type>  (61) 
oracle

>  <origin>  (61) 
adg

>  <m_score__min__energy>  (61) 
-10.699999999999999

>  <m_primary>  (61) 
energy

$$$$
62:0
     RDKit          3D

 48 51  0  0  0  0  0  0  0  0999 V2000
   58.2730   32.1590   41.8360 O   0  0  0  0  0  0  0  0  0  0  0  0
   58.1300   32.1500   43.0870 C   0  0  0  0  0  0  0  0  0  0  0  0
   58.4970   33.3190   43.8320 N   0  0  0  0  0  0  0  0  0  0  0  0
   58.7040   33.3730   45.2510 C   0  0  0  0  0  0  0  0  0  0  0  0
   59.9700   33.6520   45.7970 C   0  0  0  0  0  0  0  0  0  0  0  0
   60.1530   33.7350   47.1870 C   0  0  0  0  0  0  0  0  0  0  0  0
   61.4670   34.0180   47.7000 N   0  0  0  0  0  0  0  0  0  0  0  0
   62.7660   32.8670   47.7840 S   0  0  0  0  0  0  0  0  0  0  0  0
   63.2530   32.7500   49.2000 O   0  0  0  0  0  0  0  0  0  0  0  0
   63.8990   33.3600   46.9280 O   0  0  0  0  0  0  0  0  0  0  0  0
   62.2450   31.2690   47.1740 C   0  0  0  0  0  0  0  0  0  0  0  0
   61.0740   30.7530   47.9640 C   0  0  0  0  0  0  0  0  0  0  0  0
   59.9010   30.3430   47.3090 C   0  0  0  0  0  0  0  0  0  0  0  0
   58.8200   29.8500   48.0450 C   0  0  0  0  0  0  0  0  0  0  0  0
   58.9070   29.7510   49.4370 C   0  0  0  0  0  0  0  0  0  0  0  0
   60.0750   30.1450   50.0950 C   0  0  0  0  0  0  0  0  0  0  0  0
   61.1560   30.6460   49.3620 C   0  0  0  0  0  0  0  0  0  0  0  0
   59.0430   33.5480   48.0320 C   0  0  0  0  0  0  0  0  0  0  0  0
   57.7820   33.2850   47.4910 C   0  0  0  0  0  0  0  0  0  0  0  0
   57.6100   33.2060   46.1070 C   0  0  0  0  0  0  0  0  0  0  0  0
   56.3770   32.9570   45.5980 F   0  0  0  0  0  0  0  0  0  0  0  0
   57.5470   30.9610   43.7460 C   0  0  0  0  0  0  0  0  0  0  0  0
   56.1520   30.8110   43.8390 C   0  0  0  0  0  0  0  0  0  0  0  0
   55.6000   29.6840   44.4540 C   0  0  0  0  0  0  0  0  0  0  0  0
   56.4330   28.7030   45.0000 C   0  0  0  0  0  0  0  0  0  0  0  0
   55.8950   27.6170   45.6170 N   0  0  0  0  0  0  0  0  0  0  0  0
   56.6750   26.6450   46.1620 C   0  0  0  0  0  0  0  0  0  0  0  0
   56.1380   25.6570   46.7280 O   0  0  0  0  0  0  0  0  0  0  0  0
   58.0680   26.7440   46.0950 C   0  0  0  0  0  0  0  0  0  0  0  0
   58.6500   27.8460   45.4640 C   0  0  0  0  0  0  0  0  0  0  0  0
   57.8350   28.8410   44.9090 C   0  0  0  0  0  0  0  0  0  0  0  0
   58.3860   29.9630   44.2720 C   0  0  0  0  0  0  0  0  0  0  0  0
   60.8280   33.8072   45.1264 H   0  0  0  0  0  0  0  0  0  0  0  0
   61.6860   34.9890   48.0180 H   0  0  0  0  0  0  0  0  0  0  0  0
   61.9540   31.3634   46.1174 H   0  0  0  0  0  0  0  0  0  0  0  0
   63.0808   30.5615   47.2786 H   0  0  0  0  0  0  0  0  0  0  0  0
   59.8330   30.4102   46.2132 H   0  0  0  0  0  0  0  0  0  0  0  0
   57.8997   29.5395   47.5286 H   0  0  0  0  0  0  0  0  0  0  0  0
   58.0552   29.3626   50.0146 H   0  0  0  0  0  0  0  0  0  0  0  0
   60.1445   30.0612   51.1896 H   0  0  0  0  0  0  0  0  0  0  0  0
   62.0737   30.9573   49.8825 H   0  0  0  0  0  0  0  0  0  0  0  0
   59.1689   33.6092   49.1231 H   0  0  0  0  0  0  0  0  0  0  0  0
   56.9199   33.1393   48.1585 H   0  0  0  0  0  0  0  0  0  0  0  0
   55.4905   31.5862   43.4248 H   0  0  0  0  0  0  0  0  0  0  0  0
   54.5074   29.5685   44.5086 H   0  0  0  0  0  0  0  0  0  0  0  0
   58.7010   25.9599   46.5359 H   0  0  0  0  0  0  0  0  0  0  0  0
   59.7449   27.9322   45.4031 H   0  0  0  0  0  0  0  0  0  0  0  0
   59.4780   30.0622   44.1838 H   0  0  0  0  0  0  0  0  0  0  0  0
  1  2  2  0
  2  3  1  0
  3  4  1  0
  4  5  2  0
  5  6  1  0
  6  7  1  0
  7  8  1  0
  8  9  2  0
  8 10  2  0
  8 11  1  0
 11 12  1  0
 12 13  2  0
 13 14  1  0
 14 15  2  0
 15 16  1  0
 16 17  2  0
  6 18  2  0
 18 19  1  0
 19 20  2  0
 20 21  1  0
  2 22  1  0
 22 23  2  0
 23 24  1  0
 24 25  2  0
 25 26  1  0
 26 27  1  0
 27 28  2  0
 27 29  1  0
 29 30  2  0
 30 31  1  0
 31 32  2  0
 20  4  1  0
 32 22  1  0
 17 12  1  0
 31 25  1  0
  5 33  1  0
  7 34  1  0
 11 35  1  0
 11 36  1  0
 13 37  1  0
 14 38  1  0
 15 39  1  0
 16 40  1  0
 17 41  1  0
 18 42  1  0
 19 43  1  0
 23 44  1  0
 24 45  1  0
 29 46  1  0
 30 47  1  0
 32 48  1  0
M  CHG  2   3  -1  26  -1
M  END
>  <UniqueID>  (62) 
57

>  <SMILES>  (62) 
O=C([N-]c1cc(NS(=O)(=O)Cc2ccccc2)ccc1F)c1ccc2[n-]c(=O)ccc2c1

>  <Energy>  (62) 
57.48789953648537

>  <Genealogy>  (62) 
O=C([N-]c1cc(NS(=O)(=O)Cc2ccccc2)ccc1F)c1ccc2[n-]c(=O)ccc2c1 (protonated)
O=C([N-]c1cc(NS(=O)(=O)Cc2ccccc2)ccc1F)c1ccc2[n-]c(=O)ccc2c1 (3D coordinates assigned)
O=C([N-]c1cc(NS(=O)(=O)Cc2ccccc2)ccc1F)c1ccc2[n-]c(=O)ccc2c1 (optimized conformer: 57.48789953648537 kcal/mol)

>  <smiles>  (62) 
O=C(Nc1cc(NS(=O)(=O)Cc2ccccc2)ccc1F)c1ccc2[nH]c(=O)ccc2c1

>  <score_type>  (62) 
oracle

>  <origin>  (62) 
adg

>  <m_score__min__energy>  (62) 
-12.800000000000001

>  <m_primary>  (62) 
energy

$$$$
63:0
     RDKit          3D

 64 68  0  0  1  0  0  0  0  0999 V2000
   59.8520   24.5540   45.8600 O   0  0  0  0  0  0  0  0  0  0  0  0
   59.2070   25.5920   45.7790 C   0  0  0  0  0  0  0  0  0  0  0  0
   57.9680   25.7230   45.0300 N   0  0  0  0  0  0  0  0  0  0  0  0
   57.7550   26.9100   44.5690 C   0  0  0  0  0  0  0  0  0  0  0  0
   57.2760   28.0380   45.2230 C   0  0  0  0  0  0  0  0  0  0  0  0
   57.1440   29.0310   44.3010 C   0  0  0  0  0  0  0  0  0  0  0  0
   56.7330   30.4420   44.4660 C   0  0  0  0  0  0  0  0  0  0  0  0
   55.5180   30.7630   44.4940 O   0  0  0  0  0  0  0  0  0  0  0  0
   57.7770   31.3830   44.5840 N   0  0  0  0  0  0  0  0  0  0  0  0
   57.6300   32.8020   44.7690 C   0  0  0  0  0  0  0  0  0  0  0  0
   58.2940   33.2400   46.0320 C   0  0  0  0  0  0  0  0  0  0  0  0
   58.7860   34.4890   46.2760 C   0  0  0  0  0  0  0  0  0  0  0  0
   59.3800   34.7740   47.5160 C   0  0  0  0  0  0  0  0  0  0  0  0
   59.4650   33.7960   48.4720 C   0  0  0  0  0  0  0  0  0  0  0  0
   60.0500   33.9520   49.7930 C   0  0  0  0  0  0  0  0  0  0  0  0
   59.3200   34.3540   50.7170 O   0  0  0  0  0  0  0  0  0  0  0  0
   61.4310   33.6360   49.9740 N   0  0  0  0  0  0  0  0  0  0  0  0
   62.0740   33.7200   51.2400 C   0  0  0  0  0  0  0  0  0  0  0  0
   61.4710   33.3460   52.4320 C   0  0  0  0  0  0  0  0  0  0  0  0
   62.2370   33.5060   53.5700 C   0  0  0  0  0  0  0  0  0  0  0  0
   63.5200   33.9990   53.5640 C   0  0  0  0  0  0  0  0  0  0  0  0
   64.1220   34.3700   52.3720 C   0  0  0  0  0  0  0  0  0  0  0  0
   63.3650   34.2150   51.2330 C   0  0  0  0  0  0  0  0  0  0  0  0
   62.2400   33.2270   48.8810 C   0  0  0  0  0  0  0  0  0  0  0  0
   62.3110   31.8470   48.6630 C   0  0  0  0  0  0  0  0  0  0  0  0
   63.0690   31.3200   47.6270 C   0  0  0  0  0  0  0  0  0  0  0  0
   63.7670   32.2060   46.8010 C   0  0  0  0  0  0  0  0  0  0  0  0
   63.6960   33.5710   47.0190 C   0  0  0  0  0  0  0  0  0  0  0  0
   62.9280   34.0860   48.0650 C   0  0  0  0  0  0  0  0  0  0  0  0
   58.9540   32.5170   48.2080 C   0  0  0  0  0  0  0  0  0  0  0  0
   58.3710   32.2270   47.0030 C   0  0  0  0  0  0  0  0  0  0  0  0
   57.5450   28.4850   43.1120 N   0  0  0  0  0  0  0  0  0  0  0  0
   57.9040   27.2310   43.2890 N   0  0  0  0  0  0  0  0  0  0  0  0
   59.5900   26.8710   46.4260 C   0  0  0  0  0  0  0  0  0  0  0  0
   60.3510   27.8040   45.7230 C   0  0  0  0  0  0  0  0  0  0  0  0
   60.7650   28.9900   46.2950 C   0  0  0  0  0  0  0  0  0  0  0  0
   60.4170   29.2750   47.6210 C   0  0  0  0  0  0  0  0  0  0  0  0
   59.6570   28.3370   48.3130 C   0  0  0  0  0  0  0  0  0  0  0  0
   59.2480   27.1570   47.7340 C   0  0  0  0  0  0  0  0  0  0  0  0
   57.0444   28.1152   46.2956 H   0  0  0  0  0  0  0  0  0  0  0  0
   58.7900   31.0410   44.5300 H   0  0  0  0  0  0  0  0  0  0  0  0
   58.0896   33.3267   43.9185 H   0  0  0  0  0  0  0  0  0  0  0  0
   56.5583   33.0419   44.8308 H   0  0  0  0  0  0  0  0  0  0  0  0
   58.7176   35.2698   45.5042 H   0  0  0  0  0  0  0  0  0  0  0  0
   59.7761   35.7798   47.7194 H   0  0  0  0  0  0  0  0  0  0  0  0
   60.4466   32.9469   52.4685 H   0  0  0  0  0  0  0  0  0  0  0  0
   61.7950   33.2226   54.5366 H   0  0  0  0  0  0  0  0  0  0  0  0
   64.0719   34.0996   54.5102 H   0  0  0  0  0  0  0  0  0  0  0  0
   65.1476   34.7662   52.3381 H   0  0  0  0  0  0  0  0  0  0  0  0
   63.8097   34.4994   50.2680 H   0  0  0  0  0  0  0  0  0  0  0  0
   61.7555   31.1668   49.3253 H   0  0  0  0  0  0  0  0  0  0  0  0
   63.1193   30.2339   47.4601 H   0  0  0  0  0  0  0  0  0  0  0  0
   64.3765   31.8158   45.9726 H   0  0  0  0  0  0  0  0  0  0  0  0
   64.2502   34.2569   46.3615 H   0  0  0  0  0  0  0  0  0  0  0  0
   62.8757   35.1719   48.2325 H   0  0  0  0  0  0  0  0  0  0  0  0
   59.0223   31.7358   48.9794 H   0  0  0  0  0  0  0  0  0  0  0  0
   57.9715   31.2225   46.7996 H   0  0  0  0  0  0  0  0  0  0  0  0
   57.5580   29.0130   42.1940 H   0  0  0  0  0  0  0  0  0  0  0  0
   58.2420   26.6270   42.5200 H   0  0  0  0  0  0  0  0  0  0  0  0
   60.6299   27.5884   44.6810 H   0  0  0  0  0  0  0  0  0  0  0  0
   61.3640   29.7061   45.7133 H   0  0  0  0  0  0  0  0  0  0  0  0
   60.7348   30.2122   48.1012 H   0  0  0  0  0  0  0  0  0  0  0  0
   59.3742   28.5450   49.3555 H   0  0  0  0  0  0  0  0  0  0  0  0
   58.6477   26.4403   48.3137 H   0  0  0  0  0  0  0  0  0  0  0  0
  1  2  2  0
  2  3  1  0
  3  4  2  0
  4  5  1  0
  5  6  2  0
  6  7  1  0
  7  8  2  0
  7  9  1  0
  9 10  1  0
 10 11  1  0
 11 12  2  0
 12 13  1  0
 13 14  2  0
 14 15  1  0
 15 16  2  0
 15 17  1  0
 17 18  1  0
 18 19  2  0
 19 20  1  0
 20 21  2  0
 21 22  1  0
 22 23  2  0
 17 24  1  0
 24 25  2  0
 25 26  1  0
 26 27  2  0
 27 28  1  0
 28 29  2  0
 14 30  1  0
 30 31  2  0
  6 32  1  0
 32 33  1  0
  2 34  1  0
 34 35  2  0
 35 36  1  0
 36 37  2  0
 37 38  1  0
 38 39  2  0
 33  4  1  0
 39 34  1  0
 31 11  1  0
 23 18  1  0
 29 24  1  0
  5 40  1  0
  9 41  1  0
 10 42  1  0
 10 43  1  0
 12 44  1  0
 13 45  1  0
 19 46  1  0
 20 47  1  0
 21 48  1  0
 22 49  1  0
 23 50  1  0
 25 51  1  0
 26 52  1  0
 27 53  1  0
 28 54  1  0
 29 55  1  0
 30 56  1  0
 31 57  1  0
 32 58  1  0
 33 59  1  0
 35 60  1  0
 36 61  1  0
 37 62  1  0
 38 63  1  0
 39 64  1  0
M  END
>  <smiles>  (63) 
O=C(N=c1cc(C(=O)NCc2ccc(C(=O)N(c3ccccc3)c3ccccc3)cc2)[nH][nH]1)c1ccccc1

>  <score_type>  (63) 
oracle

>  <origin>  (63) 
adg

>  <m_score__min__energy>  (63) 
-10.220000000000001

>  <m_primary>  (63) 
energy

$$$$
64:0
     RDKit          3D

 54 56  0  0  0  0  0  0  0  0999 V2000
   60.9470   34.2590   48.8150 C   0  0  0  0  0  0  0  0  0  0  0  0
   60.1310   33.6650   47.6980 C   0  0  0  0  0  0  0  0  0  0  0  0
   59.1570   34.4540   47.0650 C   0  0  0  0  0  0  0  0  0  0  0  0
   58.3800   33.9310   46.0310 C   0  0  0  0  0  0  0  0  0  0  0  0
   58.5660   32.6110   45.6090 C   0  0  0  0  0  0  0  0  0  0  0  0
   57.5830   31.9600   44.2990 S   0  0  0  0  0  0  0  0  0  0  0  0
   56.2130   31.6350   44.8260 O   0  0  0  0  0  0  0  0  0  0  0  0
   57.4390   32.9870   43.2100 O   0  0  0  0  0  0  0  0  0  0  0  0
   58.3080   30.5130   43.6680 N   0  0  0  0  0  0  0  0  0  0  0  0
   57.4920   29.3520   44.0280 C   0  0  0  0  0  0  0  0  0  0  0  0
   57.7760   28.9170   45.4410 C   0  0  0  0  0  0  0  0  0  0  0  0
   57.4390   29.6800   46.3870 O   0  0  0  0  0  0  0  0  0  0  0  0
   58.4170   27.6190   45.7620 C   0  0  0  0  0  0  0  0  0  0  0  0
   59.8200   27.5550   45.7400 C   0  0  0  0  0  0  0  0  0  0  0  0
   60.4850   26.3700   46.0570 C   0  0  0  0  0  0  0  0  0  0  0  0
   59.7580   25.2280   46.3850 C   0  0  0  0  0  0  0  0  0  0  0  0
   58.3630   25.2660   46.3940 C   0  0  0  0  0  0  0  0  0  0  0  0
   57.6750   26.4550   46.0990 C   0  0  0  0  0  0  0  0  0  0  0  0
   56.2000   26.4140   46.0200 C   0  0  0  0  0  0  0  0  0  0  0  0
   55.5790   27.4390   45.6320 O   0  0  0  0  0  0  0  0  0  0  0  0
   55.4530   25.2340   46.3420 N   0  0  0  0  0  0  0  0  0  0  0  0
   54.7130   24.4270   45.3780 C   0  0  0  0  0  0  0  0  0  0  0  0
   55.6450   23.4450   44.7290 C   0  0  0  0  0  0  0  0  0  0  0  0
   55.6970   23.3400   43.3300 C   0  0  0  0  0  0  0  0  0  0  0  0
   56.5820   22.4410   42.7220 C   0  0  0  0  0  0  0  0  0  0  0  0
   57.4250   21.6520   43.5070 C   0  0  0  0  0  0  0  0  0  0  0  0
   57.3900   21.7610   44.9000 C   0  0  0  0  0  0  0  0  0  0  0  0
   56.5090   22.6590   45.5100 C   0  0  0  0  0  0  0  0  0  0  0  0
   59.5210   31.8070   46.2440 C   0  0  0  0  0  0  0  0  0  0  0  0
   60.3020   32.3190   47.2950 C   0  0  0  0  0  0  0  0  0  0  0  0
   61.3200   31.4270   47.9570 C   0  0  0  0  0  0  0  0  0  0  0  0
   60.5236   33.9508   49.7824 H   0  0  0  0  0  0  0  0  0  0  0  0
   61.9854   33.9040   48.7394 H   0  0  0  0  0  0  0  0  0  0  0  0
   60.9282   35.3562   48.7394 H   0  0  0  0  0  0  0  0  0  0  0  0
   59.0052   35.4946   47.3876 H   0  0  0  0  0  0  0  0  0  0  0  0
   57.6184   34.5593   45.5460 H   0  0  0  0  0  0  0  0  0  0  0  0
   58.3050   30.6040   42.6260 H   0  0  0  0  0  0  0  0  0  0  0  0
   56.4282   29.6173   43.9392 H   0  0  0  0  0  0  0  0  0  0  0  0
   57.7378   28.5234   43.3476 H   0  0  0  0  0  0  0  0  0  0  0  0
   60.4010   28.4491   45.4698 H   0  0  0  0  0  0  0  0  0  0  0  0
   61.5845   26.3376   46.0479 H   0  0  0  0  0  0  0  0  0  0  0  0
   60.2839   24.2954   46.6372 H   0  0  0  0  0  0  0  0  0  0  0  0
   57.7957   24.3548   46.6348 H   0  0  0  0  0  0  0  0  0  0  0  0
   53.9090   23.8830   45.8954 H   0  0  0  0  0  0  0  0  0  0  0  0
   54.2763   25.0818   44.6095 H   0  0  0  0  0  0  0  0  0  0  0  0
   55.0399   23.9664   42.7089 H   0  0  0  0  0  0  0  0  0  0  0  0
   56.6130   22.3564   41.6257 H   0  0  0  0  0  0  0  0  0  0  0  0
   58.1175   20.9438   43.0286 H   0  0  0  0  0  0  0  0  0  0  0  0
   58.0561   21.1398   45.5168 H   0  0  0  0  0  0  0  0  0  0  0  0
   56.4922   22.7506   46.6060 H   0  0  0  0  0  0  0  0  0  0  0  0
   59.6612   30.7659   45.9176 H   0  0  0  0  0  0  0  0  0  0  0  0
   61.2250   31.5102   49.0497 H   0  0  0  0  0  0  0  0  0  0  0  0
   61.1472   30.3843   47.6523 H   0  0  0  0  0  0  0  0  0  0  0  0
   62.3310   31.7353   47.6523 H   0  0  0  0  0  0  0  0  0  0  0  0
  1  2  1  0
  2  3  2  0
  3  4  1  0
  4  5  2  0
  5  6  1  0
  6  7  2  0
  6  8  2  0
  6  9  1  0
  9 10  1  0
 10 11  1  0
 11 12  2  0
 11 13  1  0
 13 14  2  0
 14 15  1  0
 15 16  2  0
 16 17  1  0
 17 18  2  0
 18 19  1  0
 19 20  2  0
 19 21  1  0
 21 22  1  0
 22 23  1  0
 23 24  2  0
 24 25  1  0
 25 26  2  0
 26 27  1  0
 27 28  2  0
  5 29  1  0
 29 30  2  0
 30 31  1  0
 30  2  1  0
 18 13  1  0
 28 23  1  0
  1 32  1  0
  1 33  1  0
  1 34  1  0
  3 35  1  0
  4 36  1  0
  9 37  1  0
 10 38  1  0
 10 39  1  0
 14 40  1  0
 15 41  1  0
 16 42  1  0
 17 43  1  0
 22 44  1  0
 22 45  1  0
 24 46  1  0
 25 47  1  0
 26 48  1  0
 27 49  1  0
 28 50  1  0
 29 51  1  0
 31 52  1  0
 31 53  1  0
 31 54  1  0
M  CHG  1  21  -1
M  END
>  <UniqueID>  (64) 
58

>  <SMILES>  (64) 
Cc1ccc(S(=O)(=O)NCC(=O)c2ccccc2C(=O)[N-]Cc2ccccc2)cc1C

>  <Energy>  (64) 
61.7792160084207

>  <Genealogy>  (64) 
Cc1ccc(S(=O)(=O)NCC(=O)c2ccccc2C(=O)[N-]Cc2ccccc2)cc1C (protonated)
Cc1ccc(S(=O)(=O)NCC(=O)c2ccccc2C(=O)[N-]Cc2ccccc2)cc1C (3D coordinates assigned)
Cc1ccc(S(=O)(=O)NCC(=O)c2ccccc2C(=O)[N-]Cc2ccccc2)cc1C (optimized conformer: 61.7792160084207 kcal/mol)

>  <smiles>  (64) 
Cc1ccc(S(=O)(=O)NCC(=O)c2ccccc2C(=O)NCc2ccccc2)cc1C

>  <score_type>  (64) 
oracle

>  <origin>  (64) 
adg

>  <m_score__min__energy>  (64) 
-12.24

>  <m_primary>  (64) 
energy

$$$$
65:0
     RDKit          3D

 53 55  0  0  0  0  0  0  0  0999 V2000
   58.9660   27.6930   43.4050 O   0  0  0  0  0  0  0  0  0  0  0  0
   58.2010   27.3010   44.3310 C   0  0  0  0  0  0  0  0  0  0  0  0
   58.5330   26.1130   45.0610 N   0  0  0  0  0  0  0  0  0  0  0  0
   57.6030   25.4920   46.0020 C   0  0  0  0  0  0  0  0  0  0  0  0
   57.7650   23.9530   46.0710 C   0  0  0  0  0  0  0  0  0  0  0  0
   57.1460   23.1370   44.9780 N   0  0  0  0  0  0  0  0  0  0  0  0
   58.0740   22.1070   44.4620 C   0  0  0  0  0  0  0  0  0  0  0  0
   57.3940   21.2190   43.3910 C   0  0  0  0  0  0  0  0  0  0  0  0
   56.0570   21.6160   43.1390 O   0  0  0  0  0  0  0  0  0  0  0  0
   56.0320   22.9720   42.7410 C   0  0  0  0  0  0  0  0  0  0  0  0
   56.5620   23.9060   43.8520 C   0  0  0  0  0  0  0  0  0  0  0  0
   57.0190   28.0520   44.6420 N   0  0  0  0  0  0  0  0  0  0  0  0
   57.0050   29.4830   44.6960 C   0  0  0  0  0  0  0  0  0  0  0  0
   55.9050   30.0960   44.5940 O   0  0  0  0  0  0  0  0  0  0  0  0
   58.2210   30.2260   44.8840 N   0  0  0  0  0  0  0  0  0  0  0  0
   58.2320   31.6240   45.2100 C   0  0  0  0  0  0  0  0  0  0  0  0
   57.4350   32.5260   44.4870 C   0  0  0  0  0  0  0  0  0  0  0  0
   57.3790   33.8680   44.8690 C   0  0  0  0  0  0  0  0  0  0  0  0
   58.1140   34.3140   45.9700 C   0  0  0  0  0  0  0  0  0  0  0  0
   58.9150   33.4280   46.7000 C   0  0  0  0  0  0  0  0  0  0  0  0
   59.6870   33.9350   47.7580 O   0  0  0  0  0  0  0  0  0  0  0  0
   61.0770   33.8070   47.8360 C   0  0  0  0  0  0  0  0  0  0  0  0
   61.7200   33.7320   49.0850 C   0  0  0  0  0  0  0  0  0  0  0  0
   63.1100   33.5540   49.1440 C   0  0  0  0  0  0  0  0  0  0  0  0
   63.8550   33.4710   47.9650 C   0  0  0  0  0  0  0  0  0  0  0  0
   63.2230   33.5940   46.7250 C   0  0  0  0  0  0  0  0  0  0  0  0
   61.8360   33.7760   46.6580 C   0  0  0  0  0  0  0  0  0  0  0  0
   58.9580   32.0730   46.3220 C   0  0  0  0  0  0  0  0  0  0  0  0
   59.4510   25.6630   44.8610 H   0  0  0  0  0  0  0  0  0  0  0  0
   57.7829   25.9105   47.0032 H   0  0  0  0  0  0  0  0  0  0  0  0
   56.5823   25.7043   45.6511 H   0  0  0  0  0  0  0  0  0  0  0  0
   58.8434   23.7361   46.0721 H   0  0  0  0  0  0  0  0  0  0  0  0
   57.2211   23.6572   46.9802 H   0  0  0  0  0  0  0  0  0  0  0  0
   56.3540   22.6180   45.4270 H   0  0  0  0  0  0  0  0  0  0  0  0
   58.9466   22.6041   44.0132 H   0  0  0  0  0  0  0  0  0  0  0  0
   58.3793   21.4646   45.3011 H   0  0  0  0  0  0  0  0  0  0  0  0
   57.9675   21.2904   42.4550 H   0  0  0  0  0  0  0  0  0  0  0  0
   57.3748   20.1865   43.7699 H   0  0  0  0  0  0  0  0  0  0  0  0
   56.6596   23.0919   41.8456 H   0  0  0  0  0  0  0  0  0  0  0  0
   54.9879   23.2477   42.5318 H   0  0  0  0  0  0  0  0  0  0  0  0
   57.3365   24.5620   43.4278 H   0  0  0  0  0  0  0  0  0  0  0  0
   55.7174   24.4952   44.2387 H   0  0  0  0  0  0  0  0  0  0  0  0
   56.1280   27.5420   44.8510 H   0  0  0  0  0  0  0  0  0  0  0  0
   59.1460   29.7510   44.7740 H   0  0  0  0  0  0  0  0  0  0  0  0
   56.8552   32.1758   43.6203 H   0  0  0  0  0  0  0  0  0  0  0  0
   56.7553   34.5749   44.3022 H   0  0  0  0  0  0  0  0  0  0  0  0
   58.0628   35.3721   46.2663 H   0  0  0  0  0  0  0  0  0  0  0  0
   61.1344   33.8127   50.0126 H   0  0  0  0  0  0  0  0  0  0  0  0
   63.6138   33.4797   50.1190 H   0  0  0  0  0  0  0  0  0  0  0  0
   64.9419   33.3084   48.0131 H   0  0  0  0  0  0  0  0  0  0  0  0
   63.8159   33.5478   45.7996 H   0  0  0  0  0  0  0  0  0  0  0  0
   61.3428   33.8945   45.6820 H   0  0  0  0  0  0  0  0  0  0  0  0
   59.5647   31.3623   46.9024 H   0  0  0  0  0  0  0  0  0  0  0  0
  1  2  2  0
  2  3  1  0
  3  4  1  0
  4  5  1  0
  5  6  1  0
  6  7  1  0
  7  8  1  0
  8  9  1  0
  9 10  1  0
 10 11  1  0
  2 12  1  0
 12 13  1  0
 13 14  2  0
 13 15  1  0
 15 16  1  0
 16 17  2  0
 17 18  1  0
 18 19  2  0
 19 20  1  0
 20 21  1  0
 21 22  1  0
 22 23  2  0
 23 24  1  0
 24 25  2  0
 25 26  1  0
 26 27  2  0
 20 28  2  0
 11  6  1  0
 28 16  1  0
 27 22  1  0
  3 29  1  0
  4 30  1  0
  4 31  1  0
  5 32  1  0
  5 33  1  0
  6 34  1  0
  7 35  1  0
  7 36  1  0
  8 37  1  0
  8 38  1  0
 10 39  1  0
 10 40  1  0
 11 41  1  0
 11 42  1  0
 12 43  1  0
 15 44  1  0
 17 45  1  0
 18 46  1  0
 19 47  1  0
 23 48  1  0
 24 49  1  0
 25 50  1  0
 26 51  1  0
 27 52  1  0
 28 53  1  0
M  CHG  1   6   1
M  END
>  <UniqueID>  (65) 
59

>  <SMILES>  (65) 
O=C(NCC[NH+]1CCOCC1)NC(=O)Nc1cccc(Oc2ccccc2)c1

>  <Energy>  (65) 
88.92810702991281

>  <Genealogy>  (65) 
O=C(NCC[NH+]1CCOCC1)NC(=O)Nc1cccc(Oc2ccccc2)c1 (protonated)
O=C(NCC[NH+]1CCOCC1)NC(=O)Nc1cccc(Oc2ccccc2)c1 (3D coordinates assigned)
O=C(NCC[NH+]1CCOCC1)NC(=O)Nc1cccc(Oc2ccccc2)c1 (nonaromatic ring conformer: 88.92810702991281 kcal/mol)

>  <smiles>  (65) 
O=C(NCCN1CCOCC1)NC(=O)Nc1cccc(Oc2ccccc2)c1

>  <score_type>  (65) 
oracle

>  <origin>  (65) 
adg

>  <m_score__min__energy>  (65) 
-7.4000000000000004

>  <m_primary>  (65) 
energy

$$$$
66:0
     RDKit          3D

 53 56  0  0  0  0  0  0  0  0999 V2000
   60.8306   27.9659   48.2027 H   0  0  0  0  0  0  0  0  0  0  0  0
   60.2320   28.5880   47.5210 C   0  0  0  0  0  0  0  0  0  0  0  0
   59.6780   28.1330   45.9990 S   0  0  0  0  0  0  0  0  0  0  0  0
   58.9050   29.6010   45.7140 C   0  0  0  0  0  0  0  0  0  0  0  0
   58.2880   29.9520   44.6240 N   0  0  0  0  0  0  0  0  0  0  0  0
   57.1930   30.8720   44.4900 C   0  0  0  0  0  0  0  0  0  0  0  0
   56.0200   30.4150   44.5240 O   0  0  0  0  0  0  0  0  0  0  0  0
   57.3950   32.3300   44.1680 C   0  0  0  0  0  0  0  0  0  0  0  0
   57.8434   32.4168   43.1673 H   0  0  0  0  0  0  0  0  0  0  0  0
   56.4163   32.8311   44.2017 H   0  0  0  0  0  0  0  0  0  0  0  0
   58.2870   32.9820   45.1540 N   0  0  0  0  0  0  0  0  0  0  0  0
   57.5610   33.3230   46.3940 C   0  0  0  0  0  0  0  0  0  0  0  0
   56.8476   34.1331   46.1823 H   0  0  0  0  0  0  0  0  0  0  0  0
   57.0311   32.4265   46.7483 H   0  0  0  0  0  0  0  0  0  0  0  0
   58.5370   33.7850   47.4950 C   0  0  0  0  0  0  0  0  0  0  0  0
   58.0491   34.5757   48.0839 H   0  0  0  0  0  0  0  0  0  0  0  0
   58.7801   32.9021   48.1045 H   0  0  0  0  0  0  0  0  0  0  0  0
   59.8720   34.3390   46.9410 C   0  0  0  0  0  0  0  0  0  0  0  0
   60.2807   35.0710   47.6532 H   0  0  0  0  0  0  0  0  0  0  0  0
   60.9430   33.2260   46.8220 C   0  0  0  0  0  0  0  0  0  0  0  0
   60.4498   32.2482   46.9254 H   0  0  0  0  0  0  0  0  0  0  0  0
   61.4281   33.3299   45.8402 H   0  0  0  0  0  0  0  0  0  0  0  0
   62.0130   33.3440   47.8800 C   0  0  0  0  0  0  0  0  0  0  0  0
   61.8360   34.2000   48.9820 C   0  0  0  0  0  0  0  0  0  0  0  0
   60.9170   34.7982   49.0696 H   0  0  0  0  0  0  0  0  0  0  0  0
   62.8250   34.2930   49.9670 C   0  0  0  0  0  0  0  0  0  0  0  0
   62.6836   34.9666   50.8251 H   0  0  0  0  0  0  0  0  0  0  0  0
   63.9920   33.5320   49.8630 C   0  0  0  0  0  0  0  0  0  0  0  0
   64.7681   33.6070   50.6389 H   0  0  0  0  0  0  0  0  0  0  0  0
   64.1740   32.6750   48.7730 C   0  0  0  0  0  0  0  0  0  0  0  0
   65.0927   32.0755   48.6924 H   0  0  0  0  0  0  0  0  0  0  0  0
   63.1890   32.5800   47.7860 C   0  0  0  0  0  0  0  0  0  0  0  0
   63.3349   31.9036   46.9309 H   0  0  0  0  0  0  0  0  0  0  0  0
   59.6210   35.0760   45.6110 C   0  0  0  0  0  0  0  0  0  0  0  0
   59.0105   35.9681   45.8143 H   0  0  0  0  0  0  0  0  0  0  0  0
   60.6026   35.3379   45.1893 H   0  0  0  0  0  0  0  0  0  0  0  0
   58.8860   34.2030   44.5660 C   0  0  0  0  0  0  0  0  0  0  0  0
   58.0845   34.8022   44.1093 H   0  0  0  0  0  0  0  0  0  0  0  0
   59.6302   33.8807   43.8228 H   0  0  0  0  0  0  0  0  0  0  0  0
   59.0720   30.4450   46.7530 N   0  0  0  0  0  0  0  0  0  0  0  0
   58.6950   31.4210   46.7590 H   0  0  0  0  0  0  0  0  0  0  0  0
   59.7990   29.8950   47.7690 C   0  0  0  0  0  0  0  0  0  0  0  0
   60.0940   30.6260   49.0260 C   0  0  0  0  0  0  0  0  0  0  0  0
   61.3290   30.4550   49.6790 C   0  0  0  0  0  0  0  0  0  0  0  0
   62.0802   29.7718   49.2561 H   0  0  0  0  0  0  0  0  0  0  0  0
   61.6080   31.1470   50.8610 C   0  0  0  0  0  0  0  0  0  0  0  0
   62.5774   31.0092   51.3622 H   0  0  0  0  0  0  0  0  0  0  0  0
   60.6590   32.0120   51.4060 C   0  0  0  0  0  0  0  0  0  0  0  0
   60.8788   32.5524   52.3385 H   0  0  0  0  0  0  0  0  0  0  0  0
   59.4300   32.1920   50.7680 C   0  0  0  0  0  0  0  0  0  0  0  0
   58.6826   32.8746   51.1985 H   0  0  0  0  0  0  0  0  0  0  0  0
   59.1480   31.5060   49.5830 C   0  0  0  0  0  0  0  0  0  0  0  0
   58.1798   31.6553   49.0826 H   0  0  0  0  0  0  0  0  0  0  0  0
  1  2  1  0
  2  3  1  0
  3  4  1  0
  4  5  2  0
  5  6  1  0
  6  7  2  0
  6  8  1  0
  8  9  1  0
  8 10  1  0
  8 11  1  0
 11 12  1  0
 12 13  1  0
 12 14  1  0
 12 15  1  0
 15 16  1  0
 15 17  1  0
 15 18  1  0
 18 19  1  0
 18 20  1  0
 20 21  1  0
 20 22  1  0
 20 23  1  0
 23 24  2  0
 24 25  1  0
 24 26  1  0
 26 27  1  0
 26 28  2  0
 28 29  1  0
 28 30  1  0
 30 31  1  0
 30 32  2  0
 32 33  1  0
 18 34  1  0
 34 35  1  0
 34 36  1  0
 34 37  1  0
 37 38  1  0
 37 39  1  0
  4 40  1  0
 40 41  1  0
 40 42  1  0
 42 43  1  0
 43 44  2  0
 44 45  1  0
 44 46  1  0
 46 47  1  0
 46 48  2  0
 48 49  1  0
 48 50  1  0
 50 51  1  0
 50 52  2  0
 52 53  1  0
 42  2  2  0
 52 43  1  0
 37 11  1  0
 32 23  1  0
M  END
>  <UniqueID>  (66) 
60

>  <SMILES>  (66) 
O=C(CN1CCC(Cc2ccccc2)CC1)/N=c1/[nH]c(-c2ccccc2)cs1

>  <Energy>  (66) 
100.04143255376931

>  <Genealogy>  (66) 
O=C(CN1CCC(Cc2ccccc2)CC1)/N=c1/[nH]c(-c2ccccc2)cs1 (cis-trans isomerization)
O=C(CN1CCC(Cc2ccccc2)CC1)/N=c1/[nH]c(-c2ccccc2)cs1 (3D coordinates assigned)
O=C(CN1CCC(Cc2ccccc2)CC1)/N=c1/[nH]c(-c2ccccc2)cs1 (nonaromatic ring conformer: 100.04143255376931 kcal/mol)

>  <smiles>  (66) 
O=C(CN1CCC(Cc2ccccc2)CC1)N=c1[nH]c(-c2ccccc2)cs1

>  <score_type>  (66) 
oracle

>  <origin>  (66) 
adg

>  <m_score__min__energy>  (66) 
-9.6899999999999995

>  <m_primary>  (66) 
energy

$$$$
67:0
     RDKit          3D

 38 39  0  0  0  0  0  0  0  0999 V2000
   66.8030   31.0490   50.8940 C   0  0  0  0  0  0  0  0  0  0  0  0
   65.6190   31.9990   51.0410 C   0  0  0  0  0  0  0  0  0  0  0  0
   65.5410   32.9740   49.8630 C   0  0  0  0  0  0  0  0  0  0  0  0
   64.2780   32.7500   49.0730 C   0  0  0  0  0  0  0  0  0  0  0  0
   63.3330   31.8070   49.5020 C   0  0  0  0  0  0  0  0  0  0  0  0
   62.1770   31.5740   48.7510 C   0  0  0  0  0  0  0  0  0  0  0  0
   61.9450   32.2830   47.5630 C   0  0  0  0  0  0  0  0  0  0  0  0
   60.7600   32.0070   46.7970 N   0  0  0  0  0  0  0  0  0  0  0  0
   59.9090   33.0240   46.2420 C   0  0  0  0  0  0  0  0  0  0  0  0
   59.9140   34.1870   46.7220 O   0  0  0  0  0  0  0  0  0  0  0  0
   58.9690   32.7070   45.2080 N   0  0  0  0  0  0  0  0  0  0  0  0
   58.0930   31.5710   45.1860 C   0  0  0  0  0  0  0  0  0  0  0  0
   56.9190   31.5600   44.4140 C   0  0  0  0  0  0  0  0  0  0  0  0
   56.0750   30.4480   44.4370 C   0  0  0  0  0  0  0  0  0  0  0  0
   56.3810   29.3460   45.2390 C   0  0  0  0  0  0  0  0  0  0  0  0
   55.5300   28.2460   45.2480 O   0  0  0  0  0  0  0  0  0  0  0  0
   57.5360   29.3510   46.0360 C   0  0  0  0  0  0  0  0  0  0  0  0
   57.8160   28.2050   46.8580 N   0  0  0  0  0  0  0  0  0  0  0  0
   58.9130   28.0250   47.4780 C   0  0  0  0  0  0  0  0  0  0  0  0
   60.3020   27.7980   48.2640 S   0  0  0  0  0  0  0  0  0  0  0  0
   58.3850   30.4760   46.0090 C   0  0  0  0  0  0  0  0  0  0  0  0
   62.9110   33.2040   47.1170 C   0  0  0  0  0  0  0  0  0  0  0  0
   64.0670   33.4360   47.8670 C   0  0  0  0  0  0  0  0  0  0  0  0
   67.1656   30.7580   51.8909 H   0  0  0  0  0  0  0  0  0  0  0  0
   66.4866   30.1514   50.3425 H   0  0  0  0  0  0  0  0  0  0  0  0
   67.6108   31.5524   50.3425 H   0  0  0  0  0  0  0  0  0  0  0  0
   64.6903   31.4110   51.0820 H   0  0  0  0  0  0  0  0  0  0  0  0
   65.7517   32.5801   51.9655 H   0  0  0  0  0  0  0  0  0  0  0  0
   65.5500   34.0052   50.2458 H   0  0  0  0  0  0  0  0  0  0  0  0
   66.4060   32.8053   49.2047 H   0  0  0  0  0  0  0  0  0  0  0  0
   63.5021   31.2478   50.4340 H   0  0  0  0  0  0  0  0  0  0  0  0
   61.4439   30.8292   49.0942 H   0  0  0  0  0  0  0  0  0  0  0  0
   60.4500   31.0130   46.7090 H   0  0  0  0  0  0  0  0  0  0  0  0
   56.6643   32.4294   43.7901 H   0  0  0  0  0  0  0  0  0  0  0  0
   55.1642   30.4397   43.8203 H   0  0  0  0  0  0  0  0  0  0  0  0
   59.2855   30.4940   46.6404 H   0  0  0  0  0  0  0  0  0  0  0  0
   62.7551   33.7448   46.1719 H   0  0  0  0  0  0  0  0  0  0  0  0
   64.8149   34.1595   47.5105 H   0  0  0  0  0  0  0  0  0  0  0  0
  1  2  1  0
  2  3  1  0
  3  4  1  0
  4  5  2  0
  5  6  1  0
  6  7  2  0
  7  8  1  0
  8  9  1  0
  9 10  2  0
  9 11  1  0
 11 12  1  0
 12 13  2  0
 13 14  1  0
 14 15  2  0
 15 16  1  0
 15 17  1  0
 17 18  1  0
 18 19  2  0
 19 20  2  0
 17 21  2  0
  7 22  1  0
 22 23  2  0
 23  4  1  0
 21 12  1  0
  1 24  1  0
  1 25  1  0
  1 26  1  0
  2 27  1  0
  2 28  1  0
  3 29  1  0
  3 30  1  0
  5 31  1  0
  6 32  1  0
  8 33  1  0
 13 34  1  0
 14 35  1  0
 21 36  1  0
 22 37  1  0
 23 38  1  0
M  CHG  2  11  -1  16  -1
M  END
>  <UniqueID>  (67) 
61

>  <SMILES>  (67) 
CCCc1ccc(NC(=O)[N-]c2ccc([O-])c(N=C=S)c2)cc1

>  <Energy>  (67) 
40.85548104634574

>  <Genealogy>  (67) 
CCCc1ccc(NC(=O)[N-]c2ccc([O-])c(N=C=S)c2)cc1 (protonated)
CCCc1ccc(NC(=O)[N-]c2ccc([O-])c(N=C=S)c2)cc1 (3D coordinates assigned)
CCCc1ccc(NC(=O)[N-]c2ccc([O-])c(N=C=S)c2)cc1 (optimized conformer: 40.85548104634574 kcal/mol)

>  <smiles>  (67) 
CCCc1ccc(NC(=O)Nc2ccc(O)c(N=C=S)c2)cc1

>  <score_type>  (67) 
oracle

>  <origin>  (67) 
adg

>  <m_score__min__energy>  (67) 
-11.859999999999999

>  <m_primary>  (67) 
energy

$$$$
68:0
     RDKit          3D

 46 49  0  0  0  0  0  0  0  0999 V2000
   55.5340   28.5900   45.2220 O   0  0  0  0  0  0  0  0  0  0  0  0
   56.1250   29.5570   44.6760 C   0  0  0  0  0  0  0  0  0  0  0  0
   55.6130   30.8390   44.8180 O   0  0  0  0  0  0  0  0  0  0  0  0
   57.3880   29.3300   43.9050 C   0  0  0  0  0  0  0  0  0  0  0  0
   58.5630   29.2050   44.8510 C   0  0  0  0  0  0  0  0  0  0  0  0
   59.5170   28.2070   44.5730 C   0  0  0  0  0  0  0  0  0  0  0  0
   60.5820   27.9720   45.4420 C   0  0  0  0  0  0  0  0  0  0  0  0
   60.7060   28.7150   46.6110 C   0  0  0  0  0  0  0  0  0  0  0  0
   59.7700   29.7020   46.9120 C   0  0  0  0  0  0  0  0  0  0  0  0
   58.6960   29.9780   46.0430 C   0  0  0  0  0  0  0  0  0  0  0  0
   57.7710   31.0330   46.4050 N   0  0  0  0  0  0  0  0  0  0  0  0
   58.2640   32.3160   45.9410 C   0  0  0  0  0  0  0  0  0  0  0  0
   58.0040   32.7080   44.6120 C   0  0  0  0  0  0  0  0  0  0  0  0
   58.5080   33.9050   44.1040 C   0  0  0  0  0  0  0  0  0  0  0  0
   59.2800   34.7360   44.9100 C   0  0  0  0  0  0  0  0  0  0  0  0
   59.5470   34.3750   46.2300 C   0  0  0  0  0  0  0  0  0  0  0  0
   59.0500   33.1730   46.7620 C   0  0  0  0  0  0  0  0  0  0  0  0
   59.3460   32.8760   48.1780 C   0  0  0  0  0  0  0  0  0  0  0  0
   58.3980   32.5860   48.9550 O   0  0  0  0  0  0  0  0  0  0  0  0
   60.6850   32.9770   48.6920 N   0  0  0  0  0  0  0  0  0  0  0  0
   61.0820   32.9800   50.0670 C   0  0  0  0  0  0  0  0  0  0  0  0
   60.2820   32.9500   51.0380 O   0  0  0  0  0  0  0  0  0  0  0  0
   62.5360   33.0250   50.1690 C   0  0  0  0  0  0  0  0  0  0  0  0
   63.3720   33.0480   51.2850 C   0  0  0  0  0  0  0  0  0  0  0  0
   64.7600   33.0860   51.0700 C   0  0  0  0  0  0  0  0  0  0  0  0
   65.2810   33.0940   49.7580 C   0  0  0  0  0  0  0  0  0  0  0  0
   64.4180   33.0710   48.6480 C   0  0  0  0  0  0  0  0  0  0  0  0
   63.0450   33.0400   48.8880 C   0  0  0  0  0  0  0  0  0  0  0  0
   61.9200   33.0040   47.9630 C   0  0  0  0  0  0  0  0  0  0  0  0
   62.0130   32.9590   46.7070 O   0  0  0  0  0  0  0  0  0  0  0  0
   57.2940   28.4044   43.3181 H   0  0  0  0  0  0  0  0  0  0  0  0
   57.5572   30.1849   43.2338 H   0  0  0  0  0  0  0  0  0  0  0  0
   59.4207   27.6045   43.6577 H   0  0  0  0  0  0  0  0  0  0  0  0
   61.3254   27.1975   45.2024 H   0  0  0  0  0  0  0  0  0  0  0  0
   61.5433   28.5233   47.2981 H   0  0  0  0  0  0  0  0  0  0  0  0
   59.8713   30.2761   47.8448 H   0  0  0  0  0  0  0  0  0  0  0  0
   57.6490   31.0110   47.4400 H   0  0  0  0  0  0  0  0  0  0  0  0
   56.8170   30.8800   46.0180 H   0  0  0  0  0  0  0  0  0  0  0  0
   57.3941   32.0597   43.9657 H   0  0  0  0  0  0  0  0  0  0  0  0
   58.2948   34.1928   43.0640 H   0  0  0  0  0  0  0  0  0  0  0  0
   59.6796   35.6777   44.5058 H   0  0  0  0  0  0  0  0  0  0  0  0
   60.1541   35.0392   46.8627 H   0  0  0  0  0  0  0  0  0  0  0  0
   62.9570   33.0367   52.3036 H   0  0  0  0  0  0  0  0  0  0  0  0
   65.4455   33.1097   51.9300 H   0  0  0  0  0  0  0  0  0  0  0  0
   66.3697   33.1184   49.6029 H   0  0  0  0  0  0  0  0  0  0  0  0
   64.8141   33.0773   47.6218 H   0  0  0  0  0  0  0  0  0  0  0  0
  1  2  2  0
  2  3  1  0
  2  4  1  0
  4  5  1  0
  5  6  2  0
  6  7  1  0
  7  8  2  0
  8  9  1  0
  9 10  2  0
 10 11  1  0
 11 12  1  0
 12 13  2  0
 13 14  1  0
 14 15  2  0
 15 16  1  0
 16 17  2  0
 17 18  1  0
 18 19  2  0
 18 20  1  0
 20 21  1  0
 21 22  2  0
 21 23  1  0
 23 24  2  0
 24 25  1  0
 25 26  2  0
 26 27  1  0
 27 28  2  0
 28 29  1  0
 29 30  2  0
 10  5  1  0
 17 12  1  0
 29 20  1  0
 28 23  1  0
  4 31  1  0
  4 32  1  0
  6 33  1  0
  7 34  1  0
  8 35  1  0
  9 36  1  0
 11 37  1  0
 11 38  1  0
 13 39  1  0
 14 40  1  0
 15 41  1  0
 16 42  1  0
 24 43  1  0
 25 44  1  0
 26 45  1  0
 27 46  1  0
M  CHG  2   3  -1  11   1
M  END
>  <UniqueID>  (68) 
62

>  <SMILES>  (68) 
O=C([O-])Cc1ccccc1[NH2+]c1ccccc1C(=O)N1C(=O)c2ccccc2C1=O

>  <Energy>  (68) 
96.10998444061428

>  <Genealogy>  (68) 
O=C([O-])Cc1ccccc1[NH2+]c1ccccc1C(=O)N1C(=O)c2ccccc2C1=O (protonated)
O=C([O-])Cc1ccccc1[NH2+]c1ccccc1C(=O)N1C(=O)c2ccccc2C1=O (3D coordinates assigned)
O=C([O-])Cc1ccccc1[NH2+]c1ccccc1C(=O)N1C(=O)c2ccccc2C1=O (nonaromatic ring conformer: 96.10998444061428 kcal/mol)

>  <smiles>  (68) 
O=C(O)Cc1ccccc1Nc1ccccc1C(=O)N1C(=O)c2ccccc2C1=O

>  <score_type>  (68) 
oracle

>  <origin>  (68) 
adg

>  <m_score__min__energy>  (68) 
-10.17

>  <m_primary>  (68) 
energy

$$$$
69:0
     RDKit          3D

 47 51  0  0  0  0  0  0  0  0999 V2000
   65.1610   31.8520   50.6430 O   0  0  0  0  0  0  0  0  0  0  0  0
   64.4000   32.3720   49.7870 C   0  0  0  0  0  0  0  0  0  0  0  0
   64.8670   33.0280   48.6250 N   0  0  0  0  0  0  0  0  0  0  0  0
   63.6770   33.4390   47.9660 C   0  0  0  0  0  0  0  0  0  0  0  0
   63.6820   34.0590   46.8680 O   0  0  0  0  0  0  0  0  0  0  0  0
   62.4380   33.0420   48.7170 C   0  0  1  0  0  0  0  0  0  0  0  0
   61.6640   34.2670   49.1510 C   0  0  0  0  0  0  0  0  0  0  0  0
   60.4830   34.5960   48.6180 C   0  0  0  0  0  0  0  0  0  0  0  0
   59.8260   33.7290   47.6260 C   0  0  0  0  0  0  0  0  0  0  0  0
   58.6200   34.1140   47.0290 C   0  0  0  0  0  0  0  0  0  0  0  0
   57.9930   33.2740   46.1040 C   0  0  0  0  0  0  0  0  0  0  0  0
   58.5580   32.0270   45.7710 C   0  0  0  0  0  0  0  0  0  0  0  0
   57.9120   31.1220   44.7860 C   0  0  0  0  0  0  0  0  0  0  0  0
   57.2530   31.6150   43.6470 C   0  0  0  0  0  0  0  0  0  0  0  0
   56.6640   30.7200   42.7540 C   0  0  0  0  0  0  0  0  0  0  0  0
   56.7230   29.3480   42.9970 C   0  0  0  0  0  0  0  0  0  0  0  0
   57.3700   28.8760   44.1530 C   0  0  0  0  0  0  0  0  0  0  0  0
   57.4470   27.4650   44.4550 N   0  0  0  0  0  0  0  0  0  0  0  0
   57.9680   26.5050   43.4700 C   0  0  0  0  0  0  0  0  0  0  0  0
   57.3830   25.1120   43.7240 C   0  0  0  0  0  0  0  0  0  0  0  0
   57.5480   24.7340   45.0770 O   0  0  0  0  0  0  0  0  0  0  0  0
   56.7800   25.5870   45.9010 C   0  0  0  0  0  0  0  0  0  0  0  0
   57.3160   27.0200   45.8500 C   0  0  0  0  0  0  0  0  0  0  0  0
   57.9410   29.7770   45.0010 N   0  0  0  0  0  0  0  0  0  0  0  0
   59.7740   31.6520   46.3720 C   0  0  0  0  0  0  0  0  0  0  0  0
   60.4060   32.4970   47.2940 C   0  0  0  0  0  0  0  0  0  0  0  0
   61.6380   32.1070   47.9150 N   0  0  0  0  0  0  0  0  0  0  0  0
   62.9820   32.3550   49.8870 N   0  0  0  0  0  0  0  0  0  0  0  0
   65.8540   33.1710   48.3190 H   0  0  0  0  0  0  0  0  0  0  0  0
   62.0889   34.9114   49.9347 H   0  0  0  0  0  0  0  0  0  0  0  0
   59.9932   35.5315   48.9262 H   0  0  0  0  0  0  0  0  0  0  0  0
   58.1640   35.0808   47.2885 H   0  0  0  0  0  0  0  0  0  0  0  0
   57.0507   33.5892   45.6322 H   0  0  0  0  0  0  0  0  0  0  0  0
   57.2021   32.6980   43.4612 H   0  0  0  0  0  0  0  0  0  0  0  0
   56.1520   31.0970   41.8564 H   0  0  0  0  0  0  0  0  0  0  0  0
   56.2667   28.6400   42.2895 H   0  0  0  0  0  0  0  0  0  0  0  0
   57.6903   26.8362   42.4585 H   0  0  0  0  0  0  0  0  0  0  0  0
   59.0629   26.4556   43.5631 H   0  0  0  0  0  0  0  0  0  0  0  0
   56.3102   25.1222   43.4812 H   0  0  0  0  0  0  0  0  0  0  0  0
   57.9138   24.3870   43.0894 H   0  0  0  0  0  0  0  0  0  0  0  0
   55.7363   25.5799   45.5538 H   0  0  0  0  0  0  0  0  0  0  0  0
   56.8414   25.2245   46.9377 H   0  0  0  0  0  0  0  0  0  0  0  0
   56.6202   27.6870   46.3801 H   0  0  0  0  0  0  0  0  0  0  0  0
   58.3052   27.0499   46.3301 H   0  0  0  0  0  0  0  0  0  0  0  0
   60.2330   30.6858   46.1154 H   0  0  0  0  0  0  0  0  0  0  0  0
   62.0410   31.1660   47.7020 H   0  0  0  0  0  0  0  0  0  0  0  0
   62.4290   31.9130   50.6550 H   0  0  0  0  0  0  0  0  0  0  0  0
  1  2  2  0
  2  3  1  0
  3  4  1  0
  4  5  2  0
  4  6  1  0
  6  7  1  0
  7  8  2  0
  8  9  1  0
  9 10  2  0
 10 11  1  0
 11 12  2  0
 12 13  1  0
 13 14  2  0
 14 15  1  0
 15 16  2  0
 16 17  1  0
 17 18  1  0
 18 19  1  0
 19 20  1  0
 20 21  1  0
 21 22  1  0
 22 23  1  0
 17 24  2  0
 12 25  1  0
 25 26  2  0
 26 27  1  0
  6 28  1  1
 28  2  1  0
 27  6  1  0
 26  9  1  0
 24 13  1  0
 23 18  1  0
  3 29  1  0
  7 30  1  0
  8 31  1  0
 10 32  1  0
 11 33  1  0
 14 34  1  0
 15 35  1  0
 16 36  1  0
 19 37  1  0
 19 38  1  0
 20 39  1  0
 20 40  1  0
 22 41  1  0
 22 42  1  0
 23 43  1  0
 23 44  1  0
 25 45  1  0
 27 46  1  0
 28 47  1  0
M  END
>  <UniqueID>  (69) 
63

>  <SMILES>  (69) 
O=C1NC(=O)[C@]2(C=Cc3ccc(-c4cccc(N5CCOCC5)n4)cc3N2)N1

>  <Energy>  (69) 
79.52409148838709

>  <Genealogy>  (69) 
O=C1NC(=O)[C@]2(C=Cc3ccc(-c4cccc(N5CCOCC5)n4)cc3N2)N1 (chirality)
O=C1NC(=O)[C@]2(C=Cc3ccc(-c4cccc(N5CCOCC5)n4)cc3N2)N1 (3D coordinates assigned)
O=C1NC(=O)[C@]2(C=Cc3ccc(-c4cccc(N5CCOCC5)n4)cc3N2)N1 (nonaromatic ring conformer: 79.52409148838709 kcal/mol)

>  <smiles>  (69) 
O=C1NC(=O)C2(C=Cc3ccc(-c4cccc(N5CCOCC5)n4)cc3N2)N1

>  <score_type>  (69) 
oracle

>  <origin>  (69) 
adg

>  <m_score__min__energy>  (69) 
-8.6400000000000006

>  <m_primary>  (69) 
energy

$$$$
70:0
     RDKit          3D

 60 64  0  0  0  0  0  0  0  0999 V2000
   60.3140   33.8070   51.1870 N   0  0  0  0  0  0  0  0  0  0  0  0
   59.9240   33.5710   49.9770 C   0  0  0  0  0  0  0  0  0  0  0  0
   60.2400   34.4730   49.0120 N   0  0  0  0  0  0  0  0  0  0  0  0
   59.8830   34.3230   47.7270 C   0  0  0  0  0  0  0  0  0  0  0  0
   59.1620   33.1900   47.3960 C   0  0  0  0  0  0  0  0  0  0  0  0
   58.7100   32.9030   46.0400 C   0  0  0  0  0  0  0  0  0  0  0  0
   58.8570   33.7830   44.9890 C   0  0  0  0  0  0  0  0  0  0  0  0
   58.4140   33.4740   43.7110 C   0  0  0  0  0  0  0  0  0  0  0  0
   57.8010   32.2510   43.4450 C   0  0  0  0  0  0  0  0  0  0  0  0
   57.2830   31.6860   42.3270 N   0  0  0  0  0  0  0  0  0  0  0  0
   56.8100   30.4690   42.6450 C   0  0  0  0  0  0  0  0  0  0  0  0
   57.0250   30.2410   43.9850 C   0  0  0  0  0  0  0  0  0  0  0  0
   56.7100   29.1060   44.8190 C   0  0  0  0  0  0  0  0  0  0  0  0
   55.5380   28.8460   45.1210 O   0  0  0  0  0  0  0  0  0  0  0  0
   57.8110   28.3050   45.2750 N   0  0  0  0  0  0  0  0  0  0  0  0
   59.1840   28.5990   44.9340 C   0  0  0  0  0  0  0  0  0  0  0  0
   60.0850   28.6190   46.1430 C   0  0  0  0  0  0  0  0  0  0  0  0
   59.7510   27.5580   47.1430 C   0  0  0  0  0  0  0  0  0  0  0  0
   60.4210   27.8510   48.4370 C   0  0  0  0  0  0  0  0  0  0  0  0
   60.7530   26.9130   49.2100 O   0  0  0  0  0  0  0  0  0  0  0  0
   60.6640   29.2030   48.7590 N   0  0  0  0  0  0  0  0  0  0  0  0
   61.3000   29.6610   49.9750 C   0  0  0  0  0  0  0  0  0  0  0  0
   62.1590   30.8350   49.6890 C   0  0  0  0  0  0  0  0  0  0  0  0
   62.2310   31.3100   48.3820 C   0  0  0  0  0  0  0  0  0  0  0  0
   63.0080   32.3920   48.0340 C   0  0  0  0  0  0  0  0  0  0  0  0
   63.7510   33.0500   48.9880 C   0  0  0  0  0  0  0  0  0  0  0  0
   63.6850   32.5850   50.2890 C   0  0  0  0  0  0  0  0  0  0  0  0
   62.9050   31.5010   50.6280 C   0  0  0  0  0  0  0  0  0  0  0  0
   58.2710   27.4310   47.4300 C   0  0  0  0  0  0  0  0  0  0  0  0
   57.5800   27.1350   46.1150 C   0  0  0  0  0  0  0  0  0  0  0  0
   57.6580   31.3830   44.4930 C   0  0  0  0  0  0  0  0  0  0  0  0
   58.1020   31.6990   45.7650 C   0  0  0  0  0  0  0  0  0  0  0  0
   58.8340   32.2590   48.3820 C   0  0  0  0  0  0  0  0  0  0  0  0
   59.2120   32.4480   49.6610 N   0  0  0  0  0  0  0  0  0  0  0  0
   61.2460   33.4370   51.4710 H   0  0  0  0  0  0  0  0  0  0  0  0
   60.1530   35.0713   46.9673 H   0  0  0  0  0  0  0  0  0  0  0  0
   59.3382   34.7558   45.1684 H   0  0  0  0  0  0  0  0  0  0  0  0
   58.5482   34.2029   42.8982 H   0  0  0  0  0  0  0  0  0  0  0  0
   57.2830   32.1740   41.4010 H   0  0  0  0  0  0  0  0  0  0  0  0
   56.3287   29.7682   41.9469 H   0  0  0  0  0  0  0  0  0  0  0  0
   59.5469   27.8305   44.2357 H   0  0  0  0  0  0  0  0  0  0  0  0
   59.2097   29.6006   44.4800 H   0  0  0  0  0  0  0  0  0  0  0  0
   61.1224   28.4705   45.8087 H   0  0  0  0  0  0  0  0  0  0  0  0
   59.9464   29.5912   46.6386 H   0  0  0  0  0  0  0  0  0  0  0  0
   60.0994   26.6160   46.6944 H   0  0  0  0  0  0  0  0  0  0  0  0
   60.3630   29.9530   48.0650 H   0  0  0  0  0  0  0  0  0  0  0  0
   60.5277   29.9444   50.7052 H   0  0  0  0  0  0  0  0  0  0  0  0
   61.9217   28.8507   50.3836 H   0  0  0  0  0  0  0  0  0  0  0  0
   61.6466   30.8029   47.6001 H   0  0  0  0  0  0  0  0  0  0  0  0
   63.0352   32.7324   46.9884 H   0  0  0  0  0  0  0  0  0  0  0  0
   64.3759   33.9161   48.7246 H   0  0  0  0  0  0  0  0  0  0  0  0
   64.2688   33.0924   51.0711 H   0  0  0  0  0  0  0  0  0  0  0  0
   62.8799   31.1623   51.6743 H   0  0  0  0  0  0  0  0  0  0  0  0
   58.0946   26.6103   48.1408 H   0  0  0  0  0  0  0  0  0  0  0  0
   57.8800   28.3579   47.8749 H   0  0  0  0  0  0  0  0  0  0  0  0
   58.0115   26.2370   45.6487 H   0  0  0  0  0  0  0  0  0  0  0  0
   56.5062   26.9418   46.2553 H   0  0  0  0  0  0  0  0  0  0  0  0
   57.9656   30.9696   46.5770 H   0  0  0  0  0  0  0  0  0  0  0  0
   58.2601   31.3603   48.1118 H   0  0  0  0  0  0  0  0  0  0  0  0
   58.9730   31.7620   50.4050 H   0  0  0  0  0  0  0  0  0  0  0  0
  1  2  2  3
  2  3  1  0
  3  4  2  0
  4  5  1  0
  5  6  1  0
  6  7  2  0
  7  8  1  0
  8  9  2  0
  9 10  1  0
 10 11  1  0
 11 12  2  0
 12 13  1  0
 13 14  2  0
 13 15  1  0
 15 16  1  0
 16 17  1  0
 17 18  1  0
 18 19  1  0
 19 20  2  0
 19 21  1  0
 21 22  1  0
 22 23  1  0
 23 24  2  0
 24 25  1  0
 25 26  2  0
 26 27  1  0
 27 28  2  0
 18 29  1  0
 29 30  1  0
 12 31  1  0
 31 32  2  0
  5 33  2  0
 33 34  1  0
 34  2  1  0
 32  6  1  0
 31  9  1  0
 30 15  1  0
 28 23  1  0
  1 35  1  0
  4 36  1  0
  7 37  1  0
  8 38  1  0
 10 39  1  0
 11 40  1  0
 16 41  1  0
 16 42  1  0
 17 43  1  0
 17 44  1  0
 18 45  1  0
 21 46  1  0
 22 47  1  0
 22 48  1  0
 24 49  1  0
 25 50  1  0
 26 51  1  0
 27 52  1  0
 28 53  1  0
 29 54  1  0
 29 55  1  0
 30 56  1  0
 30 57  1  0
 32 58  1  0
 33 59  1  0
 34 60  1  0
M  END
>  <smiles>  (70) 
N=c1ncc(-c2ccc3[nH]cc(C(=O)N4CCC(C(=O)NCc5ccccc5)CC4)c3c2)c[nH]1

>  <score_type>  (70) 
oracle

>  <origin>  (70) 
adg

>  <m_score__min__energy>  (70) 
-9.3399999999999999

>  <m_primary>  (70) 
energy

$$$$
71:0
     RDKit          3D

 73 76  0  0  0  0  0  0  0  0999 V2000
   62.4390   32.7810   47.1070 C   0  0  0  0  0  0  0  0  0  0  0  0
   61.3440   31.4600   47.5880 S   0  0  0  0  0  0  0  0  0  0  0  0
   61.6810   30.9740   48.9700 O   0  0  0  0  0  0  0  0  0  0  0  0
   61.5050   30.3200   46.6230 O   0  0  0  0  0  0  0  0  0  0  0  0
   59.6960   31.9990   47.5420 N   0  0  0  0  0  0  0  0  0  0  0  0
   58.9460   32.2910   46.3540 C   0  0  0  0  0  0  0  0  0  0  0  0
   59.0090   33.5430   45.7200 C   0  0  0  0  0  0  0  0  0  0  0  0
   58.2460   33.7910   44.5770 C   0  0  0  0  0  0  0  0  0  0  0  0
   57.4060   32.8020   44.0620 C   0  0  0  0  0  0  0  0  0  0  0  0
   57.3270   31.5450   44.6840 C   0  0  0  0  0  0  0  0  0  0  0  0
   56.4360   30.4860   44.1540 C   0  0  0  0  0  0  0  0  0  0  0  0
   55.2220   30.4680   44.4980 O   0  0  0  0  0  0  0  0  0  0  0  0
   56.9620   29.4070   43.2400 C   0  0  0  0  0  0  0  0  0  0  0  0
   58.0470   28.6530   43.8670 N   0  0  0  0  0  0  0  0  0  0  0  0
   57.8380   27.8350   45.0320 C   0  0  0  0  0  0  0  0  0  0  0  0
   56.6750   27.6920   45.5000 O   0  0  0  0  0  0  0  0  0  0  0  0
   58.9690   27.0700   45.6640 C   0  0  0  0  0  0  0  0  0  0  0  0
   59.3100   27.5810   47.0400 C   0  0  0  0  0  0  0  0  0  0  0  0
   60.2750   26.9240   47.8180 C   0  0  0  0  0  0  0  0  0  0  0  0
   60.6230   27.4190   49.0780 C   0  0  0  0  0  0  0  0  0  0  0  0
   60.0010   28.5720   49.5870 C   0  0  0  0  0  0  0  0  0  0  0  0
   60.3850   29.1160   50.9080 C   0  0  0  0  0  0  0  0  0  0  0  0
   61.6080   29.1940   51.2090 O   0  0  0  0  0  0  0  0  0  0  0  0
   59.3970   29.5630   51.8550 N   0  0  0  0  0  0  0  0  0  0  0  0
   59.6390   29.3910   53.2920 C   0  0  0  0  0  0  0  0  0  0  0  0
   59.9570   30.7520   53.9220 C   0  0  0  0  0  0  0  0  0  0  0  0
   59.0220   31.9200   53.4450 C   0  0  0  0  0  0  0  0  0  0  0  0
   59.8100   32.9660   52.7190 N   0  0  0  0  0  0  0  0  0  0  0  0
   61.0480   32.4390   52.0880 C   0  0  0  0  0  0  0  0  0  0  0  0
   61.6730   33.4530   51.1240 C   0  0  0  0  0  0  0  0  0  0  0  0
   60.7320   33.7650   49.9530 C   0  0  0  0  0  0  0  0  0  0  0  0
   59.2650   33.4690   50.2870 C   0  0  0  0  0  0  0  0  0  0  0  0
   58.9620   33.7480   51.7660 C   0  0  0  0  0  0  0  0  0  0  0  0
   57.8410   31.3470   52.6040 C   0  0  0  0  0  0  0  0  0  0  0  0
   58.3510   30.5050   51.4230 C   0  0  0  0  0  0  0  0  0  0  0  0
   59.0420   29.2330   48.8020 C   0  0  0  0  0  0  0  0  0  0  0  0
   58.6980   28.7410   47.5390 C   0  0  0  0  0  0  0  0  0  0  0  0
   58.1120   31.2970   45.8260 C   0  0  0  0  0  0  0  0  0  0  0  0
   62.8430   33.2683   48.0066 H   0  0  0  0  0  0  0  0  0  0  0  0
   63.2665   32.3719   46.5087 H   0  0  0  0  0  0  0  0  0  0  0  0
   61.8835   33.5182   46.5087 H   0  0  0  0  0  0  0  0  0  0  0  0
   59.6614   34.3305   46.1252 H   0  0  0  0  0  0  0  0  0  0  0  0
   58.3072   34.7704   44.0800 H   0  0  0  0  0  0  0  0  0  0  0  0
   56.8033   33.0080   43.1651 H   0  0  0  0  0  0  0  0  0  0  0  0
   56.1422   28.7159   42.9946 H   0  0  0  0  0  0  0  0  0  0  0  0
   57.3560   29.8868   42.3319 H   0  0  0  0  0  0  0  0  0  0  0  0
   58.9960   28.7130   43.4340 H   0  0  0  0  0  0  0  0  0  0  0  0
   58.6795   26.0116   45.7419 H   0  0  0  0  0  0  0  0  0  0  0  0
   59.8576   27.1991   45.0286 H   0  0  0  0  0  0  0  0  0  0  0  0
   60.7604   26.0145   47.4344 H   0  0  0  0  0  0  0  0  0  0  0  0
   61.3889   26.9026   49.6753 H   0  0  0  0  0  0  0  0  0  0  0  0
   58.7418   28.9675   53.7670 H   0  0  0  0  0  0  0  0  0  0  0  0
   60.4891   28.7093   53.4421 H   0  0  0  0  0  0  0  0  0  0  0  0
   59.8601   30.6572   55.0136 H   0  0  0  0  0  0  0  0  0  0  0  0
   60.9766   31.0154   53.6042 H   0  0  0  0  0  0  0  0  0  0  0  0
   58.5803   32.4208   54.3191 H   0  0  0  0  0  0  0  0  0  0  0  0
   61.7767   32.2025   52.8773 H   0  0  0  0  0  0  0  0  0  0  0  0
   60.7818   31.5401   51.5125 H   0  0  0  0  0  0  0  0  0  0  0  0
   61.8845   34.3836   51.6710 H   0  0  0  0  0  0  0  0  0  0  0  0
   62.5991   33.0199   50.7182 H   0  0  0  0  0  0  0  0  0  0  0  0
   60.8279   34.8305   49.6969 H   0  0  0  0  0  0  0  0  0  0  0  0
   61.0207   33.1202   49.1098 H   0  0  0  0  0  0  0  0  0  0  0  0
   58.6201   34.1052   49.6630 H   0  0  0  0  0  0  0  0  0  0  0  0
   59.0717   32.4046   50.0879 H   0  0  0  0  0  0  0  0  0  0  0  0
   59.1253   34.8190   51.9565 H   0  0  0  0  0  0  0  0  0  0  0  0
   57.9204   33.4406   51.9409 H   0  0  0  0  0  0  0  0  0  0  0  0
   57.2148   30.7146   53.2505 H   0  0  0  0  0  0  0  0  0  0  0  0
   57.2600   32.1905   52.2028 H   0  0  0  0  0  0  0  0  0  0  0  0
   57.5104   29.9376   50.9971 H   0  0  0  0  0  0  0  0  0  0  0  0
   58.7809   31.1830   50.6710 H   0  0  0  0  0  0  0  0  0  0  0  0
   58.5581   30.1442   49.1834 H   0  0  0  0  0  0  0  0  0  0  0  0
   57.9441   29.2658   46.9338 H   0  0  0  0  0  0  0  0  0  0  0  0
   58.0699   30.3101   46.3099 H   0  0  0  0  0  0  0  0  0  0  0  0
  1  2  1  0
  2  3  2  0
  2  4  2  0
  2  5  1  0
  5  6  1  0
  6  7  2  0
  7  8  1  0
  8  9  2  0
  9 10  1  0
 10 11  1  0
 11 12  2  0
 11 13  1  0
 13 14  1  0
 14 15  1  0
 15 16  2  0
 15 17  1  0
 17 18  1  0
 18 19  2  0
 19 20  1  0
 20 21  2  0
 21 22  1  0
 22 23  2  0
 22 24  1  0
 24 25  1  0
 25 26  1  0
 26 27  1  0
 27 28  1  0
 28 29  1  0
 29 30  1  0
 30 31  1  0
 31 32  1  0
 32 33  1  0
 27 34  1  0
 34 35  1  0
 21 36  1  0
 36 37  2  0
 10 38  2  0
 38  6  1  0
 37 18  1  0
 35 24  1  0
 33 28  1  0
  1 39  1  0
  1 40  1  0
  1 41  1  0
  7 42  1  0
  8 43  1  0
  9 44  1  0
 13 45  1  0
 13 46  1  0
 14 47  1  0
 17 48  1  0
 17 49  1  0
 19 50  1  0
 20 51  1  0
 25 52  1  0
 25 53  1  0
 26 54  1  0
 26 55  1  0
 27 56  1  0
 29 57  1  0
 29 58  1  0
 30 59  1  0
 30 60  1  0
 31 61  1  0
 31 62  1  0
 32 63  1  0
 32 64  1  0
 33 65  1  0
 33 66  1  0
 34 67  1  0
 34 68  1  0
 35 69  1  0
 35 70  1  0
 36 71  1  0
 37 72  1  0
 38 73  1  0
M  CHG  1   5  -1
M  END
>  <UniqueID>  (71) 
64

>  <SMILES>  (71) 
CS(=O)(=O)[N-]c1cccc(C(=O)CNC(=O)Cc2ccc(C(=O)N3CCC(N4CCCCC4)CC3)cc2)c1

>  <Energy>  (71) 
96.17235620724486

>  <Genealogy>  (71) 
CS(=O)(=O)[N-]c1cccc(C(=O)CNC(=O)Cc2ccc(C(=O)N3CCC(N4CCCCC4)CC3)cc2)c1 (protonated)
CS(=O)(=O)[N-]c1cccc(C(=O)CNC(=O)Cc2ccc(C(=O)N3CCC(N4CCCCC4)CC3)cc2)c1 (3D coordinates assigned)
CS(=O)(=O)[N-]c1cccc(C(=O)CNC(=O)Cc2ccc(C(=O)N3CCC(N4CCCCC4)CC3)cc2)c1 (nonaromatic ring conformer: 96.17235620724486 kcal/mol)

>  <smiles>  (71) 
CS(=O)(=O)Nc1cccc(C(=O)CNC(=O)Cc2ccc(C(=O)N3CCC(N4CCCCC4)CC3)cc2)c1

>  <score_type>  (71) 
oracle

>  <origin>  (71) 
adg

>  <m_score__min__energy>  (71) 
-12.890000000000001

>  <m_primary>  (71) 
energy

$$$$
72:0
     RDKit          3D

 28 29  0  0  0  0  0  0  0  0999 V2000
   57.1540   24.9410   47.4800 C   0  0  0  0  0  0  0  0  0  0  0  0
   57.6870   25.9590   46.5790 N   0  0  0  0  0  0  0  0  0  0  0  0
   56.9950   26.8270   45.8230 C   0  0  0  0  0  0  0  0  0  0  0  0
   55.6060   26.9330   45.7870 O   0  0  0  0  0  0  0  0  0  0  0  0
   57.8810   27.5770   45.0790 C   0  0  0  0  0  0  0  0  0  0  0  0
   57.5290   28.6190   44.0590 C   0  0  0  0  0  0  0  0  0  0  0  0
   56.7670   29.7790   44.6560 C   0  0  0  0  0  0  0  0  0  0  0  0
   55.5140   29.6960   44.7910 O   0  0  0  0  0  0  0  0  0  0  0  0
   57.4660   31.0130   45.1080 C   0  0  0  0  0  0  0  0  0  0  0  0
   58.5640   30.9550   45.9930 C   0  0  0  0  0  0  0  0  0  0  0  0
   59.2060   32.1270   46.4060 C   0  0  0  0  0  0  0  0  0  0  0  0
   58.7660   33.3700   45.9470 C   0  0  0  0  0  0  0  0  0  0  0  0
   59.6460   34.9670   46.5140 Br  0  0  0  0  0  0  0  0  0  0  0  0
   57.6780   33.4420   45.0720 C   0  0  0  0  0  0  0  0  0  0  0  0
   57.0320   32.2750   44.6550 C   0  0  0  0  0  0  0  0  0  0  0  0
   59.1420   27.1670   45.3380 N   0  0  0  0  0  0  0  0  0  0  0  0
   58.9770   26.1860   46.2530 C   0  0  0  0  0  0  0  0  0  0  0  0
   59.9420   25.5430   46.7430 O   0  0  0  0  0  0  0  0  0  0  0  0
   57.3170   25.2523   48.5224 H   0  0  0  0  0  0  0  0  0  0  0  0
   56.0761   24.8185   47.2982 H   0  0  0  0  0  0  0  0  0  0  0  0
   57.6674   23.9853   47.2982 H   0  0  0  0  0  0  0  0  0  0  0  0
   55.1460   27.6590   45.2500 H   0  0  0  0  0  0  0  0  0  0  0  0
   58.4577   29.0008   43.6098 H   0  0  0  0  0  0  0  0  0  0  0  0
   56.8810   28.1451   43.3070 H   0  0  0  0  0  0  0  0  0  0  0  0
   58.9176   29.9805   46.3608 H   0  0  0  0  0  0  0  0  0  0  0  0
   60.0612   32.0692   47.0954 H   0  0  0  0  0  0  0  0  0  0  0  0
   57.3292   34.4206   44.7105 H   0  0  0  0  0  0  0  0  0  0  0  0
   56.1766   32.3421   43.9666 H   0  0  0  0  0  0  0  0  0  0  0  0
  1  2  1  0
  2  3  1  0
  3  4  1  0
  3  5  2  0
  5  6  1  0
  6  7  1  0
  7  8  2  0
  7  9  1  0
  9 10  2  0
 10 11  1  0
 11 12  2  0
 12 13  1  0
 12 14  1  0
 14 15  2  0
  5 16  1  0
 16 17  1  0
 17 18  2  0
 17  2  1  0
 15  9  1  0
  1 19  1  0
  1 20  1  0
  1 21  1  0
  4 22  1  0
  6 23  1  0
  6 24  1  0
 10 25  1  0
 11 26  1  0
 14 27  1  0
 15 28  1  0
M  CHG  1  16  -1
M  END
>  <UniqueID>  (72) 
65

>  <SMILES>  (72) 
Cn1c(O)c(CC(=O)c2ccc(Br)cc2)[n-]c1=O

>  <Energy>  (72) 
60.830829640903886

>  <Genealogy>  (72) 
Cn1c(O)c(CC(=O)c2ccc(Br)cc2)[n-]c1=O (protonated)
Cn1c(O)c(CC(=O)c2ccc(Br)cc2)[n-]c1=O (3D coordinates assigned)
Cn1c(O)c(CC(=O)c2ccc(Br)cc2)[n-]c1=O (optimized conformer: 60.830829640903886 kcal/mol)

>  <smiles>  (72) 
Cn1c(O)c(CC(=O)c2ccc(Br)cc2)[nH]c1=O

>  <score_type>  (72) 
oracle

>  <origin>  (72) 
adg

>  <m_score__min__energy>  (72) 
-9.7599999999999998

>  <m_primary>  (72) 
energy

$$$$
73:0
     RDKit          3D

 63 67  0  0  0  0  0  0  0  0999 V2000
   58.2560   21.8710   44.1630 C   0  0  0  0  0  0  0  0  0  0  0  0
   57.4920   23.0720   44.0980 O   0  0  0  0  0  0  0  0  0  0  0  0
   57.7370   24.2110   44.8820 C   0  0  0  0  0  0  0  0  0  0  0  0
   58.9030   24.3590   45.6510 C   0  0  0  0  0  0  0  0  0  0  0  0
   59.0950   25.5070   46.4240 C   0  0  0  0  0  0  0  0  0  0  0  0
   58.1350   26.5340   46.4270 C   0  0  0  0  0  0  0  0  0  0  0  0
   58.2990   27.7060   47.1850 O   0  0  0  0  0  0  0  0  0  0  0  0
   59.5430   28.3700   47.3850 C   0  0  0  0  0  0  0  0  0  0  0  0
   56.9780   26.4020   45.6440 C   0  0  0  0  0  0  0  0  0  0  0  0
   56.0100   27.4610   45.6710 N   0  0  0  0  0  0  0  0  0  0  0  0
   56.1330   28.7660   45.0920 C   0  0  0  0  0  0  0  0  0  0  0  0
   55.1470   29.3170   44.5300 O   0  0  0  0  0  0  0  0  0  0  0  0
   57.4210   29.3920   45.0630 N   0  0  0  0  0  0  0  0  0  0  0  0
   57.6570   30.6360   44.3910 C   0  0  0  0  0  0  0  0  0  0  0  0
   57.4160   30.7690   43.0170 C   0  0  0  0  0  0  0  0  0  0  0  0
   57.6390   31.9940   42.3820 C   0  0  0  0  0  0  0  0  0  0  0  0
   58.1300   33.0850   43.1090 C   0  0  0  0  0  0  0  0  0  0  0  0
   58.4020   32.9550   44.4800 C   0  0  0  0  0  0  0  0  0  0  0  0
   58.9890   34.0820   45.2420 C   0  0  0  0  0  0  0  0  0  0  0  0
   58.8030   35.2650   44.8450 O   0  0  0  0  0  0  0  0  0  0  0  0
   59.7710   33.8430   46.4770 C   0  0  0  0  0  0  0  0  0  0  0  0
   59.1460   33.9400   47.7500 C   0  0  0  0  0  0  0  0  0  0  0  0
   59.9010   33.8390   48.9290 C   0  0  0  0  0  0  0  0  0  0  0  0
   61.2730   33.6450   48.8030 C   0  0  0  0  0  0  0  0  0  0  0  0
   62.3050   33.6010   49.7150 C   0  0  0  0  0  0  0  0  0  0  0  0
   62.2400   33.8390   51.1690 C   0  0  0  0  0  0  0  0  0  0  0  0
   61.5510   33.0840   52.0410 C   0  0  0  0  0  0  0  0  0  0  0  0
   60.1160   32.7350   51.9230 C   0  0  0  0  0  0  0  0  0  0  0  0
   59.1070   33.5550   52.4650 C   0  0  0  0  0  0  0  0  0  0  0  0
   57.7610   33.2110   52.3140 C   0  0  0  0  0  0  0  0  0  0  0  0
   57.4090   32.0350   51.6470 C   0  0  0  0  0  0  0  0  0  0  0  0
   58.4040   31.1990   51.1340 C   0  0  0  0  0  0  0  0  0  0  0  0
   59.7520   31.5390   51.2830 C   0  0  0  0  0  0  0  0  0  0  0  0
   63.4560   33.3680   49.0450 N   0  0  0  0  0  0  0  0  0  0  0  0
   63.1940   33.2930   47.7430 N   0  0  0  0  0  0  0  0  0  0  0  0
   61.8710   33.4700   47.5890 C   0  0  0  0  0  0  0  0  0  0  0  0
   61.1540   33.5580   46.3980 C   0  0  0  0  0  0  0  0  0  0  0  0
   58.1220   31.7350   45.1200 C   0  0  0  0  0  0  0  0  0  0  0  0
   56.7770   25.2290   44.8920 C   0  0  0  0  0  0  0  0  0  0  0  0
   58.4272   21.6019   45.2157 H   0  0  0  0  0  0  0  0  0  0  0  0
   57.7075   21.0599   43.6617 H   0  0  0  0  0  0  0  0  0  0  0  0
   59.2231   22.0241   43.6617 H   0  0  0  0  0  0  0  0  0  0  0  0
   59.6677   23.5683   45.6447 H   0  0  0  0  0  0  0  0  0  0  0  0
   60.0042   25.6080   47.0348 H   0  0  0  0  0  0  0  0  0  0  0  0
   59.7348   28.4724   48.4633 H   0  0  0  0  0  0  0  0  0  0  0  0
   60.3504   27.7829   46.9231 H   0  0  0  0  0  0  0  0  0  0  0  0
   59.5046   29.3676   46.9231 H   0  0  0  0  0  0  0  0  0  0  0  0
   58.2480   28.8140   45.3360 H   0  0  0  0  0  0  0  0  0  0  0  0
   57.0509   29.9083   42.4375 H   0  0  0  0  0  0  0  0  0  0  0  0
   57.4281   32.1012   41.3077 H   0  0  0  0  0  0  0  0  0  0  0  0
   58.3032   34.0470   42.6044 H   0  0  0  0  0  0  0  0  0  0  0  0
   58.0589   34.0959   47.8118 H   0  0  0  0  0  0  0  0  0  0  0  0
   59.4247   33.9107   49.9179 H   0  0  0  0  0  0  0  0  0  0  0  0
   62.7972   34.6988   51.5694 H   0  0  0  0  0  0  0  0  0  0  0  0
   62.0963   32.6935   52.9129 H   0  0  0  0  0  0  0  0  0  0  0  0
   59.3800   34.4708   53.0099 H   0  0  0  0  0  0  0  0  0  0  0  0
   56.9775   33.8671   52.7209 H   0  0  0  0  0  0  0  0  0  0  0  0
   56.3490   31.7674   51.5258 H   0  0  0  0  0  0  0  0  0  0  0  0
   58.1263   30.2715   50.6119 H   0  0  0  0  0  0  0  0  0  0  0  0
   60.5317   30.8660   50.8968 H   0  0  0  0  0  0  0  0  0  0  0  0
   61.6481   33.4104   45.4263 H   0  0  0  0  0  0  0  0  0  0  0  0
   58.2703   31.6439   46.2061 H   0  0  0  0  0  0  0  0  0  0  0  0
   55.8541   25.1113   44.3052 H   0  0  0  0  0  0  0  0  0  0  0  0
  1  2  1  0
  2  3  1  0
  3  4  2  0
  4  5  1  0
  5  6  2  0
  6  7  1  0
  7  8  1  0
  6  9  1  0
  9 10  1  0
 10 11  1  0
 11 12  2  0
 11 13  1  0
 13 14  1  0
 14 15  2  0
 15 16  1  0
 16 17  2  0
 17 18  1  0
 18 19  1  0
 19 20  2  0
 19 21  1  0
 21 22  1  0
 22 23  2  0
 23 24  1  0
 24 25  2  0
 25 26  1  0
 26 27  2  3
 27 28  1  0
 28 29  2  0
 29 30  1  0
 30 31  2  0
 31 32  1  0
 32 33  2  0
 25 34  1  0
 34 35  1  0
 35 36  2  0
 36 37  1  0
 18 38  2  0
  9 39  2  0
 39  3  1  0
 38 14  1  0
 37 21  2  0
 36 24  1  0
 33 28  1  0
  1 40  1  0
  1 41  1  0
  1 42  1  0
  4 43  1  0
  5 44  1  0
  8 45  1  0
  8 46  1  0
  8 47  1  0
 13 48  1  0
 15 49  1  0
 16 50  1  0
 17 51  1  0
 22 52  1  0
 23 53  1  0
 26 54  1  0
 27 55  1  0
 29 56  1  0
 30 57  1  0
 31 58  1  0
 32 59  1  0
 33 60  1  0
 37 61  1  0
 38 62  1  0
 39 63  1  0
M  CHG  2  10  -1  34  -1
M  END
>  <UniqueID>  (73) 
66

>  <SMILES>  (73) 
COc1ccc(OC)c([N-]C(=O)Nc2cccc(C(=O)c3ccc4c(C=Cc5ccccc5)[n-]nc4c3)c2)c1

>  <Energy>  (73) 
127.30330482756506

>  <Genealogy>  (73) 
COc1ccc(OC)c([N-]C(=O)Nc2cccc(C(=O)c3ccc4c(C=Cc5ccccc5)[n-]nc4c3)c2)c1 (protonated)
COc1ccc(OC)c([N-]C(=O)Nc2cccc(C(=O)c3ccc4c(C=Cc5ccccc5)[n-]nc4c3)c2)c1 (3D coordinates assigned)
COc1ccc(OC)c([N-]C(=O)Nc2cccc(C(=O)c3ccc4c(C=Cc5ccccc5)[n-]nc4c3)c2)c1 (optimized conformer: 127.30330482756506 kcal/mol)

>  <smiles>  (73) 
COc1ccc(OC)c(NC(=O)Nc2cccc(C(=O)c3ccc4c(C=Cc5ccccc5)[nH]nc4c3)c2)c1

>  <score_type>  (73) 
oracle

>  <origin>  (73) 
adg

>  <m_score__min__energy>  (73) 
-13.67

>  <m_primary>  (73) 
energy

$$$$
74:0
     RDKit          3D

 44 46  0  0  1  0  0  0  0  0999 V2000
   66.5260   30.9520   50.9000 C   0  0  0  0  0  0  0  0  0  0  0  0
   65.4750   31.6530   50.4870 C   0  0  0  0  0  0  0  0  0  0  0  0
   65.5810   33.0960   50.1380 C   0  0  0  0  0  0  0  0  0  0  0  0
   64.2960   33.7270   49.9150 N   0  0  0  0  0  0  0  0  0  0  0  0
   63.4840   33.4630   48.9750 C   0  0  0  0  0  0  0  0  0  0  0  0
   63.9840   33.0370   47.8010 N   0  0  0  0  0  0  0  0  0  0  0  0
   63.1770   32.7420   46.7670 C   0  0  0  0  0  0  0  0  0  0  0  0
   61.8270   32.8750   46.8990 N   0  0  0  0  0  0  0  0  0  0  0  0
   61.2710   33.3020   48.0640 C   0  0  0  0  0  0  0  0  0  0  0  0
   62.1150   33.5980   49.1070 C   0  0  0  0  0  0  0  0  0  0  0  0
   61.3290   33.9920   50.1280 N   0  0  0  0  0  0  0  0  0  0  0  0
   60.0380   33.9550   49.7670 C   0  0  0  0  0  0  0  0  0  0  0  0
   60.0190   33.5280   48.4930 N   0  0  0  0  0  0  0  0  0  0  0  0
   58.8580   33.3130   47.6250 C   0  0  2  0  0  0  0  0  0  0  0  0
   59.0880   32.3590   46.6640 O   0  0  0  0  0  0  0  0  0  0  0  0
   57.9930   32.5630   45.8160 C   0  0  2  0  0  0  0  0  0  0  0  0
   58.0710   31.7250   44.5600 C   0  0  0  0  0  0  0  0  0  0  0  0
   56.8180   31.2470   44.2050 O   0  0  0  0  0  0  0  0  0  0  0  0
   56.6400   29.6180   44.6320 S   0  0  0  0  0  0  0  0  0  0  0  0
   57.3820   28.6170   43.4390 N   0  0  0  0  0  0  0  0  0  0  0  0
   57.2410   29.3840   45.9840 O   0  0  0  0  0  0  0  0  0  0  0  0
   55.1530   29.3370   44.6200 O   0  0  0  0  0  0  0  0  0  0  0  0
   58.1040   34.0250   45.5050 C   0  0  1  0  0  0  0  0  0  0  0  0
   56.8500   34.5560   45.2470 O   0  0  0  0  0  0  0  0  0  0  0  0
   58.7080   34.5830   46.7980 C   0  0  2  0  0  0  0  0  0  0  0  0
   59.9340   35.1760   46.5600 O   0  0  0  0  0  0  0  0  0  0  0  0
   66.4128   29.8868   51.1499 H   0  0  0  0  0  0  0  0  0  0  0  0
   67.5090   31.4371   50.9919 H   0  0  0  0  0  0  0  0  0  0  0  0
   64.4992   31.1525   50.4007 H   0  0  0  0  0  0  0  0  0  0  0  0
   66.0882   33.6184   50.9625 H   0  0  0  0  0  0  0  0  0  0  0  0
   66.1450   33.1630   49.1960 H   0  0  0  0  0  0  0  0  0  0  0  0
   64.9960   32.9300   47.6800 H   0  0  0  0  0  0  0  0  0  0  0  0
   63.6057   32.3938   45.8157 H   0  0  0  0  0  0  0  0  0  0  0  0
   59.1699   34.2205   50.3883 H   0  0  0  0  0  0  0  0  0  0  0  0
   58.0095   33.0312   48.2658 H   0  0  0  0  0  0  0  0  0  0  0  0
   57.0352   32.2724   46.2723 H   0  0  0  0  0  0  0  0  0  0  0  0
   58.4669   32.3417   43.7396 H   0  0  0  0  0  0  0  0  0  0  0  0
   58.7332   30.8675   44.7503 H   0  0  0  0  0  0  0  0  0  0  0  0
   56.7230   27.8830   43.1000 H   0  0  0  0  0  0  0  0  0  0  0  0
   57.7950   29.1850   42.6610 H   0  0  0  0  0  0  0  0  0  0  0  0
   58.7057   34.2598   44.6146 H   0  0  0  0  0  0  0  0  0  0  0  0
   56.3040   33.8920   44.7960 H   0  0  0  0  0  0  0  0  0  0  0  0
   58.1055   35.3670   47.2801 H   0  0  0  0  0  0  0  0  0  0  0  0
   60.5350   34.4540   46.2380 H   0  0  0  0  0  0  0  0  0  0  0  0
  1  2  2  0
  2  3  1  0
  3  4  1  0
  4  5  2  0
  5  6  1  0
  6  7  1  0
  7  8  2  0
  8  9  1  0
  9 10  2  0
 10 11  1  0
 11 12  2  0
 12 13  1  0
 13 14  1  0
 14 15  1  0
 15 16  1  0
 16 17  1  0
 17 18  1  0
 18 19  1  0
 19 20  1  0
 19 21  2  0
 19 22  2  0
 16 23  1  0
 23 24  1  0
 23 25  1  0
 25 26  1  0
 10  5  1  0
 25 14  1  0
 13  9  1  0
  1 27  1  0
  1 28  1  0
  2 29  1  0
  3 30  1  0
  3 31  1  0
  6 32  1  0
  7 33  1  0
 12 34  1  0
 14 35  1  1
 16 36  1  1
 17 37  1  0
 17 38  1  0
 20 39  1  0
 20 40  1  0
 23 41  1  6
 24 42  1  0
 25 43  1  1
 26 44  1  0
M  END
>  <smiles>  (74) 
C=CCN=c1[nH]cnc2c1ncn2C1OC(COS(N)(=O)=O)C(O)C1O

>  <score_type>  (74) 
oracle

>  <origin>  (74) 
adg

>  <m_score__min__energy>  (74) 
-7.6799999999999997

>  <m_primary>  (74) 
energy

$$$$
75:0
     RDKit          3D

 77 81  0  0  0  0  0  0  0  0999 V2000
   58.1210   27.4570   43.3890 C   0  0  0  0  0  0  0  0  0  0  0  0
   58.3560   27.9130   44.7580 N   0  0  0  0  0  0  0  0  0  0  0  0
   59.3900   27.5100   45.4770 N   0  0  0  0  0  0  0  0  0  0  0  0
   59.3060   28.1010   46.6880 C   0  0  0  0  0  0  0  0  0  0  0  0
   60.3890   28.0430   47.7320 C   0  0  0  0  0  0  0  0  0  0  0  0
   60.6280   29.3980   48.4200 C   0  0  0  0  0  0  0  0  0  0  0  0
   61.3550   30.3690   47.5140 C   0  0  0  0  0  0  0  0  0  0  0  0
   61.1460   30.2870   46.2710 O   0  0  0  0  0  0  0  0  0  0  0  0
   62.2440   31.3910   48.0250 N   0  0  0  0  0  0  0  0  0  0  0  0
   62.8120   32.3990   47.1100 C   0  0  0  0  0  0  0  0  0  0  0  0
   62.7020   33.7920   47.7430 C   0  0  0  0  0  0  0  0  0  0  0  0
   63.3350   33.8660   49.1470 C   0  0  0  0  0  0  0  0  0  0  0  0
   63.7060   32.4870   49.7260 C   0  0  0  0  0  0  0  0  0  0  0  0
   62.6160   31.4390   49.4520 C   0  0  0  0  0  0  0  0  0  0  0  0
   58.1960   28.9290   46.7290 C   0  0  0  0  0  0  0  0  0  0  0  0
   57.6120   28.7850   45.4820 C   0  0  0  0  0  0  0  0  0  0  0  0
   56.4830   29.6060   44.9860 C   0  0  0  0  0  0  0  0  0  0  0  0
   55.3760   29.0600   44.7470 O   0  0  0  0  0  0  0  0  0  0  0  0
   56.6050   31.0250   44.8710 N   0  0  0  0  0  0  0  0  0  0  0  0
   57.6410   31.6480   44.0490 C   0  0  0  0  0  0  0  0  0  0  0  0
   58.4130   32.6330   44.8930 C   0  0  0  0  0  0  0  0  0  0  0  0
   58.6590   33.9430   44.4360 C   0  0  0  0  0  0  0  0  0  0  0  0
   59.1670   34.9110   45.3100 C   0  0  0  0  0  0  0  0  0  0  0  0
   59.3960   34.5910   46.6530 C   0  0  0  0  0  0  0  0  0  0  0  0
   59.1740   33.2820   47.1120 C   0  0  0  0  0  0  0  0  0  0  0  0
   59.2530   32.9550   48.5440 C   0  0  0  0  0  0  0  0  0  0  0  0
   59.7080   33.9240   49.4470 C   0  0  0  0  0  0  0  0  0  0  0  0
   59.5640   33.7300   50.8220 C   0  0  0  0  0  0  0  0  0  0  0  0
   58.9630   32.5600   51.3130 C   0  0  0  0  0  0  0  0  0  0  0  0
   58.6670   32.4130   52.7930 C   0  0  0  0  0  0  0  0  0  0  0  0
   57.5150   31.5290   53.0870 N   0  0  0  0  0  0  0  0  0  0  0  0
   57.8160   30.0900   52.9820 C   0  0  0  0  0  0  0  0  0  0  0  0
   56.6270   29.2740   53.5400 C   0  0  0  0  0  0  0  0  0  0  0  0
   55.3920   29.9850   53.5150 O   0  0  0  0  0  0  0  0  0  0  0  0
   55.2790   30.7300   52.3250 C   0  0  0  0  0  0  0  0  0  0  0  0
   56.2730   31.9030   52.3730 C   0  0  0  0  0  0  0  0  0  0  0  0
   58.5980   31.5480   50.4090 C   0  0  0  0  0  0  0  0  0  0  0  0
   58.7190   31.7530   49.0300 C   0  0  0  0  0  0  0  0  0  0  0  0
   58.7220   32.2980   46.2190 C   0  0  0  0  0  0  0  0  0  0  0  0
   57.6172   26.4794   43.4096 H   0  0  0  0  0  0  0  0  0  0  0  0
   57.4861   28.1857   42.8637 H   0  0  0  0  0  0  0  0  0  0  0  0
   59.0829   27.3628   42.8637 H   0  0  0  0  0  0  0  0  0  0  0  0
   60.1007   27.3067   48.4967 H   0  0  0  0  0  0  0  0  0  0  0  0
   61.3231   27.7603   47.2244 H   0  0  0  0  0  0  0  0  0  0  0  0
   59.6564   29.8314   48.6997 H   0  0  0  0  0  0  0  0  0  0  0  0
   61.2543   29.2247   49.3076 H   0  0  0  0  0  0  0  0  0  0  0  0
   63.8702   32.1659   46.9206 H   0  0  0  0  0  0  0  0  0  0  0  0
   62.2552   32.3849   46.1614 H   0  0  0  0  0  0  0  0  0  0  0  0
   63.2119   34.5154   47.0898 H   0  0  0  0  0  0  0  0  0  0  0  0
   61.6316   34.0211   47.8515 H   0  0  0  0  0  0  0  0  0  0  0  0
   64.2487   34.4754   49.0856 H   0  0  0  0  0  0  0  0  0  0  0  0
   62.5840   34.3080   49.8183 H   0  0  0  0  0  0  0  0  0  0  0  0
   64.6470   32.1499   49.2669 H   0  0  0  0  0  0  0  0  0  0  0  0
   63.8121   32.5919   50.8158 H   0  0  0  0  0  0  0  0  0  0  0  0
   62.9896   30.4499   49.7554 H   0  0  0  0  0  0  0  0  0  0  0  0
   61.7217   31.7193   50.0278 H   0  0  0  0  0  0  0  0  0  0  0  0
   57.8554   29.5588   47.5641 H   0  0  0  0  0  0  0  0  0  0  0  0
   58.3239   30.8745   43.6678 H   0  0  0  0  0  0  0  0  0  0  0  0
   57.1767   32.1706   43.1997 H   0  0  0  0  0  0  0  0  0  0  0  0
   58.4510   34.2059   43.3883 H   0  0  0  0  0  0  0  0  0  0  0  0
   59.3864   35.9238   44.9411 H   0  0  0  0  0  0  0  0  0  0  0  0
   59.7501   35.3651   47.3497 H   0  0  0  0  0  0  0  0  0  0  0  0
   60.1814   34.8429   49.0708 H   0  0  0  0  0  0  0  0  0  0  0  0
   59.9230   34.4972   51.5238 H   0  0  0  0  0  0  0  0  0  0  0  0
   59.5582   31.9967   53.2853 H   0  0  0  0  0  0  0  0  0  0  0  0
   58.4074   33.4136   53.1689 H   0  0  0  0  0  0  0  0  0  0  0  0
   57.9796   29.8254   51.9269 H   0  0  0  0  0  0  0  0  0  0  0  0
   58.7225   29.8612   53.5615 H   0  0  0  0  0  0  0  0  0  0  0  0
   56.5163   28.3613   52.9361 H   0  0  0  0  0  0  0  0  0  0  0  0
   56.8521   29.0504   54.5933 H   0  0  0  0  0  0  0  0  0  0  0  0
   55.5095   30.0862   51.4634 H   0  0  0  0  0  0  0  0  0  0  0  0
   54.2537   31.1153   52.2234 H   0  0  0  0  0  0  0  0  0  0  0  0
   56.5267   32.1995   51.3446 H   0  0  0  0  0  0  0  0  0  0  0  0
   55.8000   32.7360   52.9137 H   0  0  0  0  0  0  0  0  0  0  0  0
   58.2149   30.5889   50.7876 H   0  0  0  0  0  0  0  0  0  0  0  0
   58.3952   30.9711   48.3273 H   0  0  0  0  0  0  0  0  0  0  0  0
   58.6096   31.2586   46.5612 H   0  0  0  0  0  0  0  0  0  0  0  0
  1  2  1  0
  2  3  1  0
  3  4  2  0
  4  5  1  0
  5  6  1  0
  6  7  1  0
  7  8  2  0
  7  9  1  0
  9 10  1  0
 10 11  1  0
 11 12  1  0
 12 13  1  0
 13 14  1  0
  4 15  1  0
 15 16  2  0
 16 17  1  0
 17 18  2  0
 17 19  1  0
 19 20  1  0
 20 21  1  0
 21 22  2  0
 22 23  1  0
 23 24  2  0
 24 25  1  0
 25 26  1  0
 26 27  2  0
 27 28  1  0
 28 29  2  0
 29 30  1  0
 30 31  1  0
 31 32  1  0
 32 33  1  0
 33 34  1  0
 34 35  1  0
 35 36  1  0
 29 37  1  0
 37 38  2  0
 25 39  2  0
 16  2  1  0
 39 21  1  0
 14  9  1  0
 38 26  1  0
 36 31  1  0
  1 40  1  0
  1 41  1  0
  1 42  1  0
  5 43  1  0
  5 44  1  0
  6 45  1  0
  6 46  1  0
 10 47  1  0
 10 48  1  0
 11 49  1  0
 11 50  1  0
 12 51  1  0
 12 52  1  0
 13 53  1  0
 13 54  1  0
 14 55  1  0
 14 56  1  0
 15 57  1  0
 20 58  1  0
 20 59  1  0
 22 60  1  0
 23 61  1  0
 24 62  1  0
 27 63  1  0
 28 64  1  0
 30 65  1  0
 30 66  1  0
 32 67  1  0
 32 68  1  0
 33 69  1  0
 33 70  1  0
 35 71  1  0
 35 72  1  0
 36 73  1  0
 36 74  1  0
 37 75  1  0
 38 76  1  0
 39 77  1  0
M  CHG  1  19  -1
M  END
>  <UniqueID>  (75) 
67

>  <SMILES>  (75) 
Cn1nc(CCC(=O)N2CCCCC2)cc1C(=O)[N-]Cc1cccc(-c2ccc(CN3CCOCC3)cc2)c1

>  <Energy>  (75) 
132.5378330344904

>  <Genealogy>  (75) 
Cn1nc(CCC(=O)N2CCCCC2)cc1C(=O)[N-]Cc1cccc(-c2ccc(CN3CCOCC3)cc2)c1 (protonated)
Cn1nc(CCC(=O)N2CCCCC2)cc1C(=O)[N-]Cc1cccc(-c2ccc(CN3CCOCC3)cc2)c1 (3D coordinates assigned)
Cn1nc(CCC(=O)N2CCCCC2)cc1C(=O)[N-]Cc1cccc(-c2ccc(CN3CCOCC3)cc2)c1 (nonaromatic ring conformer: 132.5378330344904 kcal/mol)

>  <smiles>  (75) 
Cn1nc(CCC(=O)N2CCCCC2)cc1C(=O)NCc1cccc(-c2ccc(CN3CCOCC3)cc2)c1

>  <score_type>  (75) 
oracle

>  <origin>  (75) 
adg

>  <m_score__min__energy>  (75) 
-12.18

>  <m_primary>  (75) 
energy

$$$$
76:0
     RDKit          3D

 73 78  0  0  0  0  0  0  0  0999 V2000
   59.1467   34.7982   46.2530 H   0  0  0  0  0  0  0  0  0  0  0  0
   58.9390   33.7290   46.0990 C   0  0  0  0  0  0  0  0  0  0  0  0
   58.0970   33.3370   45.1070 N   0  0  0  0  0  0  0  0  0  0  0  0
   57.8100   32.0290   44.8700 C   0  0  0  0  0  0  0  0  0  0  0  0
   56.9820   31.7420   43.9050 N   0  0  0  0  0  0  0  0  0  0  0  0
   56.2140   30.5390   43.7490 C   0  0  0  0  0  0  0  0  0  0  0  0
   55.1530   30.4020   44.4130 O   0  0  0  0  0  0  0  0  0  0  0  0
   56.5990   29.4780   42.7490 C   0  0  0  0  0  0  0  0  0  0  0  0
   57.1429   29.9517   41.9185 H   0  0  0  0  0  0  0  0  0  0  0  0
   55.6782   28.9933   42.3923 H   0  0  0  0  0  0  0  0  0  0  0  0
   57.4880   28.4070   43.3750 C   0  0  0  0  0  0  0  0  0  0  0  0
   57.4299   28.4770   44.4712 H   0  0  0  0  0  0  0  0  0  0  0  0
   57.1463   27.4124   43.0525 H   0  0  0  0  0  0  0  0  0  0  0  0
   58.5285   28.5597   43.0525 H   0  0  0  0  0  0  0  0  0  0  0  0
   58.3850   31.0420   45.6940 C   0  0  0  0  0  0  0  0  0  0  0  0
   58.1446   29.9806   45.5341 H   0  0  0  0  0  0  0  0  0  0  0  0
   59.2660   31.4180   46.7200 C   0  0  0  0  0  0  0  0  0  0  0  0
   59.8650   30.3970   47.6060 C   0  0  0  0  0  0  0  0  0  0  0  0
   60.8770   30.5350   48.5700 C   0  0  0  0  0  0  0  0  0  0  0  0
   61.4620   31.7920   49.0760 C   0  0  0  0  0  0  0  0  0  0  0  0
   62.6510   32.3080   48.5300 C   0  0  0  0  0  0  0  0  0  0  0  0
   63.1721   31.7558   47.7340 H   0  0  0  0  0  0  0  0  0  0  0  0
   63.1740   33.5180   48.9930 C   0  0  0  0  0  0  0  0  0  0  0  0
   64.1033   33.9163   48.5597 H   0  0  0  0  0  0  0  0  0  0  0  0
   62.5180   34.2230   50.0060 C   0  0  0  0  0  0  0  0  0  0  0  0
   63.0310   35.3920   50.4600 F   0  0  0  0  0  0  0  0  0  0  0  0
   61.3280   33.7250   50.5440 C   0  0  0  0  0  0  0  0  0  0  0  0
   60.8084   34.2830   51.3368 H   0  0  0  0  0  0  0  0  0  0  0  0
   60.7970   32.5200   50.0770 C   0  0  0  0  0  0  0  0  0  0  0  0
   59.8535   32.1393   50.4951 H   0  0  0  0  0  0  0  0  0  0  0  0
   61.2150   29.3180   49.0660 N   0  0  0  0  0  0  0  0  0  0  0  0
   60.4510   28.4310   48.4530 N   0  0  0  0  0  0  0  0  0  0  0  0
   60.4440   27.0910   48.6400 C   0  0  0  0  0  0  0  0  0  0  0  0
   61.1199   26.6170   49.3669 H   0  0  0  0  0  0  0  0  0  0  0  0
   59.5500   26.3250   47.8800 C   0  0  0  0  0  0  0  0  0  0  0  0
   59.4989   25.2341   48.0114 H   0  0  0  0  0  0  0  0  0  0  0  0
   58.7120   26.9760   46.9390 C   0  0  0  0  0  0  0  0  0  0  0  0
   57.7550   26.2370   46.1550 N   0  0  0  0  0  0  0  0  0  0  0  0
   56.3250   26.3840   46.4570 C   0  0  0  0  0  0  0  0  0  0  0  0
   56.1699   26.2525   47.5380 H   0  0  0  0  0  0  0  0  0  0  0  0
   56.0006   27.3865   46.1412 H   0  0  0  0  0  0  0  0  0  0  0  0
   55.4960   25.3410   45.7010 C   0  0  0  0  0  0  0  0  0  0  0  0
   54.5219   25.2144   46.1960 H   0  0  0  0  0  0  0  0  0  0  0  0
   55.3332   25.6742   44.6654 H   0  0  0  0  0  0  0  0  0  0  0  0
   56.2230   24.0580   45.7040 N   0  0  0  0  0  0  0  0  0  0  0  0
   55.3400   22.9590   45.2610 C   0  0  0  0  0  0  0  0  0  0  0  0
   55.1519   23.0626   44.1822 H   0  0  0  0  0  0  0  0  0  0  0  0
   55.8386   22.0027   45.4777 H   0  0  0  0  0  0  0  0  0  0  0  0
   54.0230   22.9880   45.9950 C   0  0  0  0  0  0  0  0  0  0  0  0
   54.0110   22.7930   47.2410 O   0  0  0  0  0  0  0  0  0  0  0  0
   52.7950   23.3090   45.3160 N   0  0  0  0  0  0  0  0  0  0  0  0
   51.5040   23.2960   45.9810 C   0  0  0  0  0  0  0  0  0  0  0  0
   51.3117   22.3087   46.4263 H   0  0  0  0  0  0  0  0  0  0  0  0
   51.4599   24.0319   46.7974 H   0  0  0  0  0  0  0  0  0  0  0  0
   50.4790   23.5980   44.8950 C   0  0  0  0  0  0  0  0  0  0  0  0
   49.9669   22.6752   44.5849 H   0  0  0  0  0  0  0  0  0  0  0  0
   49.7059   24.2945   45.2516 H   0  0  0  0  0  0  0  0  0  0  0  0
   51.2680   24.1860   43.7270 C   0  0  0  0  0  0  0  0  0  0  0  0
   50.8799   23.8027   42.7717 H   0  0  0  0  0  0  0  0  0  0  0  0
   51.1853   25.2824   43.6953 H   0  0  0  0  0  0  0  0  0  0  0  0
   52.7100   23.7400   43.9300 C   0  0  0  0  0  0  0  0  0  0  0  0
   52.9532   22.9074   43.2535 H   0  0  0  0  0  0  0  0  0  0  0  0
   53.4211   24.5504   43.7116 H   0  0  0  0  0  0  0  0  0  0  0  0
   57.4510   24.1350   44.8710 C   0  0  0  0  0  0  0  0  0  0  0  0
   58.1586   23.3683   45.2195 H   0  0  0  0  0  0  0  0  0  0  0  0
   57.1480   23.9730   43.8260 H   0  0  0  0  0  0  0  0  0  0  0  0
   58.1460   25.5110   44.9390 C   0  0  0  0  0  0  0  0  0  0  0  0
   59.2361   25.3640   44.9423 H   0  0  0  0  0  0  0  0  0  0  0  0
   57.8404   26.1024   44.0633 H   0  0  0  0  0  0  0  0  0  0  0  0
   58.7710   28.3380   46.8150 N   0  0  0  0  0  0  0  0  0  0  0  0
   59.6380   29.0380   47.5840 C   0  0  0  0  0  0  0  0  0  0  0  0
   59.5400   32.7770   46.9220 C   0  0  0  0  0  0  0  0  0  0  0  0
   60.2243   33.0909   47.7240 H   0  0  0  0  0  0  0  0  0  0  0  0
  1  2  1  0
  2  3  1  0
  3  4  1  0
  4  5  2  0
  5  6  1  0
  6  7  2  0
  6  8  1  0
  8  9  1  0
  8 10  1  0
  8 11  1  0
 11 12  1  0
 11 13  1  0
 11 14  1  0
  4 15  1  0
 15 16  1  0
 15 17  2  0
 17 18  1  0
 18 19  1  0
 19 20  1  0
 20 21  2  0
 21 22  1  0
 21 23  1  0
 23 24  1  0
 23 25  2  0
 25 26  1  0
 25 27  1  0
 27 28  1  0
 27 29  2  0
 29 30  1  0
 19 31  2  0
 31 32  1  0
 32 33  1  0
 33 34  1  0
 33 35  2  0
 35 36  1  0
 35 37  1  0
 37 38  1  0
 38 39  1  0
 39 40  1  0
 39 41  1  0
 39 42  1  0
 42 43  1  0
 42 44  1  0
 42 45  1  0
 45 46  1  0
 46 47  1  0
 46 48  1  0
 46 49  1  0
 49 50  2  0
 49 51  1  0
 51 52  1  0
 52 53  1  0
 52 54  1  0
 52 55  1  0
 55 56  1  0
 55 57  1  0
 55 58  1  0
 58 59  1  0
 58 60  1  0
 58 61  1  0
 61 62  1  0
 61 63  1  0
 45 64  1  0
 64 65  1  0
 64 66  1  0
 64 67  1  0
 67 68  1  0
 67 69  1  0
 37 70  2  0
 70 71  1  0
 17 72  1  0
 72 73  1  0
 72  2  2  0
 71 18  2  0
 29 20  1  0
 71 32  1  0
 67 38  1  0
 61 51  1  0
M  CHG  1   3  -1
M  END
>  <UniqueID>  (76) 
68

>  <SMILES>  (76) 
CCC(=O)/N=c1\cc(-c2c(-c3ccc(F)cc3)nn3ccc(N4CCN(CC(=O)N5CCCC5)CC4)nc23)cc[n-]1

>  <Energy>  (76) 
137.30616643435042

>  <Genealogy>  (76) 
CCC(=O)N=c1cc(-c2c(-c3ccc(F)cc3)nn3ccc(N4CCN(CC(=O)N5CCCC5)CC4)nc23)cc[n-]1 (protonated)
CCC(=O)/N=c1\cc(-c2c(-c3ccc(F)cc3)nn3ccc(N4CCN(CC(=O)N5CCCC5)CC4)nc23)cc[n-]1 (cis-trans isomerization)
CCC(=O)/N=c1\cc(-c2c(-c3ccc(F)cc3)nn3ccc(N4CCN(CC(=O)N5CCCC5)CC4)nc23)cc[n-]1 (3D coordinates assigned)
CCC(=O)/N=c1\cc(-c2c(-c3ccc(F)cc3)nn3ccc(N4CCN(CC(=O)N5CCCC5)CC4)nc23)cc[n-]1 (nonaromatic ring conformer: 137.30616643435042 kcal/mol)

>  <smiles>  (76) 
CCC(=O)N=c1cc(-c2c(-c3ccc(F)cc3)nn3ccc(N4CCN(CC(=O)N5CCCC5)CC4)nc23)cc[nH]1

>  <score_type>  (76) 
oracle

>  <origin>  (76) 
adg

>  <m_score__min__energy>  (76) 
-10.74

>  <m_primary>  (76) 
energy

$$$$
77:0
     RDKit          3D

 50 52  0  0  1  0  0  0  0  0999 V2000
   60.9860   28.9180   44.7850 C   0  0  0  0  0  0  0  0  0  0  0  0
   59.5200   28.7200   44.5800 C   0  0  0  0  0  0  0  0  0  0  0  0
   58.8280   27.8600   45.4570 N   0  0  0  0  0  0  0  0  0  0  0  0
   57.8580   27.1150   44.6810 C   0  0  0  0  0  0  0  0  0  0  0  0
   58.1360   27.0930   43.2150 C   0  0  0  0  0  0  0  0  0  0  0  0
   59.5490   27.0250   46.3050 C   0  0  0  0  0  0  0  0  0  0  0  0
   59.6260   27.3610   47.7650 C   0  0  0  0  0  0  0  0  0  0  0  0
   58.9240   28.6180   47.9910 N   0  0  0  0  0  0  0  0  0  0  0  0
   59.3630   29.7710   47.6360 C   0  0  0  0  0  0  0  0  0  0  0  0
   58.5680   30.6630   47.0500 N   0  0  0  0  0  0  0  0  0  0  0  0
   58.9930   31.8780   46.6720 C   0  0  0  0  0  0  0  0  0  0  0  0
   58.2360   32.7330   46.1040 N   0  0  0  0  0  0  0  0  0  0  0  0
   58.1530   32.8820   44.6640 C   0  0  0  0  0  0  0  0  0  0  0  0
   57.3960   31.6670   44.1860 C   0  0  0  0  0  0  0  0  0  0  0  0
   57.3630   31.2270   42.8690 C   0  0  0  0  0  0  0  0  0  0  0  0
   56.5530   30.0910   42.9080 C   0  0  0  0  0  0  0  0  0  0  0  0
   56.1450   29.9050   44.2150 C   0  0  0  0  0  0  0  0  0  0  0  0
   56.6720   30.8720   44.9500 O   0  0  0  0  0  0  0  0  0  0  0  0
   60.3150   32.2570   46.8860 C   0  0  0  0  0  0  0  0  0  0  0  0
   60.7590   33.4970   46.4990 C   0  0  0  0  0  0  0  0  0  0  0  0
   62.0730   33.8190   46.7310 C   0  0  0  0  0  0  0  0  0  0  0  0
   62.9210   32.9200   47.3380 C   0  0  0  0  0  0  0  0  0  0  0  0
   62.4480   31.6760   47.7160 C   0  0  0  0  0  0  0  0  0  0  0  0
   61.1230   31.3110   47.4970 C   0  0  0  0  0  0  0  0  0  0  0  0
   60.6450   30.0950   47.8600 N   0  0  0  0  0  0  0  0  0  0  0  0
   61.2048   28.9476   45.8626 H   0  0  0  0  0  0  0  0  0  0  0  0
   61.5367   28.0861   44.3217 H   0  0  0  0  0  0  0  0  0  0  0  0
   61.2963   29.8662   44.3217 H   0  0  0  0  0  0  0  0  0  0  0  0
   59.0453   29.7095   44.6539 H   0  0  0  0  0  0  0  0  0  0  0  0
   59.4500   28.2206   43.6024 H   0  0  0  0  0  0  0  0  0  0  0  0
   57.8475   26.0774   45.0460 H   0  0  0  0  0  0  0  0  0  0  0  0
   56.8907   27.6221   44.8123 H   0  0  0  0  0  0  0  0  0  0  0  0
   59.2200   27.0072   43.0486 H   0  0  0  0  0  0  0  0  0  0  0  0
   57.6256   26.2324   42.7579 H   0  0  0  0  0  0  0  0  0  0  0  0
   57.7673   28.0231   42.7579 H   0  0  0  0  0  0  0  0  0  0  0  0
   59.1011   26.0233   46.2281 H   0  0  0  0  0  0  0  0  0  0  0  0
   60.5871   27.1278   45.9559 H   0  0  0  0  0  0  0  0  0  0  0  0
   59.1535   26.5616   48.3546 H   0  0  0  0  0  0  0  0  0  0  0  0
   60.6775   27.4574   48.0733 H   0  0  0  0  0  0  0  0  0  0  0  0
   57.5700   30.4350   46.8640 H   0  0  0  0  0  0  0  0  0  0  0  0
   57.6111   33.8026   44.4016 H   0  0  0  0  0  0  0  0  0  0  0  0
   59.1472   32.9572   44.1995 H   0  0  0  0  0  0  0  0  0  0  0  0
   57.8613   31.6720   41.9951 H   0  0  0  0  0  0  0  0  0  0  0  0
   56.2866   29.4561   42.0501 H   0  0  0  0  0  0  0  0  0  0  0  0
   55.4962   29.0955   44.5807 H   0  0  0  0  0  0  0  0  0  0  0  0
   60.0793   34.2141   46.0155 H   0  0  0  0  0  0  0  0  0  0  0  0
   62.4527   34.8061   46.4287 H   0  0  0  0  0  0  0  0  0  0  0  0
   63.9714   33.1900   47.5219 H   0  0  0  0  0  0  0  0  0  0  0  0
   63.1319   30.9622   48.1986 H   0  0  0  0  0  0  0  0  0  0  0  0
   61.3280   29.4570   48.3020 H   0  0  0  0  0  0  0  0  0  0  0  0
  1  2  1  0
  2  3  1  0
  3  4  1  0
  4  5  1  0
  3  6  1  0
  6  7  1  0
  7  8  1  0
  8  9  2  0
  9 10  1  0
 10 11  1  0
 11 12  2  0
 12 13  1  0
 13 14  1  0
 14 15  2  0
 15 16  1  0
 16 17  2  0
 17 18  1  0
 11 19  1  0
 19 20  2  0
 20 21  1  0
 21 22  2  0
 22 23  1  0
 23 24  2  0
 24 25  1  0
 25  9  1  0
 18 14  1  0
 24 19  1  0
  1 26  1  0
  1 27  1  0
  1 28  1  0
  2 29  1  0
  2 30  1  0
  4 31  1  0
  4 32  1  0
  5 33  1  0
  5 34  1  0
  5 35  1  0
  6 36  1  0
  6 37  1  0
  7 38  1  0
  7 39  1  0
 10 40  1  0
 13 41  1  0
 13 42  1  0
 15 43  1  0
 16 44  1  0
 17 45  1  0
 20 46  1  0
 21 47  1  0
 22 48  1  0
 23 49  1  0
 25 50  1  0
M  END
>  <smiles>  (77) 
CCN(CC)CCN=c1[nH]c(=NCc2ccco2)c2ccccc2[nH]1

>  <score_type>  (77) 
oracle

>  <origin>  (77) 
adg

>  <m_score__min__energy>  (77) 
-6.5499999999999998

>  <m_primary>  (77) 
energy

$$$$
78:0
     RDKit          3D

 54 57  0  0  0  0  0  0  0  0999 V2000
   57.7870   32.8740   44.2040 C   0  0  0  0  0  0  0  0  0  0  0  0
   58.6240   33.5310   45.2700 C   0  0  0  0  0  0  0  0  0  0  0  0
   58.8960   34.9060   45.1670 C   0  0  0  0  0  0  0  0  0  0  0  0
   59.6540   35.5550   46.1420 C   0  0  0  0  0  0  0  0  0  0  0  0
   60.1650   34.8360   47.2210 C   0  0  0  0  0  0  0  0  0  0  0  0
   59.9250   33.4660   47.3270 C   0  0  0  0  0  0  0  0  0  0  0  0
   59.1490   32.7950   46.3640 C   0  0  0  0  0  0  0  0  0  0  0  0
   58.9550   31.3700   46.4650 N   0  0  0  0  0  0  0  0  0  0  0  0
   58.8700   30.5780   45.4070 N   0  0  0  0  0  0  0  0  0  0  0  0
   58.7890   29.3070   45.8450 C   0  0  0  0  0  0  0  0  0  0  0  0
   58.6570   28.1400   44.9590 C   0  0  0  0  0  0  0  0  0  0  0  0
   59.5440   27.9150   44.0910 O   0  0  0  0  0  0  0  0  0  0  0  0
   57.5310   27.2590   45.0850 N   0  0  0  0  0  0  0  0  0  0  0  0
   57.4150   26.0230   44.3140 C   0  0  0  0  0  0  0  0  0  0  0  0
   56.8530   24.9220   45.1760 C   0  0  0  0  0  0  0  0  0  0  0  0
   57.5340   23.6970   45.2910 C   0  0  0  0  0  0  0  0  0  0  0  0
   57.0280   22.6810   46.1050 C   0  0  0  0  0  0  0  0  0  0  0  0
   55.8410   22.8780   46.8150 C   0  0  0  0  0  0  0  0  0  0  0  0
   55.1580   24.0920   46.7130 C   0  0  0  0  0  0  0  0  0  0  0  0
   55.6590   25.1150   45.9000 C   0  0  0  0  0  0  0  0  0  0  0  0
   54.9680   26.3190   45.8160 O   0  0  0  0  0  0  0  0  0  0  0  0
   58.8390   29.2800   47.2240 C   0  0  0  0  0  0  0  0  0  0  0  0
   58.9370   30.6080   47.5850 C   0  0  0  0  0  0  0  0  0  0  0  0
   59.0220   31.0900   48.9720 C   0  0  0  0  0  0  0  0  0  0  0  0
   58.1830   31.9400   49.3710 O   0  0  0  0  0  0  0  0  0  0  0  0
   60.0560   30.6640   49.8670 N   0  0  0  0  0  0  0  0  0  0  0  0
   61.4230   30.3180   49.4890 C   0  0  0  0  0  0  0  0  0  0  0  0
   62.1680   31.5060   48.9480 C   0  0  0  0  0  0  0  0  0  0  0  0
   62.2750   32.7030   49.6780 C   0  0  0  0  0  0  0  0  0  0  0  0
   62.9130   33.8030   49.1010 C   0  0  0  0  0  0  0  0  0  0  0  0
   63.4160   33.7130   47.8040 C   0  0  0  0  0  0  0  0  0  0  0  0
   63.2690   32.5190   47.0950 C   0  0  0  0  0  0  0  0  0  0  0  0
   62.6490   31.4570   47.6740 N   0  0  0  0  0  0  0  0  0  0  0  0
   57.0059   32.2609   44.6772 H   0  0  0  0  0  0  0  0  0  0  0  0
   57.3174   33.6472   43.5782 H   0  0  0  0  0  0  0  0  0  0  0  0
   58.4265   32.2342   43.5782 H   0  0  0  0  0  0  0  0  0  0  0  0
   58.5077   35.4757   44.3098 H   0  0  0  0  0  0  0  0  0  0  0  0
   59.8484   36.6345   46.0591 H   0  0  0  0  0  0  0  0  0  0  0  0
   60.7590   35.3501   47.9909 H   0  0  0  0  0  0  0  0  0  0  0  0
   60.3472   32.9038   48.1730 H   0  0  0  0  0  0  0  0  0  0  0  0
   56.7670   27.4940   45.7570 H   0  0  0  0  0  0  0  0  0  0  0  0
   56.7460   26.1908   43.4571 H   0  0  0  0  0  0  0  0  0  0  0  0
   58.4131   25.7266   43.9591 H   0  0  0  0  0  0  0  0  0  0  0  0
   58.4707   23.5380   44.7366 H   0  0  0  0  0  0  0  0  0  0  0  0
   57.5648   21.7244   46.1872 H   0  0  0  0  0  0  0  0  0  0  0  0
   55.4440   22.0762   47.4549 H   0  0  0  0  0  0  0  0  0  0  0  0
   54.2237   24.2445   47.2732 H   0  0  0  0  0  0  0  0  0  0  0  0
   58.8078   28.4007   47.8843 H   0  0  0  0  0  0  0  0  0  0  0  0
   61.9527   29.9385   50.3752 H   0  0  0  0  0  0  0  0  0  0  0  0
   61.3773   29.5534   48.6995 H   0  0  0  0  0  0  0  0  0  0  0  0
   61.8599   32.7723   50.6943 H   0  0  0  0  0  0  0  0  0  0  0  0
   63.0185   34.7391   49.6690 H   0  0  0  0  0  0  0  0  0  0  0  0
   63.9235   34.5737   47.3438 H   0  0  0  0  0  0  0  0  0  0  0  0
   63.6549   32.4379   46.0681 H   0  0  0  0  0  0  0  0  0  0  0  0
  1  2  1  0
  2  3  2  0
  3  4  1  0
  4  5  2  0
  5  6  1  0
  6  7  2  0
  7  8  1  0
  8  9  1  0
  9 10  2  0
 10 11  1  0
 11 12  2  0
 11 13  1  0
 13 14  1  0
 14 15  1  0
 15 16  2  0
 16 17  1  0
 17 18  2  0
 18 19  1  0
 19 20  2  0
 20 21  1  0
 10 22  1  0
 22 23  2  0
 23 24  1  0
 24 25  2  0
 24 26  1  0
 26 27  1  0
 27 28  1  0
 28 29  2  0
 29 30  1  0
 30 31  2  0
 31 32  1  0
 32 33  2  0
  7  2  1  0
 23  8  1  0
 33 28  1  0
 20 15  1  0
  1 34  1  0
  1 35  1  0
  1 36  1  0
  3 37  1  0
  4 38  1  0
  5 39  1  0
  6 40  1  0
 13 41  1  0
 14 42  1  0
 14 43  1  0
 16 44  1  0
 17 45  1  0
 18 46  1  0
 19 47  1  0
 22 48  1  0
 27 49  1  0
 27 50  1  0
 29 51  1  0
 30 52  1  0
 31 53  1  0
 32 54  1  0
M  CHG  2  21  -1  26  -1
M  END
>  <UniqueID>  (78) 
69

>  <SMILES>  (78) 
Cc1ccccc1-n1nc(C(=O)NCc2ccccc2[O-])cc1C(=O)[N-]Cc1ccccn1

>  <Energy>  (78) 
94.06657542479623

>  <Genealogy>  (78) 
Cc1ccccc1-n1nc(C(=O)NCc2ccccc2[O-])cc1C(=O)[N-]Cc1ccccn1 (protonated)
Cc1ccccc1-n1nc(C(=O)NCc2ccccc2[O-])cc1C(=O)[N-]Cc1ccccn1 (3D coordinates assigned)
Cc1ccccc1-n1nc(C(=O)NCc2ccccc2[O-])cc1C(=O)[N-]Cc1ccccn1 (optimized conformer: 94.06657542479623 kcal/mol)

>  <smiles>  (78) 
Cc1ccccc1-n1nc(C(=O)NCc2ccccc2O)cc1C(=O)NCc1ccccn1

>  <score_type>  (78) 
oracle

>  <origin>  (78) 
adg

>  <m_score__min__energy>  (78) 
-14.17

>  <m_primary>  (78) 
energy

$$$$
79:0
     RDKit          3D

 47 49  0  0  0  0  0  0  0  0999 V2000
   57.9984   26.5954   44.2053 H   0  0  0  0  0  0  0  0  0  0  0  0
   57.6790   25.9350   45.0250 C   0  0  0  0  0  0  0  0  0  0  0  0
   56.5940   26.4330   45.9100 C   0  0  0  0  0  0  0  0  0  0  0  0
   56.2670   25.8030   46.9500 O   0  0  0  0  0  0  0  0  0  0  0  0
   55.9100   27.6580   45.6160 N   0  0  0  0  0  0  0  0  0  0  0  0
   56.5140   28.8690   45.1450 C   0  0  0  0  0  0  0  0  0  0  0  0
   55.9260   29.5510   44.0740 C   0  0  0  0  0  0  0  0  0  0  0  0
   55.0069   29.1581   43.6148 H   0  0  0  0  0  0  0  0  0  0  0  0
   56.4980   30.7270   43.5840 C   0  0  0  0  0  0  0  0  0  0  0  0
   56.0238   31.2571   42.7449 H   0  0  0  0  0  0  0  0  0  0  0  0
   57.6750   31.2370   44.1560 C   0  0  0  0  0  0  0  0  0  0  0  0
   58.2870   32.5240   43.6510 C   0  0  0  0  0  0  0  0  0  0  0  0
   59.3628   32.3588   43.4915 H   0  0  0  0  0  0  0  0  0  0  0  0
   57.7628   32.7881   42.7207 H   0  0  0  0  0  0  0  0  0  0  0  0
   58.1210   33.6620   44.5820 N   0  0  0  0  0  0  0  0  0  0  0  0
   57.1930   33.4350   45.7150 C   0  0  0  0  0  0  0  0  0  0  0  0
   56.2765   34.0164   45.5364 H   0  0  0  0  0  0  0  0  0  0  0  0
   56.9981   32.3534   45.7621 H   0  0  0  0  0  0  0  0  0  0  0  0
   57.7740   33.8490   47.0740 C   0  0  0  0  0  0  0  0  0  0  0  0
   57.7519   34.9453   47.1609 H   0  0  0  0  0  0  0  0  0  0  0  0
   57.1713   33.3989   47.8766 H   0  0  0  0  0  0  0  0  0  0  0  0
   59.2130   33.3620   47.1960 C   0  0  0  0  0  0  0  0  0  0  0  0
   59.6023   33.6416   48.1861 H   0  0  0  0  0  0  0  0  0  0  0  0
   59.2199   32.2696   47.0668 H   0  0  0  0  0  0  0  0  0  0  0  0
   60.1100   33.9810   46.1140 C   0  0  0  0  0  0  0  0  0  0  0  0
   60.6308   34.8470   46.5485 H   0  0  0  0  0  0  0  0  0  0  0  0
   60.8051   33.1947   45.7846 H   0  0  0  0  0  0  0  0  0  0  0  0
   59.3380   34.4540   44.8620 C   0  0  0  0  0  0  0  0  0  0  0  0
   59.0433   35.5032   45.0111 H   0  0  0  0  0  0  0  0  0  0  0  0
   60.0108   34.3264   44.0011 H   0  0  0  0  0  0  0  0  0  0  0  0
   58.2990   30.5170   45.1880 C   0  0  0  0  0  0  0  0  0  0  0  0
   59.2465   30.8805   45.6124 H   0  0  0  0  0  0  0  0  0  0  0  0
   57.7240   29.3420   45.6790 C   0  0  0  0  0  0  0  0  0  0  0  0
   58.2209   28.7851   46.4870 H   0  0  0  0  0  0  0  0  0  0  0  0
   58.3050   24.7520   45.1350 C   0  0  0  0  0  0  0  0  0  0  0  0
   59.1858   24.7081   45.7925 H   0  0  0  0  0  0  0  0  0  0  0  0
   57.9120   23.5060   44.4490 C   0  0  0  0  0  0  0  0  0  0  0  0
   56.9000   23.4980   43.4770 C   0  0  0  0  0  0  0  0  0  0  0  0
   56.4142   24.4391   43.1800 H   0  0  0  0  0  0  0  0  0  0  0  0
   56.5110   22.2950   42.8880 C   0  0  0  0  0  0  0  0  0  0  0  0
   55.7302   22.2831   42.1133 H   0  0  0  0  0  0  0  0  0  0  0  0
   57.1220   21.1060   43.2910 C   0  0  0  0  0  0  0  0  0  0  0  0
   56.8275   20.1529   42.8275 H   0  0  0  0  0  0  0  0  0  0  0  0
   58.0810   21.1240   44.2560 N   0  0  0  0  0  0  0  0  0  0  0  0
   58.5210   20.2250   44.5550 H   0  0  0  0  0  0  0  0  0  0  0  0
   58.4760   22.2870   44.8450 C   0  0  0  0  0  0  0  0  0  0  0  0
   59.2412   22.2685   45.6350 H   0  0  0  0  0  0  0  0  0  0  0  0
  1  2  1  0
  2  3  1  0
  3  4  2  0
  3  5  1  0
  5  6  1  0
  6  7  2  0
  7  8  1  0
  7  9  1  0
  9 10  1  0
  9 11  2  0
 11 12  1  0
 12 13  1  0
 12 14  1  0
 12 15  1  0
 15 16  1  0
 16 17  1  0
 16 18  1  0
 16 19  1  0
 19 20  1  0
 19 21  1  0
 19 22  1  0
 22 23  1  0
 22 24  1  0
 22 25  1  0
 25 26  1  0
 25 27  1  0
 25 28  1  0
 28 29  1  0
 28 30  1  0
 11 31  1  0
 31 32  1  0
 31 33  2  0
 33 34  1  0
  2 35  2  0
 35 36  1  0
 35 37  1  0
 37 38  2  0
 38 39  1  0
 38 40  1  0
 40 41  1  0
 40 42  2  0
 42 43  1  0
 42 44  1  0
 44 45  1  0
 44 46  2  0
 46 47  1  0
 33  6  1  0
 46 37  1  0
 28 15  1  0
M  CHG  2   5  -1  44   1
M  END
>  <UniqueID>  (79) 
70

>  <SMILES>  (79) 
O=C(/C=C\c1ccc[nH+]c1)[N-]c1ccc(CN2CCCCC2)cc1

>  <Energy>  (79) 
72.69674519356896

>  <Genealogy>  (79) 
O=C(C=Cc1ccc[nH+]c1)[N-]c1ccc(CN2CCCCC2)cc1 (protonated)
O=C(/C=C\c1ccc[nH+]c1)[N-]c1ccc(CN2CCCCC2)cc1 (cis-trans isomerization)
O=C(/C=C\c1ccc[nH+]c1)[N-]c1ccc(CN2CCCCC2)cc1 (3D coordinates assigned)
O=C(/C=C\c1ccc[nH+]c1)[N-]c1ccc(CN2CCCCC2)cc1 (nonaromatic ring conformer: 72.69674519356896 kcal/mol)

>  <smiles>  (79) 
O=C(C=Cc1cccnc1)Nc1ccc(CN2CCCCC2)cc1

>  <score_type>  (79) 
oracle

>  <origin>  (79) 
adg

>  <m_score__min__energy>  (79) 
-10.380000000000001

>  <m_primary>  (79) 
energy

$$$$
80:0
     RDKit          3D

 53 56  0  0  0  0  0  0  0  0999 V2000
   55.5590   29.7200   45.9290 H   0  0  0  0  0  0  0  0  0  0  0  0
   55.6590   28.9780   45.2490 O   0  0  0  0  0  0  0  0  0  0  0  0
   56.2580   27.7540   45.5470 C   0  0  0  0  0  0  0  0  0  0  0  0
   55.4730   26.7340   45.9800 N   0  0  0  0  0  0  0  0  0  0  0  0
   55.9970   25.5260   46.3060 C   0  0  0  0  0  0  0  0  0  0  0  0
   55.2450   24.5990   46.7020 O   0  0  0  0  0  0  0  0  0  0  0  0
   57.3350   25.3180   46.2080 N   0  0  0  0  0  0  0  0  0  0  0  0
   58.1690   26.3000   45.7790 C   0  0  0  0  0  0  0  0  0  0  0  0
   59.4050   26.0720   45.7030 O   0  0  0  0  0  0  0  0  0  0  0  0
   57.6470   27.5520   45.4160 C   0  0  0  0  0  0  0  0  0  0  0  0
   58.5490   28.6300   44.9710 C   0  0  0  0  0  0  0  0  0  0  0  0
   59.2154   28.4113   44.1236 H   0  0  0  0  0  0  0  0  0  0  0  0
   58.6260   29.8610   45.5150 C   0  0  0  0  0  0  0  0  0  0  0  0
   58.0610   30.9760   44.9160 C   0  0  0  0  0  0  0  0  0  0  0  0
   57.4714   30.9927   43.9875 H   0  0  0  0  0  0  0  0  0  0  0  0
   58.3790   32.0600   45.7060 C   0  0  0  0  0  0  0  0  0  0  0  0
   57.9740   33.4740   45.4200 C   0  0  0  0  0  0  0  0  0  0  0  0
   57.8204   34.0103   46.3680 H   0  0  0  0  0  0  0  0  0  0  0  0
   58.7656   33.9722   44.8410 H   0  0  0  0  0  0  0  0  0  0  0  0
   57.0387   33.4776   44.8410 H   0  0  0  0  0  0  0  0  0  0  0  0
   59.0900   31.6630   46.7840 N   0  0  0  0  0  0  0  0  0  0  0  0
   59.5760   32.5210   47.8300 C   0  0  0  0  0  0  0  0  0  0  0  0
   58.9600   32.5050   49.0910 C   0  0  0  0  0  0  0  0  0  0  0  0
   58.1069   31.8347   49.2725 H   0  0  0  0  0  0  0  0  0  0  0  0
   59.4230   33.3370   50.1230 C   0  0  0  0  0  0  0  0  0  0  0  0
   58.7760   33.3320   51.4110 N   0  0  0  0  0  0  0  0  0  0  0  0
   59.2820   34.1800   52.4970 C   0  0  0  0  0  0  0  0  0  0  0  0
   60.3818   34.1695   52.4804 H   0  0  0  0  0  0  0  0  0  0  0  0
   58.9069   35.2035   52.3495 H   0  0  0  0  0  0  0  0  0  0  0  0
   58.7930   33.6670   53.8630 C   0  0  0  0  0  0  0  0  0  0  0  0
   59.4642   34.0476   54.6470 H   0  0  0  0  0  0  0  0  0  0  0  0
   57.7641   34.0257   54.0137 H   0  0  0  0  0  0  0  0  0  0  0  0
   58.7770   32.1890   53.9230 N   0  0  0  0  0  0  0  0  0  0  0  0
   60.1400   31.6280   53.9130 C   0  0  0  0  0  0  0  0  0  0  0  0
   60.4856   31.4858   54.9476 H   0  0  0  0  0  0  0  0  0  0  0  0
   60.1340   30.6592   53.3920 H   0  0  0  0  0  0  0  0  0  0  0  0
   60.8177   32.3203   53.3920 H   0  0  0  0  0  0  0  0  0  0  0  0
   57.9120   31.5610   52.8880 C   0  0  0  0  0  0  0  0  0  0  0  0
   58.4134   30.6530   52.5218 H   0  0  0  0  0  0  0  0  0  0  0  0
   56.9456   31.3453   53.3671 H   0  0  0  0  0  0  0  0  0  0  0  0
   57.6200   32.4730   51.6830 C   0  0  0  0  0  0  0  0  0  0  0  0
   57.4115   31.8525   50.7989 H   0  0  0  0  0  0  0  0  0  0  0  0
   56.7480   33.1036   51.9111 H   0  0  0  0  0  0  0  0  0  0  0  0
   60.5040   34.2010   49.8710 C   0  0  0  0  0  0  0  0  0  0  0  0
   60.8689   34.8666   50.6671 H   0  0  0  0  0  0  0  0  0  0  0  0
   61.1170   34.2190   48.6160 C   0  0  0  0  0  0  0  0  0  0  0  0
   61.9652   34.8943   48.4300 H   0  0  0  0  0  0  0  0  0  0  0  0
   60.6570   33.3830   47.5970 C   0  0  0  0  0  0  0  0  0  0  0  0
   61.2460   33.4300   46.3750 F   0  0  0  0  0  0  0  0  0  0  0  0
   59.2450   30.3160   46.6920 C   0  0  0  0  0  0  0  0  0  0  0  0
   59.8320   29.5810   47.6500 C   0  0  0  0  0  0  0  0  0  0  0  0
   60.2804   30.0746   48.5248 H   0  0  0  0  0  0  0  0  0  0  0  0
   59.8646   28.4852   47.5601 H   0  0  0  0  0  0  0  0  0  0  0  0
  1  2  1  0
  2  3  1  0
  3  4  1  0
  4  5  1  0
  5  6  2  0
  5  7  1  0
  7  8  1  0
  8  9  2  0
  8 10  1  0
 10 11  1  0
 11 12  1  0
 11 13  2  0
 13 14  1  0
 14 15  1  0
 14 16  2  0
 16 17  1  0
 17 18  1  0
 17 19  1  0
 17 20  1  0
 16 21  1  0
 21 22  1  0
 22 23  2  0
 23 24  1  0
 23 25  1  0
 25 26  1  0
 26 27  1  0
 27 28  1  0
 27 29  1  0
 27 30  1  0
 30 31  1  0
 30 32  1  0
 30 33  1  0
 33 34  1  0
 34 35  1  0
 34 36  1  0
 34 37  1  0
 33 38  1  0
 38 39  1  0
 38 40  1  0
 38 41  1  0
 41 42  1  0
 41 43  1  0
 25 44  2  0
 44 45  1  0
 44 46  1  0
 46 47  1  0
 46 48  2  0
 48 49  1  0
 21 50  1  0
 50 51  2  0
 51 52  1  0
 51 53  1  0
 10  3  2  0
 50 13  1  0
 48 22  1  0
 41 26  1  0
M  CHG  2   4  -1   7  -1
M  END
>  <UniqueID>  (80) 
71

>  <SMILES>  (80) 
C=c1/c(=C\c2c(O)[n-]c(=O)[n-]c2=O)cc(C)n1-c1cc(N2CCN(C)CC2)ccc1F

>  <Energy>  (80) 
116.97422650176833

>  <Genealogy>  (80) 
C=c1c(=Cc2c(O)[n-]c(=O)[n-]c2=O)cc(C)n1-c1cc(N2CCN(C)CC2)ccc1F (protonated)
C=c1/c(=C\c2c(O)[n-]c(=O)[n-]c2=O)cc(C)n1-c1cc(N2CCN(C)CC2)ccc1F (cis-trans isomerization)
C=c1/c(=C\c2c(O)[n-]c(=O)[n-]c2=O)cc(C)n1-c1cc(N2CCN(C)CC2)ccc1F (3D coordinates assigned)
C=c1/c(=C\c2c(O)[n-]c(=O)[n-]c2=O)cc(C)n1-c1cc(N2CCN(C)CC2)ccc1F (nonaromatic ring conformer: 116.97422650176833 kcal/mol)

>  <smiles>  (80) 
C=c1c(=Cc2c(O)[nH]c(=O)[nH]c2=O)cc(C)n1-c1cc(N2CCN(C)CC2)ccc1F

>  <score_type>  (80) 
oracle

>  <origin>  (80) 
adg

>  <m_score__min__energy>  (80) 
-13.84

>  <m_primary>  (80) 
energy

$$$$
81:0
     RDKit          3D

 57 59  0  0  0  0  0  0  0  0999 V2000
   57.9020   25.8600   45.7960 C   0  0  0  0  0  0  0  0  0  0  0  0
   56.4680   26.2110   46.0450 C   0  0  0  0  0  0  0  0  0  0  0  0
   55.7460   25.4030   46.6860 O   0  0  0  0  0  0  0  0  0  0  0  0
   55.9000   27.4530   45.6090 N   0  0  0  0  0  0  0  0  0  0  0  0
   56.5960   28.6920   45.4100 C   0  0  0  0  0  0  0  0  0  0  0  0
   56.1390   29.5720   44.4220 C   0  0  0  0  0  0  0  0  0  0  0  0
   56.7980   30.7830   44.1940 C   0  0  0  0  0  0  0  0  0  0  0  0
   57.9420   31.1180   44.9360 C   0  0  0  0  0  0  0  0  0  0  0  0
   58.6260   32.4490   44.7300 C   0  0  0  0  0  0  0  0  0  0  0  0
   57.7380   33.4330   44.0920 N   0  0  0  0  0  0  0  0  0  0  0  0
   57.3330   34.4890   45.0300 C   0  0  0  0  0  0  0  0  0  0  0  0
   57.9190   34.2330   46.3830 C   0  0  0  0  0  0  0  0  0  0  0  0
   57.4130   33.3540   47.1320 O   0  0  0  0  0  0  0  0  0  0  0  0
   59.0660   34.9300   46.7750 O   0  0  0  0  0  0  0  0  0  0  0  0
   60.3060   34.8390   46.0810 C   0  0  0  0  0  0  0  0  0  0  0  0
   61.1990   33.8270   46.7480 C   0  0  0  0  0  0  0  0  0  0  0  0
   62.5840   33.8650   46.5320 C   0  0  0  0  0  0  0  0  0  0  0  0
   63.4220   32.9450   47.1660 C   0  0  0  0  0  0  0  0  0  0  0  0
   62.8860   31.9900   48.0340 C   0  0  0  0  0  0  0  0  0  0  0  0
   61.5060   31.9570   48.2900 C   0  0  0  0  0  0  0  0  0  0  0  0
   60.9420   30.9290   49.1940 C   0  0  0  0  0  0  0  0  0  0  0  0
   61.6630   29.9500   49.5290 O   0  0  0  0  0  0  0  0  0  0  0  0
   59.6010   31.0280   49.7080 N   0  0  0  0  0  0  0  0  0  0  0  0
   59.0740   32.3180   50.1730 C   0  0  0  0  0  0  0  0  0  0  0  0
   57.9270   32.0920   51.1600 C   0  0  0  0  0  0  0  0  0  0  0  0
   58.2530   31.0170   52.0150 O   0  0  0  0  0  0  0  0  0  0  0  0
   58.1790   29.7820   51.3170 C   0  0  0  0  0  0  0  0  0  0  0  0
   58.7850   29.8220   49.8940 C   0  0  0  0  0  0  0  0  0  0  0  0
   60.6670   32.8770   47.6390 C   0  0  0  0  0  0  0  0  0  0  0  0
   58.4200   30.2190   45.9030 C   0  0  0  0  0  0  0  0  0  0  0  0
   57.7580   29.0100   46.1320 C   0  0  0  0  0  0  0  0  0  0  0  0
   58.4207   25.7330   46.7577 H   0  0  0  0  0  0  0  0  0  0  0  0
   57.9559   24.9222   45.2237 H   0  0  0  0  0  0  0  0  0  0  0  0
   58.3830   26.6669   45.2237 H   0  0  0  0  0  0  0  0  0  0  0  0
   55.2558   29.3087   43.8215 H   0  0  0  0  0  0  0  0  0  0  0  0
   56.4187   31.4771   43.4296 H   0  0  0  0  0  0  0  0  0  0  0  0
   58.9443   32.8396   45.7078 H   0  0  0  0  0  0  0  0  0  0  0  0
   59.4877   32.2885   44.0654 H   0  0  0  0  0  0  0  0  0  0  0  0
   58.2450   33.8660   43.2830 H   0  0  0  0  0  0  0  0  0  0  0  0
   57.6890   35.4611   44.6581 H   0  0  0  0  0  0  0  0  0  0  0  0
   56.2359   34.4957   45.1101 H   0  0  0  0  0  0  0  0  0  0  0  0
   60.1195   34.5307   45.0417 H   0  0  0  0  0  0  0  0  0  0  0  0
   60.8005   35.8215   46.0969 H   0  0  0  0  0  0  0  0  0  0  0  0
   63.0125   34.6231   45.8600 H   0  0  0  0  0  0  0  0  0  0  0  0
   64.5061   32.9722   46.9817 H   0  0  0  0  0  0  0  0  0  0  0  0
   63.5496   31.2594   48.5198 H   0  0  0  0  0  0  0  0  0  0  0  0
   59.8771   32.8809   50.6711 H   0  0  0  0  0  0  0  0  0  0  0  0
   58.6990   32.8864   49.3091 H   0  0  0  0  0  0  0  0  0  0  0  0
   57.7713   33.0025   51.7573 H   0  0  0  0  0  0  0  0  0  0  0  0
   57.0056   31.8570   50.6070 H   0  0  0  0  0  0  0  0  0  0  0  0
   58.7193   29.0224   51.9011 H   0  0  0  0  0  0  0  0  0  0  0  0
   57.1106   29.5480   51.1997 H   0  0  0  0  0  0  0  0  0  0  0  0
   59.4161   28.9333   49.7458 H   0  0  0  0  0  0  0  0  0  0  0  0
   57.9642   29.8356   49.1618 H   0  0  0  0  0  0  0  0  0  0  0  0
   59.5836   32.8543   47.8278 H   0  0  0  0  0  0  0  0  0  0  0  0
   59.3206   30.4679   46.4835 H   0  0  0  0  0  0  0  0  0  0  0  0
   58.1483   28.3047   46.8805 H   0  0  0  0  0  0  0  0  0  0  0  0
  1  2  1  0
  2  3  2  0
  2  4  1  0
  4  5  1  0
  5  6  2  0
  6  7  1  0
  7  8  2  0
  8  9  1  0
  9 10  1  0
 10 11  1  0
 11 12  1  0
 12 13  2  0
 12 14  1  0
 14 15  1  0
 15 16  1  0
 16 17  2  0
 17 18  1  0
 18 19  2  0
 19 20  1  0
 20 21  1  0
 21 22  2  0
 21 23  1  0
 23 24  1  0
 24 25  1  0
 25 26  1  0
 26 27  1  0
 27 28  1  0
 20 29  2  0
  8 30  1  0
 30 31  2  0
 31  5  1  0
 29 16  1  0
 28 23  1  0
  1 32  1  0
  1 33  1  0
  1 34  1  0
  6 35  1  0
  7 36  1  0
  9 37  1  0
  9 38  1  0
 10 39  1  0
 11 40  1  0
 11 41  1  0
 15 42  1  0
 15 43  1  0
 17 44  1  0
 18 45  1  0
 19 46  1  0
 24 47  1  0
 24 48  1  0
 25 49  1  0
 25 50  1  0
 27 51  1  0
 27 52  1  0
 28 53  1  0
 28 54  1  0
 29 55  1  0
 30 56  1  0
 31 57  1  0
M  CHG  1   4  -1
M  END
>  <UniqueID>  (81) 
72

>  <SMILES>  (81) 
CC(=O)[N-]c1ccc(CNCC(=O)OCc2cccc(C(=O)N3CCOCC3)c2)cc1

>  <Energy>  (81) 
67.86741614971783

>  <Genealogy>  (81) 
CC(=O)[N-]c1ccc(CNCC(=O)OCc2cccc(C(=O)N3CCOCC3)c2)cc1 (protonated)
CC(=O)[N-]c1ccc(CNCC(=O)OCc2cccc(C(=O)N3CCOCC3)c2)cc1 (3D coordinates assigned)
CC(=O)[N-]c1ccc(CNCC(=O)OCc2cccc(C(=O)N3CCOCC3)c2)cc1 (nonaromatic ring conformer: 67.86741614971783 kcal/mol)

>  <smiles>  (81) 
CC(=O)Nc1ccc(CNCC(=O)OCc2cccc(C(=O)N3CCOCC3)c2)cc1

>  <score_type>  (81) 
oracle

>  <origin>  (81) 
adg

>  <m_score__min__energy>  (81) 
-10.35

>  <m_primary>  (81) 
energy

$$$$
82:0
     RDKit          3D

 61 64  0  0  0  0  0  0  0  0999 V2000
   58.5970   34.4950   51.6220 O   0  0  0  0  0  0  0  0  0  0  0  0
   59.1170   33.3400   51.5250 C   0  0  0  0  0  0  0  0  0  0  0  0
   60.4980   33.2280   51.0080 C   0  0  0  0  0  0  0  0  0  0  0  0
   61.4940   32.7250   51.8570 C   0  0  0  0  0  0  0  0  0  0  0  0
   62.8180   32.6510   51.4330 C   0  0  0  0  0  0  0  0  0  0  0  0
   63.1660   33.0930   50.1570 C   0  0  0  0  0  0  0  0  0  0  0  0
   64.9790   32.9970   49.5730 Br  0  0  0  0  0  0  0  0  0  0  0  0
   62.1860   33.6030   49.3000 C   0  0  0  0  0  0  0  0  0  0  0  0
   60.8410   33.6690   49.7100 C   0  0  0  0  0  0  0  0  0  0  0  0
   59.8310   34.1820   48.8200 N   0  0  0  0  0  0  0  0  0  0  0  0
   59.9550   34.0920   47.0920 S   0  0  0  0  0  0  0  0  0  0  0  0
   61.4020   34.2410   46.7030 O   0  0  0  0  0  0  0  0  0  0  0  0
   59.1700   35.2210   46.4820 O   0  0  0  0  0  0  0  0  0  0  0  0
   59.3080   32.5640   46.4970 C   0  0  0  0  0  0  0  0  0  0  0  0
   58.1400   32.5440   45.7240 C   0  0  0  0  0  0  0  0  0  0  0  0
   57.6540   31.3370   45.2160 C   0  0  0  0  0  0  0  0  0  0  0  0
   58.3310   30.1330   45.4750 C   0  0  0  0  0  0  0  0  0  0  0  0
   57.8350   28.8770   44.9760 N   0  0  0  0  0  0  0  0  0  0  0  0
   58.0740   27.6130   45.6190 C   0  0  0  0  0  0  0  0  0  0  0  0
   58.1080   27.5240   47.2620 S   0  0  0  0  0  0  0  0  0  0  0  0
   58.0940   26.4170   44.8220 N   0  0  0  0  0  0  0  0  0  0  0  0
   58.5120   25.1060   45.3240 C   0  0  0  0  0  0  0  0  0  0  0  0
   57.8600   24.0060   44.5230 C   0  0  0  0  0  0  0  0  0  0  0  0
   56.7140   24.2770   43.7510 C   0  0  0  0  0  0  0  0  0  0  0  0
   56.1160   23.2590   42.9940 C   0  0  0  0  0  0  0  0  0  0  0  0
   56.6570   21.9670   43.0070 C   0  0  0  0  0  0  0  0  0  0  0  0
   57.7970   21.6900   43.7760 C   0  0  0  0  0  0  0  0  0  0  0  0
   58.3950   22.7020   44.5360 C   0  0  0  0  0  0  0  0  0  0  0  0
   59.4840   30.1540   46.2750 C   0  0  0  0  0  0  0  0  0  0  0  0
   59.9710   31.3630   46.7800 C   0  0  0  0  0  0  0  0  0  0  0  0
   58.3550   32.1680   51.9020 N   0  0  0  0  0  0  0  0  0  0  0  0
   56.9240   32.3250   52.2010 C   0  0  0  0  0  0  0  0  0  0  0  0
   56.2840   30.9780   52.5220 C   0  0  0  0  0  0  0  0  0  0  0  0
   56.7820   30.0050   51.6290 O   0  0  0  0  0  0  0  0  0  0  0  0
   58.1090   29.6640   51.9790 C   0  0  0  0  0  0  0  0  0  0  0  0
   59.0350   30.8890   52.1820 C   0  0  0  0  0  0  0  0  0  0  0  0
   61.2265   32.3853   52.8685 H   0  0  0  0  0  0  0  0  0  0  0  0
   63.5890   32.2442   52.1039 H   0  0  0  0  0  0  0  0  0  0  0  0
   62.4684   33.9556   48.2970 H   0  0  0  0  0  0  0  0  0  0  0  0
   59.0360   34.7400   49.1960 H   0  0  0  0  0  0  0  0  0  0  0  0
   57.6038   33.4818   45.5164 H   0  0  0  0  0  0  0  0  0  0  0  0
   56.7362   31.3288   44.6098 H   0  0  0  0  0  0  0  0  0  0  0  0
   57.2690   28.8830   44.0970 H   0  0  0  0  0  0  0  0  0  0  0  0
   57.8840   26.4980   43.8020 H   0  0  0  0  0  0  0  0  0  0  0  0
   59.6052   25.0170   45.2399 H   0  0  0  0  0  0  0  0  0  0  0  0
   58.2059   25.0117   46.3764 H   0  0  0  0  0  0  0  0  0  0  0  0
   56.2864   25.2904   43.7416 H   0  0  0  0  0  0  0  0  0  0  0  0
   55.2223   23.4751   42.3902 H   0  0  0  0  0  0  0  0  0  0  0  0
   56.1874   21.1687   42.4135 H   0  0  0  0  0  0  0  0  0  0  0  0
   58.2219   20.6754   43.7818 H   0  0  0  0  0  0  0  0  0  0  0  0
   59.2839   22.4793   45.1444 H   0  0  0  0  0  0  0  0  0  0  0  0
   60.0071   29.2143   46.5058 H   0  0  0  0  0  0  0  0  0  0  0  0
   60.8783   31.3713   47.4019 H   0  0  0  0  0  0  0  0  0  0  0  0
   56.8082   32.9941   53.0664 H   0  0  0  0  0  0  0  0  0  0  0  0
   56.4249   32.7496   51.3175 H   0  0  0  0  0  0  0  0  0  0  0  0
   56.5300   30.6902   53.5548 H   0  0  0  0  0  0  0  0  0  0  0  0
   55.1916   31.0526   52.4169 H   0  0  0  0  0  0  0  0  0  0  0  0
   58.0838   29.0889   52.9163 H   0  0  0  0  0  0  0  0  0  0  0  0
   58.5230   29.0840   51.1410 H   0  0  0  0  0  0  0  0  0  0  0  0
   59.3847   30.8971   53.2249 H   0  0  0  0  0  0  0  0  0  0  0  0
   59.8714   30.7948   51.4738 H   0  0  0  0  0  0  0  0  0  0  0  0
  1  2  2  0
  2  3  1  0
  3  4  2  0
  4  5  1  0
  5  6  2  0
  6  7  1  0
  6  8  1  0
  8  9  2  0
  9 10  1  0
 10 11  1  0
 11 12  2  0
 11 13  2  0
 11 14  1  0
 14 15  2  0
 15 16  1  0
 16 17  2  0
 17 18  1  0
 18 19  1  0
 19 20  2  0
 19 21  1  0
 21 22  1  0
 22 23  1  0
 23 24  2  0
 24 25  1  0
 25 26  2  0
 26 27  1  0
 27 28  2  0
 17 29  1  0
 29 30  2  0
  2 31  1  0
 31 32  1  0
 32 33  1  0
 33 34  1  0
 34 35  1  0
 35 36  1  0
  9  3  1  0
 30 14  1  0
 36 31  1  0
 28 23  1  0
  4 37  1  0
  5 38  1  0
  8 39  1  0
 10 40  1  0
 15 41  1  0
 16 42  1  0
 18 43  1  0
 21 44  1  0
 22 45  1  0
 22 46  1  0
 24 47  1  0
 25 48  1  0
 26 49  1  0
 27 50  1  0
 28 51  1  0
 29 52  1  0
 30 53  1  0
 32 54  1  0
 32 55  1  0
 33 56  1  0
 33 57  1  0
 35 58  1  0
 35 59  1  0
 36 60  1  0
 36 61  1  0
M  END
>  <UniqueID>  (82) 
73

>  <SMILES>  (82) 
O=C(c1ccc(Br)cc1NS(=O)(=O)c1ccc(NC(=S)NCc2ccccc2)cc1)N1CCOCC1

>  <Energy>  (82) 
85.57405028905961

>  <Genealogy>  (82) 
O=C(c1ccc(Br)cc1NS(=O)(=O)c1ccc(NC(=S)NCc2ccccc2)cc1)N1CCOCC1 (3D coordinates assigned)
O=C(c1ccc(Br)cc1NS(=O)(=O)c1ccc(NC(=S)NCc2ccccc2)cc1)N1CCOCC1 (nonaromatic ring conformer: 85.57405028905961 kcal/mol)

>  <smiles>  (82) 
O=C(c1ccc(Br)cc1NS(=O)(=O)c1ccc(NC(=S)NCc2ccccc2)cc1)N1CCOCC1

>  <score_type>  (82) 
oracle

>  <origin>  (82) 
adg

>  <m_score__min__energy>  (82) 
-9.6699999999999999

>  <m_primary>  (82) 
energy

$$$$
83:0
     RDKit          3D

 59 62  0  0  0  0  0  0  0  0999 V2000
   59.5450   30.3350   48.6520 O   0  0  0  0  0  0  0  0  0  0  0  0
   60.3410   30.1380   47.6950 C   0  0  0  0  0  0  0  0  0  0  0  0
   59.9250   29.2570   46.5550 C   0  0  0  0  0  0  0  0  0  0  0  0
   58.4800   29.3040   46.3470 N   0  0  0  0  0  0  0  0  0  0  0  0
   57.8600   29.8210   45.1560 C   0  0  0  0  0  0  0  0  0  0  0  0
   58.4350   30.8880   44.4390 C   0  0  0  0  0  0  0  0  0  0  0  0
   57.8230   31.3680   43.2760 C   0  0  0  0  0  0  0  0  0  0  0  0
   56.6360   30.7960   42.8190 C   0  0  0  0  0  0  0  0  0  0  0  0
   56.0550   29.7420   43.5230 C   0  0  0  0  0  0  0  0  0  0  0  0
   56.6500   29.2590   44.7030 C   0  0  0  0  0  0  0  0  0  0  0  0
   56.0690   28.2060   45.4260 O   0  0  0  0  0  0  0  0  0  0  0  0
   56.6480   26.9400   45.6260 C   0  0  0  0  0  0  0  0  0  0  0  0
   55.9140   25.9650   46.3150 C   0  0  0  0  0  0  0  0  0  0  0  0
   56.4380   24.6800   46.4960 C   0  0  0  0  0  0  0  0  0  0  0  0
   57.7000   24.3570   45.9870 C   0  0  0  0  0  0  0  0  0  0  0  0
   58.4420   25.3240   45.3020 C   0  0  0  0  0  0  0  0  0  0  0  0
   57.9180   26.6080   45.1110 C   0  0  0  0  0  0  0  0  0  0  0  0
   61.6330   30.7650   47.6740 N   0  0  0  0  0  0  0  0  0  0  0  0
   62.0490   31.7990   48.5870 C   0  0  0  0  0  0  0  0  0  0  0  0
   62.4470   31.4830   49.9010 C   0  0  0  0  0  0  0  0  0  0  0  0
   62.8340   32.4910   50.7890 C   0  0  0  0  0  0  0  0  0  0  0  0
   62.8140   33.8280   50.3840 C   0  0  0  0  0  0  0  0  0  0  0  0
   62.3910   34.1610   49.0960 C   0  0  0  0  0  0  0  0  0  0  0  0
   62.0010   33.1570   48.1930 C   0  0  0  0  0  0  0  0  0  0  0  0
   61.5640   33.5500   46.8410 C   0  0  0  0  0  0  0  0  0  0  0  0
   62.4390   33.9430   46.0230 O   0  0  0  0  0  0  0  0  0  0  0  0
   60.1710   33.5210   46.4640 N   0  0  0  0  0  0  0  0  0  0  0  0
   59.7510   33.9210   45.1100 C   0  0  0  0  0  0  0  0  0  0  0  0
   58.5060   34.8100   45.1890 C   0  0  0  0  0  0  0  0  0  0  0  0
   57.3700   34.2010   46.0460 C   0  0  0  0  0  0  0  0  0  0  0  0
   57.7750   32.9110   46.7710 C   0  0  0  0  0  0  0  0  0  0  0  0
   59.1570   33.0490   47.4240 C   0  0  0  0  0  0  0  0  0  0  0  0
   60.4300   29.5952   45.6382 H   0  0  0  0  0  0  0  0  0  0  0  0
   60.2073   28.2215   46.7959 H   0  0  0  0  0  0  0  0  0  0  0  0
   57.8830   29.0980   47.1780 H   0  0  0  0  0  0  0  0  0  0  0  0
   59.3696   31.3461   44.7949 H   0  0  0  0  0  0  0  0  0  0  0  0
   58.2799   32.1999   42.7199 H   0  0  0  0  0  0  0  0  0  0  0  0
   56.1585   31.1761   41.9038 H   0  0  0  0  0  0  0  0  0  0  0  0
   55.1252   29.2850   43.1534 H   0  0  0  0  0  0  0  0  0  0  0  0
   54.9198   26.2113   46.7160 H   0  0  0  0  0  0  0  0  0  0  0  0
   55.8556   23.9219   47.0401 H   0  0  0  0  0  0  0  0  0  0  0  0
   58.1078   23.3448   46.1252 H   0  0  0  0  0  0  0  0  0  0  0  0
   59.4401   25.0752   44.9122 H   0  0  0  0  0  0  0  0  0  0  0  0
   58.4989   27.3604   44.5574 H   0  0  0  0  0  0  0  0  0  0  0  0
   62.3300   30.4010   46.9880 H   0  0  0  0  0  0  0  0  0  0  0  0
   62.4533   30.4337   50.2312 H   0  0  0  0  0  0  0  0  0  0  0  0
   63.1549   32.2310   51.8085 H   0  0  0  0  0  0  0  0  0  0  0  0
   63.1316   34.6183   51.0801 H   0  0  0  0  0  0  0  0  0  0  0  0
   62.3627   35.2160   48.7858 H   0  0  0  0  0  0  0  0  0  0  0  0
   60.5663   34.4781   44.6254 H   0  0  0  0  0  0  0  0  0  0  0  0
   59.5150   33.0203   44.5242 H   0  0  0  0  0  0  0  0  0  0  0  0
   58.7947   35.7763   45.6283 H   0  0  0  0  0  0  0  0  0  0  0  0
   58.1185   34.9183   44.1652 H   0  0  0  0  0  0  0  0  0  0  0  0
   57.0659   34.9429   46.7991 H   0  0  0  0  0  0  0  0  0  0  0  0
   56.5498   33.9429   45.3599 H   0  0  0  0  0  0  0  0  0  0  0  0
   57.0310   32.6892   47.5502 H   0  0  0  0  0  0  0  0  0  0  0  0
   57.8195   32.0969   46.0326 H   0  0  0  0  0  0  0  0  0  0  0  0
   59.0889   33.7690   48.2529 H   0  0  0  0  0  0  0  0  0  0  0  0
   59.4647   32.0570   47.7864 H   0  0  0  0  0  0  0  0  0  0  0  0
  1  2  2  0
  2  3  1  0
  3  4  1  0
  4  5  1  0
  5  6  2  0
  6  7  1  0
  7  8  2  0
  8  9  1  0
  9 10  2  0
 10 11  1  0
 11 12  1  0
 12 13  2  0
 13 14  1  0
 14 15  2  0
 15 16  1  0
 16 17  2  0
  2 18  1  0
 18 19  1  0
 19 20  2  0
 20 21  1  0
 21 22  2  0
 22 23  1  0
 23 24  2  0
 24 25  1  0
 25 26  2  0
 25 27  1  0
 27 28  1  0
 28 29  1  0
 29 30  1  0
 30 31  1  0
 31 32  1  0
 10  5  1  0
 17 12  1  0
 24 19  1  0
 32 27  1  0
  3 33  1  0
  3 34  1  0
  4 35  1  0
  6 36  1  0
  7 37  1  0
  8 38  1  0
  9 39  1  0
 13 40  1  0
 14 41  1  0
 15 42  1  0
 16 43  1  0
 17 44  1  0
 18 45  1  0
 20 46  1  0
 21 47  1  0
 22 48  1  0
 23 49  1  0
 28 50  1  0
 28 51  1  0
 29 52  1  0
 29 53  1  0
 30 54  1  0
 30 55  1  0
 31 56  1  0
 31 57  1  0
 32 58  1  0
 32 59  1  0
M  END
>  <UniqueID>  (83) 
74

>  <SMILES>  (83) 
O=C(CNc1ccccc1Oc1ccccc1)Nc1ccccc1C(=O)N1CCCCC1

>  <Energy>  (83) 
80.3178180335877

>  <Genealogy>  (83) 
O=C(CNc1ccccc1Oc1ccccc1)Nc1ccccc1C(=O)N1CCCCC1 (3D coordinates assigned)
O=C(CNc1ccccc1Oc1ccccc1)Nc1ccccc1C(=O)N1CCCCC1 (nonaromatic ring conformer: 80.3178180335877 kcal/mol)

>  <smiles>  (83) 
O=C(CNc1ccccc1Oc1ccccc1)Nc1ccccc1C(=O)N1CCCCC1

>  <score_type>  (83) 
oracle

>  <origin>  (83) 
adg

>  <m_score__min__energy>  (83) 
-9.5199999999999996

>  <m_primary>  (83) 
energy

$$$$
84:0
     RDKit          3D

 45 47  0  0  0  0  0  0  0  0999 V2000
   64.8780   33.0680   46.7540 H   0  0  0  0  0  0  0  0  0  0  0  0
   63.9620   33.5690   46.7190 N   0  0  0  0  0  0  0  0  0  0  0  0
   62.8660   33.0050   47.1140 C   0  0  0  0  0  0  0  0  0  0  0  0
   61.7130   33.7260   47.1870 N   0  0  0  0  0  0  0  0  0  0  0  0
   60.5350   33.1780   47.5930 C   0  0  0  0  0  0  0  0  0  0  0  0
   59.3190   34.0580   47.6520 C   0  0  0  0  0  0  0  0  0  0  0  0
   59.0552   34.2489   48.7027 H   0  0  0  0  0  0  0  0  0  0  0  0
   59.5322   35.0123   47.1483 H   0  0  0  0  0  0  0  0  0  0  0  0
   58.4791   33.5571   47.1483 H   0  0  0  0  0  0  0  0  0  0  0  0
   60.4920   31.8130   47.9690 C   0  0  0  0  0  0  0  0  0  0  0  0
   59.2130   31.1420   48.4110 C   0  0  0  0  0  0  0  0  0  0  0  0
   58.8967   31.5644   49.3762 H   0  0  0  0  0  0  0  0  0  0  0  0
   59.3930   30.0616   48.5125 H   0  0  0  0  0  0  0  0  0  0  0  0
   58.1610   31.3560   47.4250 N   0  0  0  0  0  0  0  0  0  0  0  0
   58.2060   30.8460   46.0870 C   0  0  0  0  0  0  0  0  0  0  0  0
   57.3260   31.1780   45.2480 O   0  0  0  0  0  0  0  0  0  0  0  0
   59.2790   29.8790   45.6900 C   0  0  0  0  0  0  0  0  0  0  0  0
   60.1440   30.0068   46.3574 H   0  0  0  0  0  0  0  0  0  0  0  0
   59.5655   30.0803   44.6472 H   0  0  0  0  0  0  0  0  0  0  0  0
   58.7970   28.4920   45.7860 N   0  0  0  0  0  0  0  0  0  0  0  0
   58.7850   27.7480   46.9160 C   0  0  0  0  0  0  0  0  0  0  0  0
   59.3320   28.1900   48.2400 C   0  0  0  0  0  0  0  0  0  0  0  0
   58.7534   27.7225   49.0503 H   0  0  0  0  0  0  0  0  0  0  0  0
   60.3865   27.8873   48.3206 H   0  0  0  0  0  0  0  0  0  0  0  0
   59.2575   29.2845   48.3206 H   0  0  0  0  0  0  0  0  0  0  0  0
   58.2020   26.5210   46.6810 C   0  0  0  0  0  0  0  0  0  0  0  0
   58.0502   25.7167   47.4159 H   0  0  0  0  0  0  0  0  0  0  0  0
   57.8440   26.4940   45.3440 C   0  0  0  0  0  0  0  0  0  0  0  0
   57.2940   25.4110   44.7600 C   0  0  0  0  0  0  0  0  0  0  0  0
   57.8297   24.9770   43.9029 H   0  0  0  0  0  0  0  0  0  0  0  0
   56.0400   24.7580   45.1680 C   0  0  0  0  0  0  0  0  0  0  0  0
   55.7630   23.4660   44.9250 N   0  0  0  0  0  0  0  0  0  0  0  0
   54.4860   23.3350   45.3480 C   0  0  0  0  0  0  0  0  0  0  0  0
   53.8620   22.2440   45.2950 O   0  0  0  0  0  0  0  0  0  0  0  0
   53.9240   24.4710   45.8160 N   0  0  0  0  0  0  0  0  0  0  0  0
   54.9160   25.3660   45.6820 C   0  0  0  0  0  0  0  0  0  0  0  0
   54.7870   26.7130   45.9960 O   0  0  0  0  0  0  0  0  0  0  0  0
   58.1790   27.7550   44.8230 C   0  0  0  0  0  0  0  0  0  0  0  0
   57.8330   28.2460   43.6210 C   0  0  0  0  0  0  0  0  0  0  0  0
   58.1580   29.2542   43.3244 H   0  0  0  0  0  0  0  0  0  0  0  0
   57.2247   27.6398   42.9336 H   0  0  0  0  0  0  0  0  0  0  0  0
   61.6750   31.0610   47.8920 C   0  0  0  0  0  0  0  0  0  0  0  0
   61.6645   29.9965   48.1689 H   0  0  0  0  0  0  0  0  0  0  0  0
   62.8630   31.6540   47.4670 C   0  0  0  0  0  0  0  0  0  0  0  0
   63.7892   31.0632   47.4103 H   0  0  0  0  0  0  0  0  0  0  0  0
  1  2  1  0
  2  3  2  3
  3  4  1  0
  4  5  1  0
  5  6  1  0
  6  7  1  0
  6  8  1  0
  6  9  1  0
  5 10  2  0
 10 11  1  0
 11 12  1  0
 11 13  1  0
 11 14  1  0
 14 15  1  0
 15 16  2  0
 15 17  1  0
 17 18  1  0
 17 19  1  0
 17 20  1  0
 20 21  1  0
 21 22  1  0
 22 23  1  0
 22 24  1  0
 22 25  1  0
 21 26  2  0
 26 27  1  0
 26 28  1  0
 28 29  2  0
 29 30  1  0
 29 31  1  0
 31 32  1  0
 32 33  1  0
 33 34  2  0
 33 35  1  0
 35 36  1  0
 36 37  1  0
 28 38  1  0
 38 39  2  0
 39 40  1  0
 39 41  1  0
 10 42  1  0
 42 43  1  0
 42 44  2  0
 44 45  1  0
 44  3  1  0
 38 20  1  0
 36 31  2  0
M  CHG  5   4  -1  14  -1  32  -1  35  -1  37  -1
M  END
>  <UniqueID>  (84) 
75

>  <SMILES>  (84) 
C=c1/c(=C\c2[n-]c(=O)[n-]c2[O-])cc(C)n1CC(=O)[N-]Cc1ccc(=N)[n-]c1C

>  <Energy>  (84) 
112.85752585104812

>  <Genealogy>  (84) 
C=c1c(=Cc2[n-]c(=O)[n-]c2[O-])cc(C)n1CC(=O)[N-]Cc1ccc(=N)[n-]c1C (protonated)
C=c1/c(=C\c2[n-]c(=O)[n-]c2[O-])cc(C)n1CC(=O)[N-]Cc1ccc(=N)[n-]c1C (cis-trans isomerization)
C=c1/c(=C\c2[n-]c(=O)[n-]c2[O-])cc(C)n1CC(=O)[N-]Cc1ccc(=N)[n-]c1C (3D coordinates assigned)
C=c1/c(=C\c2[n-]c(=O)[n-]c2[O-])cc(C)n1CC(=O)[N-]Cc1ccc(=N)[n-]c1C (optimized conformer: 112.85752585104812 kcal/mol)

>  <smiles>  (84) 
C=c1c(=Cc2[nH]c(=O)[nH]c2O)cc(C)n1CC(=O)NCc1ccc(=N)[nH]c1C

>  <score_type>  (84) 
oracle

>  <origin>  (84) 
adg

>  <m_score__min__energy>  (84) 
-18.300000000000001

>  <m_primary>  (84) 
energy

$$$$
85:0
     RDKit          3D

 52 55  0  0  0  0  0  0  0  0999 V2000
   54.3460   23.7260   44.9050 C   0  0  0  0  0  0  0  0  0  0  0  0
   54.7630   24.9520   45.6570 C   0  0  0  0  0  0  0  0  0  0  0  0
   54.0220   25.9700   45.6200 O   0  0  0  0  0  0  0  0  0  0  0  0
   55.9560   24.9910   46.4510 N   0  0  0  0  0  0  0  0  0  0  0  0
   57.0980   25.8360   46.2440 C   0  0  0  0  0  0  0  0  0  0  0  0
   58.4070   25.3420   46.3560 C   0  0  0  0  0  0  0  0  0  0  0  0
   59.4950   26.1900   46.1490 C   0  0  0  0  0  0  0  0  0  0  0  0
   59.2870   27.5220   45.7860 C   0  0  0  0  0  0  0  0  0  0  0  0
   57.9860   28.0190   45.6050 C   0  0  0  0  0  0  0  0  0  0  0  0
   57.8170   29.4030   45.2400 N   0  0  0  0  0  0  0  0  0  0  0  0
   56.5720   30.0360   44.8870 C   0  0  0  0  0  0  0  0  0  0  0  0
   55.5360   29.3530   44.6790 O   0  0  0  0  0  0  0  0  0  0  0  0
   56.4930   31.4610   44.7630 N   0  0  0  0  0  0  0  0  0  0  0  0
   57.5910   32.3370   45.0400 C   0  0  0  0  0  0  0  0  0  0  0  0
   57.9160   33.3380   44.1180 C   0  0  0  0  0  0  0  0  0  0  0  0
   58.9510   34.2340   44.3900 C   0  0  0  0  0  0  0  0  0  0  0  0
   59.6730   34.1270   45.5800 C   0  0  0  0  0  0  0  0  0  0  0  0
   59.3790   33.1090   46.4920 C   0  0  0  0  0  0  0  0  0  0  0  0
   58.3450   32.1900   46.2220 C   0  0  0  0  0  0  0  0  0  0  0  0
   58.0580   31.0980   47.0610 O   0  0  0  0  0  0  0  0  0  0  0  0
   58.9950   30.3390   47.8230 C   0  0  0  0  0  0  0  0  0  0  0  0
   59.9090   31.2580   48.5750 C   0  0  0  0  0  0  0  0  0  0  0  0
   59.4630   31.9780   49.6830 C   0  0  0  0  0  0  0  0  0  0  0  0
   60.3600   32.8150   50.3520 C   0  0  0  0  0  0  0  0  0  0  0  0
   59.9490   33.4690   51.3510 O   0  0  0  0  0  0  0  0  0  0  0  0
   61.6600   32.9200   49.9240 N   0  0  0  0  0  0  0  0  0  0  0  0
   62.5490   33.7430   50.5700 C   0  0  0  0  0  0  0  0  0  0  0  0
   63.8730   33.8440   50.1360 C   0  0  0  0  0  0  0  0  0  0  0  0
   64.2970   33.0980   49.0400 C   0  0  0  0  0  0  0  0  0  0  0  0
   63.3970   32.2620   48.3840 C   0  0  0  0  0  0  0  0  0  0  0  0
   62.0750   32.1830   48.8340 C   0  0  0  0  0  0  0  0  0  0  0  0
   61.2040   31.3670   48.1860 N   0  0  0  0  0  0  0  0  0  0  0  0
   56.8930   27.1670   45.8610 C   0  0  0  0  0  0  0  0  0  0  0  0
   54.0762   22.9327   45.6177 H   0  0  0  0  0  0  0  0  0  0  0  0
   53.4774   23.9616   44.2724 H   0  0  0  0  0  0  0  0  0  0  0  0
   55.1781   23.3831   44.2724 H   0  0  0  0  0  0  0  0  0  0  0  0
   58.5752   24.2844   46.6074 H   0  0  0  0  0  0  0  0  0  0  0  0
   60.5193   25.8084   46.2721 H   0  0  0  0  0  0  0  0  0  0  0  0
   60.1501   28.1883   45.6404 H   0  0  0  0  0  0  0  0  0  0  0  0
   58.6810   29.9900   45.2160 H   0  0  0  0  0  0  0  0  0  0  0  0
   57.3541   33.4191   43.1759 H   0  0  0  0  0  0  0  0  0  0  0  0
   59.1979   35.0248   43.6664 H   0  0  0  0  0  0  0  0  0  0  0  0
   60.4757   34.8459   45.8008 H   0  0  0  0  0  0  0  0  0  0  0  0
   59.9570   33.0249   47.4241 H   0  0  0  0  0  0  0  0  0  0  0  0
   58.4525   29.7011   48.5363 H   0  0  0  0  0  0  0  0  0  0  0  0
   59.5918   29.7142   47.1422 H   0  0  0  0  0  0  0  0  0  0  0  0
   58.4214   31.8884   50.0250 H   0  0  0  0  0  0  0  0  0  0  0  0
   62.2151   34.3293   51.4388 H   0  0  0  0  0  0  0  0  0  0  0  0
   64.5767   34.5095   50.6576 H   0  0  0  0  0  0  0  0  0  0  0  0
   65.3386   33.1685   48.6935 H   0  0  0  0  0  0  0  0  0  0  0  0
   63.7235   31.6678   47.5178 H   0  0  0  0  0  0  0  0  0  0  0  0
   55.8676   27.5519   45.7588 H   0  0  0  0  0  0  0  0  0  0  0  0
  1  2  1  0
  2  3  2  0
  2  4  1  0
  4  5  1  0
  5  6  2  0
  6  7  1  0
  7  8  2  0
  8  9  1  0
  9 10  1  0
 10 11  1  0
 11 12  2  0
 11 13  1  0
 13 14  1  0
 14 15  2  0
 15 16  1  0
 16 17  2  0
 17 18  1  0
 18 19  2  0
 19 20  1  0
 20 21  1  0
 21 22  1  0
 22 23  2  0
 23 24  1  0
 24 25  2  0
 24 26  1  0
 26 27  1  0
 27 28  2  0
 28 29  1  0
 29 30  2  0
 30 31  1  0
 31 32  2  0
  9 33  2  0
 33  5  1  0
 19 14  1  0
 32 22  1  0
 31 26  1  0
  1 34  1  0
  1 35  1  0
  1 36  1  0
  6 37  1  0
  7 38  1  0
  8 39  1  0
 10 40  1  0
 15 41  1  0
 16 42  1  0
 17 43  1  0
 18 44  1  0
 21 45  1  0
 21 46  1  0
 23 47  1  0
 27 48  1  0
 28 49  1  0
 29 50  1  0
 30 51  1  0
 33 52  1  0
M  CHG  2   4  -1  13  -1
M  END
>  <UniqueID>  (85) 
76

>  <SMILES>  (85) 
CC(=O)[N-]c1cccc(NC(=O)[N-]c2ccccc2OCc2cc(=O)n3ccccc3n2)c1

>  <Energy>  (85) 
72.07898835361009

>  <Genealogy>  (85) 
CC(=O)[N-]c1cccc(NC(=O)[N-]c2ccccc2OCc2cc(=O)n3ccccc3n2)c1 (protonated)
CC(=O)[N-]c1cccc(NC(=O)[N-]c2ccccc2OCc2cc(=O)n3ccccc3n2)c1 (3D coordinates assigned)
CC(=O)[N-]c1cccc(NC(=O)[N-]c2ccccc2OCc2cc(=O)n3ccccc3n2)c1 (optimized conformer: 72.07898835361009 kcal/mol)

>  <smiles>  (85) 
CC(=O)Nc1cccc(NC(=O)Nc2ccccc2OCc2cc(=O)n3ccccc3n2)c1

>  <score_type>  (85) 
oracle

>  <origin>  (85) 
adg

>  <m_score__min__energy>  (85) 
-12.699999999999999

>  <m_primary>  (85) 
energy

$$$$
86:0
     RDKit          3D

 45 47  0  0  0  0  0  0  0  0999 V2000
   51.4790   32.8600   52.5850 H   0  0  0  0  0  0  0  0  0  0  0  0
   51.0270   32.9240   51.6460 N   0  0  0  0  0  0  0  0  0  0  0  0
   51.3160   31.9710   50.6280 C   0  0  0  0  0  0  0  0  0  0  0  0
   50.7910   32.0910   49.4880 O   0  0  0  0  0  0  0  0  0  0  0  0
   52.2190   30.8140   50.9210 C   0  0  0  0  0  0  0  0  0  0  0  0
   51.6405   29.8804   50.8610 H   0  0  0  0  0  0  0  0  0  0  0  0
   53.0343   30.8063   50.1826 H   0  0  0  0  0  0  0  0  0  0  0  0
   52.7840   30.9320   52.2270 O   0  0  0  0  0  0  0  0  0  0  0  0
   54.0890   30.5530   52.5870 C   0  0  0  0  0  0  0  0  0  0  0  0
   55.1980   30.7640   51.7440 C   0  0  0  0  0  0  0  0  0  0  0  0
   55.0526   31.2378   50.7620 H   0  0  0  0  0  0  0  0  0  0  0  0
   56.4900   30.3750   52.1450 C   0  0  0  0  0  0  0  0  0  0  0  0
   57.6570   30.6090   51.2570 C   0  0  0  0  0  0  0  0  0  0  0  0
   57.7860   31.8080   50.5360 C   0  0  0  0  0  0  0  0  0  0  0  0
   57.0157   32.5877   50.6293 H   0  0  0  0  0  0  0  0  0  0  0  0
   58.8570   32.0100   49.7240 N   0  0  0  0  0  0  0  0  0  0  0  0
   59.8360   31.0800   49.5620 C   0  0  0  0  0  0  0  0  0  0  0  0
   60.8290   31.3570   48.7630 N   0  0  0  0  0  0  0  0  0  0  0  0
   61.1860   30.6660   47.5560 C   0  0  0  0  0  0  0  0  0  0  0  0
   61.9660   31.2290   46.7430 O   0  0  0  0  0  0  0  0  0  0  0  0
   60.6200   29.3480   47.2020 C   0  0  0  0  0  0  0  0  0  0  0  0
   60.7886   28.4997   47.8817 H   0  0  0  0  0  0  0  0  0  0  0  0
   59.9090   29.1470   46.0840 C   0  0  0  0  0  0  0  0  0  0  0  0
   60.2959   29.5608   45.1411 H   0  0  0  0  0  0  0  0  0  0  0  0
   58.6300   28.3980   46.0470 C   0  0  0  0  0  0  0  0  0  0  0  0
   58.4950   27.1030   46.5860 C   0  0  0  0  0  0  0  0  0  0  0  0
   59.3641   26.6083   47.0442 H   0  0  0  0  0  0  0  0  0  0  0  0
   57.2630   26.4430   46.5420 C   0  0  0  0  0  0  0  0  0  0  0  0
   57.1688   25.4294   46.9589 H   0  0  0  0  0  0  0  0  0  0  0  0
   56.1510   27.0670   45.9700 C   0  0  0  0  0  0  0  0  0  0  0  0
   54.9300   26.4030   45.9300 O   0  0  0  0  0  0  0  0  0  0  0  0
   56.2690   28.3580   45.4470 C   0  0  0  0  0  0  0  0  0  0  0  0
   55.1650   28.9870   44.8820 O   0  0  0  0  0  0  0  0  0  0  0  0
   57.5000   29.0220   45.4890 C   0  0  0  0  0  0  0  0  0  0  0  0
   57.5845   30.0405   45.0822 H   0  0  0  0  0  0  0  0  0  0  0  0
   59.7540   29.8710   50.2800 C   0  0  0  0  0  0  0  0  0  0  0  0
   60.5455   29.1136   50.1805 H   0  0  0  0  0  0  0  0  0  0  0  0
   58.6630   29.6400   51.1180 C   0  0  0  0  0  0  0  0  0  0  0  0
   58.5906   28.6931   51.6731 H   0  0  0  0  0  0  0  0  0  0  0  0
   56.6590   29.7650   53.4000 C   0  0  0  0  0  0  0  0  0  0  0  0
   57.6627   29.4553   53.7264 H   0  0  0  0  0  0  0  0  0  0  0  0
   55.5620   29.5500   54.2340 C   0  0  0  0  0  0  0  0  0  0  0  0
   55.7050   29.0691   55.2129 H   0  0  0  0  0  0  0  0  0  0  0  0
   54.2830   29.9420   53.8330 C   0  0  0  0  0  0  0  0  0  0  0  0
   53.2010   29.7230   54.6770 O   0  0  0  0  0  0  0  0  0  0  0  0
  1  2  1  0
  2  3  1  0
  3  4  2  0
  3  5  1  0
  5  6  1  0
  5  7  1  0
  5  8  1  0
  8  9  1  0
  9 10  2  0
 10 11  1  0
 10 12  1  0
 12 13  1  0
 13 14  2  0
 14 15  1  0
 14 16  1  0
 16 17  1  0
 17 18  2  3
 18 19  1  0
 19 20  2  0
 19 21  1  0
 21 22  1  0
 21 23  2  0
 23 24  1  0
 23 25  1  0
 25 26  2  0
 26 27  1  0
 26 28  1  0
 28 29  1  0
 28 30  2  0
 30 31  1  0
 30 32  1  0
 32 33  1  0
 32 34  2  0
 34 35  1  0
 17 36  1  0
 36 37  1  0
 36 38  2  0
 38 39  1  0
 12 40  2  0
 40 41  1  0
 40 42  1  0
 42 43  1  0
 42 44  2  0
 44 45  1  0
 44  9  1  0
 38 13  1  0
 34 25  1  0
M  CHG  5   2  -1  16  -1  31  -1  33  -1  45  -1
M  END
>  <UniqueID>  (86) 
77

>  <SMILES>  (86) 
[NH-]C(=O)COc1cc(-c2ccc(=NC(=O)/C=C/c3ccc([O-])c([O-])c3)[n-]c2)ccc1[O-]

>  <Energy>  (86) 
64.06930118253943

>  <Genealogy>  (86) 
[NH-]C(=O)COc1cc(-c2ccc(=NC(=O)C=Cc3ccc([O-])c([O-])c3)[n-]c2)ccc1[O-] (protonated)
[NH-]C(=O)COc1cc(-c2ccc(=NC(=O)/C=C/c3ccc([O-])c([O-])c3)[n-]c2)ccc1[O-] (cis-trans isomerization)
[NH-]C(=O)COc1cc(-c2ccc(=NC(=O)/C=C/c3ccc([O-])c([O-])c3)[n-]c2)ccc1[O-] (3D coordinates assigned)
[NH-]C(=O)COc1cc(-c2ccc(=NC(=O)/C=C/c3ccc([O-])c([O-])c3)[n-]c2)ccc1[O-] (optimized conformer: 64.06930118253943 kcal/mol)

>  <smiles>  (86) 
NC(=O)COc1cc(-c2ccc(=NC(=O)C=Cc3ccc(O)c(O)c3)[nH]c2)ccc1O

>  <score_type>  (86) 
oracle

>  <origin>  (86) 
adg

>  <m_score__min__energy>  (86) 
-21.010000000000002

>  <m_primary>  (86) 
energy

$$$$
87:0
     RDKit          3D

 40 41  0  0  0  0  0  0  0  0999 V2000
   60.3200   34.1530   48.5810 C   0  0  0  0  0  0  0  0  0  0  0  0
   59.4200   33.6630   47.4760 C   0  0  0  0  0  0  0  0  0  0  0  0
   58.9120   34.6040   46.5620 C   0  0  0  0  0  0  0  0  0  0  0  0
   58.0420   34.2120   45.5440 C   0  0  0  0  0  0  0  0  0  0  0  0
   57.6680   32.8770   45.4220 C   0  0  0  0  0  0  0  0  0  0  0  0
   58.1720   31.9240   46.3070 C   0  0  0  0  0  0  0  0  0  0  0  0
   59.0650   32.2920   47.3330 C   0  0  0  0  0  0  0  0  0  0  0  0
   59.6000   31.2220   48.2130 C   0  0  0  0  0  0  0  0  0  0  0  0
   60.2570   30.2680   47.7100 O   0  0  0  0  0  0  0  0  0  0  0  0
   59.4240   31.2850   49.6300 N   0  0  0  0  0  0  0  0  0  0  0  0
   58.1660   30.9700   50.2950 C   0  0  0  0  0  0  0  0  0  0  0  0
   57.8460   32.0220   51.3620 C   0  0  0  0  0  0  0  0  0  0  0  0
   56.5700   31.7000   52.1480 C   0  0  0  0  0  0  0  0  0  0  0  0
   56.0840   30.3690   51.7960 N   0  0  0  0  0  0  0  0  0  0  0  0
   54.8250   29.8160   52.1990 C   0  0  0  0  0  0  0  0  0  0  0  0
   54.7850   28.6110   52.5630 O   0  0  0  0  0  0  0  0  0  0  0  0
   53.5720   30.5950   52.1600 C   0  0  0  0  0  0  0  0  0  0  0  0
   53.1320   31.1490   50.9460 C   0  0  0  0  0  0  0  0  0  0  0  0
   51.9410   31.8800   50.8930 C   0  0  0  0  0  0  0  0  0  0  0  0
   51.1720   32.0500   52.0490 C   0  0  0  0  0  0  0  0  0  0  0  0
   49.9880   32.7770   51.9960 O   0  0  0  0  0  0  0  0  0  0  0  0
   51.5920   31.4840   53.2560 C   0  0  0  0  0  0  0  0  0  0  0  0
   52.7840   30.7540   53.3120 C   0  0  0  0  0  0  0  0  0  0  0  0
   59.8711   33.9086   49.5551 H   0  0  0  0  0  0  0  0  0  0  0  0
   61.3024   33.6652   48.4973 H   0  0  0  0  0  0  0  0  0  0  0  0
   60.4434   35.2428   48.4973 H   0  0  0  0  0  0  0  0  0  0  0  0
   59.2039   35.6608   46.6509 H   0  0  0  0  0  0  0  0  0  0  0  0
   57.6513   34.9589   44.8372 H   0  0  0  0  0  0  0  0  0  0  0  0
   56.9731   32.5726   44.6255 H   0  0  0  0  0  0  0  0  0  0  0  0
   57.8685   30.8718   46.2027 H   0  0  0  0  0  0  0  0  0  0  0  0
   57.3570   30.9522   49.5499 H   0  0  0  0  0  0  0  0  0  0  0  0
   58.2560   29.9868   50.7800 H   0  0  0  0  0  0  0  0  0  0  0  0
   58.6889   32.0759   52.0667 H   0  0  0  0  0  0  0  0  0  0  0  0
   57.6847   32.9798   50.8456 H   0  0  0  0  0  0  0  0  0  0  0  0
   56.7886   31.7339   53.2255 H   0  0  0  0  0  0  0  0  0  0  0  0
   55.7974   32.4421   51.8983 H   0  0  0  0  0  0  0  0  0  0  0  0
   53.7277   31.0069   50.0322 H   0  0  0  0  0  0  0  0  0  0  0  0
   51.6088   32.3215   49.9418 H   0  0  0  0  0  0  0  0  0  0  0  0
   50.9840   31.6128   54.1636 H   0  0  0  0  0  0  0  0  0  0  0  0
   53.1056   30.3026   54.2621 H   0  0  0  0  0  0  0  0  0  0  0  0
  1  2  1  0
  2  3  2  0
  3  4  1  0
  4  5  2  0
  5  6  1  0
  6  7  2  0
  7  8  1  0
  8  9  2  0
  8 10  1  0
 10 11  1  0
 11 12  1  0
 12 13  1  0
 13 14  1  0
 14 15  1  0
 15 16  2  0
 15 17  1  0
 17 18  2  0
 18 19  1  0
 19 20  2  0
 20 21  1  0
 20 22  1  0
 22 23  2  0
  7  2  1  0
 23 17  1  0
  1 24  1  0
  1 25  1  0
  1 26  1  0
  3 27  1  0
  4 28  1  0
  5 29  1  0
  6 30  1  0
 11 31  1  0
 11 32  1  0
 12 33  1  0
 12 34  1  0
 13 35  1  0
 13 36  1  0
 18 37  1  0
 19 38  1  0
 22 39  1  0
 23 40  1  0
M  CHG  3  10  -1  14  -1  21  -1
M  END
>  <UniqueID>  (87) 
78

>  <SMILES>  (87) 
Cc1ccccc1C(=O)[N-]CCC[N-]C(=O)c1ccc([O-])cc1

>  <Energy>  (87) 
42.281157369302285

>  <Genealogy>  (87) 
Cc1ccccc1C(=O)[N-]CCC[N-]C(=O)c1ccc([O-])cc1 (protonated)
Cc1ccccc1C(=O)[N-]CCC[N-]C(=O)c1ccc([O-])cc1 (3D coordinates assigned)
Cc1ccccc1C(=O)[N-]CCC[N-]C(=O)c1ccc([O-])cc1 (optimized conformer: 42.281157369302285 kcal/mol)

>  <smiles>  (87) 
Cc1ccccc1C(=O)NCCCNC(=O)c1ccc(O)cc1

>  <score_type>  (87) 
oracle

>  <origin>  (87) 
adg

>  <m_score__min__energy>  (87) 
-13.26

>  <m_primary>  (87) 
energy

$$$$
88:0
     RDKit          3D

 49 51  0  0  0  0  0  0  0  0999 V2000
   58.3330   27.1830   43.8240 C   0  0  0  0  0  0  0  0  0  0  0  0
   58.1180   27.9640   44.8890 C   0  0  0  0  0  0  0  0  0  0  0  0
   56.7540   28.4580   45.1940 C   0  0  0  0  0  0  0  0  0  0  0  0
   55.8900   27.6430   45.6110 O   0  0  0  0  0  0  0  0  0  0  0  0
   56.3960   29.8430   45.0840 N   0  0  0  0  0  0  0  0  0  0  0  0
   56.9560   30.7990   44.1680 C   0  0  0  0  0  0  0  0  0  0  0  0
   56.7960   30.6540   42.7780 C   0  0  0  0  0  0  0  0  0  0  0  0
   57.3550   31.5880   41.9020 C   0  0  0  0  0  0  0  0  0  0  0  0
   58.0740   32.6740   42.4010 C   0  0  0  0  0  0  0  0  0  0  0  0
   58.2220   32.8400   43.7800 C   0  0  0  0  0  0  0  0  0  0  0  0
   57.6460   31.9210   44.6700 C   0  0  0  0  0  0  0  0  0  0  0  0
   57.7760   32.1530   46.1190 C   0  0  0  0  0  0  0  0  0  0  0  0
   58.0980   31.1920   46.8670 O   0  0  0  0  0  0  0  0  0  0  0  0
   57.5920   33.4530   46.6950 N   0  0  0  0  0  0  0  0  0  0  0  0
   58.5360   34.5650   46.5950 C   0  0  0  0  0  0  0  0  0  0  0  0
   59.8940   34.1690   47.1130 C   0  0  0  0  0  0  0  0  0  0  0  0
   60.9280   33.8570   46.2160 C   0  0  0  0  0  0  0  0  0  0  0  0
   62.2000   33.5270   46.6930 C   0  0  0  0  0  0  0  0  0  0  0  0
   62.4480   33.5030   48.0700 C   0  0  0  0  0  0  0  0  0  0  0  0
   64.0460   33.0980   48.6670 Cl  0  0  0  0  0  0  0  0  0  0  0  0
   61.4200   33.8010   48.9700 C   0  0  0  0  0  0  0  0  0  0  0  0
   60.1460   34.1290   48.4950 C   0  0  0  0  0  0  0  0  0  0  0  0
   59.2250   28.3820   45.7140 N   0  0  0  0  0  0  0  0  0  0  0  0
   60.0180   29.5660   45.3300 C   0  0  0  0  0  0  0  0  0  0  0  0
   61.0630   29.9410   46.3920 C   0  0  0  0  0  0  0  0  0  0  0  0
   60.4740   29.8360   47.7720 C   0  0  0  0  0  0  0  0  0  0  0  0
   60.7290   30.6870   48.6110 O   0  0  0  0  0  0  0  0  0  0  0  0
   59.5980   28.6680   48.1330 C   0  0  0  0  0  0  0  0  0  0  0  0
   59.5090   27.6730   46.9720 C   0  0  0  0  0  0  0  0  0  0  0  0
   59.3479   26.8202   43.6039 H   0  0  0  0  0  0  0  0  0  0  0  0
   57.4949   26.9038   43.1686 H   0  0  0  0  0  0  0  0  0  0  0  0
   56.2279   29.8009   42.3786 H   0  0  0  0  0  0  0  0  0  0  0  0
   57.2277   31.4665   40.8162 H   0  0  0  0  0  0  0  0  0  0  0  0
   58.5247   33.4000   41.7083 H   0  0  0  0  0  0  0  0  0  0  0  0
   58.7930   33.6955   44.1701 H   0  0  0  0  0  0  0  0  0  0  0  0
   58.6269   34.8659   45.5409 H   0  0  0  0  0  0  0  0  0  0  0  0
   58.1590   35.4004   47.2033 H   0  0  0  0  0  0  0  0  0  0  0  0
   60.7364   33.8723   45.1329 H   0  0  0  0  0  0  0  0  0  0  0  0
   63.0068   33.2860   45.9852 H   0  0  0  0  0  0  0  0  0  0  0  0
   61.6135   33.7774   50.0526 H   0  0  0  0  0  0  0  0  0  0  0  0
   59.3381   34.3566   49.2060 H   0  0  0  0  0  0  0  0  0  0  0  0
   60.5369   29.3519   44.3840 H   0  0  0  0  0  0  0  0  0  0  0  0
   59.3254   30.4143   45.2270 H   0  0  0  0  0  0  0  0  0  0  0  0
   61.9214   29.2578   46.3120 H   0  0  0  0  0  0  0  0  0  0  0  0
   61.3863   30.9785   46.2216 H   0  0  0  0  0  0  0  0  0  0  0  0
   60.0203   28.1591   49.0120 H   0  0  0  0  0  0  0  0  0  0  0  0
   58.5873   29.0415   48.3544 H   0  0  0  0  0  0  0  0  0  0  0  0
   60.4651   27.1371   46.8789 H   0  0  0  0  0  0  0  0  0  0  0  0
   58.6960   26.9598   47.1728 H   0  0  0  0  0  0  0  0  0  0  0  0
  1  2  2  0
  2  3  1  0
  3  4  2  0
  3  5  1  0
  5  6  1  0
  6  7  2  0
  7  8  1  0
  8  9  2  0
  9 10  1  0
 10 11  2  0
 11 12  1  0
 12 13  2  0
 12 14  1  0
 14 15  1  0
 15 16  1  0
 16 17  2  0
 17 18  1  0
 18 19  2  0
 19 20  1  0
 19 21  1  0
 21 22  2  0
  2 23  1  0
 23 24  1  0
 24 25  1  0
 25 26  1  0
 26 27  2  0
 26 28  1  0
 28 29  1  0
 11  6  1  0
 22 16  1  0
 29 23  1  0
  1 30  1  0
  1 31  1  0
  7 32  1  0
  8 33  1  0
  9 34  1  0
 10 35  1  0
 15 36  1  0
 15 37  1  0
 17 38  1  0
 18 39  1  0
 21 40  1  0
 22 41  1  0
 24 42  1  0
 24 43  1  0
 25 44  1  0
 25 45  1  0
 28 46  1  0
 28 47  1  0
 29 48  1  0
 29 49  1  0
M  CHG  2   5  -1  14  -1
M  END
>  <UniqueID>  (88) 
79

>  <SMILES>  (88) 
C=C(C(=O)[N-]c1ccccc1C(=O)[N-]Cc1ccc(Cl)cc1)N1CCC(=O)CC1

>  <Energy>  (88) 
61.56525746959586

>  <Genealogy>  (88) 
C=C(C(=O)[N-]c1ccccc1C(=O)[N-]Cc1ccc(Cl)cc1)N1CCC(=O)CC1 (protonated)
C=C(C(=O)[N-]c1ccccc1C(=O)[N-]Cc1ccc(Cl)cc1)N1CCC(=O)CC1 (3D coordinates assigned)
C=C(C(=O)[N-]c1ccccc1C(=O)[N-]Cc1ccc(Cl)cc1)N1CCC(=O)CC1 (nonaromatic ring conformer: 61.56525746959586 kcal/mol)

>  <smiles>  (88) 
C=C(C(=O)Nc1ccccc1C(=O)NCc1ccc(Cl)cc1)N1CCC(=O)CC1

>  <score_type>  (88) 
oracle

>  <origin>  (88) 
adg

>  <m_score__min__energy>  (88) 
-14.26

>  <m_primary>  (88) 
energy

$$$$
89:0
     RDKit          3D

 55 58  0  0  0  0  0  0  0  0999 V2000
   59.0180   30.4390   45.4310 C   0  0  0  0  0  0  0  0  0  0  0  0
   59.0670   29.7190   46.5630 C   0  0  0  0  0  0  0  0  0  0  0  0
   58.3750   28.5270   46.8440 C   0  0  0  0  0  0  0  0  0  0  0  0
   57.6460   27.7170   46.0530 C   0  0  0  0  0  0  0  0  0  0  0  0
   57.1780   26.3660   46.4020 C   0  0  0  0  0  0  0  0  0  0  0  0
   57.9560   25.3950   46.9180 N   0  0  0  0  0  0  0  0  0  0  0  0
   57.0740   24.4140   47.2090 C   0  0  0  0  0  0  0  0  0  0  0  0
   57.4250   23.3130   47.7080 O   0  0  0  0  0  0  0  0  0  0  0  0
   55.7860   24.7090   46.9330 N   0  0  0  0  0  0  0  0  0  0  0  0
   55.8700   25.9530   46.4340 C   0  0  0  0  0  0  0  0  0  0  0  0
   54.7720   26.6960   46.0100 O   0  0  0  0  0  0  0  0  0  0  0  0
   58.5940   28.2580   48.1850 C   0  0  0  0  0  0  0  0  0  0  0  0
   59.4350   29.2430   48.6590 C   0  0  0  0  0  0  0  0  0  0  0  0
   59.8830   29.3490   50.0590 C   0  0  0  0  0  0  0  0  0  0  0  0
   60.6150   28.4430   50.5400 O   0  0  0  0  0  0  0  0  0  0  0  0
   59.4740   30.4530   50.8830 N   0  0  0  0  0  0  0  0  0  0  0  0
   60.3830   30.9550   51.9200 C   0  0  0  0  0  0  0  0  0  0  0  0
   60.1780   32.4650   52.1810 C   0  0  0  0  0  0  0  0  0  0  0  0
   58.8690   32.9750   51.7070 N   0  0  0  0  0  0  0  0  0  0  0  0
   58.5240   34.2230   52.4050 C   0  0  0  0  0  0  0  0  0  0  0  0
   57.8020   31.9760   51.8840 C   0  0  0  0  0  0  0  0  0  0  0  0
   58.0490   30.8170   50.9200 C   0  0  0  0  0  0  0  0  0  0  0  0
   59.7360   30.1200   47.6750 N   0  0  0  0  0  0  0  0  0  0  0  0
   60.6300   31.2380   47.7980 C   0  0  0  0  0  0  0  0  0  0  0  0
   61.7340   31.2240   47.1910 O   0  0  0  0  0  0  0  0  0  0  0  0
   60.2870   32.3370   48.6430 N   0  0  0  0  0  0  0  0  0  0  0  0
   60.2690   33.7190   48.1760 C   0  0  0  0  0  0  0  0  0  0  0  0
   59.2620   33.8710   47.0680 C   0  0  0  0  0  0  0  0  0  0  0  0
   59.5890   34.5900   45.9050 C   0  0  0  0  0  0  0  0  0  0  0  0
   58.6500   34.7340   44.8780 C   0  0  0  0  0  0  0  0  0  0  0  0
   57.3790   34.1690   45.0070 C   0  0  0  0  0  0  0  0  0  0  0  0
   57.0400   33.4680   46.1660 C   0  0  0  0  0  0  0  0  0  0  0  0
   57.9740   33.3240   47.1960 C   0  0  0  0  0  0  0  0  0  0  0  0
   59.6129   31.3596   45.3385 H   0  0  0  0  0  0  0  0  0  0  0  0
   58.3829   30.1083   44.5959 H   0  0  0  0  0  0  0  0  0  0  0  0
   57.3763   28.0991   45.0574 H   0  0  0  0  0  0  0  0  0  0  0  0
   58.1769   27.4192   48.7616 H   0  0  0  0  0  0  0  0  0  0  0  0
   60.1972   30.4038   52.8536 H   0  0  0  0  0  0  0  0  0  0  0  0
   61.4155   30.8053   51.5714 H   0  0  0  0  0  0  0  0  0  0  0  0
   60.2499   32.6440   53.2640 H   0  0  0  0  0  0  0  0  0  0  0  0
   60.9567   32.9994   51.6171 H   0  0  0  0  0  0  0  0  0  0  0  0
   58.5691   34.0598   53.4919 H   0  0  0  0  0  0  0  0  0  0  0  0
   59.2381   35.0106   52.1225 H   0  0  0  0  0  0  0  0  0  0  0  0
   57.5068   34.5319   52.1225 H   0  0  0  0  0  0  0  0  0  0  0  0
   57.8113   31.6044   52.9193 H   0  0  0  0  0  0  0  0  0  0  0  0
   56.8233   32.4332   51.6763 H   0  0  0  0  0  0  0  0  0  0  0  0
   57.4640   29.9454   51.2488 H   0  0  0  0  0  0  0  0  0  0  0  0
   57.7423   31.1304   49.9112 H   0  0  0  0  0  0  0  0  0  0  0  0
   59.9968   34.3825   49.0101 H   0  0  0  0  0  0  0  0  0  0  0  0
   61.2668   33.9872   47.7985 H   0  0  0  0  0  0  0  0  0  0  0  0
   60.5870   35.0411   45.8021 H   0  0  0  0  0  0  0  0  0  0  0  0
   58.9129   35.2929   43.9677 H   0  0  0  0  0  0  0  0  0  0  0  0
   56.6447   34.2764   44.1950 H   0  0  0  0  0  0  0  0  0  0  0  0
   56.0368   33.0286   46.2687 H   0  0  0  0  0  0  0  0  0  0  0  0
   57.6993   32.7796   48.1115 H   0  0  0  0  0  0  0  0  0  0  0  0
  1  2  2  0
  2  3  1  0
  3  4  2  3
  4  5  1  0
  5  6  1  0
  6  7  1  0
  7  8  2  0
  7  9  1  0
  9 10  1  0
 10 11  1  0
  3 12  1  0
 12 13  2  0
 13 14  1  0
 14 15  2  0
 14 16  1  0
 16 17  1  0
 17 18  1  0
 18 19  1  0
 19 20  1  0
 19 21  1  0
 21 22  1  0
 13 23  1  0
 23 24  1  0
 24 25  2  0
 24 26  1  0
 26 27  1  0
 27 28  1  0
 28 29  2  0
 29 30  1  0
 30 31  2  0
 31 32  1  0
 32 33  2  0
 23  2  1  0
 33 28  1  0
 10  5  2  0
 22 16  1  0
  1 34  1  0
  1 35  1  0
  4 36  1  0
 12 37  1  0
 17 38  1  0
 17 39  1  0
 18 40  1  0
 18 41  1  0
 20 42  1  0
 20 43  1  0
 20 44  1  0
 21 45  1  0
 21 46  1  0
 22 47  1  0
 22 48  1  0
 27 49  1  0
 27 50  1  0
 29 51  1  0
 30 52  1  0
 31 53  1  0
 32 54  1  0
 33 55  1  0
M  CHG  4   6  -1   9  -1  11  -1  26  -1
M  END
>  <UniqueID>  (89) 
80

>  <SMILES>  (89) 
C=c1c(=Cc2[n-]c(=O)[n-]c2[O-])cc(C(=O)N2CCN(C)CC2)n1C(=O)[N-]Cc1ccccc1

>  <Energy>  (89) 
138.04343756581926

>  <Genealogy>  (89) 
C=c1c(=Cc2[n-]c(=O)[n-]c2[O-])cc(C(=O)N2CCN(C)CC2)n1C(=O)[N-]Cc1ccccc1 (protonated)
C=c1c(=Cc2[n-]c(=O)[n-]c2[O-])cc(C(=O)N2CCN(C)CC2)n1C(=O)[N-]Cc1ccccc1 (3D coordinates assigned)
C=c1c(=Cc2[n-]c(=O)[n-]c2[O-])cc(C(=O)N2CCN(C)CC2)n1C(=O)[N-]Cc1ccccc1 (nonaromatic ring conformer: 138.04343756581926 kcal/mol)

>  <smiles>  (89) 
C=c1c(=Cc2[nH]c(=O)[nH]c2O)cc(C(=O)N2CCN(C)CC2)n1C(=O)NCc1ccccc1

>  <score_type>  (89) 
oracle

>  <origin>  (89) 
adg

>  <m_score__min__energy>  (89) 
-17.66

>  <m_primary>  (89) 
energy

$$$$
90:0
     RDKit          3D

 26 27  0  0  0  0  0  0  0  0999 V2000
   54.7380   27.4870   46.3390 H   0  0  0  0  0  0  0  0  0  0  0  0
   54.9840   26.5590   46.0160 O   0  0  0  0  0  0  0  0  0  0  0  0
   56.3070   26.1180   46.0000 C   0  0  0  0  0  0  0  0  0  0  0  0
   56.6000   24.7480   45.9900 C   0  0  0  0  0  0  0  0  0  0  0  0
   55.7838   24.0105   45.9948 H   0  0  0  0  0  0  0  0  0  0  0  0
   57.9270   24.3200   45.9740 C   0  0  0  0  0  0  0  0  0  0  0  0
   58.1648   23.2460   45.9662 H   0  0  0  0  0  0  0  0  0  0  0  0
   58.9500   25.2690   45.9680 C   0  0  0  0  0  0  0  0  0  0  0  0
   60.0009   24.9442   45.9560 H   0  0  0  0  0  0  0  0  0  0  0  0
   58.6490   26.5940   45.9770 N   0  0  0  0  0  0  0  0  0  0  0  0
   57.3620   27.0440   45.9930 C   0  0  0  0  0  0  0  0  0  0  0  0
   57.0930   28.3190   45.9990 N   0  0  0  0  0  0  0  0  0  0  0  0
   56.3760   29.0600   44.9960 C   0  0  0  0  0  0  0  0  0  0  0  0
   55.1440   29.2950   45.1170 O   0  0  0  0  0  0  0  0  0  0  0  0
   57.0610   29.5400   43.8370 N   0  0  0  0  0  0  0  0  0  0  0  0
   57.1120   30.9480   43.4560 C   0  0  0  0  0  0  0  0  0  0  0  0
   57.7770   31.0642   42.5875 H   0  0  0  0  0  0  0  0  0  0  0  0
   56.0959   31.2853   43.2033 H   0  0  0  0  0  0  0  0  0  0  0  0
   57.6300   31.7780   44.5870 C   0  0  0  0  0  0  0  0  0  0  0  0
   58.7190   31.2590   45.7600 S   0  0  0  0  0  0  0  0  0  0  0  0
   58.7610   32.7040   46.6190 C   0  0  0  0  0  0  0  0  0  0  0  0
   59.3555   32.8979   47.5240 H   0  0  0  0  0  0  0  0  0  0  0  0
   57.9170   33.6110   45.9910 C   0  0  0  0  0  0  0  0  0  0  0  0
   57.7611   34.6379   46.3531 H   0  0  0  0  0  0  0  0  0  0  0  0
   57.2840   33.0960   44.8550 C   0  0  0  0  0  0  0  0  0  0  0  0
   56.5832   33.6761   44.2366 H   0  0  0  0  0  0  0  0  0  0  0  0
  1  2  1  0
  2  3  1  0
  3  4  2  0
  4  5  1  0
  4  6  1  0
  6  7  1  0
  6  8  2  0
  8  9  1  0
  8 10  1  0
 10 11  1  0
 11 12  2  0
 12 13  1  0
 13 14  2  0
 13 15  1  0
 15 16  1  0
 16 17  1  0
 16 18  1  0
 16 19  1  0
 19 20  1  0
 20 21  1  0
 21 22  1  0
 21 23  2  0
 23 24  1  0
 23 25  1  0
 25 26  1  0
 11  3  1  0
 25 19  2  0
M  CHG  2  10  -1  15  -1
M  END
>  <UniqueID>  (90) 
81

>  <SMILES>  (90) 
O=C(/N=c1\[n-]cccc1O)[N-]Cc1cccs1

>  <Energy>  (90) 
51.529169122206696

>  <Genealogy>  (90) 
O=C(N=c1[n-]cccc1O)[N-]Cc1cccs1 (protonated)
O=C(/N=c1\[n-]cccc1O)[N-]Cc1cccs1 (cis-trans isomerization)
O=C(/N=c1\[n-]cccc1O)[N-]Cc1cccs1 (3D coordinates assigned)
O=C(/N=c1\[n-]cccc1O)[N-]Cc1cccs1 (optimized conformer: 51.529169122206696 kcal/mol)

>  <smiles>  (90) 
O=C(N=c1[nH]cccc1O)NCc1cccs1

>  <score_type>  (90) 
oracle

>  <origin>  (90) 
adg

>  <m_score__min__energy>  (90) 
-10.130000000000001

>  <m_primary>  (90) 
energy

$$$$
91:0
     RDKit          3D

 77 82  0  0  0  0  0  0  0  0999 V2000
   61.1920   29.3110   51.2400 O   0  0  0  0  0  0  0  0  0  0  0  0
   60.3600   30.0820   50.6860 C   0  0  0  0  0  0  0  0  0  0  0  0
   60.0060   29.8690   49.3160 N   0  0  0  0  0  0  0  0  0  0  0  0
   60.6910   30.5130   48.2060 C   0  0  0  0  0  0  0  0  0  0  0  0
   59.6860   30.8920   47.1530 C   0  0  0  0  0  0  0  0  0  0  0  0
   58.8380   29.9050   46.6210 C   0  0  0  0  0  0  0  0  0  0  0  0
   57.8860   30.2340   45.6480 C   0  0  0  0  0  0  0  0  0  0  0  0
   56.9760   29.2010   45.1300 C   0  0  0  0  0  0  0  0  0  0  0  0
   55.7390   29.4230   45.1550 O   0  0  0  0  0  0  0  0  0  0  0  0
   57.4830   27.9800   44.5490 N   0  0  0  0  0  0  0  0  0  0  0  0
   57.6430   27.9330   43.0810 C   0  0  0  0  0  0  0  0  0  0  0  0
   58.1660   26.5830   42.5760 C   0  0  0  0  0  0  0  0  0  0  0  0
   57.3990   25.4310   43.2190 C   0  0  0  0  0  0  0  0  0  0  0  0
   57.5310   25.5090   44.7140 C   0  0  0  0  0  0  0  0  0  0  0  0
   57.5720   24.3350   45.4820 C   0  0  0  0  0  0  0  0  0  0  0  0
   57.7180   24.4080   46.8690 C   0  0  0  0  0  0  0  0  0  0  0  0
   57.8270   25.6520   47.4950 C   0  0  0  0  0  0  0  0  0  0  0  0
   57.7640   26.8250   46.7400 C   0  0  0  0  0  0  0  0  0  0  0  0
   57.5770   26.7690   45.3440 C   0  0  0  0  0  0  0  0  0  0  0  0
   57.7820   31.5550   45.1960 C   0  0  0  0  0  0  0  0  0  0  0  0
   58.6400   32.5360   45.6940 C   0  0  0  0  0  0  0  0  0  0  0  0
   59.5970   32.2150   46.6680 C   0  0  0  0  0  0  0  0  0  0  0  0
   60.4600   33.2510   47.1650 N   0  0  0  0  0  0  0  0  0  0  0  0
   59.8940   34.3570   47.9470 C   0  0  0  0  0  0  0  0  0  0  0  0
   60.4240   34.2960   49.3850 C   0  0  0  0  0  0  0  0  0  0  0  0
   61.8340   33.8840   49.4200 N   0  0  0  0  0  0  0  0  0  0  0  0
   62.3740   33.3790   50.6520 C   0  0  0  0  0  0  0  0  0  0  0  0
   62.1070   33.9690   51.7350 O   0  0  0  0  0  0  0  0  0  0  0  0
   63.1280   32.0800   50.6960 C   0  0  0  0  0  0  0  0  0  0  0  0
   64.6060   32.3150   50.7820 C   0  0  0  0  0  0  0  0  0  0  0  0
   65.1170   33.5830   51.1000 C   0  0  0  0  0  0  0  0  0  0  0  0
   66.5010   33.7650   51.1600 C   0  0  0  0  0  0  0  0  0  0  0  0
   67.3590   32.6910   50.9070 C   0  0  0  0  0  0  0  0  0  0  0  0
   66.8150   31.4430   50.6040 C   0  0  0  0  0  0  0  0  0  0  0  0
   65.4640   31.2840   50.5480 N   0  0  0  0  0  0  0  0  0  0  0  0
   62.6250   33.8980   48.1810 C   0  0  0  0  0  0  0  0  0  0  0  0
   61.9180   33.0530   47.1170 C   0  0  0  0  0  0  0  0  0  0  0  0
   59.7540   31.1940   51.4580 C   0  0  0  0  0  0  0  0  0  0  0  0
   60.2740   31.5350   52.7210 C   0  0  0  0  0  0  0  0  0  0  0  0
   59.7170   32.5790   53.4650 C   0  0  0  0  0  0  0  0  0  0  0  0
   58.6350   33.3010   52.9570 C   0  0  0  0  0  0  0  0  0  0  0  0
   58.1100   32.9810   51.7050 C   0  0  0  0  0  0  0  0  0  0  0  0
   58.6570   31.9320   50.9560 C   0  0  0  0  0  0  0  0  0  0  0  0
   58.1270   31.6660   49.7340 F   0  0  0  0  0  0  0  0  0  0  0  0
   61.2044   31.4168   48.5659 H   0  0  0  0  0  0  0  0  0  0  0  0
   61.4297   29.8198   47.7773 H   0  0  0  0  0  0  0  0  0  0  0  0
   58.9229   28.8659   46.9718 H   0  0  0  0  0  0  0  0  0  0  0  0
   56.6650   28.1258   42.6159 H   0  0  0  0  0  0  0  0  0  0  0  0
   58.3866   28.6960   42.8075 H   0  0  0  0  0  0  0  0  0  0  0  0
   58.0424   26.5338   41.4841 H   0  0  0  0  0  0  0  0  0  0  0  0
   59.2288   26.4932   42.8450 H   0  0  0  0  0  0  0  0  0  0  0  0
   56.3368   25.4985   42.9414 H   0  0  0  0  0  0  0  0  0  0  0  0
   57.8123   24.4749   42.8654 H   0  0  0  0  0  0  0  0  0  0  0  0
   57.4889   23.3546   44.9901 H   0  0  0  0  0  0  0  0  0  0  0  0
   57.7472   23.4861   47.4684 H   0  0  0  0  0  0  0  0  0  0  0  0
   57.9628   25.7077   48.5852 H   0  0  0  0  0  0  0  0  0  0  0  0
   57.8611   27.8006   47.2387 H   0  0  0  0  0  0  0  0  0  0  0  0
   57.0219   31.8201   44.4463 H   0  0  0  0  0  0  0  0  0  0  0  0
   58.5655   33.5679   45.3204 H   0  0  0  0  0  0  0  0  0  0  0  0
   60.1848   35.3145   47.4902 H   0  0  0  0  0  0  0  0  0  0  0  0
   58.7974   34.2719   47.9585 H   0  0  0  0  0  0  0  0  0  0  0  0
   60.3306   35.2916   49.8433 H   0  0  0  0  0  0  0  0  0  0  0  0
   59.8326   33.5533   49.9406 H   0  0  0  0  0  0  0  0  0  0  0  0
   62.8038   31.5064   51.5768 H   0  0  0  0  0  0  0  0  0  0  0  0
   62.9167   31.5226   49.7716 H   0  0  0  0  0  0  0  0  0  0  0  0
   64.4360   34.4235   51.2996 H   0  0  0  0  0  0  0  0  0  0  0  0
   66.9154   34.7537   51.4064 H   0  0  0  0  0  0  0  0  0  0  0  0
   68.4497   32.8283   50.9464 H   0  0  0  0  0  0  0  0  0  0  0  0
   67.4778   30.5868   50.4102 H   0  0  0  0  0  0  0  0  0  0  0  0
   62.7252   34.9326   47.8211 H   0  0  0  0  0  0  0  0  0  0  0  0
   63.6237   33.4810   48.3777 H   0  0  0  0  0  0  0  0  0  0  0  0
   62.2875   33.3446   46.1228 H   0  0  0  0  0  0  0  0  0  0  0  0
   62.1330   31.9923   47.3138 H   0  0  0  0  0  0  0  0  0  0  0  0
   61.1283   30.9735   53.1270 H   0  0  0  0  0  0  0  0  0  0  0  0
   60.1315   32.8322   54.4520 H   0  0  0  0  0  0  0  0  0  0  0  0
   58.1969   34.1217   53.5439 H   0  0  0  0  0  0  0  0  0  0  0  0
   57.2620   33.5556   51.3040 H   0  0  0  0  0  0  0  0  0  0  0  0
  1  2  2  0
  2  3  1  0
  3  4  1  0
  4  5  1  0
  5  6  2  0
  6  7  1  0
  7  8  1  0
  8  9  2  0
  8 10  1  0
 10 11  1  0
 11 12  1  0
 12 13  1  0
 13 14  1  0
 14 15  2  0
 15 16  1  0
 16 17  2  0
 17 18  1  0
 18 19  2  0
  7 20  2  0
 20 21  1  0
 21 22  2  0
 22 23  1  0
 23 24  1  0
 24 25  1  0
 25 26  1  0
 26 27  1  0
 27 28  2  0
 27 29  1  0
 29 30  1  0
 30 31  2  0
 31 32  1  0
 32 33  2  0
 33 34  1  0
 34 35  2  0
 26 36  1  0
 36 37  1  0
  2 38  1  0
 38 39  2  0
 39 40  1  0
 40 41  2  0
 41 42  1  0
 42 43  2  0
 43 44  1  0
 22  5  1  0
 37 23  1  0
 43 38  1  0
 19 10  1  0
 35 30  1  0
 19 14  1  0
  4 45  1  0
  4 46  1  0
  6 47  1  0
 11 48  1  0
 11 49  1  0
 12 50  1  0
 12 51  1  0
 13 52  1  0
 13 53  1  0
 15 54  1  0
 16 55  1  0
 17 56  1  0
 18 57  1  0
 20 58  1  0
 21 59  1  0
 24 60  1  0
 24 61  1  0
 25 62  1  0
 25 63  1  0
 29 64  1  0
 29 65  1  0
 31 66  1  0
 32 67  1  0
 33 68  1  0
 34 69  1  0
 36 70  1  0
 36 71  1  0
 37 72  1  0
 37 73  1  0
 39 74  1  0
 40 75  1  0
 41 76  1  0
 42 77  1  0
M  CHG  1   3  -1
M  END
>  <UniqueID>  (91) 
82

>  <SMILES>  (91) 
O=C([N-]Cc1cc(C(=O)N2CCCc3ccccc32)ccc1N1CCN(C(=O)Cc2ccccn2)CC1)c1ccccc1F

>  <Energy>  (91) 
106.02204672518359

>  <Genealogy>  (91) 
O=C([N-]Cc1cc(C(=O)N2CCCc3ccccc32)ccc1N1CCN(C(=O)Cc2ccccn2)CC1)c1ccccc1F (protonated)
O=C([N-]Cc1cc(C(=O)N2CCCc3ccccc32)ccc1N1CCN(C(=O)Cc2ccccn2)CC1)c1ccccc1F (3D coordinates assigned)
O=C([N-]Cc1cc(C(=O)N2CCCc3ccccc32)ccc1N1CCN(C(=O)Cc2ccccn2)CC1)c1ccccc1F (nonaromatic ring conformer: 106.02204672518359 kcal/mol)

>  <smiles>  (91) 
O=C(NCc1cc(C(=O)N2CCCc3ccccc32)ccc1N1CCN(C(=O)Cc2ccccn2)CC1)c1ccccc1F

>  <score_type>  (91) 
oracle

>  <origin>  (91) 
adg

>  <m_score__min__energy>  (91) 
-11.48

>  <m_primary>  (91) 
energy

$$$$
92:0
     RDKit          3D

 56 59  0  0  0  0  0  0  0  0999 V2000
   55.3890   29.1340   44.8760 N   0  0  0  0  0  0  0  0  0  0  0  0
   56.1980   30.0690   44.1620 C   0  0  0  0  0  0  0  0  0  0  0  0
   55.9880   30.2470   42.9300 O   0  0  0  0  0  0  0  0  0  0  0  0
   57.2740   30.8190   44.8550 C   0  0  0  0  0  0  0  0  0  0  0  0
   57.6030   32.1280   44.4530 C   0  0  0  0  0  0  0  0  0  0  0  0
   58.6240   32.8330   45.1000 C   0  0  0  0  0  0  0  0  0  0  0  0
   59.3500   32.2380   46.1410 C   0  0  0  0  0  0  0  0  0  0  0  0
   60.4010   32.9780   46.7820 N   0  0  0  0  0  0  0  0  0  0  0  0
   60.1710   33.9030   47.8580 C   0  0  0  0  0  0  0  0  0  0  0  0
   58.9990   34.1500   48.2530 O   0  0  0  0  0  0  0  0  0  0  0  0
   61.3310   34.5470   48.5580 C   0  0  0  0  0  0  0  0  0  0  0  0
   62.9020   33.6950   48.1710 S   0  0  0  0  0  0  0  0  0  0  0  0
   62.3750   32.0960   48.7970 C   0  0  0  0  0  0  0  0  0  0  0  0
   61.8890   31.1220   48.0040 N   0  0  0  0  0  0  0  0  0  0  0  0
   61.5780   30.1040   48.7910 N   0  0  0  0  0  0  0  0  0  0  0  0
   61.8940   30.4650   50.0510 C   0  0  0  0  0  0  0  0  0  0  0  0
   61.6110   29.6050   51.2490 C   0  0  0  0  0  0  0  0  0  0  0  0
   60.2060   28.4830   50.9250 S   0  0  0  0  0  0  0  0  0  0  0  0
   58.9470   29.7360   51.1940 C   0  0  0  0  0  0  0  0  0  0  0  0
   58.7400   30.7460   50.2440 C   0  0  0  0  0  0  0  0  0  0  0  0
   57.7790   31.7360   50.4740 C   0  0  0  0  0  0  0  0  0  0  0  0
   57.0320   31.7250   51.6550 C   0  0  0  0  0  0  0  0  0  0  0  0
   57.2330   30.7170   52.6020 C   0  0  0  0  0  0  0  0  0  0  0  0
   58.1900   29.7230   52.3720 C   0  0  0  0  0  0  0  0  0  0  0  0
   62.3850   31.7230   50.0920 N   0  0  0  0  0  0  0  0  0  0  0  0
   62.8360   32.4930   51.2560 C   0  0  0  0  0  0  0  0  0  0  0  0
   61.6590   32.9910   52.0550 C   0  0  0  0  0  0  0  0  0  0  0  0
   60.5000   33.4460   51.4030 C   0  0  0  0  0  0  0  0  0  0  0  0
   59.3930   33.8720   52.1430 C   0  0  0  0  0  0  0  0  0  0  0  0
   59.4330   33.8450   53.5410 C   0  0  0  0  0  0  0  0  0  0  0  0
   60.5810   33.3950   54.1970 C   0  0  0  0  0  0  0  0  0  0  0  0
   61.6900   32.9680   53.4610 C   0  0  0  0  0  0  0  0  0  0  0  0
   59.0140   30.9400   46.5600 C   0  0  0  0  0  0  0  0  0  0  0  0
   57.9860   30.2370   45.9220 C   0  0  0  0  0  0  0  0  0  0  0  0
   54.4110   29.3730   45.1560 H   0  0  0  0  0  0  0  0  0  0  0  0
   57.0536   32.5994   43.6248 H   0  0  0  0  0  0  0  0  0  0  0  0
   58.8586   33.8618   44.7894 H   0  0  0  0  0  0  0  0  0  0  0  0
   61.3870   32.6960   46.5810 H   0  0  0  0  0  0  0  0  0  0  0  0
   61.4047   35.5965   48.2368 H   0  0  0  0  0  0  0  0  0  0  0  0
   61.1601   34.4812   49.6426 H   0  0  0  0  0  0  0  0  0  0  0  0
   62.5040   29.0066   51.4824 H   0  0  0  0  0  0  0  0  0  0  0  0
   61.3538   30.2561   52.0975 H   0  0  0  0  0  0  0  0  0  0  0  0
   59.3333   30.7599   49.3178 H   0  0  0  0  0  0  0  0  0  0  0  0
   57.6111   32.5237   49.7248 H   0  0  0  0  0  0  0  0  0  0  0  0
   56.2847   32.5108   51.8395 H   0  0  0  0  0  0  0  0  0  0  0  0
   56.6390   30.7053   53.5277 H   0  0  0  0  0  0  0  0  0  0  0  0
   58.3481   28.9299   53.1177 H   0  0  0  0  0  0  0  0  0  0  0  0
   63.4596   31.8500   51.8945 H   0  0  0  0  0  0  0  0  0  0  0  0
   63.4156   33.3590   50.9037 H   0  0  0  0  0  0  0  0  0  0  0  0
   60.4637   33.4670   50.3038 H   0  0  0  0  0  0  0  0  0  0  0  0
   58.4901   34.2286   51.6257 H   0  0  0  0  0  0  0  0  0  0  0  0
   58.5611   34.1779   54.1232 H   0  0  0  0  0  0  0  0  0  0  0  0
   60.6125   33.3766   55.2964 H   0  0  0  0  0  0  0  0  0  0  0  0
   62.5904   32.6126   53.9834 H   0  0  0  0  0  0  0  0  0  0  0  0
   59.5612   30.4744   47.3929 H   0  0  0  0  0  0  0  0  0  0  0  0
   57.7316   29.2205   46.2568 H   0  0  0  0  0  0  0  0  0  0  0  0
  1  2  1  0
  2  3  2  0
  2  4  1  0
  4  5  2  0
  5  6  1  0
  6  7  2  0
  7  8  1  0
  8  9  1  0
  9 10  2  0
  9 11  1  0
 11 12  1  0
 12 13  1  0
 13 14  2  0
 14 15  1  0
 15 16  2  0
 16 17  1  0
 17 18  1  0
 18 19  1  0
 19 20  2  0
 20 21  1  0
 21 22  2  0
 22 23  1  0
 23 24  2  0
 16 25  1  0
 25 26  1  0
 26 27  1  0
 27 28  2  0
 28 29  1  0
 29 30  2  0
 30 31  1  0
 31 32  2  0
  7 33  1  0
 33 34  2  0
 34  4  1  0
 25 13  1  0
 32 27  1  0
 24 19  1  0
  1 35  1  0
  5 36  1  0
  6 37  1  0
  8 38  1  0
 11 39  1  0
 11 40  1  0
 17 41  1  0
 17 42  1  0
 20 43  1  0
 21 44  1  0
 22 45  1  0
 23 46  1  0
 24 47  1  0
 26 48  1  0
 26 49  1  0
 28 50  1  0
 29 51  1  0
 30 52  1  0
 31 53  1  0
 32 54  1  0
 33 55  1  0
 34 56  1  0
M  CHG  1   1  -1
M  END
>  <UniqueID>  (92) 
83

>  <SMILES>  (92) 
[NH-]C(=O)c1ccc(NC(=O)CSc2nnc(CSc3ccccc3)n2Cc2ccccc2)cc1

>  <Energy>  (92) 
84.52595574608836

>  <Genealogy>  (92) 
[NH-]C(=O)c1ccc(NC(=O)CSc2nnc(CSc3ccccc3)n2Cc2ccccc2)cc1 (protonated)
[NH-]C(=O)c1ccc(NC(=O)CSc2nnc(CSc3ccccc3)n2Cc2ccccc2)cc1 (3D coordinates assigned)
[NH-]C(=O)c1ccc(NC(=O)CSc2nnc(CSc3ccccc3)n2Cc2ccccc2)cc1 (optimized conformer: 84.52595574608836 kcal/mol)

>  <smiles>  (92) 
NC(=O)c1ccc(NC(=O)CSc2nnc(CSc3ccccc3)n2Cc2ccccc2)cc1

>  <score_type>  (92) 
oracle

>  <origin>  (92) 
adg

>  <m_score__min__energy>  (92) 
-11.970000000000001

>  <m_primary>  (92) 
energy

$$$$
