0:0
     RDKit          3D

 44 46  0  0  0  0  0  0  0  0999 V2000
   57.7774   24.9942   47.1215 H   0  0  0  0  0  0  0  0  0  0  0  0
   57.6070   25.5420   46.1830 C   0  0  0  0  0  0  0  0  0  0  0  0
   58.0520   26.9450   46.0880 C   0  0  0  0  0  0  0  0  0  0  0  0
   59.1670   27.2920   46.5650 O   0  0  0  0  0  0  0  0  0  0  0  0
   57.2220   27.9050   45.4140 N   0  0  0  0  0  0  0  0  0  0  0  0
   56.4610   27.5430   44.7950 H   0  0  0  0  0  0  0  0  0  0  0  0
   57.4510   29.3240   45.4390 C   0  0  0  0  0  0  0  0  0  0  0  0
   56.9770   30.1610   44.4120 C   0  0  0  0  0  0  0  0  0  0  0  0
   56.4054   29.7325   43.5756 H   0  0  0  0  0  0  0  0  0  0  0  0
   57.2300   31.5350   44.4510 C   0  0  0  0  0  0  0  0  0  0  0  0
   56.8502   32.1855   43.6494 H   0  0  0  0  0  0  0  0  0  0  0  0
   57.9630   32.0840   45.5040 C   0  0  0  0  0  0  0  0  0  0  0  0
   58.1554   33.1667   45.5322 H   0  0  0  0  0  0  0  0  0  0  0  0
   58.4550   31.2600   46.5260 C   0  0  0  0  0  0  0  0  0  0  0  0
   59.3710   31.9560   47.8630 S   0  0  0  0  0  0  0  0  0  0  0  0
   58.5440   31.8820   49.1180 O   0  0  0  0  0  0  0  0  0  0  0  0
   60.6090   31.1290   48.0820 O   0  0  0  0  0  0  0  0  0  0  0  0
   59.8350   33.6190   47.5690 N   0  0  0  0  0  0  0  0  0  0  0  0
   60.2100   34.3370   48.8060 C   0  0  0  0  0  0  0  0  0  0  0  0
   59.7667   35.3433   48.7759 H   0  0  0  0  0  0  0  0  0  0  0  0
   59.8334   33.7492   49.6561 H   0  0  0  0  0  0  0  0  0  0  0  0
   61.7310   34.4760   48.9790 C   0  0  0  0  0  0  0  0  0  0  0  0
   62.0641   35.4146   48.5121 H   0  0  0  0  0  0  0  0  0  0  0  0
   61.9678   34.4818   50.0532 H   0  0  0  0  0  0  0  0  0  0  0  0
   62.3970   33.3950   48.3720 O   0  0  0  0  0  0  0  0  0  0  0  0
   62.2800   33.4910   46.9670 C   0  0  0  0  0  0  0  0  0  0  0  0
   62.9131   34.3209   46.6201 H   0  0  0  0  0  0  0  0  0  0  0  0
   62.5959   32.5244   46.5475 H   0  0  0  0  0  0  0  0  0  0  0  0
   60.8300   33.7460   46.4880 C   0  0  0  0  0  0  0  0  0  0  0  0
   60.7711   34.7639   46.0753 H   0  0  0  0  0  0  0  0  0  0  0  0
   60.5941   32.9821   45.7324 H   0  0  0  0  0  0  0  0  0  0  0  0
   58.2100   29.8810   46.4790 C   0  0  0  0  0  0  0  0  0  0  0  0
   58.6170   29.2287   47.2656 H   0  0  0  0  0  0  0  0  0  0  0  0
   57.0030   24.9110   45.1680 C   0  0  0  0  0  0  0  0  0  0  0  0
   57.5766   24.7242   44.2482 H   0  0  0  0  0  0  0  0  0  0  0  0
   55.5930   24.4530   45.2310 C   0  0  0  0  0  0  0  0  0  0  0  0
   54.5390   25.3040   45.6200 C   0  0  0  0  0  0  0  0  0  0  0  0
   54.7770   26.6220   45.9930 O   0  0  0  0  0  0  0  0  0  0  0  0
   53.2670   24.8300   45.6640 N   0  0  0  0  0  0  0  0  0  0  0  0
   52.9850   23.5400   45.3560 C   0  0  0  0  0  0  0  0  0  0  0  0
   51.7980   23.1260   45.4020 O   0  0  0  0  0  0  0  0  0  0  0  0
   53.9850   22.6920   45.0060 N   0  0  0  0  0  0  0  0  0  0  0  0
   55.2750   23.1140   44.9420 C   0  0  0  0  0  0  0  0  0  0  0  0
   56.1750   22.2960   44.6110 O   0  0  0  0  0  0  0  0  0  0  0  0
  1  2  1  0
  2  3  1  0
  3  4  2  0
  3  5  1  0
  5  6  1  0
  5  7  1  0
  7  8  2  0
  8  9  1  0
  8 10  1  0
 10 11  1  0
 10 12  2  0
 12 13  1  0
 12 14  1  0
 14 15  1  0
 15 16  2  0
 15 17  2  0
 15 18  1  0
 18 19  1  0
 19 20  1  0
 19 21  1  0
 19 22  1  0
 22 23  1  0
 22 24  1  0
 22 25  1  0
 25 26  1  0
 26 27  1  0
 26 28  1  0
 26 29  1  0
 29 30  1  0
 29 31  1  0
 14 32  2  0
 32 33  1  0
  2 34  2  0
 34 35  1  0
 34 36  1  0
 36 37  2  0
 37 38  1  0
 37 39  1  0
 39 40  1  0
 40 41  2  0
 40 42  1  0
 42 43  1  0
 43 44  2  0
 32  7  1  0
 43 36  1  0
 29 18  1  0
M  CHG  3  38  -1  39  -1  42  -1
M  END
>  <UniqueID>  (1) 
1

>  <SMILES>  (1) 
O=C(/C=C/c1c([O-])[n-]c(=O)[n-]c1=O)Nc1cccc(S(=O)(=O)N2CCOCC2)c1

>  <Energy>  (1) 
65.42875102528015

>  <Genealogy>  (1) 
O=C(C=Cc1c([O-])[n-]c(=O)[n-]c1=O)Nc1cccc(S(=O)(=O)N2CCOCC2)c1 (protonated)
O=C(/C=C/c1c([O-])[n-]c(=O)[n-]c1=O)Nc1cccc(S(=O)(=O)N2CCOCC2)c1 (cis-trans isomerization)
O=C(/C=C/c1c([O-])[n-]c(=O)[n-]c1=O)Nc1cccc(S(=O)(=O)N2CCOCC2)c1 (3D coordinates assigned)
O=C(/C=C/c1c([O-])[n-]c(=O)[n-]c1=O)Nc1cccc(S(=O)(=O)N2CCOCC2)c1 (nonaromatic ring conformer: 65.42875102528015 kcal/mol)

>  <smiles>  (1) 
O=C(C=Cc1c(O)[nH]c(=O)[nH]c1=O)Nc1cccc(S(=O)(=O)N2CCOCC2)c1

>  <score_type>  (1) 
oracle

>  <origin>  (1) 
adg

>  <m_score__min__energy>  (1) 
-16.550000000000001

>  <m_primary>  (1) 
energy

$$$$
1:0
     RDKit          3D

 40 42  0  0  0  0  0  0  0  0999 V2000
   57.5010   32.1570   43.0150 O   0  0  0  0  0  0  0  0  0  0  0  0
   57.7560   31.7590   44.2230 C   0  0  0  0  0  0  0  0  0  0  0  0
   57.8790   30.3490   44.3970 C   0  0  0  0  0  0  0  0  0  0  0  0
   59.1730   29.7910   44.4090 C   0  0  0  0  0  0  0  0  0  0  0  0
   59.3860   28.4440   44.5870 C   0  0  0  0  0  0  0  0  0  0  0  0
   58.3450   27.5870   44.7590 C   0  0  0  0  0  0  0  0  0  0  0  0
   58.5320   26.3550   44.9230 O   0  0  0  0  0  0  0  0  0  0  0  0
   57.1040   28.1010   44.7500 N   0  0  0  0  0  0  0  0  0  0  0  0
   56.8700   29.4360   44.5740 C   0  0  0  0  0  0  0  0  0  0  0  0
   55.5440   29.8040   44.5870 O   0  0  0  0  0  0  0  0  0  0  0  0
   57.8740   32.8510   45.2060 C   0  0  0  0  0  0  0  0  0  0  0  0
   58.9750   33.7680   44.8430 C   0  0  0  0  0  0  0  0  0  0  0  0
   59.4980   34.5690   45.9830 C   0  0  0  0  0  0  0  0  0  0  0  0
   59.7550   33.7840   47.1220 N   0  0  0  0  0  0  0  0  0  0  0  0
   60.5720   34.3900   48.1240 C   0  0  0  0  0  0  0  0  0  0  0  0
   61.9640   33.8380   47.9460 C   0  0  0  0  0  0  0  0  0  0  0  0
   62.9960   34.0160   48.7790 N   0  0  0  0  0  0  0  0  0  0  0  0
   64.1080   33.3940   48.3370 C   0  0  0  0  0  0  0  0  0  0  0  0
   63.7190   32.7940   47.1460 C   0  0  0  0  0  0  0  0  0  0  0  0
   62.4040   33.0760   46.9210 N   0  0  0  0  0  0  0  0  0  0  0  0
   58.6790   33.0010   47.6180 C   0  0  0  0  0  0  0  0  0  0  0  0
   57.7670   32.4160   46.6350 C   0  0  0  0  0  0  0  0  0  0  0  0
   60.0401   30.4538   44.2717 H   0  0  0  0  0  0  0  0  0  0  0  0
   60.4146   28.0542   44.5902 H   0  0  0  0  0  0  0  0  0  0  0  0
   56.3170   27.4280   44.8840 H   0  0  0  0  0  0  0  0  0  0  0  0
   55.1500   30.4710   45.2420 H   0  0  0  0  0  0  0  0  0  0  0  0
   56.9712   33.4762   45.1425 H   0  0  0  0  0  0  0  0  0  0  0  0
   59.8019   33.1699   44.4327 H   0  0  0  0  0  0  0  0  0  0  0  0
   58.5658   34.4827   44.1138 H   0  0  0  0  0  0  0  0  0  0  0  0
   60.4341   35.0556   45.6717 H   0  0  0  0  0  0  0  0  0  0  0  0
   58.7281   35.3068   46.2532 H   0  0  0  0  0  0  0  0  0  0  0  0
   60.5790   35.4826   47.9967 H   0  0  0  0  0  0  0  0  0  0  0  0
   60.1873   34.1717   49.1312 H   0  0  0  0  0  0  0  0  0  0  0  0
   65.0996   33.3677   48.8124 H   0  0  0  0  0  0  0  0  0  0  0  0
   64.3655   32.1906   46.4919 H   0  0  0  0  0  0  0  0  0  0  0  0
   61.8580   32.7460   46.0900 H   0  0  0  0  0  0  0  0  0  0  0  0
   59.1125   32.1742   48.1998 H   0  0  0  0  0  0  0  0  0  0  0  0
   58.0600   33.7041   48.1947 H   0  0  0  0  0  0  0  0  0  0  0  0
   57.9247   31.3275   46.6547 H   0  0  0  0  0  0  0  0  0  0  0  0
   56.7739   32.7704   46.9482 H   0  0  0  0  0  0  0  0  0  0  0  0
  1  2  2  0
  2  3  1  0
  3  4  1  0
  4  5  2  0
  5  6  1  0
  6  7  2  0
  6  8  1  0
  8  9  1  0
  9 10  1  0
  2 11  1  0
 11 12  1  0
 12 13  1  0
 13 14  1  0
 14 15  1  0
 15 16  1  0
 16 17  2  0
 17 18  1  0
 18 19  2  0
 19 20  1  0
 14 21  1  0
 21 22  1  0
  9  3  2  0
 22 11  1  0
 20 16  1  0
  4 23  1  0
  5 24  1  0
  8 25  1  0
 10 26  1  0
 11 27  1  0
 12 28  1  0
 12 29  1  0
 13 30  1  0
 13 31  1  0
 15 32  1  0
 15 33  1  0
 18 34  1  0
 19 35  1  0
 20 36  1  0
 21 37  1  0
 21 38  1  0
 22 39  1  0
 22 40  1  0
M  END
>  <smiles>  (2) 
O=C(c1ccc(=O)[nH]c1O)C1CCN(Cc2ncc[nH]2)CC1

>  <score_type>  (2) 
oracle

>  <origin>  (2) 
adg

>  <m_score__min__energy>  (2) 
-8.6400000000000006

>  <m_primary>  (2) 
energy

$$$$
2:0
     RDKit          3D

 67 70  0  0  0  0  0  0  0  0999 V2000
   58.6850   29.8950   48.4080 C   0  0  0  0  0  0  0  0  0  0  0  0
   58.4850   30.3500   47.1570 C   0  0  0  0  0  0  0  0  0  0  0  0
   58.4600   29.5760   45.9930 C   0  0  0  0  0  0  0  0  0  0  0  0
   58.4720   28.2390   45.8110 C   0  0  0  0  0  0  0  0  0  0  0  0
   57.3380   27.3310   46.0360 C   0  0  0  0  0  0  0  0  0  0  0  0
   57.4610   26.1010   46.5620 N   0  0  0  0  0  0  0  0  0  0  0  0
   56.2080   25.6010   46.4830 C   0  0  0  0  0  0  0  0  0  0  0  0
   55.9100   24.4520   46.8990 O   0  0  0  0  0  0  0  0  0  0  0  0
   55.3030   26.4260   45.9130 N   0  0  0  0  0  0  0  0  0  0  0  0
   56.0380   27.5120   45.6220 C   0  0  0  0  0  0  0  0  0  0  0  0
   55.5360   28.6320   44.9690 O   0  0  0  0  0  0  0  0  0  0  0  0
   58.3830   30.4630   44.9440 C   0  0  0  0  0  0  0  0  0  0  0  0
   58.2810   31.7470   45.4700 C   0  0  0  0  0  0  0  0  0  0  0  0
   58.1800   33.0200   44.5960 C   0  0  0  0  0  0  0  0  0  0  0  0
   57.9900   32.6200   43.1190 C   0  0  0  0  0  0  0  0  0  0  0  0
   56.9510   33.8710   45.0090 C   0  0  0  0  0  0  0  0  0  0  0  0
   59.4210   33.9300   44.7520 C   0  0  0  0  0  0  0  0  0  0  0  0
   58.3700   31.6730   46.8350 N   0  0  0  0  0  0  0  0  0  0  0  0
   58.3910   32.7940   47.7980 C   0  0  0  0  0  0  0  0  0  0  0  0
   59.6410   32.8080   48.6500 C   0  0  0  0  0  0  0  0  0  0  0  0
   60.9290   32.8190   48.0880 C   0  0  0  0  0  0  0  0  0  0  0  0
   62.0600   32.8340   48.9070 C   0  0  0  0  0  0  0  0  0  0  0  0
   61.9360   32.8500   50.3090 C   0  0  0  0  0  0  0  0  0  0  0  0
   63.1660   32.8310   51.1580 C   0  0  0  0  0  0  0  0  0  0  0  0
   63.3490   33.7890   51.9600 O   0  0  0  0  0  0  0  0  0  0  0  0
   64.1540   31.7630   51.0590 N   0  0  0  0  0  0  0  0  0  0  0  0
   64.9210   31.8410   49.7980 C   0  0  0  0  0  0  0  0  0  0  0  0
   65.8790   33.0330   49.7800 C   0  0  0  0  0  0  0  0  0  0  0  0
   66.7600   32.9960   50.9530 N   0  0  0  0  0  0  0  0  0  0  0  0
   68.0980   33.5400   50.8500 C   0  0  0  0  0  0  0  0  0  0  0  0
   68.9860   33.6950   52.0490 C   0  0  0  0  0  0  0  0  0  0  0  0
   68.5490   33.9000   49.7280 O   0  0  0  0  0  0  0  0  0  0  0  0
   66.1340   32.7880   52.2670 C   0  0  0  0  0  0  0  0  0  0  0  0
   65.0670   31.6740   52.2240 C   0  0  0  0  0  0  0  0  0  0  0  0
   60.6430   32.8850   50.8660 C   0  0  0  0  0  0  0  0  0  0  0  0
   59.5130   32.8720   50.0440 C   0  0  0  0  0  0  0  0  0  0  0  0
   58.6846   30.5967   49.2551 H   0  0  0  0  0  0  0  0  0  0  0  0
   58.8489   28.8215   48.5832 H   0  0  0  0  0  0  0  0  0  0  0  0
   59.4136   27.7887   45.4636 H   0  0  0  0  0  0  0  0  0  0  0  0
   58.3993   30.2023   43.8755 H   0  0  0  0  0  0  0  0  0  0  0  0
   57.5186   31.6276   43.0656 H   0  0  0  0  0  0  0  0  0  0  0  0
   57.3467   33.3589   42.6189 H   0  0  0  0  0  0  0  0  0  0  0  0
   58.9692   32.5882   42.6189 H   0  0  0  0  0  0  0  0  0  0  0  0
   56.8875   33.9150   46.1063 H   0  0  0  0  0  0  0  0  0  0  0  0
   57.0582   34.8892   44.6068 H   0  0  0  0  0  0  0  0  0  0  0  0
   56.0356   33.4124   44.6068 H   0  0  0  0  0  0  0  0  0  0  0  0
   59.6308   34.0839   45.8208 H   0  0  0  0  0  0  0  0  0  0  0  0
   60.2885   33.4524   44.2731 H   0  0  0  0  0  0  0  0  0  0  0  0
   59.2263   34.9009   44.2731 H   0  0  0  0  0  0  0  0  0  0  0  0
   58.3357   33.7396   47.2387 H   0  0  0  0  0  0  0  0  0  0  0  0
   57.5307   32.6693   48.4720 H   0  0  0  0  0  0  0  0  0  0  0  0
   61.0472   32.8158   46.9944 H   0  0  0  0  0  0  0  0  0  0  0  0
   63.0608   32.8333   48.4505 H   0  0  0  0  0  0  0  0  0  0  0  0
   63.6320   30.8570   51.0570 H   0  0  0  0  0  0  0  0  0  0  0  0
   65.5039   30.9157   49.6796 H   0  0  0  0  0  0  0  0  0  0  0  0
   64.2046   31.9698   48.9733 H   0  0  0  0  0  0  0  0  0  0  0  0
   66.4898   32.9939   48.8660 H   0  0  0  0  0  0  0  0  0  0  0  0
   65.2928   33.9636   49.8019 H   0  0  0  0  0  0  0  0  0  0  0  0
   68.3865   33.5903   52.9653 H   0  0  0  0  0  0  0  0  0  0  0  0
   69.7658   32.9194   52.0305 H   0  0  0  0  0  0  0  0  0  0  0  0
   69.4569   34.6889   52.0305 H   0  0  0  0  0  0  0  0  0  0  0  0
   66.9125   32.5075   52.9918 H   0  0  0  0  0  0  0  0  0  0  0  0
   65.6383   33.7248   52.5615 H   0  0  0  0  0  0  0  0  0  0  0  0
   65.5815   30.7024   52.1877 H   0  0  0  0  0  0  0  0  0  0  0  0
   64.4474   31.7895   53.1255 H   0  0  0  0  0  0  0  0  0  0  0  0
   60.5214   32.9229   51.9586 H   0  0  0  0  0  0  0  0  0  0  0  0
   58.5112   32.9125   50.4965 H   0  0  0  0  0  0  0  0  0  0  0  0
  1  2  2  0
  2  3  1  0
  3  4  2  3
  4  5  1  0
  5  6  1  0
  6  7  1  0
  7  8  2  0
  7  9  1  0
  9 10  1  0
 10 11  1  0
  3 12  1  0
 12 13  2  0
 13 14  1  0
 14 15  1  0
 14 16  1  0
 14 17  1  0
 13 18  1  0
 18 19  1  0
 19 20  1  0
 20 21  2  0
 21 22  1  0
 22 23  2  0
 23 24  1  0
 24 25  2  0
 24 26  1  0
 26 27  1  0
 27 28  1  0
 28 29  1  0
 29 30  1  0
 30 31  1  0
 30 32  2  0
 29 33  1  0
 33 34  1  0
 23 35  1  0
 35 36  2  0
 18  2  1  0
 36 20  1  0
 10  5  2  0
 34 26  1  0
  1 37  1  0
  1 38  1  0
  4 39  1  0
 12 40  1  0
 15 41  1  0
 15 42  1  0
 15 43  1  0
 16 44  1  0
 16 45  1  0
 16 46  1  0
 17 47  1  0
 17 48  1  0
 17 49  1  0
 19 50  1  0
 19 51  1  0
 21 52  1  0
 22 53  1  0
 26 54  1  0
 27 55  1  0
 27 56  1  0
 28 57  1  0
 28 58  1  0
 31 59  1  0
 31 60  1  0
 31 61  1  0
 33 62  1  0
 33 63  1  0
 34 64  1  0
 34 65  1  0
 35 66  1  0
 36 67  1  0
M  CHG  4   6  -1   9  -1  11  -1  26   1
M  END
>  <UniqueID>  (3) 
2

>  <SMILES>  (3) 
C=c1c(=Cc2[n-]c(=O)[n-]c2[O-])cc(C(C)(C)C)n1Cc1ccc(C(=O)[NH+]2CCN(C(C)=O)CC2)cc1

>  <Energy>  (3) 
154.4612766705801

>  <Genealogy>  (3) 
C=c1c(=Cc2[n-]c(=O)[n-]c2[O-])cc(C(C)(C)C)n1Cc1ccc(C(=O)[NH+]2CCN(C(C)=O)CC2)cc1 (protonated)
C=c1c(=Cc2[n-]c(=O)[n-]c2[O-])cc(C(C)(C)C)n1Cc1ccc(C(=O)[NH+]2CCN(C(C)=O)CC2)cc1 (3D coordinates assigned)
C=c1c(=Cc2[n-]c(=O)[n-]c2[O-])cc(C(C)(C)C)n1Cc1ccc(C(=O)[NH+]2CCN(C(C)=O)CC2)cc1 (nonaromatic ring conformer: 154.4612766705801 kcal/mol)

>  <smiles>  (3) 
C=c1c(=Cc2[nH]c(=O)[nH]c2O)cc(C(C)(C)C)n1Cc1ccc(C(=O)N2CCN(C(C)=O)CC2)cc1

>  <score_type>  (3) 
oracle

>  <origin>  (3) 
adg

>  <m_score__min__energy>  (3) 
-15.859999999999999

>  <m_primary>  (3) 
energy

$$$$
3:0
     RDKit          3D

 47 49  0  0  0  0  0  0  0  0999 V2000
   62.9925   34.2850   46.0876 H   0  0  0  0  0  0  0  0  0  0  0  0
   62.8800   33.4640   46.8110 C   0  0  0  0  0  0  0  0  0  0  0  0
   61.8740   32.5520   46.7280 N   0  0  0  0  0  0  0  0  0  0  0  0
   61.9360   31.6450   47.7250 C   0  0  0  0  0  0  0  0  0  0  0  0
   61.0940   30.6570   47.8080 N   0  0  0  0  0  0  0  0  0  0  0  0
   60.1100   30.2680   46.8340 C   0  0  0  0  0  0  0  0  0  0  0  0
   60.3590   30.3270   45.5990 O   0  0  0  0  0  0  0  0  0  0  0  0
   58.7460   29.8320   47.2790 C   0  0  0  0  0  0  0  0  0  0  0  0
   58.7236   29.8036   48.3784 H   0  0  0  0  0  0  0  0  0  0  0  0
   58.0142   30.5519   46.8838 H   0  0  0  0  0  0  0  0  0  0  0  0
   58.3860   28.4620   46.7480 C   0  0  0  0  0  0  0  0  0  0  0  0
   58.8200   27.3310   47.4620 C   0  0  0  0  0  0  0  0  0  0  0  0
   59.3828   27.4613   48.3981 H   0  0  0  0  0  0  0  0  0  0  0  0
   58.5440   26.0440   46.9950 C   0  0  0  0  0  0  0  0  0  0  0  0
   58.8874   25.1675   47.5641 H   0  0  0  0  0  0  0  0  0  0  0  0
   57.8330   25.8690   45.8070 C   0  0  0  0  0  0  0  0  0  0  0  0
   57.6230   24.8547   45.4367 H   0  0  0  0  0  0  0  0  0  0  0  0
   57.3880   26.9800   45.0880 C   0  0  0  0  0  0  0  0  0  0  0  0
   56.8324   26.8358   44.1497 H   0  0  0  0  0  0  0  0  0  0  0  0
   57.6440   28.2800   45.5530 C   0  0  0  0  0  0  0  0  0  0  0  0
   57.1360   29.4160   44.7650 C   0  0  0  0  0  0  0  0  0  0  0  0
   55.9320   29.7670   44.8930 O   0  0  0  0  0  0  0  0  0  0  0  0
   58.0150   30.1410   43.8940 N   0  0  0  0  0  0  0  0  0  0  0  0
   59.0390   29.9390   43.9310 H   0  0  0  0  0  0  0  0  0  0  0  0
   57.5530   31.2380   43.0460 C   0  0  0  0  0  0  0  0  0  0  0  0
   57.9814   31.1194   42.0398 H   0  0  0  0  0  0  0  0  0  0  0  0
   56.4542   31.2085   43.0041 H   0  0  0  0  0  0  0  0  0  0  0  0
   57.9830   32.5960   43.6170 C   0  0  0  0  0  0  0  0  0  0  0  0
   59.0556   32.5509   43.8568 H   0  0  0  0  0  0  0  0  0  0  0  0
   57.7626   33.3568   42.8537 H   0  0  0  0  0  0  0  0  0  0  0  0
   57.2130   32.9880   44.8900 C   0  0  0  0  0  0  0  0  0  0  0  0
   56.4741   33.7613   44.6330 H   0  0  0  0  0  0  0  0  0  0  0  0
   56.7258   32.0830   45.2820 H   0  0  0  0  0  0  0  0  0  0  0  0
   58.1240   33.5250   45.9640 C   0  0  0  0  0  0  0  0  0  0  0  0
   58.9970   34.5890   45.6840 C   0  0  0  0  0  0  0  0  0  0  0  0
   59.0187   35.0292   44.6762 H   0  0  0  0  0  0  0  0  0  0  0  0
   59.8390   35.0910   46.6820 C   0  0  0  0  0  0  0  0  0  0  0  0
   60.5249   35.9207   46.4558 H   0  0  0  0  0  0  0  0  0  0  0  0
   59.8100   34.5400   47.9660 C   0  0  0  0  0  0  0  0  0  0  0  0
   60.4733   34.9350   48.7496 H   0  0  0  0  0  0  0  0  0  0  0  0
   58.9370   33.4860   48.2540 C   0  0  0  0  0  0  0  0  0  0  0  0
   58.9148   33.0516   49.2644 H   0  0  0  0  0  0  0  0  0  0  0  0
   58.0930   32.9840   47.2600 C   0  0  0  0  0  0  0  0  0  0  0  0
   57.4011   32.1613   47.4934 H   0  0  0  0  0  0  0  0  0  0  0  0
   63.2480   31.9370   48.7450 S   0  0  0  0  0  0  0  0  0  0  0  0
   63.7560   33.2840   47.8760 C   0  0  0  0  0  0  0  0  0  0  0  0
   64.6282   33.9125   48.1090 H   0  0  0  0  0  0  0  0  0  0  0  0
  1  2  1  0
  2  3  1  0
  3  4  1  0
  4  5  2  0
  5  6  1  0
  6  7  2  0
  6  8  1  0
  8  9  1  0
  8 10  1  0
  8 11  1  0
 11 12  2  0
 12 13  1  0
 12 14  1  0
 14 15  1  0
 14 16  2  0
 16 17  1  0
 16 18  1  0
 18 19  1  0
 18 20  2  0
 20 21  1  0
 21 22  2  0
 21 23  1  0
 23 24  1  0
 23 25  1  0
 25 26  1  0
 25 27  1  0
 25 28  1  0
 28 29  1  0
 28 30  1  0
 28 31  1  0
 31 32  1  0
 31 33  1  0
 31 34  1  0
 34 35  2  0
 35 36  1  0
 35 37  1  0
 37 38  1  0
 37 39  2  0
 39 40  1  0
 39 41  1  0
 41 42  1  0
 41 43  2  0
 43 44  1  0
  4 45  1  0
 45 46  1  0
 46 47  1  0
 46  2  2  0
 20 11  1  0
 43 34  1  0
M  CHG  1   3  -1
M  END
>  <UniqueID>  (4) 
3

>  <SMILES>  (4) 
O=C(Cc1ccccc1C(=O)NCCCc1ccccc1)/N=c1/[n-]ccs1

>  <Energy>  (4) 
79.46691883832096

>  <Genealogy>  (4) 
O=C(Cc1ccccc1C(=O)NCCCc1ccccc1)N=c1[n-]ccs1 (protonated)
O=C(Cc1ccccc1C(=O)NCCCc1ccccc1)/N=c1/[n-]ccs1 (cis-trans isomerization)
O=C(Cc1ccccc1C(=O)NCCCc1ccccc1)/N=c1/[n-]ccs1 (3D coordinates assigned)
O=C(Cc1ccccc1C(=O)NCCCc1ccccc1)/N=c1/[n-]ccs1 (optimized conformer: 79.46691883832096 kcal/mol)

>  <smiles>  (4) 
O=C(Cc1ccccc1C(=O)NCCCc1ccccc1)N=c1[nH]ccs1

>  <score_type>  (4) 
oracle

>  <origin>  (4) 
adg

>  <m_score__min__energy>  (4) 
-10.75

>  <m_primary>  (4) 
energy

$$$$
4:0
     RDKit          3D

 47 49  0  0  0  0  0  0  0  0999 V2000
   57.4220   30.3030   44.2360 C   0  0  0  0  0  0  0  0  0  0  0  0
   58.5640   30.3710   44.9150 C   0  0  0  0  0  0  0  0  0  0  0  0
   59.0820   29.2460   45.7130 C   0  0  0  0  0  0  0  0  0  0  0  0
   59.0580   27.9210   45.3200 C   0  0  0  0  0  0  0  0  0  0  0  0
   59.6960   27.1890   46.2540 N   0  0  0  0  0  0  0  0  0  0  0  0
   59.9630   25.7580   46.1860 C   0  0  0  0  0  0  0  0  0  0  0  0
   60.1330   27.9860   47.2160 N   0  0  0  0  0  0  0  0  0  0  0  0
   59.7580   29.2470   46.9330 C   0  0  0  0  0  0  0  0  0  0  0  0
   59.9770   30.3810   47.8510 C   0  0  0  0  0  0  0  0  0  0  0  0
   58.9740   30.9440   48.3660 O   0  0  0  0  0  0  0  0  0  0  0  0
   61.3000   30.8820   48.1290 N   0  0  0  0  0  0  0  0  0  0  0  0
   61.8820   30.6830   49.4690 C   0  0  0  0  0  0  0  0  0  0  0  0
   61.3800   31.7240   50.4770 C   0  0  0  0  0  0  0  0  0  0  0  0
   61.5910   33.1490   50.0310 C   0  0  0  0  0  0  0  0  0  0  0  0
   62.0480   33.9660   50.8760 O   0  0  0  0  0  0  0  0  0  0  0  0
   61.2970   33.6070   48.6900 N   0  0  0  0  0  0  0  0  0  0  0  0
   60.2480   34.6210   48.5020 C   0  0  0  0  0  0  0  0  0  0  0  0
   59.4740   34.3360   47.2420 C   0  0  0  0  0  0  0  0  0  0  0  0
   58.3190   33.5360   47.2790 C   0  0  0  0  0  0  0  0  0  0  0  0
   57.6180   33.2590   46.1000 C   0  0  0  0  0  0  0  0  0  0  0  0
   58.0680   33.7690   44.8790 C   0  0  0  0  0  0  0  0  0  0  0  0
   57.3900   33.4950   43.7380 F   0  0  0  0  0  0  0  0  0  0  0  0
   59.2200   34.5600   44.8360 C   0  0  0  0  0  0  0  0  0  0  0  0
   59.9220   34.8430   46.0110 C   0  0  0  0  0  0  0  0  0  0  0  0
   62.0310   33.1350   47.5370 C   0  0  0  0  0  0  0  0  0  0  0  0
   62.7190   33.9420   46.8540 O   0  0  0  0  0  0  0  0  0  0  0  0
   62.0000   31.6950   47.1220 C   0  0  0  0  0  0  0  0  0  0  0  0
   57.0758   31.1698   43.6539 H   0  0  0  0  0  0  0  0  0  0  0  0
   56.8240   29.3800   44.2566 H   0  0  0  0  0  0  0  0  0  0  0  0
   59.1448   31.3045   44.8792 H   0  0  0  0  0  0  0  0  0  0  0  0
   58.5965   27.5306   44.4010 H   0  0  0  0  0  0  0  0  0  0  0  0
   60.0391   25.3504   47.2049 H   0  0  0  0  0  0  0  0  0  0  0  0
   59.1428   25.2570   45.6509 H   0  0  0  0  0  0  0  0  0  0  0  0
   60.9087   25.5865   45.6509 H   0  0  0  0  0  0  0  0  0  0  0  0
   60.6580   27.6680   48.0620 H   0  0  0  0  0  0  0  0  0  0  0  0
   61.6085   29.6802   49.8290 H   0  0  0  0  0  0  0  0  0  0  0  0
   62.9732   30.7930   49.3839 H   0  0  0  0  0  0  0  0  0  0  0  0
   60.3029   31.5648   50.6337 H   0  0  0  0  0  0  0  0  0  0  0  0
   61.9627   31.5858   51.3997 H   0  0  0  0  0  0  0  0  0  0  0  0
   59.5631   34.6001   49.3625 H   0  0  0  0  0  0  0  0  0  0  0  0
   60.7161   35.6131   48.4209 H   0  0  0  0  0  0  0  0  0  0  0  0
   57.9653   33.1267   48.2368 H   0  0  0  0  0  0  0  0  0  0  0  0
   56.7105   32.6383   46.1343 H   0  0  0  0  0  0  0  0  0  0  0  0
   59.5748   34.9607   43.8750 H   0  0  0  0  0  0  0  0  0  0  0  0
   60.8285   35.4649   45.9716 H   0  0  0  0  0  0  0  0  0  0  0  0
   61.4763   31.6074   46.1587 H   0  0  0  0  0  0  0  0  0  0  0  0
   63.0335   31.3304   47.0271 H   0  0  0  0  0  0  0  0  0  0  0  0
  1  2  2  0
  2  3  1  0
  3  4  2  0
  4  5  1  0
  5  6  1  0
  5  7  1  0
  7  8  2  0
  8  9  1  0
  9 10  2  0
  9 11  1  0
 11 12  1  0
 12 13  1  0
 13 14  1  0
 14 15  2  0
 14 16  1  0
 16 17  1  0
 17 18  1  0
 18 19  2  0
 19 20  1  0
 20 21  2  0
 21 22  1  0
 21 23  1  0
 23 24  2  0
 16 25  1  0
 25 26  2  0
 25 27  1  0
  8  3  1  0
 27 11  1  0
 24 18  1  0
  1 28  1  0
  1 29  1  0
  2 30  1  0
  4 31  1  0
  6 32  1  0
  6 33  1  0
  6 34  1  0
  7 35  1  0
 12 36  1  0
 12 37  1  0
 13 38  1  0
 13 39  1  0
 17 40  1  0
 17 41  1  0
 19 42  1  0
 20 43  1  0
 23 44  1  0
 24 45  1  0
 27 46  1  0
 27 47  1  0
M  CHG  1   7   1
M  END
>  <UniqueID>  (5) 
4

>  <SMILES>  (5) 
C=Cc1cn(C)[nH+]c1C(=O)N1CCC(=O)N(Cc2ccc(F)cc2)C(=O)C1

>  <Energy>  (5) 
88.61076564375743

>  <Genealogy>  (5) 
C=Cc1cn(C)[nH+]c1C(=O)N1CCC(=O)N(Cc2ccc(F)cc2)C(=O)C1 (protonated)
C=Cc1cn(C)[nH+]c1C(=O)N1CCC(=O)N(Cc2ccc(F)cc2)C(=O)C1 (3D coordinates assigned)
C=Cc1cn(C)[nH+]c1C(=O)N1CCC(=O)N(Cc2ccc(F)cc2)C(=O)C1 (nonaromatic ring conformer: 88.61076564375743 kcal/mol)

>  <smiles>  (5) 
C=Cc1cn(C)nc1C(=O)N1CCC(=O)N(Cc2ccc(F)cc2)C(=O)C1

>  <score_type>  (5) 
oracle

>  <origin>  (5) 
adg

>  <m_score__min__energy>  (5) 
-4.3200000000000003

>  <m_primary>  (5) 
energy

$$$$
5:0
     RDKit          3D

 46 49  0  0  0  0  0  0  0  0999 V2000
   55.1870   26.1310   45.9980 O   0  0  0  0  0  0  0  0  0  0  0  0
   56.4050   26.4230   45.8690 C   0  0  0  0  0  0  0  0  0  0  0  0
   57.2420   25.6880   44.8730 C   0  0  0  0  0  0  0  0  0  0  0  0
   57.0120   24.2170   45.0120 C   0  0  0  0  0  0  0  0  0  0  0  0
   56.5680   23.4910   43.9330 N   0  0  0  0  0  0  0  0  0  0  0  0
   56.3790   22.1420   44.0170 C   0  0  0  0  0  0  0  0  0  0  0  0
   55.9730   21.4850   43.0230 O   0  0  0  0  0  0  0  0  0  0  0  0
   56.6550   21.5220   45.2300 C   0  0  0  0  0  0  0  0  0  0  0  0
   56.5680   20.2270   45.5660 N   0  0  0  0  0  0  0  0  0  0  0  0
   56.9840   20.2370   46.8620 C   0  0  0  0  0  0  0  0  0  0  0  0
   57.3250   21.4660   47.3380 N   0  0  0  0  0  0  0  0  0  0  0  0
   57.1010   22.2490   46.2750 C   0  0  0  0  0  0  0  0  0  0  0  0
   57.2930   23.5890   46.1980 N   0  0  0  0  0  0  0  0  0  0  0  0
   56.9930   27.4570   46.6650 N   0  0  0  0  0  0  0  0  0  0  0  0
   57.3800   28.7470   46.1760 C   0  0  0  0  0  0  0  0  0  0  0  0
   58.5580   29.3250   46.6640 C   0  0  0  0  0  0  0  0  0  0  0  0
   58.9670   30.5900   46.2210 C   0  0  0  0  0  0  0  0  0  0  0  0
   60.4710   31.2800   46.8290 S   0  0  0  0  0  0  0  0  0  0  0  0
   60.4290   31.2450   48.3310 O   0  0  0  0  0  0  0  0  0  0  0  0
   61.6400   30.4570   46.3670 O   0  0  0  0  0  0  0  0  0  0  0  0
   60.6490   32.9380   46.2930 N   0  0  0  0  0  0  0  0  0  0  0  0
   61.9030   33.5510   46.7790 C   0  0  0  0  0  0  0  0  0  0  0  0
   61.8590   33.9020   48.2780 C   0  0  0  0  0  0  0  0  0  0  0  0
   60.4970   34.4600   48.7280 C   0  0  0  0  0  0  0  0  0  0  0  0
   59.6410   34.9070   47.5440 C   0  0  0  0  0  0  0  0  0  0  0  0
   59.4270   33.7420   46.5600 C   0  0  0  0  0  0  0  0  0  0  0  0
   58.1760   31.2920   45.3030 C   0  0  0  0  0  0  0  0  0  0  0  0
   56.9840   30.7360   44.8370 C   0  0  0  0  0  0  0  0  0  0  0  0
   56.5750   29.4730   45.2770 C   0  0  0  0  0  0  0  0  0  0  0  0
   55.3580   28.9660   44.8370 O   0  0  0  0  0  0  0  0  0  0  0  0
   56.9666   26.0071   43.8570 H   0  0  0  0  0  0  0  0  0  0  0  0
   58.3041   25.9102   45.0538 H   0  0  0  0  0  0  0  0  0  0  0  0
   57.0401   19.3255   47.4753 H   0  0  0  0  0  0  0  0  0  0  0  0
   59.1675   28.7818   47.4012 H   0  0  0  0  0  0  0  0  0  0  0  0
   62.7281   32.8437   46.6085 H   0  0  0  0  0  0  0  0  0  0  0  0
   62.0467   34.4903   46.2249 H   0  0  0  0  0  0  0  0  0  0  0  0
   62.0729   32.9916   48.8571 H   0  0  0  0  0  0  0  0  0  0  0  0
   62.6091   34.6873   48.4530 H   0  0  0  0  0  0  0  0  0  0  0  0
   59.9574   33.6766   49.2804 H   0  0  0  0  0  0  0  0  0  0  0  0
   60.6833   35.3387   49.3629 H   0  0  0  0  0  0  0  0  0  0  0  0
   58.6642   35.2520   47.9139 H   0  0  0  0  0  0  0  0  0  0  0  0
   60.1592   35.7235   47.0198 H   0  0  0  0  0  0  0  0  0  0  0  0
   58.6590   33.0743   46.9776 H   0  0  0  0  0  0  0  0  0  0  0  0
   59.1268   34.1892   45.6009 H   0  0  0  0  0  0  0  0  0  0  0  0
   58.4949   32.2834   44.9487 H   0  0  0  0  0  0  0  0  0  0  0  0
   56.3632   31.2936   44.1203 H   0  0  0  0  0  0  0  0  0  0  0  0
  1  2  2  0
  2  3  1  0
  3  4  1  0
  4  5  2  0
  5  6  1  0
  6  7  2  0
  6  8  1  0
  8  9  1  0
  9 10  1  0
 10 11  2  0
 11 12  1  0
 12 13  1  0
  2 14  1  0
 14 15  1  0
 15 16  2  0
 16 17  1  0
 17 18  1  0
 18 19  2  0
 18 20  2  0
 18 21  1  0
 21 22  1  0
 22 23  1  0
 23 24  1  0
 24 25  1  0
 25 26  1  0
 17 27  2  0
 27 28  1  0
 28 29  2  0
 29 30  1  0
 13  4  1  0
 29 15  1  0
 12  8  2  0
 26 21  1  0
  3 31  1  0
  3 32  1  0
 10 33  1  0
 16 34  1  0
 22 35  1  0
 22 36  1  0
 23 37  1  0
 23 38  1  0
 24 39  1  0
 24 40  1  0
 25 41  1  0
 25 42  1  0
 26 43  1  0
 26 44  1  0
 27 45  1  0
 28 46  1  0
M  CHG  4   9  -1  13  -1  14  -1  30  -1
M  END
>  <UniqueID>  (6) 
5

>  <SMILES>  (6) 
O=C(Cc1nc(=O)c2[n-]cnc2[n-]1)[N-]c1cc(S(=O)(=O)N2CCCCC2)ccc1[O-]

>  <Energy>  (6) 
97.98365562400107

>  <Genealogy>  (6) 
O=C(Cc1nc(=O)c2[n-]cnc2[n-]1)[N-]c1cc(S(=O)(=O)N2CCCCC2)ccc1[O-] (protonated)
O=C(Cc1nc(=O)c2[n-]cnc2[n-]1)[N-]c1cc(S(=O)(=O)N2CCCCC2)ccc1[O-] (3D coordinates assigned)
O=C(Cc1nc(=O)c2[n-]cnc2[n-]1)[N-]c1cc(S(=O)(=O)N2CCCCC2)ccc1[O-] (nonaromatic ring conformer: 97.98365562400107 kcal/mol)

>  <smiles>  (6) 
O=C(Cc1nc(=O)c2[nH]cnc2[nH]1)Nc1cc(S(=O)(=O)N2CCCCC2)ccc1O

>  <score_type>  (6) 
oracle

>  <origin>  (6) 
adg

>  <m_score__min__energy>  (6) 
-15.66

>  <m_primary>  (6) 
energy

$$$$
6:0
     RDKit          3D

 37 37  0  0  0  0  0  0  0  0999 V2000
   59.2671   29.0844   44.6308 H   0  0  0  0  0  0  0  0  0  0  0  0
   58.3520   29.1780   45.2340 C   0  0  0  0  0  0  0  0  0  0  0  0
   57.8820   30.4100   45.4780 C   0  0  0  0  0  0  0  0  0  0  0  0
   58.1203   30.8669   46.4499 H   0  0  0  0  0  0  0  0  0  0  0  0
   57.0500   31.2100   44.5110 C   0  0  0  0  0  0  0  0  0  0  0  0
   56.0262   30.8077   44.5014 H   0  0  0  0  0  0  0  0  0  0  0  0
   57.5081   31.1337   43.5138 H   0  0  0  0  0  0  0  0  0  0  0  0
   57.0010   32.6920   44.9090 C   0  0  0  0  0  0  0  0  0  0  0  0
   56.3810   32.7926   45.8120 H   0  0  0  0  0  0  0  0  0  0  0  0
   56.5793   33.2483   44.0589 H   0  0  0  0  0  0  0  0  0  0  0  0
   58.3930   33.2800   45.2010 C   0  0  0  0  0  0  0  0  0  0  0  0
   58.4457   34.2779   44.7413 H   0  0  0  0  0  0  0  0  0  0  0  0
   59.1217   32.5694   44.7839 H   0  0  0  0  0  0  0  0  0  0  0  0
   58.7360   33.4230   46.6950 C   0  0  0  0  0  0  0  0  0  0  0  0
   59.1852   32.4810   47.0427 H   0  0  0  0  0  0  0  0  0  0  0  0
   57.8005   33.6539   47.2255 H   0  0  0  0  0  0  0  0  0  0  0  0
   59.7190   34.5680   46.9810 C   0  0  0  0  0  0  0  0  0  0  0  0
   59.2385   35.5257   46.7322 H   0  0  0  0  0  0  0  0  0  0  0  0
   60.6199   34.4192   46.3675 H   0  0  0  0  0  0  0  0  0  0  0  0
   60.1290   34.5810   48.4580 C   0  0  0  0  0  0  0  0  0  0  0  0
   59.7271   35.4878   48.9337 H   0  0  0  0  0  0  0  0  0  0  0  0
   61.2275   34.5670   48.5140 H   0  0  0  0  0  0  0  0  0  0  0  0
   59.5930   33.3550   49.1920 C   0  0  0  0  0  0  0  0  0  0  0  0
   59.6640   33.5175   50.2776 H   0  0  0  0  0  0  0  0  0  0  0  0
   58.5414   33.1917   48.9137 H   0  0  0  0  0  0  0  0  0  0  0  0
   60.1873   32.4722   48.9137 H   0  0  0  0  0  0  0  0  0  0  0  0
   57.7170   27.9410   45.7250 C   0  0  0  0  0  0  0  0  0  0  0  0
   58.5040   26.9870   46.3870 C   0  0  0  0  0  0  0  0  0  0  0  0
   59.5815   27.1633   46.5208 H   0  0  0  0  0  0  0  0  0  0  0  0
   57.9250   25.8140   46.8770 C   0  0  0  0  0  0  0  0  0  0  0  0
   58.5509   25.0615   47.3791 H   0  0  0  0  0  0  0  0  0  0  0  0
   56.5530   25.5940   46.7310 C   0  0  0  0  0  0  0  0  0  0  0  0
   55.9840   24.4270   47.2260 O   0  0  0  0  0  0  0  0  0  0  0  0
   55.7550   26.5520   46.0930 C   0  0  0  0  0  0  0  0  0  0  0  0
   54.3890   26.3340   45.9520 O   0  0  0  0  0  0  0  0  0  0  0  0
   56.3310   27.7300   45.6000 C   0  0  0  0  0  0  0  0  0  0  0  0
   55.5210   28.6940   45.0050 O   0  0  0  0  0  0  0  0  0  0  0  0
  1  2  1  0
  2  3  2  0
  3  4  1  0
  3  5  1  0
  5  6  1  0
  5  7  1  0
  5  8  1  0
  8  9  1  0
  8 10  1  0
  8 11  1  0
 11 12  1  0
 11 13  1  0
 11 14  1  0
 14 15  1  0
 14 16  1  0
 14 17  1  0
 17 18  1  0
 17 19  1  0
 17 20  1  0
 20 21  1  0
 20 22  1  0
 20 23  1  0
 23 24  1  0
 23 25  1  0
 23 26  1  0
  2 27  1  0
 27 28  2  0
 28 29  1  0
 28 30  1  0
 30 31  1  0
 30 32  2  0
 32 33  1  0
 32 34  1  0
 34 35  1  0
 34 36  2  0
 36 37  1  0
 36 27  1  0
M  CHG  3  33  -1  35  -1  37  -1
M  END
>  <UniqueID>  (7) 
6

>  <SMILES>  (7) 
CCCCCCC/C=C\c1ccc([O-])c([O-])c1[O-]

>  <Energy>  (7) 
27.3933092212369

>  <Genealogy>  (7) 
CCCCCCCC=Cc1ccc([O-])c([O-])c1[O-] (protonated)
CCCCCCC/C=C\c1ccc([O-])c([O-])c1[O-] (cis-trans isomerization)
CCCCCCC/C=C\c1ccc([O-])c([O-])c1[O-] (3D coordinates assigned)
CCCCCCC/C=C\c1ccc([O-])c([O-])c1[O-] (optimized conformer: 27.3933092212369 kcal/mol)

>  <smiles>  (7) 
CCCCCCCC=Cc1ccc(O)c(O)c1O

>  <score_type>  (7) 
oracle

>  <origin>  (7) 
adg

>  <m_score__min__energy>  (7) 
-15.51

>  <m_primary>  (7) 
energy

$$$$
7:0
     RDKit          3D

 34 36  0  0  0  0  0  0  0  0999 V2000
   57.3930   33.9620   44.8940 C   0  0  0  0  0  0  0  0  0  0  0  0
   57.9190   32.7870   44.5360 C   0  0  0  0  0  0  0  0  0  0  0  0
   57.0720   31.6920   43.9540 C   0  0  0  0  0  0  0  0  0  0  0  0
   57.3090   30.4340   44.6570 N   0  0  0  0  0  0  0  0  0  0  0  0
   58.5440   30.0780   45.3600 C   0  0  0  0  0  0  0  0  0  0  0  0
   58.2390   28.7180   45.9290 C   0  0  0  0  0  0  0  0  0  0  0  0
   59.0660   27.9030   46.7080 C   0  0  0  0  0  0  0  0  0  0  0  0
   60.4040   28.3250   47.0090 N   0  0  0  0  0  0  0  0  0  0  0  0
   60.7850   29.2370   48.0460 C   0  0  0  0  0  0  0  0  0  0  0  0
   60.9900   28.7880   49.2050 O   0  0  0  0  0  0  0  0  0  0  0  0
   61.0130   30.6680   47.7740 C   0  0  0  0  0  0  0  0  0  0  0  0
   62.2230   31.2440   47.4320 C   0  0  0  0  0  0  0  0  0  0  0  0
   61.9640   32.5870   47.2650 C   0  0  0  0  0  0  0  0  0  0  0  0
   60.6160   32.7430   47.5100 C   0  0  0  0  0  0  0  0  0  0  0  0
   59.6550   34.3870   47.4360 Br  0  0  0  0  0  0  0  0  0  0  0  0
   60.0740   31.5860   47.8070 O   0  0  0  0  0  0  0  0  0  0  0  0
   58.5680   26.6470   47.1190 C   0  0  0  0  0  0  0  0  0  0  0  0
   57.2570   26.2530   46.7840 C   0  0  0  0  0  0  0  0  0  0  0  0
   56.4360   27.0970   46.0200 C   0  0  0  0  0  0  0  0  0  0  0  0
   55.1420   26.7170   45.6870 O   0  0  0  0  0  0  0  0  0  0  0  0
   56.9570   28.3220   45.6050 C   0  0  0  0  0  0  0  0  0  0  0  0
   56.3670   29.3790   44.8200 C   0  0  0  0  0  0  0  0  0  0  0  0
   55.1990   29.3870   44.3480 O   0  0  0  0  0  0  0  0  0  0  0  0
   58.0370   34.7466   45.3179 H   0  0  0  0  0  0  0  0  0  0  0  0
   56.3160   34.1447   44.7648 H   0  0  0  0  0  0  0  0  0  0  0  0
   58.9975   32.6179   44.6707 H   0  0  0  0  0  0  0  0  0  0  0  0
   56.0108   31.9656   44.0493 H   0  0  0  0  0  0  0  0  0  0  0  0
   57.3364   31.5627   42.8941 H   0  0  0  0  0  0  0  0  0  0  0  0
   59.3945   30.0322   44.6639 H   0  0  0  0  0  0  0  0  0  0  0  0
   58.8289   30.8120   46.1282 H   0  0  0  0  0  0  0  0  0  0  0  0
   63.1915   30.7353   47.3171 H   0  0  0  0  0  0  0  0  0  0  0  0
   62.6840   33.3727   46.9925 H   0  0  0  0  0  0  0  0  0  0  0  0
   59.2082   25.9712   47.7050 H   0  0  0  0  0  0  0  0  0  0  0  0
   56.8751   25.2788   47.1231 H   0  0  0  0  0  0  0  0  0  0  0  0
  1  2  2  0
  2  3  1  0
  3  4  1  0
  4  5  1  0
  5  6  1  0
  6  7  2  0
  7  8  1  0
  8  9  1  0
  9 10  2  0
  9 11  1  0
 11 12  2  0
 12 13  1  0
 13 14  2  0
 14 15  1  0
 14 16  1  0
  7 17  1  0
 17 18  2  0
 18 19  1  0
 19 20  1  0
 19 21  2  0
 21 22  1  0
 22 23  2  0
 22  4  1  0
 21  6  1  0
 16 11  1  0
  1 24  1  0
  1 25  1  0
  2 26  1  0
  3 27  1  0
  3 28  1  0
  5 29  1  0
  5 30  1  0
 12 31  1  0
 13 32  1  0
 17 33  1  0
 18 34  1  0
M  CHG  2   8  -1  20  -1
M  END
>  <UniqueID>  (8) 
7

>  <SMILES>  (8) 
C=CCN1Cc2c([N-]C(=O)c3ccc(Br)o3)ccc([O-])c2C1=O

>  <Energy>  (8) 
83.0684198281112

>  <Genealogy>  (8) 
C=CCN1Cc2c([N-]C(=O)c3ccc(Br)o3)ccc([O-])c2C1=O (protonated)
C=CCN1Cc2c([N-]C(=O)c3ccc(Br)o3)ccc([O-])c2C1=O (3D coordinates assigned)
C=CCN1Cc2c([N-]C(=O)c3ccc(Br)o3)ccc([O-])c2C1=O (nonaromatic ring conformer: 83.0684198281112 kcal/mol)

>  <smiles>  (8) 
C=CCN1Cc2c(NC(=O)c3ccc(Br)o3)ccc(O)c2C1=O

>  <score_type>  (8) 
oracle

>  <origin>  (8) 
adg

>  <m_score__min__energy>  (8) 
-11.94

>  <m_primary>  (8) 
energy

$$$$
8:0
     RDKit          3D

 41 43  0  0  0  0  0  0  0  0999 V2000
   55.8370   29.8000   43.5120 C   0  0  0  0  0  0  0  0  0  0  0  0
   56.2330   29.9370   44.8620 O   0  0  0  0  0  0  0  0  0  0  0  0
   57.4990   29.4890   45.2100 C   0  0  0  0  0  0  0  0  0  0  0  0
   57.8710   28.1640   45.1040 C   0  0  0  0  0  0  0  0  0  0  0  0
   59.1230   27.7140   45.4460 C   0  0  0  0  0  0  0  0  0  0  0  0
   60.0360   28.6360   45.9120 C   0  0  0  0  0  0  0  0  0  0  0  0
   59.6890   29.9870   46.0310 C   0  0  0  0  0  0  0  0  0  0  0  0
   58.4290   30.4220   45.6840 C   0  0  0  0  0  0  0  0  0  0  0  0
   58.0250   31.7910   45.7770 N   0  0  0  0  0  0  0  0  0  0  0  0
   57.8410   32.5030   44.5630 C   0  0  0  0  0  0  0  0  0  0  0  0
   58.0510   31.8550   43.4870 O   0  0  0  0  0  0  0  0  0  0  0  0
   57.4260   33.9260   44.4950 C   0  0  0  0  0  0  0  0  0  0  0  0
   58.7950   34.9370   45.1030 S   0  0  0  0  0  0  0  0  0  0  0  0
   59.4670   34.3440   46.6400 C   0  0  0  0  0  0  0  0  0  0  0  0
   58.8410   33.9050   47.7410 N   0  0  0  0  0  0  0  0  0  0  0  0
   59.7570   33.5560   48.6550 N   0  0  0  0  0  0  0  0  0  0  0  0
   60.9760   33.7620   48.1680 C   0  0  0  0  0  0  0  0  0  0  0  0
   62.2940   33.5460   48.7460 C   0  0  0  0  0  0  0  0  0  0  0  0
   62.4510   33.4760   50.1260 C   0  0  0  0  0  0  0  0  0  0  0  0
   63.6740   33.2750   50.7270 C   0  0  0  0  0  0  0  0  0  0  0  0
   64.7930   33.1350   49.9340 C   0  0  0  0  0  0  0  0  0  0  0  0
   64.6370   33.2040   48.5940 N   0  0  0  0  0  0  0  0  0  0  0  0
   63.4430   33.4010   48.0010 C   0  0  0  0  0  0  0  0  0  0  0  0
   63.3830   33.4550   46.7310 N   0  0  0  0  0  0  0  0  0  0  0  0
   60.7820   34.2520   46.9150 N   0  0  0  0  0  0  0  0  0  0  0  0
   54.7982   29.4406   43.4693 H   0  0  0  0  0  0  0  0  0  0  0  0
   55.9087   30.7752   43.0081 H   0  0  0  0  0  0  0  0  0  0  0  0
   56.4959   29.0776   43.0081 H   0  0  0  0  0  0  0  0  0  0  0  0
   57.1340   27.4380   44.7300 H   0  0  0  0  0  0  0  0  0  0  0  0
   59.3889   26.6509   45.3510 H   0  0  0  0  0  0  0  0  0  0  0  0
   61.0472   28.3068   46.1931 H   0  0  0  0  0  0  0  0  0  0  0  0
   60.4301   30.7085   46.4054 H   0  0  0  0  0  0  0  0  0  0  0  0
   57.8650   32.2780   46.6850 H   0  0  0  0  0  0  0  0  0  0  0  0
   57.1945   34.1980   43.4546 H   0  0  0  0  0  0  0  0  0  0  0  0
   56.5274   34.0916   45.1075 H   0  0  0  0  0  0  0  0  0  0  0  0
   59.5160   33.1840   49.5950 H   0  0  0  0  0  0  0  0  0  0  0  0
   61.5617   33.5857   50.7640 H   0  0  0  0  0  0  0  0  0  0  0  0
   63.7566   33.2269   51.8228 H   0  0  0  0  0  0  0  0  0  0  0  0
   65.7852   32.9717   50.3800 H   0  0  0  0  0  0  0  0  0  0  0  0
   65.4760   33.0990   48.0030 H   0  0  0  0  0  0  0  0  0  0  0  0
   62.5410   33.8350   46.2630 H   0  0  0  0  0  0  0  0  0  0  0  0
  1  2  1  0
  2  3  1  0
  3  4  2  0
  4  5  1  0
  5  6  2  0
  6  7  1  0
  7  8  2  0
  8  9  1  0
  9 10  1  0
 10 11  2  0
 10 12  1  0
 12 13  1  0
 13 14  1  0
 14 15  2  0
 15 16  1  0
 16 17  1  0
 17 18  1  0
 18 19  2  0
 19 20  1  0
 20 21  2  0
 21 22  1  0
 22 23  1  0
 23 24  2  3
 17 25  2  0
  8  3  1  0
 25 14  1  0
 23 18  1  0
  1 26  1  0
  1 27  1  0
  1 28  1  0
  4 29  1  0
  5 30  1  0
  6 31  1  0
  7 32  1  0
  9 33  1  0
 12 34  1  0
 12 35  1  0
 16 36  1  0
 19 37  1  0
 20 38  1  0
 21 39  1  0
 22 40  1  0
 24 41  1  0
M  END
>  <smiles>  (9) 
COc1ccccc1NC(=O)CSc1n[nH]c(-c2ccc[nH]c2=N)n1

>  <score_type>  (9) 
oracle

>  <origin>  (9) 
adg

>  <m_score__min__energy>  (9) 
-7.2300000000000004

>  <m_primary>  (9) 
energy

$$$$
9:0
     RDKit          3D

 35 37  0  0  0  0  0  0  0  0999 V2000
   56.7759   23.3090   46.9882 H   0  0  0  0  0  0  0  0  0  0  0  0
   56.7700   23.7580   45.9840 C   0  0  0  0  0  0  0  0  0  0  0  0
   56.7470   25.0970   45.9070 C   0  0  0  0  0  0  0  0  0  0  0  0
   58.2710   26.0500   45.9290 S   0  0  0  0  0  0  0  0  0  0  0  0
   57.2860   27.5240   45.5930 C   0  0  0  0  0  0  0  0  0  0  0  0
   57.7900   28.6850   45.3010 N   0  0  0  0  0  0  0  0  0  0  0  0
   56.8730   30.0140   44.6670 S   0  0  0  0  0  0  0  0  0  0  0  0
   56.8140   29.8980   43.1700 O   0  0  0  0  0  0  0  0  0  0  0  0
   55.4750   29.9530   45.2180 O   0  0  0  0  0  0  0  0  0  0  0  0
   57.6420   31.5400   45.0910 C   0  0  0  0  0  0  0  0  0  0  0  0
   57.7340   32.5740   44.1500 C   0  0  0  0  0  0  0  0  0  0  0  0
   57.3314   32.4308   43.1364 H   0  0  0  0  0  0  0  0  0  0  0  0
   58.3360   33.7870   44.4960 C   0  0  0  0  0  0  0  0  0  0  0  0
   58.4095   34.5935   43.7516 H   0  0  0  0  0  0  0  0  0  0  0  0
   58.8470   33.9810   45.7880 C   0  0  0  0  0  0  0  0  0  0  0  0
   59.5140   35.2780   46.1400 C   0  0  0  0  0  0  0  0  0  0  0  0
   59.5657   35.3786   47.2342 H   0  0  0  0  0  0  0  0  0  0  0  0
   60.5314   35.2924   45.7220 H   0  0  0  0  0  0  0  0  0  0  0  0
   58.9339   36.1139   45.7220 H   0  0  0  0  0  0  0  0  0  0  0  0
   58.7670   32.9380   46.7240 C   0  0  0  0  0  0  0  0  0  0  0  0
   59.1799   33.0759   47.7342 H   0  0  0  0  0  0  0  0  0  0  0  0
   58.1650   31.7250   46.3780 C   0  0  0  0  0  0  0  0  0  0  0  0
   58.1015   30.9134   47.1178 H   0  0  0  0  0  0  0  0  0  0  0  0
   55.8790   27.3280   45.6240 N   0  0  0  0  0  0  0  0  0  0  0  0
   55.1710   28.0860   45.5000 H   0  0  0  0  0  0  0  0  0  0  0  0
   55.5650   25.9640   45.8280 C   0  0  0  0  0  0  0  0  0  0  0  0
   54.3800   25.5760   45.9950 O   0  0  0  0  0  0  0  0  0  0  0  0
   56.7880   22.8410   44.8320 C   0  0  0  0  0  0  0  0  0  0  0  0
   57.7630   21.4780   44.7240 S   0  0  0  0  0  0  0  0  0  0  0  0
   57.3710   21.0910   43.1350 C   0  0  0  0  0  0  0  0  0  0  0  0
   57.7475   20.2253   42.5703 H   0  0  0  0  0  0  0  0  0  0  0  0
   56.4900   22.0530   42.6590 C   0  0  0  0  0  0  0  0  0  0  0  0
   56.0775   22.0390   41.6394 H   0  0  0  0  0  0  0  0  0  0  0  0
   56.1760   23.0420   43.5980 C   0  0  0  0  0  0  0  0  0  0  0  0
   55.5125   23.8925   43.3827 H   0  0  0  0  0  0  0  0  0  0  0  0
  1  2  1  0
  2  3  2  3
  3  4  1  0
  4  5  1  0
  5  6  2  0
  6  7  1  0
  7  8  2  0
  7  9  2  0
  7 10  1  0
 10 11  2  0
 11 12  1  0
 11 13  1  0
 13 14  1  0
 13 15  2  0
 15 16  1  0
 16 17  1  0
 16 18  1  0
 16 19  1  0
 15 20  1  0
 20 21  1  0
 20 22  2  0
 22 23  1  0
  5 24  1  0
 24 25  1  0
 24 26  1  0
 26 27  2  0
  2 28  1  0
 28 29  1  0
 29 30  1  0
 30 31  1  0
 30 32  2  0
 32 33  1  0
 32 34  1  0
 34 35  1  0
 26  3  1  0
 34 28  2  0
 22 10  1  0
M  END
>  <UniqueID>  (10) 
8

>  <SMILES>  (10) 
Cc1ccc(S(=O)(=O)/N=C2/NC(=O)C(=Cc3cccs3)S2)cc1

>  <Energy>  (10) 
90.2920629460332

>  <Genealogy>  (10) 
Cc1ccc(S(=O)(=O)/N=C2/NC(=O)C(=Cc3cccs3)S2)cc1 (cis-trans isomerization)
Cc1ccc(S(=O)(=O)/N=C2/NC(=O)C(=Cc3cccs3)S2)cc1 (3D coordinates assigned)
Cc1ccc(S(=O)(=O)/N=C2/NC(=O)C(=Cc3cccs3)S2)cc1 (nonaromatic ring conformer: 90.2920629460332 kcal/mol)

>  <smiles>  (10) 
Cc1ccc(S(=O)(=O)N=C2NC(=O)C(=Cc3cccs3)S2)cc1

>  <score_type>  (10) 
oracle

>  <origin>  (10) 
adg

>  <m_score__min__energy>  (10) 
-9.5099999999999998

>  <m_primary>  (10) 
energy

$$$$
10:0
     RDKit          3D

 71 75  0  0  1  0  0  0  0  0999 V2000
   67.7540   34.4240   55.7670 C   0  0  0  0  0  0  0  0  0  0  0  0
   67.1470   34.8690   54.4940 C   0  0  0  0  0  0  0  0  0  0  0  0
   66.6640   36.1430   54.2880 C   0  0  0  0  0  0  0  0  0  0  0  0
   66.1060   36.5740   53.1080 C   0  0  0  0  0  0  0  0  0  0  0  0
   65.5010   38.1870   52.8940 Cl  0  0  0  0  0  0  0  0  0  0  0  0
   66.0250   35.6690   52.0620 C   0  0  0  0  0  0  0  0  0  0  0  0
   66.5010   34.3960   52.2510 C   0  0  0  0  0  0  0  0  0  0  0  0
   66.4010   33.4720   51.1310 C   0  0  0  0  0  0  0  0  0  0  0  0
   67.4230   33.1590   50.4690 O   0  0  0  0  0  0  0  0  0  0  0  0
   65.1120   32.9550   50.8320 N   0  0  0  0  0  0  0  0  0  0  0  0
   63.9190   33.3060   51.5860 C   0  0  0  0  0  0  0  0  0  0  0  0
   62.7190   33.1290   50.7140 C   0  0  0  0  0  0  0  0  0  0  0  0
   63.0000   33.5160   49.3040 C   0  0  0  0  0  0  0  0  0  0  0  0
   61.8870   33.3760   48.4240 N   0  0  0  0  0  0  0  0  0  0  0  0
   60.5980   33.3260   49.0280 C   0  0  0  0  0  0  0  0  0  0  0  0
   59.6030   32.8570   48.0080 C   0  0  0  0  0  0  0  0  0  0  0  0
   59.5280   33.8970   46.8870 C   0  0  0  0  0  0  0  0  0  0  0  0
   58.6200   33.3910   45.8460 C   0  0  0  0  0  0  0  0  0  0  0  0
   57.9550   32.1950   45.8990 C   0  0  0  0  0  0  0  0  0  0  0  0
   57.2060   32.0610   44.7600 C   0  0  0  0  0  0  0  0  0  0  0  0
   56.4690   31.0470   44.5050 N   0  0  0  0  0  0  0  0  0  0  0  0
   56.6460   29.7370   44.8660 C   0  0  0  0  0  0  0  0  0  0  0  0
   55.5100   29.0230   44.8870 O   0  0  0  0  0  0  0  0  0  0  0  0
   57.7790   28.9410   45.2230 C   0  0  0  0  0  0  0  0  0  0  0  0
   59.0010   29.2550   44.6170 C   0  0  0  0  0  0  0  0  0  0  0  0
   60.1500   28.5350   44.9080 C   0  0  0  0  0  0  0  0  0  0  0  0
   60.0690   27.4980   45.8090 C   0  0  0  0  0  0  0  0  0  0  0  0
   58.8720   27.1680   46.4240 C   0  0  0  0  0  0  0  0  0  0  0  0
   57.7190   27.8840   46.1390 C   0  0  0  0  0  0  0  0  0  0  0  0
   57.4190   33.1830   44.0120 N   0  0  0  0  0  0  0  0  0  0  0  0
   58.2610   33.9580   44.6750 N   0  0  0  0  0  0  0  0  0  0  0  0
   60.9030   33.9630   46.2640 C   0  0  0  0  0  0  0  0  0  0  0  0
   62.0040   34.2050   47.2760 C   0  0  0  0  0  0  0  0  0  0  0  0
   64.1790   32.8480   48.6700 C   0  0  0  0  0  0  0  0  0  0  0  0
   64.8910   32.0190   49.7170 C   0  0  0  0  0  0  0  0  0  0  0  0
   67.0570   33.9730   53.4330 C   0  0  0  0  0  0  0  0  0  0  0  0
   67.5520   32.5610   53.5600 C   0  0  0  0  0  0  0  0  0  0  0  0
   67.1845   34.8415   56.6104 H   0  0  0  0  0  0  0  0  0  0  0  0
   67.7335   33.3254   55.8187 H   0  0  0  0  0  0  0  0  0  0  0  0
   68.7955   34.7741   55.8187 H   0  0  0  0  0  0  0  0  0  0  0  0
   66.7290   36.8599   55.1198 H   0  0  0  0  0  0  0  0  0  0  0  0
   65.5870   35.9656   51.0975 H   0  0  0  0  0  0  0  0  0  0  0  0
   63.8341   32.6520   52.4664 H   0  0  0  0  0  0  0  0  0  0  0  0
   63.9849   34.3529   51.9171 H   0  0  0  0  0  0  0  0  0  0  0  0
   62.4128   32.0728   50.7394 H   0  0  0  0  0  0  0  0  0  0  0  0
   61.9193   33.7810   51.0953 H   0  0  0  0  0  0  0  0  0  0  0  0
   63.2402   34.5822   49.4285 H   0  0  0  0  0  0  0  0  0  0  0  0
   60.6146   32.6266   49.8769 H   0  0  0  0  0  0  0  0  0  0  0  0
   60.3171   34.3254   49.3916 H   0  0  0  0  0  0  0  0  0  0  0  0
   59.9234   31.8891   47.5951 H   0  0  0  0  0  0  0  0  0  0  0  0
   58.6145   32.7347   48.4748 H   0  0  0  0  0  0  0  0  0  0  0  0
   59.1886   34.8699   47.2721 H   0  0  0  0  0  0  0  0  0  0  0  0
   58.0127   31.4642   46.7191 H   0  0  0  0  0  0  0  0  0  0  0  0
   59.0508   30.0863   43.8983 H   0  0  0  0  0  0  0  0  0  0  0  0
   61.1070   28.7878   44.4282 H   0  0  0  0  0  0  0  0  0  0  0  0
   60.9736   26.9188   46.0460 H   0  0  0  0  0  0  0  0  0  0  0  0
   58.8361   26.3347   47.1412 H   0  0  0  0  0  0  0  0  0  0  0  0
   56.7681   27.6243   46.6272 H   0  0  0  0  0  0  0  0  0  0  0  0
   56.9850   33.3870   43.0760 H   0  0  0  0  0  0  0  0  0  0  0  0
   58.5870   34.8990   44.2990 H   0  0  0  0  0  0  0  0  0  0  0  0
   61.1014   33.0097   45.7523 H   0  0  0  0  0  0  0  0  0  0  0  0
   60.9062   34.8138   45.5667 H   0  0  0  0  0  0  0  0  0  0  0  0
   62.9733   34.0057   46.7956 H   0  0  0  0  0  0  0  0  0  0  0  0
   61.9226   35.2495   47.6114 H   0  0  0  0  0  0  0  0  0  0  0  0
   63.8389   32.1968   47.8512 H   0  0  0  0  0  0  0  0  0  0  0  0
   64.8646   33.6063   48.2639 H   0  0  0  0  0  0  0  0  0  0  0  0
   64.2648   31.1729   50.0365 H   0  0  0  0  0  0  0  0  0  0  0  0
   65.8284   31.5824   49.3420 H   0  0  0  0  0  0  0  0  0  0  0  0
   67.6439   32.2990   54.6244 H   0  0  0  0  0  0  0  0  0  0  0  0
   66.8398   31.8777   53.0743 H   0  0  0  0  0  0  0  0  0  0  0  0
   68.5350   32.4720   53.0743 H   0  0  0  0  0  0  0  0  0  0  0  0
  1  2  1  0
  2  3  2  0
  3  4  1  0
  4  5  1  0
  4  6  2  0
  6  7  1  0
  7  8  1  0
  8  9  2  0
  8 10  1  0
 10 11  1  0
 11 12  1  0
 12 13  1  0
 13 14  1  0
 14 15  1  0
 15 16  1  0
 16 17  1  0
 17 18  1  0
 18 19  2  0
 19 20  1  0
 20 21  2  0
 21 22  1  0
 22 23  2  0
 22 24  1  0
 24 25  2  0
 25 26  1  0
 26 27  2  0
 27 28  1  0
 28 29  2  0
 20 30  1  0
 30 31  1  0
 17 32  1  0
 32 33  1  0
 13 34  1  0
 34 35  1  0
  7 36  2  0
 36 37  1  0
 36  2  1  0
 35 10  1  0
 33 14  1  0
 31 18  1  0
 29 24  1  0
  1 38  1  0
  1 39  1  0
  1 40  1  0
  3 41  1  0
  6 42  1  0
 11 43  1  0
 11 44  1  0
 12 45  1  0
 12 46  1  0
 13 47  1  0
 15 48  1  0
 15 49  1  0
 16 50  1  0
 16 51  1  0
 17 52  1  0
 19 53  1  0
 25 54  1  0
 26 55  1  0
 27 56  1  0
 28 57  1  0
 29 58  1  0
 30 59  1  0
 31 60  1  0
 32 61  1  0
 32 62  1  0
 33 63  1  0
 33 64  1  0
 34 65  1  0
 34 66  1  0
 35 67  1  0
 35 68  1  0
 37 69  1  0
 37 70  1  0
 37 71  1  0
M  END
>  <smiles>  (11) 
Cc1cc(Cl)cc(C(=O)N2CCC(N3CCC(c4cc(=NC(=O)c5ccccc5)[nH][nH]4)CC3)CC2)c1C

>  <score_type>  (11) 
oracle

>  <origin>  (11) 
adg

>  <m_score__min__energy>  (11) 
-10.130000000000001

>  <m_primary>  (11) 
energy

$$$$
11:0
     RDKit          3D

 32 34  0  0  0  0  0  0  0  0999 V2000
   59.0940   34.9320   45.1360 C   0  0  0  0  0  0  0  0  0  0  0  0
   58.6870   33.7810   46.0500 C   0  0  0  0  0  0  0  0  0  0  0  0
   58.2600   32.6190   45.2540 N   0  0  0  0  0  0  0  0  0  0  0  0
   57.7960   32.8200   43.9840 C   0  0  0  0  0  0  0  0  0  0  0  0
   57.4110   31.7720   43.2160 N   0  0  0  0  0  0  0  0  0  0  0  0
   57.4850   30.4990   43.6760 C   0  0  0  0  0  0  0  0  0  0  0  0
   57.9760   30.2430   44.9600 C   0  0  0  0  0  0  0  0  0  0  0  0
   58.0760   28.8450   45.4510 C   0  0  0  0  0  0  0  0  0  0  0  0
   59.3300   28.3020   45.7810 C   0  0  0  0  0  0  0  0  0  0  0  0
   59.4330   26.9910   46.2510 C   0  0  0  0  0  0  0  0  0  0  0  0
   58.2850   26.2010   46.4040 C   0  0  0  0  0  0  0  0  0  0  0  0
   58.3820   24.9200   46.8620 N   0  0  0  0  0  0  0  0  0  0  0  0
   57.2710   24.1500   47.0170 C   0  0  0  0  0  0  0  0  0  0  0  0
   57.3750   22.9690   47.4410 O   0  0  0  0  0  0  0  0  0  0  0  0
   56.0450   24.6500   46.7150 N   0  0  0  0  0  0  0  0  0  0  0  0
   55.8920   25.9180   46.2550 C   0  0  0  0  0  0  0  0  0  0  0  0
   54.7350   26.3410   45.9870 O   0  0  0  0  0  0  0  0  0  0  0  0
   57.0200   26.7370   46.0830 C   0  0  0  0  0  0  0  0  0  0  0  0
   56.9220   28.0590   45.6110 C   0  0  0  0  0  0  0  0  0  0  0  0
   58.3620   31.3440   45.7510 C   0  0  0  0  0  0  0  0  0  0  0  0
   58.7850   31.1530   46.9250 O   0  0  0  0  0  0  0  0  0  0  0  0
   59.3991   35.7947   45.7465 H   0  0  0  0  0  0  0  0  0  0  0  0
   59.9350   34.6163   44.5011 H   0  0  0  0  0  0  0  0  0  0  0  0
   58.2415   35.2152   44.5011 H   0  0  0  0  0  0  0  0  0  0  0  0
   59.5447   33.4954   46.6767 H   0  0  0  0  0  0  0  0  0  0  0  0
   57.8483   34.1075   46.6824 H   0  0  0  0  0  0  0  0  0  0  0  0
   57.7346   33.8419   43.5817 H   0  0  0  0  0  0  0  0  0  0  0  0
   57.1579   29.6652   43.0375 H   0  0  0  0  0  0  0  0  0  0  0  0
   60.2368   28.9143   45.6682 H   0  0  0  0  0  0  0  0  0  0  0  0
   60.4202   26.5760   46.5025 H   0  0  0  0  0  0  0  0  0  0  0  0
   59.3170   24.5170   47.1010 H   0  0  0  0  0  0  0  0  0  0  0  0
   55.9358   28.4799   45.3657 H   0  0  0  0  0  0  0  0  0  0  0  0
  1  2  1  0
  2  3  1  0
  3  4  1  0
  4  5  2  0
  5  6  1  0
  6  7  2  0
  7  8  1  0
  8  9  2  0
  9 10  1  0
 10 11  2  0
 11 12  1  0
 12 13  1  0
 13 14  2  0
 13 15  1  0
 15 16  1  0
 16 17  2  0
 16 18  1  0
 18 19  2  0
  7 20  1  0
 20 21  2  0
 20  3  1  0
 19  8  1  0
 18 11  1  0
  1 22  1  0
  1 23  1  0
  1 24  1  0
  2 25  1  0
  2 26  1  0
  4 27  1  0
  6 28  1  0
  9 29  1  0
 10 30  1  0
 12 31  1  0
 19 32  1  0
M  CHG  1  15  -1
M  END
>  <UniqueID>  (12) 
9

>  <SMILES>  (12) 
CCn1cncc(-c2ccc3[nH]c(=O)[n-]c(=O)c3c2)c1=O

>  <Energy>  (12) 
46.37923648238317

>  <Genealogy>  (12) 
CCn1cncc(-c2ccc3[nH]c(=O)[n-]c(=O)c3c2)c1=O (protonated)
CCn1cncc(-c2ccc3[nH]c(=O)[n-]c(=O)c3c2)c1=O (3D coordinates assigned)
CCn1cncc(-c2ccc3[nH]c(=O)[n-]c(=O)c3c2)c1=O (optimized conformer: 46.37923648238317 kcal/mol)

>  <smiles>  (12) 
CCn1cncc(-c2ccc3[nH]c(=O)[nH]c(=O)c3c2)c1=O

>  <score_type>  (12) 
oracle

>  <origin>  (12) 
adg

>  <m_score__min__energy>  (12) 
-9.25

>  <m_primary>  (12) 
energy

$$$$
12:0
     RDKit          3D

 55 57  0  0  0  0  0  0  0  0999 V2000
   63.7190   33.1420   49.6990 C   0  0  0  0  0  0  0  0  0  0  0  0
   62.8630   31.9190   49.8840 C   0  0  0  0  0  0  0  0  0  0  0  0
   63.3350   30.8630   50.6840 C   0  0  0  0  0  0  0  0  0  0  0  0
   62.5530   29.7250   50.8930 C   0  0  0  0  0  0  0  0  0  0  0  0
   61.2860   29.6350   50.3190 C   0  0  0  0  0  0  0  0  0  0  0  0
   60.7980   30.6830   49.5350 C   0  0  0  0  0  0  0  0  0  0  0  0
   61.5730   31.8310   49.3190 C   0  0  0  0  0  0  0  0  0  0  0  0
   61.0470   32.8870   48.5060 N   0  0  0  0  0  0  0  0  0  0  0  0
   59.7540   33.4860   48.8600 C   0  0  0  0  0  0  0  0  0  0  0  0
   59.3870   34.6240   47.9020 C   0  0  0  0  0  0  0  0  0  0  0  0
   59.6100   34.2010   46.5140 N   0  0  0  0  0  0  0  0  0  0  0  0
   58.7120   34.6260   45.4820 C   0  0  0  0  0  0  0  0  0  0  0  0
   59.1500   35.3030   44.5130 O   0  0  0  0  0  0  0  0  0  0  0  0
   57.2730   34.1920   45.4900 C   0  0  0  0  0  0  0  0  0  0  0  0
   57.1610   32.6680   45.5040 C   0  0  0  0  0  0  0  0  0  0  0  0
   57.2280   32.1500   44.1360 N   0  0  0  0  0  0  0  0  0  0  0  0
   57.0760   30.4200   44.1430 S   0  0  0  0  0  0  0  0  0  0  0  0
   57.0190   29.9390   42.7210 O   0  0  0  0  0  0  0  0  0  0  0  0
   55.7990   30.0450   44.8460 O   0  0  0  0  0  0  0  0  0  0  0  0
   58.4710   29.6810   44.9540 C   0  0  0  0  0  0  0  0  0  0  0  0
   59.3670   30.5200   45.6380 C   0  0  0  0  0  0  0  0  0  0  0  0
   60.4360   29.9850   46.3590 C   0  0  0  0  0  0  0  0  0  0  0  0
   60.6220   28.6040   46.4110 C   0  0  0  0  0  0  0  0  0  0  0  0
   59.7520   27.7550   45.7250 C   0  0  0  0  0  0  0  0  0  0  0  0
   58.6860   28.2790   44.9740 C   0  0  0  0  0  0  0  0  0  0  0  0
   57.8400   27.3330   44.2180 C   0  0  0  0  0  0  0  0  0  0  0  0
   57.6520   27.4850   42.8110 N   0  0  0  0  0  0  0  0  0  0  0  0
   57.3170   26.3530   44.8100 O   0  0  0  0  0  0  0  0  0  0  0  0
   60.8410   33.4920   46.1330 C   0  0  0  0  0  0  0  0  0  0  0  0
   61.7920   33.3330   47.3240 C   0  0  0  0  0  0  0  0  0  0  0  0
   64.0008   33.5446   50.6831 H   0  0  0  0  0  0  0  0  0  0  0  0
   64.6269   32.8729   49.1393 H   0  0  0  0  0  0  0  0  0  0  0  0
   63.1553   33.9029   49.1393 H   0  0  0  0  0  0  0  0  0  0  0  0
   64.3292   30.9341   51.1493 H   0  0  0  0  0  0  0  0  0  0  0  0
   62.9369   28.8997   51.5106 H   0  0  0  0  0  0  0  0  0  0  0  0
   60.6703   28.7384   50.4835 H   0  0  0  0  0  0  0  0  0  0  0  0
   59.7978   30.6069   49.0836 H   0  0  0  0  0  0  0  0  0  0  0  0
   58.9747   32.7112   48.8112 H   0  0  0  0  0  0  0  0  0  0  0  0
   59.8292   33.8987   49.8769 H   0  0  0  0  0  0  0  0  0  0  0  0
   58.3275   34.8871   48.0373 H   0  0  0  0  0  0  0  0  0  0  0  0
   60.0182   35.4981   48.1198 H   0  0  0  0  0  0  0  0  0  0  0  0
   56.7800   34.5972   46.3860 H   0  0  0  0  0  0  0  0  0  0  0  0
   56.7875   34.5708   44.5785 H   0  0  0  0  0  0  0  0  0  0  0  0
   57.9883   32.2470   46.0942 H   0  0  0  0  0  0  0  0  0  0  0  0
   56.1991   32.3800   45.9532 H   0  0  0  0  0  0  0  0  0  0  0  0
   59.2245   31.6102   45.6050 H   0  0  0  0  0  0  0  0  0  0  0  0
   61.1323   30.6535   46.8866 H   0  0  0  0  0  0  0  0  0  0  0  0
   61.4551   28.1833   46.9932 H   0  0  0  0  0  0  0  0  0  0  0  0
   59.9021   26.6663   45.7726 H   0  0  0  0  0  0  0  0  0  0  0  0
   58.1980   28.1910   42.2710 H   0  0  0  0  0  0  0  0  0  0  0  0
   57.0240   26.8310   42.2930 H   0  0  0  0  0  0  0  0  0  0  0  0
   60.5753   32.4946   45.7527 H   0  0  0  0  0  0  0  0  0  0  0  0
   61.3535   34.0835   45.3600 H   0  0  0  0  0  0  0  0  0  0  0  0
   62.5631   32.5884   47.0773 H   0  0  0  0  0  0  0  0  0  0  0  0
   62.2645   34.3025   47.5402 H   0  0  0  0  0  0  0  0  0  0  0  0
  1  2  1  0
  2  3  2  0
  3  4  1  0
  4  5  2  0
  5  6  1  0
  6  7  2  0
  7  8  1  0
  8  9  1  0
  9 10  1  0
 10 11  1  0
 11 12  1  0
 12 13  2  0
 12 14  1  0
 14 15  1  0
 15 16  1  0
 16 17  1  0
 17 18  2  0
 17 19  2  0
 17 20  1  0
 20 21  2  0
 21 22  1  0
 22 23  2  0
 23 24  1  0
 24 25  2  0
 25 26  1  0
 26 27  1  0
 26 28  2  0
 11 29  1  0
 29 30  1  0
  7  2  1  0
 30  8  1  0
 25 20  1  0
  1 31  1  0
  1 32  1  0
  1 33  1  0
  3 34  1  0
  4 35  1  0
  5 36  1  0
  6 37  1  0
  9 38  1  0
  9 39  1  0
 10 40  1  0
 10 41  1  0
 14 42  1  0
 14 43  1  0
 15 44  1  0
 15 45  1  0
 21 46  1  0
 22 47  1  0
 23 48  1  0
 24 49  1  0
 27 50  1  0
 27 51  1  0
 29 52  1  0
 29 53  1  0
 30 54  1  0
 30 55  1  0
M  CHG  1  16  -1
M  END
>  <UniqueID>  (13) 
10

>  <SMILES>  (13) 
Cc1ccccc1N1CCN(C(=O)CC[N-]S(=O)(=O)c2ccccc2C(N)=O)CC1

>  <Energy>  (13) 
65.65070129201419

>  <Genealogy>  (13) 
Cc1ccccc1N1CCN(C(=O)CC[N-]S(=O)(=O)c2ccccc2C(N)=O)CC1 (protonated)
Cc1ccccc1N1CCN(C(=O)CC[N-]S(=O)(=O)c2ccccc2C(N)=O)CC1 (3D coordinates assigned)
Cc1ccccc1N1CCN(C(=O)CC[N-]S(=O)(=O)c2ccccc2C(N)=O)CC1 (nonaromatic ring conformer: 65.65070129201419 kcal/mol)

>  <smiles>  (13) 
Cc1ccccc1N1CCN(C(=O)CCNS(=O)(=O)c2ccccc2C(N)=O)CC1

>  <score_type>  (13) 
oracle

>  <origin>  (13) 
adg

>  <m_score__min__energy>  (13) 
-11.470000000000001

>  <m_primary>  (13) 
energy

$$$$
13:0
     RDKit          3D

 66 70  0  0  0  0  0  0  0  0999 V2000
   60.1800   29.7910   50.4570 H   0  0  0  0  0  0  0  0  0  0  0  0
   59.9450   28.9700   49.9130 O   0  0  0  0  0  0  0  0  0  0  0  0
   60.1570   28.9190   48.5350 C   0  0  0  0  0  0  0  0  0  0  0  0
   60.2350   27.6760   47.8880 C   0  0  0  0  0  0  0  0  0  0  0  0
   60.0900   26.7518   48.4666 H   0  0  0  0  0  0  0  0  0  0  0  0
   60.4950   27.5990   46.5160 C   0  0  0  0  0  0  0  0  0  0  0  0
   60.5800   26.3310   45.9200 O   0  0  0  0  0  0  0  0  0  0  0  0
   59.8450   25.1900   46.3560 C   0  0  0  0  0  0  0  0  0  0  0  0
   60.1061   24.3245   45.7293 H   0  0  0  0  0  0  0  0  0  0  0  0
   60.0947   24.9725   47.4050 H   0  0  0  0  0  0  0  0  0  0  0  0
   58.3810   25.4650   46.2400 C   0  0  0  0  0  0  0  0  0  0  0  0
   57.9090   26.7040   45.9340 N   0  0  0  0  0  0  0  0  0  0  0  0
   56.5600   26.7330   45.9050 C   0  0  0  0  0  0  0  0  0  0  0  0
   55.8990   27.8150   45.6180 N   0  0  0  0  0  0  0  0  0  0  0  0
   56.4090   28.9680   44.9310 C   0  0  0  0  0  0  0  0  0  0  0  0
   55.7430   29.4300   43.7910 C   0  0  0  0  0  0  0  0  0  0  0  0
   54.8108   28.9431   43.4686 H   0  0  0  0  0  0  0  0  0  0  0  0
   56.2530   30.5060   43.0580 C   0  0  0  0  0  0  0  0  0  0  0  0
   55.7080   30.8730   42.1758 H   0  0  0  0  0  0  0  0  0  0  0  0
   57.4590   31.1230   43.4410 C   0  0  0  0  0  0  0  0  0  0  0  0
   58.0170   32.2450   42.6470 C   0  0  0  0  0  0  0  0  0  0  0  0
   58.0390   32.1670   41.3890 O   0  0  0  0  0  0  0  0  0  0  0  0
   58.6180   33.3650   43.3240 N   0  0  0  0  0  0  0  0  0  0  0  0
   58.5770   33.7050   44.5830 C   0  0  0  0  0  0  0  0  0  0  0  0
   59.6670   34.3270   45.1100 N   0  0  0  0  0  0  0  0  0  0  0  0
   59.7250   34.7240   46.4100 C   0  0  0  0  0  0  0  0  0  0  0  0
   60.6249   35.2289   46.7912 H   0  0  0  0  0  0  0  0  0  0  0  0
   58.6440   34.4910   47.2590 C   0  0  0  0  0  0  0  0  0  0  0  0
   58.6799   34.8181   48.3086 H   0  0  0  0  0  0  0  0  0  0  0  0
   57.5180   33.8390   46.7620 C   0  0  0  0  0  0  0  0  0  0  0  0
   56.6612   33.6418   47.4230 H   0  0  0  0  0  0  0  0  0  0  0  0
   57.4750   33.4350   45.4250 C   0  0  0  0  0  0  0  0  0  0  0  0
   56.5912   32.9115   45.0316 H   0  0  0  0  0  0  0  0  0  0  0  0
   58.1370   30.6410   44.5750 C   0  0  0  0  0  0  0  0  0  0  0  0
   59.0798   31.1131   44.8886 H   0  0  0  0  0  0  0  0  0  0  0  0
   57.6230   29.5680   45.3060 C   0  0  0  0  0  0  0  0  0  0  0  0
   58.1720   29.1900   46.1811 H   0  0  0  0  0  0  0  0  0  0  0  0
   55.9000   25.2110   46.2210 S   0  0  0  0  0  0  0  0  0  0  0  0
   57.4050   24.4870   46.4260 C   0  0  0  0  0  0  0  0  0  0  0  0
   57.5867   23.4287   46.6647 H   0  0  0  0  0  0  0  0  0  0  0  0
   60.6750   28.7870   45.7830 C   0  0  0  0  0  0  0  0  0  0  0  0
   60.8818   28.7389   44.7037 H   0  0  0  0  0  0  0  0  0  0  0  0
   60.5920   30.0270   46.4210 C   0  0  0  0  0  0  0  0  0  0  0  0
   60.7436   30.9493   45.8411 H   0  0  0  0  0  0  0  0  0  0  0  0
   60.3170   30.1070   47.7950 C   0  0  0  0  0  0  0  0  0  0  0  0
   60.2550   31.4390   48.4400 C   0  0  0  0  0  0  0  0  0  0  0  0
   59.3440   31.6610   49.2820 O   0  0  0  0  0  0  0  0  0  0  0  0
   61.2170   32.5230   48.1480 C   0  0  0  0  0  0  0  0  0  0  0  0
   60.8461   33.5579   48.1089 H   0  0  0  0  0  0  0  0  0  0  0  0
   62.5190   32.3020   47.9290 C   0  0  0  0  0  0  0  0  0  0  0  0
   62.8686   32.1955   46.8915 H   0  0  0  0  0  0  0  0  0  0  0  0
   63.5080   32.1950   49.0260 C   0  0  0  0  0  0  0  0  0  0  0  0
   64.6160   33.0570   49.0110 C   0  0  0  0  0  0  0  0  0  0  0  0
   64.7256   33.7904   48.1985 H   0  0  0  0  0  0  0  0  0  0  0  0
   65.5800   32.9910   50.0190 C   0  0  0  0  0  0  0  0  0  0  0  0
   66.4505   33.6626   49.9853 H   0  0  0  0  0  0  0  0  0  0  0  0
   65.4490   32.0790   51.0710 C   0  0  0  0  0  0  0  0  0  0  0  0
   66.4490   32.0470   52.0540 O   0  0  0  0  0  0  0  0  0  0  0  0
   67.8140   32.3840   51.8250 C   0  0  0  0  0  0  0  0  0  0  0  0
   68.3272   32.5107   52.7897 H   0  0  0  0  0  0  0  0  0  0  0  0
   68.2997   31.5788   51.2543 H   0  0  0  0  0  0  0  0  0  0  0  0
   67.8691   33.3227   51.2543 H   0  0  0  0  0  0  0  0  0  0  0  0
   64.3260   31.2330   51.1090 C   0  0  0  0  0  0  0  0  0  0  0  0
   64.2104   30.5163   51.9354 H   0  0  0  0  0  0  0  0  0  0  0  0
   63.3540   31.2960   50.1030 C   0  0  0  0  0  0  0  0  0  0  0  0
   62.2310   30.4820   50.2060 O   0  0  0  0  0  0  0  0  0  0  0  0
  1  2  1  0
  2  3  1  0
  3  4  2  0
  4  5  1  0
  4  6  1  0
  6  7  1  0
  7  8  1  0
  8  9  1  0
  8 10  1  0
  8 11  1  0
 11 12  1  0
 12 13  1  0
 13 14  2  3
 14 15  1  0
 15 16  2  0
 16 17  1  0
 16 18  1  0
 18 19  1  0
 18 20  2  0
 20 21  1  0
 21 22  2  0
 21 23  1  0
 23 24  2  3
 24 25  1  0
 25 26  1  0
 26 27  1  0
 26 28  2  0
 28 29  1  0
 28 30  1  0
 30 31  1  0
 30 32  2  0
 32 33  1  0
 20 34  1  0
 34 35  1  0
 34 36  2  0
 36 37  1  0
 13 38  1  0
 38 39  1  0
 39 40  1  0
  6 41  2  0
 41 42  1  0
 41 43  1  0
 43 44  1  0
 43 45  2  0
 45 46  1  0
 46 47  2  0
 46 48  1  0
 48 49  1  0
 48 50  2  0
 50 51  1  0
 50 52  1  0
 52 53  2  0
 53 54  1  0
 53 55  1  0
 55 56  1  0
 55 57  2  0
 57 58  1  0
 58 59  1  0
 59 60  1  0
 59 61  1  0
 59 62  1  0
 57 63  1  0
 63 64  1  0
 63 65  2  0
 65 66  1  0
 45  3  1  0
 65 52  1  0
 39 11  2  0
 36 15  1  0
 32 24  1  0
M  CHG  3  12  -1  25  -1  66  -1
M  END
>  <UniqueID>  (14) 
11

>  <SMILES>  (14) 
COc1ccc(/C=C/C(=O)c2ccc(OCc3csc(=Nc4ccc(C(=O)N=c5cccc[n-]5)cc4)[n-]3)cc2O)c([O-])c1

>  <Energy>  (14) 
127.73245173600759

>  <Genealogy>  (14) 
COc1ccc(C=CC(=O)c2ccc(OCc3csc(=Nc4ccc(C(=O)N=c5cccc[n-]5)cc4)[n-]3)cc2O)c([O-])c1 (protonated)
COc1ccc(/C=C/C(=O)c2ccc(OCc3csc(=Nc4ccc(C(=O)N=c5cccc[n-]5)cc4)[n-]3)cc2O)c([O-])c1 (cis-trans isomerization)
COc1ccc(/C=C/C(=O)c2ccc(OCc3csc(=Nc4ccc(C(=O)N=c5cccc[n-]5)cc4)[n-]3)cc2O)c([O-])c1 (3D coordinates assigned)
COc1ccc(/C=C/C(=O)c2ccc(OCc3csc(=Nc4ccc(C(=O)N=c5cccc[n-]5)cc4)[n-]3)cc2O)c([O-])c1 (optimized conformer: 127.73245173600759 kcal/mol)

>  <smiles>  (14) 
COc1ccc(C=CC(=O)c2ccc(OCc3csc(=Nc4ccc(C(=O)N=c5cccc[nH]5)cc4)[nH]3)cc2O)c(O)c1

>  <score_type>  (14) 
oracle

>  <origin>  (14) 
adg

>  <m_score__min__energy>  (14) 
-16.899999999999999

>  <m_primary>  (14) 
energy

$$$$
14:0
     RDKit          3D

 38 39  0  0  0  0  0  0  0  0999 V2000
   58.7470   27.8990   46.6120 O   0  0  0  0  0  0  0  0  0  0  0  0
   57.7390   27.1880   46.3660 C   0  0  0  0  0  0  0  0  0  0  0  0
   57.7040   25.7470   46.8110 C   0  0  0  0  0  0  0  0  0  0  0  0
   57.1350   24.8300   45.7510 C   0  0  0  0  0  0  0  0  0  0  0  0
   58.0010   23.9590   45.0630 C   0  0  0  0  0  0  0  0  0  0  0  0
   57.5090   23.0890   44.0870 C   0  0  0  0  0  0  0  0  0  0  0  0
   56.1460   23.0750   43.7850 C   0  0  0  0  0  0  0  0  0  0  0  0
   55.2740   23.9450   44.4470 C   0  0  0  0  0  0  0  0  0  0  0  0
   55.7590   24.8430   45.4100 C   0  0  0  0  0  0  0  0  0  0  0  0
   54.8570   25.7390   45.9920 O   0  0  0  0  0  0  0  0  0  0  0  0
   56.6140   27.8010   45.7210 N   0  0  0  0  0  0  0  0  0  0  0  0
   56.6810   28.6820   44.5540 C   0  0  0  0  0  0  0  0  0  0  0  0
   56.7210   30.1350   44.9360 C   0  0  0  0  0  0  0  0  0  0  0  0
   55.7680   30.8720   44.5700 O   0  0  0  0  0  0  0  0  0  0  0  0
   57.7870   30.6700   45.7450 N   0  0  0  0  0  0  0  0  0  0  0  0
   57.9380   32.0680   46.0410 C   0  0  0  0  0  0  0  0  0  0  0  0
   57.0550   32.8960   45.6920 O   0  0  0  0  0  0  0  0  0  0  0  0
   59.1540   32.5540   46.7250 C   0  0  0  0  0  0  0  0  0  0  0  0
   59.7960   33.7420   46.2980 C   0  0  0  0  0  0  0  0  0  0  0  0
   59.2290   34.6570   44.8980 Cl  0  0  0  0  0  0  0  0  0  0  0  0
   60.9450   34.1930   46.9600 C   0  0  0  0  0  0  0  0  0  0  0  0
   61.4600   33.4810   48.0460 C   0  0  0  0  0  0  0  0  0  0  0  0
   60.8320   32.3080   48.4760 C   0  0  0  0  0  0  0  0  0  0  0  0
   59.6880   31.8370   47.8210 C   0  0  0  0  0  0  0  0  0  0  0  0
   58.9290   30.3680   48.4260 Cl  0  0  0  0  0  0  0  0  0  0  0  0
   58.7294   25.4242   47.0440 H   0  0  0  0  0  0  0  0  0  0  0  0
   57.0513   25.6844   47.6942 H   0  0  0  0  0  0  0  0  0  0  0  0
   59.0760   23.9635   45.2963 H   0  0  0  0  0  0  0  0  0  0  0  0
   58.1963   22.4142   43.5558 H   0  0  0  0  0  0  0  0  0  0  0  0
   55.7580   22.3795   43.0262 H   0  0  0  0  0  0  0  0  0  0  0  0
   54.1998   23.9252   44.2110 H   0  0  0  0  0  0  0  0  0  0  0  0
   55.0980   26.3430   46.7650 H   0  0  0  0  0  0  0  0  0  0  0  0
   57.5891   28.4419   43.9815 H   0  0  0  0  0  0  0  0  0  0  0  0
   55.7727   28.5168   43.9559 H   0  0  0  0  0  0  0  0  0  0  0  0
   58.5440   30.0250   46.0680 H   0  0  0  0  0  0  0  0  0  0  0  0
   61.4447   35.1131   46.6228 H   0  0  0  0  0  0  0  0  0  0  0  0
   62.3605   33.8435   48.5634 H   0  0  0  0  0  0  0  0  0  0  0  0
   61.2391   31.7523   49.3336 H   0  0  0  0  0  0  0  0  0  0  0  0
  1  2  2  0
  2  3  1  0
  3  4  1  0
  4  5  2  0
  5  6  1  0
  6  7  2  0
  7  8  1  0
  8  9  2  0
  9 10  1  0
  2 11  1  0
 11 12  1  0
 12 13  1  0
 13 14  2  0
 13 15  1  0
 15 16  1  0
 16 17  2  0
 16 18  1  0
 18 19  2  0
 19 20  1  0
 19 21  1  0
 21 22  2  0
 22 23  1  0
 23 24  2  0
 24 25  1  0
  9  4  1  0
 24 18  1  0
  3 26  1  0
  3 27  1  0
  5 28  1  0
  6 29  1  0
  7 30  1  0
  8 31  1  0
 10 32  1  0
 12 33  1  0
 12 34  1  0
 15 35  1  0
 21 36  1  0
 22 37  1  0
 23 38  1  0
M  CHG  1  11  -1
M  END
>  <UniqueID>  (15) 
12

>  <SMILES>  (15) 
O=C(Cc1ccccc1O)[N-]CC(=O)NC(=O)c1c(Cl)cccc1Cl

>  <Energy>  (15) 
44.78416757869761

>  <Genealogy>  (15) 
O=C(Cc1ccccc1O)[N-]CC(=O)NC(=O)c1c(Cl)cccc1Cl (protonated)
O=C(Cc1ccccc1O)[N-]CC(=O)NC(=O)c1c(Cl)cccc1Cl (3D coordinates assigned)
O=C(Cc1ccccc1O)[N-]CC(=O)NC(=O)c1c(Cl)cccc1Cl (optimized conformer: 44.78416757869761 kcal/mol)

>  <smiles>  (15) 
O=C(Cc1ccccc1O)NCC(=O)NC(=O)c1c(Cl)cccc1Cl

>  <score_type>  (15) 
oracle

>  <origin>  (15) 
adg

>  <m_score__min__energy>  (15) 
-11.27

>  <m_primary>  (15) 
energy

$$$$
15:0
     RDKit          3D

 46 49  0  0  0  0  0  0  0  0999 V2000
   54.3670   26.7040   46.7860 H   0  0  0  0  0  0  0  0  0  0  0  0
   54.7380   26.2650   45.9520 O   0  0  0  0  0  0  0  0  0  0  0  0
   54.3540   24.9760   45.5970 C   0  0  0  0  0  0  0  0  0  0  0  0
   53.1710   24.4310   45.9310 N   0  0  0  0  0  0  0  0  0  0  0  0
   53.2180   23.2260   45.3240 C   0  0  0  0  0  0  0  0  0  0  0  0
   52.2740   22.3970   45.3910 O   0  0  0  0  0  0  0  0  0  0  0  0
   54.3510   22.9840   44.6310 N   0  0  0  0  0  0  0  0  0  0  0  0
   55.0830   24.0940   44.8290 C   0  0  0  0  0  0  0  0  0  0  0  0
   56.3920   24.3240   44.1910 C   0  0  0  0  0  0  0  0  0  0  0  0
   56.4980   24.0735   43.1252 H   0  0  0  0  0  0  0  0  0  0  0  0
   57.4660   24.8220   44.8330 C   0  0  0  0  0  0  0  0  0  0  0  0
   57.6850   26.1500   45.1770 C   0  0  0  0  0  0  0  0  0  0  0  0
   57.0285   27.0046   44.9563 H   0  0  0  0  0  0  0  0  0  0  0  0
   58.8920   26.1850   45.8520 C   0  0  0  0  0  0  0  0  0  0  0  0
   59.4990   27.3910   46.4410 C   0  0  0  0  0  0  0  0  0  0  0  0
   60.2260   27.2790   47.4660 O   0  0  0  0  0  0  0  0  0  0  0  0
   59.2760   28.6900   45.8710 N   0  0  0  0  0  0  0  0  0  0  0  0
   57.8990   29.1560   45.6530 C   0  0  0  0  0  0  0  0  0  0  0  0
   57.4296   28.5313   44.8788 H   0  0  0  0  0  0  0  0  0  0  0  0
   57.3554   29.0773   46.6060 H   0  0  0  0  0  0  0  0  0  0  0  0
   57.8610   30.6220   45.2000 C   0  0  0  0  0  0  0  0  0  0  0  0
   58.1854   30.6852   44.1508 H   0  0  0  0  0  0  0  0  0  0  0  0
   56.8329   30.9994   45.3025 H   0  0  0  0  0  0  0  0  0  0  0  0
   58.7540   31.4420   46.0330 N   0  0  0  0  0  0  0  0  0  0  0  0
   58.3740   32.7880   46.3890 C   0  0  0  0  0  0  0  0  0  0  0  0
   57.4050   33.3470   45.8050 O   0  0  0  0  0  0  0  0  0  0  0  0
   59.1480   33.5670   47.4160 C   0  0  0  0  0  0  0  0  0  0  0  0
   58.8503   32.9519   48.2780 H   0  0  0  0  0  0  0  0  0  0  0  0
   59.2500   35.0580   47.1270 C   0  0  0  0  0  0  0  0  0  0  0  0
   58.7300   35.4860   46.2573 H   0  0  0  0  0  0  0  0  0  0  0  0
   59.0495   35.9757   47.6994 H   0  0  0  0  0  0  0  0  0  0  0  0
   60.4600   34.1650   46.9230 C   0  0  0  0  0  0  0  0  0  0  0  0
   60.8163   33.9457   45.9057 H   0  0  0  0  0  0  0  0  0  0  0  0
   61.4983   34.1676   47.2863 H   0  0  0  0  0  0  0  0  0  0  0  0
   60.0970   30.9450   46.3810 C   0  0  0  0  0  0  0  0  0  0  0  0
   60.8448   31.6887   46.0685 H   0  0  0  0  0  0  0  0  0  0  0  0
   60.1331   30.7844   47.4686 H   0  0  0  0  0  0  0  0  0  0  0  0
   60.4020   29.6130   45.6900 C   0  0  0  0  0  0  0  0  0  0  0  0
   60.5624   29.7872   44.6158 H   0  0  0  0  0  0  0  0  0  0  0  0
   61.3074   29.1728   46.1333 H   0  0  0  0  0  0  0  0  0  0  0  0
   59.4100   24.9470   45.9570 N   0  0  0  0  0  0  0  0  0  0  0  0
   60.2870   24.6790   46.4580 H   0  0  0  0  0  0  0  0  0  0  0  0
   58.5530   24.1070   45.3420 C   0  0  0  0  0  0  0  0  0  0  0  0
   58.7640   22.7900   45.2640 C   0  0  0  0  0  0  0  0  0  0  0  0
   58.0347   22.1456   44.7513 H   0  0  0  0  0  0  0  0  0  0  0  0
   59.6670   22.3501   45.7125 H   0  0  0  0  0  0  0  0  0  0  0  0
  1  2  1  0
  2  3  1  0
  3  4  1  0
  4  5  1  0
  5  6  2  0
  5  7  1  0
  7  8  1  0
  8  9  1  0
  9 10  1  0
  9 11  2  0
 11 12  1  0
 12 13  1  0
 12 14  2  0
 14 15  1  0
 15 16  2  0
 15 17  1  0
 17 18  1  0
 18 19  1  0
 18 20  1  0
 18 21  1  0
 21 22  1  0
 21 23  1  0
 21 24  1  0
 24 25  1  0
 25 26  2  0
 25 27  1  0
 27 28  1  0
 27 29  1  0
 29 30  1  0
 29 31  1  0
 29 32  1  0
 32 33  1  0
 32 34  1  0
 24 35  1  0
 35 36  1  0
 35 37  1  0
 35 38  1  0
 38 39  1  0
 38 40  1  0
 14 41  1  0
 41 42  1  0
 41 43  1  0
 43 44  2  0
 44 45  1  0
 44 46  1  0
  8  3  2  0
 43 11  1  0
 38 17  1  0
 32 27  1  0
M  CHG  2   4  -1   7  -1
M  END
>  <UniqueID>  (16) 
13

>  <SMILES>  (16) 
C=c1[nH]c(C(=O)N2CCN(C(=O)C3CC3)CC2)c/c1=C\c1[n-]c(=O)[n-]c1O

>  <Energy>  (16) 
377.529153722544

>  <Genealogy>  (16) 
C=c1[nH]c(C(=O)N2CCN(C(=O)C3CC3)CC2)cc1=Cc1[n-]c(=O)[n-]c1O (protonated)
C=c1[nH]c(C(=O)N2CCN(C(=O)C3CC3)CC2)c/c1=C\c1[n-]c(=O)[n-]c1O (cis-trans isomerization)
C=c1[nH]c(C(=O)N2CCN(C(=O)C3CC3)CC2)c/c1=C\c1[n-]c(=O)[n-]c1O (3D coordinates assigned)
C=c1[nH]c(C(=O)N2CCN(C(=O)C3CC3)CC2)c/c1=C\c1[n-]c(=O)[n-]c1O (nonaromatic ring conformer: 377.529153722544 kcal/mol)

>  <smiles>  (16) 
C=c1[nH]c(C(=O)N2CCN(C(=O)C3CC3)CC2)cc1=Cc1[nH]c(=O)[nH]c1O

>  <score_type>  (16) 
oracle

>  <origin>  (16) 
adg

>  <m_score__min__energy>  (16) 
-12.73

>  <m_primary>  (16) 
energy

$$$$
16:0
     RDKit          3D

 52 55  0  0  0  0  0  0  0  0999 V2000
   54.3910   27.1010   46.3670 H   0  0  0  0  0  0  0  0  0  0  0  0
   55.1710   26.5560   46.0210 O   0  0  0  0  0  0  0  0  0  0  0  0
   54.9900   25.2470   45.5810 C   0  0  0  0  0  0  0  0  0  0  0  0
   53.8370   24.5910   45.8800 N   0  0  0  0  0  0  0  0  0  0  0  0
   53.6320   23.3130   45.4700 C   0  0  0  0  0  0  0  0  0  0  0  0
   52.5540   22.7290   45.7540 O   0  0  0  0  0  0  0  0  0  0  0  0
   54.5890   22.6630   44.7600 N   0  0  0  0  0  0  0  0  0  0  0  0
   55.7590   23.2740   44.4380 C   0  0  0  0  0  0  0  0  0  0  0  0
   56.6380   22.6270   43.8080 O   0  0  0  0  0  0  0  0  0  0  0  0
   55.9840   24.6070   44.8260 C   0  0  0  0  0  0  0  0  0  0  0  0
   57.2500   25.3110   44.5220 C   0  0  0  0  0  0  0  0  0  0  0  0
   57.6688   25.2154   43.5093 H   0  0  0  0  0  0  0  0  0  0  0  0
   57.9170   26.0630   45.4200 C   0  0  0  0  0  0  0  0  0  0  0  0
   58.6880   25.5900   46.4740 C   0  0  0  0  0  0  0  0  0  0  0  0
   58.8522   24.5373   46.7478 H   0  0  0  0  0  0  0  0  0  0  0  0
   59.2080   26.6990   47.1110 C   0  0  0  0  0  0  0  0  0  0  0  0
   60.1290   26.6500   48.2930 C   0  0  0  0  0  0  0  0  0  0  0  0
   59.5378   26.6815   49.2201 H   0  0  0  0  0  0  0  0  0  0  0  0
   60.7148   25.7194   48.2631 H   0  0  0  0  0  0  0  0  0  0  0  0
   60.8102   27.5132   48.2631 H   0  0  0  0  0  0  0  0  0  0  0  0
   58.8060   27.8310   46.4920 N   0  0  0  0  0  0  0  0  0  0  0  0
   59.1660   29.1690   46.8750 C   0  0  0  0  0  0  0  0  0  0  0  0
   59.8540   29.9960   45.9740 C   0  0  0  0  0  0  0  0  0  0  0  0
   60.1141   29.6192   44.9738 H   0  0  0  0  0  0  0  0  0  0  0  0
   60.2100   31.2960   46.3420 C   0  0  0  0  0  0  0  0  0  0  0  0
   60.7447   31.9412   45.6294 H   0  0  0  0  0  0  0  0  0  0  0  0
   59.8870   31.7800   47.6180 C   0  0  0  0  0  0  0  0  0  0  0  0
   60.3080   33.4260   48.0870 S   0  0  0  0  0  0  0  0  0  0  0  0
   61.6860   33.7580   47.5910 O   0  0  0  0  0  0  0  0  0  0  0  0
   60.3130   33.5000   49.5880 O   0  0  0  0  0  0  0  0  0  0  0  0
   59.1210   34.5430   47.4460 N   0  0  0  0  0  0  0  0  0  0  0  0
   57.8480   33.8820   47.0980 C   0  0  0  0  0  0  0  0  0  0  0  0
   57.6309   33.1121   47.8531 H   0  0  0  0  0  0  0  0  0  0  0  0
   57.0636   34.6528   47.0740 H   0  0  0  0  0  0  0  0  0  0  0  0
   57.8970   33.2170   45.7140 C   0  0  0  0  0  0  0  0  0  0  0  0
   58.6225   32.3905   45.7365 H   0  0  0  0  0  0  0  0  0  0  0  0
   56.8935   32.8390   45.4687 H   0  0  0  0  0  0  0  0  0  0  0  0
   58.2850   34.1470   44.7240 O   0  0  0  0  0  0  0  0  0  0  0  0
   59.5950   34.5990   44.9910 C   0  0  0  0  0  0  0  0  0  0  0  0
   60.2731   33.7339   45.0321 H   0  0  0  0  0  0  0  0  0  0  0  0
   59.8993   35.2880   44.1893 H   0  0  0  0  0  0  0  0  0  0  0  0
   59.6540   35.3490   46.3320 C   0  0  0  0  0  0  0  0  0  0  0  0
   60.7017   35.6041   46.5492 H   0  0  0  0  0  0  0  0  0  0  0  0
   59.0321   36.2518   46.2412 H   0  0  0  0  0  0  0  0  0  0  0  0
   59.2000   30.9560   48.5180 C   0  0  0  0  0  0  0  0  0  0  0  0
   58.9394   31.3344   49.5175 H   0  0  0  0  0  0  0  0  0  0  0  0
   58.8440   29.6550   48.1520 C   0  0  0  0  0  0  0  0  0  0  0  0
   58.1940   28.8630   49.0410 F   0  0  0  0  0  0  0  0  0  0  0  0
   58.0170   27.4580   45.4530 C   0  0  0  0  0  0  0  0  0  0  0  0
   57.4560   28.3190   44.5900 C   0  0  0  0  0  0  0  0  0  0  0  0
   57.6054   29.4013   44.7175 H   0  0  0  0  0  0  0  0  0  0  0  0
   56.8468   27.9424   43.7551 H   0  0  0  0  0  0  0  0  0  0  0  0
  1  2  1  0
  2  3  1  0
  3  4  1  0
  4  5  1  0
  5  6  2  0
  5  7  1  0
  7  8  1  0
  8  9  2  0
  8 10  1  0
 10 11  1  0
 11 12  1  0
 11 13  2  0
 13 14  1  0
 14 15  1  0
 14 16  2  0
 16 17  1  0
 17 18  1  0
 17 19  1  0
 17 20  1  0
 16 21  1  0
 21 22  1  0
 22 23  2  0
 23 24  1  0
 23 25  1  0
 25 26  1  0
 25 27  2  0
 27 28  1  0
 28 29  2  0
 28 30  2  0
 28 31  1  0
 31 32  1  0
 32 33  1  0
 32 34  1  0
 32 35  1  0
 35 36  1  0
 35 37  1  0
 35 38  1  0
 38 39  1  0
 39 40  1  0
 39 41  1  0
 39 42  1  0
 42 43  1  0
 42 44  1  0
 27 45  1  0
 45 46  1  0
 45 47  2  0
 47 48  1  0
 21 49  1  0
 49 50  2  0
 50 51  1  0
 50 52  1  0
 10  3  2  0
 49 13  1  0
 47 22  1  0
 42 31  1  0
M  CHG  2   4  -1   7  -1
M  END
>  <UniqueID>  (17) 
14

>  <SMILES>  (17) 
C=c1/c(=C/c2c(O)[n-]c(=O)[n-]c2=O)cc(C)n1-c1ccc(S(=O)(=O)N2CCOCC2)cc1F

>  <Energy>  (17) 
104.52709348752151

>  <Genealogy>  (17) 
C=c1c(=Cc2c(O)[n-]c(=O)[n-]c2=O)cc(C)n1-c1ccc(S(=O)(=O)N2CCOCC2)cc1F (protonated)
C=c1/c(=C/c2c(O)[n-]c(=O)[n-]c2=O)cc(C)n1-c1ccc(S(=O)(=O)N2CCOCC2)cc1F (cis-trans isomerization)
C=c1/c(=C/c2c(O)[n-]c(=O)[n-]c2=O)cc(C)n1-c1ccc(S(=O)(=O)N2CCOCC2)cc1F (3D coordinates assigned)
C=c1/c(=C/c2c(O)[n-]c(=O)[n-]c2=O)cc(C)n1-c1ccc(S(=O)(=O)N2CCOCC2)cc1F (nonaromatic ring conformer: 104.52709348752151 kcal/mol)

>  <smiles>  (17) 
C=c1c(=Cc2c(O)[nH]c(=O)[nH]c2=O)cc(C)n1-c1ccc(S(=O)(=O)N2CCOCC2)cc1F

>  <score_type>  (17) 
oracle

>  <origin>  (17) 
adg

>  <m_score__min__energy>  (17) 
-13.94

>  <m_primary>  (17) 
energy

$$$$
17:0
     RDKit          3D

 57 61  0  0  0  0  0  0  0  0999 V2000
   60.9720   26.3620   46.9770 O   0  0  0  0  0  0  0  0  0  0  0  0
   60.1610   27.3200   46.8710 C   0  0  0  0  0  0  0  0  0  0  0  0
   60.6480   28.6550   47.0700 N   0  0  0  0  0  0  0  0  0  0  0  0
   60.1260   29.6240   47.9910 C   0  0  0  0  0  0  0  0  0  0  0  0
   59.0560   29.3230   48.8510 C   0  0  0  0  0  0  0  0  0  0  0  0
   58.5700   30.2930   49.7330 C   0  0  0  0  0  0  0  0  0  0  0  0
   59.1360   31.5700   49.7520 C   0  0  0  0  0  0  0  0  0  0  0  0
   60.1870   31.8870   48.8810 C   0  0  0  0  0  0  0  0  0  0  0  0
   60.8940   33.5000   48.8800 S   0  0  0  0  0  0  0  0  0  0  0  0
   59.8230   34.4920   49.2390 O   0  0  0  0  0  0  0  0  0  0  0  0
   61.4030   33.8270   47.5030 O   0  0  0  0  0  0  0  0  0  0  0  0
   62.1950   33.5570   50.0540 N   0  0  0  0  0  0  0  0  0  0  0  0
   62.2410   32.3320   50.8830 C   0  0  0  0  0  0  0  0  0  0  0  0
   63.2780   31.3100   50.3770 C   0  0  0  0  0  0  0  0  0  0  0  0
   63.4160   31.4010   48.9770 O   0  0  0  0  0  0  0  0  0  0  0  0
   64.0320   32.6290   48.6240 C   0  0  0  0  0  0  0  0  0  0  0  0
   63.4920   33.8420   49.4180 C   0  0  0  0  0  0  0  0  0  0  0  0
   60.6690   30.9150   47.9930 C   0  0  0  0  0  0  0  0  0  0  0  0
   58.7320   27.0310   46.6020 C   0  0  0  0  0  0  0  0  0  0  0  0
   58.1410   25.8350   47.0420 C   0  0  0  0  0  0  0  0  0  0  0  0
   56.7890   25.5850   46.7980 C   0  0  0  0  0  0  0  0  0  0  0  0
   56.0200   26.5100   46.0900 C   0  0  0  0  0  0  0  0  0  0  0  0
   56.6060   27.6900   45.6000 C   0  0  0  0  0  0  0  0  0  0  0  0
   55.8530   28.6730   44.8760 N   0  0  0  0  0  0  0  0  0  0  0  0
   56.3580   29.5880   43.8950 C   0  0  0  0  0  0  0  0  0  0  0  0
   56.2930   29.3170   42.6660 O   0  0  0  0  0  0  0  0  0  0  0  0
   57.0110   30.8250   44.3370 C   0  0  0  0  0  0  0  0  0  0  0  0
   57.7030   31.7150   43.5180 C   0  0  0  0  0  0  0  0  0  0  0  0
   58.1310   32.7020   44.3780 C   0  0  0  0  0  0  0  0  0  0  0  0
   58.8740   33.8570   44.1450 C   0  0  0  0  0  0  0  0  0  0  0  0
   59.1650   34.6800   45.2490 C   0  0  0  0  0  0  0  0  0  0  0  0
   58.7090   34.3330   46.5410 C   0  0  0  0  0  0  0  0  0  0  0  0
   57.9600   33.1590   46.7410 C   0  0  0  0  0  0  0  0  0  0  0  0
   57.6900   32.3640   45.6300 C   0  0  0  0  0  0  0  0  0  0  0  0
   57.0190   31.2380   45.5920 O   0  0  0  0  0  0  0  0  0  0  0  0
   57.9550   27.9500   45.8750 C   0  0  0  0  0  0  0  0  0  0  0  0
   58.5999   28.3222   48.8302 H   0  0  0  0  0  0  0  0  0  0  0  0
   57.7404   30.0501   50.4132 H   0  0  0  0  0  0  0  0  0  0  0  0
   58.7558   32.3284   50.4522 H   0  0  0  0  0  0  0  0  0  0  0  0
   62.4994   32.6144   51.9142 H   0  0  0  0  0  0  0  0  0  0  0  0
   61.2509   31.8559   50.8276 H   0  0  0  0  0  0  0  0  0  0  0  0
   64.2494   31.5146   50.8509 H   0  0  0  0  0  0  0  0  0  0  0  0
   62.9363   30.2971   50.6365 H   0  0  0  0  0  0  0  0  0  0  0  0
   65.1124   32.5431   48.8120 H   0  0  0  0  0  0  0  0  0  0  0  0
   63.8058   32.8107   47.5629 H   0  0  0  0  0  0  0  0  0  0  0  0
   64.2195   34.1062   50.1996 H   0  0  0  0  0  0  0  0  0  0  0  0
   63.3463   34.6714   48.7103 H   0  0  0  0  0  0  0  0  0  0  0  0
   61.4791   31.1680   47.2932 H   0  0  0  0  0  0  0  0  0  0  0  0
   58.7463   25.0916   47.5815 H   0  0  0  0  0  0  0  0  0  0  0  0
   56.3284   24.6559   47.1650 H   0  0  0  0  0  0  0  0  0  0  0  0
   54.9517   26.3149   45.9149 H   0  0  0  0  0  0  0  0  0  0  0  0
   57.8694   31.6452   42.4329 H   0  0  0  0  0  0  0  0  0  0  0  0
   59.2210   34.1166   43.1340 H   0  0  0  0  0  0  0  0  0  0  0  0
   59.7513   35.5996   45.1053 H   0  0  0  0  0  0  0  0  0  0  0  0
   58.9413   34.9852   47.3958 H   0  0  0  0  0  0  0  0  0  0  0  0
   57.5996   32.8784   47.7417 H   0  0  0  0  0  0  0  0  0  0  0  0
   58.4119   28.8847   45.5177 H   0  0  0  0  0  0  0  0  0  0  0  0
  1  2  2  0
  2  3  1  0
  3  4  1  0
  4  5  2  0
  5  6  1  0
  6  7  2  0
  7  8  1  0
  8  9  1  0
  9 10  2  0
  9 11  2  0
  9 12  1  0
 12 13  1  0
 13 14  1  0
 14 15  1  0
 15 16  1  0
 16 17  1  0
  8 18  2  0
  2 19  1  0
 19 20  2  0
 20 21  1  0
 21 22  2  0
 22 23  1  0
 23 24  1  0
 24 25  1  0
 25 26  2  0
 25 27  1  0
 27 28  2  0
 28 29  1  0
 29 30  2  0
 30 31  1  0
 31 32  2  0
 32 33  1  0
 33 34  2  0
 34 35  1  0
 23 36  2  0
 18  4  1  0
 36 19  1  0
 17 12  1  0
 35 27  1  0
 34 29  1  0
  5 37  1  0
  6 38  1  0
  7 39  1  0
 13 40  1  0
 13 41  1  0
 14 42  1  0
 14 43  1  0
 16 44  1  0
 16 45  1  0
 17 46  1  0
 17 47  1  0
 18 48  1  0
 20 49  1  0
 21 50  1  0
 22 51  1  0
 28 52  1  0
 30 53  1  0
 31 54  1  0
 32 55  1  0
 33 56  1  0
 36 57  1  0
M  CHG  2   3  -1  24  -1
M  END
>  <UniqueID>  (18) 
15

>  <SMILES>  (18) 
O=C([N-]c1cccc(S(=O)(=O)N2CCOCC2)c1)c1cccc([N-]C(=O)c2cc3ccccc3o2)c1

>  <Energy>  (18) 
116.80981505600906

>  <Genealogy>  (18) 
O=C([N-]c1cccc(S(=O)(=O)N2CCOCC2)c1)c1cccc([N-]C(=O)c2cc3ccccc3o2)c1 (protonated)
O=C([N-]c1cccc(S(=O)(=O)N2CCOCC2)c1)c1cccc([N-]C(=O)c2cc3ccccc3o2)c1 (3D coordinates assigned)
O=C([N-]c1cccc(S(=O)(=O)N2CCOCC2)c1)c1cccc([N-]C(=O)c2cc3ccccc3o2)c1 (nonaromatic ring conformer: 116.80981505600906 kcal/mol)

>  <smiles>  (18) 
O=C(Nc1cccc(S(=O)(=O)N2CCOCC2)c1)c1cccc(NC(=O)c2cc3ccccc3o2)c1

>  <score_type>  (18) 
oracle

>  <origin>  (18) 
adg

>  <m_score__min__energy>  (18) 
-13.470000000000001

>  <m_primary>  (18) 
energy

$$$$
18:0
     RDKit          3D

 30 32  0  0  0  0  0  0  0  0999 V2000
   54.7790   29.0720   44.2340 O   0  0  0  0  0  0  0  0  0  0  0  0
   55.8750   29.3660   44.7820 C   0  0  0  0  0  0  0  0  0  0  0  0
   56.3550   30.7150   44.7570 N   0  0  0  0  0  0  0  0  0  0  0  0
   57.6470   31.1020   44.2040 C   0  0  0  0  0  0  0  0  0  0  0  0
   58.3480   32.0410   45.1310 C   0  0  0  0  0  0  0  0  0  0  0  0
   58.0800   33.3960   45.2670 C   0  0  0  0  0  0  0  0  0  0  0  0
   58.9220   34.0380   46.1840 C   0  0  0  0  0  0  0  0  0  0  0  0
   59.8620   33.1870   46.7670 C   0  0  0  0  0  0  0  0  0  0  0  0
   60.8960   33.5370   47.7640 C   0  0  0  0  0  0  0  0  0  0  0  0
   60.5690   33.8660   49.0920 C   0  0  0  0  0  0  0  0  0  0  0  0
   61.5880   34.1880   49.9910 C   0  0  0  0  0  0  0  0  0  0  0  0
   62.9170   34.1830   49.5680 C   0  0  0  0  0  0  0  0  0  0  0  0
   63.2100   33.8520   48.2450 C   0  0  0  0  0  0  0  0  0  0  0  0
   62.2050   33.5410   47.3840 N   0  0  0  0  0  0  0  0  0  0  0  0
   59.6340   31.6410   46.1350 S   0  0  0  0  0  0  0  0  0  0  0  0
   56.6590   28.3140   45.4460 C   0  0  0  0  0  0  0  0  0  0  0  0
   57.9920   28.3690   45.6180 N   0  0  0  0  0  0  0  0  0  0  0  0
   58.2720   27.2120   46.2580 C   0  0  0  0  0  0  0  0  0  0  0  0
   59.4400   26.8920   46.5990 O   0  0  0  0  0  0  0  0  0  0  0  0
   57.2020   26.4260   46.5030 N   0  0  0  0  0  0  0  0  0  0  0  0
   56.1890   27.1370   45.9830 C   0  0  0  0  0  0  0  0  0  0  0  0
   54.8650   26.7160   46.0000 O   0  0  0  0  0  0  0  0  0  0  0  0
   58.2650   30.2031   44.0625 H   0  0  0  0  0  0  0  0  0  0  0  0
   57.4868   31.6052   43.2390 H   0  0  0  0  0  0  0  0  0  0  0  0
   57.2854   33.9142   44.7101 H   0  0  0  0  0  0  0  0  0  0  0  0
   58.8493   35.1096   46.4217 H   0  0  0  0  0  0  0  0  0  0  0  0
   59.5190   33.8696   49.4198 H   0  0  0  0  0  0  0  0  0  0  0  0
   61.3427   34.4454   51.0319 H   0  0  0  0  0  0  0  0  0  0  0  0
   63.7250   34.4372   50.2698 H   0  0  0  0  0  0  0  0  0  0  0  0
   64.2540   33.8426   47.8985 H   0  0  0  0  0  0  0  0  0  0  0  0
  1  2  2  0
  2  3  1  0
  3  4  1  0
  4  5  1  0
  5  6  2  0
  6  7  1  0
  7  8  2  0
  8  9  1  0
  9 10  2  0
 10 11  1  0
 11 12  2  0
 12 13  1  0
 13 14  2  0
  8 15  1  0
  2 16  1  0
 16 17  1  0
 17 18  1  0
 18 19  2  0
 18 20  1  0
 20 21  1  0
 21 22  1  0
 15  5  1  0
 21 16  2  0
 14  9  1  0
  4 23  1  0
  4 24  1  0
  6 25  1  0
  7 26  1  0
 10 27  1  0
 11 28  1  0
 12 29  1  0
 13 30  1  0
M  CHG  4   3  -1  17  -1  20  -1  22  -1
M  END
>  <UniqueID>  (19) 
16

>  <SMILES>  (19) 
O=C([N-]Cc1ccc(-c2ccccn2)s1)c1[n-]c(=O)[n-]c1[O-]

>  <Energy>  (19) 
86.35812999381284

>  <Genealogy>  (19) 
O=C([N-]Cc1ccc(-c2ccccn2)s1)c1[n-]c(=O)[n-]c1[O-] (protonated)
O=C([N-]Cc1ccc(-c2ccccn2)s1)c1[n-]c(=O)[n-]c1[O-] (3D coordinates assigned)
O=C([N-]Cc1ccc(-c2ccccn2)s1)c1[n-]c(=O)[n-]c1[O-] (optimized conformer: 86.35812999381284 kcal/mol)

>  <smiles>  (19) 
O=C(NCc1ccc(-c2ccccn2)s1)c1[nH]c(=O)[nH]c1O

>  <score_type>  (19) 
oracle

>  <origin>  (19) 
adg

>  <m_score__min__energy>  (19) 
-16.850000000000001

>  <m_primary>  (19) 
energy

$$$$
19:0
     RDKit          3D

 51 53  0  0  0  0  0  0  0  0999 V2000
   55.7980   30.6650   44.5160 O   0  0  0  0  0  0  0  0  0  0  0  0
   56.8060   30.2470   43.8820 C   0  0  0  0  0  0  0  0  0  0  0  0
   56.6860   28.9970   43.0550 C   0  0  0  0  0  0  0  0  0  0  0  0
   57.7740   27.9650   43.3950 C   0  0  0  0  0  0  0  0  0  0  0  0
   57.7200   27.4500   44.8450 C   0  0  0  0  0  0  0  0  0  0  0  0
   58.7070   28.1490   45.7450 C   0  0  0  0  0  0  0  0  0  0  0  0
   58.4690   28.2360   47.1270 C   0  0  0  0  0  0  0  0  0  0  0  0
   59.3770   28.8980   47.9580 C   0  0  0  0  0  0  0  0  0  0  0  0
   60.5300   29.4760   47.4190 C   0  0  0  0  0  0  0  0  0  0  0  0
   60.7780   29.3890   46.0460 C   0  0  0  0  0  0  0  0  0  0  0  0
   59.8730   28.7260   45.2110 C   0  0  0  0  0  0  0  0  0  0  0  0
   58.0490   30.9650   43.9260 N   0  0  0  0  0  0  0  0  0  0  0  0
   58.2560   32.1630   44.6910 C   0  0  0  0  0  0  0  0  0  0  0  0
   57.8280   33.3930   44.1710 C   0  0  0  0  0  0  0  0  0  0  0  0
   58.0240   34.5720   44.8940 C   0  0  0  0  0  0  0  0  0  0  0  0
   58.6590   34.5340   46.1370 C   0  0  0  0  0  0  0  0  0  0  0  0
   59.1110   33.3160   46.6610 C   0  0  0  0  0  0  0  0  0  0  0  0
   59.9050   33.2640   48.2380 S   0  0  0  0  0  0  0  0  0  0  0  0
   59.6930   31.9100   48.8560 O   0  0  0  0  0  0  0  0  0  0  0  0
   59.2800   34.2910   49.1420 O   0  0  0  0  0  0  0  0  0  0  0  0
   61.6220   33.5720   48.1020 N   0  0  0  0  0  0  0  0  0  0  0  0
   61.9860   33.8580   46.7020 C   0  0  0  0  0  0  0  0  0  0  0  0
   63.4880   33.6200   46.4730 C   0  0  0  0  0  0  0  0  0  0  0  0
   63.9090   32.2860   46.7310 O   0  0  0  0  0  0  0  0  0  0  0  0
   63.0590   31.5780   47.6240 C   0  0  0  0  0  0  0  0  0  0  0  0
   62.4200   32.4780   48.6980 C   0  0  0  0  0  0  0  0  0  0  0  0
   58.9230   32.1350   45.9280 C   0  0  0  0  0  0  0  0  0  0  0  0
   55.7001   28.5449   43.2384 H   0  0  0  0  0  0  0  0  0  0  0  0
   56.8086   29.2794   41.9990 H   0  0  0  0  0  0  0  0  0  0  0  0
   57.6584   27.1054   42.7185 H   0  0  0  0  0  0  0  0  0  0  0  0
   58.7422   28.4730   43.2744 H   0  0  0  0  0  0  0  0  0  0  0  0
   56.7063   27.6134   45.2395 H   0  0  0  0  0  0  0  0  0  0  0  0
   57.9816   26.3817   44.8293 H   0  0  0  0  0  0  0  0  0  0  0  0
   57.5643   27.7812   47.5567 H   0  0  0  0  0  0  0  0  0  0  0  0
   59.1839   28.9644   49.0389 H   0  0  0  0  0  0  0  0  0  0  0  0
   61.2417   29.9989   48.0748 H   0  0  0  0  0  0  0  0  0  0  0  0
   61.6860   29.8425   45.6219 H   0  0  0  0  0  0  0  0  0  0  0  0
   60.0741   28.6555   44.1318 H   0  0  0  0  0  0  0  0  0  0  0  0
   58.8070   30.6740   43.2680 H   0  0  0  0  0  0  0  0  0  0  0  0
   57.3352   33.4296   43.1883 H   0  0  0  0  0  0  0  0  0  0  0  0
   57.6775   35.5319   44.4835 H   0  0  0  0  0  0  0  0  0  0  0  0
   58.8048   35.4636   46.7067 H   0  0  0  0  0  0  0  0  0  0  0  0
   61.4100   33.1979   46.0368 H   0  0  0  0  0  0  0  0  0  0  0  0
   61.7570   34.9117   46.4846 H   0  0  0  0  0  0  0  0  0  0  0  0
   63.7201   33.8592   45.4247 H   0  0  0  0  0  0  0  0  0  0  0  0
   64.0242   34.2658   47.1839 H   0  0  0  0  0  0  0  0  0  0  0  0
   62.2549   31.1059   47.0404 H   0  0  0  0  0  0  0  0  0  0  0  0
   63.6808   30.8368   48.1474 H   0  0  0  0  0  0  0  0  0  0  0  0
   61.7630   31.8636   49.3311 H   0  0  0  0  0  0  0  0  0  0  0  0
   63.2307   32.9313   49.2873 H   0  0  0  0  0  0  0  0  0  0  0  0
   59.3001   31.1805   46.3238 H   0  0  0  0  0  0  0  0  0  0  0  0
  1  2  2  0
  2  3  1  0
  3  4  1  0
  4  5  1  0
  5  6  1  0
  6  7  2  0
  7  8  1  0
  8  9  2  0
  9 10  1  0
 10 11  2  0
  2 12  1  0
 12 13  1  0
 13 14  2  0
 14 15  1  0
 15 16  2  0
 16 17  1  0
 17 18  1  0
 18 19  2  0
 18 20  2  0
 18 21  1  0
 21 22  1  0
 22 23  1  0
 23 24  1  0
 24 25  1  0
 25 26  1  0
 17 27  2  0
 11  6  1  0
 27 13  1  0
 26 21  1  0
  3 28  1  0
  3 29  1  0
  4 30  1  0
  4 31  1  0
  5 32  1  0
  5 33  1  0
  7 34  1  0
  8 35  1  0
  9 36  1  0
 10 37  1  0
 11 38  1  0
 12 39  1  0
 14 40  1  0
 15 41  1  0
 16 42  1  0
 22 43  1  0
 22 44  1  0
 23 45  1  0
 23 46  1  0
 25 47  1  0
 25 48  1  0
 26 49  1  0
 26 50  1  0
 27 51  1  0
M  END
>  <UniqueID>  (20) 
17

>  <SMILES>  (20) 
O=C(CCCc1ccccc1)Nc1cccc(S(=O)(=O)N2CCOCC2)c1

>  <Energy>  (20) 
61.35321910843541

>  <Genealogy>  (20) 
O=C(CCCc1ccccc1)Nc1cccc(S(=O)(=O)N2CCOCC2)c1 (3D coordinates assigned)
O=C(CCCc1ccccc1)Nc1cccc(S(=O)(=O)N2CCOCC2)c1 (nonaromatic ring conformer: 61.35321910843541 kcal/mol)

>  <smiles>  (20) 
O=C(CCCc1ccccc1)Nc1cccc(S(=O)(=O)N2CCOCC2)c1

>  <score_type>  (20) 
oracle

>  <origin>  (20) 
adg

>  <m_score__min__energy>  (20) 
-10.44

>  <m_primary>  (20) 
energy

$$$$
20:0
     RDKit          3D

 55 58  0  0  0  0  0  0  0  0999 V2000
   55.7320   25.9510   46.7120 O   0  0  0  0  0  0  0  0  0  0  0  0
   56.5010   25.8650   45.7170 C   0  0  0  0  0  0  0  0  0  0  0  0
   57.3970   26.9980   45.4090 C   0  0  0  0  0  0  0  0  0  0  0  0
   58.7910   26.8230   45.3830 C   0  0  0  0  0  0  0  0  0  0  0  0
   59.6320   27.9050   45.1140 C   0  0  0  0  0  0  0  0  0  0  0  0
   59.0910   29.1690   44.8640 C   0  0  0  0  0  0  0  0  0  0  0  0
   57.7020   29.3510   44.8600 C   0  0  0  0  0  0  0  0  0  0  0  0
   57.0140   30.9520   44.5960 S   0  0  0  0  0  0  0  0  0  0  0  0
   55.5220   30.8410   44.4610 O   0  0  0  0  0  0  0  0  0  0  0  0
   57.5670   31.5250   43.3210 O   0  0  0  0  0  0  0  0  0  0  0  0
   57.3940   32.0250   45.9030 N   0  0  0  0  0  0  0  0  0  0  0  0
   58.7350   32.4120   46.2070 C   0  0  0  0  0  0  0  0  0  0  0  0
   59.5680   31.5250   46.8970 C   0  0  0  0  0  0  0  0  0  0  0  0
   60.8970   31.8710   47.1610 C   0  0  0  0  0  0  0  0  0  0  0  0
   61.4030   33.1080   46.7380 C   0  0  0  0  0  0  0  0  0  0  0  0
   63.0980   33.5210   47.0180 S   0  0  0  0  0  0  0  0  0  0  0  0
   63.5090   34.5890   46.0430 O   0  0  0  0  0  0  0  0  0  0  0  0
   63.9480   32.3070   46.7640 O   0  0  0  0  0  0  0  0  0  0  0  0
   63.3930   34.0890   48.6450 N   0  0  0  0  0  0  0  0  0  0  0  0
   62.1590   34.1870   49.4210 C   0  0  0  0  0  0  0  0  0  0  0  0
   62.5690   34.0810   50.8750 C   0  0  0  0  0  0  0  0  0  0  0  0
   63.8300   33.2360   50.8560 C   0  0  0  0  0  0  0  0  0  0  0  0
   64.2760   33.1940   49.3970 C   0  0  0  0  0  0  0  0  0  0  0  0
   60.5490   34.0180   46.0990 C   0  0  0  0  0  0  0  0  0  0  0  0
   59.2200   33.6740   45.8410 C   0  0  0  0  0  0  0  0  0  0  0  0
   56.8580   28.2610   45.1190 C   0  0  0  0  0  0  0  0  0  0  0  0
   56.5060   24.6640   44.9240 N   0  0  0  0  0  0  0  0  0  0  0  0
   55.4800   23.6430   45.0460 C   0  0  0  0  0  0  0  0  0  0  0  0
   55.9120   22.5120   44.1220 C   0  0  0  0  0  0  0  0  0  0  0  0
   57.3870   22.7560   43.8210 C   0  0  0  0  0  0  0  0  0  0  0  0
   57.6340   24.2290   44.1150 C   0  0  0  0  0  0  0  0  0  0  0  0
   59.2218   25.8293   45.5754 H   0  0  0  0  0  0  0  0  0  0  0  0
   60.7226   27.7620   45.0989 H   0  0  0  0  0  0  0  0  0  0  0  0
   59.7571   30.0226   44.6700 H   0  0  0  0  0  0  0  0  0  0  0  0
   59.1768   30.5532   47.2327 H   0  0  0  0  0  0  0  0  0  0  0  0
   61.5482   31.1694   47.7030 H   0  0  0  0  0  0  0  0  0  0  0  0
   61.6650   35.1517   49.2328 H   0  0  0  0  0  0  0  0  0  0  0  0
   61.4464   33.3957   49.1452 H   0  0  0  0  0  0  0  0  0  0  0  0
   62.7751   35.0769   51.2941 H   0  0  0  0  0  0  0  0  0  0  0  0
   61.7794   33.6385   51.5001 H   0  0  0  0  0  0  0  0  0  0  0  0
   64.6090   33.6952   51.4823 H   0  0  0  0  0  0  0  0  0  0  0  0
   63.6490   32.2269   51.2548 H   0  0  0  0  0  0  0  0  0  0  0  0
   65.3183   33.5351   49.3121 H   0  0  0  0  0  0  0  0  0  0  0  0
   64.2191   32.1689   49.0020 H   0  0  0  0  0  0  0  0  0  0  0  0
   60.9270   35.0067   45.7997 H   0  0  0  0  0  0  0  0  0  0  0  0
   58.5523   34.3964   45.3489 H   0  0  0  0  0  0  0  0  0  0  0  0
   55.7667   28.3970   45.0947 H   0  0  0  0  0  0  0  0  0  0  0  0
   55.4155   23.2863   46.0846 H   0  0  0  0  0  0  0  0  0  0  0  0
   54.4869   24.0311   44.7757 H   0  0  0  0  0  0  0  0  0  0  0  0
   55.7790   21.5400   44.6195 H   0  0  0  0  0  0  0  0  0  0  0  0
   55.3106   22.4918   43.2012 H   0  0  0  0  0  0  0  0  0  0  0  0
   58.0183   22.1261   44.4649 H   0  0  0  0  0  0  0  0  0  0  0  0
   57.6337   22.5050   42.7788 H   0  0  0  0  0  0  0  0  0  0  0  0
   58.5754   24.3567   44.6695 H   0  0  0  0  0  0  0  0  0  0  0  0
   57.7213   24.8183   43.1903 H   0  0  0  0  0  0  0  0  0  0  0  0
  1  2  2  0
  2  3  1  0
  3  4  2  0
  4  5  1  0
  5  6  2  0
  6  7  1  0
  7  8  1  0
  8  9  2  0
  8 10  2  0
  8 11  1  0
 11 12  1  0
 12 13  2  0
 13 14  1  0
 14 15  2  0
 15 16  1  0
 16 17  2  0
 16 18  2  0
 16 19  1  0
 19 20  1  0
 20 21  1  0
 21 22  1  0
 22 23  1  0
 15 24  1  0
 24 25  2  0
  7 26  2  0
  2 27  1  0
 27 28  1  0
 28 29  1  0
 29 30  1  0
 30 31  1  0
 26  3  1  0
 31 27  1  0
 25 12  1  0
 23 19  1  0
  4 32  1  0
  5 33  1  0
  6 34  1  0
 13 35  1  0
 14 36  1  0
 20 37  1  0
 20 38  1  0
 21 39  1  0
 21 40  1  0
 22 41  1  0
 22 42  1  0
 23 43  1  0
 23 44  1  0
 24 45  1  0
 25 46  1  0
 26 47  1  0
 28 48  1  0
 28 49  1  0
 29 50  1  0
 29 51  1  0
 30 52  1  0
 30 53  1  0
 31 54  1  0
 31 55  1  0
M  CHG  1  11  -1
M  END
>  <UniqueID>  (21) 
18

>  <SMILES>  (21) 
O=C(c1cccc(S(=O)(=O)[N-]c2ccc(S(=O)(=O)N3CCCC3)cc2)c1)N1CCCC1

>  <Energy>  (21) 
65.86980036760137

>  <Genealogy>  (21) 
O=C(c1cccc(S(=O)(=O)[N-]c2ccc(S(=O)(=O)N3CCCC3)cc2)c1)N1CCCC1 (protonated)
O=C(c1cccc(S(=O)(=O)[N-]c2ccc(S(=O)(=O)N3CCCC3)cc2)c1)N1CCCC1 (3D coordinates assigned)
O=C(c1cccc(S(=O)(=O)[N-]c2ccc(S(=O)(=O)N3CCCC3)cc2)c1)N1CCCC1 (nonaromatic ring conformer: 65.86980036760137 kcal/mol)

>  <smiles>  (21) 
O=C(c1cccc(S(=O)(=O)Nc2ccc(S(=O)(=O)N3CCCC3)cc2)c1)N1CCCC1

>  <score_type>  (21) 
oracle

>  <origin>  (21) 
adg

>  <m_score__min__energy>  (21) 
-12.18

>  <m_primary>  (21) 
energy

$$$$
21:0
     RDKit          3D

 59 62  0  0  0  0  0  0  0  0999 V2000
   62.8860   33.7590   47.6230 C   0  0  0  0  0  0  0  0  0  0  0  0
   61.9010   32.7220   47.1640 C   0  0  0  0  0  0  0  0  0  0  0  0
   62.2910   31.5260   47.0840 O   0  0  0  0  0  0  0  0  0  0  0  0
   60.4930   33.0690   46.8060 C   0  0  0  0  0  0  0  0  0  0  0  0
   59.9260   34.2750   47.2650 C   0  0  0  0  0  0  0  0  0  0  0  0
   58.6120   34.6190   46.9290 C   0  0  0  0  0  0  0  0  0  0  0  0
   57.8440   33.7630   46.1390 C   0  0  0  0  0  0  0  0  0  0  0  0
   58.3770   32.5470   45.6830 C   0  0  0  0  0  0  0  0  0  0  0  0
   57.5670   31.7030   44.8440 N   0  0  0  0  0  0  0  0  0  0  0  0
   57.5400   31.7490   43.4080 C   0  0  0  0  0  0  0  0  0  0  0  0
   58.3540   32.4720   42.7650 O   0  0  0  0  0  0  0  0  0  0  0  0
   56.6190   30.9140   42.7060 N   0  0  0  0  0  0  0  0  0  0  0  0
   56.4590   29.4900   42.9830 C   0  0  0  0  0  0  0  0  0  0  0  0
   56.1510   29.2800   44.4390 C   0  0  0  0  0  0  0  0  0  0  0  0
   55.1500   29.8560   44.9360 O   0  0  0  0  0  0  0  0  0  0  0  0
   56.9230   28.4060   45.2740 N   0  0  0  0  0  0  0  0  0  0  0  0
   58.2180   28.6660   45.8360 C   0  0  0  0  0  0  0  0  0  0  0  0
   59.3440   28.5690   45.0120 C   0  0  0  0  0  0  0  0  0  0  0  0
   60.6190   28.7950   45.5340 C   0  0  0  0  0  0  0  0  0  0  0  0
   60.7810   29.0950   46.8890 C   0  0  0  0  0  0  0  0  0  0  0  0
   59.6650   29.1600   47.7420 C   0  0  0  0  0  0  0  0  0  0  0  0
   59.8450   29.4420   49.1910 C   0  0  0  0  0  0  0  0  0  0  0  0
   59.9640   28.4880   50.0040 O   0  0  0  0  0  0  0  0  0  0  0  0
   59.9090   30.7900   49.6870 N   0  0  0  0  0  0  0  0  0  0  0  0
   58.6270   31.4960   49.8680 C   0  0  0  0  0  0  0  0  0  0  0  0
   58.8290   33.0030   50.0670 C   0  0  0  0  0  0  0  0  0  0  0  0
   59.8280   33.2560   51.1950 C   0  0  0  0  0  0  0  0  0  0  0  0
   61.1360   32.5680   50.9020 C   0  0  0  0  0  0  0  0  0  0  0  0
   62.3330   33.1050   51.4030 C   0  0  0  0  0  0  0  0  0  0  0  0
   63.5540   32.4760   51.1340 C   0  0  0  0  0  0  0  0  0  0  0  0
   63.5870   31.3070   50.3690 C   0  0  0  0  0  0  0  0  0  0  0  0
   62.3990   30.7530   49.8840 C   0  0  0  0  0  0  0  0  0  0  0  0
   61.1550   31.3610   50.1660 C   0  0  0  0  0  0  0  0  0  0  0  0
   58.3830   28.9430   47.2030 C   0  0  0  0  0  0  0  0  0  0  0  0
   59.7080   32.2140   46.0030 C   0  0  0  0  0  0  0  0  0  0  0  0
   62.9082   33.7824   48.7225 H   0  0  0  0  0  0  0  0  0  0  0  0
   63.8868   33.5085   47.2413 H   0  0  0  0  0  0  0  0  0  0  0  0
   62.5844   34.7456   47.2413 H   0  0  0  0  0  0  0  0  0  0  0  0
   60.5224   34.9525   47.8936 H   0  0  0  0  0  0  0  0  0  0  0  0
   58.1836   35.5663   47.2884 H   0  0  0  0  0  0  0  0  0  0  0  0
   56.8143   34.0428   45.8718 H   0  0  0  0  0  0  0  0  0  0  0  0
   57.0220   30.9360   45.3040 H   0  0  0  0  0  0  0  0  0  0  0  0
   55.6335   29.0913   42.3750 H   0  0  0  0  0  0  0  0  0  0  0  0
   57.3937   28.9667   42.7329 H   0  0  0  0  0  0  0  0  0  0  0  0
   59.2246   28.3137   43.9487 H   0  0  0  0  0  0  0  0  0  0  0  0
   61.4989   28.7367   44.8764 H   0  0  0  0  0  0  0  0  0  0  0  0
   61.7878   29.2815   47.2910 H   0  0  0  0  0  0  0  0  0  0  0  0
   58.0032   31.3352   48.9764 H   0  0  0  0  0  0  0  0  0  0  0  0
   58.1403   31.0947   50.7692 H   0  0  0  0  0  0  0  0  0  0  0  0
   59.2130   33.4444   49.1355 H   0  0  0  0  0  0  0  0  0  0  0  0
   57.8652   33.4630   50.3306 H   0  0  0  0  0  0  0  0  0  0  0  0
   60.0010   34.3381   51.2901 H   0  0  0  0  0  0  0  0  0  0  0  0
   59.4162   32.8553   52.1330 H   0  0  0  0  0  0  0  0  0  0  0  0
   62.3109   34.0229   52.0088 H   0  0  0  0  0  0  0  0  0  0  0  0
   64.4893   32.9026   51.5254 H   0  0  0  0  0  0  0  0  0  0  0  0
   64.5494   30.8221   50.1482 H   0  0  0  0  0  0  0  0  0  0  0  0
   62.4327   29.8359   49.2776 H   0  0  0  0  0  0  0  0  0  0  0  0
   57.5014   28.9908   47.8591 H   0  0  0  0  0  0  0  0  0  0  0  0
   60.1404   31.2768   45.6226 H   0  0  0  0  0  0  0  0  0  0  0  0
  1  2  1  0
  2  3  2  0
  2  4  1  0
  4  5  2  0
  5  6  1  0
  6  7  2  0
  7  8  1  0
  8  9  1  0
  9 10  1  0
 10 11  2  0
 10 12  1  0
 12 13  1  0
 13 14  1  0
 14 15  2  0
 14 16  1  0
 16 17  1  0
 17 18  2  0
 18 19  1  0
 19 20  2  0
 20 21  1  0
 21 22  1  0
 22 23  2  0
 22 24  1  0
 24 25  1  0
 25 26  1  0
 26 27  1  0
 27 28  1  0
 28 29  2  0
 29 30  1  0
 30 31  2  0
 31 32  1  0
 32 33  2  0
 21 34  2  0
  8 35  2  0
 35  4  1  0
 34 17  1  0
 33 24  1  0
 33 28  1  0
  1 36  1  0
  1 37  1  0
  1 38  1  0
  5 39  1  0
  6 40  1  0
  7 41  1  0
  9 42  1  0
 13 43  1  0
 13 44  1  0
 18 45  1  0
 19 46  1  0
 20 47  1  0
 25 48  1  0
 25 49  1  0
 26 50  1  0
 26 51  1  0
 27 52  1  0
 27 53  1  0
 29 54  1  0
 30 55  1  0
 31 56  1  0
 32 57  1  0
 34 58  1  0
 35 59  1  0
M  CHG  2  12  -1  16  -1
M  END
>  <UniqueID>  (22) 
19

>  <SMILES>  (22) 
CC(=O)c1cccc(NC(=O)[N-]CC(=O)[N-]c2cccc(C(=O)N3CCCc4ccccc43)c2)c1

>  <Energy>  (22) 
74.64144785830493

>  <Genealogy>  (22) 
CC(=O)c1cccc(NC(=O)[N-]CC(=O)[N-]c2cccc(C(=O)N3CCCc4ccccc43)c2)c1 (protonated)
CC(=O)c1cccc(NC(=O)[N-]CC(=O)[N-]c2cccc(C(=O)N3CCCc4ccccc43)c2)c1 (3D coordinates assigned)
CC(=O)c1cccc(NC(=O)[N-]CC(=O)[N-]c2cccc(C(=O)N3CCCc4ccccc43)c2)c1 (nonaromatic ring conformer: 74.64144785830493 kcal/mol)

>  <smiles>  (22) 
CC(=O)c1cccc(NC(=O)NCC(=O)Nc2cccc(C(=O)N3CCCc4ccccc43)c2)c1

>  <score_type>  (22) 
oracle

>  <origin>  (22) 
adg

>  <m_score__min__energy>  (22) 
-13.06

>  <m_primary>  (22) 
energy

$$$$
22:0
     RDKit          3D

 62 65  0  0  0  0  0  0  0  0999 V2000
   56.6350   29.4030   43.0430 C   0  0  0  0  0  0  0  0  0  0  0  0
   57.3190   29.4300   44.1990 C   0  0  0  0  0  0  0  0  0  0  0  0
   57.6630   28.3290   45.0010 C   0  0  0  0  0  0  0  0  0  0  0  0
   57.5710   27.0040   44.7700 C   0  0  0  0  0  0  0  0  0  0  0  0
   57.1170   26.0020   45.7430 C   0  0  0  0  0  0  0  0  0  0  0  0
   57.8600   24.9540   46.1410 N   0  0  0  0  0  0  0  0  0  0  0  0
   57.0100   24.2450   46.9150 C   0  0  0  0  0  0  0  0  0  0  0  0
   57.3480   23.1800   47.4930 O   0  0  0  0  0  0  0  0  0  0  0  0
   55.7650   24.7590   47.0090 N   0  0  0  0  0  0  0  0  0  0  0  0
   55.8450   25.8640   46.2510 C   0  0  0  0  0  0  0  0  0  0  0  0
   54.7720   26.7100   46.0030 O   0  0  0  0  0  0  0  0  0  0  0  0
   58.2050   28.8500   46.1620 C   0  0  0  0  0  0  0  0  0  0  0  0
   58.2530   30.2190   46.0040 C   0  0  0  0  0  0  0  0  0  0  0  0
   58.8950   31.1310   46.9710 C   0  0  0  0  0  0  0  0  0  0  0  0
   58.2710   32.1560   47.3530 O   0  0  0  0  0  0  0  0  0  0  0  0
   60.1650   30.7940   47.5530 N   0  0  0  0  0  0  0  0  0  0  0  0
   60.9270   31.6820   48.3900 C   0  0  0  0  0  0  0  0  0  0  0  0
   62.1750   32.1430   47.9460 C   0  0  0  0  0  0  0  0  0  0  0  0
   62.9340   33.0080   48.7360 C   0  0  0  0  0  0  0  0  0  0  0  0
   62.4580   33.4290   49.9870 C   0  0  0  0  0  0  0  0  0  0  0  0
   63.2780   34.3330   50.8230 C   0  0  0  0  0  0  0  0  0  0  0  0
   63.2870   35.5660   50.5520 O   0  0  0  0  0  0  0  0  0  0  0  0
   64.0890   33.8330   51.9070 N   0  0  0  0  0  0  0  0  0  0  0  0
   64.5710   34.7350   52.9560 C   0  0  0  0  0  0  0  0  0  0  0  0
   66.0910   34.9220   52.8270 C   0  0  0  0  0  0  0  0  0  0  0  0
   66.7910   33.7050   52.3380 N   0  0  0  0  0  0  0  0  0  0  0  0
   67.5550   33.8220   51.0660 C   0  0  0  0  0  0  0  0  0  0  0  0
   69.0860   33.8320   51.2420 C   0  0  0  0  0  0  0  0  0  0  0  0
   67.1300   32.7130   50.0960 C   0  0  0  0  0  0  0  0  0  0  0  0
   66.0470   32.4380   52.5190 C   0  0  0  0  0  0  0  0  0  0  0  0
   64.6580   32.4780   51.8620 C   0  0  0  0  0  0  0  0  0  0  0  0
   61.1890   33.0070   50.4140 C   0  0  0  0  0  0  0  0  0  0  0  0
   60.4270   32.1430   49.6210 C   0  0  0  0  0  0  0  0  0  0  0  0
   57.6880   30.5780   44.8240 N   0  0  0  0  0  0  0  0  0  0  0  0
   57.4510   31.9470   44.3500 C   0  0  0  0  0  0  0  0  0  0  0  0
   56.4272   30.3396   42.5049 H   0  0  0  0  0  0  0  0  0  0  0  0
   56.2827   28.4443   42.6346 H   0  0  0  0  0  0  0  0  0  0  0  0
   57.8595   26.6440   43.7714 H   0  0  0  0  0  0  0  0  0  0  0  0
   58.5349   28.2807   47.0435 H   0  0  0  0  0  0  0  0  0  0  0  0
   60.4810   29.8010   47.4830 H   0  0  0  0  0  0  0  0  0  0  0  0
   62.5589   31.8202   46.9670 H   0  0  0  0  0  0  0  0  0  0  0  0
   63.9112   33.3618   48.3756 H   0  0  0  0  0  0  0  0  0  0  0  0
   64.0735   35.7109   52.8549 H   0  0  0  0  0  0  0  0  0  0  0  0
   64.3417   34.3011   53.9404 H   0  0  0  0  0  0  0  0  0  0  0  0
   66.2836   35.7435   52.1213 H   0  0  0  0  0  0  0  0  0  0  0  0
   66.4800   35.1414   53.8323 H   0  0  0  0  0  0  0  0  0  0  0  0
   67.3033   34.8083   50.6490 H   0  0  0  0  0  0  0  0  0  0  0  0
   69.3318   33.8336   52.3142 H   0  0  0  0  0  0  0  0  0  0  0  0
   69.5153   32.9366   50.7687 H   0  0  0  0  0  0  0  0  0  0  0  0
   69.5036   34.7329   50.7687 H   0  0  0  0  0  0  0  0  0  0  0  0
   66.7936   31.8352   50.6673 H   0  0  0  0  0  0  0  0  0  0  0  0
   66.3071   33.0755   49.4624 H   0  0  0  0  0  0  0  0  0  0  0  0
   67.9844   32.4327   49.4624 H   0  0  0  0  0  0  0  0  0  0  0  0
   66.6277   31.6194   52.0689 H   0  0  0  0  0  0  0  0  0  0  0  0
   65.9042   32.2830   53.5986 H   0  0  0  0  0  0  0  0  0  0  0  0
   64.7479   32.1610   50.8125 H   0  0  0  0  0  0  0  0  0  0  0  0
   63.9907   31.8007   52.4151 H   0  0  0  0  0  0  0  0  0  0  0  0
   60.7917   33.3579   51.3779 H   0  0  0  0  0  0  0  0  0  0  0  0
   59.4315   31.8224   49.9619 H   0  0  0  0  0  0  0  0  0  0  0  0
   57.3347   32.6189   45.2131 H   0  0  0  0  0  0  0  0  0  0  0  0
   58.3053   32.2772   43.7408 H   0  0  0  0  0  0  0  0  0  0  0  0
   56.5354   31.9708   43.7408 H   0  0  0  0  0  0  0  0  0  0  0  0
  1  2  2  0
  2  3  1  0
  3  4  2  3
  4  5  1  0
  5  6  1  0
  6  7  1  0
  7  8  2  0
  7  9  1  0
  9 10  1  0
 10 11  1  0
  3 12  1  0
 12 13  2  0
 13 14  1  0
 14 15  2  0
 14 16  1  0
 16 17  1  0
 17 18  2  0
 18 19  1  0
 19 20  2  0
 20 21  1  0
 21 22  2  0
 21 23  1  0
 23 24  1  0
 24 25  1  0
 25 26  1  0
 26 27  1  0
 27 28  1  0
 27 29  1  0
 26 30  1  0
 30 31  1  0
 20 32  1  0
 32 33  2  0
 13 34  1  0
 34 35  1  0
 34  2  1  0
 10  5  2  0
 33 17  1  0
 31 23  1  0
  1 36  1  0
  1 37  1  0
  4 38  1  0
 12 39  1  0
 16 40  1  0
 18 41  1  0
 19 42  1  0
 24 43  1  0
 24 44  1  0
 25 45  1  0
 25 46  1  0
 27 47  1  0
 28 48  1  0
 28 49  1  0
 28 50  1  0
 29 51  1  0
 29 52  1  0
 29 53  1  0
 30 54  1  0
 30 55  1  0
 31 56  1  0
 31 57  1  0
 32 58  1  0
 33 59  1  0
 35 60  1  0
 35 61  1  0
 35 62  1  0
M  CHG  3   6  -1   9  -1  11  -1
M  END
>  <UniqueID>  (23) 
20

>  <SMILES>  (23) 
C=c1c(=Cc2[n-]c(=O)[n-]c2[O-])cc(C(=O)Nc2ccc(C(=O)N3CCN(C(C)C)CC3)cc2)n1C

>  <Energy>  (23) 
158.80413704528905

>  <Genealogy>  (23) 
C=c1c(=Cc2[n-]c(=O)[n-]c2[O-])cc(C(=O)Nc2ccc(C(=O)N3CCN(C(C)C)CC3)cc2)n1C (protonated)
C=c1c(=Cc2[n-]c(=O)[n-]c2[O-])cc(C(=O)Nc2ccc(C(=O)N3CCN(C(C)C)CC3)cc2)n1C (3D coordinates assigned)
C=c1c(=Cc2[n-]c(=O)[n-]c2[O-])cc(C(=O)Nc2ccc(C(=O)N3CCN(C(C)C)CC3)cc2)n1C (nonaromatic ring conformer: 158.80413704528905 kcal/mol)

>  <smiles>  (23) 
C=c1c(=Cc2[nH]c(=O)[nH]c2O)cc(C(=O)Nc2ccc(C(=O)N3CCN(C(C)C)CC3)cc2)n1C

>  <score_type>  (23) 
oracle

>  <origin>  (23) 
adg

>  <m_score__min__energy>  (23) 
-17.940000000000001

>  <m_primary>  (23) 
energy

$$$$
23:0
     RDKit          3D

 44 46  0  0  0  0  0  0  0  0999 V2000
   58.1220   35.0930   44.2410 H   0  0  0  0  0  0  0  0  0  0  0  0
   58.9160   35.3020   44.8340 O   0  0  0  0  0  0  0  0  0  0  0  0
   59.1980   34.5650   45.9840 C   0  0  0  0  0  0  0  0  0  0  0  0
   60.2750   34.9540   46.7880 C   0  0  0  0  0  0  0  0  0  0  0  0
   60.8817   35.8265   46.5038 H   0  0  0  0  0  0  0  0  0  0  0  0
   60.5850   34.2420   47.9490 C   0  0  0  0  0  0  0  0  0  0  0  0
   61.4154   34.5720   48.5905 H   0  0  0  0  0  0  0  0  0  0  0  0
   59.8410   33.1100   48.2970 C   0  0  0  0  0  0  0  0  0  0  0  0
   60.1490   32.3800   49.5410 C   0  0  0  0  0  0  0  0  0  0  0  0
   60.0012   32.9047   50.4964 H   0  0  0  0  0  0  0  0  0  0  0  0
   60.6000   31.1110   49.5810 C   0  0  0  0  0  0  0  0  0  0  0  0
   60.5220   30.1910   48.4130 C   0  0  0  0  0  0  0  0  0  0  0  0
   60.5230   30.6640   47.2450 O   0  0  0  0  0  0  0  0  0  0  0  0
   60.5820   28.7190   48.6380 C   0  0  0  0  0  0  0  0  0  0  0  0
   60.3190   27.7950   47.6880 C   0  0  0  0  0  0  0  0  0  0  0  0
   61.1691   27.2075   47.3108 H   0  0  0  0  0  0  0  0  0  0  0  0
   58.9900   27.5040   47.1110 C   0  0  0  0  0  0  0  0  0  0  0  0
   58.3570   26.2970   47.4360 C   0  0  0  0  0  0  0  0  0  0  0  0
   58.8662   25.5715   48.0874 H   0  0  0  0  0  0  0  0  0  0  0  0
   57.0820   26.0080   46.9380 C   0  0  0  0  0  0  0  0  0  0  0  0
   56.2570   24.3400   47.3800 Br  0  0  0  0  0  0  0  0  0  0  0  0
   56.4210   26.9400   46.1270 C   0  0  0  0  0  0  0  0  0  0  0  0
   55.1560   26.6530   45.6270 O   0  0  0  0  0  0  0  0  0  0  0  0
   57.0350   28.1620   45.8220 C   0  0  0  0  0  0  0  0  0  0  0  0
   56.1390   29.4490   44.7280 Br  0  0  0  0  0  0  0  0  0  0  0  0
   58.3110   28.4490   46.3240 C   0  0  0  0  0  0  0  0  0  0  0  0
   58.7827   29.4174   46.1012 H   0  0  0  0  0  0  0  0  0  0  0  0
   60.9540   28.2350   50.0220 C   0  0  0  0  0  0  0  0  0  0  0  0
   61.4804   27.2729   49.9368 H   0  0  0  0  0  0  0  0  0  0  0  0
   60.0325   28.1205   50.6116 H   0  0  0  0  0  0  0  0  0  0  0  0
   61.8640   29.2420   50.7320 C   0  0  0  0  0  0  0  0  0  0  0  0
   62.7845   29.3708   50.1437 H   0  0  0  0  0  0  0  0  0  0  0  0
   62.0958   28.8550   51.7352 H   0  0  0  0  0  0  0  0  0  0  0  0
   61.1740   30.6010   50.8840 C   0  0  0  0  0  0  0  0  0  0  0  0
   61.9097   31.3302   51.2542 H   0  0  0  0  0  0  0  0  0  0  0  0
   60.3390   30.4736   51.5886 H   0  0  0  0  0  0  0  0  0  0  0  0
   58.7520   32.7220   47.5000 C   0  0  0  0  0  0  0  0  0  0  0  0
   58.1583   31.8392   47.7796 H   0  0  0  0  0  0  0  0  0  0  0  0
   58.4140   33.4540   46.3460 C   0  0  0  0  0  0  0  0  0  0  0  0
   57.3070   33.1160   45.5510 O   0  0  0  0  0  0  0  0  0  0  0  0
   57.3930   32.5580   44.2430 C   0  0  0  0  0  0  0  0  0  0  0  0
   57.5602   31.4733   44.3174 H   0  0  0  0  0  0  0  0  0  0  0  0
   56.4550   32.7481   43.7009 H   0  0  0  0  0  0  0  0  0  0  0  0
   58.2303   33.0217   43.7009 H   0  0  0  0  0  0  0  0  0  0  0  0
  1  2  1  0
  2  3  1  0
  3  4  2  0
  4  5  1  0
  4  6  1  0
  6  7  1  0
  6  8  2  0
  8  9  1  0
  9 10  1  0
  9 11  2  3
 11 12  1  0
 12 13  2  0
 12 14  1  0
 14 15  2  0
 15 16  1  0
 15 17  1  0
 17 18  2  0
 18 19  1  0
 18 20  1  0
 20 21  1  0
 20 22  2  0
 22 23  1  0
 22 24  1  0
 24 25  1  0
 24 26  2  0
 26 27  1  0
 14 28  1  0
 28 29  1  0
 28 30  1  0
 28 31  1  0
 31 32  1  0
 31 33  1  0
 31 34  1  0
 34 35  1  0
 34 36  1  0
  8 37  1  0
 37 38  1  0
 37 39  2  0
 39 40  1  0
 40 41  1  0
 41 42  1  0
 41 43  1  0
 41 44  1  0
 39  3  1  0
 34 11  1  0
 26 17  1  0
M  CHG  1  23  -1
M  END
>  <UniqueID>  (24) 
21

>  <SMILES>  (24) 
COc1cc(C=C2CCC/C(=C/c3cc(Br)c([O-])c(Br)c3)C2=O)ccc1O

>  <Energy>  (24) 
61.82158035741091

>  <Genealogy>  (24) 
COc1cc(C=C2CCCC(=Cc3cc(Br)c([O-])c(Br)c3)C2=O)ccc1O (protonated)
COc1cc(C=C2CCC/C(=C/c3cc(Br)c([O-])c(Br)c3)C2=O)ccc1O (cis-trans isomerization)
COc1cc(C=C2CCC/C(=C/c3cc(Br)c([O-])c(Br)c3)C2=O)ccc1O (3D coordinates assigned)
COc1cc(C=C2CCC/C(=C/c3cc(Br)c([O-])c(Br)c3)C2=O)ccc1O (nonaromatic ring conformer: 61.82158035741091 kcal/mol)

>  <smiles>  (24) 
COc1cc(C=C2CCCC(=Cc3cc(Br)c(O)c(Br)c3)C2=O)ccc1O

>  <score_type>  (24) 
oracle

>  <origin>  (24) 
adg

>  <m_score__min__energy>  (24) 
-11.49

>  <m_primary>  (24) 
energy

$$$$
24:0
     RDKit          3D

 41 42  0  0  0  0  0  0  0  0999 V2000
   56.2780   29.4450   42.6690 C   0  0  0  0  0  0  0  0  0  0  0  0
   56.1010   29.8320   44.1020 C   0  0  0  0  0  0  0  0  0  0  0  0
   55.1440   29.3430   44.7590 O   0  0  0  0  0  0  0  0  0  0  0  0
   57.0000   30.8180   44.7350 C   0  0  0  0  0  0  0  0  0  0  0  0
   57.7020   30.4740   45.7230 O   0  0  0  0  0  0  0  0  0  0  0  0
   57.1530   32.1410   44.2030 N   0  0  0  0  0  0  0  0  0  0  0  0
   57.0560   33.2620   44.8600 C   0  0  0  0  0  0  0  0  0  0  0  0
   58.1390   33.8350   45.6910 C   0  0  0  0  0  0  0  0  0  0  0  0
   58.9000   34.9300   45.2470 C   0  0  0  0  0  0  0  0  0  0  0  0
   59.8940   35.4740   46.0630 C   0  0  0  0  0  0  0  0  0  0  0  0
   60.1280   34.9420   47.3320 C   0  0  0  0  0  0  0  0  0  0  0  0
   59.3660   33.8600   47.7950 C   0  0  0  0  0  0  0  0  0  0  0  0
   59.6760   33.1740   49.3930 S   0  0  0  0  0  0  0  0  0  0  0  0
   59.3750   34.2100   50.4400 O   0  0  0  0  0  0  0  0  0  0  0  0
   58.7530   32.0070   49.6150 O   0  0  0  0  0  0  0  0  0  0  0  0
   61.3340   32.6370   49.5570 N   0  0  0  0  0  0  0  0  0  0  0  0
   61.7430   31.7880   48.4040 C   0  0  0  0  0  0  0  0  0  0  0  0
   62.6060   32.5420   47.3820 C   0  0  0  0  0  0  0  0  0  0  0  0
   63.8880   33.0880   48.0360 C   0  0  0  0  0  0  0  0  0  0  0  0
   63.6890   33.4580   49.5160 C   0  0  0  0  0  0  0  0  0  0  0  0
   62.2230   33.7990   49.8070 C   0  0  0  0  0  0  0  0  0  0  0  0
   58.3610   33.3220   46.9770 C   0  0  0  0  0  0  0  0  0  0  0  0
   56.7349   28.4460   42.6127 H   0  0  0  0  0  0  0  0  0  0  0  0
   55.2979   29.4286   42.1699 H   0  0  0  0  0  0  0  0  0  0  0  0
   56.9314   30.1757   42.1699 H   0  0  0  0  0  0  0  0  0  0  0  0
   56.1092   33.8180   44.7930 H   0  0  0  0  0  0  0  0  0  0  0  0
   58.7118   35.3604   44.2523 H   0  0  0  0  0  0  0  0  0  0  0  0
   60.4939   36.3236   45.7049 H   0  0  0  0  0  0  0  0  0  0  0  0
   60.9128   35.3730   47.9709 H   0  0  0  0  0  0  0  0  0  0  0  0
   61.3580   32.0360   50.4140 H   0  0  0  0  0  0  0  0  0  0  0  0
   62.3187   30.9318   48.7856 H   0  0  0  0  0  0  0  0  0  0  0  0
   60.8255   31.4679   47.8885 H   0  0  0  0  0  0  0  0  0  0  0  0
   62.8821   31.8551   46.5684 H   0  0  0  0  0  0  0  0  0  0  0  0
   62.0244   33.3899   46.9910 H   0  0  0  0  0  0  0  0  0  0  0  0
   64.6724   32.3198   47.9678 H   0  0  0  0  0  0  0  0  0  0  0  0
   64.1695   34.0060   47.4992 H   0  0  0  0  0  0  0  0  0  0  0  0
   63.9911   32.6062   50.1431 H   0  0  0  0  0  0  0  0  0  0  0  0
   64.3047   34.3413   49.7413 H   0  0  0  0  0  0  0  0  0  0  0  0
   62.1287   34.1010   50.8605 H   0  0  0  0  0  0  0  0  0  0  0  0
   61.9192   34.6164   49.1365 H   0  0  0  0  0  0  0  0  0  0  0  0
   57.7424   32.4913   47.3474 H   0  0  0  0  0  0  0  0  0  0  0  0
  1  2  1  0
  2  3  2  0
  2  4  1  0
  4  5  2  0
  4  6  1  0
  6  7  2  3
  7  8  1  0
  8  9  2  0
  9 10  1  0
 10 11  2  0
 11 12  1  0
 12 13  1  0
 13 14  2  0
 13 15  2  0
 13 16  1  0
 16 17  1  0
 17 18  1  0
 18 19  1  0
 19 20  1  0
 20 21  1  0
 12 22  2  0
 22  8  1  0
 21 16  1  0
  1 23  1  0
  1 24  1  0
  1 25  1  0
  7 26  1  0
  9 27  1  0
 10 28  1  0
 11 29  1  0
 16 30  1  0
 17 31  1  0
 17 32  1  0
 18 33  1  0
 18 34  1  0
 19 35  1  0
 19 36  1  0
 20 37  1  0
 20 38  1  0
 21 39  1  0
 21 40  1  0
 22 41  1  0
M  CHG  1  16   1
M  END
>  <UniqueID>  (25) 
22

>  <SMILES>  (25) 
CC(=O)C(=O)N=Cc1cccc(S(=O)(=O)[NH+]2CCCCC2)c1

>  <Energy>  (25) 
52.65485380294078

>  <Genealogy>  (25) 
CC(=O)C(=O)N=Cc1cccc(S(=O)(=O)[NH+]2CCCCC2)c1 (protonated)
CC(=O)C(=O)N=Cc1cccc(S(=O)(=O)[NH+]2CCCCC2)c1 (3D coordinates assigned)
CC(=O)C(=O)N=Cc1cccc(S(=O)(=O)[NH+]2CCCCC2)c1 (nonaromatic ring conformer: 52.65485380294078 kcal/mol)

>  <smiles>  (25) 
CC(=O)C(=O)N=Cc1cccc(S(=O)(=O)N2CCCCC2)c1

>  <score_type>  (25) 
oracle

>  <origin>  (25) 
adg

>  <m_score__min__energy>  (25) 
-7.3499999999999996

>  <m_primary>  (25) 
energy

$$$$
25:0
     RDKit          3D

 41 43  0  0  0  0  0  0  0  0999 V2000
   63.5680   33.4790   46.9390 C   0  0  0  0  0  0  0  0  0  0  0  0
   62.3500   32.9400   46.8580 C   0  0  0  0  0  0  0  0  0  0  0  0
   61.1670   33.7580   46.4250 C   0  0  0  0  0  0  0  0  0  0  0  0
   60.0290   33.5200   47.3210 N   0  0  0  0  0  0  0  0  0  0  0  0
   58.8510   32.9120   47.0500 C   0  0  0  0  0  0  0  0  0  0  0  0
   58.3680   32.5260   45.7110 C   0  0  0  0  0  0  0  0  0  0  0  0
   58.7510   33.2530   44.5750 C   0  0  0  0  0  0  0  0  0  0  0  0
   58.2610   32.9000   43.3150 C   0  0  0  0  0  0  0  0  0  0  0  0
   57.3820   31.8230   43.1820 C   0  0  0  0  0  0  0  0  0  0  0  0
   56.9900   31.0880   44.3100 C   0  0  0  0  0  0  0  0  0  0  0  0
   56.0820   29.9370   44.1540 C   0  0  0  0  0  0  0  0  0  0  0  0
   55.5270   29.7420   43.0410 O   0  0  0  0  0  0  0  0  0  0  0  0
   55.8480   29.0030   45.2180 N   0  0  0  0  0  0  0  0  0  0  0  0
   56.7330   27.9040   45.6000 C   0  0  0  0  0  0  0  0  0  0  0  0
   58.1460   28.3910   45.7910 C   0  0  0  0  0  0  0  0  0  0  0  0
   59.0320   28.4330   44.7030 C   0  0  0  0  0  0  0  0  0  0  0  0
   60.3330   28.9170   44.8730 C   0  0  0  0  0  0  0  0  0  0  0  0
   60.7570   29.3610   46.1280 C   0  0  0  0  0  0  0  0  0  0  0  0
   59.8830   29.3170   47.2180 C   0  0  0  0  0  0  0  0  0  0  0  0
   58.5840   28.8280   47.0520 C   0  0  0  0  0  0  0  0  0  0  0  0
   57.4640   31.4610   45.5770 C   0  0  0  0  0  0  0  0  0  0  0  0
   58.1560   32.6600   48.1770 N   0  0  0  0  0  0  0  0  0  0  0  0
   58.8820   33.1040   49.1920 N   0  0  0  0  0  0  0  0  0  0  0  0
   60.0100   33.6150   48.6670 C   0  0  0  0  0  0  0  0  0  0  0  0
   61.2320   34.2080   49.5830 S   0  0  0  0  0  0  0  0  0  0  0  0
   64.4218   32.8633   47.2582 H   0  0  0  0  0  0  0  0  0  0  0  0
   63.7182   34.5390   46.6866 H   0  0  0  0  0  0  0  0  0  0  0  0
   62.2100   31.8791   47.1126 H   0  0  0  0  0  0  0  0  0  0  0  0
   61.4337   34.8248   46.4523 H   0  0  0  0  0  0  0  0  0  0  0  0
   60.8849   33.4667   45.4025 H   0  0  0  0  0  0  0  0  0  0  0  0
   59.4399   34.1046   44.6761 H   0  0  0  0  0  0  0  0  0  0  0  0
   58.5681   33.4713   42.4265 H   0  0  0  0  0  0  0  0  0  0  0  0
   56.9958   31.5503   42.1888 H   0  0  0  0  0  0  0  0  0  0  0  0
   56.3738   27.4634   46.5417 H   0  0  0  0  0  0  0  0  0  0  0  0
   56.7265   27.1529   44.7964 H   0  0  0  0  0  0  0  0  0  0  0  0
   58.7019   28.0841   43.7134 H   0  0  0  0  0  0  0  0  0  0  0  0
   61.0235   28.9482   44.0173 H   0  0  0  0  0  0  0  0  0  0  0  0
   61.7793   29.7455   46.2584 H   0  0  0  0  0  0  0  0  0  0  0  0
   60.2172   29.6670   48.2058 H   0  0  0  0  0  0  0  0  0  0  0  0
   57.9013   28.7852   47.9134 H   0  0  0  0  0  0  0  0  0  0  0  0
   57.1251   30.9156   46.4701 H   0  0  0  0  0  0  0  0  0  0  0  0
  1  2  2  0
  2  3  1  0
  3  4  1  0
  4  5  1  0
  5  6  1  0
  6  7  2  0
  7  8  1  0
  8  9  2  0
  9 10  1  0
 10 11  1  0
 11 12  2  0
 11 13  1  0
 13 14  1  0
 14 15  1  0
 15 16  2  0
 16 17  1  0
 17 18  2  0
 18 19  1  0
 19 20  2  0
 10 21  2  0
  5 22  2  0
 22 23  1  0
 23 24  1  0
 24 25  2  0
 24  4  1  0
 21  6  1  0
 20 15  1  0
  1 26  1  0
  1 27  1  0
  2 28  1  0
  3 29  1  0
  3 30  1  0
  7 31  1  0
  8 32  1  0
  9 33  1  0
 14 34  1  0
 14 35  1  0
 16 36  1  0
 17 37  1  0
 18 38  1  0
 19 39  1  0
 20 40  1  0
 21 41  1  0
M  CHG  2  13  -1  23  -1
M  END
>  <UniqueID>  (26) 
23

>  <SMILES>  (26) 
C=CCn1c(-c2cccc(C(=O)[N-]Cc3ccccc3)c2)n[n-]c1=S

>  <Energy>  (26) 
81.70110194758738

>  <Genealogy>  (26) 
C=CCn1c(-c2cccc(C(=O)[N-]Cc3ccccc3)c2)n[n-]c1=S (protonated)
C=CCn1c(-c2cccc(C(=O)[N-]Cc3ccccc3)c2)n[n-]c1=S (3D coordinates assigned)
C=CCn1c(-c2cccc(C(=O)[N-]Cc3ccccc3)c2)n[n-]c1=S (optimized conformer: 81.70110194758738 kcal/mol)

>  <smiles>  (26) 
C=CCn1c(-c2cccc(C(=O)NCc3ccccc3)c2)n[nH]c1=S

>  <score_type>  (26) 
oracle

>  <origin>  (26) 
adg

>  <m_score__min__energy>  (26) 
-11.44

>  <m_primary>  (26) 
energy

$$$$
26:0
     RDKit          3D

 48 51  0  0  0  0  0  0  0  0999 V2000
   60.0295   26.9743   45.7638 H   0  0  0  0  0  0  0  0  0  0  0  0
   58.9330   26.9220   45.8340 C   0  0  0  0  0  0  0  0  0  0  0  0
   58.1810   28.0060   45.5140 N   0  0  0  0  0  0  0  0  0  0  0  0
   56.8230   28.0080   45.5890 C   0  0  0  0  0  0  0  0  0  0  0  0
   56.2030   29.1030   45.2420 N   0  0  0  0  0  0  0  0  0  0  0  0
   56.6580   30.1550   44.3780 C   0  0  0  0  0  0  0  0  0  0  0  0
   56.3180   30.1560   43.1620 O   0  0  0  0  0  0  0  0  0  0  0  0
   57.4410   31.2840   44.9330 C   0  0  0  0  0  0  0  0  0  0  0  0
   57.0210   32.6120   44.7270 C   0  0  0  0  0  0  0  0  0  0  0  0
   56.1257   32.8140   44.1206 H   0  0  0  0  0  0  0  0  0  0  0  0
   57.7330   33.6740   45.2870 C   0  0  0  0  0  0  0  0  0  0  0  0
   57.3994   34.7084   45.1177 H   0  0  0  0  0  0  0  0  0  0  0  0
   58.8670   33.4260   46.0610 C   0  0  0  0  0  0  0  0  0  0  0  0
   59.4186   34.2650   46.5103 H   0  0  0  0  0  0  0  0  0  0  0  0
   59.3040   32.1150   46.2670 C   0  0  0  0  0  0  0  0  0  0  0  0
   60.4300   31.8790   47.0600 O   0  0  0  0  0  0  0  0  0  0  0  0
   60.3970   31.2180   48.2960 C   0  0  0  0  0  0  0  0  0  0  0  0
   61.6110   30.9270   48.9240 C   0  0  0  0  0  0  0  0  0  0  0  0
   62.5570   31.2399   48.4581 H   0  0  0  0  0  0  0  0  0  0  0  0
   61.6290   30.2410   50.1400 C   0  0  0  0  0  0  0  0  0  0  0  0
   62.5883   30.0191   50.6304 H   0  0  0  0  0  0  0  0  0  0  0  0
   60.4330   29.8360   50.7350 C   0  0  0  0  0  0  0  0  0  0  0  0
   60.4552   29.3011   51.6959 H   0  0  0  0  0  0  0  0  0  0  0  0
   59.2070   30.1050   50.1190 C   0  0  0  0  0  0  0  0  0  0  0  0
   58.0030   29.6920   50.7860 N   0  0  0  0  0  0  0  0  0  0  0  0
   57.2110   30.4540   51.7090 C   0  0  0  0  0  0  0  0  0  0  0  0
   56.0350   30.0920   51.9830 O   0  0  0  0  0  0  0  0  0  0  0  0
   57.7940   31.6390   52.3850 C   0  0  0  0  0  0  0  0  0  0  0  0
   58.0780   32.8100   51.6620 C   0  0  0  0  0  0  0  0  0  0  0  0
   57.8618   32.8522   50.5843 H   0  0  0  0  0  0  0  0  0  0  0  0
   58.6330   33.9210   52.3020 C   0  0  0  0  0  0  0  0  0  0  0  0
   58.8402   34.8375   51.7300 H   0  0  0  0  0  0  0  0  0  0  0  0
   58.9250   33.8700   53.6660 C   0  0  0  0  0  0  0  0  0  0  0  0
   59.3671   34.7441   54.1664 H   0  0  0  0  0  0  0  0  0  0  0  0
   58.6570   32.7130   54.3940 C   0  0  0  0  0  0  0  0  0  0  0  0
   58.8950   32.6728   55.4672 H   0  0  0  0  0  0  0  0  0  0  0  0
   58.0860   31.6020   53.7640 C   0  0  0  0  0  0  0  0  0  0  0  0
   57.8639   30.6959   54.3468 H   0  0  0  0  0  0  0  0  0  0  0  0
   59.1880   30.8130   48.9010 C   0  0  0  0  0  0  0  0  0  0  0  0
   58.2277   31.0509   48.4201 H   0  0  0  0  0  0  0  0  0  0  0  0
   58.5970   31.0460   45.7010 C   0  0  0  0  0  0  0  0  0  0  0  0
   58.9469   30.0150   45.8575 H   0  0  0  0  0  0  0  0  0  0  0  0
   56.1630   26.8170   45.9890 C   0  0  0  0  0  0  0  0  0  0  0  0
   54.7770   26.7070   46.0230 O   0  0  0  0  0  0  0  0  0  0  0  0
   56.9260   25.6960   46.3330 C   0  0  0  0  0  0  0  0  0  0  0  0
   56.4263   24.7753   46.6688 H   0  0  0  0  0  0  0  0  0  0  0  0
   58.3170   25.7410   46.2520 C   0  0  0  0  0  0  0  0  0  0  0  0
   58.9202   24.8591   46.5135 H   0  0  0  0  0  0  0  0  0  0  0  0
  1  2  1  0
  2  3  1  0
  3  4  1  0
  4  5  2  0
  5  6  1  0
  6  7  2  0
  6  8  1  0
  8  9  2  0
  9 10  1  0
  9 11  1  0
 11 12  1  0
 11 13  2  0
 13 14  1  0
 13 15  1  0
 15 16  1  0
 16 17  1  0
 17 18  2  0
 18 19  1  0
 18 20  1  0
 20 21  1  0
 20 22  2  0
 22 23  1  0
 22 24  1  0
 24 25  1  0
 25 26  1  0
 26 27  2  0
 26 28  1  0
 28 29  2  0
 29 30  1  0
 29 31  1  0
 31 32  1  0
 31 33  2  0
 33 34  1  0
 33 35  1  0
 35 36  1  0
 35 37  2  0
 37 38  1  0
 24 39  2  0
 39 40  1  0
 15 41  2  0
 41 42  1  0
  4 43  1  0
 43 44  1  0
 43 45  2  0
 45 46  1  0
 45 47  1  0
 47 48  1  0
 47  2  2  0
 41  8  1  0
 39 17  1  0
 37 28  1  0
M  CHG  3   3  -1  25  -1  44  -1
M  END
>  <UniqueID>  (27) 
24

>  <SMILES>  (27) 
O=C(/N=c1/[n-]cccc1[O-])c1cccc(Oc2cccc([N-]C(=O)c3ccccc3)c2)c1

>  <Energy>  (27) 
79.8875722480875

>  <Genealogy>  (27) 
O=C(N=c1[n-]cccc1[O-])c1cccc(Oc2cccc([N-]C(=O)c3ccccc3)c2)c1 (protonated)
O=C(/N=c1/[n-]cccc1[O-])c1cccc(Oc2cccc([N-]C(=O)c3ccccc3)c2)c1 (cis-trans isomerization)
O=C(/N=c1/[n-]cccc1[O-])c1cccc(Oc2cccc([N-]C(=O)c3ccccc3)c2)c1 (3D coordinates assigned)
O=C(/N=c1/[n-]cccc1[O-])c1cccc(Oc2cccc([N-]C(=O)c3ccccc3)c2)c1 (optimized conformer: 79.8875722480875 kcal/mol)

>  <smiles>  (27) 
O=C(N=c1[nH]cccc1O)c1cccc(Oc2cccc(NC(=O)c3ccccc3)c2)c1

>  <score_type>  (27) 
oracle

>  <origin>  (27) 
adg

>  <m_score__min__energy>  (27) 
-16.059999999999999

>  <m_primary>  (27) 
energy

$$$$
27:0
     RDKit          3D

 52 54  0  0  0  0  0  0  0  0999 V2000
   56.6090   27.6170   46.0150 O   0  0  0  0  0  0  0  0  0  0  0  0
   57.4120   28.4960   45.6080 C   0  0  0  0  0  0  0  0  0  0  0  0
   57.7630   28.5490   44.1460 C   0  0  0  0  0  0  0  0  0  0  0  0
   58.0950   29.9170   43.7510 N   0  0  0  0  0  0  0  0  0  0  0  0
   57.2450   31.0340   44.0420 C   0  0  0  0  0  0  0  0  0  0  0  0
   56.0800   30.8480   44.4870 O   0  0  0  0  0  0  0  0  0  0  0  0
   57.7320   32.4310   43.8030 C   0  0  0  0  0  0  0  0  0  0  0  0
   58.1820   33.0580   45.0940 C   0  0  0  0  0  0  0  0  0  0  0  0
   58.9190   34.2550   45.0840 C   0  0  0  0  0  0  0  0  0  0  0  0
   59.3150   34.8490   46.2880 C   0  0  0  0  0  0  0  0  0  0  0  0
   58.9710   34.2560   47.5080 C   0  0  0  0  0  0  0  0  0  0  0  0
   58.2260   33.0730   47.5270 C   0  0  0  0  0  0  0  0  0  0  0  0
   57.8300   32.4750   46.3260 C   0  0  0  0  0  0  0  0  0  0  0  0
   57.9320   29.4480   46.5450 N   0  0  0  0  0  0  0  0  0  0  0  0
   59.3240   29.5000   46.9790 C   0  0  0  0  0  0  0  0  0  0  0  0
   59.5390   28.4930   48.0710 C   0  0  0  0  0  0  0  0  0  0  0  0
   59.4260   27.2680   47.8000 O   0  0  0  0  0  0  0  0  0  0  0  0
   59.7190   28.8860   49.4410 N   0  0  0  0  0  0  0  0  0  0  0  0
   59.5010   30.1960   49.9860 C   0  0  0  0  0  0  0  0  0  0  0  0
   58.1980   30.6950   50.1630 C   0  0  0  0  0  0  0  0  0  0  0  0
   57.9990   31.9870   50.6550 C   0  0  0  0  0  0  0  0  0  0  0  0
   59.0960   32.8010   50.9520 C   0  0  0  0  0  0  0  0  0  0  0  0
   60.3940   32.3290   50.7450 C   0  0  0  0  0  0  0  0  0  0  0  0
   60.6030   31.0320   50.2540 C   0  0  0  0  0  0  0  0  0  0  0  0
   62.2840   30.4710   49.9540 S   0  0  0  0  0  0  0  0  0  0  0  0
   62.6150   31.7590   48.7520 C   0  0  0  0  0  0  0  0  0  0  0  0
   63.8030   32.4990   48.8220 C   0  0  0  0  0  0  0  0  0  0  0  0
   64.0720   33.4810   47.8640 C   0  0  0  0  0  0  0  0  0  0  0  0
   63.1590   33.7240   46.8340 C   0  0  0  0  0  0  0  0  0  0  0  0
   61.9710   32.9910   46.7650 C   0  0  0  0  0  0  0  0  0  0  0  0
   61.6970   32.0120   47.7250 C   0  0  0  0  0  0  0  0  0  0  0  0
   58.6286   27.8970   43.9572 H   0  0  0  0  0  0  0  0  0  0  0  0
   56.8977   28.2080   43.5586 H   0  0  0  0  0  0  0  0  0  0  0  0
   58.9900   30.0850   43.2380 H   0  0  0  0  0  0  0  0  0  0  0  0
   58.5769   32.4048   43.0991 H   0  0  0  0  0  0  0  0  0  0  0  0
   56.9091   33.0287   43.3841 H   0  0  0  0  0  0  0  0  0  0  0  0
   59.1855   34.7265   44.1266 H   0  0  0  0  0  0  0  0  0  0  0  0
   59.8969   35.7824   46.2752 H   0  0  0  0  0  0  0  0  0  0  0  0
   59.2872   34.7212   48.4533 H   0  0  0  0  0  0  0  0  0  0  0  0
   57.9510   32.6121   48.4872 H   0  0  0  0  0  0  0  0  0  0  0  0
   57.2414   31.5459   46.3444 H   0  0  0  0  0  0  0  0  0  0  0  0
   59.9831   29.2677   46.1295 H   0  0  0  0  0  0  0  0  0  0  0  0
   59.5564   30.5074   47.3546 H   0  0  0  0  0  0  0  0  0  0  0  0
   57.3317   30.0649   49.9128 H   0  0  0  0  0  0  0  0  0  0  0  0
   56.9774   32.3646   50.8090 H   0  0  0  0  0  0  0  0  0  0  0  0
   58.9367   33.8143   51.3492 H   0  0  0  0  0  0  0  0  0  0  0  0
   61.2550   32.9764   50.9677 H   0  0  0  0  0  0  0  0  0  0  0  0
   64.5237   32.3072   49.6306 H   0  0  0  0  0  0  0  0  0  0  0  0
   65.0035   34.0632   47.9209 H   0  0  0  0  0  0  0  0  0  0  0  0
   63.3756   34.4925   46.0773 H   0  0  0  0  0  0  0  0  0  0  0  0
   61.2516   33.1843   45.9556 H   0  0  0  0  0  0  0  0  0  0  0  0
   60.7590   31.4397   47.6735 H   0  0  0  0  0  0  0  0  0  0  0  0
  1  2  2  0
  2  3  1  0
  3  4  1  0
  4  5  1  0
  5  6  2  0
  5  7  1  0
  7  8  1  0
  8  9  2  0
  9 10  1  0
 10 11  2  0
 11 12  1  0
 12 13  2  0
  2 14  1  0
 14 15  1  0
 15 16  1  0
 16 17  2  0
 16 18  1  0
 18 19  1  0
 19 20  2  0
 20 21  1  0
 21 22  2  0
 22 23  1  0
 23 24  2  0
 24 25  1  0
 25 26  1  0
 26 27  2  0
 27 28  1  0
 28 29  2  0
 29 30  1  0
 30 31  2  0
 13  8  1  0
 24 19  1  0
 31 26  1  0
  3 32  1  0
  3 33  1  0
  4 34  1  0
  7 35  1  0
  7 36  1  0
  9 37  1  0
 10 38  1  0
 11 39  1  0
 12 40  1  0
 13 41  1  0
 15 42  1  0
 15 43  1  0
 20 44  1  0
 21 45  1  0
 22 46  1  0
 23 47  1  0
 27 48  1  0
 28 49  1  0
 29 50  1  0
 30 51  1  0
 31 52  1  0
M  CHG  2  14  -1  18  -1
M  END
>  <UniqueID>  (28) 
25

>  <SMILES>  (28) 
O=C(CNC(=O)Cc1ccccc1)[N-]CC(=O)[N-]c1ccccc1Sc1ccccc1

>  <Energy>  (28) 
40.536794331788826

>  <Genealogy>  (28) 
O=C(CNC(=O)Cc1ccccc1)[N-]CC(=O)[N-]c1ccccc1Sc1ccccc1 (protonated)
O=C(CNC(=O)Cc1ccccc1)[N-]CC(=O)[N-]c1ccccc1Sc1ccccc1 (3D coordinates assigned)
O=C(CNC(=O)Cc1ccccc1)[N-]CC(=O)[N-]c1ccccc1Sc1ccccc1 (optimized conformer: 40.536794331788826 kcal/mol)

>  <smiles>  (28) 
O=C(CNC(=O)Cc1ccccc1)NCC(=O)Nc1ccccc1Sc1ccccc1

>  <score_type>  (28) 
oracle

>  <origin>  (28) 
adg

>  <m_score__min__energy>  (28) 
-11.92

>  <m_primary>  (28) 
energy

$$$$
28:0
     RDKit          3D

 52 54  0  0  1  0  0  0  0  0999 V2000
   57.9770   31.6050   50.8420 C   0  0  0  0  0  0  0  0  0  0  0  0
   58.6720   30.2800   50.8590 C   0  0  0  0  0  0  0  0  0  0  0  0
   58.3420   29.5550   49.6510 N   0  0  0  0  0  0  0  0  0  0  0  0
   59.0970   29.7290   48.6170 C   0  0  0  0  0  0  0  0  0  0  0  0
   60.0090   30.7320   48.5780 N   0  0  0  0  0  0  0  0  0  0  0  0
   60.8110   30.8860   47.4840 C   0  0  0  0  0  0  0  0  0  0  0  0
   61.7410   31.9510   47.5480 N   0  0  0  0  0  0  0  0  0  0  0  0
   63.1750   31.7970   47.4770 C   0  0  0  0  0  0  0  0  0  0  0  0
   63.7520   33.1380   47.0940 C   0  0  0  0  0  0  0  0  0  0  0  0
   63.0500   33.7850   46.0910 O   0  0  0  0  0  0  0  0  0  0  0  0
   61.7390   34.1070   46.4180 C   0  0  0  0  0  0  0  0  0  0  0  0
   61.2700   33.3510   47.6520 C   0  0  0  0  0  0  0  0  0  0  0  0
   60.6960   30.0520   46.4510 N   0  0  0  0  0  0  0  0  0  0  0  0
   59.7920   29.0520   46.4810 C   0  0  0  0  0  0  0  0  0  0  0  0
   59.6100   27.8540   45.1780 S   0  0  0  0  0  0  0  0  0  0  0  0
   58.2180   28.3210   44.1320 C   0  0  0  0  0  0  0  0  0  0  0  0
   57.0520   28.5010   45.0860 C   0  0  0  0  0  0  0  0  0  0  0  0
   56.8270   27.7000   46.0160 O   0  0  0  0  0  0  0  0  0  0  0  0
   56.2550   29.6550   44.8140 N   0  0  0  0  0  0  0  0  0  0  0  0
   56.8420   30.7580   44.5350 C   0  0  0  0  0  0  0  0  0  0  0  0
   57.2350   31.6780   45.4230 N   0  0  0  0  0  0  0  0  0  0  0  0
   57.8800   32.8000   45.0830 C   0  0  0  0  0  0  0  0  0  0  0  0
   58.2900   33.7950   46.1320 C   0  0  0  0  0  0  0  0  0  0  0  0
   58.1700   33.0580   43.7730 C   0  0  0  0  0  0  0  0  0  0  0  0
   57.7700   32.1090   42.8210 C   0  0  0  0  0  0  0  0  0  0  0  0
   58.0810   32.3560   41.3880 C   0  0  0  0  0  0  0  0  0  0  0  0
   57.1240   31.0040   43.2360 N   0  0  0  0  0  0  0  0  0  0  0  0
   58.9880   28.8900   47.5680 N   0  0  0  0  0  0  0  0  0  0  0  0
   57.8012   31.9401   51.8749 H   0  0  0  0  0  0  0  0  0  0  0  0
   58.6048   32.3417   50.3193 H   0  0  0  0  0  0  0  0  0  0  0  0
   57.0141   31.5073   50.3193 H   0  0  0  0  0  0  0  0  0  0  0  0
   59.7598   30.4356   50.9094 H   0  0  0  0  0  0  0  0  0  0  0  0
   58.3468   29.7030   51.7372 H   0  0  0  0  0  0  0  0  0  0  0  0
   63.5688   31.4832   48.4550 H   0  0  0  0  0  0  0  0  0  0  0  0
   63.4481   31.0299   46.7374 H   0  0  0  0  0  0  0  0  0  0  0  0
   63.7540   33.7817   47.9860 H   0  0  0  0  0  0  0  0  0  0  0  0
   64.7641   32.9510   46.7059 H   0  0  0  0  0  0  0  0  0  0  0  0
   61.6748   35.1873   46.6149 H   0  0  0  0  0  0  0  0  0  0  0  0
   61.0933   33.8236   45.5737 H   0  0  0  0  0  0  0  0  0  0  0  0
   61.6889   33.8180   48.5556 H   0  0  0  0  0  0  0  0  0  0  0  0
   60.1723   33.3771   47.7174 H   0  0  0  0  0  0  0  0  0  0  0  0
   58.4316   29.2604   43.6011 H   0  0  0  0  0  0  0  0  0  0  0  0
   58.0082   27.5642   43.3617 H   0  0  0  0  0  0  0  0  0  0  0  0
   58.1142   33.3685   47.1306 H   0  0  0  0  0  0  0  0  0  0  0  0
   59.3583   34.0302   46.0166 H   0  0  0  0  0  0  0  0  0  0  0  0
   57.6975   34.7146   46.0166 H   0  0  0  0  0  0  0  0  0  0  0  0
   58.6978   33.9763   43.4759 H   0  0  0  0  0  0  0  0  0  0  0  0
   58.9403   33.0385   41.3116 H   0  0  0  0  0  0  0  0  0  0  0  0
   58.3250   31.4028   40.8962 H   0  0  0  0  0  0  0  0  0  0  0  0
   57.2078   32.8094   40.8962 H   0  0  0  0  0  0  0  0  0  0  0  0
   56.8340   30.3130   42.5150 H   0  0  0  0  0  0  0  0  0  0  0  0
   58.2800   28.0980   47.5800 H   0  0  0  0  0  0  0  0  0  0  0  0
  1  2  1  0
  2  3  1  0
  3  4  2  0
  4  5  1  0
  5  6  2  0
  6  7  1  0
  7  8  1  0
  8  9  1  0
  9 10  1  0
 10 11  1  0
 11 12  1  0
  6 13  1  0
 13 14  2  0
 14 15  1  0
 15 16  1  0
 16 17  1  0
 17 18  2  0
 17 19  1  0
 19 20  2  3
 20 21  1  0
 21 22  2  0
 22 23  1  0
 22 24  1  0
 24 25  2  0
 25 26  1  0
 25 27  1  0
 14 28  1  0
 28  4  1  0
 12  7  1  0
 27 20  1  0
  1 29  1  0
  1 30  1  0
  1 31  1  0
  2 32  1  0
  2 33  1  0
  8 34  1  0
  8 35  1  0
  9 36  1  0
  9 37  1  0
 11 38  1  0
 11 39  1  0
 12 40  1  0
 12 41  1  0
 16 42  1  0
 16 43  1  0
 23 44  1  0
 23 45  1  0
 23 46  1  0
 24 47  1  0
 26 48  1  0
 26 49  1  0
 26 50  1  0
 27 51  1  0
 28 52  1  0
M  END
>  <smiles>  (29) 
CCN=c1nc(N2CCOCC2)nc(SCC(=O)N=c2nc(C)cc(C)[nH]2)[nH]1

>  <score_type>  (29) 
oracle

>  <origin>  (29) 
adg

>  <m_score__min__energy>  (29) 
-7.6500000000000004

>  <m_primary>  (29) 
energy

$$$$
29:0
     RDKit          3D

 42 43  0  0  0  0  0  0  0  0999 V2000
   59.0329   27.1613   46.0649 H   0  0  0  0  0  0  0  0  0  0  0  0
   58.2240   27.8190   45.7140 C   0  0  0  0  0  0  0  0  0  0  0  0
   56.9040   27.3630   45.7120 C   0  0  0  0  0  0  0  0  0  0  0  0
   56.5810   25.9740   46.1630 C   0  0  0  0  0  0  0  0  0  0  0  0
   56.5726   25.9381   47.2624 H   0  0  0  0  0  0  0  0  0  0  0  0
   55.5916   25.6846   45.7792 H   0  0  0  0  0  0  0  0  0  0  0  0
   57.3412   25.2778   45.7792 H   0  0  0  0  0  0  0  0  0  0  0  0
   55.9120   28.1730   45.2620 N   0  0  0  0  0  0  0  0  0  0  0  0
   56.1500   29.4350   44.8180 C   0  0  0  0  0  0  0  0  0  0  0  0
   55.1810   30.1320   44.4170 O   0  0  0  0  0  0  0  0  0  0  0  0
   57.4650   29.9490   44.8100 C   0  0  0  0  0  0  0  0  0  0  0  0
   57.7370   31.3520   44.3010 C   0  0  0  0  0  0  0  0  0  0  0  0
   58.8235   31.5010   44.2151 H   0  0  0  0  0  0  0  0  0  0  0  0
   57.2573   31.4717   43.3184 H   0  0  0  0  0  0  0  0  0  0  0  0
   57.1880   32.3460   45.2160 N   0  0  0  0  0  0  0  0  0  0  0  0
   57.4700   33.7460   45.1350 C   0  0  0  0  0  0  0  0  0  0  0  0
   56.6330   34.5410   44.6280 O   0  0  0  0  0  0  0  0  0  0  0  0
   58.7440   34.2810   45.7170 C   0  0  0  0  0  0  0  0  0  0  0  0
   59.5188   33.5023   45.6600 H   0  0  0  0  0  0  0  0  0  0  0  0
   59.0425   35.1696   45.1415 H   0  0  0  0  0  0  0  0  0  0  0  0
   58.5570   34.6930   47.1810 C   0  0  0  0  0  0  0  0  0  0  0  0
   58.4682   35.7880   47.2365 H   0  0  0  0  0  0  0  0  0  0  0  0
   57.6468   34.2086   47.5643 H   0  0  0  0  0  0  0  0  0  0  0  0
   59.7220   34.2520   48.0270 C   0  0  0  0  0  0  0  0  0  0  0  0
   59.6570   34.3770   49.2780 O   0  0  0  0  0  0  0  0  0  0  0  0
   60.9640   33.8560   47.4280 N   0  0  0  0  0  0  0  0  0  0  0  0
   62.0690   33.5350   48.0420 C   0  0  0  0  0  0  0  0  0  0  0  0
   62.9370   32.5350   47.5550 C   0  0  0  0  0  0  0  0  0  0  0  0
   62.6964   31.9976   46.6258 H   0  0  0  0  0  0  0  0  0  0  0  0
   64.1030   32.2320   48.2600 C   0  0  0  0  0  0  0  0  0  0  0  0
   64.7904   31.4606   47.8825 H   0  0  0  0  0  0  0  0  0  0  0  0
   64.3950   32.9090   49.4440 C   0  0  0  0  0  0  0  0  0  0  0  0
   65.9840   32.5030   50.4210 Br  0  0  0  0  0  0  0  0  0  0  0  0
   63.5070   33.8790   49.9120 C   0  0  0  0  0  0  0  0  0  0  0  0
   63.7247   34.4159   50.8471 H   0  0  0  0  0  0  0  0  0  0  0  0
   62.3720   34.1630   49.2150 N   0  0  0  0  0  0  0  0  0  0  0  0
   61.7280   34.8940   49.5930 H   0  0  0  0  0  0  0  0  0  0  0  0
   58.5180   29.1170   45.2680 C   0  0  0  0  0  0  0  0  0  0  0  0
   59.9500   29.5890   45.2840 C   0  0  0  0  0  0  0  0  0  0  0  0
   60.2878   29.7003   46.3249 H   0  0  0  0  0  0  0  0  0  0  0  0
   60.5846   28.8525   44.7694 H   0  0  0  0  0  0  0  0  0  0  0  0
   60.0223   30.5585   44.7694 H   0  0  0  0  0  0  0  0  0  0  0  0
  1  2  1  0
  2  3  2  0
  3  4  1  0
  4  5  1  0
  4  6  1  0
  4  7  1  0
  3  8  1  0
  8  9  1  0
  9 10  2  0
  9 11  1  0
 11 12  1  0
 12 13  1  0
 12 14  1  0
 12 15  1  0
 15 16  1  0
 16 17  2  0
 16 18  1  0
 18 19  1  0
 18 20  1  0
 18 21  1  0
 21 22  1  0
 21 23  1  0
 21 24  1  0
 24 25  2  0
 24 26  1  0
 26 27  2  0
 27 28  1  0
 28 29  1  0
 28 30  2  0
 30 31  1  0
 30 32  1  0
 32 33  1  0
 32 34  2  0
 34 35  1  0
 34 36  1  0
 36 37  1  0
 11 38  2  0
 38 39  1  0
 39 40  1  0
 39 41  1  0
 39 42  1  0
 38  2  1  0
 36 27  1  0
M  CHG  2   8  -1  15  -1
M  END
>  <UniqueID>  (30) 
26

>  <SMILES>  (30) 
Cc1cc(C)c(C[N-]C(=O)CCC(=O)/N=c2\ccc(Br)c[nH]2)c(=O)[n-]1

>  <Energy>  (30) 
46.94333757753019

>  <Genealogy>  (30) 
Cc1cc(C)c(C[N-]C(=O)CCC(=O)N=c2ccc(Br)c[nH]2)c(=O)[n-]1 (protonated)
Cc1cc(C)c(C[N-]C(=O)CCC(=O)/N=c2\ccc(Br)c[nH]2)c(=O)[n-]1 (cis-trans isomerization)
Cc1cc(C)c(C[N-]C(=O)CCC(=O)/N=c2\ccc(Br)c[nH]2)c(=O)[n-]1 (3D coordinates assigned)
Cc1cc(C)c(C[N-]C(=O)CCC(=O)/N=c2\ccc(Br)c[nH]2)c(=O)[n-]1 (optimized conformer: 46.94333757753019 kcal/mol)

>  <smiles>  (30) 
Cc1cc(C)c(CNC(=O)CCC(=O)N=c2ccc(Br)c[nH]2)c(=O)[nH]1

>  <score_type>  (30) 
oracle

>  <origin>  (30) 
adg

>  <m_score__min__energy>  (30) 
-11.52

>  <m_primary>  (30) 
energy

$$$$
30:0
     RDKit          3D

 65 69  0  0  0  0  0  0  0  0999 V2000
   55.5300   26.4520   46.1880 O   0  0  0  0  0  0  0  0  0  0  0  0
   56.7840   26.5470   46.2340 C   0  0  0  0  0  0  0  0  0  0  0  0
   57.5570   25.3490   46.4100 N   0  0  0  0  0  0  0  0  0  0  0  0
   57.0810   24.1400   47.0160 C   0  0  0  0  0  0  0  0  0  0  0  0
   57.0800   24.0350   48.4140 C   0  0  0  0  0  0  0  0  0  0  0  0
   56.6180   22.8750   49.0390 C   0  0  0  0  0  0  0  0  0  0  0  0
   56.1860   21.7950   48.2690 C   0  0  0  0  0  0  0  0  0  0  0  0
   56.2380   21.8640   46.8740 C   0  0  0  0  0  0  0  0  0  0  0  0
   56.6890   23.0290   46.2350 C   0  0  0  0  0  0  0  0  0  0  0  0
   56.8040   23.0360   44.7990 N   0  0  0  0  0  0  0  0  0  0  0  0
   55.7270   23.5860   43.9690 C   0  0  0  0  0  0  0  0  0  0  0  0
   55.6950   22.8710   42.6160 C   0  0  0  0  0  0  0  0  0  0  0  0
   55.9190   21.4900   42.8130 O   0  0  0  0  0  0  0  0  0  0  0  0
   57.2800   21.2460   43.1530 C   0  0  0  0  0  0  0  0  0  0  0  0
   57.8730   22.2630   44.1560 C   0  0  0  0  0  0  0  0  0  0  0  0
   57.4020   27.8910   46.1980 C   0  0  0  0  0  0  0  0  0  0  0  0
   58.4300   28.2020   47.1070 C   0  0  0  0  0  0  0  0  0  0  0  0
   59.1160   29.4140   47.0120 C   0  0  0  0  0  0  0  0  0  0  0  0
   58.7760   30.3320   46.0060 C   0  0  0  0  0  0  0  0  0  0  0  0
   59.5600   31.4730   45.8270 O   0  0  0  0  0  0  0  0  0  0  0  0
   59.6340   32.4790   46.8010 C   0  0  0  0  0  0  0  0  0  0  0  0
   59.2270   33.7790   46.4700 C   0  0  0  0  0  0  0  0  0  0  0  0
   59.2250   34.7880   47.4390 C   0  0  0  0  0  0  0  0  0  0  0  0
   59.6530   34.5090   48.7410 C   0  0  0  0  0  0  0  0  0  0  0  0
   60.0960   33.2180   49.0780 C   0  0  0  0  0  0  0  0  0  0  0  0
   60.5640   32.9140   50.4420 C   0  0  0  0  0  0  0  0  0  0  0  0
   61.7020   33.3320   50.8010 O   0  0  0  0  0  0  0  0  0  0  0  0
   59.7320   32.1760   51.3660 N   0  0  0  0  0  0  0  0  0  0  0  0
   58.3430   32.6890   51.3130 C   0  0  0  0  0  0  0  0  0  0  0  0
   57.3570   31.6470   51.8620 C   0  0  0  0  0  0  0  0  0  0  0  0
   57.3590   30.4160   51.1430 O   0  0  0  0  0  0  0  0  0  0  0  0
   58.5560   30.1770   50.4090 C   0  0  0  0  0  0  0  0  0  0  0  0
   59.8170   30.7140   51.1110 C   0  0  0  0  0  0  0  0  0  0  0  0
   60.0870   32.2070   48.1080 C   0  0  0  0  0  0  0  0  0  0  0  0
   57.6800   30.0790   45.1700 C   0  0  0  0  0  0  0  0  0  0  0  0
   56.9960   28.8630   45.2690 C   0  0  0  0  0  0  0  0  0  0  0  0
   57.4464   24.8739   49.0239 H   0  0  0  0  0  0  0  0  0  0  0  0
   56.5947   22.8129   50.1370 H   0  0  0  0  0  0  0  0  0  0  0  0
   55.8040   20.8880   48.7603 H   0  0  0  0  0  0  0  0  0  0  0  0
   55.9230   20.9985   46.2725 H   0  0  0  0  0  0  0  0  0  0  0  0
   54.7635   23.4430   44.4800 H   0  0  0  0  0  0  0  0  0  0  0  0
   55.9065   24.6591   43.8073 H   0  0  0  0  0  0  0  0  0  0  0  0
   54.7125   23.0204   42.1444 H   0  0  0  0  0  0  0  0  0  0  0  0
   56.4788   23.2823   41.9629 H   0  0  0  0  0  0  0  0  0  0  0  0
   57.3504   20.2420   43.5969 H   0  0  0  0  0  0  0  0  0  0  0  0
   57.8609   21.3417   42.2238 H   0  0  0  0  0  0  0  0  0  0  0  0
   58.4416   21.7217   44.9265 H   0  0  0  0  0  0  0  0  0  0  0  0
   58.5333   22.9544   43.6121 H   0  0  0  0  0  0  0  0  0  0  0  0
   58.6949   27.4850   47.8980 H   0  0  0  0  0  0  0  0  0  0  0  0
   59.9211   29.6491   47.7238 H   0  0  0  0  0  0  0  0  0  0  0  0
   58.9074   34.0070   45.4425 H   0  0  0  0  0  0  0  0  0  0  0  0
   58.8866   35.8013   47.1768 H   0  0  0  0  0  0  0  0  0  0  0  0
   59.6430   35.3019   49.5034 H   0  0  0  0  0  0  0  0  0  0  0  0
   60.0840   32.3490   52.3380 H   0  0  0  0  0  0  0  0  0  0  0  0
   58.2734   33.6054   51.9175 H   0  0  0  0  0  0  0  0  0  0  0  0
   58.0848   32.9019   50.2651 H   0  0  0  0  0  0  0  0  0  0  0  0
   57.6217   31.4373   52.9089 H   0  0  0  0  0  0  0  0  0  0  0  0
   56.3491   32.0755   51.7595 H   0  0  0  0  0  0  0  0  0  0  0  0
   58.6693   29.0918   50.2692 H   0  0  0  0  0  0  0  0  0  0  0  0
   58.4635   30.7102   49.4513 H   0  0  0  0  0  0  0  0  0  0  0  0
   59.9381   30.1923   52.0718 H   0  0  0  0  0  0  0  0  0  0  0  0
   60.6772   30.5338   50.4495 H   0  0  0  0  0  0  0  0  0  0  0  0
   60.4350   31.1963   48.3675 H   0  0  0  0  0  0  0  0  0  0  0  0
   57.3586   30.8346   44.4380 H   0  0  0  0  0  0  0  0  0  0  0  0
   56.1339   28.6665   44.6146 H   0  0  0  0  0  0  0  0  0  0  0  0
  1  2  2  0
  2  3  1  0
  3  4  1  0
  4  5  2  0
  5  6  1  0
  6  7  2  0
  7  8  1  0
  8  9  2  0
  9 10  1  0
 10 11  1  0
 11 12  1  0
 12 13  1  0
 13 14  1  0
 14 15  1  0
  2 16  1  0
 16 17  2  0
 17 18  1  0
 18 19  2  0
 19 20  1  0
 20 21  1  0
 21 22  2  0
 22 23  1  0
 23 24  2  0
 24 25  1  0
 25 26  1  0
 26 27  2  0
 26 28  1  0
 28 29  1  0
 29 30  1  0
 30 31  1  0
 31 32  1  0
 32 33  1  0
 25 34  2  0
 19 35  1  0
 35 36  2  0
  9  4  1  0
 15 10  1  0
 36 16  1  0
 34 21  1  0
 33 28  1  0
  5 37  1  0
  6 38  1  0
  7 39  1  0
  8 40  1  0
 11 41  1  0
 11 42  1  0
 12 43  1  0
 12 44  1  0
 14 45  1  0
 14 46  1  0
 15 47  1  0
 15 48  1  0
 17 49  1  0
 18 50  1  0
 22 51  1  0
 23 52  1  0
 24 53  1  0
 28 54  1  0
 29 55  1  0
 29 56  1  0
 30 57  1  0
 30 58  1  0
 32 59  1  0
 32 60  1  0
 33 61  1  0
 33 62  1  0
 34 63  1  0
 35 64  1  0
 36 65  1  0
M  CHG  2   3  -1  28   1
M  END
>  <UniqueID>  (31) 
27

>  <SMILES>  (31) 
O=C([N-]c1ccccc1N1CCOCC1)c1ccc(Oc2cccc(C(=O)[NH+]3CCOCC3)c2)cc1

>  <Energy>  (31) 
123.28216532528512

>  <Genealogy>  (31) 
O=C([N-]c1ccccc1N1CCOCC1)c1ccc(Oc2cccc(C(=O)[NH+]3CCOCC3)c2)cc1 (protonated)
O=C([N-]c1ccccc1N1CCOCC1)c1ccc(Oc2cccc(C(=O)[NH+]3CCOCC3)c2)cc1 (3D coordinates assigned)
O=C([N-]c1ccccc1N1CCOCC1)c1ccc(Oc2cccc(C(=O)[NH+]3CCOCC3)c2)cc1 (nonaromatic ring conformer: 123.28216532528512 kcal/mol)

>  <smiles>  (31) 
O=C(Nc1ccccc1N1CCOCC1)c1ccc(Oc2cccc(C(=O)N3CCOCC3)c2)cc1

>  <score_type>  (31) 
oracle

>  <origin>  (31) 
adg

>  <m_score__min__energy>  (31) 
-9.6400000000000006

>  <m_primary>  (31) 
energy

$$$$
31:0
     RDKit          3D

 47 49  0  0  0  0  0  0  0  0999 V2000
   59.0380   33.4970   47.6300 C   0  0  0  0  0  0  0  0  0  0  0  0
   58.2590   32.4520   47.9040 C   0  0  0  0  0  0  0  0  0  0  0  0
   58.7810   31.1720   48.4370 C   0  0  0  0  0  0  0  0  0  0  0  0
   59.1750   30.1950   47.5090 C   0  0  0  0  0  0  0  0  0  0  0  0
   59.6840   28.9660   47.9350 C   0  0  0  0  0  0  0  0  0  0  0  0
   60.0480   28.0120   46.9920 O   0  0  0  0  0  0  0  0  0  0  0  0
   59.8300   28.7040   49.3040 C   0  0  0  0  0  0  0  0  0  0  0  0
   60.3410   27.4880   49.7560 O   0  0  0  0  0  0  0  0  0  0  0  0
   59.4680   29.6790   50.2370 C   0  0  0  0  0  0  0  0  0  0  0  0
   58.9370   30.9110   49.8230 C   0  0  0  0  0  0  0  0  0  0  0  0
   58.6740   31.9430   50.8530 C   0  0  0  0  0  0  0  0  0  0  0  0
   59.6140   32.9760   51.0120 C   0  0  0  0  0  0  0  0  0  0  0  0
   59.4120   33.9780   51.9610 C   0  0  0  0  0  0  0  0  0  0  0  0
   58.2670   33.9690   52.7550 C   0  0  0  0  0  0  0  0  0  0  0  0
   57.3210   32.9520   52.6090 C   0  0  0  0  0  0  0  0  0  0  0  0
   57.5170   31.9160   51.6760 C   0  0  0  0  0  0  0  0  0  0  0  0
   56.4220   30.8840   51.4970 C   0  0  0  0  0  0  0  0  0  0  0  0
   56.6930   29.7050   52.2550 O   0  0  0  0  0  0  0  0  0  0  0  0
   55.7590   29.1050   53.1050 C   0  0  0  0  0  0  0  0  0  0  0  0
   56.0680   28.8010   54.2890 O   0  0  0  0  0  0  0  0  0  0  0  0
   54.4430   28.8440   52.6150 N   0  0  0  0  0  0  0  0  0  0  0  0
   53.2490   29.4190   53.2190 C   0  0  0  0  0  0  0  0  0  0  0  0
   52.5360   30.2730   52.2070 C   0  0  0  0  0  0  0  0  0  0  0  0
   52.5460   29.9070   50.8510 C   0  0  0  0  0  0  0  0  0  0  0  0
   51.9130   30.7090   49.8980 C   0  0  0  0  0  0  0  0  0  0  0  0
   51.2730   31.8890   50.2870 C   0  0  0  0  0  0  0  0  0  0  0  0
   50.6450   32.6810   49.3330 O   0  0  0  0  0  0  0  0  0  0  0  0
   51.2710   32.2730   51.6330 C   0  0  0  0  0  0  0  0  0  0  0  0
   50.6410   33.4510   52.0170 O   0  0  0  0  0  0  0  0  0  0  0  0
   51.9050   31.4720   52.5930 C   0  0  0  0  0  0  0  0  0  0  0  0
   51.9080   31.8730   53.9260 O   0  0  0  0  0  0  0  0  0  0  0  0
   58.5962   34.4239   47.2355 H   0  0  0  0  0  0  0  0  0  0  0  0
   60.1232   33.4331   47.7982 H   0  0  0  0  0  0  0  0  0  0  0  0
   57.1773   32.5436   47.7262 H   0  0  0  0  0  0  0  0  0  0  0  0
   59.0816   30.4000   46.4323 H   0  0  0  0  0  0  0  0  0  0  0  0
   60.6310   26.7560   49.1190 H   0  0  0  0  0  0  0  0  0  0  0  0
   59.6008   29.4786   51.3104 H   0  0  0  0  0  0  0  0  0  0  0  0
   60.5162   32.9943   50.3829 H   0  0  0  0  0  0  0  0  0  0  0  0
   60.1582   34.7770   52.0829 H   0  0  0  0  0  0  0  0  0  0  0  0
   58.1079   34.7643   53.4981 H   0  0  0  0  0  0  0  0  0  0  0  0
   56.4129   32.9605   53.2297 H   0  0  0  0  0  0  0  0  0  0  0  0
   55.4663   31.3136   51.8316 H   0  0  0  0  0  0  0  0  0  0  0  0
   56.3733   30.6097   50.4329 H   0  0  0  0  0  0  0  0  0  0  0  0
   52.5813   28.6108   53.5522 H   0  0  0  0  0  0  0  0  0  0  0  0
   53.5365   30.0370   54.0824 H   0  0  0  0  0  0  0  0  0  0  0  0
   53.0551   28.9837   50.5375 H   0  0  0  0  0  0  0  0  0  0  0  0
   51.9184   30.4110   48.8391 H   0  0  0  0  0  0  0  0  0  0  0  0
  1  2  2  0
  2  3  1  0
  3  4  2  0
  4  5  1  0
  5  6  1  0
  5  7  2  0
  7  8  1  0
  7  9  1  0
  9 10  2  0
 10 11  1  0
 11 12  2  0
 12 13  1  0
 13 14  2  0
 14 15  1  0
 15 16  2  0
 16 17  1  0
 17 18  1  0
 18 19  1  0
 19 20  2  0
 19 21  1  0
 21 22  1  0
 22 23  1  0
 23 24  2  0
 24 25  1  0
 25 26  2  0
 26 27  1  0
 26 28  1  0
 28 29  1  0
 28 30  2  0
 30 31  1  0
 10  3  1  0
 16 11  1  0
 30 23  1  0
  1 32  1  0
  1 33  1  0
  2 34  1  0
  4 35  1  0
  8 36  1  0
  9 37  1  0
 12 38  1  0
 13 39  1  0
 14 40  1  0
 15 41  1  0
 17 42  1  0
 17 43  1  0
 22 44  1  0
 22 45  1  0
 24 46  1  0
 25 47  1  0
M  CHG  5   6  -1  21  -1  27  -1  29  -1  31  -1
M  END
>  <UniqueID>  (32) 
28

>  <SMILES>  (32) 
C=Cc1cc([O-])c(O)cc1-c1ccccc1COC(=O)[N-]Cc1ccc([O-])c([O-])c1[O-]

>  <Energy>  (32) 
60.33885807865089

>  <Genealogy>  (32) 
C=Cc1cc([O-])c(O)cc1-c1ccccc1COC(=O)[N-]Cc1ccc([O-])c([O-])c1[O-] (protonated)
C=Cc1cc([O-])c(O)cc1-c1ccccc1COC(=O)[N-]Cc1ccc([O-])c([O-])c1[O-] (3D coordinates assigned)
C=Cc1cc([O-])c(O)cc1-c1ccccc1COC(=O)[N-]Cc1ccc([O-])c([O-])c1[O-] (optimized conformer: 60.33885807865089 kcal/mol)

>  <smiles>  (32) 
C=Cc1cc(O)c(O)cc1-c1ccccc1COC(=O)NCc1ccc(O)c(O)c1O

>  <score_type>  (32) 
oracle

>  <origin>  (32) 
adg

>  <m_score__min__energy>  (32) 
-19.34

>  <m_primary>  (32) 
energy

$$$$
32:0
     RDKit          3D

 61 64  0  0  0  0  0  0  0  0999 V2000
   59.2670   25.8420   46.2890 C   0  0  0  0  0  0  0  0  0  0  0  0
   58.6110   27.0560   45.6840 C   0  0  0  0  0  0  0  0  0  0  0  0
   59.4240   27.9910   45.0260 C   0  0  0  0  0  0  0  0  0  0  0  0
   58.8860   29.1630   44.4950 C   0  0  0  0  0  0  0  0  0  0  0  0
   57.5130   29.4230   44.5920 C   0  0  0  0  0  0  0  0  0  0  0  0
   56.9480   30.6730   44.0310 C   0  0  0  0  0  0  0  0  0  0  0  0
   56.7770   30.7770   42.7860 O   0  0  0  0  0  0  0  0  0  0  0  0
   56.6480   31.7810   44.8920 N   0  0  0  0  0  0  0  0  0  0  0  0
   57.5550   32.4380   45.7890 C   0  0  0  0  0  0  0  0  0  0  0  0
   58.2010   31.7520   46.8340 C   0  0  0  0  0  0  0  0  0  0  0  0
   59.0770   32.4300   47.6870 C   0  0  0  0  0  0  0  0  0  0  0  0
   59.3350   33.7970   47.4980 C   0  0  0  0  0  0  0  0  0  0  0  0
   60.2890   34.5150   48.4170 C   0  0  0  0  0  0  0  0  0  0  0  0
   61.6800   34.0800   48.1750 N   0  0  0  0  0  0  0  0  0  0  0  0
   62.0030   32.8610   48.9540 C   0  0  0  0  0  0  0  0  0  0  0  0
   63.3180   32.2040   48.4790 C   0  0  0  0  0  0  0  0  0  0  0  0
   64.1210   33.1300   47.6710 N   0  0  0  0  0  0  0  0  0  0  0  0
   63.3910   33.5470   46.4620 C   0  0  0  0  0  0  0  0  0  0  0  0
   61.9000   33.8370   46.7370 C   0  0  0  0  0  0  0  0  0  0  0  0
   58.7220   34.4710   46.4330 C   0  0  0  0  0  0  0  0  0  0  0  0
   57.8400   33.7930   45.5830 C   0  0  0  0  0  0  0  0  0  0  0  0
   56.6860   28.4830   45.2300 C   0  0  0  0  0  0  0  0  0  0  0  0
   57.2120   27.2930   45.7730 C   0  0  0  0  0  0  0  0  0  0  0  0
   56.2700   26.3400   46.4190 C   0  0  0  0  0  0  0  0  0  0  0  0
   56.6640   25.6390   47.3910 O   0  0  0  0  0  0  0  0  0  0  0  0
   54.9110   26.2350   45.9790 N   0  0  0  0  0  0  0  0  0  0  0  0
   54.2690   24.9760   45.6190 C   0  0  0  0  0  0  0  0  0  0  0  0
   55.2910   24.0070   45.0920 C   0  0  0  0  0  0  0  0  0  0  0  0
   55.7020   24.0590   43.7480 C   0  0  0  0  0  0  0  0  0  0  0  0
   56.6870   23.1850   43.2810 C   0  0  0  0  0  0  0  0  0  0  0  0
   57.2670   22.2520   44.1460 C   0  0  0  0  0  0  0  0  0  0  0  0
   58.2250   21.4070   43.6900 F   0  0  0  0  0  0  0  0  0  0  0  0
   56.8620   22.1970   45.4840 C   0  0  0  0  0  0  0  0  0  0  0  0
   55.8810   23.0730   45.9580 C   0  0  0  0  0  0  0  0  0  0  0  0
   59.2287   25.9129   47.3860 H   0  0  0  0  0  0  0  0  0  0  0  0
   58.7355   24.9364   45.9613 H   0  0  0  0  0  0  0  0  0  0  0  0
   60.3158   25.7904   45.9613 H   0  0  0  0  0  0  0  0  0  0  0  0
   60.5022   27.7968   44.9274 H   0  0  0  0  0  0  0  0  0  0  0  0
   59.5450   29.8889   43.9961 H   0  0  0  0  0  0  0  0  0  0  0  0
   58.0160   30.6776   46.9804 H   0  0  0  0  0  0  0  0  0  0  0  0
   59.5666   31.8895   48.5105 H   0  0  0  0  0  0  0  0  0  0  0  0
   60.2140   35.5980   48.2396 H   0  0  0  0  0  0  0  0  0  0  0  0
   60.0218   34.2774   49.4573 H   0  0  0  0  0  0  0  0  0  0  0  0
   62.1049   33.1337   50.0148 H   0  0  0  0  0  0  0  0  0  0  0  0
   61.1881   32.1370   48.8066 H   0  0  0  0  0  0  0  0  0  0  0  0
   63.9029   31.8980   49.3590 H   0  0  0  0  0  0  0  0  0  0  0  0
   63.0636   31.3339   47.8559 H   0  0  0  0  0  0  0  0  0  0  0  0
   64.3390   33.9770   48.2470 H   0  0  0  0  0  0  0  0  0  0  0  0
   63.8597   34.4596   46.0651 H   0  0  0  0  0  0  0  0  0  0  0  0
   63.4408   32.7177   45.7411 H   0  0  0  0  0  0  0  0  0  0  0  0
   61.5929   34.7269   46.1679 H   0  0  0  0  0  0  0  0  0  0  0  0
   61.3041   32.9659   46.4272 H   0  0  0  0  0  0  0  0  0  0  0  0
   58.9347   35.5370   46.2643 H   0  0  0  0  0  0  0  0  0  0  0  0
   57.3673   34.3291   44.7469 H   0  0  0  0  0  0  0  0  0  0  0  0
   55.6065   28.6796   45.3073 H   0  0  0  0  0  0  0  0  0  0  0  0
   53.7855   24.5467   46.5089 H   0  0  0  0  0  0  0  0  0  0  0  0
   53.5168   25.1655   44.8391 H   0  0  0  0  0  0  0  0  0  0  0  0
   55.2469   24.7894   43.0629 H   0  0  0  0  0  0  0  0  0  0  0  0
   57.0072   23.2310   42.2296 H   0  0  0  0  0  0  0  0  0  0  0  0
   57.3167   21.4625   46.1649 H   0  0  0  0  0  0  0  0  0  0  0  0
   55.5706   23.0302   47.0124 H   0  0  0  0  0  0  0  0  0  0  0  0
  1  2  1  0
  2  3  2  0
  3  4  1  0
  4  5  2  0
  5  6  1  0
  6  7  2  0
  6  8  1  0
  8  9  1  0
  9 10  2  0
 10 11  1  0
 11 12  2  0
 12 13  1  0
 13 14  1  0
 14 15  1  0
 15 16  1  0
 16 17  1  0
 17 18  1  0
 18 19  1  0
 12 20  1  0
 20 21  2  0
  5 22  1  0
 22 23  2  0
 23 24  1  0
 24 25  2  0
 24 26  1  0
 26 27  1  0
 27 28  1  0
 28 29  2  0
 29 30  1  0
 30 31  2  0
 31 32  1  0
 31 33  1  0
 33 34  2  0
 23  2  1  0
 34 28  1  0
 21  9  1  0
 19 14  1  0
  1 35  1  0
  1 36  1  0
  1 37  1  0
  3 38  1  0
  4 39  1  0
 10 40  1  0
 11 41  1  0
 13 42  1  0
 13 43  1  0
 15 44  1  0
 15 45  1  0
 16 46  1  0
 16 47  1  0
 17 48  1  0
 18 49  1  0
 18 50  1  0
 19 51  1  0
 19 52  1  0
 20 53  1  0
 21 54  1  0
 22 55  1  0
 27 56  1  0
 27 57  1  0
 29 58  1  0
 30 59  1  0
 33 60  1  0
 34 61  1  0
M  CHG  2   8  -1  26  -1
M  END
>  <UniqueID>  (33) 
29

>  <SMILES>  (33) 
Cc1ccc(C(=O)[N-]c2ccc(CN3CCNCC3)cc2)cc1C(=O)[N-]Cc1ccc(F)cc1

>  <Energy>  (33) 
78.34060319072199

>  <Genealogy>  (33) 
Cc1ccc(C(=O)[N-]c2ccc(CN3CCNCC3)cc2)cc1C(=O)[N-]Cc1ccc(F)cc1 (protonated)
Cc1ccc(C(=O)[N-]c2ccc(CN3CCNCC3)cc2)cc1C(=O)[N-]Cc1ccc(F)cc1 (3D coordinates assigned)
Cc1ccc(C(=O)[N-]c2ccc(CN3CCNCC3)cc2)cc1C(=O)[N-]Cc1ccc(F)cc1 (nonaromatic ring conformer: 78.34060319072199 kcal/mol)

>  <smiles>  (33) 
Cc1ccc(C(=O)Nc2ccc(CN3CCNCC3)cc2)cc1C(=O)NCc1ccc(F)cc1

>  <score_type>  (33) 
oracle

>  <origin>  (33) 
adg

>  <m_score__min__energy>  (33) 
-13.720000000000001

>  <m_primary>  (33) 
energy

$$$$
33:0
     RDKit          3D

 23 24  0  0  0  0  0  0  0  0999 V2000
   57.7150   32.2810   41.1580 C   0  0  0  0  0  0  0  0  0  0  0  0
   57.4650   31.9570   42.5960 C   0  0  0  0  0  0  0  0  0  0  0  0
   56.6930   30.8430   42.9470 C   0  0  0  0  0  0  0  0  0  0  0  0
   56.4850   30.5790   44.3010 C   0  0  0  0  0  0  0  0  0  0  0  0
   55.7960   29.5860   44.6530 O   0  0  0  0  0  0  0  0  0  0  0  0
   57.0270   31.3940   45.2430 N   0  0  0  0  0  0  0  0  0  0  0  0
   57.7750   32.4740   44.8880 C   0  0  0  0  0  0  0  0  0  0  0  0
   58.3530   33.3440   45.9200 C   0  0  0  0  0  0  0  0  0  0  0  0
   58.8640   32.9540   47.1420 C   0  0  0  0  0  0  0  0  0  0  0  0
   59.2790   34.0800   47.7480 N   0  0  0  0  0  0  0  0  0  0  0  0
   59.9710   34.1780   49.0260 C   0  0  0  0  0  0  0  0  0  0  0  0
   59.0510   35.0930   46.9290 N   0  0  0  0  0  0  0  0  0  0  0  0
   58.4810   34.6830   45.8060 N   0  0  0  0  0  0  0  0  0  0  0  0
   57.9870   32.7460   43.5730 N   0  0  0  0  0  0  0  0  0  0  0  0
   58.3857   33.1502   41.0892 H   0  0  0  0  0  0  0  0  0  0  0  0
   58.1827   31.4169   40.6634 H   0  0  0  0  0  0  0  0  0  0  0  0
   56.7606   32.5143   40.6634 H   0  0  0  0  0  0  0  0  0  0  0  0
   56.2607   30.1913   42.1734 H   0  0  0  0  0  0  0  0  0  0  0  0
   58.9201   31.9297   47.5391 H   0  0  0  0  0  0  0  0  0  0  0  0
   59.2443   34.0751   49.8453 H   0  0  0  0  0  0  0  0  0  0  0  0
   60.7216   33.3772   49.0989 H   0  0  0  0  0  0  0  0  0  0  0  0
   60.4697   35.1557   49.0989 H   0  0  0  0  0  0  0  0  0  0  0  0
   59.2970   36.0880   47.1300 H   0  0  0  0  0  0  0  0  0  0  0  0
  1  2  1  0
  2  3  2  0
  3  4  1  0
  4  5  2  0
  4  6  1  0
  6  7  2  0
  7  8  1  0
  8  9  2  0
  9 10  1  0
 10 11  1  0
 10 12  1  0
 12 13  2  0
  7 14  1  0
 14  2  1  0
 13  8  1  0
  1 15  1  0
  1 16  1  0
  1 17  1  0
  3 18  1  0
  9 19  1  0
 11 20  1  0
 11 21  1  0
 11 22  1  0
 12 23  1  0
M  CHG  2  12   1  14  -1
M  END
>  <UniqueID>  (34) 
30

>  <SMILES>  (34) 
Cc1cc(=O)nc(-c2cn(C)[nH+]n2)[n-]1

>  <Energy>  (34) 
56.37441641835787

>  <Genealogy>  (34) 
Cc1cc(=O)nc(-c2cn(C)[nH+]n2)[n-]1 (protonated)
Cc1cc(=O)nc(-c2cn(C)[nH+]n2)[n-]1 (3D coordinates assigned)
Cc1cc(=O)nc(-c2cn(C)[nH+]n2)[n-]1 (optimized conformer: 56.37441641835787 kcal/mol)

>  <smiles>  (34) 
Cc1cc(=O)nc(-c2cn(C)nn2)[nH]1

>  <score_type>  (34) 
oracle

>  <origin>  (34) 
adg

>  <m_score__min__energy>  (34) 
-6.5599999999999996

>  <m_primary>  (34) 
energy

$$$$
34:0
     RDKit          3D

 47 50  0  0  0  0  0  0  0  0999 V2000
   64.8840   33.0720   49.4110 C   0  0  0  0  0  0  0  0  0  0  0  0
   63.5610   33.4060   48.7890 C   0  0  0  0  0  0  0  0  0  0  0  0
   62.4890   33.8140   49.5980 C   0  0  0  0  0  0  0  0  0  0  0  0
   61.2430   34.0930   49.0280 C   0  0  0  0  0  0  0  0  0  0  0  0
   61.0560   33.9820   47.6460 C   0  0  0  0  0  0  0  0  0  0  0  0
   59.7500   34.2190   47.0960 N   0  0  0  0  0  0  0  0  0  0  0  0
   59.0400   33.4120   46.3570 C   0  0  0  0  0  0  0  0  0  0  0  0
   57.9590   33.8470   45.5680 C   0  0  0  0  0  0  0  0  0  0  0  0
   57.2630   32.9420   44.8310 N   0  0  0  0  0  0  0  0  0  0  0  0
   57.5760   31.6210   44.8480 C   0  0  0  0  0  0  0  0  0  0  0  0
   58.6320   31.1680   45.6560 C   0  0  0  0  0  0  0  0  0  0  0  0
   59.0150   29.7340   45.7200 C   0  0  0  0  0  0  0  0  0  0  0  0
   60.2910   29.3280   45.2950 C   0  0  0  0  0  0  0  0  0  0  0  0
   60.6560   28.0210   45.3700 N   0  0  0  0  0  0  0  0  0  0  0  0
   59.8180   27.0650   45.8470 C   0  0  0  0  0  0  0  0  0  0  0  0
   60.2080   25.8690   45.8990 O   0  0  0  0  0  0  0  0  0  0  0  0
   58.5280   27.4080   46.2730 C   0  0  0  0  0  0  0  0  0  0  0  0
   57.6670   26.3880   46.8020 N   0  0  0  0  0  0  0  0  0  0  0  0
   56.3770   26.0090   46.3020 C   0  0  0  0  0  0  0  0  0  0  0  0
   55.3660   26.7060   46.5890 O   0  0  0  0  0  0  0  0  0  0  0  0
   56.2240   24.8260   45.4110 C   0  0  0  0  0  0  0  0  0  0  0  0
   57.3700   24.2570   44.8210 C   0  0  0  0  0  0  0  0  0  0  0  0
   57.2650   23.1480   43.9780 C   0  0  0  0  0  0  0  0  0  0  0  0
   56.0170   22.5860   43.7110 C   0  0  0  0  0  0  0  0  0  0  0  0
   55.9160   21.4830   42.8730 O   0  0  0  0  0  0  0  0  0  0  0  0
   54.8700   23.1330   44.2880 C   0  0  0  0  0  0  0  0  0  0  0  0
   54.9600   24.2470   45.1380 C   0  0  0  0  0  0  0  0  0  0  0  0
   53.7960   24.7600   45.7110 O   0  0  0  0  0  0  0  0  0  0  0  0
   58.1410   28.7580   46.2310 C   0  0  0  0  0  0  0  0  0  0  0  0
   59.3310   32.0840   46.3820 N   0  0  0  0  0  0  0  0  0  0  0  0
   62.1140   33.5230   46.8420 C   0  0  0  0  0  0  0  0  0  0  0  0
   63.3600   33.2440   47.4100 C   0  0  0  0  0  0  0  0  0  0  0  0
   64.7904   33.0956   50.5068 H   0  0  0  0  0  0  0  0  0  0  0  0
   65.1962   32.0669   49.0912 H   0  0  0  0  0  0  0  0  0  0  0  0
   65.6359   33.8085   49.0912 H   0  0  0  0  0  0  0  0  0  0  0  0
   62.6296   33.9146   50.6843 H   0  0  0  0  0  0  0  0  0  0  0  0
   60.4048   34.4016   49.6701 H   0  0  0  0  0  0  0  0  0  0  0  0
   57.6797   34.9108   45.5480 H   0  0  0  0  0  0  0  0  0  0  0  0
   57.0059   30.9095   44.2326 H   0  0  0  0  0  0  0  0  0  0  0  0
   60.9983   30.0718   44.8995 H   0  0  0  0  0  0  0  0  0  0  0  0
   58.3595   24.6913   45.0267 H   0  0  0  0  0  0  0  0  0  0  0  0
   58.1692   22.7169   43.5236 H   0  0  0  0  0  0  0  0  0  0  0  0
   53.8870   22.6876   44.0751 H   0  0  0  0  0  0  0  0  0  0  0  0
   53.8210   25.5280   46.3720 H   0  0  0  0  0  0  0  0  0  0  0  0
   57.1478   29.0534   46.6002 H   0  0  0  0  0  0  0  0  0  0  0  0
   61.9605   33.3829   45.7618 H   0  0  0  0  0  0  0  0  0  0  0  0
   64.1866   32.8959   46.7732 H   0  0  0  0  0  0  0  0  0  0  0  0
  1  2  1  0
  2  3  2  0
  3  4  1  0
  4  5  2  0
  5  6  1  0
  6  7  2  3
  7  8  1  0
  8  9  2  0
  9 10  1  0
 10 11  2  0
 11 12  1  0
 12 13  2  0
 13 14  1  0
 14 15  1  0
 15 16  2  0
 15 17  1  0
 17 18  1  0
 18 19  1  0
 19 20  2  0
 19 21  1  0
 21 22  2  0
 22 23  1  0
 23 24  2  0
 24 25  1  0
 24 26  1  0
 26 27  2  0
 27 28  1  0
 17 29  2  0
 11 30  1  0
  5 31  1  0
 31 32  2  0
 32  2  1  0
 30  7  1  0
 29 12  1  0
 27 21  1  0
  1 33  1  0
  1 34  1  0
  1 35  1  0
  3 36  1  0
  4 37  1  0
  8 38  1  0
 10 39  1  0
 13 40  1  0
 22 41  1  0
 23 42  1  0
 26 43  1  0
 28 44  1  0
 29 45  1  0
 31 46  1  0
 32 47  1  0
M  CHG  4  14  -1  18  -1  25  -1  30  -1
M  END
>  <UniqueID>  (35) 
31

>  <SMILES>  (35) 
Cc1ccc(N=c2cncc(-c3c[n-]c(=O)c([N-]C(=O)c4ccc([O-])cc4O)c3)[n-]2)cc1

>  <Energy>  (35) 
73.9893996131528

>  <Genealogy>  (35) 
Cc1ccc(N=c2cncc(-c3c[n-]c(=O)c([N-]C(=O)c4ccc([O-])cc4O)c3)[n-]2)cc1 (protonated)
Cc1ccc(N=c2cncc(-c3c[n-]c(=O)c([N-]C(=O)c4ccc([O-])cc4O)c3)[n-]2)cc1 (3D coordinates assigned)
Cc1ccc(N=c2cncc(-c3c[n-]c(=O)c([N-]C(=O)c4ccc([O-])cc4O)c3)[n-]2)cc1 (optimized conformer: 73.9893996131528 kcal/mol)

>  <smiles>  (35) 
Cc1ccc(N=c2cncc(-c3c[nH]c(=O)c(NC(=O)c4ccc(O)cc4O)c3)[nH]2)cc1

>  <score_type>  (35) 
oracle

>  <origin>  (35) 
adg

>  <m_score__min__energy>  (35) 
-15.32

>  <m_primary>  (35) 
energy

$$$$
35:0
     RDKit          3D

 70 73  0  0  0  0  0  0  0  0999 V2000
   59.4420   22.8440   45.2420 C   0  0  0  0  0  0  0  0  0  0  0  0
   58.4880   21.6550   45.0900 C   0  0  0  0  0  0  0  0  0  0  0  0
   58.1230   21.4620   43.6150 C   0  0  0  0  0  0  0  0  0  0  0  0
   56.9970   21.8860   46.0770 S   0  0  0  0  0  0  0  0  0  0  0  0
   57.3940   22.0870   47.5140 O   0  0  0  0  0  0  0  0  0  0  0  0
   56.1470   20.6480   45.9990 O   0  0  0  0  0  0  0  0  0  0  0  0
   56.0560   23.2780   45.5780 N   0  0  0  0  0  0  0  0  0  0  0  0
   55.7610   23.3400   44.1270 C   0  0  0  0  0  0  0  0  0  0  0  0
   56.4730   24.4700   43.3430 C   0  0  0  0  0  0  0  0  0  0  0  0
   57.3980   25.2570   44.1750 N   0  0  0  0  0  0  0  0  0  0  0  0
   57.8960   26.3990   43.4320 C   0  0  0  0  0  0  0  0  0  0  0  0
   58.1450   26.2810   42.1980 O   0  0  0  0  0  0  0  0  0  0  0  0
   58.1330   27.7130   44.0840 C   0  0  0  0  0  0  0  0  0  0  0  0
   59.3020   27.9120   44.8360 C   0  0  0  0  0  0  0  0  0  0  0  0
   59.5490   29.1380   45.4590 C   0  0  0  0  0  0  0  0  0  0  0  0
   58.6280   30.1900   45.3470 C   0  0  0  0  0  0  0  0  0  0  0  0
   58.9040   31.4900   46.0000 C   0  0  0  0  0  0  0  0  0  0  0  0
   58.9790   32.5280   45.2870 O   0  0  0  0  0  0  0  0  0  0  0  0
   59.0770   31.6020   47.4260 N   0  0  0  0  0  0  0  0  0  0  0  0
   59.7590   30.5480   48.1930 C   0  0  0  0  0  0  0  0  0  0  0  0
   60.7750   31.1850   49.1460 C   0  0  0  0  0  0  0  0  0  0  0  0
   60.1430   32.2250   50.1240 C   0  0  0  0  0  0  0  0  0  0  0  0
   61.0770   33.3690   50.3380 N   0  0  0  0  0  0  0  0  0  0  0  0
   62.2920   32.9980   51.0810 C   0  0  0  0  0  0  0  0  0  0  0  0
   63.4310   33.8850   50.5940 C   0  0  0  0  0  0  0  0  0  0  0  0
   62.8970   34.6010   49.3710 C   0  0  0  0  0  0  0  0  0  0  0  0
   61.5740   33.9250   49.0700 C   0  0  0  0  0  0  0  0  0  0  0  0
   58.7470   32.7020   49.6170 C   0  0  0  0  0  0  0  0  0  0  0  0
   58.7050   32.8590   48.0940 C   0  0  0  0  0  0  0  0  0  0  0  0
   57.4730   30.0070   44.5700 C   0  0  0  0  0  0  0  0  0  0  0  0
   57.2280   28.7810   43.9430 C   0  0  0  0  0  0  0  0  0  0  0  0
   56.7060   25.7090   45.3890 C   0  0  0  0  0  0  0  0  0  0  0  0
   56.4040   24.5190   46.3050 C   0  0  0  0  0  0  0  0  0  0  0  0
   59.6059   23.0483   46.3104 H   0  0  0  0  0  0  0  0  0  0  0  0
   60.4031   22.6066   44.7624 H   0  0  0  0  0  0  0  0  0  0  0  0
   59.0020   23.7308   44.7624 H   0  0  0  0  0  0  0  0  0  0  0  0
   59.0007   20.7534   45.4565 H   0  0  0  0  0  0  0  0  0  0  0  0
   57.1528   20.9490   43.5415 H   0  0  0  0  0  0  0  0  0  0  0  0
   58.0572   22.4432   43.1221 H   0  0  0  0  0  0  0  0  0  0  0  0
   58.8969   20.8552   43.1221 H   0  0  0  0  0  0  0  0  0  0  0  0
   56.0589   22.3798   43.6806 H   0  0  0  0  0  0  0  0  0  0  0  0
   54.6849   23.5543   44.0494 H   0  0  0  0  0  0  0  0  0  0  0  0
   57.0429   24.0180   42.5178 H   0  0  0  0  0  0  0  0  0  0  0  0
   55.6947   25.1568   42.9789 H   0  0  0  0  0  0  0  0  0  0  0  0
   58.1940   24.6360   44.4370 H   0  0  0  0  0  0  0  0  0  0  0  0
   60.0309   27.0942   44.9357 H   0  0  0  0  0  0  0  0  0  0  0  0
   60.4717   29.2791   46.0411 H   0  0  0  0  0  0  0  0  0  0  0  0
   59.0178   29.9796   48.7740 H   0  0  0  0  0  0  0  0  0  0  0  0
   60.2807   29.8706   47.5009 H   0  0  0  0  0  0  0  0  0  0  0  0
   61.2426   30.3867   49.7410 H   0  0  0  0  0  0  0  0  0  0  0  0
   61.5058   31.7254   48.5264 H   0  0  0  0  0  0  0  0  0  0  0  0
   59.9797   31.7363   51.0959 H   0  0  0  0  0  0  0  0  0  0  0  0
   62.1327   33.1529   52.1583 H   0  0  0  0  0  0  0  0  0  0  0  0
   62.5342   31.9383   50.9127 H   0  0  0  0  0  0  0  0  0  0  0  0
   63.7116   34.6107   51.3715 H   0  0  0  0  0  0  0  0  0  0  0  0
   64.3318   33.2984   50.3606 H   0  0  0  0  0  0  0  0  0  0  0  0
   62.7461   35.6697   49.5833 H   0  0  0  0  0  0  0  0  0  0  0  0
   63.5934   34.5450   48.5214 H   0  0  0  0  0  0  0  0  0  0  0  0
   60.8570   34.6582   48.6722 H   0  0  0  0  0  0  0  0  0  0  0  0
   61.7000   33.1333   48.3168 H   0  0  0  0  0  0  0  0  0  0  0  0
   57.9898   31.9628   49.9176 H   0  0  0  0  0  0  0  0  0  0  0  0
   58.5453   33.6872   50.0628 H   0  0  0  0  0  0  0  0  0  0  0  0
   57.6865   33.1412   47.7890 H   0  0  0  0  0  0  0  0  0  0  0  0
   59.4237   33.6386   47.8012 H   0  0  0  0  0  0  0  0  0  0  0  0
   56.7561   30.8332   44.4536 H   0  0  0  0  0  0  0  0  0  0  0  0
   56.3207   28.6508   43.3349 H   0  0  0  0  0  0  0  0  0  0  0  0
   57.3452   26.4261   45.9250 H   0  0  0  0  0  0  0  0  0  0  0  0
   55.7584   26.1886   45.1024 H   0  0  0  0  0  0  0  0  0  0  0  0
   57.2933   24.3217   46.9216 H   0  0  0  0  0  0  0  0  0  0  0  0
   55.5258   24.7938   46.9077 H   0  0  0  0  0  0  0  0  0  0  0  0
  1  2  1  0
  2  3  1  0
  2  4  1  0
  4  5  2  0
  4  6  2  0
  4  7  1  0
  7  8  1  0
  8  9  1  0
  9 10  1  0
 10 11  1  0
 11 12  2  0
 11 13  1  0
 13 14  2  0
 14 15  1  0
 15 16  2  0
 16 17  1  0
 17 18  2  0
 17 19  1  0
 19 20  1  0
 20 21  1  0
 21 22  1  0
 22 23  1  0
 23 24  1  0
 24 25  1  0
 25 26  1  0
 26 27  1  0
 22 28  1  0
 28 29  1  0
 16 30  1  0
 30 31  2  0
 10 32  1  0
 32 33  1  0
 33  7  1  0
 31 13  1  0
 29 19  1  0
 27 23  1  0
  1 34  1  0
  1 35  1  0
  1 36  1  0
  2 37  1  0
  3 38  1  0
  3 39  1  0
  3 40  1  0
  8 41  1  0
  8 42  1  0
  9 43  1  0
  9 44  1  0
 10 45  1  0
 14 46  1  0
 15 47  1  0
 20 48  1  0
 20 49  1  0
 21 50  1  0
 21 51  1  0
 22 52  1  0
 24 53  1  0
 24 54  1  0
 25 55  1  0
 25 56  1  0
 26 57  1  0
 26 58  1  0
 27 59  1  0
 27 60  1  0
 28 61  1  0
 28 62  1  0
 29 63  1  0
 29 64  1  0
 30 65  1  0
 31 66  1  0
 32 67  1  0
 32 68  1  0
 33 69  1  0
 33 70  1  0
M  CHG  1  10   1
M  END
>  <UniqueID>  (36) 
32

>  <SMILES>  (36) 
CC(C)S(=O)(=O)N1CC[NH+](C(=O)c2ccc(C(=O)N3CCC(N4CCCC4)CC3)cc2)CC1

>  <Energy>  (36) 
96.18315609100186

>  <Genealogy>  (36) 
CC(C)S(=O)(=O)N1CC[NH+](C(=O)c2ccc(C(=O)N3CCC(N4CCCC4)CC3)cc2)CC1 (protonated)
CC(C)S(=O)(=O)N1CC[NH+](C(=O)c2ccc(C(=O)N3CCC(N4CCCC4)CC3)cc2)CC1 (3D coordinates assigned)
CC(C)S(=O)(=O)N1CC[NH+](C(=O)c2ccc(C(=O)N3CCC(N4CCCC4)CC3)cc2)CC1 (nonaromatic ring conformer: 96.18315609100186 kcal/mol)

>  <smiles>  (36) 
CC(C)S(=O)(=O)N1CCN(C(=O)c2ccc(C(=O)N3CCC(N4CCCC4)CC3)cc2)CC1

>  <score_type>  (36) 
oracle

>  <origin>  (36) 
adg

>  <m_score__min__energy>  (36) 
-7.9299999999999997

>  <m_primary>  (36) 
energy

$$$$
36:0
     RDKit          3D

 59 62  0  0  0  0  0  0  0  0999 V2000
   54.0160   28.2920   53.7860 C   0  0  0  0  0  0  0  0  0  0  0  0
   54.4910   29.4380   53.2740 C   0  0  0  0  0  0  0  0  0  0  0  0
   53.7890   30.3710   52.4930 C   0  0  0  0  0  0  0  0  0  0  0  0
   52.4740   30.4920   52.2280 C   0  0  0  0  0  0  0  0  0  0  0  0
   51.8870   30.9130   50.9460 C   0  0  0  0  0  0  0  0  0  0  0  0
   51.7810   30.1290   49.8560 N   0  0  0  0  0  0  0  0  0  0  0  0
   51.0360   30.8710   49.0090 C   0  0  0  0  0  0  0  0  0  0  0  0
   50.7230   30.4740   47.8560 O   0  0  0  0  0  0  0  0  0  0  0  0
   50.6330   32.0620   49.5040 N   0  0  0  0  0  0  0  0  0  0  0  0
   51.1710   32.0660   50.7340 C   0  0  0  0  0  0  0  0  0  0  0  0
   51.0040   33.0990   51.6470 O   0  0  0  0  0  0  0  0  0  0  0  0
   54.7370   31.2460   51.9880 C   0  0  0  0  0  0  0  0  0  0  0  0
   55.9510   30.8750   52.5260 C   0  0  0  0  0  0  0  0  0  0  0  0
   57.2460   31.5780   52.2530 C   0  0  0  0  0  0  0  0  0  0  0  0
   55.8060   29.7750   53.3000 N   0  0  0  0  0  0  0  0  0  0  0  0
   56.8690   29.0730   53.9710 C   0  0  0  0  0  0  0  0  0  0  0  0
   57.3210   27.8440   53.4710 C   0  0  0  0  0  0  0  0  0  0  0  0
   58.3510   27.1430   54.1230 C   0  0  0  0  0  0  0  0  0  0  0  0
   58.8250   25.8860   53.6060 N   0  0  0  0  0  0  0  0  0  0  0  0
   60.0160   25.8220   52.7600 C   0  0  0  0  0  0  0  0  0  0  0  0
   60.8220   24.5750   53.1170 C   0  0  0  0  0  0  0  0  0  0  0  0
   59.9780   23.3520   53.0240 N   0  0  0  0  0  0  0  0  0  0  0  0
   60.7600   22.0690   53.1340 C   0  0  0  0  0  0  0  0  0  0  0  0
   59.8420   20.8340   52.9260 C   0  0  0  0  0  0  0  0  0  0  0  0
   61.8270   22.0070   52.0090 C   0  0  0  0  0  0  0  0  0  0  0  0
   61.4730   21.9180   54.5020 C   0  0  0  0  0  0  0  0  0  0  0  0
   58.8360   23.4630   53.9710 C   0  0  0  0  0  0  0  0  0  0  0  0
   57.9810   24.6940   53.6570 C   0  0  0  0  0  0  0  0  0  0  0  0
   58.9250   27.6900   55.2820 C   0  0  0  0  0  0  0  0  0  0  0  0
   58.4810   28.9160   55.7800 C   0  0  0  0  0  0  0  0  0  0  0  0
   57.4580   29.6100   55.1270 C   0  0  0  0  0  0  0  0  0  0  0  0
   57.0610   30.8160   55.6050 F   0  0  0  0  0  0  0  0  0  0  0  0
   54.6722   27.6436   54.3851 H   0  0  0  0  0  0  0  0  0  0  0  0
   52.9704   28.0011   53.6066 H   0  0  0  0  0  0  0  0  0  0  0  0
   51.7755   30.2546   53.0439 H   0  0  0  0  0  0  0  0  0  0  0  0
   54.5558   32.0776   51.2911 H   0  0  0  0  0  0  0  0  0  0  0  0
   57.7289   31.8401   53.2059 H   0  0  0  0  0  0  0  0  0  0  0  0
   57.9083   30.9156   51.6763 H   0  0  0  0  0  0  0  0  0  0  0  0
   57.0513   32.4943   51.6763 H   0  0  0  0  0  0  0  0  0  0  0  0
   56.8664   27.4246   52.5614 H   0  0  0  0  0  0  0  0  0  0  0  0
   59.7140   25.7744   51.7033 H   0  0  0  0  0  0  0  0  0  0  0  0
   60.6324   26.7184   52.9229 H   0  0  0  0  0  0  0  0  0  0  0  0
   61.6687   24.4820   52.4210 H   0  0  0  0  0  0  0  0  0  0  0  0
   61.1837   24.6745   54.1511 H   0  0  0  0  0  0  0  0  0  0  0  0
   59.5424   20.4309   53.9046 H   0  0  0  0  0  0  0  0  0  0  0  0
   58.9458   21.1339   52.3630 H   0  0  0  0  0  0  0  0  0  0  0  0
   60.3875   20.0623   52.3630 H   0  0  0  0  0  0  0  0  0  0  0  0
   62.8297   21.9487   52.4575 H   0  0  0  0  0  0  0  0  0  0  0  0
   61.6517   21.1175   51.3860 H   0  0  0  0  0  0  0  0  0  0  0  0
   61.7559   22.9108   51.3860 H   0  0  0  0  0  0  0  0  0  0  0  0
   60.7462   22.0719   55.3132 H   0  0  0  0  0  0  0  0  0  0  0  0
   61.9033   20.9088   54.5818 H   0  0  0  0  0  0  0  0  0  0  0  0
   62.2755   22.6661   54.5818 H   0  0  0  0  0  0  0  0  0  0  0  0
   58.2118   22.5610   53.8892 H   0  0  0  0  0  0  0  0  0  0  0  0
   59.2349   23.5641   54.9911 H   0  0  0  0  0  0  0  0  0  0  0  0
   57.4859   24.5558   52.6845 H   0  0  0  0  0  0  0  0  0  0  0  0
   57.2240   24.8197   54.4451 H   0  0  0  0  0  0  0  0  0  0  0  0
   59.7299   27.1487   55.8008 H   0  0  0  0  0  0  0  0  0  0  0  0
   58.9370   29.3371   56.6882 H   0  0  0  0  0  0  0  0  0  0  0  0
  1  2  2  0
  2  3  1  0
  3  4  2  3
  4  5  1  0
  5  6  1  0
  6  7  1  0
  7  8  2  0
  7  9  1  0
  9 10  1  0
 10 11  1  0
  3 12  1  0
 12 13  2  0
 13 14  1  0
 13 15  1  0
 15 16  1  0
 16 17  2  0
 17 18  1  0
 18 19  1  0
 19 20  1  0
 20 21  1  0
 21 22  1  0
 22 23  1  0
 23 24  1  0
 23 25  1  0
 23 26  1  0
 22 27  1  0
 27 28  1  0
 18 29  2  0
 29 30  1  0
 30 31  2  0
 31 32  1  0
 15  2  1  0
 31 16  1  0
 10  5  2  0
 28 19  1  0
  1 33  1  0
  1 34  1  0
  4 35  1  0
 12 36  1  0
 14 37  1  0
 14 38  1  0
 14 39  1  0
 17 40  1  0
 20 41  1  0
 20 42  1  0
 21 43  1  0
 21 44  1  0
 24 45  1  0
 24 46  1  0
 24 47  1  0
 25 48  1  0
 25 49  1  0
 25 50  1  0
 26 51  1  0
 26 52  1  0
 26 53  1  0
 27 54  1  0
 27 55  1  0
 28 56  1  0
 28 57  1  0
 29 58  1  0
 30 59  1  0
M  CHG  3   6  -1   9  -1  11  -1
M  END
>  <UniqueID>  (37) 
33

>  <SMILES>  (37) 
C=c1c(=Cc2[n-]c(=O)[n-]c2[O-])cc(C)n1-c1cc(N2CCN(C(C)(C)C)CC2)ccc1F

>  <Energy>  (37) 
147.53313750211092

>  <Genealogy>  (37) 
C=c1c(=Cc2[n-]c(=O)[n-]c2[O-])cc(C)n1-c1cc(N2CCN(C(C)(C)C)CC2)ccc1F (protonated)
C=c1c(=Cc2[n-]c(=O)[n-]c2[O-])cc(C)n1-c1cc(N2CCN(C(C)(C)C)CC2)ccc1F (3D coordinates assigned)
C=c1c(=Cc2[n-]c(=O)[n-]c2[O-])cc(C)n1-c1cc(N2CCN(C(C)(C)C)CC2)ccc1F (nonaromatic ring conformer: 147.53313750211092 kcal/mol)

>  <smiles>  (37) 
C=c1c(=Cc2[nH]c(=O)[nH]c2O)cc(C)n1-c1cc(N2CCN(C(C)(C)C)CC2)ccc1F

>  <score_type>  (37) 
oracle

>  <origin>  (37) 
adg

>  <m_score__min__energy>  (37) 
-17.449999999999999

>  <m_primary>  (37) 
energy

$$$$
37:0
     RDKit          3D

 30 32  0  0  0  0  0  0  0  0999 V2000
   55.5340   29.7920   43.4830 C   0  0  0  0  0  0  0  0  0  0  0  0
   56.0400   29.6810   44.7120 C   0  0  0  0  0  0  0  0  0  0  0  0
   57.4480   29.3070   44.9790 C   0  0  0  0  0  0  0  0  0  0  0  0
   58.4510   30.0050   44.2940 C   0  0  0  0  0  0  0  0  0  0  0  0
   59.7940   29.7060   44.5090 C   0  0  0  0  0  0  0  0  0  0  0  0
   60.1500   28.7030   45.4070 C   0  0  0  0  0  0  0  0  0  0  0  0
   59.1670   27.9540   46.0730 C   0  0  0  0  0  0  0  0  0  0  0  0
   57.8030   28.2430   45.8430 C   0  0  0  0  0  0  0  0  0  0  0  0
   56.7850   27.5030   46.4460 O   0  0  0  0  0  0  0  0  0  0  0  0
   56.7140   26.1100   46.4160 C   0  0  0  0  0  0  0  0  0  0  0  0
   57.7890   25.2910   46.8150 C   0  0  0  0  0  0  0  0  0  0  0  0
   57.6340   23.8950   46.7780 C   0  0  0  0  0  0  0  0  0  0  0  0
   56.4400   23.3210   46.3410 C   0  0  0  0  0  0  0  0  0  0  0  0
   55.3710   24.1300   45.9570 C   0  0  0  0  0  0  0  0  0  0  0  0
   54.1830   23.5330   45.5350 O   0  0  0  0  0  0  0  0  0  0  0  0
   55.5060   25.5260   46.0010 C   0  0  0  0  0  0  0  0  0  0  0  0
   54.4430   26.3410   45.6270 O   0  0  0  0  0  0  0  0  0  0  0  0
   59.0320   25.8270   47.4010 C   0  0  0  0  0  0  0  0  0  0  0  0
   59.6250   26.9800   47.0860 C   0  0  0  0  0  0  0  0  0  0  0  0
   54.4795   30.0734   43.3457 H   0  0  0  0  0  0  0  0  0  0  0  0
   56.1712   29.6022   42.6067 H   0  0  0  0  0  0  0  0  0  0  0  0
   55.3792   29.8768   45.5693 H   0  0  0  0  0  0  0  0  0  0  0  0
   58.1755   30.7956   43.5805 H   0  0  0  0  0  0  0  0  0  0  0  0
   60.5742   30.2625   43.9691 H   0  0  0  0  0  0  0  0  0  0  0  0
   61.2134   28.4952   45.5966 H   0  0  0  0  0  0  0  0  0  0  0  0
   58.4637   23.2472   47.0973 H   0  0  0  0  0  0  0  0  0  0  0  0
   56.3414   22.2262   46.2992 H   0  0  0  0  0  0  0  0  0  0  0  0
   53.3840   24.0770   45.2340 H   0  0  0  0  0  0  0  0  0  0  0  0
   59.5186   25.2152   48.1749 H   0  0  0  0  0  0  0  0  0  0  0  0
   60.5453   27.2303   47.6341 H   0  0  0  0  0  0  0  0  0  0  0  0
  1  2  2  0
  2  3  1  0
  3  4  2  0
  4  5  1  0
  5  6  2  0
  6  7  1  0
  7  8  2  0
  8  9  1  0
  9 10  1  0
 10 11  2  0
 11 12  1  0
 12 13  2  0
 13 14  1  0
 14 15  1  0
 14 16  2  0
 16 17  1  0
 11 18  1  0
 18 19  2  0
  8  3  1  0
 16 10  1  0
 19  7  1  0
  1 20  1  0
  1 21  1  0
  2 22  1  0
  4 23  1  0
  5 24  1  0
  6 25  1  0
 12 26  1  0
 13 27  1  0
 15 28  1  0
 18 29  1  0
 19 30  1  0
M  CHG  1  17  -1
M  END
>  <UniqueID>  (38) 
34

>  <SMILES>  (38) 
C=Cc1cccc2c1Oc1c(ccc(O)c1[O-])C=C2

>  <Energy>  (38) 
58.33631307649001

>  <Genealogy>  (38) 
C=Cc1cccc2c1Oc1c(ccc(O)c1[O-])C=C2 (protonated)
C=Cc1cccc2c1Oc1c(ccc(O)c1[O-])C=C2 (3D coordinates assigned)
C=Cc1cccc2c1Oc1c(ccc(O)c1[O-])C=C2 (nonaromatic ring conformer: 58.33631307649001 kcal/mol)

>  <smiles>  (38) 
C=Cc1cccc2c1Oc1c(ccc(O)c1O)C=C2

>  <score_type>  (38) 
oracle

>  <origin>  (38) 
adg

>  <m_score__min__energy>  (38) 
-8.4399999999999995

>  <m_primary>  (38) 
energy

$$$$
38:0
     RDKit          3D

 35 37  0  0  0  0  0  0  0  0999 V2000
   57.5380   29.9960   43.7900 C   0  0  0  0  0  0  0  0  0  0  0  0
   57.9020   29.6660   45.0390 C   0  0  0  0  0  0  0  0  0  0  0  0
   57.8810   28.3840   45.5980 C   0  0  0  0  0  0  0  0  0  0  0  0
   57.4910   27.2380   45.0060 C   0  0  0  0  0  0  0  0  0  0  0  0
   57.2960   25.9660   45.7370 C   0  0  0  0  0  0  0  0  0  0  0  0
   56.0270   25.6260   46.2270 C   0  0  0  0  0  0  0  0  0  0  0  0
   54.9360   26.4630   46.0010 O   0  0  0  0  0  0  0  0  0  0  0  0
   55.8540   24.4700   46.9190 N   0  0  0  0  0  0  0  0  0  0  0  0
   56.8960   23.6340   47.1610 C   0  0  0  0  0  0  0  0  0  0  0  0
   56.7100   22.5660   47.8000 O   0  0  0  0  0  0  0  0  0  0  0  0
   58.1390   23.9530   46.7210 N   0  0  0  0  0  0  0  0  0  0  0  0
   58.3660   25.0970   46.0260 C   0  0  0  0  0  0  0  0  0  0  0  0
   59.5400   25.3770   45.6640 O   0  0  0  0  0  0  0  0  0  0  0  0
   58.3990   28.5080   46.8800 C   0  0  0  0  0  0  0  0  0  0  0  0
   58.6950   29.8450   47.0590 C   0  0  0  0  0  0  0  0  0  0  0  0
   59.3100   30.4250   48.2960 C   0  0  0  0  0  0  0  0  0  0  0  0
   58.3910   30.5490   45.9460 N   0  0  0  0  0  0  0  0  0  0  0  0
   58.5910   31.9620   45.7750 C   0  0  0  0  0  0  0  0  0  0  0  0
   59.8170   32.5020   46.0220 N   0  0  0  0  0  0  0  0  0  0  0  0
   60.0560   33.8330   45.8920 C   0  0  0  0  0  0  0  0  0  0  0  0
   59.0280   34.6940   45.5000 C   0  0  0  0  0  0  0  0  0  0  0  0
   57.7570   34.1700   45.2540 C   0  0  0  0  0  0  0  0  0  0  0  0
   57.5280   32.8000   45.3970 C   0  0  0  0  0  0  0  0  0  0  0  0
   56.2560   32.2830   45.1810 O   0  0  0  0  0  0  0  0  0  0  0  0
   57.5970   31.0432   43.4585 H   0  0  0  0  0  0  0  0  0  0  0  0
   57.1807   29.2193   43.0979 H   0  0  0  0  0  0  0  0  0  0  0  0
   57.3078   27.2485   43.9214 H   0  0  0  0  0  0  0  0  0  0  0  0
   54.3010   26.7060   46.7520 H   0  0  0  0  0  0  0  0  0  0  0  0
   58.5452   27.6990   47.6108 H   0  0  0  0  0  0  0  0  0  0  0  0
   58.8376   29.9795   49.1839 H   0  0  0  0  0  0  0  0  0  0  0  0
   60.3882   30.2073   48.3062 H   0  0  0  0  0  0  0  0  0  0  0  0
   59.1558   31.5141   48.3062 H   0  0  0  0  0  0  0  0  0  0  0  0
   61.0601   34.2333   46.0956 H   0  0  0  0  0  0  0  0  0  0  0  0
   59.2174   35.7716   45.3865 H   0  0  0  0  0  0  0  0  0  0  0  0
   56.9369   34.8361   44.9478 H   0  0  0  0  0  0  0  0  0  0  0  0
  1  2  2  0
  2  3  1  0
  3  4  2  3
  4  5  1  0
  5  6  2  0
  6  7  1  0
  6  8  1  0
  8  9  1  0
  9 10  2  0
  9 11  1  0
 11 12  1  0
 12 13  2  0
  3 14  1  0
 14 15  2  0
 15 16  1  0
 15 17  1  0
 17 18  1  0
 18 19  2  0
 19 20  1  0
 20 21  2  0
 21 22  1  0
 22 23  2  0
 23 24  1  0
 17  2  1  0
 23 18  1  0
 12  5  1  0
  1 25  1  0
  1 26  1  0
  4 27  1  0
  7 28  1  0
 14 29  1  0
 16 30  1  0
 16 31  1  0
 16 32  1  0
 20 33  1  0
 21 34  1  0
 22 35  1  0
M  CHG  3   8  -1  11  -1  24  -1
M  END
>  <UniqueID>  (39) 
35

>  <SMILES>  (39) 
C=c1c(=Cc2c(O)[n-]c(=O)[n-]c2=O)cc(C)n1-c1ncccc1[O-]

>  <Energy>  (39) 
83.2187179032986

>  <Genealogy>  (39) 
C=c1c(=Cc2c(O)[n-]c(=O)[n-]c2=O)cc(C)n1-c1ncccc1[O-] (protonated)
C=c1c(=Cc2c(O)[n-]c(=O)[n-]c2=O)cc(C)n1-c1ncccc1[O-] (3D coordinates assigned)
C=c1c(=Cc2c(O)[n-]c(=O)[n-]c2=O)cc(C)n1-c1ncccc1[O-] (optimized conformer: 83.2187179032986 kcal/mol)

>  <smiles>  (39) 
C=c1c(=Cc2c(O)[nH]c(=O)[nH]c2=O)cc(C)n1-c1ncccc1O

>  <score_type>  (39) 
oracle

>  <origin>  (39) 
adg

>  <m_score__min__energy>  (39) 
-13.65

>  <m_primary>  (39) 
energy

$$$$
39:0
     RDKit          3D

 40 42  0  0  0  0  0  0  0  0999 V2000
   58.3380   32.3670   41.4900 C   0  0  0  0  0  0  0  0  0  0  0  0
   57.4480   31.8590   42.3400 C   0  0  0  0  0  0  0  0  0  0  0  0
   57.7130   31.7270   43.7870 C   0  0  0  0  0  0  0  0  0  0  0  0
   57.5210   30.5770   44.5510 C   0  0  0  0  0  0  0  0  0  0  0  0
   56.8880   29.0500   43.9550 S   0  0  0  0  0  0  0  0  0  0  0  0
   55.9320   29.3280   42.8300 O   0  0  0  0  0  0  0  0  0  0  0  0
   58.0230   28.1970   43.4610 O   0  0  0  0  0  0  0  0  0  0  0  0
   56.0780   28.2400   45.2560 N   0  0  0  0  0  0  0  0  0  0  0  0
   56.2380   26.8620   45.6170 C   0  0  0  0  0  0  0  0  0  0  0  0
   55.2790   26.2760   46.1860 O   0  0  0  0  0  0  0  0  0  0  0  0
   57.5020   26.0880   45.3520 C   0  0  0  0  0  0  0  0  0  0  0  0
   57.1770   24.7080   44.8420 C   0  0  0  0  0  0  0  0  0  0  0  0
   57.2110   23.6020   45.7080 C   0  0  0  0  0  0  0  0  0  0  0  0
   56.9360   22.3200   45.2230 C   0  0  0  0  0  0  0  0  0  0  0  0
   56.6320   22.1280   43.8680 C   0  0  0  0  0  0  0  0  0  0  0  0
   56.3560   20.8550   43.3750 O   0  0  0  0  0  0  0  0  0  0  0  0
   56.6070   23.2250   43.0000 C   0  0  0  0  0  0  0  0  0  0  0  0
   56.8790   24.5090   43.4830 C   0  0  0  0  0  0  0  0  0  0  0  0
   57.8670   30.7860   45.8410 N   0  0  0  0  0  0  0  0  0  0  0  0
   58.2970   32.0580   45.9020 C   0  0  0  0  0  0  0  0  0  0  0  0
   58.7940   32.7220   47.0230 C   0  0  0  0  0  0  0  0  0  0  0  0
   59.2420   34.0440   46.8610 C   0  0  0  0  0  0  0  0  0  0  0  0
   59.1970   34.6640   45.5940 C   0  0  0  0  0  0  0  0  0  0  0  0
   58.6940   33.9710   44.4780 C   0  0  0  0  0  0  0  0  0  0  0  0
   58.2270   32.6670   44.6700 C   0  0  0  0  0  0  0  0  0  0  0  0
   58.0945   32.4450   40.4201 H   0  0  0  0  0  0  0  0  0  0  0  0
   59.3168   32.7087   41.8576 H   0  0  0  0  0  0  0  0  0  0  0  0
   56.4760   31.5241   41.9488 H   0  0  0  0  0  0  0  0  0  0  0  0
   58.1017   26.6205   44.5991 H   0  0  0  0  0  0  0  0  0  0  0  0
   58.0675   25.9968   46.2911 H   0  0  0  0  0  0  0  0  0  0  0  0
   57.4548   23.7454   46.7710 H   0  0  0  0  0  0  0  0  0  0  0  0
   56.9582   21.4588   45.9070 H   0  0  0  0  0  0  0  0  0  0  0  0
   57.0050   20.0860   43.5000 H   0  0  0  0  0  0  0  0  0  0  0  0
   56.3729   23.0773   41.9354 H   0  0  0  0  0  0  0  0  0  0  0  0
   56.8596   25.3676   42.7957 H   0  0  0  0  0  0  0  0  0  0  0  0
   57.8230   30.1000   46.6260 H   0  0  0  0  0  0  0  0  0  0  0  0
   58.8341   32.2261   48.0041 H   0  0  0  0  0  0  0  0  0  0  0  0
   59.6304   34.5993   47.7275 H   0  0  0  0  0  0  0  0  0  0  0  0
   59.5579   35.6967   45.4783 H   0  0  0  0  0  0  0  0  0  0  0  0
   58.6688   34.4409   43.4838 H   0  0  0  0  0  0  0  0  0  0  0  0
  1  2  2  0
  2  3  1  0
  3  4  2  0
  4  5  1  0
  5  6  2  0
  5  7  2  0
  5  8  1  0
  8  9  1  0
  9 10  2  0
  9 11  1  0
 11 12  1  0
 12 13  2  0
 13 14  1  0
 14 15  2  0
 15 16  1  0
 15 17  1  0
 17 18  2  0
  4 19  1  0
 19 20  1  0
 20 21  2  0
 21 22  1  0
 22 23  2  0
 23 24  1  0
 24 25  2  0
 25  3  1  0
 18 12  1  0
 25 20  1  0
  1 26  1  0
  1 27  1  0
  2 28  1  0
 11 29  1  0
 11 30  1  0
 13 31  1  0
 14 32  1  0
 16 33  1  0
 17 34  1  0
 18 35  1  0
 19 36  1  0
 21 37  1  0
 22 38  1  0
 23 39  1  0
 24 40  1  0
M  CHG  1   8  -1
M  END
>  <UniqueID>  (40) 
36

>  <SMILES>  (40) 
C=Cc1c(S(=O)(=O)[N-]C(=O)Cc2ccc(O)cc2)[nH]c2ccccc12

>  <Energy>  (40) 
79.82819237354688

>  <Genealogy>  (40) 
C=Cc1c(S(=O)(=O)[N-]C(=O)Cc2ccc(O)cc2)[nH]c2ccccc12 (protonated)
C=Cc1c(S(=O)(=O)[N-]C(=O)Cc2ccc(O)cc2)[nH]c2ccccc12 (3D coordinates assigned)
C=Cc1c(S(=O)(=O)[N-]C(=O)Cc2ccc(O)cc2)[nH]c2ccccc12 (optimized conformer: 79.82819237354688 kcal/mol)

>  <smiles>  (40) 
C=Cc1c(S(=O)(=O)NC(=O)Cc2ccc(O)cc2)[nH]c2ccccc12

>  <score_type>  (40) 
oracle

>  <origin>  (40) 
adg

>  <m_score__min__energy>  (40) 
-11.77

>  <m_primary>  (40) 
energy

$$$$
40:0
     RDKit          3D

 56 59  0  0  0  0  0  0  0  0999 V2000
   53.2030   28.1220   53.6010 C   0  0  0  0  0  0  0  0  0  0  0  0
   54.1250   28.8780   52.9770 C   0  0  0  0  0  0  0  0  0  0  0  0
   55.4780   28.5670   53.2100 C   0  0  0  0  0  0  0  0  0  0  0  0
   56.5080   29.4260   52.8030 C   0  0  0  0  0  0  0  0  0  0  0  0
   57.9360   29.0190   53.0680 C   0  0  0  0  0  0  0  0  0  0  0  0
   56.1800   30.6590   52.2030 C   0  0  0  0  0  0  0  0  0  0  0  0
   57.2070   31.6600   51.8450 C   0  0  0  0  0  0  0  0  0  0  0  0
   57.0070   32.8770   52.1140 O   0  0  0  0  0  0  0  0  0  0  0  0
   58.5040   31.2490   51.2070 C   0  0  0  0  0  0  0  0  0  0  0  0
   58.9470   32.2790   50.2020 C   0  0  0  0  0  0  0  0  0  0  0  0
   59.8130   33.3110   50.5900 C   0  0  0  0  0  0  0  0  0  0  0  0
   60.2020   34.2850   49.6690 C   0  0  0  0  0  0  0  0  0  0  0  0
   59.7320   34.2380   48.3540 C   0  0  0  0  0  0  0  0  0  0  0  0
   58.8610   33.2100   47.9430 C   0  0  0  0  0  0  0  0  0  0  0  0
   58.3390   33.1440   46.5530 C   0  0  0  0  0  0  0  0  0  0  0  0
   58.3890   34.1840   45.8370 O   0  0  0  0  0  0  0  0  0  0  0  0
   57.8040   31.9160   45.9970 N   0  0  0  0  0  0  0  0  0  0  0  0
   58.8530   30.8750   45.9470 C   0  0  0  0  0  0  0  0  0  0  0  0
   58.4450   29.7050   45.0270 C   0  0  0  0  0  0  0  0  0  0  0  0
   57.0470   29.6910   44.8200 O   0  0  0  0  0  0  0  0  0  0  0  0
   56.6560   30.8340   44.0780 C   0  0  0  0  0  0  0  0  0  0  0  0
   57.2390   32.1460   44.6520 C   0  0  0  0  0  0  0  0  0  0  0  0
   58.4640   32.2420   48.8840 C   0  0  0  0  0  0  0  0  0  0  0  0
   54.8420   30.9430   51.8990 C   0  0  0  0  0  0  0  0  0  0  0  0
   53.8030   30.0380   52.2010 C   0  0  0  0  0  0  0  0  0  0  0  0
   52.5730   30.3350   51.7120 C   0  0  0  0  0  0  0  0  0  0  0  0
   51.6530   31.3610   52.2420 C   0  0  0  0  0  0  0  0  0  0  0  0
   51.4190   31.5410   53.5540 N   0  0  0  0  0  0  0  0  0  0  0  0
   50.6070   32.6210   53.5810 C   0  0  0  0  0  0  0  0  0  0  0  0
   50.1490   33.0980   54.6520 O   0  0  0  0  0  0  0  0  0  0  0  0
   50.3310   33.1540   52.3710 N   0  0  0  0  0  0  0  0  0  0  0  0
   51.0100   32.3520   51.5340 C   0  0  0  0  0  0  0  0  0  0  0  0
   51.0650   32.5440   50.1600 O   0  0  0  0  0  0  0  0  0  0  0  0
   52.1323   28.3252   53.4513 H   0  0  0  0  0  0  0  0  0  0  0  0
   53.5200   27.3009   54.2607 H   0  0  0  0  0  0  0  0  0  0  0  0
   55.7328   27.6281   53.7234 H   0  0  0  0  0  0  0  0  0  0  0  0
   58.1079   28.9700   54.1534 H   0  0  0  0  0  0  0  0  0  0  0  0
   58.1246   28.0313   52.6219 H   0  0  0  0  0  0  0  0  0  0  0  0
   58.6169   29.7588   52.6219 H   0  0  0  0  0  0  0  0  0  0  0  0
   59.2745   31.1482   51.9856 H   0  0  0  0  0  0  0  0  0  0  0  0
   58.3581   30.2884   50.6912 H   0  0  0  0  0  0  0  0  0  0  0  0
   60.1871   33.3533   51.6236 H   0  0  0  0  0  0  0  0  0  0  0  0
   60.8811   35.0926   49.9796 H   0  0  0  0  0  0  0  0  0  0  0  0
   60.0444   35.0093   47.6346 H   0  0  0  0  0  0  0  0  0  0  0  0
   57.0170   31.5780   46.6010 H   0  0  0  0  0  0  0  0  0  0  0  0
   59.7827   31.3224   45.5655 H   0  0  0  0  0  0  0  0  0  0  0  0
   58.9968   30.4807   46.9638 H   0  0  0  0  0  0  0  0  0  0  0  0
   58.9518   29.8158   44.0570 H   0  0  0  0  0  0  0  0  0  0  0  0
   58.7389   28.7603   45.5079 H   0  0  0  0  0  0  0  0  0  0  0  0
   57.0056   30.7173   43.0416 H   0  0  0  0  0  0  0  0  0  0  0  0
   55.5597   30.9060   44.1317 H   0  0  0  0  0  0  0  0  0  0  0  0
   58.0323   32.5124   43.9839 H   0  0  0  0  0  0  0  0  0  0  0  0
   56.4328   32.8906   44.7273 H   0  0  0  0  0  0  0  0  0  0  0  0
   57.7665   31.4463   48.5833 H   0  0  0  0  0  0  0  0  0  0  0  0
   54.5951   31.8977   51.4116 H   0  0  0  0  0  0  0  0  0  0  0  0
   52.2294   29.7584   50.8405 H   0  0  0  0  0  0  0  0  0  0  0  0
  1  2  2  0
  2  3  1  0
  3  4  2  0
  4  5  1  0
  4  6  1  0
  6  7  1  0
  7  8  2  0
  7  9  1  0
  9 10  1  0
 10 11  2  0
 11 12  1  0
 12 13  2  0
 13 14  1  0
 14 15  1  0
 15 16  2  0
 15 17  1  0
 17 18  1  0
 18 19  1  0
 19 20  1  0
 20 21  1  0
 21 22  1  0
 14 23  2  0
  6 24  2  0
 24 25  1  0
 25 26  2  3
 26 27  1  0
 27 28  1  0
 28 29  1  0
 29 30  2  0
 29 31  1  0
 31 32  1  0
 32 33  1  0
 25  2  1  0
 32 27  2  0
 23 10  1  0
 22 17  1  0
  1 34  1  0
  1 35  1  0
  3 36  1  0
  5 37  1  0
  5 38  1  0
  5 39  1  0
  9 40  1  0
  9 41  1  0
 11 42  1  0
 12 43  1  0
 13 44  1  0
 17 45  1  0
 18 46  1  0
 18 47  1  0
 19 48  1  0
 19 49  1  0
 21 50  1  0
 21 51  1  0
 22 52  1  0
 22 53  1  0
 23 54  1  0
 24 55  1  0
 26 56  1  0
M  CHG  4  17   1  28  -1  31  -1  33  -1
M  END
>  <UniqueID>  (41) 
37

>  <SMILES>  (41) 
C=c1cc(C)c(C(=O)Cc2cccc(C(=O)[NH+]3CCOCC3)c2)cc1=Cc1[n-]c(=O)[n-]c1[O-]

>  <Energy>  (41) 
129.32052308020508

>  <Genealogy>  (41) 
C=c1cc(C)c(C(=O)Cc2cccc(C(=O)[NH+]3CCOCC3)c2)cc1=Cc1[n-]c(=O)[n-]c1[O-] (protonated)
C=c1cc(C)c(C(=O)Cc2cccc(C(=O)[NH+]3CCOCC3)c2)cc1=Cc1[n-]c(=O)[n-]c1[O-] (3D coordinates assigned)
C=c1cc(C)c(C(=O)Cc2cccc(C(=O)[NH+]3CCOCC3)c2)cc1=Cc1[n-]c(=O)[n-]c1[O-] (nonaromatic ring conformer: 129.32052308020508 kcal/mol)

>  <smiles>  (41) 
C=c1cc(C)c(C(=O)Cc2cccc(C(=O)N3CCOCC3)c2)cc1=Cc1[nH]c(=O)[nH]c1O

>  <score_type>  (41) 
oracle

>  <origin>  (41) 
adg

>  <m_score__min__energy>  (41) 
-17.870000000000001

>  <m_primary>  (41) 
energy

$$$$
41:0
     RDKit          3D

 61 64  0  0  0  0  0  0  0  0999 V2000
   59.8500   26.7410   46.3390 O   0  0  0  0  0  0  0  0  0  0  0  0
   59.2370   27.8420   46.3700 C   0  0  0  0  0  0  0  0  0  0  0  0
   57.9760   27.9760   45.6920 N   0  0  0  0  0  0  0  0  0  0  0  0
   57.1020   26.8300   45.4240 C   0  0  0  0  0  0  0  0  0  0  0  0
   56.7990   26.0700   46.7310 C   0  0  0  0  0  0  0  0  0  0  0  0
   56.3440   24.6190   46.4750 C   0  0  0  0  0  0  0  0  0  0  0  0
   55.8150   24.4710   45.1020 N   0  0  0  0  0  0  0  0  0  0  0  0
   55.1810   23.1500   44.9170 C   0  0  0  0  0  0  0  0  0  0  0  0
   53.7220   23.2050   45.2920 C   0  0  0  0  0  0  0  0  0  0  0  0
   52.8380   23.9830   44.5230 C   0  0  0  0  0  0  0  0  0  0  0  0
   51.4810   24.0510   44.8580 C   0  0  0  0  0  0  0  0  0  0  0  0
   50.9950   23.3460   45.9610 C   0  0  0  0  0  0  0  0  0  0  0  0
   51.8660   22.5710   46.7340 C   0  0  0  0  0  0  0  0  0  0  0  0
   53.2260   22.5000   46.4070 C   0  0  0  0  0  0  0  0  0  0  0  0
   54.0530   21.7490   47.1790 F   0  0  0  0  0  0  0  0  0  0  0  0
   56.8960   24.6600   44.1070 C   0  0  0  0  0  0  0  0  0  0  0  0
   57.7680   25.9000   44.4050 C   0  0  0  0  0  0  0  0  0  0  0  0
   59.8340   28.9870   47.0970 C   0  0  0  0  0  0  0  0  0  0  0  0
   59.6080   29.1660   48.4730 C   0  0  0  0  0  0  0  0  0  0  0  0
   60.1880   30.2390   49.1550 C   0  0  0  0  0  0  0  0  0  0  0  0
   61.0160   31.1490   48.4730 C   0  0  0  0  0  0  0  0  0  0  0  0
   61.6270   32.2660   49.1320 N   0  0  0  0  0  0  0  0  0  0  0  0
   61.6910   33.8820   48.5100 S   0  0  0  0  0  0  0  0  0  0  0  0
   62.6010   34.7220   49.3610 O   0  0  0  0  0  0  0  0  0  0  0  0
   62.1910   33.8610   47.0910 O   0  0  0  0  0  0  0  0  0  0  0  0
   60.0470   34.5790   48.5320 C   0  0  0  0  0  0  0  0  0  0  0  0
   59.3130   34.2240   47.2670 C   0  0  0  0  0  0  0  0  0  0  0  0
   58.4180   33.1420   47.2440 C   0  0  0  0  0  0  0  0  0  0  0  0
   57.7660   32.7900   46.0570 C   0  0  0  0  0  0  0  0  0  0  0  0
   58.0110   33.5090   44.8840 C   0  0  0  0  0  0  0  0  0  0  0  0
   58.9100   34.5780   44.8940 C   0  0  0  0  0  0  0  0  0  0  0  0
   59.5620   34.9360   46.0800 C   0  0  0  0  0  0  0  0  0  0  0  0
   61.2500   30.9670   47.1050 C   0  0  0  0  0  0  0  0  0  0  0  0
   60.6690   29.8950   46.4220 C   0  0  0  0  0  0  0  0  0  0  0  0
   57.5960   28.9340   45.5190 H   0  0  0  0  0  0  0  0  0  0  0  0
   56.1507   27.1928   45.0076 H   0  0  0  0  0  0  0  0  0  0  0  0
   57.7095   26.0511   47.3479 H   0  0  0  0  0  0  0  0  0  0  0  0
   55.9774   26.5942   47.2412 H   0  0  0  0  0  0  0  0  0  0  0  0
   57.2020   23.9432   46.6061 H   0  0  0  0  0  0  0  0  0  0  0  0
   55.5468   24.3673   47.1899 H   0  0  0  0  0  0  0  0  0  0  0  0
   55.2723   22.8496   43.8628 H   0  0  0  0  0  0  0  0  0  0  0  0
   55.6868   22.4197   45.5657 H   0  0  0  0  0  0  0  0  0  0  0  0
   53.2154   24.5411   43.6534 H   0  0  0  0  0  0  0  0  0  0  0  0
   50.7958   24.6611   44.2512 H   0  0  0  0  0  0  0  0  0  0  0  0
   49.9278   23.4000   46.2219 H   0  0  0  0  0  0  0  0  0  0  0  0
   51.4814   22.0153   47.6019 H   0  0  0  0  0  0  0  0  0  0  0  0
   57.5392   23.7677   44.1119 H   0  0  0  0  0  0  0  0  0  0  0  0
   56.4226   24.8137   43.1261 H   0  0  0  0  0  0  0  0  0  0  0  0
   58.7364   25.5666   44.8064 H   0  0  0  0  0  0  0  0  0  0  0  0
   57.9012   26.4588   43.4669 H   0  0  0  0  0  0  0  0  0  0  0  0
   58.9690   28.4552   49.0175 H   0  0  0  0  0  0  0  0  0  0  0  0
   59.9962   30.3726   50.2299 H   0  0  0  0  0  0  0  0  0  0  0  0
   59.4952   34.1802   49.3960 H   0  0  0  0  0  0  0  0  0  0  0  0
   60.1231   35.6738   48.6067 H   0  0  0  0  0  0  0  0  0  0  0  0
   58.2286   32.5685   48.1634 H   0  0  0  0  0  0  0  0  0  0  0  0
   57.0599   31.9466   46.0472 H   0  0  0  0  0  0  0  0  0  0  0  0
   57.4956   33.2329   43.9523 H   0  0  0  0  0  0  0  0  0  0  0  0
   59.1060   35.1394   43.9686 H   0  0  0  0  0  0  0  0  0  0  0  0
   60.2713   35.7768   46.0835 H   0  0  0  0  0  0  0  0  0  0  0  0
   61.8963   31.6733   46.5633 H   0  0  0  0  0  0  0  0  0  0  0  0
   60.8664   29.7605   45.3482 H   0  0  0  0  0  0  0  0  0  0  0  0
  1  2  2  0
  2  3  1  0
  3  4  1  0
  4  5  1  0
  5  6  1  0
  6  7  1  0
  7  8  1  0
  8  9  1  0
  9 10  2  0
 10 11  1  0
 11 12  2  0
 12 13  1  0
 13 14  2  0
 14 15  1  0
  7 16  1  0
 16 17  1  0
  2 18  1  0
 18 19  2  0
 19 20  1  0
 20 21  2  0
 21 22  1  0
 22 23  1  0
 23 24  2  0
 23 25  2  0
 23 26  1  0
 26 27  1  0
 27 28  2  0
 28 29  1  0
 29 30  2  0
 30 31  1  0
 31 32  2  0
 21 33  1  0
 33 34  2  0
 17  4  1  0
 34 18  1  0
 14  9  1  0
 32 27  1  0
  3 35  1  0
  4 36  1  0
  5 37  1  0
  5 38  1  0
  6 39  1  0
  6 40  1  0
  8 41  1  0
  8 42  1  0
 10 43  1  0
 11 44  1  0
 12 45  1  0
 13 46  1  0
 16 47  1  0
 16 48  1  0
 17 49  1  0
 17 50  1  0
 19 51  1  0
 20 52  1  0
 26 53  1  0
 26 54  1  0
 28 55  1  0
 29 56  1  0
 30 57  1  0
 31 58  1  0
 32 59  1  0
 33 60  1  0
 34 61  1  0
M  CHG  1  22  -1
M  END
>  <UniqueID>  (42) 
38

>  <SMILES>  (42) 
O=C(NC1CCN(Cc2ccccc2F)CC1)c1ccc([N-]S(=O)(=O)Cc2ccccc2)cc1

>  <Energy>  (42) 
70.31174493243186

>  <Genealogy>  (42) 
O=C(NC1CCN(Cc2ccccc2F)CC1)c1ccc([N-]S(=O)(=O)Cc2ccccc2)cc1 (protonated)
O=C(NC1CCN(Cc2ccccc2F)CC1)c1ccc([N-]S(=O)(=O)Cc2ccccc2)cc1 (3D coordinates assigned)
O=C(NC1CCN(Cc2ccccc2F)CC1)c1ccc([N-]S(=O)(=O)Cc2ccccc2)cc1 (nonaromatic ring conformer: 70.31174493243186 kcal/mol)

>  <smiles>  (42) 
O=C(NC1CCN(Cc2ccccc2F)CC1)c1ccc(NS(=O)(=O)Cc2ccccc2)cc1

>  <score_type>  (42) 
oracle

>  <origin>  (42) 
adg

>  <m_score__min__energy>  (42) 
-11.369999999999999

>  <m_primary>  (42) 
energy

$$$$
42:0
     RDKit          3D

 60 63  0  0  0  0  0  0  0  0999 V2000
   64.9840   30.3030   52.2820 C   0  0  0  0  0  0  0  0  0  0  0  0
   64.7850   31.2670   51.1410 C   0  0  0  0  0  0  0  0  0  0  0  0
   65.8440   32.1180   50.7820 C   0  0  0  0  0  0  0  0  0  0  0  0
   65.6980   33.0330   49.7430 C   0  0  0  0  0  0  0  0  0  0  0  0
   64.4930   33.1170   49.0500 C   0  0  0  0  0  0  0  0  0  0  0  0
   63.4240   32.2760   49.3780 C   0  0  0  0  0  0  0  0  0  0  0  0
   62.1890   32.4260   48.6630 N   0  0  0  0  0  0  0  0  0  0  0  0
   62.0890   32.0370   47.2580 C   0  0  0  0  0  0  0  0  0  0  0  0
   60.8250   31.1940   47.0410 C   0  0  0  0  0  0  0  0  0  0  0  0
   59.6110   31.7950   47.6400 N   0  0  0  0  0  0  0  0  0  0  0  0
   58.9810   33.1340   46.7010 S   0  0  0  0  0  0  0  0  0  0  0  0
   57.9040   33.8340   47.4840 O   0  0  0  0  0  0  0  0  0  0  0  0
   60.0540   34.1400   46.3860 O   0  0  0  0  0  0  0  0  0  0  0  0
   58.2710   32.5290   45.2000 C   0  0  0  0  0  0  0  0  0  0  0  0
   57.4110   31.4220   45.2490 C   0  0  0  0  0  0  0  0  0  0  0  0
   56.8350   30.9070   44.0720 C   0  0  0  0  0  0  0  0  0  0  0  0
   55.9250   29.7400   44.1280 C   0  0  0  0  0  0  0  0  0  0  0  0
   55.0800   29.5580   43.2080 O   0  0  0  0  0  0  0  0  0  0  0  0
   55.9720   28.8480   45.2490 N   0  0  0  0  0  0  0  0  0  0  0  0
   57.0890   28.0520   45.6700 C   0  0  0  0  0  0  0  0  0  0  0  0
   57.4460   26.8580   45.0150 C   0  0  0  0  0  0  0  0  0  0  0  0
   58.5620   26.1310   45.4390 C   0  0  0  0  0  0  0  0  0  0  0  0
   59.3410   26.5930   46.5030 C   0  0  0  0  0  0  0  0  0  0  0  0
   59.0080   27.7940   47.1420 C   0  0  0  0  0  0  0  0  0  0  0  0
   59.8260   28.2870   48.2190 C   0  0  0  0  0  0  0  0  0  0  0  0
   60.4810   28.6810   49.0870 N   0  0  0  0  0  0  0  0  0  0  0  0
   57.8890   28.5240   46.7200 C   0  0  0  0  0  0  0  0  0  0  0  0
   57.1410   31.5160   42.8440 C   0  0  0  0  0  0  0  0  0  0  0  0
   58.0090   32.6100   42.7920 C   0  0  0  0  0  0  0  0  0  0  0  0
   58.5740   33.1170   43.9640 C   0  0  0  0  0  0  0  0  0  0  0  0
   59.4240   34.1720   43.8810 F   0  0  0  0  0  0  0  0  0  0  0  0
   59.7920   32.1420   49.0660 C   0  0  0  0  0  0  0  0  0  0  0  0
   61.0240   33.0170   49.3170 C   0  0  0  0  0  0  0  0  0  0  0  0
   63.5710   31.3140   50.4060 C   0  0  0  0  0  0  0  0  0  0  0  0
   62.4290   30.3820   50.7360 C   0  0  0  0  0  0  0  0  0  0  0  0
   64.8737   30.8375   53.2371 H   0  0  0  0  0  0  0  0  0  0  0  0
   64.2322   29.5023   52.2209 H   0  0  0  0  0  0  0  0  0  0  0  0
   65.9914   29.8655   52.2209 H   0  0  0  0  0  0  0  0  0  0  0  0
   66.7976   32.0606   51.3272 H   0  0  0  0  0  0  0  0  0  0  0  0
   66.5360   33.6908   49.4689 H   0  0  0  0  0  0  0  0  0  0  0  0
   64.3807   33.8506   48.2381 H   0  0  0  0  0  0  0  0  0  0  0  0
   62.0378   32.9399   46.6318 H   0  0  0  0  0  0  0  0  0  0  0  0
   62.9732   31.4439   46.9814 H   0  0  0  0  0  0  0  0  0  0  0  0
   60.6616   31.0815   45.9590 H   0  0  0  0  0  0  0  0  0  0  0  0
   60.9890   30.2264   47.5378 H   0  0  0  0  0  0  0  0  0  0  0  0
   58.8650   31.0610   47.6030 H   0  0  0  0  0  0  0  0  0  0  0  0
   57.1842   30.9513   46.2170 H   0  0  0  0  0  0  0  0  0  0  0  0
   56.8452   26.4963   44.1675 H   0  0  0  0  0  0  0  0  0  0  0  0
   58.8281   25.1913   44.9329 H   0  0  0  0  0  0  0  0  0  0  0  0
   60.2144   26.0144   46.8382 H   0  0  0  0  0  0  0  0  0  0  0  0
   57.6367   29.4731   47.2155 H   0  0  0  0  0  0  0  0  0  0  0  0
   56.6942   31.1290   41.9163 H   0  0  0  0  0  0  0  0  0  0  0  0
   58.2482   33.0737   41.8236 H   0  0  0  0  0  0  0  0  0  0  0  0
   58.8999   32.6855   49.4105 H   0  0  0  0  0  0  0  0  0  0  0  0
   59.9382   31.2016   49.6176 H   0  0  0  0  0  0  0  0  0  0  0  0
   60.8471   34.0232   48.9093 H   0  0  0  0  0  0  0  0  0  0  0  0
   61.2088   33.0842   50.3993 H   0  0  0  0  0  0  0  0  0  0  0  0
   62.3273   30.2990   51.8281 H   0  0  0  0  0  0  0  0  0  0  0  0
   61.4961   30.7800   50.3101 H   0  0  0  0  0  0  0  0  0  0  0  0
   62.6319   29.3883   50.3101 H   0  0  0  0  0  0  0  0  0  0  0  0
  1  2  1  0
  2  3  2  0
  3  4  1  0
  4  5  2  0
  5  6  1  0
  6  7  1  0
  7  8  1  0
  8  9  1  0
  9 10  1  0
 10 11  1  0
 11 12  2  0
 11 13  2  0
 11 14  1  0
 14 15  2  0
 15 16  1  0
 16 17  1  0
 17 18  2  0
 17 19  1  0
 19 20  1  0
 20 21  2  0
 21 22  1  0
 22 23  2  0
 23 24  1  0
 24 25  1  0
 25 26  3  0
 24 27  2  0
 16 28  2  0
 28 29  1  0
 29 30  2  0
 30 31  1  0
 10 32  1  0
 32 33  1  0
  6 34  2  0
 34 35  1  0
 34  2  1  0
 33  7  1  0
 30 14  1  0
 27 20  1  0
  1 36  1  0
  1 37  1  0
  1 38  1  0
  3 39  1  0
  4 40  1  0
  5 41  1  0
  8 42  1  0
  8 43  1  0
  9 44  1  0
  9 45  1  0
 10 46  1  0
 15 47  1  0
 21 48  1  0
 22 49  1  0
 23 50  1  0
 27 51  1  0
 28 52  1  0
 29 53  1  0
 32 54  1  0
 32 55  1  0
 33 56  1  0
 33 57  1  0
 35 58  1  0
 35 59  1  0
 35 60  1  0
M  CHG  2  10   1  19  -1
M  END
>  <UniqueID>  (43) 
39

>  <SMILES>  (43) 
Cc1cccc(N2CC[NH+](S(=O)(=O)c3cc(C(=O)[N-]c4cccc(C#N)c4)ccc3F)CC2)c1C

>  <Energy>  (43) 
76.86071849874824

>  <Genealogy>  (43) 
Cc1cccc(N2CC[NH+](S(=O)(=O)c3cc(C(=O)[N-]c4cccc(C#N)c4)ccc3F)CC2)c1C (protonated)
Cc1cccc(N2CC[NH+](S(=O)(=O)c3cc(C(=O)[N-]c4cccc(C#N)c4)ccc3F)CC2)c1C (3D coordinates assigned)
Cc1cccc(N2CC[NH+](S(=O)(=O)c3cc(C(=O)[N-]c4cccc(C#N)c4)ccc3F)CC2)c1C (nonaromatic ring conformer: 76.86071849874824 kcal/mol)

>  <smiles>  (43) 
Cc1cccc(N2CCN(S(=O)(=O)c3cc(C(=O)Nc4cccc(C#N)c4)ccc3F)CC2)c1C

>  <score_type>  (43) 
oracle

>  <origin>  (43) 
adg

>  <m_score__min__energy>  (43) 
-9.9199999999999999

>  <m_primary>  (43) 
energy

$$$$
43:0
     RDKit          3D

 55 58  0  0  0  0  0  0  0  0999 V2000
   60.0000   28.0940   48.6430 N   0  0  0  0  0  0  0  0  0  0  0  0
   60.2630   29.2010   49.5070 C   0  0  0  0  0  0  0  0  0  0  0  0
   60.4440   28.9850   50.7370 O   0  0  0  0  0  0  0  0  0  0  0  0
   60.3490   30.5870   48.9870 C   0  0  0  0  0  0  0  0  0  0  0  0
   61.2900   30.9150   47.9990 C   0  0  0  0  0  0  0  0  0  0  0  0
   61.3710   32.2170   47.5040 C   0  0  0  0  0  0  0  0  0  0  0  0
   60.5060   33.2050   48.0110 C   0  0  0  0  0  0  0  0  0  0  0  0
   60.5230   34.4380   47.5880 N   0  0  0  0  0  0  0  0  0  0  0  0
   59.5580   35.0810   46.6920 C   0  0  0  0  0  0  0  0  0  0  0  0
   58.8330   34.0620   45.8500 C   0  0  0  0  0  0  0  0  0  0  0  0
   57.7870   33.3030   46.3990 C   0  0  0  0  0  0  0  0  0  0  0  0
   57.0890   32.3840   45.6100 C   0  0  0  0  0  0  0  0  0  0  0  0
   57.4210   32.2150   44.2570 C   0  0  0  0  0  0  0  0  0  0  0  0
   56.6750   31.2150   43.4210 C   0  0  0  0  0  0  0  0  0  0  0  0
   56.1020   30.1870   44.2880 N   0  0  0  0  0  0  0  0  0  0  0  0
   56.7450   29.1980   44.8380 C   0  0  0  0  0  0  0  0  0  0  0  0
   58.1470   29.1940   44.9790 C   0  0  0  0  0  0  0  0  0  0  0  0
   58.7740   28.1000   45.5770 C   0  0  0  0  0  0  0  0  0  0  0  0
   58.0160   27.0140   46.0370 C   0  0  0  0  0  0  0  0  0  0  0  0
   58.6650   25.8410   46.6670 C   0  0  0  0  0  0  0  0  0  0  0  0
   59.7820   25.9810   47.2330 O   0  0  0  0  0  0  0  0  0  0  0  0
   58.0340   24.5530   46.6980 N   0  0  0  0  0  0  0  0  0  0  0  0
   57.7300   23.7420   45.5530 C   0  0  0  0  0  0  0  0  0  0  0  0
   56.6040   24.0510   44.7810 C   0  0  0  0  0  0  0  0  0  0  0  0
   56.2720   23.2690   43.6700 C   0  0  0  0  0  0  0  0  0  0  0  0
   57.0570   22.1650   43.3310 C   0  0  0  0  0  0  0  0  0  0  0  0
   58.1730   21.8370   44.1050 C   0  0  0  0  0  0  0  0  0  0  0  0
   58.5070   22.6170   45.2170 C   0  0  0  0  0  0  0  0  0  0  0  0
   56.6260   27.0490   45.8650 C   0  0  0  0  0  0  0  0  0  0  0  0
   56.0350   28.1270   45.2820 N   0  0  0  0  0  0  0  0  0  0  0  0
   58.4620   32.9780   43.7040 C   0  0  0  0  0  0  0  0  0  0  0  0
   59.1550   33.9020   44.4920 C   0  0  0  0  0  0  0  0  0  0  0  0
   59.6130   32.8660   48.9800 N   0  0  0  0  0  0  0  0  0  0  0  0
   59.5140   31.6050   49.4730 C   0  0  0  0  0  0  0  0  0  0  0  0
   59.9990   28.1960   47.6040 H   0  0  0  0  0  0  0  0  0  0  0  0
   59.8750   27.1380   49.0440 H   0  0  0  0  0  0  0  0  0  0  0  0
   61.9684   30.1403   47.6121 H   0  0  0  0  0  0  0  0  0  0  0  0
   62.1046   32.4693   46.7241 H   0  0  0  0  0  0  0  0  0  0  0  0
   58.8240   35.6364   47.2943 H   0  0  0  0  0  0  0  0  0  0  0  0
   60.1043   35.7613   46.0221 H   0  0  0  0  0  0  0  0  0  0  0  0
   57.5150   33.4324   47.4570 H   0  0  0  0  0  0  0  0  0  0  0  0
   56.2753   31.7903   46.0520 H   0  0  0  0  0  0  0  0  0  0  0  0
   55.8684   31.7240   42.8730 H   0  0  0  0  0  0  0  0  0  0  0  0
   57.3662   30.7473   42.7044 H   0  0  0  0  0  0  0  0  0  0  0  0
   58.7426   30.0465   44.6205 H   0  0  0  0  0  0  0  0  0  0  0  0
   59.8683   28.0897   45.6880 H   0  0  0  0  0  0  0  0  0  0  0  0
   55.9767   24.9138   45.0496 H   0  0  0  0  0  0  0  0  0  0  0  0
   55.3912   23.5240   43.0624 H   0  0  0  0  0  0  0  0  0  0  0  0
   56.7967   21.5535   42.4545 H   0  0  0  0  0  0  0  0  0  0  0  0
   58.7891   20.9652   43.8398 H   0  0  0  0  0  0  0  0  0  0  0  0
   59.3798   22.3505   45.8311 H   0  0  0  0  0  0  0  0  0  0  0  0
   56.0104   26.2021   46.2024 H   0  0  0  0  0  0  0  0  0  0  0  0
   58.7336   32.8482   42.6460 H   0  0  0  0  0  0  0  0  0  0  0  0
   59.9575   34.5076   44.0457 H   0  0  0  0  0  0  0  0  0  0  0  0
   58.7759   31.3801   50.2570 H   0  0  0  0  0  0  0  0  0  0  0  0
  1  2  1  0
  2  3  2  0
  2  4  1  0
  4  5  1  0
  5  6  2  0
  6  7  1  0
  7  8  2  3
  8  9  1  0
  9 10  1  0
 10 11  2  0
 11 12  1  0
 12 13  2  0
 13 14  1  0
 14 15  1  0
 15 16  2  3
 16 17  1  0
 17 18  2  0
 18 19  1  0
 19 20  1  0
 20 21  2  0
 20 22  1  0
 22 23  1  0
 23 24  2  0
 24 25  1  0
 25 26  2  0
 26 27  1  0
 27 28  2  0
 19 29  2  0
 29 30  1  0
 13 31  1  0
 31 32  2  0
  7 33  1  0
 33 34  1  0
 34  4  2  0
 32 10  1  0
 30 16  1  0
 28 23  1  0
  1 35  1  0
  1 36  1  0
  5 37  1  0
  6 38  1  0
  9 39  1  0
  9 40  1  0
 11 41  1  0
 12 42  1  0
 14 43  1  0
 14 44  1  0
 17 45  1  0
 18 46  1  0
 24 47  1  0
 25 48  1  0
 26 49  1  0
 27 50  1  0
 28 51  1  0
 29 52  1  0
 31 53  1  0
 32 54  1  0
 34 55  1  0
M  CHG  3  22  -1  30  -1  33  -1
M  END
>  <UniqueID>  (44) 
40

>  <SMILES>  (44) 
NC(=O)c1ccc(=NCc2ccc(CN=c3ccc(C(=O)[N-]c4ccccc4)c[n-]3)cc2)[n-]c1

>  <Energy>  (44) 
71.97074042702337

>  <Genealogy>  (44) 
NC(=O)c1ccc(=NCc2ccc(CN=c3ccc(C(=O)[N-]c4ccccc4)c[n-]3)cc2)[n-]c1 (protonated)
NC(=O)c1ccc(=NCc2ccc(CN=c3ccc(C(=O)[N-]c4ccccc4)c[n-]3)cc2)[n-]c1 (3D coordinates assigned)
NC(=O)c1ccc(=NCc2ccc(CN=c3ccc(C(=O)[N-]c4ccccc4)c[n-]3)cc2)[n-]c1 (optimized conformer: 71.97074042702337 kcal/mol)

>  <smiles>  (44) 
NC(=O)c1ccc(=NCc2ccc(CN=c3ccc(C(=O)Nc4ccccc4)c[nH]3)cc2)[nH]c1

>  <score_type>  (44) 
oracle

>  <origin>  (44) 
adg

>  <m_score__min__energy>  (44) 
-13.44

>  <m_primary>  (44) 
energy

$$$$
44:0
     RDKit          3D

 55 58  0  0  0  0  0  0  0  0999 V2000
   59.8850   28.8790   49.2090 C   0  0  0  0  0  0  0  0  0  0  0  0
   59.8790   29.4250   50.6340 C   0  0  0  0  0  0  0  0  0  0  0  0
   60.2710   30.8440   50.6460 N   0  0  0  0  0  0  0  0  0  0  0  0
   61.6990   31.1840   50.7610 C   0  0  0  0  0  0  0  0  0  0  0  0
   62.1850   31.8950   49.5240 C   0  0  0  0  0  0  0  0  0  0  0  0
   62.7620   33.1730   49.6200 C   0  0  0  0  0  0  0  0  0  0  0  0
   63.2190   33.8310   48.4750 C   0  0  0  0  0  0  0  0  0  0  0  0
   63.1260   33.2070   47.2260 C   0  0  0  0  0  0  0  0  0  0  0  0
   63.6070   33.8320   46.1210 F   0  0  0  0  0  0  0  0  0  0  0  0
   62.5610   31.9340   47.1200 C   0  0  0  0  0  0  0  0  0  0  0  0
   62.0810   31.2830   48.2640 C   0  0  0  0  0  0  0  0  0  0  0  0
   59.2380   31.8610   50.6580 C   0  0  0  0  0  0  0  0  0  0  0  0
   58.2130   31.7050   51.3810 O   0  0  0  0  0  0  0  0  0  0  0  0
   59.3180   33.0970   49.8030 C   0  0  0  0  0  0  0  0  0  0  0  0
   59.0830   32.7810   48.3890 N   0  0  0  0  0  0  0  0  0  0  0  0
   58.6050   31.6070   47.9090 C   0  0  0  0  0  0  0  0  0  0  0  0
   58.4300   31.6770   46.5310 C   0  0  0  0  0  0  0  0  0  0  0  0
   57.9240   30.5840   45.6770 C   0  0  0  0  0  0  0  0  0  0  0  0
   56.8940   30.7770   44.9730 O   0  0  0  0  0  0  0  0  0  0  0  0
   58.6350   29.3440   45.5880 N   0  0  0  0  0  0  0  0  0  0  0  0
   58.1070   28.0280   45.7980 C   0  0  0  0  0  0  0  0  0  0  0  0
   58.9370   26.8940   45.8990 C   0  0  0  0  0  0  0  0  0  0  0  0
   58.3740   25.6220   46.0550 C   0  0  0  0  0  0  0  0  0  0  0  0
   56.9870   25.4680   46.0930 C   0  0  0  0  0  0  0  0  0  0  0  0
   56.1560   26.5860   45.9680 C   0  0  0  0  0  0  0  0  0  0  0  0
   54.7740   26.4300   45.9890 O   0  0  0  0  0  0  0  0  0  0  0  0
   56.7160   27.8600   45.8150 C   0  0  0  0  0  0  0  0  0  0  0  0
   58.8090   32.9640   46.1680 C   0  0  0  0  0  0  0  0  0  0  0  0
   58.8570   33.6070   44.9270 C   0  0  0  0  0  0  0  0  0  0  0  0
   59.2930   34.9430   44.8890 C   0  0  0  0  0  0  0  0  0  0  0  0
   59.6670   35.6070   46.0750 C   0  0  0  0  0  0  0  0  0  0  0  0
   59.6180   34.9420   47.3110 C   0  0  0  0  0  0  0  0  0  0  0  0
   59.1870   33.6070   47.3260 C   0  0  0  0  0  0  0  0  0  0  0  0
   59.8971   27.7794   49.2377 H   0  0  0  0  0  0  0  0  0  0  0  0
   58.9830   29.2221   48.6811 H   0  0  0  0  0  0  0  0  0  0  0  0
   60.7792   29.2419   48.6811 H   0  0  0  0  0  0  0  0  0  0  0  0
   58.8677   29.3256   51.0551 H   0  0  0  0  0  0  0  0  0  0  0  0
   60.5996   28.8526   51.2365 H   0  0  0  0  0  0  0  0  0  0  0  0
   61.8440   31.8388   51.6329 H   0  0  0  0  0  0  0  0  0  0  0  0
   62.2730   30.2531   50.8792 H   0  0  0  0  0  0  0  0  0  0  0  0
   62.8545   33.6584   50.6028 H   0  0  0  0  0  0  0  0  0  0  0  0
   63.6517   34.8391   48.5555 H   0  0  0  0  0  0  0  0  0  0  0  0
   62.4929   31.4426   46.1382 H   0  0  0  0  0  0  0  0  0  0  0  0
   61.6206   30.2880   48.1750 H   0  0  0  0  0  0  0  0  0  0  0  0
   58.5578   33.8167   50.1409 H   0  0  0  0  0  0  0  0  0  0  0  0
   60.3272   33.5236   49.9013 H   0  0  0  0  0  0  0  0  0  0  0  0
   58.3859   30.7217   48.5240 H   0  0  0  0  0  0  0  0  0  0  0  0
   60.0301   27.0085   45.8551 H   0  0  0  0  0  0  0  0  0  0  0  0
   59.0263   24.7412   46.1479 H   0  0  0  0  0  0  0  0  0  0  0  0
   56.5478   24.4677   46.2212 H   0  0  0  0  0  0  0  0  0  0  0  0
   56.0591   28.7357   45.7073 H   0  0  0  0  0  0  0  0  0  0  0  0
   58.5619   33.0821   44.0064 H   0  0  0  0  0  0  0  0  0  0  0  0
   59.3427   35.4740   43.9270 H   0  0  0  0  0  0  0  0  0  0  0  0
   59.9999   36.6545   46.0320 H   0  0  0  0  0  0  0  0  0  0  0  0
   59.9092   35.4531   48.2405 H   0  0  0  0  0  0  0  0  0  0  0  0
  1  2  1  0
  2  3  1  0
  3  4  1  0
  4  5  1  0
  5  6  2  0
  6  7  1  0
  7  8  2  0
  8  9  1  0
  8 10  1  0
 10 11  2  0
  3 12  1  0
 12 13  2  0
 12 14  1  0
 14 15  1  0
 15 16  1  0
 16 17  2  0
 17 18  1  0
 18 19  2  0
 18 20  1  0
 20 21  1  0
 21 22  2  0
 22 23  1  0
 23 24  2  0
 24 25  1  0
 25 26  1  0
 25 27  2  0
 17 28  1  0
 28 29  2  0
 29 30  1  0
 30 31  2  0
 31 32  1  0
 32 33  2  0
 11  5  1  0
 33 15  1  0
 27 21  1  0
 33 28  1  0
  1 34  1  0
  1 35  1  0
  1 36  1  0
  2 37  1  0
  2 38  1  0
  4 39  1  0
  4 40  1  0
  6 41  1  0
  7 42  1  0
 10 43  1  0
 11 44  1  0
 14 45  1  0
 14 46  1  0
 16 47  1  0
 22 48  1  0
 23 49  1  0
 24 50  1  0
 27 51  1  0
 29 52  1  0
 30 53  1  0
 31 54  1  0
 32 55  1  0
M  CHG  2  20  -1  26  -1
M  END
>  <UniqueID>  (45) 
41

>  <SMILES>  (45) 
CCN(Cc1ccc(F)cc1)C(=O)Cn1cc(C(=O)[N-]c2cccc([O-])c2)c2ccccc21

>  <Energy>  (45) 
93.05957318120501

>  <Genealogy>  (45) 
CCN(Cc1ccc(F)cc1)C(=O)Cn1cc(C(=O)[N-]c2cccc([O-])c2)c2ccccc21 (protonated)
CCN(Cc1ccc(F)cc1)C(=O)Cn1cc(C(=O)[N-]c2cccc([O-])c2)c2ccccc21 (3D coordinates assigned)
CCN(Cc1ccc(F)cc1)C(=O)Cn1cc(C(=O)[N-]c2cccc([O-])c2)c2ccccc21 (optimized conformer: 93.05957318120501 kcal/mol)

>  <smiles>  (45) 
CCN(Cc1ccc(F)cc1)C(=O)Cn1cc(C(=O)Nc2cccc(O)c2)c2ccccc21

>  <score_type>  (45) 
oracle

>  <origin>  (45) 
adg

>  <m_score__min__energy>  (45) 
-13.869999999999999

>  <m_primary>  (45) 
energy

$$$$
45:0
     RDKit          3D

 58 60  0  0  1  0  0  0  0  0999 V2000
   54.5550   23.9670   45.7600 C   0  0  0  0  0  0  0  0  0  0  0  0
   54.8260   23.0300   44.8690 C   0  0  0  0  0  0  0  0  0  0  0  0
   54.9670   23.3380   43.4210 C   0  0  0  0  0  0  0  0  0  0  0  0
   55.9790   22.5320   42.7920 N   0  0  0  0  0  0  0  0  0  0  0  0
   56.7050   21.6830   43.4620 C   0  0  0  0  0  0  0  0  0  0  0  0
   56.2020   20.4090   43.6920 O   0  0  0  0  0  0  0  0  0  0  0  0
   58.0420   21.9970   43.9950 C   0  0  0  0  0  0  0  0  0  0  0  0
   58.0340   23.3760   44.6040 C   0  0  0  0  0  0  0  0  0  0  0  0
   58.4350   23.4510   45.7810 O   0  0  0  0  0  0  0  0  0  0  0  0
   57.5910   24.4830   43.8460 N   0  0  0  0  0  0  0  0  0  0  0  0
   57.5300   25.8200   44.2860 C   0  0  0  0  0  0  0  0  0  0  0  0
   57.1480   26.2330   45.5350 C   0  0  0  0  0  0  0  0  0  0  0  0
   57.1130   27.5790   45.9090 C   0  0  0  0  0  0  0  0  0  0  0  0
   57.4720   28.5600   45.0060 C   0  0  0  0  0  0  0  0  0  0  0  0
   57.4570   29.9480   45.3300 N   0  0  0  0  0  0  0  0  0  0  0  0
   58.1400   30.4480   46.2840 C   0  0  0  0  0  0  0  0  0  0  0  0
   58.4480   31.6750   46.6390 N   0  0  0  0  0  0  0  0  0  0  0  0
   59.1800   31.9190   47.6830 C   0  0  0  0  0  0  0  0  0  0  0  0
   59.5460   33.3420   48.0920 C   0  0  2  0  0  0  0  0  0  0  0  0
   58.7830   34.3600   47.2970 C   0  0  0  0  0  0  0  0  0  0  0  0
   61.0330   33.5060   47.9950 C   0  0  0  0  0  0  0  0  0  0  0  0
   61.7240   33.6140   49.1850 C   0  0  0  0  0  0  0  0  0  0  0  0
   61.0860   33.5730   50.3760 F   0  0  0  0  0  0  0  0  0  0  0  0
   63.0940   33.7660   49.1530 C   0  0  0  0  0  0  0  0  0  0  0  0
   63.7840   33.8110   47.9530 C   0  0  0  0  0  0  0  0  0  0  0  0
   63.0760   33.7020   46.7590 C   0  0  0  0  0  0  0  0  0  0  0  0
   61.6970   33.5490   46.7870 C   0  0  0  0  0  0  0  0  0  0  0  0
   61.0330   33.4440   45.6290 F   0  0  0  0  0  0  0  0  0  0  0  0
   59.6470   30.8630   48.4420 C   0  0  0  0  0  0  0  0  0  0  0  0
   60.4380   30.7350   49.6090 C   0  0  0  0  0  0  0  0  0  0  0  0
   59.8320   30.9240   50.9080 N   0  0  0  0  0  0  0  0  0  0  0  0
   61.6480   30.4640   49.6110 O   0  0  0  0  0  0  0  0  0  0  0  0
   58.9600   29.3610   47.5530 S   0  0  0  0  0  0  0  0  0  0  0  0
   57.8550   28.1330   43.7510 C   0  0  0  0  0  0  0  0  0  0  0  0
   57.8880   26.8050   43.3870 C   0  0  0  0  0  0  0  0  0  0  0  0
   58.2820   26.4990   42.1210 F   0  0  0  0  0  0  0  0  0  0  0  0
   54.4576   23.7031   46.8234 H   0  0  0  0  0  0  0  0  0  0  0  0
   54.4267   25.0111   45.4385 H   0  0  0  0  0  0  0  0  0  0  0  0
   54.9511   21.9911   45.2083 H   0  0  0  0  0  0  0  0  0  0  0  0
   54.0042   23.1505   42.9232 H   0  0  0  0  0  0  0  0  0  0  0  0
   55.2667   24.3922   43.3267 H   0  0  0  0  0  0  0  0  0  0  0  0
   56.8040   19.5970   43.7520 H   0  0  0  0  0  0  0  0  0  0  0  0
   58.3117   21.2588   44.7646 H   0  0  0  0  0  0  0  0  0  0  0  0
   58.7776   21.9634   43.1778 H   0  0  0  0  0  0  0  0  0  0  0  0
   57.2800   24.2580   42.8570 H   0  0  0  0  0  0  0  0  0  0  0  0
   56.8565   25.4730   46.2749 H   0  0  0  0  0  0  0  0  0  0  0  0
   56.7986   27.8578   46.9256 H   0  0  0  0  0  0  0  0  0  0  0  0
   58.0660   32.4950   46.0230 H   0  0  0  0  0  0  0  0  0  0  0  0
   59.2513   33.5177   49.1371 H   0  0  0  0  0  0  0  0  0  0  0  0
   58.2669   35.0486   47.9822 H   0  0  0  0  0  0  0  0  0  0  0  0
   59.4800   34.9276   46.6629 H   0  0  0  0  0  0  0  0  0  0  0  0
   58.0426   33.8503   46.6629 H   0  0  0  0  0  0  0  0  0  0  0  0
   63.6495   33.8532   50.0984 H   0  0  0  0  0  0  0  0  0  0  0  0
   64.8774   33.9313   47.9433 H   0  0  0  0  0  0  0  0  0  0  0  0
   63.6079   33.7370   45.7968 H   0  0  0  0  0  0  0  0  0  0  0  0
   59.8550   30.1240   51.5950 H   0  0  0  0  0  0  0  0  0  0  0  0
   59.3800   31.8240   51.1780 H   0  0  0  0  0  0  0  0  0  0  0  0
   58.1475   28.8882   43.0067 H   0  0  0  0  0  0  0  0  0  0  0  0
  1  2  2  0
  2  3  1  0
  3  4  1  0
  4  5  2  0
  5  6  1  0
  5  7  1  0
  7  8  1  0
  8  9  2  0
  8 10  1  0
 10 11  1  0
 11 12  2  0
 12 13  1  0
 13 14  2  0
 14 15  1  0
 15 16  2  0
 16 17  1  0
 17 18  1  0
 18 19  1  0
 19 20  1  0
 19 21  1  0
 21 22  2  0
 22 23  1  0
 22 24  1  0
 24 25  2  0
 25 26  1  0
 26 27  2  0
 27 28  1  0
 18 29  2  0
 29 30  1  0
 30 31  1  0
 30 32  2  0
 29 33  1  0
 14 34  1  0
 34 35  2  0
 35 36  1  0
 35 11  1  0
 33 16  1  0
 27 21  1  0
  1 37  1  0
  1 38  1  0
  2 39  1  0
  3 40  1  0
  3 41  1  0
  6 42  1  0
  7 43  1  0
  7 44  1  0
 10 45  1  0
 12 46  1  0
 13 47  1  0
 17 48  1  0
 19 49  1  1
 20 50  1  0
 20 51  1  0
 20 52  1  0
 24 53  1  0
 25 54  1  0
 26 55  1  0
 31 56  1  0
 31 57  1  0
 34 58  1  0
M  END
>  <smiles>  (46) 
C=CCN=C(O)CC(=O)Nc1ccc(N=c2[nH]c(C(C)c3c(F)cccc3F)c(C(N)=O)s2)cc1F

>  <score_type>  (46) 
oracle

>  <origin>  (46) 
adg

>  <m_score__min__energy>  (46) 
-9.0099999999999998

>  <m_primary>  (46) 
energy

$$$$
46:0
     RDKit          3D

 44 47  0  0  0  0  0  0  0  0999 V2000
   58.9280   33.4330   51.5940 H   0  0  0  0  0  0  0  0  0  0  0  0
   57.9360   33.1220   51.6880 N   0  0  0  0  0  0  0  0  0  0  0  0
   57.6150   31.8680   51.6830 C   0  0  0  0  0  0  0  0  0  0  0  0
   58.4410   30.7890   51.5150 C   0  0  0  0  0  0  0  0  0  0  0  0
   59.7320   30.8230   51.3540 N   0  0  0  0  0  0  0  0  0  0  0  0
   60.4130   31.2840   50.1780 C   0  0  0  0  0  0  0  0  0  0  0  0
   61.6540   31.4930   50.2450 O   0  0  0  0  0  0  0  0  0  0  0  0
   59.7010   31.5710   48.9100 C   0  0  0  0  0  0  0  0  0  0  0  0
   58.8840   30.5920   48.3260 C   0  0  0  0  0  0  0  0  0  0  0  0
   58.7688   29.6147   48.8175 H   0  0  0  0  0  0  0  0  0  0  0  0
   58.2150   30.8460   47.1260 C   0  0  0  0  0  0  0  0  0  0  0  0
   57.5697   30.0711   46.6864 H   0  0  0  0  0  0  0  0  0  0  0  0
   58.3600   32.0840   46.4760 C   0  0  0  0  0  0  0  0  0  0  0  0
   57.6830   32.3560   45.2670 C   0  0  0  0  0  0  0  0  0  0  0  0
   56.8510   31.3660   44.7110 O   0  0  0  0  0  0  0  0  0  0  0  0
   57.2580   30.3710   43.7720 C   0  0  0  0  0  0  0  0  0  0  0  0
   56.4253   30.1617   43.0844 H   0  0  0  0  0  0  0  0  0  0  0  0
   58.1288   30.7467   43.2148 H   0  0  0  0  0  0  0  0  0  0  0  0
   57.6480   29.0980   44.4780 C   0  0  0  0  0  0  0  0  0  0  0  0
   58.9990   28.7420   44.6090 C   0  0  0  0  0  0  0  0  0  0  0  0
   59.7806   29.3925   44.1895 H   0  0  0  0  0  0  0  0  0  0  0  0
   59.3540   27.5650   45.2700 C   0  0  0  0  0  0  0  0  0  0  0  0
   60.4145   27.2883   45.3637 H   0  0  0  0  0  0  0  0  0  0  0  0
   58.3690   26.7370   45.8130 C   0  0  0  0  0  0  0  0  0  0  0  0
   58.6573   25.8095   46.3293 H   0  0  0  0  0  0  0  0  0  0  0  0
   57.0110   27.0830   45.7030 C   0  0  0  0  0  0  0  0  0  0  0  0
   55.9690   26.2070   46.2830 C   0  0  0  0  0  0  0  0  0  0  0  0
   54.7600   26.3460   45.9560 O   0  0  0  0  0  0  0  0  0  0  0  0
   56.3100   25.2150   47.1950 O   0  0  0  0  0  0  0  0  0  0  0  0
   56.6600   28.2720   45.0370 C   0  0  0  0  0  0  0  0  0  0  0  0
   55.6009   28.5570   44.9536 H   0  0  0  0  0  0  0  0  0  0  0  0
   57.8620   33.6080   44.6480 C   0  0  0  0  0  0  0  0  0  0  0  0
   57.3437   33.8269   43.7028 H   0  0  0  0  0  0  0  0  0  0  0  0
   58.6900   34.5740   45.2210 C   0  0  0  0  0  0  0  0  0  0  0  0
   58.8176   35.5484   44.7267 H   0  0  0  0  0  0  0  0  0  0  0  0
   59.3570   34.3100   46.4180 C   0  0  0  0  0  0  0  0  0  0  0  0
   60.0090   35.0759   46.8634 H   0  0  0  0  0  0  0  0  0  0  0  0
   59.1980   33.0710   47.0540 C   0  0  0  0  0  0  0  0  0  0  0  0
   59.8660   32.8050   48.2580 C   0  0  0  0  0  0  0  0  0  0  0  0
   60.5250   33.5691   48.6960 H   0  0  0  0  0  0  0  0  0  0  0  0
   57.6890   29.6720   51.5970 N   0  0  0  0  0  0  0  0  0  0  0  0
   56.4680   30.0950   51.7950 O   0  0  0  0  0  0  0  0  0  0  0  0
   56.3730   31.3950   51.8540 N   0  0  0  0  0  0  0  0  0  0  0  0
   55.4940   31.9370   52.0080 H   0  0  0  0  0  0  0  0  0  0  0  0
  1  2  1  0
  2  3  2  0
  3  4  1  0
  4  5  2  0
  5  6  1  0
  6  7  2  0
  6  8  1  0
  8  9  2  0
  9 10  1  0
  9 11  1  0
 11 12  1  0
 11 13  2  0
 13 14  1  0
 14 15  1  0
 15 16  1  0
 16 17  1  0
 16 18  1  0
 16 19  1  0
 19 20  2  0
 20 21  1  0
 20 22  1  0
 22 23  1  0
 22 24  2  0
 24 25  1  0
 24 26  1  0
 26 27  1  0
 27 28  2  0
 27 29  1  0
 26 30  2  0
 30 31  1  0
 14 32  2  0
 32 33  1  0
 32 34  1  0
 34 35  1  0
 34 36  2  0
 36 37  1  0
 36 38  1  0
 38 39  2  0
 39 40  1  0
  4 41  1  0
 41 42  1  0
 42 43  1  0
 43 44  1  0
 43  3  1  0
 39  8  1  0
 38 13  1  0
 30 19  1  0
M  CHG  2  29  -1  41  -1
M  END
>  <UniqueID>  (47) 
42

>  <SMILES>  (47) 
N=c1[nH]o[n-]/c1=N\C(=O)c1ccc2c(OCc3cccc(C(=O)[O-])c3)cccc2c1

>  <Energy>  (47) 
99.74546417696392

>  <Genealogy>  (47) 
N=c1[nH]o[n-]c1=NC(=O)c1ccc2c(OCc3cccc(C(=O)[O-])c3)cccc2c1 (protonated)
N=c1[nH]o[n-]/c1=N\C(=O)c1ccc2c(OCc3cccc(C(=O)[O-])c3)cccc2c1 (cis-trans isomerization)
N=c1[nH]o[n-]/c1=N\C(=O)c1ccc2c(OCc3cccc(C(=O)[O-])c3)cccc2c1 (3D coordinates assigned)
N=c1[nH]o[n-]/c1=N\C(=O)c1ccc2c(OCc3cccc(C(=O)[O-])c3)cccc2c1 (optimized conformer: 99.74546417696392 kcal/mol)

>  <smiles>  (47) 
N=c1[nH]o[nH]c1=NC(=O)c1ccc2c(OCc3cccc(C(=O)O)c3)cccc2c1

>  <score_type>  (47) 
oracle

>  <origin>  (47) 
adg

>  <m_score__min__energy>  (47) 
-13.18

>  <m_primary>  (47) 
energy

$$$$
47:0
     RDKit          3D

 57 61  0  0  0  0  0  0  0  0999 V2000
   58.4750   19.7270   45.6030 H   0  0  0  0  0  0  0  0  0  0  0  0
   57.8420   20.3630   46.0730 O   0  0  0  0  0  0  0  0  0  0  0  0
   57.4900   21.5950   45.5220 C   0  0  0  0  0  0  0  0  0  0  0  0
   57.3730   21.7080   44.1330 C   0  0  0  0  0  0  0  0  0  0  0  0
   57.5539   20.8307   43.4946 H   0  0  0  0  0  0  0  0  0  0  0  0
   57.0270   22.9320   43.5530 C   0  0  0  0  0  0  0  0  0  0  0  0
   56.9431   23.0166   42.4595 H   0  0  0  0  0  0  0  0  0  0  0  0
   56.7880   24.0460   44.3570 C   0  0  0  0  0  0  0  0  0  0  0  0
   56.5205   25.0074   43.8942 H   0  0  0  0  0  0  0  0  0  0  0  0
   56.8870   23.9470   45.7550 C   0  0  0  0  0  0  0  0  0  0  0  0
   56.6730   25.1760   46.6030 C   0  0  0  0  0  0  0  0  0  0  0  0
   57.6102   25.7495   46.6557 H   0  0  0  0  0  0  0  0  0  0  0  0
   56.3658   24.8675   47.6132 H   0  0  0  0  0  0  0  0  0  0  0  0
   55.6010   26.0330   46.0050 C   0  0  0  0  0  0  0  0  0  0  0  0
   54.4230   25.5900   45.9480 O   0  0  0  0  0  0  0  0  0  0  0  0
   55.9220   27.3810   45.6190 N   0  0  0  0  0  0  0  0  0  0  0  0
   57.0800   27.9580   45.4490 C   0  0  0  0  0  0  0  0  0  0  0  0
   57.9430   27.3940   44.5620 N   0  0  0  0  0  0  0  0  0  0  0  0
   59.1660   27.9190   44.2980 C   0  0  0  0  0  0  0  0  0  0  0  0
   59.8316   27.4241   43.5755 H   0  0  0  0  0  0  0  0  0  0  0  0
   59.5800   29.0830   44.9400 C   0  0  0  0  0  0  0  0  0  0  0  0
   60.5715   29.5091   44.7270 H   0  0  0  0  0  0  0  0  0  0  0  0
   58.7270   29.7090   45.8590 C   0  0  0  0  0  0  0  0  0  0  0  0
   59.1520   30.9420   46.5600 C   0  0  0  0  0  0  0  0  0  0  0  0
   59.5850   31.0470   48.1850 S   0  0  0  0  0  0  0  0  0  0  0  0
   59.9220   32.6970   48.1080 C   0  0  0  0  0  0  0  0  0  0  0  0
   60.4330   33.5550   49.2510 C   0  0  2  0  0  0  0  0  0  0  0  0
   60.2640   34.9240   48.9520 O   0  0  0  0  0  0  0  0  0  0  0  0
   59.9210   35.0040   48.0240 H   0  0  0  0  0  0  0  0  0  0  0  0
   61.9190   33.2750   49.5090 C   0  0  0  0  0  0  0  0  0  0  0  0
   62.8190   33.2600   48.4280 C   0  0  0  0  0  0  0  0  0  0  0  0
   62.4383   33.3898   47.4042 H   0  0  0  0  0  0  0  0  0  0  0  0
   64.1870   33.0830   48.6350 C   0  0  0  0  0  0  0  0  0  0  0  0
   64.8721   33.0711   47.7745 H   0  0  0  0  0  0  0  0  0  0  0  0
   64.6960   32.9200   49.9320 C   0  0  0  0  0  0  0  0  0  0  0  0
   66.1470   32.7260   50.1540 C   0  0  0  0  0  0  0  0  0  0  0  0
   66.9380   33.7100   50.1330 O   0  0  0  0  0  0  0  0  0  0  0  0
   66.6610   31.4560   50.3870 O   0  0  0  0  0  0  0  0  0  0  0  0
   63.8090   32.9500   51.0200 C   0  0  0  0  0  0  0  0  0  0  0  0
   64.1977   32.8123   52.0398 H   0  0  0  0  0  0  0  0  0  0  0  0
   62.4340   33.1530   50.8260 C   0  0  0  0  0  0  0  0  0  0  0  0
   61.5300   33.1450   52.0350 C   0  0  0  0  0  0  0  0  0  0  0  0
   62.0328   33.6773   52.8559 H   0  0  0  0  0  0  0  0  0  0  0  0
   61.3305   32.0958   52.2984 H   0  0  0  0  0  0  0  0  0  0  0  0
   60.1870   33.8210   51.7610 C   0  0  0  0  0  0  0  0  0  0  0  0
   60.3419   34.9021   51.6297 H   0  0  0  0  0  0  0  0  0  0  0  0
   59.5107   33.6452   52.6105 H   0  0  0  0  0  0  0  0  0  0  0  0
   59.5670   33.2390   50.4920 C   0  0  0  0  0  0  0  0  0  0  0  0
   58.5658   33.6721   50.3506 H   0  0  0  0  0  0  0  0  0  0  0  0
   59.5047   32.1465   50.6042 H   0  0  0  0  0  0  0  0  0  0  0  0
   59.7110   33.1750   46.8600 N   0  0  0  0  0  0  0  0  0  0  0  0
   59.2880   32.2120   46.0000 C   0  0  0  0  0  0  0  0  0  0  0  0
   59.0693   32.4184   44.9419 H   0  0  0  0  0  0  0  0  0  0  0  0
   57.4650   29.1450   46.1110 C   0  0  0  0  0  0  0  0  0  0  0  0
   56.7782   29.6268   46.8224 H   0  0  0  0  0  0  0  0  0  0  0  0
   57.2530   22.7160   46.3370 C   0  0  0  0  0  0  0  0  0  0  0  0
   57.3810   22.6070   47.7190 O   0  0  0  0  0  0  0  0  0  0  0  0
  1  2  1  0
  2  3  1  0
  3  4  2  0
  4  5  1  0
  4  6  1  0
  6  7  1  0
  6  8  2  0
  8  9  1  0
  8 10  1  0
 10 11  1  0
 11 12  1  0
 11 13  1  0
 11 14  1  0
 14 15  2  0
 14 16  1  0
 16 17  2  0
 17 18  1  0
 18 19  1  0
 19 20  1  0
 19 21  2  0
 21 22  1  0
 21 23  1  0
 23 24  1  0
 24 25  1  0
 25 26  1  0
 26 27  1  0
 27 28  1  6
 28 29  1  0
 27 30  1  0
 30 31  2  0
 31 32  1  0
 31 33  1  0
 33 34  1  0
 33 35  2  0
 35 36  1  0
 36 37  2  0
 36 38  1  0
 35 39  1  0
 39 40  1  0
 39 41  2  0
 41 42  1  0
 42 43  1  0
 42 44  1  0
 42 45  1  0
 45 46  1  0
 45 47  1  0
 45 48  1  0
 48 49  1  0
 48 50  1  0
 26 51  2  0
 51 52  1  0
 52 53  1  0
 23 54  2  0
 54 55  1  0
 10 56  2  0
 56 57  1  0
 56  3  1  0
 54 17  1  0
 52 24  2  0
 48 27  1  0
 41 30  1  0
M  CHG  3  18  -1  38  -1  57  -1
M  END
>  <UniqueID>  (48) 
43

>  <SMILES>  (48) 
O=C(Cc1cccc(O)c1[O-])/N=c1\cc(-c2cnc([C@@]3(O)CCCc4cc(C(=O)[O-])ccc43)s2)cc[n-]1

>  <Energy>  (48) 
107.23851088792622

>  <Genealogy>  (48) 
O=C(Cc1cccc(O)c1[O-])N=c1cc(-c2cnc(C3(O)CCCc4cc(C(=O)[O-])ccc43)s2)cc[n-]1 (protonated)
O=C(Cc1cccc(O)c1[O-])N=c1cc(-c2cnc([C@@]3(O)CCCc4cc(C(=O)[O-])ccc43)s2)cc[n-]1 (chirality)
O=C(Cc1cccc(O)c1[O-])/N=c1\cc(-c2cnc([C@@]3(O)CCCc4cc(C(=O)[O-])ccc43)s2)cc[n-]1 (cis-trans isomerization)
O=C(Cc1cccc(O)c1[O-])/N=c1\cc(-c2cnc([C@@]3(O)CCCc4cc(C(=O)[O-])ccc43)s2)cc[n-]1 (3D coordinates assigned)
O=C(Cc1cccc(O)c1[O-])/N=c1\cc(-c2cnc([C@@]3(O)CCCc4cc(C(=O)[O-])ccc43)s2)cc[n-]1 (nonaromatic ring conformer: 107.23851088792622 kcal/mol)

>  <smiles>  (48) 
O=C(Cc1cccc(O)c1O)N=c1cc(-c2cnc(C3(O)CCCc4cc(C(=O)O)ccc43)s2)cc[nH]1

>  <score_type>  (48) 
oracle

>  <origin>  (48) 
adg

>  <m_score__min__energy>  (48) 
-15.869999999999999

>  <m_primary>  (48) 
energy

$$$$
48:0
     RDKit          3D

 49 52  0  0  0  0  0  0  0  0999 V2000
   56.0505   30.2629   44.7567 H   0  0  0  0  0  0  0  0  0  0  0  0
   56.2990   29.1920   44.7200 C   0  0  0  0  0  0  0  0  0  0  0  0
   55.4952   28.4416   44.6915 H   0  0  0  0  0  0  0  0  0  0  0  0
   57.5860   28.8000   44.7100 C   0  0  0  0  0  0  0  0  0  0  0  0
   58.0460   27.4730   44.6650 C   0  0  0  0  0  0  0  0  0  0  0  0
   57.3960   26.3180   44.4190 C   0  0  0  0  0  0  0  0  0  0  0  0
   57.2664   26.0290   43.3656 H   0  0  0  0  0  0  0  0  0  0  0  0
   56.8440   25.4090   45.4390 C   0  0  0  0  0  0  0  0  0  0  0  0
   57.4980   24.3480   45.9550 N   0  0  0  0  0  0  0  0  0  0  0  0
   56.7100   23.9630   46.9810 C   0  0  0  0  0  0  0  0  0  0  0  0
   56.9910   22.9810   47.7200 O   0  0  0  0  0  0  0  0  0  0  0  0
   55.6120   24.7270   47.1670 N   0  0  0  0  0  0  0  0  0  0  0  0
   55.7190   25.6420   46.1900 C   0  0  0  0  0  0  0  0  0  0  0  0
   54.8070   26.6740   45.9850 O   0  0  0  0  0  0  0  0  0  0  0  0
   59.4060   27.5210   44.9070 C   0  0  0  0  0  0  0  0  0  0  0  0
   60.0857   26.6616   45.0042 H   0  0  0  0  0  0  0  0  0  0  0  0
   59.7460   28.8520   45.0030 C   0  0  0  0  0  0  0  0  0  0  0  0
   61.1430   29.3400   45.2500 C   0  0  0  0  0  0  0  0  0  0  0  0
   61.3232   29.4030   46.3333 H   0  0  0  0  0  0  0  0  0  0  0  0
   61.8612   28.6395   44.7989 H   0  0  0  0  0  0  0  0  0  0  0  0
   61.2688   30.3353   44.7989 H   0  0  0  0  0  0  0  0  0  0  0  0
   58.6460   29.6390   44.8980 N   0  0  0  0  0  0  0  0  0  0  0  0
   58.6480   31.1110   45.0060 C   0  0  0  0  0  0  0  0  0  0  0  0
   59.5270   31.5086   44.4775 H   0  0  0  0  0  0  0  0  0  0  0  0
   57.7200   31.4950   44.5573 H   0  0  0  0  0  0  0  0  0  0  0  0
   58.7000   31.5520   46.4520 C   0  0  0  0  0  0  0  0  0  0  0  0
   58.9030   30.5990   47.4690 C   0  0  0  0  0  0  0  0  0  0  0  0
   59.0613   29.5433   47.2034 H   0  0  0  0  0  0  0  0  0  0  0  0
   58.9050   30.9830   48.8120 C   0  0  0  0  0  0  0  0  0  0  0  0
   59.0641   30.2280   49.5960 H   0  0  0  0  0  0  0  0  0  0  0  0
   58.7050   32.3280   49.1680 C   0  0  0  0  0  0  0  0  0  0  0  0
   58.6710   32.7170   50.5550 N   0  0  0  0  0  0  0  0  0  0  0  0
   57.6130   32.1520   51.4130 C   0  0  0  0  0  0  0  0  0  0  0  0
   56.6382   32.5069   51.0472 H   0  0  0  0  0  0  0  0  0  0  0  0
   57.6971   31.0565   51.3608 H   0  0  0  0  0  0  0  0  0  0  0  0
   57.7580   32.5540   52.8880 C   0  0  0  0  0  0  0  0  0  0  0  0
   56.7777   32.4677   53.3795 H   0  0  0  0  0  0  0  0  0  0  0  0
   58.4930   31.8831   53.3567 H   0  0  0  0  0  0  0  0  0  0  0  0
   58.2220   33.8790   53.0220 O   0  0  0  0  0  0  0  0  0  0  0  0
   59.5430   33.9480   52.5310 C   0  0  0  0  0  0  0  0  0  0  0  0
   59.9850   34.9150   52.8129 H   0  0  0  0  0  0  0  0  0  0  0  0
   60.1297   33.1250   52.9650 H   0  0  0  0  0  0  0  0  0  0  0  0
   59.5500   33.8150   51.0080 C   0  0  0  0  0  0  0  0  0  0  0  0
   59.1994   34.7590   50.5654 H   0  0  0  0  0  0  0  0  0  0  0  0
   60.5774   33.5888   50.6866 H   0  0  0  0  0  0  0  0  0  0  0  0
   58.5270   33.2860   48.1510 C   0  0  0  0  0  0  0  0  0  0  0  0
   58.3866   34.3439   48.4178 H   0  0  0  0  0  0  0  0  0  0  0  0
   58.5270   32.9050   46.8040 C   0  0  0  0  0  0  0  0  0  0  0  0
   58.3480   33.8780   45.8280 O   0  0  0  0  0  0  0  0  0  0  0  0
  1  2  1  0
  2  3  1  0
  2  4  2  0
  4  5  1  0
  5  6  2  0
  6  7  1  0
  6  8  1  0
  8  9  1  0
  9 10  1  0
 10 11  2  0
 10 12  1  0
 12 13  1  0
 13 14  1  0
  5 15  1  0
 15 16  1  0
 15 17  2  0
 17 18  1  0
 18 19  1  0
 18 20  1  0
 18 21  1  0
 17 22  1  0
 22 23  1  0
 23 24  1  0
 23 25  1  0
 23 26  1  0
 26 27  2  0
 27 28  1  0
 27 29  1  0
 29 30  1  0
 29 31  2  0
 31 32  1  0
 32 33  1  0
 33 34  1  0
 33 35  1  0
 33 36  1  0
 36 37  1  0
 36 38  1  0
 36 39  1  0
 39 40  1  0
 40 41  1  0
 40 42  1  0
 40 43  1  0
 43 44  1  0
 43 45  1  0
 31 46  1  0
 46 47  1  0
 46 48  2  0
 48 49  1  0
 22  4  1  0
 48 26  1  0
 13  8  2  0
 43 32  1  0
M  CHG  4   9  -1  12  -1  14  -1  49  -1
M  END
>  <UniqueID>  (49) 
44

>  <SMILES>  (49) 
C=c1/c(=C\c2[n-]c(=O)[n-]c2[O-])cc(C)n1Cc1ccc(N2CCOCC2)cc1[O-]

>  <Energy>  (49) 
130.10692664249808

>  <Genealogy>  (49) 
C=c1c(=Cc2[n-]c(=O)[n-]c2[O-])cc(C)n1Cc1ccc(N2CCOCC2)cc1[O-] (protonated)
C=c1/c(=C\c2[n-]c(=O)[n-]c2[O-])cc(C)n1Cc1ccc(N2CCOCC2)cc1[O-] (cis-trans isomerization)
C=c1/c(=C\c2[n-]c(=O)[n-]c2[O-])cc(C)n1Cc1ccc(N2CCOCC2)cc1[O-] (3D coordinates assigned)
C=c1/c(=C\c2[n-]c(=O)[n-]c2[O-])cc(C)n1Cc1ccc(N2CCOCC2)cc1[O-] (nonaromatic ring conformer: 130.10692664249808 kcal/mol)

>  <smiles>  (49) 
C=c1c(=Cc2[nH]c(=O)[nH]c2O)cc(C)n1Cc1ccc(N2CCOCC2)cc1O

>  <score_type>  (49) 
oracle

>  <origin>  (49) 
adg

>  <m_score__min__energy>  (49) 
-16.960000000000001

>  <m_primary>  (49) 
energy

$$$$
49:0
     RDKit          3D

 41 43  0  0  0  0  0  0  0  0999 V2000
   59.4000   28.8590   44.7030 C   0  0  0  0  0  0  0  0  0  0  0  0
   57.9770   28.4970   44.9820 C   0  0  0  0  0  0  0  0  0  0  0  0
   57.6060   27.3430   45.5650 N   0  0  0  0  0  0  0  0  0  0  0  0
   56.2630   27.4350   45.6110 C   0  0  0  0  0  0  0  0  0  0  0  0
   55.5360   26.5310   46.0990 O   0  0  0  0  0  0  0  0  0  0  0  0
   55.7580   28.5700   45.0890 N   0  0  0  0  0  0  0  0  0  0  0  0
   56.8510   29.2490   44.6920 C   0  0  0  0  0  0  0  0  0  0  0  0
   56.7980   30.5670   44.0260 C   0  0  0  0  0  0  0  0  0  0  0  0
   56.8840   30.6380   42.7720 O   0  0  0  0  0  0  0  0  0  0  0  0
   56.5750   31.7740   44.7680 N   0  0  0  0  0  0  0  0  0  0  0  0
   57.5140   32.4070   45.6470 C   0  0  0  0  0  0  0  0  0  0  0  0
   58.2250   31.6230   46.5610 C   0  0  0  0  0  0  0  0  0  0  0  0
   59.1430   32.2130   47.4360 C   0  0  0  0  0  0  0  0  0  0  0  0
   59.3560   33.6010   47.4110 C   0  0  0  0  0  0  0  0  0  0  0  0
   60.3550   34.2420   48.3540 C   0  0  0  0  0  0  0  0  0  0  0  0
   61.7040   33.6200   48.3360 N   0  0  0  0  0  0  0  0  0  0  0  0
   62.6280   34.2150   49.3210 C   0  0  0  0  0  0  0  0  0  0  0  0
   63.9840   33.4700   49.3160 C   0  0  0  0  0  0  0  0  0  0  0  0
   64.0580   32.4940   48.2930 O   0  0  0  0  0  0  0  0  0  0  0  0
   63.7680   33.0860   47.0410 C   0  0  0  0  0  0  0  0  0  0  0  0
   62.3180   33.6180   46.9910 C   0  0  0  0  0  0  0  0  0  0  0  0
   58.6040   34.3920   46.5280 C   0  0  0  0  0  0  0  0  0  0  0  0
   57.6880   33.8020   45.6540 C   0  0  0  0  0  0  0  0  0  0  0  0
   59.9367   28.9955   45.6534 H   0  0  0  0  0  0  0  0  0  0  0  0
   59.8767   28.0535   44.1251 H   0  0  0  0  0  0  0  0  0  0  0  0
   59.4339   29.7944   44.1251 H   0  0  0  0  0  0  0  0  0  0  0  0
   58.0613   30.5357   46.5920 H   0  0  0  0  0  0  0  0  0  0  0  0
   59.7011   31.5866   48.1475 H   0  0  0  0  0  0  0  0  0  0  0  0
   60.4608   35.3007   48.0750 H   0  0  0  0  0  0  0  0  0  0  0  0
   59.9595   34.1034   49.3710 H   0  0  0  0  0  0  0  0  0  0  0  0
   61.5550   32.6190   48.6130 H   0  0  0  0  0  0  0  0  0  0  0  0
   62.7955   35.2720   49.0668 H   0  0  0  0  0  0  0  0  0  0  0  0
   62.1809   34.1303   50.3225 H   0  0  0  0  0  0  0  0  0  0  0  0
   64.7897   34.2033   49.1641 H   0  0  0  0  0  0  0  0  0  0  0  0
   64.0872   32.9533   50.2816 H   0  0  0  0  0  0  0  0  0  0  0  0
   64.4621   33.9223   46.8712 H   0  0  0  0  0  0  0  0  0  0  0  0
   63.8824   32.3191   46.2607 H   0  0  0  0  0  0  0  0  0  0  0  0
   62.3259   34.6455   46.5984 H   0  0  0  0  0  0  0  0  0  0  0  0
   61.7267   32.9587   46.3385 H   0  0  0  0  0  0  0  0  0  0  0  0
   58.7371   35.4839   46.5244 H   0  0  0  0  0  0  0  0  0  0  0  0
   57.1008   34.4310   44.9688 H   0  0  0  0  0  0  0  0  0  0  0  0
  1  2  1  0
  2  3  1  0
  3  4  1  0
  4  5  2  0
  4  6  1  0
  6  7  1  0
  7  8  1  0
  8  9  2  0
  8 10  1  0
 10 11  1  0
 11 12  2  0
 12 13  1  0
 13 14  2  0
 14 15  1  0
 15 16  1  0
 16 17  1  0
 17 18  1  0
 18 19  1  0
 19 20  1  0
 20 21  1  0
 14 22  1  0
 22 23  2  0
  7  2  2  0
 23 11  1  0
 21 16  1  0
  1 24  1  0
  1 25  1  0
  1 26  1  0
 12 27  1  0
 13 28  1  0
 15 29  1  0
 15 30  1  0
 16 31  1  0
 17 32  1  0
 17 33  1  0
 18 34  1  0
 18 35  1  0
 20 36  1  0
 20 37  1  0
 21 38  1  0
 21 39  1  0
 22 40  1  0
 23 41  1  0
M  CHG  4   3  -1   6  -1  10  -1  16   1
M  END
>  <UniqueID>  (50) 
45

>  <SMILES>  (50) 
Cc1[n-]c(=O)[n-]c1C(=O)[N-]c1ccc(C[NH+]2CCOCC2)cc1

>  <Energy>  (50) 
87.26958617643314

>  <Genealogy>  (50) 
Cc1[n-]c(=O)[n-]c1C(=O)[N-]c1ccc(C[NH+]2CCOCC2)cc1 (protonated)
Cc1[n-]c(=O)[n-]c1C(=O)[N-]c1ccc(C[NH+]2CCOCC2)cc1 (3D coordinates assigned)
Cc1[n-]c(=O)[n-]c1C(=O)[N-]c1ccc(C[NH+]2CCOCC2)cc1 (nonaromatic ring conformer: 87.26958617643314 kcal/mol)

>  <smiles>  (50) 
Cc1[nH]c(=O)[nH]c1C(=O)Nc1ccc(CN2CCOCC2)cc1

>  <score_type>  (50) 
oracle

>  <origin>  (50) 
adg

>  <m_score__min__energy>  (50) 
-11.5

>  <m_primary>  (50) 
energy

$$$$
50:0
     RDKit          3D

 73 78  0  0  0  0  0  0  0  0999 V2000
   57.3830   21.1990   43.1950 C   0  0  0  0  0  0  0  0  0  0  0  0
   57.1460   22.5090   43.8880 C   0  0  0  0  0  0  0  0  0  0  0  0
   58.1970   23.1560   44.5520 C   0  0  0  0  0  0  0  0  0  0  0  0
   57.9880   24.3930   45.1690 C   0  0  0  0  0  0  0  0  0  0  0  0
   56.7240   25.0040   45.1280 C   0  0  0  0  0  0  0  0  0  0  0  0
   56.5120   26.3180   45.7800 C   0  0  0  0  0  0  0  0  0  0  0  0
   55.3370   26.7180   45.9950 O   0  0  0  0  0  0  0  0  0  0  0  0
   57.6060   27.1330   46.2270 N   0  0  0  0  0  0  0  0  0  0  0  0
   57.7880   28.5270   45.9410 C   0  0  0  0  0  0  0  0  0  0  0  0
   57.5870   29.0450   44.6510 C   0  0  0  0  0  0  0  0  0  0  0  0
   57.7590   30.4120   44.4420 C   0  0  0  0  0  0  0  0  0  0  0  0
   58.1290   31.2680   45.4530 C   0  0  0  0  0  0  0  0  0  0  0  0
   58.3110   30.7750   46.7680 C   0  0  0  0  0  0  0  0  0  0  0  0
   58.5860   31.6250   47.9390 C   0  0  0  0  0  0  0  0  0  0  0  0
   57.8350   32.6190   48.1340 O   0  0  0  0  0  0  0  0  0  0  0  0
   59.6050   31.2760   48.9140 N   0  0  0  0  0  0  0  0  0  0  0  0
   60.8530   30.6460   48.4220 C   0  0  0  0  0  0  0  0  0  0  0  0
   61.9480   30.4670   49.4790 C   0  0  0  0  0  0  0  0  0  0  0  0
   61.9140   31.5820   50.5090 C   0  0  0  0  0  0  0  0  0  0  0  0
   60.5960   31.4970   51.2560 C   0  0  0  0  0  0  0  0  0  0  0  0
   59.3860   31.7020   50.3200 C   0  0  2  0  0  0  0  0  0  0  0  0
   58.1940   30.9840   50.8960 C   0  0  0  0  0  0  0  0  0  0  0  0
   56.9950   31.5640   51.2520 C   0  0  0  0  0  0  0  0  0  0  0  0
   56.2710   30.5220   51.8040 C   0  0  0  0  0  0  0  0  0  0  0  0
   54.9030   30.5860   52.3720 C   0  0  0  0  0  0  0  0  0  0  0  0
   54.7000   30.3380   53.7430 C   0  0  0  0  0  0  0  0  0  0  0  0
   53.4170   30.4050   54.2950 C   0  0  0  0  0  0  0  0  0  0  0  0
   52.3230   30.7220   53.4880 C   0  0  0  0  0  0  0  0  0  0  0  0
   52.5100   30.9700   52.1270 C   0  0  0  0  0  0  0  0  0  0  0  0
   53.7900   30.9030   51.5680 C   0  0  0  0  0  0  0  0  0  0  0  0
   57.0170   29.3980   51.7770 N   0  0  0  0  0  0  0  0  0  0  0  0
   58.1890   29.6800   51.2310 N   0  0  0  0  0  0  0  0  0  0  0  0
   58.1120   29.3980   46.9930 C   0  0  0  0  0  0  0  0  0  0  0  0
   58.2110   32.6080   44.9520 N   0  0  0  0  0  0  0  0  0  0  0  0
   59.0210   33.9920   45.6360 S   0  0  0  0  0  0  0  0  0  0  0  0
   60.5990   33.5400   46.3180 C   0  0  0  0  0  0  0  0  0  0  0  0
   58.1610   34.6520   46.6730 O   0  0  0  0  0  0  0  0  0  0  0  0
   59.2740   34.9900   44.5390 O   0  0  0  0  0  0  0  0  0  0  0  0
   57.8650   32.5960   43.5300 C   0  0  0  0  0  0  0  0  0  0  0  0
   57.5420   31.1360   43.1660 C   0  0  0  0  0  0  0  0  0  0  0  0
   55.6820   24.3700   44.4290 C   0  0  0  0  0  0  0  0  0  0  0  0
   55.8930   23.1320   43.8140 C   0  0  0  0  0  0  0  0  0  0  0  0
   57.5262   20.4077   43.9456 H   0  0  0  0  0  0  0  0  0  0  0  0
   56.5145   20.9547   42.5657 H   0  0  0  0  0  0  0  0  0  0  0  0
   58.2821   21.2745   42.5657 H   0  0  0  0  0  0  0  0  0  0  0  0
   59.1918   22.6880   44.5879 H   0  0  0  0  0  0  0  0  0  0  0  0
   58.8190   24.8910   45.6900 H   0  0  0  0  0  0  0  0  0  0  0  0
   57.2990   28.3835   43.8206 H   0  0  0  0  0  0  0  0  0  0  0  0
   60.5994   29.6533   48.0218 H   0  0  0  0  0  0  0  0  0  0  0  0
   61.2650   31.3296   47.6651 H   0  0  0  0  0  0  0  0  0  0  0  0
   61.7983   29.5041   49.9894 H   0  0  0  0  0  0  0  0  0  0  0  0
   62.9243   30.4940   48.9729 H   0  0  0  0  0  0  0  0  0  0  0  0
   62.7500   31.4633   51.2140 H   0  0  0  0  0  0  0  0  0  0  0  0
   62.0079   32.5598   50.0139 H   0  0  0  0  0  0  0  0  0  0  0  0
   60.5175   30.5055   51.7258 H   0  0  0  0  0  0  0  0  0  0  0  0
   60.5811   32.2974   52.0104 H   0  0  0  0  0  0  0  0  0  0  0  0
   59.2165   32.7877   50.2687 H   0  0  0  0  0  0  0  0  0  0  0  0
   56.6856   32.6121   51.1264 H   0  0  0  0  0  0  0  0  0  0  0  0
   55.5578   30.0895   54.3852 H   0  0  0  0  0  0  0  0  0  0  0  0
   53.2695   30.2076   55.3670 H   0  0  0  0  0  0  0  0  0  0  0  0
   51.3146   30.7763   53.9241 H   0  0  0  0  0  0  0  0  0  0  0  0
   51.6471   31.2191   51.4919 H   0  0  0  0  0  0  0  0  0  0  0  0
   53.9289   31.0989   50.4945 H   0  0  0  0  0  0  0  0  0  0  0  0
   58.2125   28.9981   48.0128 H   0  0  0  0  0  0  0  0  0  0  0  0
   60.5420   33.5563   47.4164 H   0  0  0  0  0  0  0  0  0  0  0  0
   60.8685   32.5286   45.9798 H   0  0  0  0  0  0  0  0  0  0  0  0
   61.3631   34.2554   45.9798 H   0  0  0  0  0  0  0  0  0  0  0  0
   56.9884   33.2350   43.3477 H   0  0  0  0  0  0  0  0  0  0  0  0
   58.6932   32.9825   42.9179 H   0  0  0  0  0  0  0  0  0  0  0  0
   56.5002   31.0352   42.8276 H   0  0  0  0  0  0  0  0  0  0  0  0
   58.1594   30.7506   42.3412 H   0  0  0  0  0  0  0  0  0  0  0  0
   54.6946   24.8507   44.3655 H   0  0  0  0  0  0  0  0  0  0  0  0
   55.0710   22.6446   43.2692 H   0  0  0  0  0  0  0  0  0  0  0  0
  1  2  1  0
  2  3  2  0
  3  4  1  0
  4  5  2  0
  5  6  1  0
  6  7  2  0
  6  8  1  0
  8  9  1  0
  9 10  2  0
 10 11  1  0
 11 12  2  0
 12 13  1  0
 13 14  1  0
 14 15  2  0
 14 16  1  0
 16 17  1  0
 17 18  1  0
 18 19  1  0
 19 20  1  0
 20 21  1  0
 21 22  1  0
 22 23  1  0
 23 24  2  0
 24 25  1  0
 25 26  2  0
 26 27  1  0
 27 28  2  0
 28 29  1  0
 29 30  2  0
 24 31  1  0
 31 32  1  0
 13 33  2  0
 12 34  1  0
 34 35  1  0
 35 36  1  0
 35 37  2  0
 35 38  2  0
 34 39  1  0
 39 40  1  0
  5 41  1  0
 41 42  2  0
 42  2  1  0
 33  9  1  0
 40 11  1  0
 21 16  1  0
 32 22  2  0
 30 25  1  0
  1 43  1  0
  1 44  1  0
  1 45  1  0
  3 46  1  0
  4 47  1  0
 10 48  1  0
 17 49  1  0
 17 50  1  0
 18 51  1  0
 18 52  1  0
 19 53  1  0
 19 54  1  0
 20 55  1  0
 20 56  1  0
 21 57  1  6
 23 58  1  0
 26 59  1  0
 27 60  1  0
 28 61  1  0
 29 62  1  0
 30 63  1  0
 33 64  1  0
 36 65  1  0
 36 66  1  0
 36 67  1  0
 39 68  1  0
 39 69  1  0
 40 70  1  0
 40 71  1  0
 41 72  1  0
 42 73  1  0
M  CHG  2   8  -1  31  -1
M  END
>  <UniqueID>  (51) 
46

>  <SMILES>  (51) 
Cc1ccc(C(=O)[N-]c2cc3c(c(C(=O)N4CCCC[C@@H]4c4cc(-c5ccccc5)[n-]n4)c2)N(S(C)(=O)=O)CC3)cc1

>  <Energy>  (51) 
140.1766268469602

>  <Genealogy>  (51) 
Cc1ccc(C(=O)[N-]c2cc3c(c(C(=O)N4CCCCC4c4cc(-c5ccccc5)[n-]n4)c2)N(S(C)(=O)=O)CC3)cc1 (protonated)
Cc1ccc(C(=O)[N-]c2cc3c(c(C(=O)N4CCCC[C@@H]4c4cc(-c5ccccc5)[n-]n4)c2)N(S(C)(=O)=O)CC3)cc1 (chirality)
Cc1ccc(C(=O)[N-]c2cc3c(c(C(=O)N4CCCC[C@@H]4c4cc(-c5ccccc5)[n-]n4)c2)N(S(C)(=O)=O)CC3)cc1 (3D coordinates assigned)
Cc1ccc(C(=O)[N-]c2cc3c(c(C(=O)N4CCCC[C@@H]4c4cc(-c5ccccc5)[n-]n4)c2)N(S(C)(=O)=O)CC3)cc1 (nonaromatic ring conformer: 140.1766268469602 kcal/mol)

>  <smiles>  (51) 
Cc1ccc(C(=O)Nc2cc3c(c(C(=O)N4CCCCC4c4cc(-c5ccccc5)[nH]n4)c2)N(S(C)(=O)=O)CC3)cc1

>  <score_type>  (51) 
oracle

>  <origin>  (51) 
adg

>  <m_score__min__energy>  (51) 
-14.83

>  <m_primary>  (51) 
energy

$$$$
51:0
     RDKit          3D

 45 47  0  0  0  0  0  0  0  0999 V2000
   57.8350   30.9190   43.7450 C   0  0  0  0  0  0  0  0  0  0  0  0
   58.0860   30.8200   45.0590 C   0  0  0  0  0  0  0  0  0  0  0  0
   58.3780   29.6580   45.7760 C   0  0  0  0  0  0  0  0  0  0  0  0
   58.4700   28.4050   45.2820 C   0  0  0  0  0  0  0  0  0  0  0  0
   57.5860   27.2940   45.6760 C   0  0  0  0  0  0  0  0  0  0  0  0
   56.1850   27.4220   45.6310 C   0  0  0  0  0  0  0  0  0  0  0  0
   55.5690   28.5880   45.1770 O   0  0  0  0  0  0  0  0  0  0  0  0
   55.4050   26.3870   46.0370 N   0  0  0  0  0  0  0  0  0  0  0  0
   55.9490   25.2300   46.4950 C   0  0  0  0  0  0  0  0  0  0  0  0
   55.2010   24.2860   46.8620 O   0  0  0  0  0  0  0  0  0  0  0  0
   57.2960   25.0920   46.5610 N   0  0  0  0  0  0  0  0  0  0  0  0
   58.1240   26.0950   46.1710 C   0  0  0  0  0  0  0  0  0  0  0  0
   59.3720   25.9360   46.2520 O   0  0  0  0  0  0  0  0  0  0  0  0
   58.5410   30.1050   47.0920 C   0  0  0  0  0  0  0  0  0  0  0  0
   58.8670   29.3030   48.3140 C   0  0  0  0  0  0  0  0  0  0  0  0
   58.3550   31.4390   47.1430 N   0  0  0  0  0  0  0  0  0  0  0  0
   58.0890   31.8670   45.9200 N   0  0  0  0  0  0  0  0  0  0  0  0
   57.7980   33.2710   45.6230 C   0  0  0  0  0  0  0  0  0  0  0  0
   59.0580   34.0910   45.7220 C   0  0  0  0  0  0  0  0  0  0  0  0
   59.4520   34.7120   44.6980 O   0  0  0  0  0  0  0  0  0  0  0  0
   59.8340   34.1480   46.9380 N   0  0  0  0  0  0  0  0  0  0  0  0
   59.3420   34.9520   48.0590 C   0  0  0  0  0  0  0  0  0  0  0  0
   61.1220   33.5090   47.0320 C   0  0  0  0  0  0  0  0  0  0  0  0
   62.2520   34.1050   46.4460 C   0  0  0  0  0  0  0  0  0  0  0  0
   63.5020   33.4830   46.5330 C   0  0  0  0  0  0  0  0  0  0  0  0
   63.6330   32.2630   47.2010 C   0  0  0  0  0  0  0  0  0  0  0  0
   62.5140   31.6630   47.7850 C   0  0  0  0  0  0  0  0  0  0  0  0
   61.2620   32.2800   47.7000 C   0  0  0  0  0  0  0  0  0  0  0  0
   57.6172   31.9007   43.2991 H   0  0  0  0  0  0  0  0  0  0  0  0
   57.8470   30.0185   43.1134 H   0  0  0  0  0  0  0  0  0  0  0  0
   59.2544   28.2006   44.5384 H   0  0  0  0  0  0  0  0  0  0  0  0
   54.7750   28.5760   44.5480 H   0  0  0  0  0  0  0  0  0  0  0  0
   58.6282   29.8906   49.2127 H   0  0  0  0  0  0  0  0  0  0  0  0
   58.2741   28.3765   48.3134 H   0  0  0  0  0  0  0  0  0  0  0  0
   59.9382   29.0529   48.3134 H   0  0  0  0  0  0  0  0  0  0  0  0
   57.3906   33.3509   44.6044 H   0  0  0  0  0  0  0  0  0  0  0  0
   57.0635   33.6488   46.3495 H   0  0  0  0  0  0  0  0  0  0  0  0
   59.6332   34.4762   49.0071 H   0  0  0  0  0  0  0  0  0  0  0  0
   59.7778   35.9606   48.0059 H   0  0  0  0  0  0  0  0  0  0  0  0
   58.2456   35.0230   48.0059 H   0  0  0  0  0  0  0  0  0  0  0  0
   62.1531   35.0643   45.9169 H   0  0  0  0  0  0  0  0  0  0  0  0
   64.3834   33.9553   46.0746 H   0  0  0  0  0  0  0  0  0  0  0  0
   64.6165   31.7748   47.2673 H   0  0  0  0  0  0  0  0  0  0  0  0
   62.6183   30.7034   48.3126 H   0  0  0  0  0  0  0  0  0  0  0  0
   60.3833   31.8019   48.1576 H   0  0  0  0  0  0  0  0  0  0  0  0
  1  2  2  0
  2  3  1  0
  3  4  2  3
  4  5  1  0
  5  6  2  0
  6  7  1  0
  6  8  1  0
  8  9  1  0
  9 10  2  0
  9 11  1  0
 11 12  1  0
 12 13  2  0
  3 14  1  0
 14 15  1  0
 14 16  2  0
 16 17  1  0
 17 18  1  0
 18 19  1  0
 19 20  2  0
 19 21  1  0
 21 22  1  0
 21 23  1  0
 23 24  2  0
 24 25  1  0
 25 26  2  0
 26 27  1  0
 27 28  2  0
 17  2  1  0
 28 23  1  0
 12  5  1  0
  1 29  1  0
  1 30  1  0
  4 31  1  0
  7 32  1  0
 15 33  1  0
 15 34  1  0
 15 35  1  0
 18 36  1  0
 18 37  1  0
 22 38  1  0
 22 39  1  0
 22 40  1  0
 24 41  1  0
 25 42  1  0
 26 43  1  0
 27 44  1  0
 28 45  1  0
M  CHG  2   8  -1  11  -1
M  END
>  <UniqueID>  (52) 
47

>  <SMILES>  (52) 
C=c1c(=Cc2c(O)[n-]c(=O)[n-]c2=O)c(C)nn1CC(=O)N(C)c1ccccc1

>  <Energy>  (52) 
96.84081386859353

>  <Genealogy>  (52) 
C=c1c(=Cc2c(O)[n-]c(=O)[n-]c2=O)c(C)nn1CC(=O)N(C)c1ccccc1 (protonated)
C=c1c(=Cc2c(O)[n-]c(=O)[n-]c2=O)c(C)nn1CC(=O)N(C)c1ccccc1 (3D coordinates assigned)
C=c1c(=Cc2c(O)[n-]c(=O)[n-]c2=O)c(C)nn1CC(=O)N(C)c1ccccc1 (optimized conformer: 96.84081386859353 kcal/mol)

>  <smiles>  (52) 
C=c1c(=Cc2c(O)[nH]c(=O)[nH]c2=O)c(C)nn1CC(=O)N(C)c1ccccc1

>  <score_type>  (52) 
oracle

>  <origin>  (52) 
adg

>  <m_score__min__energy>  (52) 
-13.949999999999999

>  <m_primary>  (52) 
energy

$$$$
52:0
     RDKit          3D

 51 53  0  0  0  0  0  0  0  0999 V2000
   56.4210   23.8660   46.5630 C   0  0  0  0  0  0  0  0  0  0  0  0
   56.5170   24.6620   45.4970 C   0  0  0  0  0  0  0  0  0  0  0  0
   56.6360   23.9160   43.9060 Cl  0  0  0  0  0  0  0  0  0  0  0  0
   56.4880   26.1390   45.6280 C   0  0  0  0  0  0  0  0  0  0  0  0
   55.4480   26.7120   46.0590 O   0  0  0  0  0  0  0  0  0  0  0  0
   57.6500   26.9200   45.3040 N   0  0  0  0  0  0  0  0  0  0  0  0
   57.6230   28.3390   45.0650 C   0  0  0  0  0  0  0  0  0  0  0  0
   58.8140   29.0730   45.1480 C   0  0  0  0  0  0  0  0  0  0  0  0
   58.8180   30.4500   44.9090 C   0  0  0  0  0  0  0  0  0  0  0  0
   57.6290   31.1130   44.5650 C   0  0  0  0  0  0  0  0  0  0  0  0
   57.6300   32.6020   44.3460 C   0  0  0  0  0  0  0  0  0  0  0  0
   58.2630   33.3010   45.5190 C   0  0  0  0  0  0  0  0  0  0  0  0
   58.9210   34.5260   45.3450 C   0  0  0  0  0  0  0  0  0  0  0  0
   59.5370   35.1370   46.4370 C   0  0  0  0  0  0  0  0  0  0  0  0
   59.5080   34.5400   47.6570 N   0  0  0  0  0  0  0  0  0  0  0  0
   58.8890   33.3450   47.8640 C   0  0  0  0  0  0  0  0  0  0  0  0
   58.9100   32.7450   49.2100 C   0  0  0  0  0  0  0  0  0  0  0  0
   58.9370   33.4780   50.2360 O   0  0  0  0  0  0  0  0  0  0  0  0
   58.8860   31.3190   49.3460 N   0  0  0  0  0  0  0  0  0  0  0  0
   60.0740   30.4750   49.2710 C   0  0  0  0  0  0  0  0  0  0  0  0
   60.6940   30.5480   47.8730 C   0  0  0  0  0  0  0  0  0  0  0  0
   61.7710   31.5990   47.8190 C   0  0  0  0  0  0  0  0  0  0  0  0
   62.7510   31.6600   48.8240 C   0  0  0  0  0  0  0  0  0  0  0  0
   63.7410   32.6470   48.7830 C   0  0  0  0  0  0  0  0  0  0  0  0
   63.7620   33.5760   47.7380 C   0  0  0  0  0  0  0  0  0  0  0  0
   62.7870   33.5250   46.7380 C   0  0  0  0  0  0  0  0  0  0  0  0
   61.7910   32.5440   46.7780 C   0  0  0  0  0  0  0  0  0  0  0  0
   58.2530   32.7020   46.7880 C   0  0  0  0  0  0  0  0  0  0  0  0
   56.4370   30.3810   44.4700 C   0  0  0  0  0  0  0  0  0  0  0  0
   56.4340   29.0020   44.7060 C   0  0  0  0  0  0  0  0  0  0  0  0
   56.3452   24.3021   47.5700 H   0  0  0  0  0  0  0  0  0  0  0  0
   56.4176   22.7735   46.4351 H   0  0  0  0  0  0  0  0  0  0  0  0
   58.5830   26.4520   45.3380 H   0  0  0  0  0  0  0  0  0  0  0  0
   59.7535   28.5610   45.4034 H   0  0  0  0  0  0  0  0  0  0  0  0
   59.7570   31.0171   44.9908 H   0  0  0  0  0  0  0  0  0  0  0  0
   58.1997   32.8345   43.4342 H   0  0  0  0  0  0  0  0  0  0  0  0
   56.5917   32.9492   44.2398 H   0  0  0  0  0  0  0  0  0  0  0  0
   58.9515   35.0024   44.3540 H   0  0  0  0  0  0  0  0  0  0  0  0
   60.0469   36.1034   46.3103 H   0  0  0  0  0  0  0  0  0  0  0  0
   60.8103   30.8191   50.0123 H   0  0  0  0  0  0  0  0  0  0  0  0
   59.7856   29.4341   49.4792 H   0  0  0  0  0  0  0  0  0  0  0  0
   61.1312   29.5706   47.6211 H   0  0  0  0  0  0  0  0  0  0  0  0
   59.9067   30.8131   47.1519 H   0  0  0  0  0  0  0  0  0  0  0  0
   62.7395   30.9290   49.6459 H   0  0  0  0  0  0  0  0  0  0  0  0
   64.5042   32.6926   49.5739 H   0  0  0  0  0  0  0  0  0  0  0  0
   64.5459   34.3469   47.7031 H   0  0  0  0  0  0  0  0  0  0  0  0
   62.8030   34.2579   45.9179 H   0  0  0  0  0  0  0  0  0  0  0  0
   61.0212   32.5116   45.9929 H   0  0  0  0  0  0  0  0  0  0  0  0
   57.7506   31.7353   46.9397 H   0  0  0  0  0  0  0  0  0  0  0  0
   55.4994   30.8935   44.2086 H   0  0  0  0  0  0  0  0  0  0  0  0
   55.4976   28.4327   44.6106 H   0  0  0  0  0  0  0  0  0  0  0  0
  1  2  2  0
  2  3  1  0
  2  4  1  0
  4  5  2  0
  4  6  1  0
  6  7  1  0
  7  8  2  0
  8  9  1  0
  9 10  2  0
 10 11  1  0
 11 12  1  0
 12 13  2  0
 13 14  1  0
 14 15  2  0
 15 16  1  0
 16 17  1  0
 17 18  2  0
 17 19  1  0
 19 20  1  0
 20 21  1  0
 21 22  1  0
 22 23  2  0
 23 24  1  0
 24 25  2  0
 25 26  1  0
 26 27  2  0
 16 28  2  0
 10 29  1  0
 29 30  2  0
 30  7  1  0
 28 12  1  0
 27 22  1  0
  1 31  1  0
  1 32  1  0
  6 33  1  0
  8 34  1  0
  9 35  1  0
 11 36  1  0
 11 37  1  0
 13 38  1  0
 14 39  1  0
 20 40  1  0
 20 41  1  0
 21 42  1  0
 21 43  1  0
 23 44  1  0
 24 45  1  0
 25 46  1  0
 26 47  1  0
 27 48  1  0
 28 49  1  0
 29 50  1  0
 30 51  1  0
M  CHG  1  19  -1
M  END
>  <UniqueID>  (53) 
48

>  <SMILES>  (53) 
C=C(Cl)C(=O)Nc1ccc(Cc2ccnc(C(=O)[N-]CCc3ccccc3)c2)cc1

>  <Energy>  (53) 
51.155257116706686

>  <Genealogy>  (53) 
C=C(Cl)C(=O)Nc1ccc(Cc2ccnc(C(=O)[N-]CCc3ccccc3)c2)cc1 (protonated)
C=C(Cl)C(=O)Nc1ccc(Cc2ccnc(C(=O)[N-]CCc3ccccc3)c2)cc1 (3D coordinates assigned)
C=C(Cl)C(=O)Nc1ccc(Cc2ccnc(C(=O)[N-]CCc3ccccc3)c2)cc1 (optimized conformer: 51.155257116706686 kcal/mol)

>  <smiles>  (53) 
C=C(Cl)C(=O)Nc1ccc(Cc2ccnc(C(=O)NCCc3ccccc3)c2)cc1

>  <score_type>  (53) 
oracle

>  <origin>  (53) 
adg

>  <m_score__min__energy>  (53) 
-10.66

>  <m_primary>  (53) 
energy

$$$$
53:0
     RDKit          3D

 57 60  0  0  0  0  0  0  0  0999 V2000
   63.0040   34.3390   50.2710 C   0  0  0  0  0  0  0  0  0  0  0  0
   61.9960   34.1160   49.1820 C   0  0  0  0  0  0  0  0  0  0  0  0
   62.4220   33.7470   47.8940 C   0  0  0  0  0  0  0  0  0  0  0  0
   61.4880   33.5040   46.8810 C   0  0  0  0  0  0  0  0  0  0  0  0
   60.1160   33.6190   47.1490 C   0  0  0  0  0  0  0  0  0  0  0  0
   58.9270   33.3250   45.8860 S   0  0  0  0  0  0  0  0  0  0  0  0
   57.5520   33.7190   46.3510 O   0  0  0  0  0  0  0  0  0  0  0  0
   59.2770   34.1440   44.6760 O   0  0  0  0  0  0  0  0  0  0  0  0
   58.9240   31.6440   45.4630 N   0  0  0  0  0  0  0  0  0  0  0  0
   58.1280   31.1200   44.3870 C   0  0  0  0  0  0  0  0  0  0  0  0
   57.8380   31.9250   43.2710 C   0  0  0  0  0  0  0  0  0  0  0  0
   57.0210   31.4480   42.2450 C   0  0  0  0  0  0  0  0  0  0  0  0
   56.4790   30.1680   42.3180 C   0  0  0  0  0  0  0  0  0  0  0  0
   56.7560   29.3530   43.4150 C   0  0  0  0  0  0  0  0  0  0  0  0
   57.5790   29.8150   44.4590 C   0  0  0  0  0  0  0  0  0  0  0  0
   57.9080   28.8920   45.5720 C   0  0  0  0  0  0  0  0  0  0  0  0
   57.0040   28.1660   46.0630 O   0  0  0  0  0  0  0  0  0  0  0  0
   59.2080   28.8710   46.1770 N   0  0  0  0  0  0  0  0  0  0  0  0
   59.5620   29.4180   47.4550 C   0  0  0  0  0  0  0  0  0  0  0  0
   60.7950   30.0670   47.5920 C   0  0  0  0  0  0  0  0  0  0  0  0
   61.1610   30.6380   48.8140 C   0  0  0  0  0  0  0  0  0  0  0  0
   60.2980   30.5660   49.9180 C   0  0  0  0  0  0  0  0  0  0  0  0
   60.6760   31.2030   51.1940 C   0  0  0  0  0  0  0  0  0  0  0  0
   61.6730   30.7560   51.8240 O   0  0  0  0  0  0  0  0  0  0  0  0
   59.9310   32.3090   51.7360 N   0  0  0  0  0  0  0  0  0  0  0  0
   58.5200   32.5360   51.4640 C   0  0  0  0  0  0  0  0  0  0  0  0
   58.1090   33.7070   52.3490 C   0  0  0  0  0  0  0  0  0  0  0  0
   59.2180   33.8680   53.3830 C   0  0  0  0  0  0  0  0  0  0  0  0
   60.4290   33.1300   52.8270 C   0  0  0  0  0  0  0  0  0  0  0  0
   59.0460   29.9450   49.7720 C   0  0  0  0  0  0  0  0  0  0  0  0
   58.6790   29.3780   48.5480 C   0  0  0  0  0  0  0  0  0  0  0  0
   59.6880   33.9740   48.4360 C   0  0  0  0  0  0  0  0  0  0  0  0
   60.6220   34.2170   49.4500 C   0  0  0  0  0  0  0  0  0  0  0  0
   62.5154   34.2309   51.2506 H   0  0  0  0  0  0  0  0  0  0  0  0
   63.8118   33.5978   50.1803 H   0  0  0  0  0  0  0  0  0  0  0  0
   63.4237   35.3517   50.1803 H   0  0  0  0  0  0  0  0  0  0  0  0
   63.4967   33.6487   47.6813 H   0  0  0  0  0  0  0  0  0  0  0  0
   61.8298   33.2227   45.8740 H   0  0  0  0  0  0  0  0  0  0  0  0
   59.6000   31.0260   45.9600 H   0  0  0  0  0  0  0  0  0  0  0  0
   58.2587   32.9393   43.2062 H   0  0  0  0  0  0  0  0  0  0  0  0
   56.8046   32.0859   41.3754 H   0  0  0  0  0  0  0  0  0  0  0  0
   55.8313   29.7989   41.5092 H   0  0  0  0  0  0  0  0  0  0  0  0
   56.3279   28.3410   43.4648 H   0  0  0  0  0  0  0  0  0  0  0  0
   61.4795   30.1278   46.7330 H   0  0  0  0  0  0  0  0  0  0  0  0
   62.1314   31.1469   48.9109 H   0  0  0  0  0  0  0  0  0  0  0  0
   58.3699   32.7864   50.4034 H   0  0  0  0  0  0  0  0  0  0  0  0
   57.9181   31.6395   51.6738 H   0  0  0  0  0  0  0  0  0  0  0  0
   58.0117   34.6233   51.7483 H   0  0  0  0  0  0  0  0  0  0  0  0
   57.1363   33.5246   52.8293 H   0  0  0  0  0  0  0  0  0  0  0  0
   59.4535   34.9328   53.5267 H   0  0  0  0  0  0  0  0  0  0  0  0
   58.9162   33.4632   54.3603 H   0  0  0  0  0  0  0  0  0  0  0  0
   61.1763   33.8468   52.4558 H   0  0  0  0  0  0  0  0  0  0  0  0
   60.9189   32.5195   53.5999 H   0  0  0  0  0  0  0  0  0  0  0  0
   58.3518   29.9048   50.6243 H   0  0  0  0  0  0  0  0  0  0  0  0
   57.6950   28.8985   48.4397 H   0  0  0  0  0  0  0  0  0  0  0  0
   58.6126   34.0620   48.6501 H   0  0  0  0  0  0  0  0  0  0  0  0
   60.2783   34.4877   50.4592 H   0  0  0  0  0  0  0  0  0  0  0  0
  1  2  1  0
  2  3  2  0
  3  4  1  0
  4  5  2  0
  5  6  1  0
  6  7  2  0
  6  8  2  0
  6  9  1  0
  9 10  1  0
 10 11  2  0
 11 12  1  0
 12 13  2  0
 13 14  1  0
 14 15  2  0
 15 16  1  0
 16 17  2  0
 16 18  1  0
 18 19  1  0
 19 20  2  0
 20 21  1  0
 21 22  2  0
 22 23  1  0
 23 24  2  0
 23 25  1  0
 25 26  1  0
 26 27  1  0
 27 28  1  0
 28 29  1  0
 22 30  1  0
 30 31  2  0
  5 32  1  0
 32 33  2  0
 33  2  1  0
 15 10  1  0
 31 19  1  0
 29 25  1  0
  1 34  1  0
  1 35  1  0
  1 36  1  0
  3 37  1  0
  4 38  1  0
  9 39  1  0
 11 40  1  0
 12 41  1  0
 13 42  1  0
 14 43  1  0
 20 44  1  0
 21 45  1  0
 26 46  1  0
 26 47  1  0
 27 48  1  0
 27 49  1  0
 28 50  1  0
 28 51  1  0
 29 52  1  0
 29 53  1  0
 30 54  1  0
 31 55  1  0
 32 56  1  0
 33 57  1  0
M  CHG  1  18  -1
M  END
>  <UniqueID>  (54) 
49

>  <SMILES>  (54) 
Cc1ccc(S(=O)(=O)Nc2ccccc2C(=O)[N-]c2ccc(C(=O)N3CCCC3)cc2)cc1

>  <Energy>  (54) 
76.83216649844383

>  <Genealogy>  (54) 
Cc1ccc(S(=O)(=O)Nc2ccccc2C(=O)[N-]c2ccc(C(=O)N3CCCC3)cc2)cc1 (protonated)
Cc1ccc(S(=O)(=O)Nc2ccccc2C(=O)[N-]c2ccc(C(=O)N3CCCC3)cc2)cc1 (3D coordinates assigned)
Cc1ccc(S(=O)(=O)Nc2ccccc2C(=O)[N-]c2ccc(C(=O)N3CCCC3)cc2)cc1 (nonaromatic ring conformer: 76.83216649844383 kcal/mol)

>  <smiles>  (54) 
Cc1ccc(S(=O)(=O)Nc2ccccc2C(=O)Nc2ccc(C(=O)N3CCCC3)cc2)cc1

>  <score_type>  (54) 
oracle

>  <origin>  (54) 
adg

>  <m_score__min__energy>  (54) 
-10.83

>  <m_primary>  (54) 
energy

$$$$
54:0
     RDKit          3D

 63 66  0  0  0  0  0  0  0  0999 V2000
   56.9323   30.1313   42.6957 H   0  0  0  0  0  0  0  0  0  0  0  0
   57.1980   30.0500   43.7600 C   0  0  0  0  0  0  0  0  0  0  0  0
   56.3180   29.2810   44.6570 C   0  0  0  0  0  0  0  0  0  0  0  0
   55.1490   29.7010   44.8720 O   0  0  0  0  0  0  0  0  0  0  0  0
   56.7740   28.0630   45.2610 N   0  0  0  0  0  0  0  0  0  0  0  0
   57.7340   27.9440   46.3220 C   0  0  0  0  0  0  0  0  0  0  0  0
   58.2820   26.6850   46.5950 C   0  0  0  0  0  0  0  0  0  0  0  0
   57.9431   25.8076   46.0247 H   0  0  0  0  0  0  0  0  0  0  0  0
   59.2570   26.5330   47.5870 C   0  0  0  0  0  0  0  0  0  0  0  0
   59.6690   25.5358   47.8011 H   0  0  0  0  0  0  0  0  0  0  0  0
   59.7130   27.6490   48.3120 C   0  0  0  0  0  0  0  0  0  0  0  0
   60.7700   27.5070   49.3370 C   0  0  0  0  0  0  0  0  0  0  0  0
   61.1030   26.3600   49.7490 O   0  0  0  0  0  0  0  0  0  0  0  0
   61.4090   28.6490   49.8370 O   0  0  0  0  0  0  0  0  0  0  0  0
   61.1310   29.2100   51.1180 C   0  0  0  0  0  0  0  0  0  0  0  0
   61.2431   28.4289   51.8844 H   0  0  0  0  0  0  0  0  0  0  0  0
   61.8371   30.0336   51.2997 H   0  0  0  0  0  0  0  0  0  0  0  0
   59.7350   29.7570   51.1760 C   0  0  0  0  0  0  0  0  0  0  0  0
   58.8090   29.1540   51.9780 N   0  0  0  0  0  0  0  0  0  0  0  0
   57.5570   29.6680   52.0530 C   0  0  0  0  0  0  0  0  0  0  0  0
   56.2870   29.0650   52.9690 S   0  0  0  0  0  0  0  0  0  0  0  0
   55.2800   30.3080   52.3980 C   0  0  0  0  0  0  0  0  0  0  0  0
   53.8550   30.5050   52.8140 C   0  0  0  0  0  0  0  0  0  0  0  0
   53.4226   29.5285   53.0774 H   0  0  0  0  0  0  0  0  0  0  0  0
   53.8415   31.1884   53.6758 H   0  0  0  0  0  0  0  0  0  0  0  0
   53.0120   31.1370   51.6870 C   0  0  0  0  0  0  0  0  0  0  0  0
   53.6119   31.9337   51.2229 H   0  0  0  0  0  0  0  0  0  0  0  0
   52.6670   30.1080   50.6000 C   0  0  0  0  0  0  0  0  0  0  0  0
   52.3513   29.1665   51.0733 H   0  0  0  0  0  0  0  0  0  0  0  0
   51.8497   30.4958   49.9741 H   0  0  0  0  0  0  0  0  0  0  0  0
   53.5529   29.9248   49.9741 H   0  0  0  0  0  0  0  0  0  0  0  0
   51.7260   31.7400   52.2650 C   0  0  0  0  0  0  0  0  0  0  0  0
   51.7724   31.7182   53.3638 H   0  0  0  0  0  0  0  0  0  0  0  0
   51.6228   32.7804   51.9229 H   0  0  0  0  0  0  0  0  0  0  0  0
   50.8602   31.1540   51.9229 H   0  0  0  0  0  0  0  0  0  0  0  0
   55.9350   31.1400   51.5520 N   0  0  0  0  0  0  0  0  0  0  0  0
   57.1990   30.7710   51.3620 N   0  0  0  0  0  0  0  0  0  0  0  0
   58.0870   31.4210   50.5630 C   0  0  0  0  0  0  0  0  0  0  0  0
   57.7530   32.4680   49.9460 O   0  0  0  0  0  0  0  0  0  0  0  0
   59.3910   30.9180   50.4530 C   0  0  0  0  0  0  0  0  0  0  0  0
   60.1326   31.4199   49.8142 H   0  0  0  0  0  0  0  0  0  0  0  0
   59.1700   28.9140   48.0280 C   0  0  0  0  0  0  0  0  0  0  0  0
   59.5162   29.7947   48.5888 H   0  0  0  0  0  0  0  0  0  0  0  0
   58.1930   29.0620   47.0380 C   0  0  0  0  0  0  0  0  0  0  0  0
   57.7821   30.0586   46.8191 H   0  0  0  0  0  0  0  0  0  0  0  0
   58.3120   30.6540   44.1980 C   0  0  0  0  0  0  0  0  0  0  0  0
   59.2841   30.2308   43.9050 H   0  0  0  0  0  0  0  0  0  0  0  0
   58.3020   31.8630   45.0570 C   0  0  0  0  0  0  0  0  0  0  0  0
   57.3950   32.8920   44.7610 C   0  0  0  0  0  0  0  0  0  0  0  0
   56.6905   32.7747   43.9244 H   0  0  0  0  0  0  0  0  0  0  0  0
   57.3800   34.0630   45.5200 C   0  0  0  0  0  0  0  0  0  0  0  0
   56.6587   34.8592   45.2836 H   0  0  0  0  0  0  0  0  0  0  0  0
   58.2760   34.2290   46.5780 C   0  0  0  0  0  0  0  0  0  0  0  0
   58.2520   35.1534   47.1737 H   0  0  0  0  0  0  0  0  0  0  0  0
   59.2100   33.2220   46.8880 C   0  0  0  0  0  0  0  0  0  0  0  0
   60.1910   33.3940   47.9940 C   0  0  0  0  0  0  0  0  0  0  0  0
   59.9920   34.2720   48.8770 O   0  0  0  0  0  0  0  0  0  0  0  0
   61.4320   32.5580   48.0910 C   0  0  0  0  0  0  0  0  0  0  0  0
   61.6798   32.3911   49.1496 H   0  0  0  0  0  0  0  0  0  0  0  0
   61.2615   31.5899   47.5973 H   0  0  0  0  0  0  0  0  0  0  0  0
   62.2651   33.0797   47.5973 H   0  0  0  0  0  0  0  0  0  0  0  0
   59.2130   32.0410   46.1190 C   0  0  0  0  0  0  0  0  0  0  0  0
   59.9369   31.2458   46.3506 H   0  0  0  0  0  0  0  0  0  0  0  0
  1  2  1  0
  2  3  1  0
  3  4  2  0
  3  5  1  0
  5  6  1  0
  6  7  2  0
  7  8  1  0
  7  9  1  0
  9 10  1  0
  9 11  2  0
 11 12  1  0
 12 13  2  0
 12 14  1  0
 14 15  1  0
 15 16  1  0
 15 17  1  0
 15 18  1  0
 18 19  1  0
 19 20  2  0
 20 21  1  0
 21 22  1  0
 22 23  1  0
 23 24  1  0
 23 25  1  0
 23 26  1  0
 26 27  1  0
 26 28  1  0
 28 29  1  0
 28 30  1  0
 28 31  1  0
 26 32  1  0
 32 33  1  0
 32 34  1  0
 32 35  1  0
 22 36  2  0
 36 37  1  0
 37 38  1  0
 38 39  2  0
 38 40  1  0
 40 41  1  0
 11 42  1  0
 42 43  1  0
 42 44  2  0
 44 45  1  0
  2 46  2  0
 46 47  1  0
 46 48  1  0
 48 49  2  0
 49 50  1  0
 49 51  1  0
 51 52  1  0
 51 53  2  0
 53 54  1  0
 53 55  1  0
 55 56  1  0
 56 57  2  0
 56 58  1  0
 58 59  1  0
 58 60  1  0
 58 61  1  0
 55 62  2  0
 62 63  1  0
 44  6  1  0
 62 48  1  0
 40 18  2  0
 37 20  1  0
M  CHG  1   5  -1
M  END
>  <UniqueID>  (55) 
50

>  <SMILES>  (55) 
CC(=O)c1cccc(/C=C/C(=O)[N-]c2ccc(C(=O)OCc3cc(=O)n4nc(CC(C)C)sc4n3)cc2)c1

>  <Energy>  (55) 
102.62216960438026

>  <Genealogy>  (55) 
CC(=O)c1cccc(C=CC(=O)[N-]c2ccc(C(=O)OCc3cc(=O)n4nc(CC(C)C)sc4n3)cc2)c1 (protonated)
CC(=O)c1cccc(/C=C/C(=O)[N-]c2ccc(C(=O)OCc3cc(=O)n4nc(CC(C)C)sc4n3)cc2)c1 (cis-trans isomerization)
CC(=O)c1cccc(/C=C/C(=O)[N-]c2ccc(C(=O)OCc3cc(=O)n4nc(CC(C)C)sc4n3)cc2)c1 (3D coordinates assigned)
CC(=O)c1cccc(/C=C/C(=O)[N-]c2ccc(C(=O)OCc3cc(=O)n4nc(CC(C)C)sc4n3)cc2)c1 (optimized conformer: 102.62216960438026 kcal/mol)

>  <smiles>  (55) 
CC(=O)c1cccc(C=CC(=O)Nc2ccc(C(=O)OCc3cc(=O)n4nc(CC(C)C)sc4n3)cc2)c1

>  <score_type>  (55) 
oracle

>  <origin>  (55) 
adg

>  <m_score__min__energy>  (55) 
-12.619999999999999

>  <m_primary>  (55) 
energy

$$$$
55:0
     RDKit          3D

 45 48  0  0  0  0  0  0  0  0999 V2000
   55.5540   29.7960   43.2530 C   0  0  0  0  0  0  0  0  0  0  0  0
   56.5980   29.6610   44.0630 C   0  0  0  0  0  0  0  0  0  0  0  0
   56.8420   30.4680   45.1750 O   0  0  0  0  0  0  0  0  0  0  0  0
   58.0250   30.0110   45.7540 C   0  0  0  0  0  0  0  0  0  0  0  0
   58.6510   30.5180   46.8890 C   0  0  0  0  0  0  0  0  0  0  0  0
   59.8590   29.9180   47.3190 C   0  0  0  0  0  0  0  0  0  0  0  0
   60.5370   30.3630   48.4630 O   0  0  0  0  0  0  0  0  0  0  0  0
   59.9320   30.8780   49.6200 C   0  0  0  0  0  0  0  0  0  0  0  0
   60.4160   32.0760   50.1520 C   0  0  0  0  0  0  0  0  0  0  0  0
   59.8400   32.6200   51.3010 C   0  0  0  0  0  0  0  0  0  0  0  0
   58.7640   31.9800   51.9180 C   0  0  0  0  0  0  0  0  0  0  0  0
   58.2370   30.7920   51.3800 C   0  0  0  0  0  0  0  0  0  0  0  0
   57.0880   30.1270   52.0400 C   0  0  0  0  0  0  0  0  0  0  0  0
   57.3070   29.2430   52.9140 O   0  0  0  0  0  0  0  0  0  0  0  0
   55.7340   30.4850   51.7180 N   0  0  0  0  0  0  0  0  0  0  0  0
   54.5850   29.7860   52.2900 C   0  0  0  0  0  0  0  0  0  0  0  0
   53.3570   30.6540   52.2160 C   0  0  0  0  0  0  0  0  0  0  0  0
   52.5570   30.8350   53.3550 C   0  0  0  0  0  0  0  0  0  0  0  0
   51.4040   31.6240   53.2870 C   0  0  0  0  0  0  0  0  0  0  0  0
   51.0410   32.2340   52.0820 C   0  0  0  0  0  0  0  0  0  0  0  0
   49.8940   33.0160   52.0160 O   0  0  0  0  0  0  0  0  0  0  0  0
   51.8320   32.0540   50.9440 C   0  0  0  0  0  0  0  0  0  0  0  0
   52.9860   31.2670   51.0080 C   0  0  0  0  0  0  0  0  0  0  0  0
   58.8310   30.2450   50.2270 C   0  0  0  0  0  0  0  0  0  0  0  0
   60.3810   28.8120   46.6130 C   0  0  0  0  0  0  0  0  0  0  0  0
   59.7310   28.3150   45.4690 C   0  0  0  0  0  0  0  0  0  0  0  0
   58.5560   28.9410   45.0640 C   0  0  0  0  0  0  0  0  0  0  0  0
   57.6660   28.6700   43.9520 C   0  0  0  0  0  0  0  0  0  0  0  0
   57.7890   27.7670   43.0820 O   0  0  0  0  0  0  0  0  0  0  0  0
   55.4321   29.1182   42.3953 H   0  0  0  0  0  0  0  0  0  0  0  0
   54.8113   30.5856   43.4399 H   0  0  0  0  0  0  0  0  0  0  0  0
   58.2170   31.3657   47.4394 H   0  0  0  0  0  0  0  0  0  0  0  0
   61.2549   32.5928   49.6629 H   0  0  0  0  0  0  0  0  0  0  0  0
   60.2354   33.5563   51.7217 H   0  0  0  0  0  0  0  0  0  0  0  0
   58.3250   32.4077   52.8314 H   0  0  0  0  0  0  0  0  0  0  0  0
   55.5430   31.3120   51.1090 H   0  0  0  0  0  0  0  0  0  0  0  0
   54.4078   28.8576   51.7273 H   0  0  0  0  0  0  0  0  0  0  0  0
   54.7959   29.5527   53.3441 H   0  0  0  0  0  0  0  0  0  0  0  0
   52.8376   30.3549   54.3041 H   0  0  0  0  0  0  0  0  0  0  0  0
   50.7816   31.7649   54.1830 H   0  0  0  0  0  0  0  0  0  0  0  0
   51.5461   32.5326   49.9957 H   0  0  0  0  0  0  0  0  0  0  0  0
   53.6051   31.1276   50.1095 H   0  0  0  0  0  0  0  0  0  0  0  0
   58.4314   29.3149   49.7967 H   0  0  0  0  0  0  0  0  0  0  0  0
   61.3077   28.3331   46.9622 H   0  0  0  0  0  0  0  0  0  0  0  0
   60.1386   27.4585   44.9120 H   0  0  0  0  0  0  0  0  0  0  0  0
  1  2  2  0
  2  3  1  0
  3  4  1  0
  4  5  2  0
  5  6  1  0
  6  7  1  0
  7  8  1  0
  8  9  2  0
  9 10  1  0
 10 11  2  0
 11 12  1  0
 12 13  1  0
 13 14  2  0
 13 15  1  0
 15 16  1  0
 16 17  1  0
 17 18  2  0
 18 19  1  0
 19 20  2  0
 20 21  1  0
 20 22  1  0
 22 23  2  0
 12 24  2  0
  6 25  2  0
 25 26  1  0
 26 27  2  0
 27 28  1  0
 28 29  2  0
 28  2  1  0
 27  4  1  0
 24  8  1  0
 23 17  1  0
  1 30  1  0
  1 31  1  0
  5 32  1  0
  9 33  1  0
 10 34  1  0
 11 35  1  0
 15 36  1  0
 16 37  1  0
 16 38  1  0
 18 39  1  0
 19 40  1  0
 22 41  1  0
 23 42  1  0
 24 43  1  0
 25 44  1  0
 26 45  1  0
M  CHG  1  21  -1
M  END
>  <UniqueID>  (56) 
51

>  <SMILES>  (56) 
C=C1Oc2cc(Oc3cccc(C(=O)NCc4ccc([O-])cc4)c3)ccc2C1=O

>  <Energy>  (56) 
87.0260028589981

>  <Genealogy>  (56) 
C=C1Oc2cc(Oc3cccc(C(=O)NCc4ccc([O-])cc4)c3)ccc2C1=O (protonated)
C=C1Oc2cc(Oc3cccc(C(=O)NCc4ccc([O-])cc4)c3)ccc2C1=O (3D coordinates assigned)
C=C1Oc2cc(Oc3cccc(C(=O)NCc4ccc([O-])cc4)c3)ccc2C1=O (nonaromatic ring conformer: 87.0260028589981 kcal/mol)

>  <smiles>  (56) 
C=C1Oc2cc(Oc3cccc(C(=O)NCc4ccc(O)cc4)c3)ccc2C1=O

>  <score_type>  (56) 
oracle

>  <origin>  (56) 
adg

>  <m_score__min__energy>  (56) 
-14.050000000000001

>  <m_primary>  (56) 
energy

$$$$
56:0
     RDKit          3D

 55 57  0  0  0  0  0  0  0  0999 V2000
   64.0190   33.0870   46.9260 O   0  0  0  0  0  0  0  0  0  0  0  0
   63.0480   33.1490   47.7280 C   0  0  0  0  0  0  0  0  0  0  0  0
   61.7080   32.6200   47.3180 C   0  0  0  0  0  0  0  0  0  0  0  0
   60.7310   32.9830   48.3350 N   0  0  0  0  0  0  0  0  0  0  0  0
   59.3240   33.0410   48.0820 C   0  0  0  0  0  0  0  0  0  0  0  0
   58.5150   33.0570   49.0500 O   0  0  0  0  0  0  0  0  0  0  0  0
   58.8170   33.0160   46.6940 C   0  0  0  0  0  0  0  0  0  0  0  0
   58.7600   34.1950   45.9270 C   0  0  0  0  0  0  0  0  0  0  0  0
   58.2100   34.1780   44.6430 C   0  0  0  0  0  0  0  0  0  0  0  0
   57.7070   32.9880   44.1120 C   0  0  0  0  0  0  0  0  0  0  0  0
   57.7500   31.8060   44.8640 C   0  0  0  0  0  0  0  0  0  0  0  0
   57.0670   30.3100   44.2280 S   0  0  0  0  0  0  0  0  0  0  0  0
   56.2910   30.6320   42.9830 O   0  0  0  0  0  0  0  0  0  0  0  0
   56.1340   29.7010   45.2410 O   0  0  0  0  0  0  0  0  0  0  0  0
   58.3510   29.1770   43.8540 N   0  0  0  0  0  0  0  0  0  0  0  0
   57.8120   27.8380   43.5860 C   0  0  0  0  0  0  0  0  0  0  0  0
   57.8410   27.0630   44.8940 C   0  0  0  0  0  0  0  0  0  0  0  0
   58.8730   27.7670   45.7550 C   0  0  0  0  0  0  0  0  0  0  0  0
   59.2730   29.0240   44.9890 C   0  0  0  0  0  0  0  0  0  0  0  0
   58.3150   31.8220   46.1460 C   0  0  0  0  0  0  0  0  0  0  0  0
   63.2310   33.6850   49.0450 N   0  0  0  0  0  0  0  0  0  0  0  0
   64.4230   33.4660   49.8110 C   0  0  0  0  0  0  0  0  0  0  0  0
   65.3940   32.8340   49.3100 O   0  0  0  0  0  0  0  0  0  0  0  0
   64.4870   33.9230   51.1680 N   0  0  0  0  0  0  0  0  0  0  0  0
   65.5760   33.5540   52.0730 C   0  0  0  0  0  0  0  0  0  0  0  0
   66.8650   34.1980   51.6400 C   0  0  0  0  0  0  0  0  0  0  0  0
   67.1470   35.5240   52.0100 C   0  0  0  0  0  0  0  0  0  0  0  0
   68.3470   36.1250   51.6170 C   0  0  0  0  0  0  0  0  0  0  0  0
   69.2730   35.4070   50.8520 C   0  0  0  0  0  0  0  0  0  0  0  0
   69.0020   34.0860   50.4810 C   0  0  0  0  0  0  0  0  0  0  0  0
   67.8030   33.4810   50.8740 C   0  0  0  0  0  0  0  0  0  0  0  0
   61.4169   33.0583   46.3520 H   0  0  0  0  0  0  0  0  0  0  0  0
   61.7528   31.5257   47.2153 H   0  0  0  0  0  0  0  0  0  0  0  0
   59.1511   35.1359   46.3414 H   0  0  0  0  0  0  0  0  0  0  0  0
   58.1730   35.1032   44.0492 H   0  0  0  0  0  0  0  0  0  0  0  0
   57.2756   32.9785   43.1001 H   0  0  0  0  0  0  0  0  0  0  0  0
   58.8640   29.5250   43.0100 H   0  0  0  0  0  0  0  0  0  0  0  0
   56.7781   27.9160   43.2186 H   0  0  0  0  0  0  0  0  0  0  0  0
   58.4113   27.3257   42.8189 H   0  0  0  0  0  0  0  0  0  0  0  0
   56.8537   27.0879   45.3784 H   0  0  0  0  0  0  0  0  0  0  0  0
   58.0924   26.0037   44.7370 H   0  0  0  0  0  0  0  0  0  0  0  0
   58.4389   28.0352   46.7295 H   0  0  0  0  0  0  0  0  0  0  0  0
   59.7417   27.1214   45.9514 H   0  0  0  0  0  0  0  0  0  0  0  0
   59.2020   29.9015   45.6485 H   0  0  0  0  0  0  0  0  0  0  0  0
   60.3095   28.9395   44.6306 H   0  0  0  0  0  0  0  0  0  0  0  0
   58.3665   30.8912   46.7299 H   0  0  0  0  0  0  0  0  0  0  0  0
   62.4020   34.0990   49.5290 H   0  0  0  0  0  0  0  0  0  0  0  0
   63.6910   34.4800   51.5510 H   0  0  0  0  0  0  0  0  0  0  0  0
   65.3289   33.8885   53.0914 H   0  0  0  0  0  0  0  0  0  0  0  0
   65.7005   32.4613   52.0514 H   0  0  0  0  0  0  0  0  0  0  0  0
   66.4211   36.0914   52.6110 H   0  0  0  0  0  0  0  0  0  0  0  0
   68.5632   37.1631   51.9095 H   0  0  0  0  0  0  0  0  0  0  0  0
   70.2154   35.8822   50.5420 H   0  0  0  0  0  0  0  0  0  0  0  0
   69.7313   33.5227   49.8803 H   0  0  0  0  0  0  0  0  0  0  0  0
   67.5928   32.4412   50.5832 H   0  0  0  0  0  0  0  0  0  0  0  0
  1  2  2  0
  2  3  1  0
  3  4  1  0
  4  5  1  0
  5  6  2  0
  5  7  1  0
  7  8  2  0
  8  9  1  0
  9 10  2  0
 10 11  1  0
 11 12  1  0
 12 13  2  0
 12 14  2  0
 12 15  1  0
 15 16  1  0
 16 17  1  0
 17 18  1  0
 18 19  1  0
 11 20  2  0
  2 21  1  0
 21 22  1  0
 22 23  2  0
 22 24  1  0
 24 25  1  0
 25 26  1  0
 26 27  2  0
 27 28  1  0
 28 29  2  0
 29 30  1  0
 30 31  2  0
 20  7  1  0
 31 26  1  0
 19 15  1  0
  3 32  1  0
  3 33  1  0
  8 34  1  0
  9 35  1  0
 10 36  1  0
 15 37  1  0
 16 38  1  0
 16 39  1  0
 17 40  1  0
 17 41  1  0
 18 42  1  0
 18 43  1  0
 19 44  1  0
 19 45  1  0
 20 46  1  0
 21 47  1  0
 24 48  1  0
 25 49  1  0
 25 50  1  0
 27 51  1  0
 28 52  1  0
 29 53  1  0
 30 54  1  0
 31 55  1  0
M  CHG  2   4  -1  15   1
M  END
>  <UniqueID>  (57) 
52

>  <SMILES>  (57) 
O=C(C[N-]C(=O)c1cccc(S(=O)(=O)[NH+]2CCCC2)c1)NC(=O)NCc1ccccc1

>  <Energy>  (57) 
53.71969733883935

>  <Genealogy>  (57) 
O=C(C[N-]C(=O)c1cccc(S(=O)(=O)[NH+]2CCCC2)c1)NC(=O)NCc1ccccc1 (protonated)
O=C(C[N-]C(=O)c1cccc(S(=O)(=O)[NH+]2CCCC2)c1)NC(=O)NCc1ccccc1 (3D coordinates assigned)
O=C(C[N-]C(=O)c1cccc(S(=O)(=O)[NH+]2CCCC2)c1)NC(=O)NCc1ccccc1 (nonaromatic ring conformer: 53.71969733883935 kcal/mol)

>  <smiles>  (57) 
O=C(CNC(=O)c1cccc(S(=O)(=O)N2CCCC2)c1)NC(=O)NCc1ccccc1

>  <score_type>  (57) 
oracle

>  <origin>  (57) 
adg

>  <m_score__min__energy>  (57) 
-10.640000000000001

>  <m_primary>  (57) 
energy

$$$$
57:0
     RDKit          3D

 47 49  0  0  0  0  0  0  0  0999 V2000
   55.2730   26.5890   46.0890 N   0  0  0  0  0  0  0  0  0  0  0  0
   56.6950   26.4700   46.1480 C   0  0  0  0  0  0  0  0  0  0  0  0
   57.2040   25.3450   46.4020 O   0  0  0  0  0  0  0  0  0  0  0  0
   57.5570   27.6480   45.8670 C   0  0  0  0  0  0  0  0  0  0  0  0
   58.9440   27.5180   46.0500 C   0  0  0  0  0  0  0  0  0  0  0  0
   59.7920   28.6030   45.8620 C   0  0  0  0  0  0  0  0  0  0  0  0
   59.2750   29.8380   45.4820 C   0  0  0  0  0  0  0  0  0  0  0  0
   57.8940   30.0150   45.2770 C   0  0  0  0  0  0  0  0  0  0  0  0
   57.4180   31.3580   44.8420 C   0  0  0  0  0  0  0  0  0  0  0  0
   56.2290   31.5330   44.4680 O   0  0  0  0  0  0  0  0  0  0  0  0
   58.3310   32.4650   44.8300 N   0  0  0  0  0  0  0  0  0  0  0  0
   58.8160   33.1780   45.9780 C   0  0  0  0  0  0  0  0  0  0  0  0
   59.3040   34.4780   45.8060 C   0  0  0  0  0  0  0  0  0  0  0  0
   59.8220   35.1880   46.8920 C   0  0  0  0  0  0  0  0  0  0  0  0
   59.8740   34.5980   48.1570 C   0  0  0  0  0  0  0  0  0  0  0  0
   59.4080   33.2850   48.3420 C   0  0  0  0  0  0  0  0  0  0  0  0
   59.4620   32.6290   49.6160 N   0  0  0  0  0  0  0  0  0  0  0  0
   59.5700   30.9160   49.8570 S   0  0  0  0  0  0  0  0  0  0  0  0
   59.3320   30.5940   51.3050 O   0  0  0  0  0  0  0  0  0  0  0  0
   58.5540   30.2080   49.0030 O   0  0  0  0  0  0  0  0  0  0  0  0
   61.2090   30.3720   49.4050 C   0  0  0  0  0  0  0  0  0  0  0  0
   62.0280   31.5330   48.9150 C   0  0  0  0  0  0  0  0  0  0  0  0
   62.5450   32.4700   49.8280 C   0  0  0  0  0  0  0  0  0  0  0  0
   63.3410   33.5260   49.3740 C   0  0  0  0  0  0  0  0  0  0  0  0
   63.6350   33.6490   48.0140 C   0  0  0  0  0  0  0  0  0  0  0  0
   63.1320   32.7160   47.1020 C   0  0  0  0  0  0  0  0  0  0  0  0
   62.3330   31.6610   47.5500 C   0  0  0  0  0  0  0  0  0  0  0  0
   58.8830   32.5820   47.2500 C   0  0  0  0  0  0  0  0  0  0  0  0
   57.0240   28.9020   45.4660 C   0  0  0  0  0  0  0  0  0  0  0  0
   55.6220   29.0170   45.1850 N   0  0  0  0  0  0  0  0  0  0  0  0
   54.7830   26.7090   45.1770 H   0  0  0  0  0  0  0  0  0  0  0  0
   59.3640   26.5453   46.3458 H   0  0  0  0  0  0  0  0  0  0  0  0
   60.8751   28.4852   46.0140 H   0  0  0  0  0  0  0  0  0  0  0  0
   59.9568   30.6894   45.3396 H   0  0  0  0  0  0  0  0  0  0  0  0
   59.2797   34.9438   44.8098 H   0  0  0  0  0  0  0  0  0  0  0  0
   60.1901   36.2149   46.7504 H   0  0  0  0  0  0  0  0  0  0  0  0
   60.2803   35.1618   49.0097 H   0  0  0  0  0  0  0  0  0  0  0  0
   61.6990   29.9277   50.2839 H   0  0  0  0  0  0  0  0  0  0  0  0
   61.1290   29.6261   48.6005 H   0  0  0  0  0  0  0  0  0  0  0  0
   62.3227   32.3717   50.9008 H   0  0  0  0  0  0  0  0  0  0  0  0
   63.7367   34.2618   50.0896 H   0  0  0  0  0  0  0  0  0  0  0  0
   64.2626   34.4803   47.6603 H   0  0  0  0  0  0  0  0  0  0  0  0
   63.3655   32.8127   46.0314 H   0  0  0  0  0  0  0  0  0  0  0  0
   61.9410   30.9272   46.8303 H   0  0  0  0  0  0  0  0  0  0  0  0
   58.5194   31.5532   47.3889 H   0  0  0  0  0  0  0  0  0  0  0  0
   55.0740   28.1830   44.8780 H   0  0  0  0  0  0  0  0  0  0  0  0
   55.0930   29.8820   45.4260 H   0  0  0  0  0  0  0  0  0  0  0  0
  1  2  1  0
  2  3  2  0
  2  4  1  0
  4  5  2  0
  5  6  1  0
  6  7  2  0
  7  8  1  0
  8  9  1  0
  9 10  2  0
  9 11  1  0
 11 12  1  0
 12 13  2  0
 13 14  1  0
 14 15  2  0
 15 16  1  0
 16 17  1  0
 17 18  1  0
 18 19  2  0
 18 20  2  0
 18 21  1  0
 21 22  1  0
 22 23  2  0
 23 24  1  0
 24 25  2  0
 25 26  1  0
 26 27  2  0
 16 28  2  0
  8 29  2  0
 29 30  1  0
 29  4  1  0
 28 12  1  0
 27 22  1  0
  1 31  1  0
  5 32  1  0
  6 33  1  0
  7 34  1  0
 13 35  1  0
 14 36  1  0
 15 37  1  0
 21 38  1  0
 21 39  1  0
 23 40  1  0
 24 41  1  0
 25 42  1  0
 26 43  1  0
 27 44  1  0
 28 45  1  0
 30 46  1  0
 30 47  1  0
M  CHG  3   1  -1  11  -1  17  -1
M  END
>  <UniqueID>  (58) 
53

>  <SMILES>  (58) 
[NH-]C(=O)c1cccc(C(=O)[N-]c2cccc([N-]S(=O)(=O)Cc3ccccc3)c2)c1N

>  <Energy>  (58) 
64.76478112990216

>  <Genealogy>  (58) 
[NH-]C(=O)c1cccc(C(=O)[N-]c2cccc([N-]S(=O)(=O)Cc3ccccc3)c2)c1N (protonated)
[NH-]C(=O)c1cccc(C(=O)[N-]c2cccc([N-]S(=O)(=O)Cc3ccccc3)c2)c1N (3D coordinates assigned)
[NH-]C(=O)c1cccc(C(=O)[N-]c2cccc([N-]S(=O)(=O)Cc3ccccc3)c2)c1N (optimized conformer: 64.76478112990216 kcal/mol)

>  <smiles>  (58) 
NC(=O)c1cccc(C(=O)Nc2cccc(NS(=O)(=O)Cc3ccccc3)c2)c1N

>  <score_type>  (58) 
oracle

>  <origin>  (58) 
adg

>  <m_score__min__energy>  (58) 
-14.52

>  <m_primary>  (58) 
energy

$$$$
58:0
     RDKit          3D

 52 55  0  0  1  0  0  0  0  0999 V2000
   59.2740   35.2990   45.0160 C   0  0  0  0  0  0  0  0  0  0  0  0
   58.1080   34.4100   45.3950 C   0  0  1  0  0  0  0  0  0  0  0  0
   58.0040   33.1660   44.5390 C   0  0  0  0  0  0  0  0  0  0  0  0
   57.9310   31.9740   45.2170 N   0  0  0  0  0  0  0  0  0  0  0  0
   57.2190   30.6730   44.4290 S   0  0  0  0  0  0  0  0  0  0  0  0
   55.7290   30.5470   44.6750 O   0  0  0  0  0  0  0  0  0  0  0  0
   57.3940   30.8370   42.9240 O   0  0  0  0  0  0  0  0  0  0  0  0
   58.0500   29.2000   44.8840 C   0  0  0  0  0  0  0  0  0  0  0  0
   59.3380   29.3240   45.3280 C   0  0  0  0  0  0  0  0  0  0  0  0
   60.0400   28.2240   45.7500 C   0  0  0  0  0  0  0  0  0  0  0  0
   59.4270   27.0040   45.7210 C   0  0  0  0  0  0  0  0  0  0  0  0
   58.1000   26.8270   45.2750 C   0  0  0  0  0  0  0  0  0  0  0  0
   57.5040   25.5440   45.2550 N   0  0  0  0  0  0  0  0  0  0  0  0
   56.1650   25.2560   45.6150 C   0  0  0  0  0  0  0  0  0  0  0  0
   55.3420   26.1100   46.0340 O   0  0  0  0  0  0  0  0  0  0  0  0
   55.6940   23.8840   45.4850 C   0  0  0  0  0  0  0  0  0  0  0  0
   54.3170   23.6170   45.3800 C   0  0  0  0  0  0  0  0  0  0  0  0
   54.1210   22.2900   45.3020 N   0  0  0  0  0  0  0  0  0  0  0  0
   55.3520   21.7050   45.3580 C   0  0  0  0  0  0  0  0  0  0  0  0
   55.6640   20.3950   45.3300 N   0  0  0  0  0  0  0  0  0  0  0  0
   56.9930   20.0710   45.4170 C   0  0  0  0  0  0  0  0  0  0  0  0
   57.9500   21.0090   45.5230 N   0  0  0  0  0  0  0  0  0  0  0  0
   57.6380   22.3390   45.5500 C   0  0  0  0  0  0  0  0  0  0  0  0
   58.5850   23.1570   45.6400 N   0  0  0  0  0  0  0  0  0  0  0  0
   56.3330   22.6850   45.4690 C   0  0  0  0  0  0  0  0  0  0  0  0
   57.4080   27.9530   44.8490 C   0  0  0  0  0  0  0  0  0  0  0  0
   58.0420   31.8590   46.6090 C   0  0  0  0  0  0  0  0  0  0  0  0
   58.8960   33.0540   47.0840 C   0  0  2  0  0  0  0  0  0  0  0  0
   58.9530   32.9250   48.5810 C   0  0  0  0  0  0  0  0  0  0  0  0
   58.1450   34.1580   46.7610 O   0  0  0  0  0  0  0  0  0  0  0  0
   59.7627   35.6716   45.9283 H   0  0  0  0  0  0  0  0  0  0  0  0
   59.9977   34.7213   44.4222 H   0  0  0  0  0  0  0  0  0  0  0  0
   58.9086   36.1498   44.4222 H   0  0  0  0  0  0  0  0  0  0  0  0
   57.1716   34.9455   45.1798 H   0  0  0  0  0  0  0  0  0  0  0  0
   57.0990   33.2576   43.9205 H   0  0  0  0  0  0  0  0  0  0  0  0
   58.9400   33.1230   43.9627 H   0  0  0  0  0  0  0  0  0  0  0  0
   59.8150   30.3150   45.3467 H   0  0  0  0  0  0  0  0  0  0  0  0
   61.0765   28.3225   46.1049 H   0  0  0  0  0  0  0  0  0  0  0  0
   59.9913   26.1225   46.0595 H   0  0  0  0  0  0  0  0  0  0  0  0
   58.0880   24.7410   44.9410 H   0  0  0  0  0  0  0  0  0  0  0  0
   53.5226   24.3777   45.3642 H   0  0  0  0  0  0  0  0  0  0  0  0
   53.1920   21.8370   45.2190 H   0  0  0  0  0  0  0  0  0  0  0  0
   57.2854   19.0107   45.3995 H   0  0  0  0  0  0  0  0  0  0  0  0
   58.9510   20.7030   45.5830 H   0  0  0  0  0  0  0  0  0  0  0  0
   59.3490   23.3850   45.0250 H   0  0  0  0  0  0  0  0  0  0  0  0
   56.3719   27.8685   44.4894 H   0  0  0  0  0  0  0  0  0  0  0  0
   57.0456   31.8963   47.0735 H   0  0  0  0  0  0  0  0  0  0  0  0
   58.5060   30.9027   46.8921 H   0  0  0  0  0  0  0  0  0  0  0  0
   59.9067   33.1075   46.6531 H   0  0  0  0  0  0  0  0  0  0  0  0
   58.5496   33.8380   49.0433 H   0  0  0  0  0  0  0  0  0  0  0  0
   58.3540   32.0583   48.8974 H   0  0  0  0  0  0  0  0  0  0  0  0
   59.9971   32.7843   48.8974 H   0  0  0  0  0  0  0  0  0  0  0  0
  1  2  1  0
  2  3  1  0
  3  4  1  0
  4  5  1  0
  5  6  2  0
  5  7  2  0
  5  8  1  0
  8  9  2  0
  9 10  1  0
 10 11  2  0
 11 12  1  0
 12 13  1  0
 13 14  1  0
 14 15  2  0
 14 16  1  0
 16 17  2  0
 17 18  1  0
 18 19  1  0
 19 20  1  0
 20 21  2  0
 21 22  1  0
 22 23  1  0
 23 24  2  3
 23 25  1  0
 12 26  2  0
  4 27  1  0
 27 28  1  0
 28 29  1  0
 28 30  1  0
 30  2  1  0
 26  8  1  0
 25 16  1  0
 25 19  2  0
  1 31  1  0
  1 32  1  0
  1 33  1  0
  2 34  1  1
  3 35  1  0
  3 36  1  0
  9 37  1  0
 10 38  1  0
 11 39  1  0
 13 40  1  0
 17 41  1  0
 18 42  1  0
 21 43  1  0
 22 44  1  0
 24 45  1  0
 26 46  1  0
 27 47  1  0
 27 48  1  0
 28 49  1  6
 29 50  1  0
 29 51  1  0
 29 52  1  0
M  END
>  <smiles>  (59) 
CC1CN(S(=O)(=O)c2cccc(NC(=O)c3c[nH]c4nc[nH]c(=N)c34)c2)CC(C)O1

>  <score_type>  (59) 
oracle

>  <origin>  (59) 
adg

>  <m_score__min__energy>  (59) 
-9.6199999999999992

>  <m_primary>  (59) 
energy

$$$$
59:0
     RDKit          3D

 53 56  0  0  0  0  0  0  0  0999 V2000
   59.8190   28.7540   44.7810 C   0  0  0  0  0  0  0  0  0  0  0  0
   58.4030   28.5070   45.0570 N   0  0  0  0  0  0  0  0  0  0  0  0
   57.9020   27.3400   45.5080 C   0  0  0  0  0  0  0  0  0  0  0  0
   56.5300   27.4450   45.6160 C   0  0  0  0  0  0  0  0  0  0  0  0
   55.6070   26.4000   45.9480 N   0  0  0  0  0  0  0  0  0  0  0  0
   55.9630   25.0880   46.3930 C   0  0  0  0  0  0  0  0  0  0  0  0
   55.9400   24.8400   47.6240 O   0  0  0  0  0  0  0  0  0  0  0  0
   56.4010   24.0390   45.4530 C   0  0  0  0  0  0  0  0  0  0  0  0
   56.2410   24.0960   43.7760 S   0  0  0  0  0  0  0  0  0  0  0  0
   57.0090   22.6290   43.4650 C   0  0  0  0  0  0  0  0  0  0  0  0
   57.4110   22.0790   44.6770 C   0  0  0  0  0  0  0  0  0  0  0  0
   57.0740   22.8700   45.7840 C   0  0  0  0  0  0  0  0  0  0  0  0
   57.3800   22.5100   47.0950 O   0  0  0  0  0  0  0  0  0  0  0  0
   56.1720   28.7040   45.1900 C   0  0  0  0  0  0  0  0  0  0  0  0
   57.3550   29.3450   44.8560 C   0  0  0  0  0  0  0  0  0  0  0  0
   57.4290   30.7120   44.2970 C   0  0  0  0  0  0  0  0  0  0  0  0
   57.7270   30.8690   43.0820 O   0  0  0  0  0  0  0  0  0  0  0  0
   57.1190   31.8500   45.1100 N   0  0  0  0  0  0  0  0  0  0  0  0
   57.9950   32.4780   46.0570 C   0  0  0  0  0  0  0  0  0  0  0  0
   58.3790   33.8250   45.9320 C   0  0  0  0  0  0  0  0  0  0  0  0
   59.3000   34.3810   46.8240 C   0  0  0  0  0  0  0  0  0  0  0  0
   59.8630   33.5990   47.8460 C   0  0  0  0  0  0  0  0  0  0  0  0
   60.8940   34.1930   48.7810 C   0  0  0  0  0  0  0  0  0  0  0  0
   62.2720   34.2010   48.2280 N   0  0  0  0  0  0  0  0  0  0  0  0
   63.3490   33.9350   49.2070 C   0  0  0  0  0  0  0  0  0  0  0  0
   63.9660   32.5360   49.0430 C   0  0  0  0  0  0  0  0  0  0  0  0
   63.0340   31.6440   48.4730 O   0  0  0  0  0  0  0  0  0  0  0  0
   62.8020   31.9980   47.1240 C   0  0  0  0  0  0  0  0  0  0  0  0
   62.4370   33.4920   46.9440 C   0  0  0  0  0  0  0  0  0  0  0  0
   59.4630   32.2590   47.9790 C   0  0  0  0  0  0  0  0  0  0  0  0
   58.5480   31.7010   47.0810 C   0  0  0  0  0  0  0  0  0  0  0  0
   60.3664   28.8495   45.7303 H   0  0  0  0  0  0  0  0  0  0  0  0
   60.2317   27.9143   44.2026 H   0  0  0  0  0  0  0  0  0  0  0  0
   59.9231   29.6839   44.2026 H   0  0  0  0  0  0  0  0  0  0  0  0
   58.4933   26.4450   45.7516 H   0  0  0  0  0  0  0  0  0  0  0  0
   57.1657   22.1824   42.4720 H   0  0  0  0  0  0  0  0  0  0  0  0
   57.9409   21.1185   44.7590 H   0  0  0  0  0  0  0  0  0  0  0  0
   56.8880   22.9220   47.8790 H   0  0  0  0  0  0  0  0  0  0  0  0
   55.1545   29.1173   45.1273 H   0  0  0  0  0  0  0  0  0  0  0  0
   57.9526   34.4437   45.1286 H   0  0  0  0  0  0  0  0  0  0  0  0
   59.5861   35.4385   46.7251 H   0  0  0  0  0  0  0  0  0  0  0  0
   60.6036   35.2305   49.0031 H   0  0  0  0  0  0  0  0  0  0  0  0
   60.9137   33.5591   49.6798 H   0  0  0  0  0  0  0  0  0  0  0  0
   64.1406   34.6869   49.0727 H   0  0  0  0  0  0  0  0  0  0  0  0
   62.9054   33.9874   50.2122 H   0  0  0  0  0  0  0  0  0  0  0  0
   64.8473   32.6045   48.3883 H   0  0  0  0  0  0  0  0  0  0  0  0
   64.2558   32.1587   50.0348 H   0  0  0  0  0  0  0  0  0  0  0  0
   63.7132   31.7877   46.5449 H   0  0  0  0  0  0  0  0  0  0  0  0
   61.9450   31.4054   46.7714 H   0  0  0  0  0  0  0  0  0  0  0  0
   63.2384   33.9828   46.3723 H   0  0  0  0  0  0  0  0  0  0  0  0
   61.4728   33.5353   46.4164 H   0  0  0  0  0  0  0  0  0  0  0  0
   59.8722   31.6448   48.7947 H   0  0  0  0  0  0  0  0  0  0  0  0
   58.2608   30.6438   47.1802 H   0  0  0  0  0  0  0  0  0  0  0  0
  1  2  1  0
  2  3  1  0
  3  4  2  0
  4  5  1  0
  5  6  1  0
  6  7  2  0
  6  8  1  0
  8  9  1  0
  9 10  1  0
 10 11  2  0
 11 12  1  0
 12 13  1  0
  4 14  1  0
 14 15  2  0
 15 16  1  0
 16 17  2  0
 16 18  1  0
 18 19  1  0
 19 20  2  0
 20 21  1  0
 21 22  2  0
 22 23  1  0
 23 24  1  0
 24 25  1  0
 25 26  1  0
 26 27  1  0
 27 28  1  0
 28 29  1  0
 22 30  1  0
 30 31  2  0
 15  2  1  0
 31 19  1  0
 12  8  2  0
 29 24  1  0
  1 32  1  0
  1 33  1  0
  1 34  1  0
  3 35  1  0
 10 36  1  0
 11 37  1  0
 13 38  1  0
 14 39  1  0
 20 40  1  0
 21 41  1  0
 23 42  1  0
 23 43  1  0
 25 44  1  0
 25 45  1  0
 26 46  1  0
 26 47  1  0
 28 48  1  0
 28 49  1  0
 29 50  1  0
 29 51  1  0
 30 52  1  0
 31 53  1  0
M  CHG  2   5  -1  18  -1
M  END
>  <UniqueID>  (60) 
54

>  <SMILES>  (60) 
Cn1cc([N-]C(=O)c2sccc2O)cc1C(=O)[N-]c1ccc(CN2CCOCC2)cc1

>  <Energy>  (60) 
132.8345500317613

>  <Genealogy>  (60) 
Cn1cc([N-]C(=O)c2sccc2O)cc1C(=O)[N-]c1ccc(CN2CCOCC2)cc1 (protonated)
Cn1cc([N-]C(=O)c2sccc2O)cc1C(=O)[N-]c1ccc(CN2CCOCC2)cc1 (3D coordinates assigned)
Cn1cc([N-]C(=O)c2sccc2O)cc1C(=O)[N-]c1ccc(CN2CCOCC2)cc1 (nonaromatic ring conformer: 132.8345500317613 kcal/mol)

>  <smiles>  (60) 
Cn1cc(NC(=O)c2sccc2O)cc1C(=O)Nc1ccc(CN2CCOCC2)cc1

>  <score_type>  (60) 
oracle

>  <origin>  (60) 
adg

>  <m_score__min__energy>  (60) 
-11.789999999999999

>  <m_primary>  (60) 
energy

$$$$
60:0
     RDKit          3D

 68 71  0  0  0  0  0  0  0  0999 V2000
   59.6990   34.5650   49.3120 C   0  0  0  0  0  0  0  0  0  0  0  0
   59.8310   34.7190   47.8010 C   0  0  0  0  0  0  0  0  0  0  0  0
   59.7520   33.4500   47.1560 O   0  0  0  0  0  0  0  0  0  0  0  0
   58.6800   32.5630   47.3200 C   0  0  0  0  0  0  0  0  0  0  0  0
   58.2200   32.3320   48.4720 O   0  0  0  0  0  0  0  0  0  0  0  0
   58.1010   31.8770   46.1370 C   0  0  0  0  0  0  0  0  0  0  0  0
   57.7800   32.5940   44.9530 C   0  0  0  0  0  0  0  0  0  0  0  0
   57.9360   34.0880   44.8540 C   0  0  0  0  0  0  0  0  0  0  0  0
   57.2810   31.8970   43.8420 C   0  0  0  0  0  0  0  0  0  0  0  0
   57.0620   30.5190   43.9230 C   0  0  0  0  0  0  0  0  0  0  0  0
   56.5090   29.7670   42.7530 C   0  0  0  0  0  0  0  0  0  0  0  0
   57.3520   29.8590   45.0720 N   0  0  0  0  0  0  0  0  0  0  0  0
   57.8610   30.4830   46.1690 C   0  0  0  0  0  0  0  0  0  0  0  0
   58.1510   29.7220   47.3510 N   0  0  0  0  0  0  0  0  0  0  0  0
   58.5890   28.3580   47.3780 C   0  0  0  0  0  0  0  0  0  0  0  0
   57.8730   27.4400   46.8930 O   0  0  0  0  0  0  0  0  0  0  0  0
   59.9050   28.0190   48.0040 C   0  0  0  0  0  0  0  0  0  0  0  0
   60.5730   29.2520   48.4700 N   0  0  0  0  0  0  0  0  0  0  0  0
   61.1520   30.0990   47.5650 C   0  0  0  0  0  0  0  0  0  0  0  0
   61.1300   29.8200   46.3310 O   0  0  0  0  0  0  0  0  0  0  0  0
   61.7750   31.2760   47.9970 C   0  0  0  0  0  0  0  0  0  0  0  0
   62.4100   32.1390   47.0820 C   0  0  0  0  0  0  0  0  0  0  0  0
   63.0420   33.2980   47.5260 C   0  0  0  0  0  0  0  0  0  0  0  0
   63.0480   33.6110   48.8820 C   0  0  0  0  0  0  0  0  0  0  0  0
   62.4180   32.7720   49.8020 C   0  0  0  0  0  0  0  0  0  0  0  0
   61.7580   31.5890   49.3770 C   0  0  0  0  0  0  0  0  0  0  0  0
   61.1070   30.7500   50.2610 N   0  0  0  0  0  0  0  0  0  0  0  0
   60.9920   31.0790   51.7020 C   0  0  0  0  0  0  0  0  0  0  0  0
   59.9900   32.1710   51.9240 C   0  0  0  0  0  0  0  0  0  0  0  0
   60.3280   33.2110   52.5500 O   0  0  0  0  0  0  0  0  0  0  0  0
   58.6630   32.0290   51.4000 N   0  0  0  0  0  0  0  0  0  0  0  0
   57.6540   31.1190   51.8590 C   0  0  0  0  0  0  0  0  0  0  0  0
   58.0440   30.0190   52.6290 C   0  0  0  0  0  0  0  0  0  0  0  0
   57.0910   29.1290   53.1330 C   0  0  0  0  0  0  0  0  0  0  0  0
   55.7210   29.3390   52.8860 C   0  0  0  0  0  0  0  0  0  0  0  0
   54.7320   28.4720   53.3800 O   0  0  0  0  0  0  0  0  0  0  0  0
   54.9910   27.1920   53.9470 C   0  0  0  0  0  0  0  0  0  0  0  0
   55.3280   30.4520   52.1270 C   0  0  0  0  0  0  0  0  0  0  0  0
   53.6260   30.7600   51.8150 Cl  0  0  0  0  0  0  0  0  0  0  0  0
   56.2860   31.3400   51.6220 C   0  0  0  0  0  0  0  0  0  0  0  0
   60.5510   29.5760   49.8040 C   0  0  0  0  0  0  0  0  0  0  0  0
   60.0050   28.7800   50.6220 O   0  0  0  0  0  0  0  0  0  0  0  0
   60.3362   35.3084   49.8134 H   0  0  0  0  0  0  0  0  0  0  0  0
   58.6509   34.7222   49.6064 H   0  0  0  0  0  0  0  0  0  0  0  0
   60.0147   33.5532   49.6064 H   0  0  0  0  0  0  0  0  0  0  0  0
   59.0194   35.3630   47.4315 H   0  0  0  0  0  0  0  0  0  0  0  0
   60.8087   35.1698   47.5757 H   0  0  0  0  0  0  0  0  0  0  0  0
   57.9811   34.5197   45.8647 H   0  0  0  0  0  0  0  0  0  0  0  0
   58.8637   34.3247   44.3125 H   0  0  0  0  0  0  0  0  0  0  0  0
   57.0772   34.5113   44.3125 H   0  0  0  0  0  0  0  0  0  0  0  0
   57.0623   32.4349   42.9078 H   0  0  0  0  0  0  0  0  0  0  0  0
   55.8932   28.9297   43.1132 H   0  0  0  0  0  0  0  0  0  0  0  0
   55.8901   30.4414   42.1430 H   0  0  0  0  0  0  0  0  0  0  0  0
   57.3372   29.3772   42.1430 H   0  0  0  0  0  0  0  0  0  0  0  0
   59.7397   27.3480   48.8598 H   0  0  0  0  0  0  0  0  0  0  0  0
   60.5429   27.5211   47.2588 H   0  0  0  0  0  0  0  0  0  0  0  0
   62.4066   31.8956   46.0093 H   0  0  0  0  0  0  0  0  0  0  0  0
   63.5363   33.9658   46.8051 H   0  0  0  0  0  0  0  0  0  0  0  0
   63.5520   34.5246   49.2304 H   0  0  0  0  0  0  0  0  0  0  0  0
   62.4329   33.0307   50.8710 H   0  0  0  0  0  0  0  0  0  0  0  0
   60.6736   30.1811   52.2519 H   0  0  0  0  0  0  0  0  0  0  0  0
   61.9724   31.4236   52.0627 H   0  0  0  0  0  0  0  0  0  0  0  0
   59.1106   29.8524   52.8402 H   0  0  0  0  0  0  0  0  0  0  0  0
   57.4132   28.2601   53.7256 H   0  0  0  0  0  0  0  0  0  0  0  0
   54.9758   27.2672   55.0443 H   0  0  0  0  0  0  0  0  0  0  0  0
   54.2184   26.4818   53.6174 H   0  0  0  0  0  0  0  0  0  0  0  0
   55.9790   26.8381   53.6174 H   0  0  0  0  0  0  0  0  0  0  0  0
   55.9664   32.2149   51.0369 H   0  0  0  0  0  0  0  0  0  0  0  0
  1  2  1  0
  2  3  1  0
  3  4  1  0
  4  5  2  0
  4  6  1  0
  6  7  2  0
  7  8  1  0
  7  9  1  0
  9 10  2  0
 10 11  1  0
 10 12  1  0
 12 13  2  0
 13 14  1  0
 14 15  1  0
 15 16  2  0
 15 17  1  0
 17 18  1  0
 18 19  1  0
 19 20  2  0
 19 21  1  0
 21 22  2  0
 22 23  1  0
 23 24  2  0
 24 25  1  0
 25 26  2  0
 26 27  1  0
 27 28  1  0
 28 29  1  0
 29 30  2  0
 29 31  1  0
 31 32  1  0
 32 33  2  0
 33 34  1  0
 34 35  2  0
 35 36  1  0
 36 37  1  0
 35 38  1  0
 38 39  1  0
 38 40  2  0
 27 41  1  0
 41 42  2  0
 13  6  1  0
 41 18  1  0
 26 21  1  0
 40 32  1  0
  1 43  1  0
  1 44  1  0
  1 45  1  0
  2 46  1  0
  2 47  1  0
  8 48  1  0
  8 49  1  0
  8 50  1  0
  9 51  1  0
 11 52  1  0
 11 53  1  0
 11 54  1  0
 17 55  1  0
 17 56  1  0
 22 57  1  0
 23 58  1  0
 24 59  1  0
 25 60  1  0
 28 61  1  0
 28 62  1  0
 33 63  1  0
 34 64  1  0
 37 65  1  0
 37 66  1  0
 37 67  1  0
 40 68  1  0
M  CHG  2  14  -1  31  -1
M  END
>  <UniqueID>  (61) 
55

>  <SMILES>  (61) 
CCOC(=O)c1c(C)cc(C)nc1[N-]C(=O)Cn1c(=O)c2ccccc2n(CC(=O)[N-]c2ccc(OC)c(Cl)c2)c1=O

>  <Energy>  (61) 
89.88881494433592

>  <Genealogy>  (61) 
CCOC(=O)c1c(C)cc(C)nc1[N-]C(=O)Cn1c(=O)c2ccccc2n(CC(=O)[N-]c2ccc(OC)c(Cl)c2)c1=O (protonated)
CCOC(=O)c1c(C)cc(C)nc1[N-]C(=O)Cn1c(=O)c2ccccc2n(CC(=O)[N-]c2ccc(OC)c(Cl)c2)c1=O (3D coordinates assigned)
CCOC(=O)c1c(C)cc(C)nc1[N-]C(=O)Cn1c(=O)c2ccccc2n(CC(=O)[N-]c2ccc(OC)c(Cl)c2)c1=O (optimized conformer: 89.88881494433592 kcal/mol)

>  <smiles>  (61) 
CCOC(=O)c1c(C)cc(C)nc1NC(=O)Cn1c(=O)c2ccccc2n(CC(=O)Nc2ccc(OC)c(Cl)c2)c1=O

>  <score_type>  (61) 
oracle

>  <origin>  (61) 
adg

>  <m_score__min__energy>  (61) 
-12.56

>  <m_primary>  (61) 
energy

$$$$
61:0
     RDKit          3D

 61 63  0  0  0  0  0  0  0  0999 V2000
   57.7560   24.2100   46.4430 C   0  0  0  0  0  0  0  0  0  0  0  0
   57.0720   25.3480   46.5960 C   0  0  0  0  0  0  0  0  0  0  0  0
   57.7320   26.5580   47.0140 N   0  0  0  0  0  0  0  0  0  0  0  0
   59.1550   26.7540   46.9760 C   0  0  0  0  0  0  0  0  0  0  0  0
   59.9270   25.7850   46.7420 O   0  0  0  0  0  0  0  0  0  0  0  0
   59.7280   28.0790   47.2930 C   0  0  0  0  0  0  0  0  0  0  0  0
   59.4710   28.6310   48.5570 C   0  0  0  0  0  0  0  0  0  0  0  0
   59.9990   29.8730   48.9120 C   0  0  0  0  0  0  0  0  0  0  0  0
   60.7850   30.5920   48.0060 C   0  0  0  0  0  0  0  0  0  0  0  0
   61.3310   31.8680   48.3780 N   0  0  0  0  0  0  0  0  0  0  0  0
   60.7410   32.6140   49.4970 C   0  0  0  0  0  0  0  0  0  0  0  0
   60.9450   34.1200   49.3010 C   0  0  0  0  0  0  0  0  0  0  0  0
   62.4360   34.5090   49.1070 C   0  0  0  0  0  0  0  0  0  0  0  0
   62.9830   34.9510   50.3400 O   0  0  0  0  0  0  0  0  0  0  0  0
   63.7320   33.9250   50.9520 C   0  0  0  0  0  0  0  0  0  0  0  0
   63.2980   33.3370   48.5890 C   0  0  0  0  0  0  0  0  0  0  0  0
   62.5090   32.3980   47.6750 C   0  0  0  0  0  0  0  0  0  0  0  0
   61.0380   30.0560   46.7360 C   0  0  0  0  0  0  0  0  0  0  0  0
   60.5280   28.7980   46.3670 C   0  0  0  0  0  0  0  0  0  0  0  0
   60.7620   28.3150   44.9520 C   0  0  0  0  0  0  0  0  0  0  0  0
   59.4480   27.8330   44.3240 C   0  0  0  0  0  0  0  0  0  0  0  0
   58.4180   28.9310   44.3390 C   0  0  0  0  0  0  0  0  0  0  0  0
   58.8070   30.2710   44.1710 C   0  0  0  0  0  0  0  0  0  0  0  0
   57.8510   31.2910   44.2210 C   0  0  0  0  0  0  0  0  0  0  0  0
   56.5070   30.9820   44.4480 C   0  0  0  0  0  0  0  0  0  0  0  0
   56.1130   29.6520   44.6260 C   0  0  0  0  0  0  0  0  0  0  0  0
   54.7780   29.3470   44.8600 O   0  0  0  0  0  0  0  0  0  0  0  0
   57.0640   28.6280   44.5700 C   0  0  0  0  0  0  0  0  0  0  0  0
   55.6570   25.4200   46.1760 C   0  0  0  0  0  0  0  0  0  0  0  0
   55.1310   26.5500   45.9970 O   0  0  0  0  0  0  0  0  0  0  0  0
   54.8490   24.2470   46.0050 N   0  0  0  0  0  0  0  0  0  0  0  0
   53.5090   24.2380   45.4310 C   0  0  0  0  0  0  0  0  0  0  0  0
   57.2364   23.2948   46.1231 H   0  0  0  0  0  0  0  0  0  0  0  0
   58.8385   24.1886   46.6370 H   0  0  0  0  0  0  0  0  0  0  0  0
   57.1470   27.3060   47.4480 H   0  0  0  0  0  0  0  0  0  0  0  0
   58.8470   28.0792   49.2754 H   0  0  0  0  0  0  0  0  0  0  0  0
   59.7958   30.2887   49.9099 H   0  0  0  0  0  0  0  0  0  0  0  0
   59.6637   32.3978   49.5489 H   0  0  0  0  0  0  0  0  0  0  0  0
   61.2336   32.3056   50.4309 H   0  0  0  0  0  0  0  0  0  0  0  0
   60.3811   34.4375   48.4115 H   0  0  0  0  0  0  0  0  0  0  0  0
   60.5893   34.6222   50.2128 H   0  0  0  0  0  0  0  0  0  0  0  0
   62.4549   35.3092   48.3525 H   0  0  0  0  0  0  0  0  0  0  0  0
   63.6614   34.0218   52.0455 H   0  0  0  0  0  0  0  0  0  0  0  0
   63.3341   32.9469   50.6440 H   0  0  0  0  0  0  0  0  0  0  0  0
   64.7849   34.0060   50.6440 H   0  0  0  0  0  0  0  0  0  0  0  0
   64.1500   33.7459   48.0260 H   0  0  0  0  0  0  0  0  0  0  0  0
   63.6350   32.7556   49.4598 H   0  0  0  0  0  0  0  0  0  0  0  0
   62.1801   32.9519   46.7834 H   0  0  0  0  0  0  0  0  0  0  0  0
   63.1566   31.5588   47.3812 H   0  0  0  0  0  0  0  0  0  0  0  0
   61.6441   30.6272   46.0174 H   0  0  0  0  0  0  0  0  0  0  0  0
   61.1691   29.1410   44.3503 H   0  0  0  0  0  0  0  0  0  0  0  0
   61.4734   27.4763   44.9757 H   0  0  0  0  0  0  0  0  0  0  0  0
   59.6353   27.5275   43.2840 H   0  0  0  0  0  0  0  0  0  0  0  0
   59.0673   26.9824   44.9084 H   0  0  0  0  0  0  0  0  0  0  0  0
   59.8651   30.5182   43.9999 H   0  0  0  0  0  0  0  0  0  0  0  0
   58.1576   32.3381   44.0814 H   0  0  0  0  0  0  0  0  0  0  0  0
   55.7577   31.7864   44.4867 H   0  0  0  0  0  0  0  0  0  0  0  0
   56.7520   27.5821   44.7071 H   0  0  0  0  0  0  0  0  0  0  0  0
   52.7636   24.2330   46.2399 H   0  0  0  0  0  0  0  0  0  0  0  0
   53.3701   25.1352   44.8100 H   0  0  0  0  0  0  0  0  0  0  0  0
   53.3822   23.3390   44.8100 H   0  0  0  0  0  0  0  0  0  0  0  0
  1  2  2  0
  2  3  1  0
  3  4  1  0
  4  5  2  0
  4  6  1  0
  6  7  2  0
  7  8  1  0
  8  9  2  0
  9 10  1  0
 10 11  1  0
 11 12  1  0
 12 13  1  0
 13 14  1  0
 14 15  1  0
 13 16  1  0
 16 17  1  0
  9 18  1  0
 18 19  2  0
 19 20  1  0
 20 21  1  0
 21 22  1  0
 22 23  2  0
 23 24  1  0
 24 25  2  0
 25 26  1  0
 26 27  1  0
 26 28  2  0
  2 29  1  0
 29 30  2  0
 29 31  1  0
 31 32  1  0
 19  6  1  0
 28 22  1  0
 17 10  1  0
  1 33  1  0
  1 34  1  0
  3 35  1  0
  7 36  1  0
  8 37  1  0
 11 38  1  0
 11 39  1  0
 12 40  1  0
 12 41  1  0
 13 42  1  0
 15 43  1  0
 15 44  1  0
 15 45  1  0
 16 46  1  0
 16 47  1  0
 17 48  1  0
 17 49  1  0
 18 50  1  0
 20 51  1  0
 20 52  1  0
 21 53  1  0
 21 54  1  0
 23 55  1  0
 24 56  1  0
 25 57  1  0
 28 58  1  0
 32 59  1  0
 32 60  1  0
 32 61  1  0
M  CHG  2  27  -1  31  -1
M  END
>  <UniqueID>  (62) 
56

>  <SMILES>  (62) 
C=C(NC(=O)c1ccc(N2CCC(OC)CC2)cc1CCc1cccc([O-])c1)C(=O)[N-]C

>  <Energy>  (62) 
80.19238408346874

>  <Genealogy>  (62) 
C=C(NC(=O)c1ccc(N2CCC(OC)CC2)cc1CCc1cccc([O-])c1)C(=O)[N-]C (protonated)
C=C(NC(=O)c1ccc(N2CCC(OC)CC2)cc1CCc1cccc([O-])c1)C(=O)[N-]C (3D coordinates assigned)
C=C(NC(=O)c1ccc(N2CCC(OC)CC2)cc1CCc1cccc([O-])c1)C(=O)[N-]C (nonaromatic ring conformer: 80.19238408346874 kcal/mol)

>  <smiles>  (62) 
C=C(NC(=O)c1ccc(N2CCC(OC)CC2)cc1CCc1cccc(O)c1)C(=O)NC

>  <score_type>  (62) 
oracle

>  <origin>  (62) 
adg

>  <m_score__min__energy>  (62) 
-14.02

>  <m_primary>  (62) 
energy

$$$$
62:0
     RDKit          3D

 49 51  0  0  1  0  0  0  0  0999 V2000
   60.0880   29.0960   49.3960 C   0  0  0  0  0  0  0  0  0  0  0  0
   60.3800   27.8440   48.6180 C   0  0  0  0  0  0  0  0  0  0  0  0
   59.2860   27.6310   47.6020 C   0  0  0  0  0  0  0  0  0  0  0  0
   58.1790   27.8200   47.3270 N   0  0  0  0  0  0  0  0  0  0  0  0
   57.4760   27.4830   46.2930 N   0  0  0  0  0  0  0  0  0  0  0  0
   58.1220   26.7940   45.3660 C   0  0  0  0  0  0  0  0  0  0  0  0
   57.7730   26.2970   44.2360 N   0  0  0  0  0  0  0  0  0  0  0  0
   57.8250   27.1110   43.0390 C   0  0  0  0  0  0  0  0  0  0  0  0
   58.4060   26.7150   41.9980 O   0  0  0  0  0  0  0  0  0  0  0  0
   57.1930   28.4560   42.9880 C   0  0  0  0  0  0  0  0  0  0  0  0
   57.9740   29.4650   43.6760 N   0  0  0  0  0  0  0  0  0  0  0  0
   57.4170   30.0540   44.8340 C   0  0  0  0  0  0  0  0  0  0  0  0
   56.2870   29.6740   45.2000 O   0  0  0  0  0  0  0  0  0  0  0  0
   58.0880   31.0790   45.6240 C   0  0  0  0  0  0  0  0  0  0  0  0
   58.2800   32.3150   45.0390 C   0  0  0  0  0  0  0  0  0  0  0  0
   58.9080   33.3480   45.7190 C   0  0  0  0  0  0  0  0  0  0  0  0
   59.3600   33.1500   47.0150 C   0  0  0  0  0  0  0  0  0  0  0  0
   60.1420   34.4690   47.8420 S   0  0  0  0  0  0  0  0  0  0  0  0
   59.5140   34.6400   49.1970 O   0  0  0  0  0  0  0  0  0  0  0  0
   59.9580   35.7670   47.0680 O   0  0  0  0  0  0  0  0  0  0  0  0
   61.8440   34.2170   47.9790 N   0  0  0  0  0  0  0  0  0  0  0  0
   62.2990   33.4630   46.8540 C   0  0  0  0  0  0  0  0  0  0  0  0
   62.5220   32.0430   47.3320 C   0  0  0  0  0  0  0  0  0  0  0  0
   62.9740   32.2710   48.7460 C   0  0  0  0  0  0  0  0  0  0  0  0
   62.1710   33.4750   49.1660 C   0  0  0  0  0  0  0  0  0  0  0  0
   59.1560   31.9090   47.5760 C   0  0  0  0  0  0  0  0  0  0  0  0
   58.5320   30.8700   46.9130 C   0  0  0  0  0  0  0  0  0  0  0  0
   59.8320   26.6370   46.0470 S   0  0  0  0  0  0  0  0  0  0  0  0
   60.1387   28.8786   50.4731 H   0  0  0  0  0  0  0  0  0  0  0  0
   60.8304   29.8670   49.1422 H   0  0  0  0  0  0  0  0  0  0  0  0
   59.0811   29.4590   49.1422 H   0  0  0  0  0  0  0  0  0  0  0  0
   61.3466   27.9467   48.1031 H   0  0  0  0  0  0  0  0  0  0  0  0
   60.4249   26.9835   49.3018 H   0  0  0  0  0  0  0  0  0  0  0  0
   56.4430   27.7310   46.1730 H   0  0  0  0  0  0  0  0  0  0  0  0
   57.0823   28.7536   41.9348 H   0  0  0  0  0  0  0  0  0  0  0  0
   56.2189   28.3860   43.4942 H   0  0  0  0  0  0  0  0  0  0  0  0
   58.9240   29.7680   43.3480 H   0  0  0  0  0  0  0  0  0  0  0  0
   57.9271   32.4841   44.0110 H   0  0  0  0  0  0  0  0  0  0  0  0
   59.0474   34.3237   45.2306 H   0  0  0  0  0  0  0  0  0  0  0  0
   61.5406   33.4785   46.0574 H   0  0  0  0  0  0  0  0  0  0  0  0
   63.2270   33.8895   46.4456 H   0  0  0  0  0  0  0  0  0  0  0  0
   61.5921   31.4564   47.2970 H   0  0  0  0  0  0  0  0  0  0  0  0
   63.2344   31.4703   46.7201 H   0  0  0  0  0  0  0  0  0  0  0  0
   62.7448   31.4017   49.3798 H   0  0  0  0  0  0  0  0  0  0  0  0
   64.0601   32.4202   48.8362 H   0  0  0  0  0  0  0  0  0  0  0  0
   61.2492   33.1527   49.6723 H   0  0  0  0  0  0  0  0  0  0  0  0
   62.7482   34.0991   49.8641 H   0  0  0  0  0  0  0  0  0  0  0  0
   59.5076   31.7363   48.6039 H   0  0  0  0  0  0  0  0  0  0  0  0
   58.3920   29.8954   47.4034 H   0  0  0  0  0  0  0  0  0  0  0  0
  1  2  1  0
  2  3  1  0
  3  4  2  0
  4  5  1  0
  5  6  1  0
  6  7  2  0
  7  8  1  0
  8  9  2  0
  8 10  1  0
 10 11  1  0
 11 12  1  0
 12 13  2  0
 12 14  1  0
 14 15  2  0
 15 16  1  0
 16 17  2  0
 17 18  1  0
 18 19  2  0
 18 20  2  0
 18 21  1  0
 21 22  1  0
 22 23  1  0
 23 24  1  0
 24 25  1  0
 17 26  1  0
 26 27  2  0
  6 28  1  0
 28  3  1  0
 27 14  1  0
 25 21  1  0
  1 29  1  0
  1 30  1  0
  1 31  1  0
  2 32  1  0
  2 33  1  0
  5 34  1  0
 10 35  1  0
 10 36  1  0
 11 37  1  0
 15 38  1  0
 16 39  1  0
 22 40  1  0
 22 41  1  0
 23 42  1  0
 23 43  1  0
 24 44  1  0
 24 45  1  0
 25 46  1  0
 25 47  1  0
 26 48  1  0
 27 49  1  0
M  END
>  <smiles>  (63) 
CCc1n[nH]c(=NC(=O)CNC(=O)c2ccc(S(=O)(=O)N3CCCC3)cc2)s1

>  <score_type>  (63) 
oracle

>  <origin>  (63) 
adg

>  <m_score__min__energy>  (63) 
-8.9800000000000004

>  <m_primary>  (63) 
energy

$$$$
63:0
     RDKit          3D

 43 45  0  0  0  0  0  0  0  0999 V2000
   58.3350   29.6550   44.3390 C   0  0  0  0  0  0  0  0  0  0  0  0
   57.3320   31.1140   44.1730 S   0  0  0  0  0  0  0  0  0  0  0  0
   57.3980   31.6070   42.7550 O   0  0  0  0  0  0  0  0  0  0  0  0
   55.9030   30.7850   44.5050 O   0  0  0  0  0  0  0  0  0  0  0  0
   57.9250   32.3560   45.2710 C   0  0  0  0  0  0  0  0  0  0  0  0
   58.2060   33.6440   44.7980 C   0  0  0  0  0  0  0  0  0  0  0  0
   58.6750   34.6250   45.6730 C   0  0  0  0  0  0  0  0  0  0  0  0
   58.8760   34.3250   47.0220 C   0  0  0  0  0  0  0  0  0  0  0  0
   58.6240   33.0300   47.5090 C   0  0  0  0  0  0  0  0  0  0  0  0
   58.8330   32.7280   48.9440 C   0  0  0  0  0  0  0  0  0  0  0  0
   58.0200   31.8200   49.5550 N   0  0  0  0  0  0  0  0  0  0  0  0
   58.1520   31.4820   50.8680 C   0  0  0  0  0  0  0  0  0  0  0  0
   57.3800   30.5910   51.4200 N   0  0  0  0  0  0  0  0  0  0  0  0
   56.1140   30.8100   52.0640 C   0  0  0  0  0  0  0  0  0  0  0  0
   55.8960   31.9310   52.5940 O   0  0  0  0  0  0  0  0  0  0  0  0
   54.9890   29.8110   51.9970 C   0  0  0  0  0  0  0  0  0  0  0  0
   53.6660   30.4950   52.2200 C   0  0  0  0  0  0  0  0  0  0  0  0
   53.0200   30.3860   53.4630 C   0  0  0  0  0  0  0  0  0  0  0  0
   51.8070   31.0430   53.6880 C   0  0  0  0  0  0  0  0  0  0  0  0
   51.2330   31.8200   52.6780 C   0  0  0  0  0  0  0  0  0  0  0  0
   51.8730   31.9410   51.4410 C   0  0  0  0  0  0  0  0  0  0  0  0
   51.3040   32.7170   50.4380 O   0  0  0  0  0  0  0  0  0  0  0  0
   53.0860   31.2830   51.2120 C   0  0  0  0  0  0  0  0  0  0  0  0
   59.1680   32.0690   51.6290 C   0  0  0  0  0  0  0  0  0  0  0  0
   60.0050   33.0170   51.0420 C   0  0  0  0  0  0  0  0  0  0  0  0
   59.8410   33.3580   49.6980 C   0  0  0  0  0  0  0  0  0  0  0  0
   60.6320   34.3190   49.1580 F   0  0  0  0  0  0  0  0  0  0  0  0
   58.1350   32.0530   46.6230 C   0  0  0  0  0  0  0  0  0  0  0  0
   58.4870   29.4339   45.4058 H   0  0  0  0  0  0  0  0  0  0  0  0
   57.8291   28.8055   43.8569 H   0  0  0  0  0  0  0  0  0  0  0  0
   59.3094   29.8231   43.8569 H   0  0  0  0  0  0  0  0  0  0  0  0
   58.0567   33.8829   43.7347 H   0  0  0  0  0  0  0  0  0  0  0  0
   58.8869   35.6375   45.2989 H   0  0  0  0  0  0  0  0  0  0  0  0
   59.2338   35.1068   47.7082 H   0  0  0  0  0  0  0  0  0  0  0  0
   54.9874   29.3327   51.0064 H   0  0  0  0  0  0  0  0  0  0  0  0
   55.1364   29.0543   52.7817 H   0  0  0  0  0  0  0  0  0  0  0  0
   53.4711   29.7806   54.2630 H   0  0  0  0  0  0  0  0  0  0  0  0
   51.3034   30.9484   54.6614 H   0  0  0  0  0  0  0  0  0  0  0  0
   50.2781   32.3361   52.8563 H   0  0  0  0  0  0  0  0  0  0  0  0
   53.5879   31.3831   50.2383 H   0  0  0  0  0  0  0  0  0  0  0  0
   59.3057   31.7849   52.6827 H   0  0  0  0  0  0  0  0  0  0  0  0
   60.7952   33.4967   51.6382 H   0  0  0  0  0  0  0  0  0  0  0  0
   57.9153   31.0414   46.9950 H   0  0  0  0  0  0  0  0  0  0  0  0
  1  2  1  0
  2  3  2  0
  2  4  2  0
  2  5  1  0
  5  6  2  0
  6  7  1  0
  7  8  2  0
  8  9  1  0
  9 10  1  0
 10 11  1  0
 11 12  1  0
 12 13  2  3
 13 14  1  0
 14 15  2  0
 14 16  1  0
 16 17  1  0
 17 18  2  0
 18 19  1  0
 19 20  2  0
 20 21  1  0
 21 22  1  0
 21 23  2  0
 12 24  1  0
 24 25  2  0
 25 26  1  0
 26 27  1  0
  9 28  2  0
 28  5  1  0
 26 10  2  0
 23 17  1  0
  1 29  1  0
  1 30  1  0
  1 31  1  0
  6 32  1  0
  7 33  1  0
  8 34  1  0
 16 35  1  0
 16 36  1  0
 18 37  1  0
 19 38  1  0
 20 39  1  0
 23 40  1  0
 24 41  1  0
 25 42  1  0
 28 43  1  0
M  CHG  2  11  -1  22  -1
M  END
>  <UniqueID>  (64) 
57

>  <SMILES>  (64) 
CS(=O)(=O)c1cccc(-c2[n-]c(=NC(=O)Cc3cccc([O-])c3)ccc2F)c1

>  <Energy>  (64) 
52.05094677726219

>  <Genealogy>  (64) 
CS(=O)(=O)c1cccc(-c2[n-]c(=NC(=O)Cc3cccc([O-])c3)ccc2F)c1 (protonated)
CS(=O)(=O)c1cccc(-c2[n-]c(=NC(=O)Cc3cccc([O-])c3)ccc2F)c1 (3D coordinates assigned)
CS(=O)(=O)c1cccc(-c2[n-]c(=NC(=O)Cc3cccc([O-])c3)ccc2F)c1 (optimized conformer: 52.05094677726219 kcal/mol)

>  <smiles>  (64) 
CS(=O)(=O)c1cccc(-c2[nH]c(=NC(=O)Cc3cccc(O)c3)ccc2F)c1

>  <score_type>  (64) 
oracle

>  <origin>  (64) 
adg

>  <m_score__min__energy>  (64) 
-14.779999999999999

>  <m_primary>  (64) 
energy

$$$$
64:0
     RDKit          3D

 33 34  0  0  0  0  0  0  0  0999 V2000
   57.3840   25.1590   43.8900 C   0  0  0  0  0  0  0  0  0  0  0  0
   57.7010   26.5800   43.6590 N   0  0  0  0  0  0  0  0  0  0  0  0
   58.1650   26.7610   42.2710 C   0  0  0  0  0  0  0  0  0  0  0  0
   58.7150   27.0340   44.6410 C   0  0  0  0  0  0  0  0  0  0  0  0
   58.0860   27.7240   45.8630 C   0  0  0  0  0  0  0  0  0  0  0  0
   57.8180   29.1270   45.5610 N   0  0  0  0  0  0  0  0  0  0  0  0
   58.5820   30.1360   45.9450 N   0  0  0  0  0  0  0  0  0  0  0  0
   57.9400   31.2510   45.5260 C   0  0  0  0  0  0  0  0  0  0  0  0
   58.4380   32.6250   45.7340 C   0  0  0  0  0  0  0  0  0  0  0  0
   58.5430   33.5200   44.6550 C   0  0  0  0  0  0  0  0  0  0  0  0
   59.0150   34.8200   44.8610 C   0  0  0  0  0  0  0  0  0  0  0  0
   59.3870   35.2370   46.1420 C   0  0  0  0  0  0  0  0  0  0  0  0
   59.2860   34.3540   47.2200 C   0  0  0  0  0  0  0  0  0  0  0  0
   59.6470   34.7600   48.4630 F   0  0  0  0  0  0  0  0  0  0  0  0
   58.8130   33.0530   47.0190 C   0  0  0  0  0  0  0  0  0  0  0  0
   56.8100   30.9570   44.9130 O   0  0  0  0  0  0  0  0  0  0  0  0
   56.7440   29.6500   44.9470 C   0  0  0  0  0  0  0  0  0  0  0  0
   55.7930   28.9740   44.4710 O   0  0  0  0  0  0  0  0  0  0  0  0
   57.3405   24.9642   44.9717 H   0  0  0  0  0  0  0  0  0  0  0  0
   56.4109   24.9218   43.4353 H   0  0  0  0  0  0  0  0  0  0  0  0
   58.1641   24.5307   43.4353 H   0  0  0  0  0  0  0  0  0  0  0  0
   56.8180   27.1280   43.7920 H   0  0  0  0  0  0  0  0  0  0  0  0
   59.1898   27.1608   42.2762 H   0  0  0  0  0  0  0  0  0  0  0  0
   58.1521   25.7919   41.7507 H   0  0  0  0  0  0  0  0  0  0  0  0
   57.4993   27.4654   41.7507 H   0  0  0  0  0  0  0  0  0  0  0  0
   59.2879   26.1604   44.9855 H   0  0  0  0  0  0  0  0  0  0  0  0
   59.3605   27.7693   44.1383 H   0  0  0  0  0  0  0  0  0  0  0  0
   57.1427   27.2201   46.1204 H   0  0  0  0  0  0  0  0  0  0  0  0
   58.7843   27.6641   46.7108 H   0  0  0  0  0  0  0  0  0  0  0  0
   58.2527   33.1963   43.6446 H   0  0  0  0  0  0  0  0  0  0  0  0
   59.0937   35.5161   44.0129 H   0  0  0  0  0  0  0  0  0  0  0  0
   59.7591   36.2598   46.3014 H   0  0  0  0  0  0  0  0  0  0  0  0
   58.7342   32.3616   47.8709 H   0  0  0  0  0  0  0  0  0  0  0  0
  1  2  1  0
  2  3  1  0
  2  4  1  0
  4  5  1  0
  5  6  1  0
  6  7  1  0
  7  8  2  0
  8  9  1  0
  9 10  2  0
 10 11  1  0
 11 12  2  0
 12 13  1  0
 13 14  1  0
 13 15  2  0
  8 16  1  0
 16 17  1  0
 17 18  2  0
 17  6  1  0
 15  9  1  0
  1 19  1  0
  1 20  1  0
  1 21  1  0
  2 22  1  0
  3 23  1  0
  3 24  1  0
  3 25  1  0
  4 26  1  0
  4 27  1  0
  5 28  1  0
  5 29  1  0
 10 30  1  0
 11 31  1  0
 12 32  1  0
 15 33  1  0
M  CHG  1   2   1
M  END
>  <UniqueID>  (65) 
58

>  <SMILES>  (65) 
C[NH+](C)CCn1nc(-c2cccc(F)c2)oc1=O

>  <Energy>  (65) 
69.10299536700946

>  <Genealogy>  (65) 
C[NH+](C)CCn1nc(-c2cccc(F)c2)oc1=O (protonated)
C[NH+](C)CCn1nc(-c2cccc(F)c2)oc1=O (3D coordinates assigned)
C[NH+](C)CCn1nc(-c2cccc(F)c2)oc1=O (optimized conformer: 69.10299536700946 kcal/mol)

>  <smiles>  (65) 
CN(C)CCn1nc(-c2cccc(F)c2)oc1=O

>  <score_type>  (65) 
oracle

>  <origin>  (65) 
adg

>  <m_score__min__energy>  (65) 
-4.7300000000000004

>  <m_primary>  (65) 
energy

$$$$
65:0
     RDKit          3D

 53 56  0  0  0  0  0  0  0  0999 V2000
   65.2630   29.7170   52.0030 C   0  0  0  0  0  0  0  0  0  0  0  0
   64.0260   30.0320   51.3710 O   0  0  0  0  0  0  0  0  0  0  0  0
   63.8190   31.1490   50.5480 C   0  0  0  0  0  0  0  0  0  0  0  0
   64.9280   31.9260   50.1940 C   0  0  0  0  0  0  0  0  0  0  0  0
   64.7750   33.0490   49.3800 C   0  0  0  0  0  0  0  0  0  0  0  0
   63.5110   33.4090   48.9120 C   0  0  0  0  0  0  0  0  0  0  0  0
   62.3830   32.6440   49.2560 C   0  0  0  0  0  0  0  0  0  0  0  0
   61.0760   33.0140   48.7760 N   0  0  0  0  0  0  0  0  0  0  0  0
   60.7890   34.4210   48.4580 C   0  0  0  0  0  0  0  0  0  0  0  0
   59.7400   34.5730   47.3300 C   0  0  0  0  0  0  0  0  0  0  0  0
   58.9560   33.3410   47.0780 N   0  0  0  0  0  0  0  0  0  0  0  0
   57.7430   33.6540   46.3400 C   0  0  0  0  0  0  0  0  0  0  0  0
   56.6610   33.4660   46.8810 O   0  0  0  0  0  0  0  0  0  0  0  0
   57.7870   34.1230   44.8910 C   0  0  0  0  0  0  0  0  0  0  0  0
   57.7270   32.9850   43.8580 C   0  0  0  0  0  0  0  0  0  0  0  0
   57.7340   31.6310   44.5060 C   0  0  0  0  0  0  0  0  0  0  0  0
   56.6060   30.8560   44.4880 N   0  0  0  0  0  0  0  0  0  0  0  0
   56.5790   29.6220   45.0680 C   0  0  0  0  0  0  0  0  0  0  0  0
   55.5260   28.9320   45.0390 O   0  0  0  0  0  0  0  0  0  0  0  0
   57.7330   29.1470   45.6850 C   0  0  0  0  0  0  0  0  0  0  0  0
   57.9290   27.9200   46.3250 C   0  0  0  0  0  0  0  0  0  0  0  0
   59.2350   27.7820   46.8060 C   0  0  0  0  0  0  0  0  0  0  0  0
   59.7500   26.6200   47.5870 C   0  0  0  0  0  0  0  0  0  0  0  0
   60.1260   29.1810   46.4630 S   0  0  0  0  0  0  0  0  0  0  0  0
   58.8540   29.9480   45.6820 C   0  0  0  0  0  0  0  0  0  0  0  0
   58.8690   31.1730   45.1060 N   0  0  0  0  0  0  0  0  0  0  0  0
   58.6740   32.6110   48.3300 C   0  0  0  0  0  0  0  0  0  0  0  0
   59.9780   32.0450   48.8990 C   0  0  0  0  0  0  0  0  0  0  0  0
   62.5450   31.5110   50.0700 C   0  0  0  0  0  0  0  0  0  0  0  0
   65.1355   29.7495   53.0951 H   0  0  0  0  0  0  0  0  0  0  0  0
   65.5828   28.7088   51.7010 H   0  0  0  0  0  0  0  0  0  0  0  0
   66.0260   30.4495   51.7010 H   0  0  0  0  0  0  0  0  0  0  0  0
   65.9277   31.6493   50.5602 H   0  0  0  0  0  0  0  0  0  0  0  0
   65.6534   33.6521   49.1066 H   0  0  0  0  0  0  0  0  0  0  0  0
   63.3966   34.2955   48.2709 H   0  0  0  0  0  0  0  0  0  0  0  0
   60.4077   34.9163   49.3631 H   0  0  0  0  0  0  0  0  0  0  0  0
   61.7246   34.8815   48.1079 H   0  0  0  0  0  0  0  0  0  0  0  0
   59.0434   35.3773   47.6092 H   0  0  0  0  0  0  0  0  0  0  0  0
   60.2915   34.7988   46.4054 H   0  0  0  0  0  0  0  0  0  0  0  0
   59.5370   32.7120   46.4700 H   0  0  0  0  0  0  0  0  0  0  0  0
   56.9303   34.7911   44.7185 H   0  0  0  0  0  0  0  0  0  0  0  0
   58.7550   34.6264   44.7509 H   0  0  0  0  0  0  0  0  0  0  0  0
   56.8049   33.0906   43.2676 H   0  0  0  0  0  0  0  0  0  0  0  0
   58.6206   33.0594   43.2209 H   0  0  0  0  0  0  0  0  0  0  0  0
   57.1482   27.1533   46.4371 H   0  0  0  0  0  0  0  0  0  0  0  0
   59.6566   26.8308   48.6626 H   0  0  0  0  0  0  0  0  0  0  0  0
   59.1655   25.7223   47.3372 H   0  0  0  0  0  0  0  0  0  0  0  0
   60.8077   26.4501   47.3372 H   0  0  0  0  0  0  0  0  0  0  0  0
   58.2234   33.2984   49.0611 H   0  0  0  0  0  0  0  0  0  0  0  0
   57.9770   31.7856   48.1227 H   0  0  0  0  0  0  0  0  0  0  0  0
   59.8305   31.8028   49.9618 H   0  0  0  0  0  0  0  0  0  0  0  0
   60.2442   31.1426   48.3290 H   0  0  0  0  0  0  0  0  0  0  0  0
   61.6691   30.9012   50.3364 H   0  0  0  0  0  0  0  0  0  0  0  0
  1  2  1  0
  2  3  1  0
  3  4  2  0
  4  5  1  0
  5  6  2  0
  6  7  1  0
  7  8  1  0
  8  9  1  0
  9 10  1  0
 10 11  1  0
 11 12  1  0
 12 13  2  0
 12 14  1  0
 14 15  1  0
 15 16  1  0
 16 17  2  0
 17 18  1  0
 18 19  2  0
 18 20  1  0
 20 21  1  0
 21 22  2  0
 22 23  1  0
 22 24  1  0
 24 25  1  0
 25 26  1  0
 11 27  1  0
 27 28  1  0
  7 29  2  0
 29  3  1  0
 28  8  1  0
 26 16  1  0
 25 20  2  0
  1 30  1  0
  1 31  1  0
  1 32  1  0
  4 33  1  0
  5 34  1  0
  6 35  1  0
  9 36  1  0
  9 37  1  0
 10 38  1  0
 10 39  1  0
 11 40  1  0
 14 41  1  0
 14 42  1  0
 15 43  1  0
 15 44  1  0
 21 45  1  0
 23 46  1  0
 23 47  1  0
 23 48  1  0
 27 49  1  0
 27 50  1  0
 28 51  1  0
 28 52  1  0
 29 53  1  0
M  CHG  2  11   1  26  -1
M  END
>  <UniqueID>  (66) 
59

>  <SMILES>  (66) 
COc1cccc(N2CC[NH+](C(=O)CCc3nc(=O)c4cc(C)sc4[n-]3)CC2)c1

>  <Energy>  (66) 
99.24141103391752

>  <Genealogy>  (66) 
COc1cccc(N2CC[NH+](C(=O)CCc3nc(=O)c4cc(C)sc4[n-]3)CC2)c1 (protonated)
COc1cccc(N2CC[NH+](C(=O)CCc3nc(=O)c4cc(C)sc4[n-]3)CC2)c1 (3D coordinates assigned)
COc1cccc(N2CC[NH+](C(=O)CCc3nc(=O)c4cc(C)sc4[n-]3)CC2)c1 (nonaromatic ring conformer: 99.24141103391752 kcal/mol)

>  <smiles>  (66) 
COc1cccc(N2CCN(C(=O)CCc3nc(=O)c4cc(C)sc4[nH]3)CC2)c1

>  <score_type>  (66) 
oracle

>  <origin>  (66) 
adg

>  <m_score__min__energy>  (66) 
-8.0500000000000007

>  <m_primary>  (66) 
energy

$$$$
66:0
     RDKit          3D

 49 51  0  0  0  0  0  0  0  0999 V2000
   62.7123   34.4588   46.4856 H   0  0  0  0  0  0  0  0  0  0  0  0
   62.1590   33.8020   47.1730 C   0  0  0  0  0  0  0  0  0  0  0  0
   62.7640   32.5200   47.5730 C   0  0  0  0  0  0  0  0  0  0  0  0
   63.7930   32.4940   48.3040 O   0  0  0  0  0  0  0  0  0  0  0  0
   62.1960   31.3020   47.0740 N   0  0  0  0  0  0  0  0  0  0  0  0
   61.0220   30.6420   47.5670 C   0  0  0  0  0  0  0  0  0  0  0  0
   60.4350   30.9840   48.7970 C   0  0  0  0  0  0  0  0  0  0  0  0
   60.8878   31.7687   49.4209 H   0  0  0  0  0  0  0  0  0  0  0  0
   59.2800   30.3320   49.2300 C   0  0  0  0  0  0  0  0  0  0  0  0
   58.8321   30.5970   50.1991 H   0  0  0  0  0  0  0  0  0  0  0  0
   58.6900   29.3440   48.4380 C   0  0  0  0  0  0  0  0  0  0  0  0
   57.7850   28.8282   48.7914 H   0  0  0  0  0  0  0  0  0  0  0  0
   59.2460   29.0050   47.1920 C   0  0  0  0  0  0  0  0  0  0  0  0
   58.6180   27.9650   46.3430 C   0  0  0  0  0  0  0  0  0  0  0  0
   59.0610   27.7460   45.1830 O   0  0  0  0  0  0  0  0  0  0  0  0
   57.4760   27.2400   46.8200 N   0  0  0  0  0  0  0  0  0  0  0  0
   57.0620   25.9440   46.3640 C   0  0  0  0  0  0  0  0  0  0  0  0
   58.0290   24.9400   46.2390 C   0  0  0  0  0  0  0  0  0  0  0  0
   59.0761   25.1588   46.4952 H   0  0  0  0  0  0  0  0  0  0  0  0
   57.6770   23.6530   45.7890 C   0  0  0  0  0  0  0  0  0  0  0  0
   58.6280   22.6260   45.6650 O   0  0  0  0  0  0  0  0  0  0  0  0
   59.2210   22.2160   44.4370 C   0  0  0  0  0  0  0  0  0  0  0  0
   60.1093   21.6018   44.6459 H   0  0  0  0  0  0  0  0  0  0  0  0
   58.4951   21.6260   43.8583 H   0  0  0  0  0  0  0  0  0  0  0  0
   59.5167   23.1035   43.8583 H   0  0  0  0  0  0  0  0  0  0  0  0
   56.3390   23.3840   45.4490 C   0  0  0  0  0  0  0  0  0  0  0  0
   55.8710   21.7800   44.8830 S   0  0  0  0  0  0  0  0  0  0  0  0
   56.7490   20.7460   45.5280 O   0  0  0  0  0  0  0  0  0  0  0  0
   56.0160   21.6880   43.3890 O   0  0  0  0  0  0  0  0  0  0  0  0
   54.2660   21.4900   45.2860 O   0  0  0  0  0  0  0  0  0  0  0  0
   55.3790   24.4020   45.5380 C   0  0  0  0  0  0  0  0  0  0  0  0
   54.3355   24.1931   45.2596 H   0  0  0  0  0  0  0  0  0  0  0  0
   55.7360   25.6790   45.9770 C   0  0  0  0  0  0  0  0  0  0  0  0
   54.7720   26.6810   45.9910 O   0  0  0  0  0  0  0  0  0  0  0  0
   60.4120   29.6680   46.7630 C   0  0  0  0  0  0  0  0  0  0  0  0
   60.8498   29.4189   45.7851 H   0  0  0  0  0  0  0  0  0  0  0  0
   60.9570   34.1960   47.6180 C   0  0  0  0  0  0  0  0  0  0  0  0
   60.8973   34.6454   48.6203 H   0  0  0  0  0  0  0  0  0  0  0  0
   59.7030   34.0610   46.8370 C   0  0  0  0  0  0  0  0  0  0  0  0
   59.5710   34.5490   45.5200 C   0  0  0  0  0  0  0  0  0  0  0  0
   60.4240   35.0435   45.0323 H   0  0  0  0  0  0  0  0  0  0  0  0
   58.3630   34.4080   44.8310 C   0  0  0  0  0  0  0  0  0  0  0  0
   58.2714   34.7858   43.8020 H   0  0  0  0  0  0  0  0  0  0  0  0
   57.2720   33.7890   45.4450 C   0  0  0  0  0  0  0  0  0  0  0  0
   56.3242   33.6749   44.8985 H   0  0  0  0  0  0  0  0  0  0  0  0
   57.3860   33.3150   46.7540 C   0  0  0  0  0  0  0  0  0  0  0  0
   56.5253   32.8322   47.2398 H   0  0  0  0  0  0  0  0  0  0  0  0
   58.5920   33.4530   47.4480 C   0  0  0  0  0  0  0  0  0  0  0  0
   58.6723   33.0828   48.4807 H   0  0  0  0  0  0  0  0  0  0  0  0
  1  2  1  0
  2  3  1  0
  3  4  2  0
  3  5  1  0
  5  6  1  0
  6  7  2  0
  7  8  1  0
  7  9  1  0
  9 10  1  0
  9 11  2  0
 11 12  1  0
 11 13  1  0
 13 14  1  0
 14 15  2  0
 14 16  1  0
 16 17  1  0
 17 18  2  0
 18 19  1  0
 18 20  1  0
 20 21  1  0
 21 22  1  0
 22 23  1  0
 22 24  1  0
 22 25  1  0
 20 26  2  0
 26 27  1  0
 27 28  2  0
 27 29  2  0
 27 30  1  0
 26 31  1  0
 31 32  1  0
 31 33  2  0
 33 34  1  0
 13 35  2  0
 35 36  1  0
  2 37  2  0
 37 38  1  0
 37 39  1  0
 39 40  2  0
 40 41  1  0
 40 42  1  0
 42 43  1  0
 42 44  2  0
 44 45  1  0
 44 46  1  0
 46 47  1  0
 46 48  2  0
 48 49  1  0
 35  6  1  0
 48 39  1  0
 33 17  1  0
M  CHG  4   5  -1  16  -1  30  -1  34  -1
M  END
>  <UniqueID>  (67) 
60

>  <SMILES>  (67) 
COc1cc([N-]C(=O)c2cccc([N-]C(=O)/C=C/c3ccccc3)c2)c([O-])cc1S(=O)(=O)[O-]

>  <Energy>  (67) 
64.2629781376493

>  <Genealogy>  (67) 
COc1cc([N-]C(=O)c2cccc([N-]C(=O)C=Cc3ccccc3)c2)c([O-])cc1S(=O)(=O)[O-] (protonated)
COc1cc([N-]C(=O)c2cccc([N-]C(=O)/C=C/c3ccccc3)c2)c([O-])cc1S(=O)(=O)[O-] (cis-trans isomerization)
COc1cc([N-]C(=O)c2cccc([N-]C(=O)/C=C/c3ccccc3)c2)c([O-])cc1S(=O)(=O)[O-] (3D coordinates assigned)
COc1cc([N-]C(=O)c2cccc([N-]C(=O)/C=C/c3ccccc3)c2)c([O-])cc1S(=O)(=O)[O-] (optimized conformer: 64.2629781376493 kcal/mol)

>  <smiles>  (67) 
COc1cc(NC(=O)c2cccc(NC(=O)C=Cc3ccccc3)c2)c(O)cc1S(=O)(=O)O

>  <score_type>  (67) 
oracle

>  <origin>  (67) 
adg

>  <m_score__min__energy>  (67) 
-17.5

>  <m_primary>  (67) 
energy

$$$$
67:0
     RDKit          3D

 54 56  0  0  0  0  0  0  0  0999 V2000
   58.7310   30.7580   50.6300 C   0  0  0  0  0  0  0  0  0  0  0  0
   58.6830   32.2230   50.2150 C   0  0  0  0  0  0  0  0  0  0  0  0
   58.8220   32.3290   48.7430 N   0  0  0  0  0  0  0  0  0  0  0  0
   59.3810   31.0840   48.1790 C   0  0  0  0  0  0  0  0  0  0  0  0
   59.2100   31.0380   46.6830 C   0  0  0  0  0  0  0  0  0  0  0  0
   60.1090   30.5010   45.9830 O   0  0  0  0  0  0  0  0  0  0  0  0
   58.0040   31.4790   46.0460 N   0  0  0  0  0  0  0  0  0  0  0  0
   57.7650   31.5060   44.6330 C   0  0  0  0  0  0  0  0  0  0  0  0
   58.1400   32.6270   43.8730 C   0  0  0  0  0  0  0  0  0  0  0  0
   57.8820   32.6730   42.5020 C   0  0  0  0  0  0  0  0  0  0  0  0
   57.2660   31.5910   41.8710 C   0  0  0  0  0  0  0  0  0  0  0  0
   56.9120   30.4590   42.6070 C   0  0  0  0  0  0  0  0  0  0  0  0
   57.1720   30.3950   43.9880 C   0  0  0  0  0  0  0  0  0  0  0  0
   56.7620   29.1880   44.7440 C   0  0  0  0  0  0  0  0  0  0  0  0
   55.5330   28.9360   44.8700 O   0  0  0  0  0  0  0  0  0  0  0  0
   57.7320   28.3020   45.3320 N   0  0  0  0  0  0  0  0  0  0  0  0
   57.3580   27.4890   46.4940 C   0  0  0  0  0  0  0  0  0  0  0  0
   58.6130   27.1300   47.2890 C   0  0  0  0  0  0  0  0  0  0  0  0
   59.5760   26.5190   46.4520 O   0  0  0  0  0  0  0  0  0  0  0  0
   60.0300   27.4450   45.4840 C   0  0  0  0  0  0  0  0  0  0  0  0
   58.8900   27.8600   44.5460 C   0  0  0  0  0  0  0  0  0  0  0  0
   59.8280   33.7040   48.3190 S   0  0  0  0  0  0  0  0  0  0  0  0
   59.3300   34.9390   49.0150 O   0  0  0  0  0  0  0  0  0  0  0  0
   59.7810   33.9370   46.8330 O   0  0  0  0  0  0  0  0  0  0  0  0
   61.4950   33.4360   48.8290 C   0  0  0  0  0  0  0  0  0  0  0  0
   62.4330   32.9550   47.9040 C   0  0  0  0  0  0  0  0  0  0  0  0
   63.7630   32.7610   48.2880 C   0  0  0  0  0  0  0  0  0  0  0  0
   64.1610   33.0370   49.6000 C   0  0  0  0  0  0  0  0  0  0  0  0
   65.9830   32.7830   50.1200 Br  0  0  0  0  0  0  0  0  0  0  0  0
   63.2260   33.5110   50.5270 C   0  0  0  0  0  0  0  0  0  0  0  0
   61.8970   33.7130   50.1440 C   0  0  0  0  0  0  0  0  0  0  0  0
   58.7333   30.6878   51.7278 H   0  0  0  0  0  0  0  0  0  0  0  0
   57.8495   30.2348   50.2310 H   0  0  0  0  0  0  0  0  0  0  0  0
   59.6448   30.2936   50.2310 H   0  0  0  0  0  0  0  0  0  0  0  0
   57.7218   32.6595   50.5241 H   0  0  0  0  0  0  0  0  0  0  0  0
   59.5077   32.7665   50.6993 H   0  0  0  0  0  0  0  0  0  0  0  0
   60.4531   31.0311   48.4193 H   0  0  0  0  0  0  0  0  0  0  0  0
   58.8424   30.2308   48.6173 H   0  0  0  0  0  0  0  0  0  0  0  0
   58.6410   33.4752   44.3626 H   0  0  0  0  0  0  0  0  0  0  0  0
   58.1641   33.5620   41.9188 H   0  0  0  0  0  0  0  0  0  0  0  0
   57.0591   31.6305   40.7914 H   0  0  0  0  0  0  0  0  0  0  0  0
   56.4260   29.6105   42.1032 H   0  0  0  0  0  0  0  0  0  0  0  0
   56.6689   28.0594   47.1342 H   0  0  0  0  0  0  0  0  0  0  0  0
   56.8634   26.5675   46.1532 H   0  0  0  0  0  0  0  0  0  0  0  0
   59.0404   28.0461   47.7226 H   0  0  0  0  0  0  0  0  0  0  0  0
   58.3374   26.4238   48.0861 H   0  0  0  0  0  0  0  0  0  0  0  0
   60.4192   28.3381   45.9948 H   0  0  0  0  0  0  0  0  0  0  0  0
   60.8210   26.9687   44.8861 H   0  0  0  0  0  0  0  0  0  0  0  0
   59.2296   28.6844   43.9017 H   0  0  0  0  0  0  0  0  0  0  0  0
   58.5995   26.9990   43.9261 H   0  0  0  0  0  0  0  0  0  0  0  0
   62.1212   32.7298   46.8734 H   0  0  0  0  0  0  0  0  0  0  0  0
   64.4974   32.3909   47.5574 H   0  0  0  0  0  0  0  0  0  0  0  0
   63.5378   33.7252   51.5599 H   0  0  0  0  0  0  0  0  0  0  0  0
   61.1658   34.0895   50.8744 H   0  0  0  0  0  0  0  0  0  0  0  0
  1  2  1  0
  2  3  1  0
  3  4  1  0
  4  5  1  0
  5  6  2  0
  5  7  1  0
  7  8  1  0
  8  9  2  0
  9 10  1  0
 10 11  2  0
 11 12  1  0
 12 13  2  0
 13 14  1  0
 14 15  2  0
 14 16  1  0
 16 17  1  0
 17 18  1  0
 18 19  1  0
 19 20  1  0
 20 21  1  0
  3 22  1  0
 22 23  2  0
 22 24  2  0
 22 25  1  0
 25 26  2  0
 26 27  1  0
 27 28  2  0
 28 29  1  0
 28 30  1  0
 30 31  2  0
 13  8  1  0
 21 16  1  0
 31 25  1  0
  1 32  1  0
  1 33  1  0
  1 34  1  0
  2 35  1  0
  2 36  1  0
  4 37  1  0
  4 38  1  0
  9 39  1  0
 10 40  1  0
 11 41  1  0
 12 42  1  0
 17 43  1  0
 17 44  1  0
 18 45  1  0
 18 46  1  0
 20 47  1  0
 20 48  1  0
 21 49  1  0
 21 50  1  0
 26 51  1  0
 27 52  1  0
 30 53  1  0
 31 54  1  0
M  CHG  1   7  -1
M  END
>  <UniqueID>  (68) 
61

>  <SMILES>  (68) 
CCN(CC(=O)[N-]c1ccccc1C(=O)N1CCOCC1)S(=O)(=O)c1ccc(Br)cc1

>  <Energy>  (68) 
64.5654610119594

>  <Genealogy>  (68) 
CCN(CC(=O)[N-]c1ccccc1C(=O)N1CCOCC1)S(=O)(=O)c1ccc(Br)cc1 (protonated)
CCN(CC(=O)[N-]c1ccccc1C(=O)N1CCOCC1)S(=O)(=O)c1ccc(Br)cc1 (3D coordinates assigned)
CCN(CC(=O)[N-]c1ccccc1C(=O)N1CCOCC1)S(=O)(=O)c1ccc(Br)cc1 (nonaromatic ring conformer: 64.5654610119594 kcal/mol)

>  <smiles>  (68) 
CCN(CC(=O)Nc1ccccc1C(=O)N1CCOCC1)S(=O)(=O)c1ccc(Br)cc1

>  <score_type>  (68) 
oracle

>  <origin>  (68) 
adg

>  <m_score__min__energy>  (68) 
-12.5

>  <m_primary>  (68) 
energy

$$$$
68:0
     RDKit          3D

 62 65  0  0  0  0  0  0  0  0999 V2000
   59.6520   29.7760   46.5540 C   0  0  0  0  0  0  0  0  0  0  0  0
   58.8740   30.2430   45.5640 C   0  0  0  0  0  0  0  0  0  0  0  0
   58.4270   31.5660   45.4030 C   0  0  0  0  0  0  0  0  0  0  0  0
   58.7920   32.7060   46.0220 C   0  0  0  0  0  0  0  0  0  0  0  0
   59.6770   32.7920   47.1940 C   0  0  0  0  0  0  0  0  0  0  0  0
   59.2850   33.1430   48.4710 C   0  0  0  0  0  0  0  0  0  0  0  0
   60.4630   33.1690   49.2010 C   0  0  0  0  0  0  0  0  0  0  0  0
   60.5590   33.4240   50.6560 C   0  0  0  0  0  0  0  0  0  0  0  0
   61.4770   34.1720   51.0880 O   0  0  0  0  0  0  0  0  0  0  0  0
   59.6420   32.8190   51.5900 N   0  0  0  0  0  0  0  0  0  0  0  0
   60.1160   32.3680   52.9020 C   0  0  0  0  0  0  0  0  0  0  0  0
   59.0230   32.5920   53.9520 C   0  0  0  0  0  0  0  0  0  0  0  0
   57.7970   32.0210   53.5350 O   0  0  0  0  0  0  0  0  0  0  0  0
   57.3270   32.6920   52.3810 C   0  0  0  0  0  0  0  0  0  0  0  0
   58.2730   32.4680   51.1980 C   0  0  0  0  0  0  0  0  0  0  0  0
   61.4950   32.8740   48.3750 N   0  0  0  0  0  0  0  0  0  0  0  0
   62.9160   32.7710   48.7060 C   0  0  0  0  0  0  0  0  0  0  0  0
   63.7480   33.5510   47.6930 C   0  0  0  0  0  0  0  0  0  0  0  0
   63.7100   32.8980   46.4550 O   0  0  0  0  0  0  0  0  0  0  0  0
   61.0170   32.6590   47.1590 N   0  0  0  0  0  0  0  0  0  0  0  0
   57.4780   31.5350   44.3970 C   0  0  0  0  0  0  0  0  0  0  0  0
   57.4280   30.2380   43.9320 C   0  0  0  0  0  0  0  0  0  0  0  0
   56.5410   29.7750   42.8170 C   0  0  0  0  0  0  0  0  0  0  0  0
   58.2740   29.4480   44.6360 N   0  0  0  0  0  0  0  0  0  0  0  0
   58.5110   28.0180   44.3840 C   0  0  0  0  0  0  0  0  0  0  0  0
   57.5340   27.1840   45.1540 C   0  0  0  0  0  0  0  0  0  0  0  0
   56.2900   27.5980   45.6210 C   0  0  0  0  0  0  0  0  0  0  0  0
   55.6130   26.6640   46.3390 N   0  0  0  0  0  0  0  0  0  0  0  0
   56.3160   25.5140   46.4530 C   0  0  0  0  0  0  0  0  0  0  0  0
   55.9050   24.4540   47.0840 N   0  0  0  0  0  0  0  0  0  0  0  0
   56.4080   23.1100   46.9880 C   0  0  0  0  0  0  0  0  0  0  0  0
   56.2150   22.2480   45.7750 C   0  0  0  0  0  0  0  0  0  0  0  0
   57.0350   22.6330   47.9710 O   0  0  0  0  0  0  0  0  0  0  0  0
   57.8000   25.6040   45.6740 S   0  0  0  0  0  0  0  0  0  0  0  0
   59.9383   28.7141   46.5742 H   0  0  0  0  0  0  0  0  0  0  0  0
   60.0030   30.4554   47.3447 H   0  0  0  0  0  0  0  0  0  0  0  0
   58.3958   33.6493   45.6179 H   0  0  0  0  0  0  0  0  0  0  0  0
   58.2664   33.3545   48.8285 H   0  0  0  0  0  0  0  0  0  0  0  0
   60.3621   31.2970   52.8533 H   0  0  0  0  0  0  0  0  0  0  0  0
   61.0123   32.9411   53.1818 H   0  0  0  0  0  0  0  0  0  0  0  0
   59.3331   32.1269   54.8994 H   0  0  0  0  0  0  0  0  0  0  0  0
   58.8794   33.6745   54.0842 H   0  0  0  0  0  0  0  0  0  0  0  0
   56.3290   32.3084   52.1223 H   0  0  0  0  0  0  0  0  0  0  0  0
   57.2795   33.7699   52.5950 H   0  0  0  0  0  0  0  0  0  0  0  0
   58.2382   31.4107   50.8964 H   0  0  0  0  0  0  0  0  0  0  0  0
   57.9604   33.1017   50.3550 H   0  0  0  0  0  0  0  0  0  0  0  0
   63.0862   33.1836   49.7114 H   0  0  0  0  0  0  0  0  0  0  0  0
   63.2160   31.7130   48.6799 H   0  0  0  0  0  0  0  0  0  0  0  0
   63.3372   34.5657   47.5849 H   0  0  0  0  0  0  0  0  0  0  0  0
   64.7890   33.6118   48.0432 H   0  0  0  0  0  0  0  0  0  0  0  0
   64.5190   32.3250   46.4210 H   0  0  0  0  0  0  0  0  0  0  0  0
   61.5990   32.4380   46.3200 H   0  0  0  0  0  0  0  0  0  0  0  0
   56.8777   32.3834   44.0367 H   0  0  0  0  0  0  0  0  0  0  0  0
   55.6396   29.3045   43.2368 H   0  0  0  0  0  0  0  0  0  0  0  0
   56.2504   30.6365   42.1978 H   0  0  0  0  0  0  0  0  0  0  0  0
   57.0816   29.0441   42.1978 H   0  0  0  0  0  0  0  0  0  0  0  0
   58.3933   27.8148   43.3094 H   0  0  0  0  0  0  0  0  0  0  0  0
   59.5310   27.7627   44.7071 H   0  0  0  0  0  0  0  0  0  0  0  0
   55.8866   28.6023   45.4243 H   0  0  0  0  0  0  0  0  0  0  0  0
   55.9847   21.2193   46.0891 H   0  0  0  0  0  0  0  0  0  0  0  0
   55.3830   22.6426   45.1733 H   0  0  0  0  0  0  0  0  0  0  0  0
   57.1359   22.2502   45.1733 H   0  0  0  0  0  0  0  0  0  0  0  0
  1  2  2  0
  2  3  1  0
  3  4  2  3
  4  5  1  0
  5  6  1  0
  6  7  2  0
  7  8  1  0
  8  9  2  0
  8 10  1  0
 10 11  1  0
 11 12  1  0
 12 13  1  0
 13 14  1  0
 14 15  1  0
  7 16  1  0
 16 17  1  0
 17 18  1  0
 18 19  1  0
 16 20  1  0
  3 21  1  0
 21 22  2  0
 22 23  1  0
 22 24  1  0
 24 25  1  0
 25 26  1  0
 26 27  2  0
 27 28  1  0
 28 29  1  0
 29 30  2  3
 30 31  1  0
 31 32  1  0
 31 33  2  0
 29 34  1  0
 24  2  1  0
 34 26  1  0
 20  5  2  0
 15 10  1  0
  1 35  1  0
  1 36  1  0
  4 37  1  0
  6 38  1  0
 11 39  1  0
 11 40  1  0
 12 41  1  0
 12 42  1  0
 14 43  1  0
 14 44  1  0
 15 45  1  0
 15 46  1  0
 17 47  1  0
 17 48  1  0
 18 49  1  0
 18 50  1  0
 19 51  1  0
 20 52  1  0
 21 53  1  0
 23 54  1  0
 23 55  1  0
 23 56  1  0
 25 57  1  0
 25 58  1  0
 27 59  1  0
 32 60  1  0
 32 61  1  0
 32 62  1  0
M  CHG  2  20   1  28  -1
M  END
>  <UniqueID>  (69) 
62

>  <SMILES>  (69) 
C=c1c(=Cc2cc(C(=O)N3CCOCC3)n(CCO)[nH+]2)cc(C)n1Cc1c[n-]c(=NC(C)=O)s1

>  <Energy>  (69) 
166.83783825541184

>  <Genealogy>  (69) 
C=c1c(=Cc2cc(C(=O)N3CCOCC3)n(CCO)[nH+]2)cc(C)n1Cc1c[n-]c(=NC(C)=O)s1 (protonated)
C=c1c(=Cc2cc(C(=O)N3CCOCC3)n(CCO)[nH+]2)cc(C)n1Cc1c[n-]c(=NC(C)=O)s1 (3D coordinates assigned)
C=c1c(=Cc2cc(C(=O)N3CCOCC3)n(CCO)[nH+]2)cc(C)n1Cc1c[n-]c(=NC(C)=O)s1 (nonaromatic ring conformer: 166.83783825541184 kcal/mol)

>  <smiles>  (69) 
C=c1c(=Cc2cc(C(=O)N3CCOCC3)n(CCO)n2)cc(C)n1Cc1c[nH]c(=NC(C)=O)s1

>  <score_type>  (69) 
oracle

>  <origin>  (69) 
adg

>  <m_score__min__energy>  (69) 
-9.0600000000000005

>  <m_primary>  (69) 
energy

$$$$
69:0
     RDKit          3D

 66 70  0  0  0  0  0  0  0  0999 V2000
   54.8160   28.9430   54.7860 C   0  0  0  0  0  0  0  0  0  0  0  0
   55.2760   29.7940   53.8530 C   0  0  0  0  0  0  0  0  0  0  0  0
   54.5720   30.2940   52.7450 C   0  0  0  0  0  0  0  0  0  0  0  0
   53.3650   29.9710   52.2380 C   0  0  0  0  0  0  0  0  0  0  0  0
   52.3760   30.9190   51.7060 C   0  0  0  0  0  0  0  0  0  0  0  0
   52.1000   31.0520   50.3970 N   0  0  0  0  0  0  0  0  0  0  0  0
   51.0790   31.9360   50.3820 C   0  0  0  0  0  0  0  0  0  0  0  0
   50.5480   32.3400   49.3150 O   0  0  0  0  0  0  0  0  0  0  0  0
   50.6680   32.3500   51.6010 N   0  0  0  0  0  0  0  0  0  0  0  0
   51.4900   31.6840   52.4300 C   0  0  0  0  0  0  0  0  0  0  0  0
   51.4220   31.7570   53.8180 O   0  0  0  0  0  0  0  0  0  0  0  0
   55.3880   31.2500   52.1680 C   0  0  0  0  0  0  0  0  0  0  0  0
   56.5660   31.2640   52.8860 C   0  0  0  0  0  0  0  0  0  0  0  0
   57.7150   32.1340   52.5580 C   0  0  0  0  0  0  0  0  0  0  0  0
   57.9770   33.1200   53.3000 O   0  0  0  0  0  0  0  0  0  0  0  0
   58.5000   31.9100   51.3700 N   0  0  0  0  0  0  0  0  0  0  0  0
   59.0170   33.0570   50.6140 C   0  0  0  0  0  0  0  0  0  0  0  0
   60.1640   32.6360   49.6770 C   0  0  0  0  0  0  0  0  0  0  0  0
   59.8370   31.4640   48.8310 N   0  0  0  0  0  0  0  0  0  0  0  0
   59.6010   31.6930   47.3770 C   0  0  0  0  0  0  0  0  0  0  0  0
   58.2390   32.3620   47.0120 C   0  0  0  0  0  0  0  0  0  0  0  0
   58.1740   33.8950   47.0560 C   0  0  0  0  0  0  0  0  0  0  0  0
   59.5700   34.6340   46.2370 S   0  0  0  0  0  0  0  0  0  0  0  0
   59.4060   34.5110   44.7460 O   0  0  0  0  0  0  0  0  0  0  0  0
   59.6670   36.0850   46.6130 O   0  0  0  0  0  0  0  0  0  0  0  0
   61.0440   33.7810   46.7450 C   0  0  0  0  0  0  0  0  0  0  0  0
   60.8460   32.2670   46.6530 C   0  0  0  0  0  0  0  0  0  0  0  0
   58.8810   30.4950   49.4230 C   0  0  0  0  0  0  0  0  0  0  0  0
   58.8660   30.5540   50.9500 C   0  0  0  0  0  0  0  0  0  0  0  0
   56.5020   30.3840   53.9170 N   0  0  0  0  0  0  0  0  0  0  0  0
   57.5780   30.0780   54.8760 C   0  0  0  0  0  0  0  0  0  0  0  0
   58.8250   29.5580   54.1930 C   0  0  0  0  0  0  0  0  0  0  0  0
   58.7740   28.3160   53.5320 C   0  0  0  0  0  0  0  0  0  0  0  0
   59.8950   27.8210   52.8620 C   0  0  0  0  0  0  0  0  0  0  0  0
   61.0780   28.5630   52.8330 C   0  0  0  0  0  0  0  0  0  0  0  0
   62.1650   28.0820   52.1810 F   0  0  0  0  0  0  0  0  0  0  0  0
   61.1390   29.8030   53.4720 C   0  0  0  0  0  0  0  0  0  0  0  0
   60.0210   30.3080   54.1430 C   0  0  0  0  0  0  0  0  0  0  0  0
   60.1170   31.5190   54.7420 F   0  0  0  0  0  0  0  0  0  0  0  0
   55.4708   28.6244   55.6105 H   0  0  0  0  0  0  0  0  0  0  0  0
   53.7848   28.5651   54.7251 H   0  0  0  0  0  0  0  0  0  0  0  0
   53.0971   28.9043   52.2211 H   0  0  0  0  0  0  0  0  0  0  0  0
   51.8000   31.0130   54.3910 H   0  0  0  0  0  0  0  0  0  0  0  0
   55.1438   31.8804   51.3002 H   0  0  0  0  0  0  0  0  0  0  0  0
   58.2023   33.4870   50.0129 H   0  0  0  0  0  0  0  0  0  0  0  0
   59.4053   33.7980   51.3282 H   0  0  0  0  0  0  0  0  0  0  0  0
   60.4049   33.4839   49.0190 H   0  0  0  0  0  0  0  0  0  0  0  0
   61.0129   32.3479   50.3144 H   0  0  0  0  0  0  0  0  0  0  0  0
   59.4630   30.6888   46.9498 H   0  0  0  0  0  0  0  0  0  0  0  0
   57.9808   32.0495   45.9894 H   0  0  0  0  0  0  0  0  0  0  0  0
   57.5412   32.0270   47.7936 H   0  0  0  0  0  0  0  0  0  0  0  0
   57.2511   34.2275   46.5583 H   0  0  0  0  0  0  0  0  0  0  0  0
   58.1875   34.2097   48.1100 H   0  0  0  0  0  0  0  0  0  0  0  0
   61.8773   34.0774   46.0910 H   0  0  0  0  0  0  0  0  0  0  0  0
   61.2673   34.0476   47.7886 H   0  0  0  0  0  0  0  0  0  0  0  0
   60.7659   32.0033   45.5881 H   0  0  0  0  0  0  0  0  0  0  0  0
   61.7134   31.8256   47.1655 H   0  0  0  0  0  0  0  0  0  0  0  0
   57.8712   30.7217   49.0503 H   0  0  0  0  0  0  0  0  0  0  0  0
   59.2005   29.4845   49.1285 H   0  0  0  0  0  0  0  0  0  0  0  0
   58.1300   29.8355   51.3399 H   0  0  0  0  0  0  0  0  0  0  0  0
   59.8614   30.2986   51.3423 H   0  0  0  0  0  0  0  0  0  0  0  0
   57.8327   30.9956   55.4267 H   0  0  0  0  0  0  0  0  0  0  0  0
   57.2122   29.2919   55.5530 H   0  0  0  0  0  0  0  0  0  0  0  0
   57.8430   27.7303   53.5433 H   0  0  0  0  0  0  0  0  0  0  0  0
   59.8462   26.8453   52.3564 H   0  0  0  0  0  0  0  0  0  0  0  0
   62.0716   30.3858   53.4474 H   0  0  0  0  0  0  0  0  0  0  0  0
  1  2  2  0
  2  3  1  0
  3  4  2  3
  4  5  1  0
  5  6  1  0
  6  7  1  0
  7  8  2  0
  7  9  1  0
  9 10  1  0
 10 11  1  0
  3 12  1  0
 12 13  2  0
 13 14  1  0
 14 15  2  0
 14 16  1  0
 16 17  1  0
 17 18  1  0
 18 19  1  0
 19 20  1  0
 20 21  1  0
 21 22  1  0
 22 23  1  0
 23 24  2  0
 23 25  2  0
 23 26  1  0
 26 27  1  0
 19 28  1  0
 28 29  1  0
 13 30  1  0
 30 31  1  0
 31 32  1  0
 32 33  2  0
 33 34  1  0
 34 35  2  0
 35 36  1  0
 35 37  1  0
 37 38  2  0
 38 39  1  0
 30  2  1  0
 38 32  1  0
 10  5  2  0
 29 16  1  0
 27 20  1  0
  1 40  1  0
  1 41  1  0
  4 42  1  0
 11 43  1  0
 12 44  1  0
 17 45  1  0
 17 46  1  0
 18 47  1  0
 18 48  1  0
 20 49  1  0
 21 50  1  0
 21 51  1  0
 22 52  1  0
 22 53  1  0
 26 54  1  0
 26 55  1  0
 27 56  1  0
 27 57  1  0
 28 58  1  0
 28 59  1  0
 29 60  1  0
 29 61  1  0
 31 62  1  0
 31 63  1  0
 33 64  1  0
 34 65  1  0
 37 66  1  0
M  CHG  2   6  -1   9  -1
M  END
>  <UniqueID>  (70) 
63

>  <SMILES>  (70) 
C=c1c(=Cc2[n-]c(=O)[n-]c2O)cc(C(=O)N2CCN(C3CCS(=O)(=O)CC3)CC2)n1Cc1ccc(F)cc1F

>  <Energy>  (70) 
158.9005716501

>  <Genealogy>  (70) 
C=c1c(=Cc2[n-]c(=O)[n-]c2O)cc(C(=O)N2CCN(C3CCS(=O)(=O)CC3)CC2)n1Cc1ccc(F)cc1F (protonated)
C=c1c(=Cc2[n-]c(=O)[n-]c2O)cc(C(=O)N2CCN(C3CCS(=O)(=O)CC3)CC2)n1Cc1ccc(F)cc1F (3D coordinates assigned)
C=c1c(=Cc2[n-]c(=O)[n-]c2O)cc(C(=O)N2CCN(C3CCS(=O)(=O)CC3)CC2)n1Cc1ccc(F)cc1F (nonaromatic ring conformer: 158.9005716501 kcal/mol)

>  <smiles>  (70) 
C=c1c(=Cc2[nH]c(=O)[nH]c2O)cc(C(=O)N2CCN(C3CCS(=O)(=O)CC3)CC2)n1Cc1ccc(F)cc1F

>  <score_type>  (70) 
oracle

>  <origin>  (70) 
adg

>  <m_score__min__energy>  (70) 
-14.15

>  <m_primary>  (70) 
energy

$$$$
70:0
     RDKit          3D

 41 43  0  0  0  0  0  0  0  0999 V2000
   58.4740   30.1090   48.1090 O   0  0  0  0  0  0  0  0  0  0  0  0
   59.7190   30.3020   48.0400 C   0  0  0  0  0  0  0  0  0  0  0  0
   60.4000   31.1550   49.0610 C   0  0  0  0  0  0  0  0  0  0  0  0
   59.5850   32.4190   49.3290 C   0  0  0  0  0  0  0  0  0  0  0  0
   60.3900   33.8860   48.5920 S   0  0  0  0  0  0  0  0  0  0  0  0
   59.3030   33.9730   47.1650 C   0  0  0  0  0  0  0  0  0  0  0  0
   59.7340   34.6080   45.9930 C   0  0  0  0  0  0  0  0  0  0  0  0
   58.8890   34.6730   44.8810 C   0  0  0  0  0  0  0  0  0  0  0  0
   57.6150   34.0980   44.9340 C   0  0  0  0  0  0  0  0  0  0  0  0
   57.1880   33.4520   46.0990 C   0  0  0  0  0  0  0  0  0  0  0  0
   58.0310   33.3850   47.2120 C   0  0  0  0  0  0  0  0  0  0  0  0
   60.4800   29.7430   46.9670 N   0  0  0  0  0  0  0  0  0  0  0  0
   60.2820   28.3860   46.4770 C   0  0  0  0  0  0  0  0  0  0  0  0
   58.8350   28.1970   46.0890 C   0  0  0  0  0  0  0  0  0  0  0  0
   58.1320   27.1070   46.6220 C   0  0  0  0  0  0  0  0  0  0  0  0
   56.7910   26.9080   46.2950 C   0  0  0  0  0  0  0  0  0  0  0  0
   56.1700   25.9230   46.7770 O   0  0  0  0  0  0  0  0  0  0  0  0
   56.1530   27.7710   45.4610 N   0  0  0  0  0  0  0  0  0  0  0  0
   56.7900   28.8530   44.9270 C   0  0  0  0  0  0  0  0  0  0  0  0
   56.0930   29.7280   44.0780 C   0  0  0  0  0  0  0  0  0  0  0  0
   56.7350   30.8420   43.5330 C   0  0  0  0  0  0  0  0  0  0  0  0
   58.0740   31.0930   43.8310 C   0  0  0  0  0  0  0  0  0  0  0  0
   58.7830   30.2320   44.6710 C   0  0  0  0  0  0  0  0  0  0  0  0
   58.1540   29.0980   45.2310 C   0  0  0  0  0  0  0  0  0  0  0  0
   60.5048   30.5862   49.9967 H   0  0  0  0  0  0  0  0  0  0  0  0
   61.3910   31.4437   48.6808 H   0  0  0  0  0  0  0  0  0  0  0  0
   58.5829   32.3005   48.8911 H   0  0  0  0  0  0  0  0  0  0  0  0
   59.5151   32.5669   50.4168 H   0  0  0  0  0  0  0  0  0  0  0  0
   60.7377   35.0557   45.9476 H   0  0  0  0  0  0  0  0  0  0  0  0
   59.2265   35.1769   43.9633 H   0  0  0  0  0  0  0  0  0  0  0  0
   56.9493   34.1538   44.0601 H   0  0  0  0  0  0  0  0  0  0  0  0
   56.1877   32.9962   46.1393 H   0  0  0  0  0  0  0  0  0  0  0  0
   57.6964   32.8708   48.1250 H   0  0  0  0  0  0  0  0  0  0  0  0
   60.9223   28.2162   45.5988 H   0  0  0  0  0  0  0  0  0  0  0  0
   60.5463   27.6684   47.2677 H   0  0  0  0  0  0  0  0  0  0  0  0
   58.6403   26.4062   47.3007 H   0  0  0  0  0  0  0  0  0  0  0  0
   55.1470   27.5970   45.2340 H   0  0  0  0  0  0  0  0  0  0  0  0
   55.0363   29.5350   43.8412 H   0  0  0  0  0  0  0  0  0  0  0  0
   56.1836   31.5226   42.8676 H   0  0  0  0  0  0  0  0  0  0  0  0
   58.5742   31.9738   43.4021 H   0  0  0  0  0  0  0  0  0  0  0  0
   59.8393   30.4383   44.8984 H   0  0  0  0  0  0  0  0  0  0  0  0
  1  2  2  0
  2  3  1  0
  3  4  1  0
  4  5  1  0
  5  6  1  0
  6  7  2  0
  7  8  1  0
  8  9  2  0
  9 10  1  0
 10 11  2  0
  2 12  1  0
 12 13  1  0
 13 14  1  0
 14 15  2  0
 15 16  1  0
 16 17  2  0
 16 18  1  0
 18 19  1  0
 19 20  2  0
 20 21  1  0
 21 22  2  0
 22 23  1  0
 23 24  2  0
 11  6  1  0
 24 14  1  0
 24 19  1  0
  3 25  1  0
  3 26  1  0
  4 27  1  0
  4 28  1  0
  7 29  1  0
  8 30  1  0
  9 31  1  0
 10 32  1  0
 11 33  1  0
 13 34  1  0
 13 35  1  0
 15 36  1  0
 18 37  1  0
 20 38  1  0
 21 39  1  0
 22 40  1  0
 23 41  1  0
M  CHG  1  12  -1
M  END
>  <UniqueID>  (71) 
64

>  <SMILES>  (71) 
O=C(CCSc1ccccc1)[N-]Cc1cc(=O)[nH]c2ccccc12

>  <Energy>  (71) 
39.37404479872624

>  <Genealogy>  (71) 
O=C(CCSc1ccccc1)[N-]Cc1cc(=O)[nH]c2ccccc12 (protonated)
O=C(CCSc1ccccc1)[N-]Cc1cc(=O)[nH]c2ccccc12 (3D coordinates assigned)
O=C(CCSc1ccccc1)[N-]Cc1cc(=O)[nH]c2ccccc12 (optimized conformer: 39.37404479872624 kcal/mol)

>  <smiles>  (71) 
O=C(CCSc1ccccc1)NCc1cc(=O)[nH]c2ccccc12

>  <score_type>  (71) 
oracle

>  <origin>  (71) 
adg

>  <m_score__min__energy>  (71) 
-9.2899999999999991

>  <m_primary>  (71) 
energy

$$$$
71:0
     RDKit          3D

 50 53  0  0  0  0  0  0  0  0999 V2000
   60.0370   36.3450   45.9830 O   0  0  0  0  0  0  0  0  0  0  0  0
   60.0690   35.1560   46.4000 C   0  0  0  0  0  0  0  0  0  0  0  0
   60.0070   34.0170   45.4120 C   0  0  0  0  0  0  0  0  0  0  0  0
   58.6320   33.7540   44.9870 N   0  0  0  0  0  0  0  0  0  0  0  0
   58.0220   32.6110   45.1000 C   0  0  0  0  0  0  0  0  0  0  0  0
   57.0380   32.2270   44.1410 N   0  0  0  0  0  0  0  0  0  0  0  0
   56.7990   30.5290   44.0810 S   0  0  0  0  0  0  0  0  0  0  0  0
   57.1140   29.9990   42.7100 O   0  0  0  0  0  0  0  0  0  0  0  0
   55.4090   30.1570   44.5130 O   0  0  0  0  0  0  0  0  0  0  0  0
   57.9940   30.0490   45.2500 C   0  0  0  0  0  0  0  0  0  0  0  0
   58.5460   28.8300   45.2410 C   0  0  0  0  0  0  0  0  0  0  0  0
   57.8570   27.6090   45.7030 C   0  0  0  0  0  0  0  0  0  0  0  0
   58.5790   26.4830   46.1410 C   0  0  0  0  0  0  0  0  0  0  0  0
   57.9030   25.3220   46.5280 C   0  0  0  0  0  0  0  0  0  0  0  0
   56.5080   25.2690   46.4700 C   0  0  0  0  0  0  0  0  0  0  0  0
   55.7840   26.3740   46.0110 C   0  0  0  0  0  0  0  0  0  0  0  0
   54.3970   26.3170   45.9410 O   0  0  0  0  0  0  0  0  0  0  0  0
   56.4570   27.5370   45.6190 C   0  0  0  0  0  0  0  0  0  0  0  0
   58.4630   31.3850   46.3600 S   0  0  0  0  0  0  0  0  0  0  0  0
   60.3320   34.9260   47.7900 N   0  0  0  0  0  0  0  0  0  0  0  0
   61.4870   34.2700   48.3290 C   0  0  0  0  0  0  0  0  0  0  0  0
   62.6530   34.1290   47.5590 C   0  0  0  0  0  0  0  0  0  0  0  0
   63.7580   33.4430   48.0710 C   0  0  0  0  0  0  0  0  0  0  0  0
   63.7040   32.8800   49.3490 C   0  0  0  0  0  0  0  0  0  0  0  0
   65.0930   32.0210   49.9890 Cl  0  0  0  0  0  0  0  0  0  0  0  0
   62.5360   32.9920   50.1110 C   0  0  0  0  0  0  0  0  0  0  0  0
   61.4250   33.6780   49.6030 C   0  0  0  0  0  0  0  0  0  0  0  0
   59.9380   33.7940   50.6070 S   0  0  0  0  0  0  0  0  0  0  0  0
   59.4750   32.0890   50.2960 C   0  0  0  0  0  0  0  0  0  0  0  0
   58.5170   31.4640   51.1050 C   0  0  0  0  0  0  0  0  0  0  0  0
   58.1670   30.1300   50.8740 C   0  0  0  0  0  0  0  0  0  0  0  0
   58.7690   29.4190   49.8310 C   0  0  0  0  0  0  0  0  0  0  0  0
   59.7180   30.0430   49.0140 C   0  0  0  0  0  0  0  0  0  0  0  0
   60.0680   31.3780   49.2440 C   0  0  0  0  0  0  0  0  0  0  0  0
   60.6112   34.2750   44.5298 H   0  0  0  0  0  0  0  0  0  0  0  0
   60.3974   33.1124   45.9012 H   0  0  0  0  0  0  0  0  0  0  0  0
   56.7080   32.8630   43.3810 H   0  0  0  0  0  0  0  0  0  0  0  0
   59.5757   28.7319   44.8666 H   0  0  0  0  0  0  0  0  0  0  0  0
   59.6778   26.5165   46.1789 H   0  0  0  0  0  0  0  0  0  0  0  0
   58.4710   24.4479   46.8791 H   0  0  0  0  0  0  0  0  0  0  0  0
   55.9789   24.3577   46.7855 H   0  0  0  0  0  0  0  0  0  0  0  0
   55.8864   28.3991   45.2432 H   0  0  0  0  0  0  0  0  0  0  0  0
   62.6969   34.5605   46.5481 H   0  0  0  0  0  0  0  0  0  0  0  0
   64.6720   33.3461   47.4667 H   0  0  0  0  0  0  0  0  0  0  0  0
   62.4898   32.5398   51.1127 H   0  0  0  0  0  0  0  0  0  0  0  0
   58.0395   32.0234   51.9230 H   0  0  0  0  0  0  0  0  0  0  0  0
   57.4178   29.6396   51.5130 H   0  0  0  0  0  0  0  0  0  0  0  0
   58.4962   28.3684   49.6528 H   0  0  0  0  0  0  0  0  0  0  0  0
   60.1886   29.4845   48.1915 H   0  0  0  0  0  0  0  0  0  0  0  0
   60.8099   31.8703   48.5980 H   0  0  0  0  0  0  0  0  0  0  0  0
  1  2  2  0
  2  3  1  0
  3  4  1  0
  4  5  2  3
  5  6  1  0
  6  7  1  0
  7  8  2  0
  7  9  2  0
  7 10  1  0
 10 11  2  3
 11 12  1  0
 12 13  2  0
 13 14  1  0
 14 15  2  0
 15 16  1  0
 16 17  1  0
 16 18  2  0
 10 19  1  0
  2 20  1  0
 20 21  1  0
 21 22  2  0
 22 23  1  0
 23 24  2  0
 24 25  1  0
 24 26  1  0
 26 27  2  0
 27 28  1  0
 28 29  1  0
 29 30  2  0
 30 31  1  0
 31 32  2  0
 32 33  1  0
 33 34  2  0
 19  5  1  0
 27 21  1  0
 34 29  1  0
 18 12  1  0
  3 35  1  0
  3 36  1  0
  6 37  1  0
 11 38  1  0
 13 39  1  0
 14 40  1  0
 15 41  1  0
 18 42  1  0
 22 43  1  0
 23 44  1  0
 26 45  1  0
 30 46  1  0
 31 47  1  0
 32 48  1  0
 33 49  1  0
 34 50  1  0
M  CHG  2  17  -1  20  -1
M  END
>  <UniqueID>  (72) 
65

>  <SMILES>  (72) 
O=C(CN=C1NS(=O)(=O)C(=Cc2cccc([O-])c2)S1)[N-]c1ccc(Cl)cc1Sc1ccccc1

>  <Energy>  (72) 
78.41928981100419

>  <Genealogy>  (72) 
O=C(CN=C1NS(=O)(=O)C(=Cc2cccc([O-])c2)S1)[N-]c1ccc(Cl)cc1Sc1ccccc1 (protonated)
O=C(CN=C1NS(=O)(=O)C(=Cc2cccc([O-])c2)S1)[N-]c1ccc(Cl)cc1Sc1ccccc1 (3D coordinates assigned)
O=C(CN=C1NS(=O)(=O)C(=Cc2cccc([O-])c2)S1)[N-]c1ccc(Cl)cc1Sc1ccccc1 (nonaromatic ring conformer: 78.41928981100419 kcal/mol)

>  <smiles>  (72) 
O=C(CN=C1NS(=O)(=O)C(=Cc2cccc(O)c2)S1)Nc1ccc(Cl)cc1Sc1ccccc1

>  <score_type>  (72) 
oracle

>  <origin>  (72) 
adg

>  <m_score__min__energy>  (72) 
-14.52

>  <m_primary>  (72) 
energy

$$$$
72:0
     RDKit          3D

 26 27  0  0  0  0  0  0  0  0999 V2000
   55.2630   29.3190   44.8890 O   0  0  0  0  0  0  0  0  0  0  0  0
   56.4890   29.0300   44.8320 C   0  0  0  0  0  0  0  0  0  0  0  0
   57.4270   30.0220   44.1980 C   0  0  0  0  0  0  0  0  0  0  0  0
   56.8520   31.4470   44.2150 C   0  0  0  0  0  0  0  0  0  0  0  0
   57.6860   32.3750   45.0620 C   0  0  0  0  0  0  0  0  0  0  0  0
   58.1220   31.9710   46.3350 C   0  0  0  0  0  0  0  0  0  0  0  0
   58.9230   32.8190   47.1060 C   0  0  0  0  0  0  0  0  0  0  0  0
   59.3010   34.0690   46.6110 C   0  0  0  0  0  0  0  0  0  0  0  0
   58.8800   34.4740   45.3400 C   0  0  0  0  0  0  0  0  0  0  0  0
   59.2540   35.6850   44.8570 F   0  0  0  0  0  0  0  0  0  0  0  0
   58.0780   33.6300   44.5650 C   0  0  0  0  0  0  0  0  0  0  0  0
   56.9470   27.7590   45.4350 C   0  0  0  0  0  0  0  0  0  0  0  0
   58.5730   27.3360   45.6000 S   0  0  0  0  0  0  0  0  0  0  0  0
   58.2190   25.8600   46.3130 C   0  0  0  0  0  0  0  0  0  0  0  0
   59.0830   25.0270   46.6900 O   0  0  0  0  0  0  0  0  0  0  0  0
   56.8930   25.6550   46.4430 N   0  0  0  0  0  0  0  0  0  0  0  0
   56.1820   26.7080   45.9570 C   0  0  0  0  0  0  0  0  0  0  0  0
   54.7940   26.7080   46.0000 O   0  0  0  0  0  0  0  0  0  0  0  0
   58.3779   30.0157   44.7509 H   0  0  0  0  0  0  0  0  0  0  0  0
   57.5761   29.7273   43.1487 H   0  0  0  0  0  0  0  0  0  0  0  0
   56.8244   31.8325   43.1851 H   0  0  0  0  0  0  0  0  0  0  0  0
   55.8413   31.4038   44.6471 H   0  0  0  0  0  0  0  0  0  0  0  0
   57.8324   30.9846   46.7263 H   0  0  0  0  0  0  0  0  0  0  0  0
   59.2562   32.5008   48.1048 H   0  0  0  0  0  0  0  0  0  0  0  0
   59.9296   34.7349   47.2204 H   0  0  0  0  0  0  0  0  0  0  0  0
   57.7531   33.9492   43.5637 H   0  0  0  0  0  0  0  0  0  0  0  0
  1  2  2  0
  2  3  1  0
  3  4  1  0
  4  5  1  0
  5  6  2  0
  6  7  1  0
  7  8  2  0
  8  9  1  0
  9 10  1  0
  9 11  2  0
  2 12  1  0
 12 13  1  0
 13 14  1  0
 14 15  2  0
 14 16  1  0
 16 17  1  0
 17 18  1  0
 11  5  1  0
 17 12  2  0
  3 19  1  0
  3 20  1  0
  4 21  1  0
  4 22  1  0
  6 23  1  0
  7 24  1  0
  8 25  1  0
 11 26  1  0
M  CHG  2  16  -1  18  -1
M  END
>  <UniqueID>  (73) 
66

>  <SMILES>  (73) 
O=C(CCc1cccc(F)c1)c1sc(=O)[n-]c1[O-]

>  <Energy>  (73) 
55.33263931791099

>  <Genealogy>  (73) 
O=C(CCc1cccc(F)c1)c1sc(=O)[n-]c1[O-] (protonated)
O=C(CCc1cccc(F)c1)c1sc(=O)[n-]c1[O-] (3D coordinates assigned)
O=C(CCc1cccc(F)c1)c1sc(=O)[n-]c1[O-] (optimized conformer: 55.33263931791099 kcal/mol)

>  <smiles>  (73) 
O=C(CCc1cccc(F)c1)c1sc(=O)[nH]c1O

>  <score_type>  (73) 
oracle

>  <origin>  (73) 
adg

>  <m_score__min__energy>  (73) 
-12.91

>  <m_primary>  (73) 
energy

$$$$
73:0
     RDKit          3D

 31 32  0  0  0  0  0  0  0  0999 V2000
   55.1470   30.5410   44.5080 O   0  0  0  0  0  0  0  0  0  0  0  0
   56.2330   29.9040   44.4630 C   0  0  0  0  0  0  0  0  0  0  0  0
   57.4390   30.5470   43.8300 C   0  0  0  0  0  0  0  0  0  0  0  0
   57.8550   31.8040   44.5530 C   0  0  0  0  0  0  0  0  0  0  0  0
   58.2820   32.9320   43.8310 C   0  0  0  0  0  0  0  0  0  0  0  0
   58.6730   34.0930   44.5020 C   0  0  0  0  0  0  0  0  0  0  0  0
   58.6520   34.1380   45.8990 C   0  0  0  0  0  0  0  0  0  0  0  0
   59.0370   35.2990   46.5580 O   0  0  0  0  0  0  0  0  0  0  0  0
   58.2440   33.0150   46.6310 C   0  0  0  0  0  0  0  0  0  0  0  0
   58.2260   33.0660   48.0230 O   0  0  0  0  0  0  0  0  0  0  0  0
   57.8570   31.8490   45.9570 C   0  0  0  0  0  0  0  0  0  0  0  0
   56.2610   28.5520   44.9400 N   0  0  0  0  0  0  0  0  0  0  0  0
   57.3400   27.9670   45.6780 C   0  0  0  0  0  0  0  0  0  0  0  0
   58.5570   28.6580   45.7750 C   0  0  0  0  0  0  0  0  0  0  0  0
   59.6190   28.1300   46.5090 C   0  0  0  0  0  0  0  0  0  0  0  0
   59.4680   26.9150   47.1760 C   0  0  0  0  0  0  0  0  0  0  0  0
   60.5270   26.3890   47.9070 O   0  0  0  0  0  0  0  0  0  0  0  0
   58.2520   26.2300   47.1170 C   0  0  0  0  0  0  0  0  0  0  0  0
   57.1680   26.7450   46.3770 C   0  0  0  0  0  0  0  0  0  0  0  0
   55.8910   25.9840   46.3360 C   0  0  0  0  0  0  0  0  0  0  0  0
   54.8200   26.5580   45.9990 O   0  0  0  0  0  0  0  0  0  0  0  0
   55.8420   24.6360   46.6710 O   0  0  0  0  0  0  0  0  0  0  0  0
   58.2747   29.8321   43.8513 H   0  0  0  0  0  0  0  0  0  0  0  0
   57.1752   30.8206   42.7977 H   0  0  0  0  0  0  0  0  0  0  0  0
   58.3084   32.9002   42.7318 H   0  0  0  0  0  0  0  0  0  0  0  0
   58.9983   34.9742   43.9296 H   0  0  0  0  0  0  0  0  0  0  0  0
   58.6110   33.8560   48.5300 H   0  0  0  0  0  0  0  0  0  0  0  0
   57.5524   30.9620   46.5318 H   0  0  0  0  0  0  0  0  0  0  0  0
   58.6750   29.6264   45.2668 H   0  0  0  0  0  0  0  0  0  0  0  0
   60.5749   28.6717   46.5616 H   0  0  0  0  0  0  0  0  0  0  0  0
   58.1388   25.2770   47.6545 H   0  0  0  0  0  0  0  0  0  0  0  0
  1  2  2  0
  2  3  1  0
  3  4  1  0
  4  5  2  0
  5  6  1  0
  6  7  2  0
  7  8  1  0
  7  9  1  0
  9 10  1  0
  9 11  2  0
  2 12  1  0
 12 13  1  0
 13 14  2  0
 14 15  1  0
 15 16  2  0
 16 17  1  0
 16 18  1  0
 18 19  2  0
 19 20  1  0
 20 21  2  0
 20 22  1  0
 11  4  1  0
 19 13  1  0
  3 23  1  0
  3 24  1  0
  5 25  1  0
  6 26  1  0
 10 27  1  0
 11 28  1  0
 14 29  1  0
 15 30  1  0
 18 31  1  0
M  CHG  4   8  -1  12  -1  17  -1  22  -1
M  END
>  <UniqueID>  (74) 
67

>  <SMILES>  (74) 
O=C(Cc1ccc([O-])c(O)c1)[N-]c1ccc([O-])cc1C(=O)[O-]

>  <Energy>  (74) 
39.21480281517523

>  <Genealogy>  (74) 
O=C(Cc1ccc([O-])c(O)c1)[N-]c1ccc([O-])cc1C(=O)[O-] (protonated)
O=C(Cc1ccc([O-])c(O)c1)[N-]c1ccc([O-])cc1C(=O)[O-] (3D coordinates assigned)
O=C(Cc1ccc([O-])c(O)c1)[N-]c1ccc([O-])cc1C(=O)[O-] (optimized conformer: 39.21480281517523 kcal/mol)

>  <smiles>  (74) 
O=C(Cc1ccc(O)c(O)c1)Nc1ccc(O)cc1C(=O)O

>  <score_type>  (74) 
oracle

>  <origin>  (74) 
adg

>  <m_score__min__energy>  (74) 
-14.65

>  <m_primary>  (74) 
energy

$$$$
74:0
     RDKit          3D

 50 53  0  0  0  0  0  0  0  0999 V2000
   57.9040   32.3410   41.8630 C   0  0  0  0  0  0  0  0  0  0  0  0
   57.6400   31.9110   43.1940 O   0  0  0  0  0  0  0  0  0  0  0  0
   58.2250   32.4680   44.3430 C   0  0  0  0  0  0  0  0  0  0  0  0
   58.8490   33.7290   44.3210 C   0  0  0  0  0  0  0  0  0  0  0  0
   59.4240   34.2570   45.4780 C   0  0  0  0  0  0  0  0  0  0  0  0
   59.3710   33.5470   46.6850 C   0  0  0  0  0  0  0  0  0  0  0  0
   59.9780   34.1020   47.9160 C   0  0  0  0  0  0  0  0  0  0  0  0
   59.3530   34.9940   48.5530 O   0  0  0  0  0  0  0  0  0  0  0  0
   61.2550   33.6470   48.4050 N   0  0  0  0  0  0  0  0  0  0  0  0
   62.0080   32.6160   47.6740 C   0  0  0  0  0  0  0  0  0  0  0  0
   63.4940   32.9570   47.6550 C   0  0  0  0  0  0  0  0  0  0  0  0
   63.9900   33.1490   49.0580 C   0  0  0  0  0  0  0  0  0  0  0  0
   65.3010   32.7830   49.4030 C   0  0  0  0  0  0  0  0  0  0  0  0
   65.7690   32.9830   50.7040 C   0  0  0  0  0  0  0  0  0  0  0  0
   64.9370   33.5610   51.6650 C   0  0  0  0  0  0  0  0  0  0  0  0
   63.6370   33.9450   51.3260 C   0  0  0  0  0  0  0  0  0  0  0  0
   63.1510   33.7380   50.0260 C   0  0  0  0  0  0  0  0  0  0  0  0
   61.7620   34.2130   49.6690 C   0  0  0  0  0  0  0  0  0  0  0  0
   58.7630   32.2830   46.7090 C   0  0  0  0  0  0  0  0  0  0  0  0
   58.1960   31.7320   45.5450 C   0  0  0  0  0  0  0  0  0  0  0  0
   57.5440   30.4490   45.5840 N   0  0  0  0  0  0  0  0  0  0  0  0
   58.2470   29.1990   45.4780 C   0  0  0  0  0  0  0  0  0  0  0  0
   59.4040   29.1730   44.9740 O   0  0  0  0  0  0  0  0  0  0  0  0
   57.6130   27.9300   45.9100 C   0  0  0  0  0  0  0  0  0  0  0  0
   58.3440   26.9470   46.6000 C   0  0  0  0  0  0  0  0  0  0  0  0
   57.7270   25.7580   46.9920 C   0  0  0  0  0  0  0  0  0  0  0  0
   56.3800   25.5520   46.6860 C   0  0  0  0  0  0  0  0  0  0  0  0
   55.8080   24.4860   47.0320 O   0  0  0  0  0  0  0  0  0  0  0  0
   55.6850   26.5040   46.0090 N   0  0  0  0  0  0  0  0  0  0  0  0
   56.2630   27.6710   45.6170 C   0  0  0  0  0  0  0  0  0  0  0  0
   58.4794   33.2782   41.8878 H   0  0  0  0  0  0  0  0  0  0  0  0
   58.4837   31.5686   41.3363 H   0  0  0  0  0  0  0  0  0  0  0  0
   56.9529   32.5085   41.3363 H   0  0  0  0  0  0  0  0  0  0  0  0
   58.8839   34.3037   43.3837 H   0  0  0  0  0  0  0  0  0  0  0  0
   59.9221   35.2371   45.4422 H   0  0  0  0  0  0  0  0  0  0  0  0
   61.8654   31.6439   48.1686 H   0  0  0  0  0  0  0  0  0  0  0  0
   61.6388   32.5709   46.6388 H   0  0  0  0  0  0  0  0  0  0  0  0
   64.0509   32.1359   47.1801 H   0  0  0  0  0  0  0  0  0  0  0  0
   63.6459   33.8861   47.0860 H   0  0  0  0  0  0  0  0  0  0  0  0
   65.9623   32.3369   48.6456 H   0  0  0  0  0  0  0  0  0  0  0  0
   66.7935   32.6850   50.9715 H   0  0  0  0  0  0  0  0  0  0  0  0
   65.3054   33.7142   52.6901 H   0  0  0  0  0  0  0  0  0  0  0  0
   62.9904   34.4126   52.0831 H   0  0  0  0  0  0  0  0  0  0  0  0
   61.0763   33.9252   50.4795 H   0  0  0  0  0  0  0  0  0  0  0  0
   61.8163   35.3037   49.5371 H   0  0  0  0  0  0  0  0  0  0  0  0
   58.7290   31.7150   47.6504 H   0  0  0  0  0  0  0  0  0  0  0  0
   56.4990   30.4250   45.5770 H   0  0  0  0  0  0  0  0  0  0  0  0
   59.4060   27.1156   46.8317 H   0  0  0  0  0  0  0  0  0  0  0  0
   58.2963   24.9905   47.5368 H   0  0  0  0  0  0  0  0  0  0  0  0
   55.6702   28.4169   45.0672 H   0  0  0  0  0  0  0  0  0  0  0  0
  1  2  1  0
  2  3  1  0
  3  4  2  0
  4  5  1  0
  5  6  2  0
  6  7  1  0
  7  8  2  0
  7  9  1  0
  9 10  1  0
 10 11  1  0
 11 12  1  0
 12 13  2  0
 13 14  1  0
 14 15  2  0
 15 16  1  0
 16 17  2  0
 17 18  1  0
  6 19  1  0
 19 20  2  0
 20 21  1  0
 21 22  1  0
 22 23  2  0
 22 24  1  0
 24 25  1  0
 25 26  2  0
 26 27  1  0
 27 28  2  0
 27 29  1  0
 29 30  1  0
 20  3  1  0
 30 24  2  0
 18  9  1  0
 17 12  1  0
  1 31  1  0
  1 32  1  0
  1 33  1  0
  4 34  1  0
  5 35  1  0
 10 36  1  0
 10 37  1  0
 11 38  1  0
 11 39  1  0
 13 40  1  0
 14 41  1  0
 15 42  1  0
 16 43  1  0
 18 44  1  0
 18 45  1  0
 19 46  1  0
 21 47  1  0
 25 48  1  0
 26 49  1  0
 30 50  1  0
M  CHG  1  29  -1
M  END
>  <UniqueID>  (75) 
68

>  <SMILES>  (75) 
COc1ccc(C(=O)N2CCc3ccccc3C2)cc1NC(=O)c1ccc(=O)[n-]c1

>  <Energy>  (75) 
67.47888055056231

>  <Genealogy>  (75) 
COc1ccc(C(=O)N2CCc3ccccc3C2)cc1NC(=O)c1ccc(=O)[n-]c1 (protonated)
COc1ccc(C(=O)N2CCc3ccccc3C2)cc1NC(=O)c1ccc(=O)[n-]c1 (3D coordinates assigned)
COc1ccc(C(=O)N2CCc3ccccc3C2)cc1NC(=O)c1ccc(=O)[n-]c1 (nonaromatic ring conformer: 67.47888055056231 kcal/mol)

>  <smiles>  (75) 
COc1ccc(C(=O)N2CCc3ccccc3C2)cc1NC(=O)c1ccc(=O)[nH]c1

>  <score_type>  (75) 
oracle

>  <origin>  (75) 
adg

>  <m_score__min__energy>  (75) 
-10.970000000000001

>  <m_primary>  (75) 
energy

$$$$
75:0
     RDKit          3D

 41 43  0  0  0  0  0  0  0  0999 V2000
   60.5810   28.7108   50.5769 H   0  0  0  0  0  0  0  0  0  0  0  0
   59.8870   28.9880   51.3840 C   0  0  0  0  0  0  0  0  0  0  0  0
   59.1260   29.2920   52.2690 C   0  0  0  0  0  0  0  0  0  0  0  0
   58.2040   29.6630   53.3470 C   0  0  0  0  0  0  0  0  0  0  0  0
   58.0758   28.8064   54.0251 H   0  0  0  0  0  0  0  0  0  0  0  0
   58.6226   30.5199   53.8952 H   0  0  0  0  0  0  0  0  0  0  0  0
   56.8940   30.0440   52.7940 N   0  0  0  0  0  0  0  0  0  0  0  0
   56.5720   31.2480   52.2610 C   0  0  0  0  0  0  0  0  0  0  0  0
   57.5050   32.3690   52.0430 C   0  0  0  0  0  0  0  0  0  0  0  0
   57.3900   33.3970   52.7650 O   0  0  0  0  0  0  0  0  0  0  0  0
   58.5000   32.3330   51.0010 N   0  0  0  0  0  0  0  0  0  0  0  0
   59.7820   33.0250   51.1700 C   0  0  0  0  0  0  0  0  0  0  0  0
   59.6730   33.8193   51.9232 H   0  0  0  0  0  0  0  0  0  0  0  0
   60.5450   32.3056   51.5021 H   0  0  0  0  0  0  0  0  0  0  0  0
   60.2110   33.6430   49.8350 C   0  0  0  0  0  0  0  0  0  0  0  0
   59.5198   34.4589   49.5770 H   0  0  0  0  0  0  0  0  0  0  0  0
   61.2365   34.0272   49.9385 H   0  0  0  0  0  0  0  0  0  0  0  0
   60.1920   32.6750   48.8020 O   0  0  0  0  0  0  0  0  0  0  0  0
   58.8650   32.2330   48.5840 C   0  0  0  0  0  0  0  0  0  0  0  0
   58.2240   33.1033   48.3798 H   0  0  0  0  0  0  0  0  0  0  0  0
   58.8593   31.5437   47.7268 H   0  0  0  0  0  0  0  0  0  0  0  0
   58.3300   31.4930   49.8120 C   0  0  0  0  0  0  0  0  0  0  0  0
   57.2621   31.2707   49.6697 H   0  0  0  0  0  0  0  0  0  0  0  0
   58.8857   30.5530   49.9446 H   0  0  0  0  0  0  0  0  0  0  0  0
   55.2230   31.3150   51.9910 C   0  0  0  0  0  0  0  0  0  0  0  0
   54.6773   32.1817   51.5897 H   0  0  0  0  0  0  0  0  0  0  0  0
   54.6860   30.0840   52.3210 C   0  0  0  0  0  0  0  0  0  0  0  0
   53.3920   29.7740   52.1070 C   0  0  0  0  0  0  0  0  0  0  0  0
   53.1138   28.7116   52.1697 H   0  0  0  0  0  0  0  0  0  0  0  0
   52.3190   30.7310   51.7970 C   0  0  0  0  0  0  0  0  0  0  0  0
   51.9110   31.6900   52.6450 N   0  0  0  0  0  0  0  0  0  0  0  0
   51.0220   32.3970   51.9130 C   0  0  0  0  0  0  0  0  0  0  0  0
   50.4000   33.3890   52.3750 O   0  0  0  0  0  0  0  0  0  0  0  0
   50.8620   31.9660   50.6430 N   0  0  0  0  0  0  0  0  0  0  0  0
   51.7020   30.9190   50.5800 C   0  0  0  0  0  0  0  0  0  0  0  0
   51.9210   30.1680   49.4300 O   0  0  0  0  0  0  0  0  0  0  0  0
   52.8250   30.1740   48.9730 H   0  0  0  0  0  0  0  0  0  0  0  0
   55.7370   29.3300   52.8690 C   0  0  0  0  0  0  0  0  0  0  0  0
   55.6340   28.1540   53.5090 C   0  0  0  0  0  0  0  0  0  0  0  0
   56.5361   27.6574   53.8958 H   0  0  0  0  0  0  0  0  0  0  0  0
   54.6475   27.6872   53.6465 H   0  0  0  0  0  0  0  0  0  0  0  0
  1  2  1  0
  2  3  3  0
  3  4  1  0
  4  5  1  0
  4  6  1  0
  4  7  1  0
  7  8  1  0
  8  9  1  0
  9 10  2  0
  9 11  1  0
 11 12  1  0
 12 13  1  0
 12 14  1  0
 12 15  1  0
 15 16  1  0
 15 17  1  0
 15 18  1  0
 18 19  1  0
 19 20  1  0
 19 21  1  0
 19 22  1  0
 22 23  1  0
 22 24  1  0
  8 25  2  0
 25 26  1  0
 25 27  1  0
 27 28  2  0
 28 29  1  0
 28 30  1  0
 30 31  1  0
 31 32  1  0
 32 33  2  0
 32 34  1  0
 34 35  1  0
 35 36  1  0
 36 37  1  0
 27 38  1  0
 38 39  2  0
 39 40  1  0
 39 41  1  0
 38  7  1  0
 22 11  1  0
 35 30  2  0
M  CHG  2  31  -1  34  -1
M  END
>  <UniqueID>  (76) 
69

>  <SMILES>  (76) 
C#CCn1c(C(=O)N2CCOCC2)c/c(=C/c2[n-]c(=O)[n-]c2O)c1=C

>  <Energy>  (76) 
116.7011345013024

>  <Genealogy>  (76) 
C#CCn1c(C(=O)N2CCOCC2)cc(=Cc2[n-]c(=O)[n-]c2O)c1=C (protonated)
C#CCn1c(C(=O)N2CCOCC2)c/c(=C/c2[n-]c(=O)[n-]c2O)c1=C (cis-trans isomerization)
C#CCn1c(C(=O)N2CCOCC2)c/c(=C/c2[n-]c(=O)[n-]c2O)c1=C (3D coordinates assigned)
C#CCn1c(C(=O)N2CCOCC2)c/c(=C/c2[n-]c(=O)[n-]c2O)c1=C (nonaromatic ring conformer: 116.7011345013024 kcal/mol)

>  <smiles>  (76) 
C#CCn1c(C(=O)N2CCOCC2)cc(=Cc2[nH]c(=O)[nH]c2O)c1=C

>  <score_type>  (76) 
oracle

>  <origin>  (76) 
adg

>  <m_score__min__energy>  (76) 
-12.16

>  <m_primary>  (76) 
energy

$$$$
76:0
     RDKit          3D

 42 44  0  0  0  0  0  0  0  0999 V2000
   57.6320   26.7180   45.3620 C   0  0  0  0  0  0  0  0  0  0  0  0
   56.8320   27.8120   45.7960 O   0  0  0  0  0  0  0  0  0  0  0  0
   57.1160   29.1640   45.5380 C   0  0  0  0  0  0  0  0  0  0  0  0
   58.2920   29.7810   46.0070 C   0  0  0  0  0  0  0  0  0  0  0  0
   58.5640   31.1390   45.7290 C   0  0  0  0  0  0  0  0  0  0  0  0
   59.7400   31.8070   46.1720 C   0  0  0  0  0  0  0  0  0  0  0  0
   60.8490   31.1470   46.9600 C   0  0  0  0  0  0  0  0  0  0  0  0
   61.4900   32.1230   47.8650 N   0  0  0  0  0  0  0  0  0  0  0  0
   62.4360   32.9820   47.1330 C   0  0  0  0  0  0  0  0  0  0  0  0
   63.2750   33.8100   48.1270 C   0  0  0  0  0  0  0  0  0  0  0  0
   62.5800   34.0700   49.4100 N   0  0  0  0  0  0  0  0  0  0  0  0
   62.9330   33.0870   50.4500 C   0  0  0  0  0  0  0  0  0  0  0  0
   61.1190   34.1940   49.2390 C   0  0  0  0  0  0  0  0  0  0  0  0
   60.4870   32.9520   48.5690 C   0  0  0  0  0  0  0  0  0  0  0  0
   59.9280   33.1130   45.8370 N   0  0  0  0  0  0  0  0  0  0  0  0
   59.0320   33.8230   45.1080 C   0  0  0  0  0  0  0  0  0  0  0  0
   59.2640   35.0310   44.8360 O   0  0  0  0  0  0  0  0  0  0  0  0
   57.8610   33.2190   44.6620 C   0  0  0  0  0  0  0  0  0  0  0  0
   57.6200   31.8740   44.9650 C   0  0  0  0  0  0  0  0  0  0  0  0
   56.4490   31.2560   44.5080 C   0  0  0  0  0  0  0  0  0  0  0  0
   56.1950   29.9140   44.7900 C   0  0  0  0  0  0  0  0  0  0  0  0
   55.0180   29.3380   44.3120 O   0  0  0  0  0  0  0  0  0  0  0  0
   58.0248   26.1808   46.2379 H   0  0  0  0  0  0  0  0  0  0  0  0
   57.0198   26.0336   44.7563 H   0  0  0  0  0  0  0  0  0  0  0  0
   58.4698   27.0939   44.7563 H   0  0  0  0  0  0  0  0  0  0  0  0
   59.0105   29.1957   46.5996 H   0  0  0  0  0  0  0  0  0  0  0  0
   60.4295   30.3224   47.5550 H   0  0  0  0  0  0  0  0  0  0  0  0
   61.6040   30.7617   46.2589 H   0  0  0  0  0  0  0  0  0  0  0  0
   63.1050   32.3533   46.5271 H   0  0  0  0  0  0  0  0  0  0  0  0
   61.8725   33.6648   46.4801 H   0  0  0  0  0  0  0  0  0  0  0  0
   64.2051   33.2624   48.3390 H   0  0  0  0  0  0  0  0  0  0  0  0
   63.4652   34.7862   47.6570 H   0  0  0  0  0  0  0  0  0  0  0  0
   62.7735   33.5312   51.4436 H   0  0  0  0  0  0  0  0  0  0  0  0
   62.2992   32.1946   50.3413 H   0  0  0  0  0  0  0  0  0  0  0  0
   63.9898   32.8017   50.3413 H   0  0  0  0  0  0  0  0  0  0  0  0
   60.6596   34.3314   50.2290 H   0  0  0  0  0  0  0  0  0  0  0  0
   60.9344   35.0556   48.5806 H   0  0  0  0  0  0  0  0  0  0  0  0
   60.0030   32.3397   49.3441 H   0  0  0  0  0  0  0  0  0  0  0  0
   59.7591   33.3052   47.8237 H   0  0  0  0  0  0  0  0  0  0  0  0
   57.1296   33.7943   44.0754 H   0  0  0  0  0  0  0  0  0  0  0  0
   55.7218   31.8355   43.9203 H   0  0  0  0  0  0  0  0  0  0  0  0
   54.7760   28.3710   44.4930 H   0  0  0  0  0  0  0  0  0  0  0  0
  1  2  1  0
  2  3  1  0
  3  4  2  0
  4  5  1  0
  5  6  2  0
  6  7  1  0
  7  8  1  0
  8  9  1  0
  9 10  1  0
 10 11  1  0
 11 12  1  0
 11 13  1  0
 13 14  1  0
  6 15  1  0
 15 16  1  0
 16 17  2  0
 16 18  1  0
 18 19  2  0
 19 20  1  0
 20 21  2  0
 21 22  1  0
 21  3  1  0
 19  5  1  0
 14  8  1  0
  1 23  1  0
  1 24  1  0
  1 25  1  0
  4 26  1  0
  7 27  1  0
  7 28  1  0
  9 29  1  0
  9 30  1  0
 10 31  1  0
 10 32  1  0
 12 33  1  0
 12 34  1  0
 12 35  1  0
 13 36  1  0
 13 37  1  0
 14 38  1  0
 14 39  1  0
 18 40  1  0
 20 41  1  0
 22 42  1  0
M  CHG  1  15  -1
M  END
>  <UniqueID>  (77) 
70

>  <SMILES>  (77) 
COc1cc2c(CN3CCN(C)CC3)[n-]c(=O)cc2cc1O

>  <Energy>  (77) 
60.51820715013518

>  <Genealogy>  (77) 
COc1cc2c(CN3CCN(C)CC3)[n-]c(=O)cc2cc1O (protonated)
COc1cc2c(CN3CCN(C)CC3)[n-]c(=O)cc2cc1O (3D coordinates assigned)
COc1cc2c(CN3CCN(C)CC3)[n-]c(=O)cc2cc1O (nonaromatic ring conformer: 60.51820715013518 kcal/mol)

>  <smiles>  (77) 
COc1cc2c(CN3CCN(C)CC3)[nH]c(=O)cc2cc1O

>  <score_type>  (77) 
oracle

>  <origin>  (77) 
adg

>  <m_score__min__energy>  (77) 
-7.9000000000000004

>  <m_primary>  (77) 
energy

$$$$
77:0
     RDKit          3D

 38 40  0  0  0  0  0  0  0  0999 V2000
   59.3920   23.7900   45.9450 O   0  0  0  0  0  0  0  0  0  0  0  0
   58.1560   23.8880   46.1680 C   0  0  0  0  0  0  0  0  0  0  0  0
   57.6090   23.1860   47.2370 O   0  0  0  0  0  0  0  0  0  0  0  0
   57.3030   24.7390   45.3050 C   0  0  0  0  0  0  0  0  0  0  0  0
   57.8740   25.6810   44.5230 C   0  0  0  0  0  0  0  0  0  0  0  0
   57.6830   27.1400   44.6870 C   0  0  0  0  0  0  0  0  0  0  0  0
   57.5380   27.9440   43.5470 C   0  0  0  0  0  0  0  0  0  0  0  0
   57.3400   29.3220   43.6760 C   0  0  0  0  0  0  0  0  0  0  0  0
   57.2990   29.9200   44.9410 C   0  0  0  0  0  0  0  0  0  0  0  0
   57.0560   31.3010   45.0170 O   0  0  0  0  0  0  0  0  0  0  0  0
   57.7990   32.3050   44.3260 C   0  0  0  0  0  0  0  0  0  0  0  0
   58.4140   33.2790   45.2990 C   0  0  0  0  0  0  0  0  0  0  0  0
   59.0830   34.4190   44.8230 C   0  0  0  0  0  0  0  0  0  0  0  0
   59.6460   35.3310   45.7210 C   0  0  0  0  0  0  0  0  0  0  0  0
   59.5520   35.1080   47.0980 C   0  0  0  0  0  0  0  0  0  0  0  0
   58.8980   33.9690   47.5780 C   0  0  0  0  0  0  0  0  0  0  0  0
   58.3350   33.0550   46.6820 C   0  0  0  0  0  0  0  0  0  0  0  0
   57.5000   29.1220   46.0830 C   0  0  0  0  0  0  0  0  0  0  0  0
   57.6980   27.7440   45.9550 C   0  0  0  0  0  0  0  0  0  0  0  0
   55.8420   24.4940   45.2950 C   0  0  0  0  0  0  0  0  0  0  0  0
   55.1060   23.0420   44.8520 S   0  0  0  0  0  0  0  0  0  0  0  0
   53.5600   23.6430   45.1280 C   0  0  0  0  0  0  0  0  0  0  0  0
   52.5030   22.9790   44.9690 O   0  0  0  0  0  0  0  0  0  0  0  0
   53.5670   24.9270   45.5410 N   0  0  0  0  0  0  0  0  0  0  0  0
   54.8370   25.4040   45.6300 C   0  0  0  0  0  0  0  0  0  0  0  0
   55.0940   26.7140   46.0110 O   0  0  0  0  0  0  0  0  0  0  0  0
   58.5273   25.3398   43.7064 H   0  0  0  0  0  0  0  0  0  0  0  0
   57.5803   27.4883   42.5467 H   0  0  0  0  0  0  0  0  0  0  0  0
   57.2154   29.9416   42.7757 H   0  0  0  0  0  0  0  0  0  0  0  0
   58.5982   31.8249   43.7423 H   0  0  0  0  0  0  0  0  0  0  0  0
   57.1166   32.8540   43.6605 H   0  0  0  0  0  0  0  0  0  0  0  0
   59.1642   34.5947   43.7402 H   0  0  0  0  0  0  0  0  0  0  0  0
   60.1636   36.2252   45.3435 H   0  0  0  0  0  0  0  0  0  0  0  0
   59.9922   35.8281   47.8034 H   0  0  0  0  0  0  0  0  0  0  0  0
   58.8264   33.7919   48.6613 H   0  0  0  0  0  0  0  0  0  0  0  0
   57.8279   32.1563   47.0630 H   0  0  0  0  0  0  0  0  0  0  0  0
   57.5013   29.5848   47.0809 H   0  0  0  0  0  0  0  0  0  0  0  0
   57.8664   27.1297   46.8518 H   0  0  0  0  0  0  0  0  0  0  0  0
  1  2  2  0
  2  3  1  0
  2  4  1  0
  4  5  2  3
  5  6  1  0
  6  7  2  0
  7  8  1  0
  8  9  2  0
  9 10  1  0
 10 11  1  0
 11 12  1  0
 12 13  2  0
 13 14  1  0
 14 15  2  0
 15 16  1  0
 16 17  2  0
  9 18  1  0
 18 19  2  0
  4 20  1  0
 20 21  1  0
 21 22  1  0
 22 23  2  0
 22 24  1  0
 24 25  1  0
 25 26  1  0
 19  6  1  0
 25 20  2  0
 17 12  1  0
  5 27  1  0
  7 28  1  0
  8 29  1  0
 11 30  1  0
 11 31  1  0
 13 32  1  0
 14 33  1  0
 15 34  1  0
 16 35  1  0
 17 36  1  0
 18 37  1  0
 19 38  1  0
M  CHG  3   3  -1  24  -1  26  -1
M  END
>  <UniqueID>  (78) 
71

>  <SMILES>  (78) 
O=C([O-])C(=Cc1ccc(OCc2ccccc2)cc1)c1sc(=O)[n-]c1[O-]

>  <Energy>  (78) 
82.42643930862705

>  <Genealogy>  (78) 
O=C([O-])C(=Cc1ccc(OCc2ccccc2)cc1)c1sc(=O)[n-]c1[O-] (protonated)
O=C([O-])C(=Cc1ccc(OCc2ccccc2)cc1)c1sc(=O)[n-]c1[O-] (3D coordinates assigned)
O=C([O-])C(=Cc1ccc(OCc2ccccc2)cc1)c1sc(=O)[n-]c1[O-] (optimized conformer: 82.42643930862705 kcal/mol)

>  <smiles>  (78) 
O=C(O)C(=Cc1ccc(OCc2ccccc2)cc1)c1sc(=O)[nH]c1O

>  <score_type>  (78) 
oracle

>  <origin>  (78) 
adg

>  <m_score__min__energy>  (78) 
-16.170000000000002

>  <m_primary>  (78) 
energy

$$$$
78:0
     RDKit          3D

 48 52  0  0  0  0  0  0  0  0999 V2000
   56.1730   28.9330   45.2090 O   0  0  0  0  0  0  0  0  0  0  0  0
   57.3320   28.4320   45.1960 C   0  0  0  0  0  0  0  0  0  0  0  0
   57.5290   27.0450   44.6500 C   0  0  0  0  0  0  0  0  0  0  0  0
   57.1080   26.0120   45.6510 C   0  0  0  0  0  0  0  0  0  0  0  0
   57.8940   25.0110   46.0810 N   0  0  0  0  0  0  0  0  0  0  0  0
   57.0860   24.3180   46.9140 C   0  0  0  0  0  0  0  0  0  0  0  0
   57.4690   23.2910   47.5310 O   0  0  0  0  0  0  0  0  0  0  0  0
   55.8340   24.8130   47.0310 N   0  0  0  0  0  0  0  0  0  0  0  0
   55.8640   25.8820   46.2200 C   0  0  0  0  0  0  0  0  0  0  0  0
   54.7760   26.7170   45.9990 O   0  0  0  0  0  0  0  0  0  0  0  0
   58.4470   29.2000   45.6860 N   0  0  0  0  0  0  0  0  0  0  0  0
   58.2280   30.2000   46.7340 C   0  0  0  0  0  0  0  0  0  0  0  0
   59.4500   30.2920   47.6530 C   0  0  0  0  0  0  0  0  0  0  0  0
   60.7240   30.3530   46.9120 N   0  0  0  0  0  0  0  0  0  0  0  0
   61.3490   31.6890   46.7370 C   0  0  0  0  0  0  0  0  0  0  0  0
   60.2720   32.7290   46.5770 C   0  0  0  0  0  0  0  0  0  0  0  0
   59.3060   32.8090   45.5710 C   0  0  0  0  0  0  0  0  0  0  0  0
   58.3690   33.8550   45.6190 C   0  0  0  0  0  0  0  0  0  0  0  0
   58.4080   34.8000   46.6620 C   0  0  0  0  0  0  0  0  0  0  0  0
   59.3850   34.7060   47.6670 C   0  0  0  0  0  0  0  0  0  0  0  0
   60.3010   33.6570   47.6010 C   0  0  0  0  0  0  0  0  0  0  0  0
   61.4150   33.3390   48.4690 C   0  0  0  0  0  0  0  0  0  0  0  0
   61.9120   34.0430   49.5670 C   0  0  0  0  0  0  0  0  0  0  0  0
   63.1060   33.5990   50.1540 C   0  0  0  0  0  0  0  0  0  0  0  0
   63.7950   32.4960   49.6160 C   0  0  0  0  0  0  0  0  0  0  0  0
   63.2830   31.8130   48.5000 C   0  0  0  0  0  0  0  0  0  0  0  0
   62.0560   32.2180   47.9660 C   0  0  0  0  0  0  0  0  0  0  0  0
   60.8880   29.3450   45.8430 C   0  0  0  0  0  0  0  0  0  0  0  0
   59.6810   29.2980   44.9050 C   0  0  0  0  0  0  0  0  0  0  0  0
   56.9267   26.9284   43.7369 H   0  0  0  0  0  0  0  0  0  0  0  0
   58.5967   26.9034   44.4264 H   0  0  0  0  0  0  0  0  0  0  0  0
   58.0516   31.1804   46.2674 H   0  0  0  0  0  0  0  0  0  0  0  0
   57.3548   29.9018   47.3328 H   0  0  0  0  0  0  0  0  0  0  0  0
   59.3585   31.1991   48.2684 H   0  0  0  0  0  0  0  0  0  0  0  0
   59.4696   29.3798   48.2674 H   0  0  0  0  0  0  0  0  0  0  0  0
   62.0364   31.5443   45.8905 H   0  0  0  0  0  0  0  0  0  0  0  0
   59.2794   32.0684   44.7581 H   0  0  0  0  0  0  0  0  0  0  0  0
   57.6000   33.9361   44.8366 H   0  0  0  0  0  0  0  0  0  0  0  0
   57.6702   35.6154   46.6900 H   0  0  0  0  0  0  0  0  0  0  0  0
   59.4262   35.4408   48.4846 H   0  0  0  0  0  0  0  0  0  0  0  0
   61.3816   34.9223   49.9613 H   0  0  0  0  0  0  0  0  0  0  0  0
   63.5058   34.1154   51.0391 H   0  0  0  0  0  0  0  0  0  0  0  0
   64.7402   32.1666   50.0721 H   0  0  0  0  0  0  0  0  0  0  0  0
   63.8378   30.9743   48.0542 H   0  0  0  0  0  0  0  0  0  0  0  0
   61.7840   29.5939   45.2555 H   0  0  0  0  0  0  0  0  0  0  0  0
   60.9842   28.3585   46.3201 H   0  0  0  0  0  0  0  0  0  0  0  0
   59.6559   30.2141   44.2967 H   0  0  0  0  0  0  0  0  0  0  0  0
   59.7656   28.4187   44.2495 H   0  0  0  0  0  0  0  0  0  0  0  0
  1  2  2  0
  2  3  1  0
  3  4  1  0
  4  5  1  0
  5  6  1  0
  6  7  2  0
  6  8  1  0
  8  9  1  0
  9 10  1  0
  2 11  1  0
 11 12  1  0
 12 13  1  0
 13 14  1  0
 14 15  1  0
 15 16  1  0
 16 17  2  0
 17 18  1  0
 18 19  2  0
 19 20  1  0
 20 21  2  0
 21 22  1  0
 22 23  2  0
 23 24  1  0
 24 25  2  0
 25 26  1  0
 26 27  2  0
 14 28  1  0
 28 29  1  0
  9  4  2  0
 29 11  1  0
 27 15  1  0
 21 16  1  0
 27 22  1  0
  3 30  1  0
  3 31  1  0
 12 32  1  0
 12 33  1  0
 13 34  1  0
 13 35  1  0
 15 36  1  0
 17 37  1  0
 18 38  1  0
 19 39  1  0
 20 40  1  0
 23 41  1  0
 24 42  1  0
 25 43  1  0
 26 44  1  0
 28 45  1  0
 28 46  1  0
 29 47  1  0
 29 48  1  0
M  CHG  3   5  -1   8  -1  10  -1
M  END
>  <UniqueID>  (79) 
72

>  <SMILES>  (79) 
O=C(Cc1[n-]c(=O)[n-]c1[O-])N1CCN(C2c3ccccc3-c3ccccc32)CC1

>  <Energy>  (79) 
118.10210972663099

>  <Genealogy>  (79) 
O=C(Cc1[n-]c(=O)[n-]c1[O-])N1CCN(C2c3ccccc3-c3ccccc32)CC1 (protonated)
O=C(Cc1[n-]c(=O)[n-]c1[O-])N1CCN(C2c3ccccc3-c3ccccc32)CC1 (3D coordinates assigned)
O=C(Cc1[n-]c(=O)[n-]c1[O-])N1CCN(C2c3ccccc3-c3ccccc32)CC1 (nonaromatic ring conformer: 118.10210972663099 kcal/mol)

>  <smiles>  (79) 
O=C(Cc1[nH]c(=O)[nH]c1O)N1CCN(C2c3ccccc3-c3ccccc32)CC1

>  <score_type>  (79) 
oracle

>  <origin>  (79) 
adg

>  <m_score__min__energy>  (79) 
-16.719999999999999

>  <m_primary>  (79) 
energy

$$$$
79:0
     RDKit          3D

 42 44  0  0  0  0  0  0  0  0999 V2000
   52.9114   28.9971   53.8379 H   0  0  0  0  0  0  0  0  0  0  0  0
   53.9480   28.6750   53.6600 C   0  0  0  0  0  0  0  0  0  0  0  0
   54.3092   27.7257   54.0823 H   0  0  0  0  0  0  0  0  0  0  0  0
   54.7740   29.4420   52.9260 C   0  0  0  0  0  0  0  0  0  0  0  0
   54.4160   30.7440   52.4490 C   0  0  0  0  0  0  0  0  0  0  0  0
   53.1530   31.2350   52.3620 C   0  0  0  0  0  0  0  0  0  0  0  0
   52.6986   31.6032   53.2936 H   0  0  0  0  0  0  0  0  0  0  0  0
   52.3310   31.3230   51.1410 C   0  0  0  0  0  0  0  0  0  0  0  0
   52.3210   30.3760   50.1860 N   0  0  0  0  0  0  0  0  0  0  0  0
   51.3690   30.8060   49.3280 C   0  0  0  0  0  0  0  0  0  0  0  0
   51.0730   30.1800   48.2770 O   0  0  0  0  0  0  0  0  0  0  0  0
   50.7550   31.9510   49.6910 N   0  0  0  0  0  0  0  0  0  0  0  0
   51.3640   32.2590   50.8460 C   0  0  0  0  0  0  0  0  0  0  0  0
   51.0200   33.3540   51.6300 O   0  0  0  0  0  0  0  0  0  0  0  0
   55.4580   31.5850   52.0100 C   0  0  0  0  0  0  0  0  0  0  0  0
   55.2345   32.6296   51.7474 H   0  0  0  0  0  0  0  0  0  0  0  0
   56.7710   31.1160   51.9020 C   0  0  0  0  0  0  0  0  0  0  0  0
   57.8430   31.9940   51.3840 C   0  0  0  0  0  0  0  0  0  0  0  0
   58.2420   32.9580   52.0920 O   0  0  0  0  0  0  0  0  0  0  0  0
   58.4500   31.7580   50.0980 N   0  0  0  0  0  0  0  0  0  0  0  0
   58.9450   32.8860   49.2990 C   0  0  0  0  0  0  0  0  0  0  0  0
   58.4642   32.8657   48.3098 H   0  0  0  0  0  0  0  0  0  0  0  0
   58.7032   33.8223   49.8232 H   0  0  0  0  0  0  0  0  0  0  0  0
   60.4710   32.8010   49.1200 C   0  0  0  0  0  0  0  0  0  0  0  0
   60.7445   33.3338   48.1974 H   0  0  0  0  0  0  0  0  0  0  0  0
   60.9293   33.2538   50.0116 H   0  0  0  0  0  0  0  0  0  0  0  0
   60.9980   31.3430   49.0220 C   0  0  0  0  0  0  0  0  0  0  0  0
   61.3521   31.0593   50.0241 H   0  0  0  0  0  0  0  0  0  0  0  0
   62.1770   31.2480   48.0460 C   0  0  0  0  0  0  0  0  0  0  0  0
   63.1168   31.1723   48.6126 H   0  0  0  0  0  0  0  0  0  0  0  0
   62.0578   30.3565   47.4127 H   0  0  0  0  0  0  0  0  0  0  0  0
   62.2021   32.1470   47.4127 H   0  0  0  0  0  0  0  0  0  0  0  0
   59.8850   30.3550   48.6270 C   0  0  0  0  0  0  0  0  0  0  0  0
   59.4780   30.6391   47.6453 H   0  0  0  0  0  0  0  0  0  0  0  0
   60.3056   29.3397   48.5784 H   0  0  0  0  0  0  0  0  0  0  0  0
   58.7580   30.3830   49.6720 C   0  0  0  0  0  0  0  0  0  0  0  0
   57.8542   29.9335   49.2348 H   0  0  0  0  0  0  0  0  0  0  0  0
   59.0911   29.8155   50.5535 H   0  0  0  0  0  0  0  0  0  0  0  0
   57.0350   29.7850   52.2300 C   0  0  0  0  0  0  0  0  0  0  0  0
   58.0442   29.3747   52.0777 H   0  0  0  0  0  0  0  0  0  0  0  0
   56.0540   28.9930   52.7360 N   0  0  0  0  0  0  0  0  0  0  0  0
   56.3250   28.0260   53.0250 H   0  0  0  0  0  0  0  0  0  0  0  0
  1  2  1  0
  2  3  1  0
  2  4  2  0
  4  5  1  0
  5  6  2  0
  6  7  1  0
  6  8  1  0
  8  9  1  0
  9 10  1  0
 10 11  2  0
 10 12  1  0
 12 13  1  0
 13 14  1  0
  5 15  1  0
 15 16  1  0
 15 17  2  0
 17 18  1  0
 18 19  2  0
 18 20  1  0
 20 21  1  0
 21 22  1  0
 21 23  1  0
 21 24  1  0
 24 25  1  0
 24 26  1  0
 24 27  1  0
 27 28  1  0
 27 29  1  0
 29 30  1  0
 29 31  1  0
 29 32  1  0
 27 33  1  0
 33 34  1  0
 33 35  1  0
 33 36  1  0
 36 37  1  0
 36 38  1  0
 17 39  1  0
 39 40  1  0
 39 41  2  0
 41 42  1  0
 41  4  1  0
 13  8  2  0
 36 20  1  0
M  CHG  4   9  -1  12  -1  14  -1  41   1
M  END
>  <UniqueID>  (80) 
73

>  <SMILES>  (80) 
C=c1[nH+]cc(C(=O)N2CCC(C)CC2)c/c1=C/c1[n-]c(=O)[n-]c1[O-]

>  <Energy>  (80) 
99.24934512888127

>  <Genealogy>  (80) 
C=c1[nH+]cc(C(=O)N2CCC(C)CC2)cc1=Cc1[n-]c(=O)[n-]c1[O-] (protonated)
C=c1[nH+]cc(C(=O)N2CCC(C)CC2)c/c1=C/c1[n-]c(=O)[n-]c1[O-] (cis-trans isomerization)
C=c1[nH+]cc(C(=O)N2CCC(C)CC2)c/c1=C/c1[n-]c(=O)[n-]c1[O-] (3D coordinates assigned)
C=c1[nH+]cc(C(=O)N2CCC(C)CC2)c/c1=C/c1[n-]c(=O)[n-]c1[O-] (nonaromatic ring conformer: 99.24934512888127 kcal/mol)

>  <smiles>  (80) 
C=c1ncc(C(=O)N2CCC(C)CC2)cc1=Cc1[nH]c(=O)[nH]c1O

>  <score_type>  (80) 
oracle

>  <origin>  (80) 
adg

>  <m_score__min__energy>  (80) 
-15.529999999999999

>  <m_primary>  (80) 
energy

$$$$
80:0
     RDKit          3D

 53 55  0  0  0  0  0  0  0  0999 V2000
   61.2360   32.2870   47.2560 C   0  0  0  0  0  0  0  0  0  0  0  0
   61.3010   30.9030   47.8920 C   0  0  0  0  0  0  0  0  0  0  0  0
   59.9660   30.2860   47.9180 N   0  0  0  0  0  0  0  0  0  0  0  0
   59.5340   29.5860   46.7420 C   0  0  0  0  0  0  0  0  0  0  0  0
   60.4220   29.3580   45.6840 C   0  0  0  0  0  0  0  0  0  0  0  0
   59.9690   28.7540   44.5080 C   0  0  0  0  0  0  0  0  0  0  0  0
   58.6220   28.4010   44.3720 C   0  0  0  0  0  0  0  0  0  0  0  0
   57.7170   28.6310   45.4240 C   0  0  0  0  0  0  0  0  0  0  0  0
   56.2730   28.3590   45.2580 C   0  0  0  0  0  0  0  0  0  0  0  0
   55.5030   29.2570   44.8190 O   0  0  0  0  0  0  0  0  0  0  0  0
   55.7390   27.0840   45.6230 N   0  0  0  0  0  0  0  0  0  0  0  0
   56.3220   26.2500   46.6650 C   0  0  0  0  0  0  0  0  0  0  0  0
   57.3010   25.2970   46.0460 C   0  0  0  0  0  0  0  0  0  0  0  0
   56.9880   24.1760   45.2990 C   0  0  0  0  0  0  0  0  0  0  0  0
   58.1930   23.5310   45.0890 C   0  0  0  0  0  0  0  0  0  0  0  0
   58.3750   22.2450   44.3510 C   0  0  0  0  0  0  0  0  0  0  0  0
   59.1730   24.1850   45.6770 O   0  0  0  0  0  0  0  0  0  0  0  0
   58.6680   25.2460   46.2670 C   0  0  0  0  0  0  0  0  0  0  0  0
   59.4760   26.2130   47.0750 C   0  0  0  0  0  0  0  0  0  0  0  0
   58.1900   29.2060   46.6160 C   0  0  0  0  0  0  0  0  0  0  0  0
   59.0640   30.2690   49.0930 C   0  0  0  0  0  0  0  0  0  0  0  0
   59.6090   29.3210   50.1790 C   0  0  0  0  0  0  0  0  0  0  0  0
   58.9330   29.5730   51.5440 C   0  0  0  0  0  0  0  0  0  0  0  0
   57.6650   30.1790   51.3770 O   0  0  0  0  0  0  0  0  0  0  0  0
   57.8120   31.5150   50.9130 C   0  0  0  0  0  0  0  0  0  0  0  0
   58.7840   31.6510   49.7160 C   0  0  0  0  0  0  0  0  0  0  0  0
   61.2001   33.0520   48.0456 H   0  0  0  0  0  0  0  0  0  0  0  0
   62.1277   32.4459   46.6318 H   0  0  0  0  0  0  0  0  0  0  0  0
   60.3334   32.3616   46.6318 H   0  0  0  0  0  0  0  0  0  0  0  0
   61.9824   30.2674   47.3075 H   0  0  0  0  0  0  0  0  0  0  0  0
   61.6678   31.0022   48.9243 H   0  0  0  0  0  0  0  0  0  0  0  0
   61.4771   29.6545   45.7784 H   0  0  0  0  0  0  0  0  0  0  0  0
   60.6735   28.5555   43.6869 H   0  0  0  0  0  0  0  0  0  0  0  0
   58.2688   27.9411   43.4373 H   0  0  0  0  0  0  0  0  0  0  0  0
   56.8408   26.8858   47.3975 H   0  0  0  0  0  0  0  0  0  0  0  0
   55.5269   25.6841   47.1726 H   0  0  0  0  0  0  0  0  0  0  0  0
   55.9935   23.8642   44.9472 H   0  0  0  0  0  0  0  0  0  0  0  0
   58.4915   21.4221   45.0716 H   0  0  0  0  0  0  0  0  0  0  0  0
   57.4945   22.0571   43.7190 H   0  0  0  0  0  0  0  0  0  0  0  0
   59.2731   22.3089   43.7190 H   0  0  0  0  0  0  0  0  0  0  0  0
   59.3150   26.0203   48.1460 H   0  0  0  0  0  0  0  0  0  0  0  0
   60.5426   26.0888   46.8364 H   0  0  0  0  0  0  0  0  0  0  0  0
   59.1642   27.2405   46.8364 H   0  0  0  0  0  0  0  0  0  0  0  0
   57.4993   29.3595   47.4583 H   0  0  0  0  0  0  0  0  0  0  0  0
   58.1007   29.9078   48.7036 H   0  0  0  0  0  0  0  0  0  0  0  0
   59.4197   28.2814   49.8733 H   0  0  0  0  0  0  0  0  0  0  0  0
   60.6874   29.5076   50.2892 H   0  0  0  0  0  0  0  0  0  0  0  0
   58.8071   28.6129   52.0659 H   0  0  0  0  0  0  0  0  0  0  0  0
   59.5706   30.2499   52.1316 H   0  0  0  0  0  0  0  0  0  0  0  0
   56.8241   31.8863   50.6029 H   0  0  0  0  0  0  0  0  0  0  0  0
   58.2369   32.0999   51.7421 H   0  0  0  0  0  0  0  0  0  0  0  0
   58.3341   32.3069   48.9562 H   0  0  0  0  0  0  0  0  0  0  0  0
   59.7317   32.0810   50.0723 H   0  0  0  0  0  0  0  0  0  0  0  0
  1  2  1  0
  2  3  1  0
  3  4  1  0
  4  5  2  0
  5  6  1  0
  6  7  2  0
  7  8  1  0
  8  9  1  0
  9 10  2  0
  9 11  1  0
 11 12  1  0
 12 13  1  0
 13 14  1  0
 14 15  2  0
 15 16  1  0
 15 17  1  0
 17 18  1  0
 18 19  1  0
  8 20  2  0
  3 21  1  0
 21 22  1  0
 22 23  1  0
 23 24  1  0
 24 25  1  0
 25 26  1  0
 20  4  1  0
 26 21  1  0
 18 13  2  0
  1 27  1  0
  1 28  1  0
  1 29  1  0
  2 30  1  0
  2 31  1  0
  5 32  1  0
  6 33  1  0
  7 34  1  0
 12 35  1  0
 12 36  1  0
 14 37  1  0
 16 38  1  0
 16 39  1  0
 16 40  1  0
 19 41  1  0
 19 42  1  0
 19 43  1  0
 20 44  1  0
 21 45  1  0
 22 46  1  0
 22 47  1  0
 23 48  1  0
 23 49  1  0
 25 50  1  0
 25 51  1  0
 26 52  1  0
 26 53  1  0
M  CHG  1  11  -1
M  END
>  <UniqueID>  (81) 
74

>  <SMILES>  (81) 
CCN(c1cccc(C(=O)[N-]Cc2cc(C)oc2C)c1)C1CCOCC1

>  <Energy>  (81) 
88.20659118044172

>  <Genealogy>  (81) 
CCN(c1cccc(C(=O)[N-]Cc2cc(C)oc2C)c1)C1CCOCC1 (protonated)
CCN(c1cccc(C(=O)[N-]Cc2cc(C)oc2C)c1)C1CCOCC1 (3D coordinates assigned)
CCN(c1cccc(C(=O)[N-]Cc2cc(C)oc2C)c1)C1CCOCC1 (nonaromatic ring conformer: 88.20659118044172 kcal/mol)

>  <smiles>  (81) 
CCN(c1cccc(C(=O)NCc2cc(C)oc2C)c1)C1CCOCC1

>  <score_type>  (81) 
oracle

>  <origin>  (81) 
adg

>  <m_score__min__energy>  (81) 
-10.210000000000001

>  <m_primary>  (81) 
energy

$$$$
81:0
     RDKit          3D

 37 39  0  0  0  0  0  0  0  0999 V2000
   57.9490   32.7480   45.1230 C   0  0  0  0  0  0  0  0  0  0  0  0
   58.4260   31.6160   45.6460 C   0  0  0  0  0  0  0  0  0  0  0  0
   58.1060   30.3950   45.1750 N   0  0  0  0  0  0  0  0  0  0  0  0
   58.8310   29.4940   45.8720 C   0  0  0  0  0  0  0  0  0  0  0  0
   58.7500   28.1720   45.6380 C   0  0  0  0  0  0  0  0  0  0  0  0
   57.5580   27.3210   45.8480 C   0  0  0  0  0  0  0  0  0  0  0  0
   57.5620   26.0370   46.2490 N   0  0  0  0  0  0  0  0  0  0  0  0
   56.2520   25.7130   46.2890 C   0  0  0  0  0  0  0  0  0  0  0  0
   55.8460   24.5710   46.6270 O   0  0  0  0  0  0  0  0  0  0  0  0
   55.4120   26.7090   45.9380 N   0  0  0  0  0  0  0  0  0  0  0  0
   56.2540   27.7180   45.6630 C   0  0  0  0  0  0  0  0  0  0  0  0
   55.8430   28.9810   45.2490 O   0  0  0  0  0  0  0  0  0  0  0  0
   59.6240   30.1490   46.8080 C   0  0  0  0  0  0  0  0  0  0  0  0
   59.3520   31.4990   46.6750 C   0  0  0  0  0  0  0  0  0  0  0  0
   59.9670   32.5690   47.4830 C   0  0  0  0  0  0  0  0  0  0  0  0
   59.3100   33.6230   47.6960 O   0  0  0  0  0  0  0  0  0  0  0  0
   61.3100   32.4530   47.9910 N   0  0  0  0  0  0  0  0  0  0  0  0
   61.6710   33.0190   49.2950 C   0  0  0  0  0  0  0  0  0  0  0  0
   62.9380   33.8660   49.1520 C   0  0  0  0  0  0  0  0  0  0  0  0
   64.0050   33.0820   48.5130 N   0  0  0  0  0  0  0  0  0  0  0  0
   63.6040   32.6680   47.1610 C   0  0  0  0  0  0  0  0  0  0  0  0
   62.3620   31.7740   47.2250 C   0  0  0  0  0  0  0  0  0  0  0  0
   58.2449   33.7181   45.5489 H   0  0  0  0  0  0  0  0  0  0  0  0
   57.2601   32.7106   44.2662 H   0  0  0  0  0  0  0  0  0  0  0  0
   57.4400   30.1870   44.3950 H   0  0  0  0  0  0  0  0  0  0  0  0
   59.6546   27.6772   45.2546 H   0  0  0  0  0  0  0  0  0  0  0  0
   55.7040   29.7250   45.9220 H   0  0  0  0  0  0  0  0  0  0  0  0
   60.3283   29.6854   47.5144 H   0  0  0  0  0  0  0  0  0  0  0  0
   60.8478   33.6500   49.6611 H   0  0  0  0  0  0  0  0  0  0  0  0
   61.8546   32.2034   50.0099 H   0  0  0  0  0  0  0  0  0  0  0  0
   62.7167   34.7490   48.5345 H   0  0  0  0  0  0  0  0  0  0  0  0
   63.2736   34.1803   50.1513 H   0  0  0  0  0  0  0  0  0  0  0  0
   64.8430   33.7020   48.4200 H   0  0  0  0  0  0  0  0  0  0  0  0
   63.3776   33.5612   46.5602 H   0  0  0  0  0  0  0  0  0  0  0  0
   64.4280   32.1031   46.7007 H   0  0  0  0  0  0  0  0  0  0  0  0
   62.0017   31.5733   46.2053 H   0  0  0  0  0  0  0  0  0  0  0  0
   62.6187   30.8240   47.7166 H   0  0  0  0  0  0  0  0  0  0  0  0
  1  2  2  0
  2  3  1  0
  3  4  1  0
  4  5  2  3
  5  6  1  0
  6  7  1  0
  7  8  1  0
  8  9  2  0
  8 10  1  0
 10 11  1  0
 11 12  1  0
  4 13  1  0
 13 14  2  0
 14 15  1  0
 15 16  2  0
 15 17  1  0
 17 18  1  0
 18 19  1  0
 19 20  1  0
 20 21  1  0
 21 22  1  0
 14  2  1  0
 22 17  1  0
 11  6  2  0
  1 23  1  0
  1 24  1  0
  3 25  1  0
  5 26  1  0
 12 27  1  0
 13 28  1  0
 18 29  1  0
 18 30  1  0
 19 31  1  0
 19 32  1  0
 20 33  1  0
 21 34  1  0
 21 35  1  0
 22 36  1  0
 22 37  1  0
M  CHG  2   7  -1  10  -1
M  END
>  <UniqueID>  (82) 
75

>  <SMILES>  (82) 
C=c1[nH]c(=Cc2[n-]c(=O)[n-]c2O)cc1C(=O)N1CCNCC1

>  <Energy>  (82) 
99.72867265002425

>  <Genealogy>  (82) 
C=c1[nH]c(=Cc2[n-]c(=O)[n-]c2O)cc1C(=O)N1CCNCC1 (protonated)
C=c1[nH]c(=Cc2[n-]c(=O)[n-]c2O)cc1C(=O)N1CCNCC1 (3D coordinates assigned)
C=c1[nH]c(=Cc2[n-]c(=O)[n-]c2O)cc1C(=O)N1CCNCC1 (nonaromatic ring conformer: 99.72867265002425 kcal/mol)

>  <smiles>  (82) 
C=c1[nH]c(=Cc2[nH]c(=O)[nH]c2O)cc1C(=O)N1CCNCC1

>  <score_type>  (82) 
oracle

>  <origin>  (82) 
adg

>  <m_score__min__energy>  (82) 
-12.779999999999999

>  <m_primary>  (82) 
energy

$$$$
82:0
     RDKit          3D

 45 48  0  0  0  0  0  0  0  0999 V2000
   57.9530   21.0750   44.2840 N   0  0  0  0  0  0  0  0  0  0  0  0
   57.0480   22.0500   43.7610 C   0  0  0  0  0  0  0  0  0  0  0  0
   56.0120   21.6650   43.1570 O   0  0  0  0  0  0  0  0  0  0  0  0
   57.3020   23.4950   43.9160 C   0  0  0  0  0  0  0  0  0  0  0  0
   57.0410   24.4980   43.0000 C   0  0  0  0  0  0  0  0  0  0  0  0
   57.4010   25.6880   43.5120 N   0  0  0  0  0  0  0  0  0  0  0  0
   57.8980   25.4610   44.7450 C   0  0  0  0  0  0  0  0  0  0  0  0
   58.3880   26.5270   45.6510 C   0  0  0  0  0  0  0  0  0  0  0  0
   59.2750   27.5020   45.1650 C   0  0  0  0  0  0  0  0  0  0  0  0
   59.7410   28.5200   46.0000 C   0  0  0  0  0  0  0  0  0  0  0  0
   59.3220   28.5930   47.3360 C   0  0  0  0  0  0  0  0  0  0  0  0
   59.8400   29.6770   48.2530 C   0  0  0  0  0  0  0  0  0  0  0  0
   60.2730   30.8630   47.4900 N   0  0  0  0  0  0  0  0  0  0  0  0
   61.6160   31.3710   47.6590 C   0  0  0  0  0  0  0  0  0  0  0  0
   62.4030   30.8530   48.4950 O   0  0  0  0  0  0  0  0  0  0  0  0
   62.1080   32.4870   46.7890 C   0  0  0  0  0  0  0  0  0  0  0  0
   60.9910   33.5000   46.5460 C   0  0  0  0  0  0  0  0  0  0  0  0
   59.7370   32.8200   46.0620 C   0  0  0  0  0  0  0  0  0  0  0  0
   58.8780   33.4920   45.1810 C   0  0  0  0  0  0  0  0  0  0  0  0
   57.6840   32.9000   44.7700 C   0  0  0  0  0  0  0  0  0  0  0  0
   57.3300   31.6380   45.2470 C   0  0  0  0  0  0  0  0  0  0  0  0
   56.1400   31.0520   44.8340 O   0  0  0  0  0  0  0  0  0  0  0  0
   58.1670   30.9640   46.1400 C   0  0  0  0  0  0  0  0  0  0  0  0
   59.3810   31.5450   46.5660 C   0  0  0  0  0  0  0  0  0  0  0  0
   58.4590   27.6030   47.8340 C   0  0  0  0  0  0  0  0  0  0  0  0
   57.9890   26.5830   47.0010 C   0  0  0  0  0  0  0  0  0  0  0  0
   57.1800   25.6310   47.5330 F   0  0  0  0  0  0  0  0  0  0  0  0
   57.8480   24.1060   45.0300 C   0  0  0  0  0  0  0  0  0  0  0  0
   57.7510   20.0580   44.1610 H   0  0  0  0  0  0  0  0  0  0  0  0
   58.8230   21.3480   44.7910 H   0  0  0  0  0  0  0  0  0  0  0  0
   56.6043   24.3450   42.0021 H   0  0  0  0  0  0  0  0  0  0  0  0
   57.3220   26.6090   43.0250 H   0  0  0  0  0  0  0  0  0  0  0  0
   59.6057   27.4633   44.1166 H   0  0  0  0  0  0  0  0  0  0  0  0
   60.4423   29.2705   45.6063 H   0  0  0  0  0  0  0  0  0  0  0  0
   59.0398   29.9708   48.9483 H   0  0  0  0  0  0  0  0  0  0  0  0
   60.7073   29.2819   48.8023 H   0  0  0  0  0  0  0  0  0  0  0  0
   62.9519   32.9890   47.2849 H   0  0  0  0  0  0  0  0  0  0  0  0
   62.4319   32.0722   45.8231 H   0  0  0  0  0  0  0  0  0  0  0  0
   60.7735   34.0272   47.4866 H   0  0  0  0  0  0  0  0  0  0  0  0
   61.3243   34.2085   45.7734 H   0  0  0  0  0  0  0  0  0  0  0  0
   59.1475   34.4925   44.8116 H   0  0  0  0  0  0  0  0  0  0  0  0
   57.0210   33.4286   44.0693 H   0  0  0  0  0  0  0  0  0  0  0  0
   57.8772   29.9712   46.5146 H   0  0  0  0  0  0  0  0  0  0  0  0
   58.1499   27.6304   48.8893 H   0  0  0  0  0  0  0  0  0  0  0  0
   58.1770   23.6143   45.9574 H   0  0  0  0  0  0  0  0  0  0  0  0
  1  2  1  0
  2  3  2  0
  2  4  1  0
  4  5  2  0
  5  6  1  0
  6  7  1  0
  7  8  1  0
  8  9  2  0
  9 10  1  0
 10 11  2  0
 11 12  1  0
 12 13  1  0
 13 14  1  0
 14 15  2  0
 14 16  1  0
 16 17  1  0
 17 18  1  0
 18 19  2  0
 19 20  1  0
 20 21  2  0
 21 22  1  0
 21 23  1  0
 23 24  2  0
 11 25  1  0
 25 26  2  0
 26 27  1  0
  7 28  2  0
 28  4  1  0
 26  8  1  0
 24 13  1  0
 24 18  1  0
  1 29  1  0
  1 30  1  0
  5 31  1  0
  6 32  1  0
  9 33  1  0
 10 34  1  0
 12 35  1  0
 12 36  1  0
 16 37  1  0
 16 38  1  0
 17 39  1  0
 17 40  1  0
 19 41  1  0
 20 42  1  0
 23 43  1  0
 25 44  1  0
 28 45  1  0
M  CHG  1  22  -1
M  END
>  <UniqueID>  (83) 
76

>  <SMILES>  (83) 
NC(=O)c1c[nH]c(-c2ccc(CN3C(=O)CCc4ccc([O-])cc43)cc2F)c1

>  <Energy>  (83) 
80.18653588330135

>  <Genealogy>  (83) 
NC(=O)c1c[nH]c(-c2ccc(CN3C(=O)CCc4ccc([O-])cc43)cc2F)c1 (protonated)
NC(=O)c1c[nH]c(-c2ccc(CN3C(=O)CCc4ccc([O-])cc43)cc2F)c1 (3D coordinates assigned)
NC(=O)c1c[nH]c(-c2ccc(CN3C(=O)CCc4ccc([O-])cc43)cc2F)c1 (nonaromatic ring conformer: 80.18653588330135 kcal/mol)

>  <smiles>  (83) 
NC(=O)c1c[nH]c(-c2ccc(CN3C(=O)CCc4ccc(O)cc43)cc2F)c1

>  <score_type>  (83) 
oracle

>  <origin>  (83) 
adg

>  <m_score__min__energy>  (83) 
-11.9

>  <m_primary>  (83) 
energy

$$$$
83:0
     RDKit          3D

 48 50  0  0  0  0  0  0  0  0999 V2000
   62.1020   33.8130   46.7700 C   0  0  0  0  0  0  0  0  0  0  0  0
   60.6790   33.9170   47.3100 C   0  0  0  0  0  0  0  0  0  0  0  0
   59.7380   33.1950   46.4380 N   0  0  0  0  0  0  0  0  0  0  0  0
   59.3730   31.8790   46.6060 C   0  0  0  0  0  0  0  0  0  0  0  0
   59.8800   31.0260   47.7400 C   0  0  0  0  0  0  0  0  0  0  0  0
   58.4760   31.4060   45.6330 C   0  0  0  0  0  0  0  0  0  0  0  0
   57.9310   30.0440   45.4780 C   0  0  0  0  0  0  0  0  0  0  0  0
   56.6980   29.9010   45.2590 O   0  0  0  0  0  0  0  0  0  0  0  0
   58.7990   28.9000   45.4770 N   0  0  0  0  0  0  0  0  0  0  0  0
   58.3510   27.5560   45.7190 C   0  0  0  0  0  0  0  0  0  0  0  0
   58.4050   26.9850   47.0040 C   0  0  0  0  0  0  0  0  0  0  0  0
   57.9810   25.6690   47.2100 C   0  0  0  0  0  0  0  0  0  0  0  0
   57.5040   24.9040   46.1380 C   0  0  0  0  0  0  0  0  0  0  0  0
   56.9460   23.2510   46.4020 S   0  0  0  0  0  0  0  0  0  0  0  0
   57.0140   22.9480   47.8730 O   0  0  0  0  0  0  0  0  0  0  0  0
   55.5080   23.1410   45.9780 O   0  0  0  0  0  0  0  0  0  0  0  0
   57.9000   22.0690   45.5270 N   0  0  0  0  0  0  0  0  0  0  0  0
   58.1240   22.4470   44.1150 C   0  0  0  0  0  0  0  0  0  0  0  0
   57.2150   21.6810   43.1400 C   0  0  0  0  0  0  0  0  0  0  0  0
   55.9960   21.3490   43.7610 O   0  0  0  0  0  0  0  0  0  0  0  0
   56.2170   20.3610   44.7490 C   0  0  0  0  0  0  0  0  0  0  0  0
   57.3940   20.6950   45.6960 C   0  0  0  0  0  0  0  0  0  0  0  0
   57.4770   25.4590   44.8530 C   0  0  0  0  0  0  0  0  0  0  0  0
   57.9020   26.7750   44.6440 C   0  0  0  0  0  0  0  0  0  0  0  0
   58.0850   32.6800   44.6080 S   0  0  0  0  0  0  0  0  0  0  0  0
   59.0910   33.7690   45.3880 C   0  0  0  0  0  0  0  0  0  0  0  0
   59.2480   35.3320   44.9160 S   0  0  0  0  0  0  0  0  0  0  0  0
   62.8101   33.7612   47.6102 H   0  0  0  0  0  0  0  0  0  0  0  0
   62.1955   32.9056   46.1552 H   0  0  0  0  0  0  0  0  0  0  0  0
   62.3264   34.6971   46.1552 H   0  0  0  0  0  0  0  0  0  0  0  0
   60.6430   33.4813   48.3194 H   0  0  0  0  0  0  0  0  0  0  0  0
   60.3892   34.9777   47.3419 H   0  0  0  0  0  0  0  0  0  0  0  0
   59.6046   31.4894   48.6989 H   0  0  0  0  0  0  0  0  0  0  0  0
   59.4307   30.0241   47.6745 H   0  0  0  0  0  0  0  0  0  0  0  0
   60.9748   30.9419   47.6745 H   0  0  0  0  0  0  0  0  0  0  0  0
   59.7920   29.0440   45.1870 H   0  0  0  0  0  0  0  0  0  0  0  0
   58.7827   27.5771   47.8506 H   0  0  0  0  0  0  0  0  0  0  0  0
   58.0221   25.2322   48.2187 H   0  0  0  0  0  0  0  0  0  0  0  0
   57.9288   23.5239   44.0046 H   0  0  0  0  0  0  0  0  0  0  0  0
   59.1647   22.1924   43.8659 H   0  0  0  0  0  0  0  0  0  0  0  0
   57.0139   22.3114   42.2613 H   0  0  0  0  0  0  0  0  0  0  0  0
   57.7224   20.7544   42.8334 H   0  0  0  0  0  0  0  0  0  0  0  0
   55.3023   20.2590   45.3514 H   0  0  0  0  0  0  0  0  0  0  0  0
   56.4747   19.4286   44.2254 H   0  0  0  0  0  0  0  0  0  0  0  0
   57.0532   20.5727   46.7347 H   0  0  0  0  0  0  0  0  0  0  0  0
   58.2181   20.0093   45.4495 H   0  0  0  0  0  0  0  0  0  0  0  0
   57.1200   24.8575   44.0041 H   0  0  0  0  0  0  0  0  0  0  0  0
   57.8840   27.2003   43.6297 H   0  0  0  0  0  0  0  0  0  0  0  0
  1  2  1  0
  2  3  1  0
  3  4  1  0
  4  5  1  0
  4  6  2  0
  6  7  1  0
  7  8  2  0
  7  9  1  0
  9 10  1  0
 10 11  2  0
 11 12  1  0
 12 13  2  0
 13 14  1  0
 14 15  2  0
 14 16  2  0
 14 17  1  0
 17 18  1  0
 18 19  1  0
 19 20  1  0
 20 21  1  0
 21 22  1  0
 13 23  1  0
 23 24  2  0
  6 25  1  0
 25 26  1  0
 26 27  2  0
 26  3  1  0
 24 10  1  0
 22 17  1  0
  1 28  1  0
  1 29  1  0
  1 30  1  0
  2 31  1  0
  2 32  1  0
  5 33  1  0
  5 34  1  0
  5 35  1  0
  9 36  1  0
 11 37  1  0
 12 38  1  0
 18 39  1  0
 18 40  1  0
 19 41  1  0
 19 42  1  0
 21 43  1  0
 21 44  1  0
 22 45  1  0
 22 46  1  0
 23 47  1  0
 24 48  1  0
M  END
>  <UniqueID>  (84) 
77

>  <SMILES>  (84) 
CCn1c(C)c(C(=O)Nc2ccc(S(=O)(=O)N3CCOCC3)cc2)sc1=S

>  <Energy>  (84) 
94.74882459558927

>  <Genealogy>  (84) 
CCn1c(C)c(C(=O)Nc2ccc(S(=O)(=O)N3CCOCC3)cc2)sc1=S (3D coordinates assigned)
CCn1c(C)c(C(=O)Nc2ccc(S(=O)(=O)N3CCOCC3)cc2)sc1=S (nonaromatic ring conformer: 94.74882459558927 kcal/mol)

>  <smiles>  (84) 
CCn1c(C)c(C(=O)Nc2ccc(S(=O)(=O)N3CCOCC3)cc2)sc1=S

>  <score_type>  (84) 
oracle

>  <origin>  (84) 
adg

>  <m_score__min__energy>  (84) 
-8.5899999999999999

>  <m_primary>  (84) 
energy

$$$$
84:0
     RDKit          3D

 41 43  0  0  0  0  0  0  0  0999 V2000
   60.8700   30.4740   47.0550 C   0  0  0  0  0  0  0  0  0  0  0  0
   60.0630   30.4600   45.9970 C   0  0  0  0  0  0  0  0  0  0  0  0
   59.3370   29.2480   45.5490 C   0  0  0  0  0  0  0  0  0  0  0  0
   59.8610   28.0010   45.9260 C   0  0  0  0  0  0  0  0  0  0  0  0
   59.2600   26.8160   45.5000 C   0  0  0  0  0  0  0  0  0  0  0  0
   58.1100   26.8530   44.7010 C   0  0  0  0  0  0  0  0  0  0  0  0
   57.4900   25.5770   44.2040 C   0  0  0  0  0  0  0  0  0  0  0  0
   56.9290   24.7970   45.3520 C   0  0  0  0  0  0  0  0  0  0  0  0
   57.5630   23.8350   45.9360 N   0  0  0  0  0  0  0  0  0  0  0  0
   56.7160   23.4250   47.0100 C   0  0  0  0  0  0  0  0  0  0  0  0
   57.0170   22.4880   47.7950 O   0  0  0  0  0  0  0  0  0  0  0  0
   55.5030   24.1660   47.1230 N   0  0  0  0  0  0  0  0  0  0  0  0
   55.6710   25.0590   46.0340 C   0  0  0  0  0  0  0  0  0  0  0  0
   54.8370   25.9490   45.7240 O   0  0  0  0  0  0  0  0  0  0  0  0
   57.5670   28.0920   44.3340 C   0  0  0  0  0  0  0  0  0  0  0  0
   58.1510   29.2900   44.7710 C   0  0  0  0  0  0  0  0  0  0  0  0
   57.4700   30.5560   44.4360 C   0  0  0  0  0  0  0  0  0  0  0  0
   57.2240   30.8210   43.2310 O   0  0  0  0  0  0  0  0  0  0  0  0
   57.0480   31.4750   45.4500 N   0  0  0  0  0  0  0  0  0  0  0  0
   57.2910   32.9120   45.4030 C   0  0  0  0  0  0  0  0  0  0  0  0
   58.2130   33.3010   46.5260 C   0  0  0  0  0  0  0  0  0  0  0  0
   58.1320   32.6200   47.7540 C   0  0  0  0  0  0  0  0  0  0  0  0
   58.9610   32.9810   48.8200 C   0  0  0  0  0  0  0  0  0  0  0  0
   59.8720   34.0280   48.6740 C   0  0  0  0  0  0  0  0  0  0  0  0
   59.9520   34.7230   47.4650 C   0  0  0  0  0  0  0  0  0  0  0  0
   59.1260   34.3700   46.3910 C   0  0  0  0  0  0  0  0  0  0  0  0
   59.2550   35.2940   44.8970 Cl  0  0  0  0  0  0  0  0  0  0  0  0
   61.3840   31.4031   47.3424 H   0  0  0  0  0  0  0  0  0  0  0  0
   61.0231   29.5565   47.6422 H   0  0  0  0  0  0  0  0  0  0  0  0
   59.9284   31.3918   45.4281 H   0  0  0  0  0  0  0  0  0  0  0  0
   60.7556   27.9578   46.5646 H   0  0  0  0  0  0  0  0  0  0  0  0
   59.6915   25.8476   45.7931 H   0  0  0  0  0  0  0  0  0  0  0  0
   56.6819   25.8163   43.4971 H   0  0  0  0  0  0  0  0  0  0  0  0
   58.2605   24.9741   43.7011 H   0  0  0  0  0  0  0  0  0  0  0  0
   56.6719   28.1252   43.6955 H   0  0  0  0  0  0  0  0  0  0  0  0
   57.7543   33.1743   44.4405 H   0  0  0  0  0  0  0  0  0  0  0  0
   56.3369   33.4491   45.5088 H   0  0  0  0  0  0  0  0  0  0  0  0
   57.4115   31.7979   47.8763 H   0  0  0  0  0  0  0  0  0  0  0  0
   58.8952   32.4392   49.7750 H   0  0  0  0  0  0  0  0  0  0  0  0
   60.5279   34.3063   49.5120 H   0  0  0  0  0  0  0  0  0  0  0  0
   60.6673   35.5515   47.3562 H   0  0  0  0  0  0  0  0  0  0  0  0
  1  2  2  0
  2  3  1  0
  3  4  2  0
  4  5  1  0
  5  6  2  0
  6  7  1  0
  7  8  1  0
  8  9  2  0
  9 10  1  0
 10 11  2  0
 10 12  1  0
 12 13  1  0
 13 14  2  0
  6 15  1  0
 15 16  2  0
 16 17  1  0
 17 18  2  0
 17 19  1  0
 19 20  1  0
 20 21  1  0
 21 22  2  0
 22 23  1  0
 23 24  2  0
 24 25  1  0
 25 26  2  0
 26 27  1  0
 16  3  1  0
 26 21  1  0
 13  8  1  0
  1 28  1  0
  1 29  1  0
  2 30  1  0
  4 31  1  0
  5 32  1  0
  7 33  1  0
  7 34  1  0
 15 35  1  0
 20 36  1  0
 20 37  1  0
 22 38  1  0
 23 39  1  0
 24 40  1  0
 25 41  1  0
M  CHG  2  12  -1  19  -1
M  END
>  <UniqueID>  (85) 
78

>  <SMILES>  (85) 
C=Cc1ccc(CC2=NC(=O)[N-]C2=O)cc1C(=O)[N-]Cc1ccccc1Cl

>  <Energy>  (85) 
77.12374981482856

>  <Genealogy>  (85) 
C=Cc1ccc(CC2=NC(=O)[N-]C2=O)cc1C(=O)[N-]Cc1ccccc1Cl (protonated)
C=Cc1ccc(CC2=NC(=O)[N-]C2=O)cc1C(=O)[N-]Cc1ccccc1Cl (3D coordinates assigned)
C=Cc1ccc(CC2=NC(=O)[N-]C2=O)cc1C(=O)[N-]Cc1ccccc1Cl (nonaromatic ring conformer: 77.12374981482856 kcal/mol)

>  <smiles>  (85) 
C=Cc1ccc(CC2=NC(=O)NC2=O)cc1C(=O)NCc1ccccc1Cl

>  <score_type>  (85) 
oracle

>  <origin>  (85) 
adg

>  <m_score__min__energy>  (85) 
-12.44

>  <m_primary>  (85) 
energy

$$$$
85:0
     RDKit          3D

 56 58  0  0  0  0  0  0  0  0999 V2000
   63.6430   33.1490   47.1290 C   0  0  0  0  0  0  0  0  0  0  0  0
   62.5350   32.4240   47.2720 C   0  0  0  0  0  0  0  0  0  0  0  0
   61.1860   33.0270   47.3230 C   0  0  0  0  0  0  0  0  0  0  0  0
   60.2190   32.6480   46.3820 C   0  0  0  0  0  0  0  0  0  0  0  0
   58.9590   33.2650   46.3870 C   0  0  0  0  0  0  0  0  0  0  0  0
   57.9580   32.9260   45.3540 C   0  0  0  0  0  0  0  0  0  0  0  0
   57.1540   33.8090   44.9520 O   0  0  0  0  0  0  0  0  0  0  0  0
   57.8980   31.6030   44.8050 N   0  0  0  0  0  0  0  0  0  0  0  0
   57.4480   31.3330   43.4360 C   0  0  0  0  0  0  0  0  0  0  0  0
   56.8660   29.9130   43.2960 C   0  0  0  0  0  0  0  0  0  0  0  0
   56.3690   29.3660   44.6100 C   0  0  0  0  0  0  0  0  0  0  0  0
   55.1350   29.4330   44.8530 O   0  0  0  0  0  0  0  0  0  0  0  0
   57.2380   28.9120   45.6610 N   0  0  0  0  0  0  0  0  0  0  0  0
   58.0360   27.7210   45.8020 C   0  0  0  0  0  0  0  0  0  0  0  0
   57.4590   26.4550   46.0070 C   0  0  0  0  0  0  0  0  0  0  0  0
   58.2560   25.3310   46.2420 C   0  0  0  0  0  0  0  0  0  0  0  0
   57.6180   24.0250   46.4790 C   0  0  0  0  0  0  0  0  0  0  0  0
   57.7140   23.5130   47.6290 O   0  0  0  0  0  0  0  0  0  0  0  0
   56.9490   23.3070   45.4200 N   0  0  0  0  0  0  0  0  0  0  0  0
   56.0570   22.1790   45.7210 C   0  0  0  0  0  0  0  0  0  0  0  0
   56.1600   21.1250   44.6110 C   0  0  0  0  0  0  0  0  0  0  0  0
   55.9530   21.7100   43.3400 O   0  0  0  0  0  0  0  0  0  0  0  0
   56.9930   22.6270   43.0590 C   0  0  0  0  0  0  0  0  0  0  0  0
   56.9640   23.8060   44.0380 C   0  0  0  0  0  0  0  0  0  0  0  0
   59.6450   25.4690   46.3340 C   0  0  0  0  0  0  0  0  0  0  0  0
   60.2330   26.7200   46.1370 C   0  0  0  0  0  0  0  0  0  0  0  0
   59.4420   27.8480   45.8670 C   0  0  0  0  0  0  0  0  0  0  0  0
   60.0940   29.1920   45.6820 C   0  0  0  0  0  0  0  0  0  0  0  0
   58.6860   34.2500   47.3490 C   0  0  0  0  0  0  0  0  0  0  0  0
   59.6640   34.5800   48.2920 C   0  0  0  0  0  0  0  0  0  0  0  0
   60.8800   33.9730   48.2550 N   0  0  0  0  0  0  0  0  0  0  0  0
   64.6244   32.6532   47.0966 H   0  0  0  0  0  0  0  0  0  0  0  0
   63.5768   34.2436   47.0433 H   0  0  0  0  0  0  0  0  0  0  0  0
   62.6273   31.3311   47.3556 H   0  0  0  0  0  0  0  0  0  0  0  0
   60.4476   31.8681   45.6407 H   0  0  0  0  0  0  0  0  0  0  0  0
   58.2200   30.8040   45.3940 H   0  0  0  0  0  0  0  0  0  0  0  0
   56.6722   32.0643   43.1652 H   0  0  0  0  0  0  0  0  0  0  0  0
   58.3176   31.4142   42.7673 H   0  0  0  0  0  0  0  0  0  0  0  0
   56.0269   29.9431   42.5854 H   0  0  0  0  0  0  0  0  0  0  0  0
   57.6708   29.2532   42.9398 H   0  0  0  0  0  0  0  0  0  0  0  0
   56.3645   26.3477   45.9821 H   0  0  0  0  0  0  0  0  0  0  0  0
   56.3493   21.7283   46.6809 H   0  0  0  0  0  0  0  0  0  0  0  0
   55.0204   22.5419   45.7825 H   0  0  0  0  0  0  0  0  0  0  0  0
   57.1605   20.6688   44.6390 H   0  0  0  0  0  0  0  0  0  0  0  0
   55.3855   20.3618   44.7775 H   0  0  0  0  0  0  0  0  0  0  0  0
   57.9607   22.1112   43.1454 H   0  0  0  0  0  0  0  0  0  0  0  0
   56.8530   23.0144   42.0390 H   0  0  0  0  0  0  0  0  0  0  0  0
   57.8572   24.4295   43.8848 H   0  0  0  0  0  0  0  0  0  0  0  0
   56.0584   24.4040   43.8586 H   0  0  0  0  0  0  0  0  0  0  0  0
   60.2723   24.5943   46.5609 H   0  0  0  0  0  0  0  0  0  0  0  0
   61.3267   26.8227   46.1939 H   0  0  0  0  0  0  0  0  0  0  0  0
   60.3085   29.6341   46.6662 H   0  0  0  0  0  0  0  0  0  0  0  0
   61.0331   29.0700   45.1223 H   0  0  0  0  0  0  0  0  0  0  0  0
   59.4169   29.8541   45.1223 H   0  0  0  0  0  0  0  0  0  0  0  0
   57.7105   34.7582   47.3609 H   0  0  0  0  0  0  0  0  0  0  0  0
   59.4492   35.3322   49.0654 H   0  0  0  0  0  0  0  0  0  0  0  0
  1  2  2  0
  2  3  1  0
  3  4  2  0
  4  5  1  0
  5  6  1  0
  6  7  2  0
  6  8  1  0
  8  9  1  0
  9 10  1  0
 10 11  1  0
 11 12  2  0
 11 13  1  0
 13 14  1  0
 14 15  2  0
 15 16  1  0
 16 17  1  0
 17 18  2  0
 17 19  1  0
 19 20  1  0
 20 21  1  0
 21 22  1  0
 22 23  1  0
 23 24  1  0
 16 25  2  0
 25 26  1  0
 26 27  2  0
 27 28  1  0
  5 29  2  0
 29 30  1  0
 30 31  2  0
 31  3  1  0
 27 14  1  0
 24 19  1  0
  1 32  1  0
  1 33  1  0
  2 34  1  0
  4 35  1  0
  8 36  1  0
  9 37  1  0
  9 38  1  0
 10 39  1  0
 10 40  1  0
 15 41  1  0
 20 42  1  0
 20 43  1  0
 21 44  1  0
 21 45  1  0
 23 46  1  0
 23 47  1  0
 24 48  1  0
 24 49  1  0
 25 50  1  0
 26 51  1  0
 28 52  1  0
 28 53  1  0
 28 54  1  0
 29 55  1  0
 30 56  1  0
M  CHG  1  13  -1
M  END
>  <UniqueID>  (86) 
79

>  <SMILES>  (86) 
C=Cc1cc(C(=O)NCCC(=O)[N-]c2cc(C(=O)N3CCOCC3)ccc2C)ccn1

>  <Energy>  (86) 
69.60774586769844

>  <Genealogy>  (86) 
C=Cc1cc(C(=O)NCCC(=O)[N-]c2cc(C(=O)N3CCOCC3)ccc2C)ccn1 (protonated)
C=Cc1cc(C(=O)NCCC(=O)[N-]c2cc(C(=O)N3CCOCC3)ccc2C)ccn1 (3D coordinates assigned)
C=Cc1cc(C(=O)NCCC(=O)[N-]c2cc(C(=O)N3CCOCC3)ccc2C)ccn1 (nonaromatic ring conformer: 69.60774586769844 kcal/mol)

>  <smiles>  (86) 
C=Cc1cc(C(=O)NCCC(=O)Nc2cc(C(=O)N3CCOCC3)ccc2C)ccn1

>  <score_type>  (86) 
oracle

>  <origin>  (86) 
adg

>  <m_score__min__energy>  (86) 
-11.199999999999999

>  <m_primary>  (86) 
energy

$$$$
86:0
     RDKit          3D

 27 28  0  0  0  0  0  0  0  0999 V2000
   58.1070   26.7220   42.5740 C   0  0  0  0  0  0  0  0  0  0  0  0
   57.8600   27.4210   43.6960 C   0  0  0  0  0  0  0  0  0  0  0  0
   57.8090   28.7880   43.5920 N   0  0  0  0  0  0  0  0  0  0  0  0
   57.8050   29.6050   44.6820 C   0  0  0  0  0  0  0  0  0  0  0  0
   57.7410   31.0950   44.5080 C   0  0  0  0  0  0  0  0  0  0  0  0
   57.8300   29.0530   45.9610 C   0  0  0  0  0  0  0  0  0  0  0  0
   57.8230   27.6710   46.1120 C   0  0  0  0  0  0  0  0  0  0  0  0
   57.7630   26.8170   44.9940 C   0  0  0  0  0  0  0  0  0  0  0  0
   57.5830   25.4940   45.2450 C   0  0  0  0  0  0  0  0  0  0  0  0
   56.2950   24.7640   45.2600 C   0  0  0  0  0  0  0  0  0  0  0  0
   55.1130   25.4330   45.6140 C   0  0  0  0  0  0  0  0  0  0  0  0
   55.1440   26.7690   45.9990 O   0  0  0  0  0  0  0  0  0  0  0  0
   53.9270   24.7730   45.5950 N   0  0  0  0  0  0  0  0  0  0  0  0
   53.8560   23.4710   45.2180 C   0  0  0  0  0  0  0  0  0  0  0  0
   52.7460   22.8790   45.2130 O   0  0  0  0  0  0  0  0  0  0  0  0
   54.9790   22.8090   44.8420 N   0  0  0  0  0  0  0  0  0  0  0  0
   56.1900   23.4230   44.8440 C   0  0  0  0  0  0  0  0  0  0  0  0
   57.2060   22.7860   44.4570 O   0  0  0  0  0  0  0  0  0  0  0  0
   58.1569   25.6237   42.6100 H   0  0  0  0  0  0  0  0  0  0  0  0
   58.2591   27.2485   41.6203 H   0  0  0  0  0  0  0  0  0  0  0  0
   57.8220   29.2370   42.6460 H   0  0  0  0  0  0  0  0  0  0  0  0
   57.7202   31.5789   45.4956 H   0  0  0  0  0  0  0  0  0  0  0  0
   58.6253   31.4374   43.9505 H   0  0  0  0  0  0  0  0  0  0  0  0
   56.8306   31.3603   43.9505 H   0  0  0  0  0  0  0  0  0  0  0  0
   57.8551   29.7064   46.8455 H   0  0  0  0  0  0  0  0  0  0  0  0
   57.8650   27.2373   47.1220 H   0  0  0  0  0  0  0  0  0  0  0  0
   58.4869   24.9047   45.4590 H   0  0  0  0  0  0  0  0  0  0  0  0
  1  2  2  0
  2  3  1  0
  3  4  2  0
  4  5  1  0
  4  6  1  0
  6  7  2  0
  7  8  1  0
  8  9  2  3
  9 10  1  0
 10 11  2  0
 11 12  1  0
 11 13  1  0
 13 14  1  0
 14 15  2  0
 14 16  1  0
 16 17  1  0
 17 18  2  0
  8  2  1  0
 17 10  1  0
  1 19  1  0
  1 20  1  0
  3 21  1  0
  5 22  1  0
  5 23  1  0
  5 24  1  0
  6 25  1  0
  7 26  1  0
  9 27  1  0
M  CHG  4   3   1  12  -1  13  -1  16  -1
M  END
>  <UniqueID>  (87) 
80

>  <SMILES>  (87) 
C=c1[nH+]c(C)ccc1=Cc1c([O-])[n-]c(=O)[n-]c1=O

>  <Energy>  (87) 
51.6278949038733

>  <Genealogy>  (87) 
C=c1[nH+]c(C)ccc1=Cc1c([O-])[n-]c(=O)[n-]c1=O (protonated)
C=c1[nH+]c(C)ccc1=Cc1c([O-])[n-]c(=O)[n-]c1=O (3D coordinates assigned)
C=c1[nH+]c(C)ccc1=Cc1c([O-])[n-]c(=O)[n-]c1=O (optimized conformer: 51.6278949038733 kcal/mol)

>  <smiles>  (87) 
C=c1nc(C)ccc1=Cc1c(O)[nH]c(=O)[nH]c1=O

>  <score_type>  (87) 
oracle

>  <origin>  (87) 
adg

>  <m_score__min__energy>  (87) 
-12.83

>  <m_primary>  (87) 
energy

$$$$
87:0
     RDKit          3D

 42 44  0  0  0  0  0  0  0  0999 V2000
   59.6010   37.1330   46.6930 H   0  0  0  0  0  0  0  0  0  0  0  0
   59.6900   36.3290   46.0820 O   0  0  0  0  0  0  0  0  0  0  0  0
   59.4710   35.0590   46.5620 N   0  0  0  0  0  0  0  0  0  0  0  0
   59.2140   34.7840   47.8330 N   0  0  0  0  0  0  0  0  0  0  0  0
   59.0710   33.4450   47.9290 C   0  0  0  0  0  0  0  0  0  0  0  0
   58.9320   32.7070   49.2310 C   0  0  0  0  0  0  0  0  0  0  0  0
   57.8683   32.6812   49.5100 H   0  0  0  0  0  0  0  0  0  0  0  0
   59.3369   31.6945   49.0861 H   0  0  0  0  0  0  0  0  0  0  0  0
   59.7230   33.3670   50.3680 C   0  0  0  0  0  0  0  0  0  0  0  0
   59.2286   34.3109   50.6411 H   0  0  0  0  0  0  0  0  0  0  0  0
   59.7445   32.6646   51.2142 H   0  0  0  0  0  0  0  0  0  0  0  0
   61.1680   33.6660   49.9730 C   0  0  0  0  0  0  0  0  0  0  0  0
   61.7775   33.7921   50.8800 H   0  0  0  0  0  0  0  0  0  0  0  0
   61.5655   32.8311   49.3773 H   0  0  0  0  0  0  0  0  0  0  0  0
   61.2016   34.5901   49.3773 H   0  0  0  0  0  0  0  0  0  0  0  0
   59.2690   32.8840   46.6770 C   0  0  0  0  0  0  0  0  0  0  0  0
   59.3400   31.4880   46.3520 N   0  0  0  0  0  0  0  0  0  0  0  0
   60.2800   30.6250   46.7910 C   0  0  0  0  0  0  0  0  0  0  0  0
   61.4340   30.9930   47.6730 C   0  0  0  0  0  0  0  0  0  0  0  0
   61.1348   30.8976   48.7272 H   0  0  0  0  0  0  0  0  0  0  0  0
   62.2801   30.3201   47.4697 H   0  0  0  0  0  0  0  0  0  0  0  0
   61.7343   32.0315   47.4697 H   0  0  0  0  0  0  0  0  0  0  0  0
   60.0510   29.3610   46.2820 C   0  0  0  0  0  0  0  0  0  0  0  0
   60.6558   28.4597   46.4606 H   0  0  0  0  0  0  0  0  0  0  0  0
   58.9060   29.4530   45.5000 C   0  0  0  0  0  0  0  0  0  0  0  0
   58.3440   28.4510   44.7940 C   0  0  0  0  0  0  0  0  0  0  0  0
   58.4406   28.4686   43.6984 H   0  0  0  0  0  0  0  0  0  0  0  0
   57.6050   27.3300   45.4130 C   0  0  0  0  0  0  0  0  0  0  0  0
   56.2180   27.4250   45.6070 C   0  0  0  0  0  0  0  0  0  0  0  0
   55.5210   28.5540   45.1900 O   0  0  0  0  0  0  0  0  0  0  0  0
   55.5430   26.4050   46.1990 N   0  0  0  0  0  0  0  0  0  0  0  0
   56.1890   25.2900   46.6220 C   0  0  0  0  0  0  0  0  0  0  0  0
   55.5420   24.3560   47.1620 O   0  0  0  0  0  0  0  0  0  0  0  0
   57.5330   25.1830   46.4700 N   0  0  0  0  0  0  0  0  0  0  0  0
   58.2550   26.1760   45.8880 C   0  0  0  0  0  0  0  0  0  0  0  0
   59.5070   26.0560   45.7970 O   0  0  0  0  0  0  0  0  0  0  0  0
   58.4960   30.7880   45.5550 C   0  0  0  0  0  0  0  0  0  0  0  0
   57.4550   31.3310   44.9060 C   0  0  0  0  0  0  0  0  0  0  0  0
   57.2280   32.4004   45.0279 H   0  0  0  0  0  0  0  0  0  0  0  0
   56.8284   30.7068   44.2519 H   0  0  0  0  0  0  0  0  0  0  0  0
   59.5280   33.9360   45.8270 C   0  0  0  0  0  0  0  0  0  0  0  0
   59.7412   33.8694   44.7499 H   0  0  0  0  0  0  0  0  0  0  0  0
  1  2  1  0
  2  3  1  0
  3  4  1  0
  4  5  2  0
  5  6  1  0
  6  7  1  0
  6  8  1  0
  6  9  1  0
  9 10  1  0
  9 11  1  0
  9 12  1  0
 12 13  1  0
 12 14  1  0
 12 15  1  0
  5 16  1  0
 16 17  1  0
 17 18  1  0
 18 19  1  0
 19 20  1  0
 19 21  1  0
 19 22  1  0
 18 23  2  0
 23 24  1  0
 23 25  1  0
 25 26  2  0
 26 27  1  0
 26 28  1  0
 28 29  2  0
 29 30  1  0
 29 31  1  0
 31 32  1  0
 32 33  2  0
 32 34  1  0
 34 35  1  0
 35 36  2  0
 25 37  1  0
 37 38  2  0
 38 39  1  0
 38 40  1  0
 16 41  2  0
 41 42  1  0
 41  3  1  0
 37 17  1  0
 35 28  1  0
M  CHG  3  30  -1  31  -1  34  -1
M  END
>  <UniqueID>  (88) 
81

>  <SMILES>  (88) 
C=c1/c(=C/c2c([O-])[n-]c(=O)[n-]c2=O)cc(C)n1-c1cn(O)nc1CCC

>  <Energy>  (88) 
114.68184274779256

>  <Genealogy>  (88) 
C=c1c(=Cc2c([O-])[n-]c(=O)[n-]c2=O)cc(C)n1-c1cn(O)nc1CCC (protonated)
C=c1/c(=C/c2c([O-])[n-]c(=O)[n-]c2=O)cc(C)n1-c1cn(O)nc1CCC (cis-trans isomerization)
C=c1/c(=C/c2c([O-])[n-]c(=O)[n-]c2=O)cc(C)n1-c1cn(O)nc1CCC (3D coordinates assigned)
C=c1/c(=C/c2c([O-])[n-]c(=O)[n-]c2=O)cc(C)n1-c1cn(O)nc1CCC (optimized conformer: 114.68184274779256 kcal/mol)

>  <smiles>  (88) 
C=c1c(=Cc2c(O)[nH]c(=O)[nH]c2=O)cc(C)n1-c1cn(O)nc1CCC

>  <score_type>  (88) 
oracle

>  <origin>  (88) 
adg

>  <m_score__min__energy>  (88) 
-15.56

>  <m_primary>  (88) 
energy

$$$$
