0:0
     RDKit          3D

 63 65  0  0  0  0  0  0  0  0999 V2000
   59.2870   34.4430   54.3130 C   0  0  0  0  0  0  0  0  0  0  0  0
   58.9860   34.1820   52.8450 C   0  0  0  0  0  0  0  0  0  0  0  0
   58.1340   33.0450   52.7040 O   0  0  0  0  0  0  0  0  0  0  0  0
   58.4640   31.7690   53.1730 C   0  0  0  0  0  0  0  0  0  0  0  0
   57.9770   31.3530   54.2600 O   0  0  0  0  0  0  0  0  0  0  0  0
   59.3550   30.9360   52.4070 N   0  0  0  0  0  0  0  0  0  0  0  0
   59.7870   29.6220   52.9020 C   0  0  0  0  0  0  0  0  0  0  0  0
   59.6880   28.5770   51.7860 C   0  0  0  0  0  0  0  0  0  0  0  0
   60.2270   29.0840   50.5160 N   0  0  0  0  0  0  0  0  0  0  0  0
   60.3780   28.1700   49.4170 C   0  0  0  0  0  0  0  0  0  0  0  0
   60.9520   27.0630   49.6120 O   0  0  0  0  0  0  0  0  0  0  0  0
   59.8490   28.4920   48.0670 C   0  0  0  0  0  0  0  0  0  0  0  0
   60.5640   29.3260   47.1900 C   0  0  0  0  0  0  0  0  0  0  0  0
   60.0480   29.6400   45.9300 C   0  0  0  0  0  0  0  0  0  0  0  0
   58.7920   29.1560   45.5270 C   0  0  0  0  0  0  0  0  0  0  0  0
   58.2830   29.5170   44.2300 N   0  0  0  0  0  0  0  0  0  0  0  0
   57.3010   30.9160   43.9250 S   0  0  0  0  0  0  0  0  0  0  0  0
   55.9410   30.7090   44.5290 O   0  0  0  0  0  0  0  0  0  0  0  0
   57.1350   31.1000   42.4410 O   0  0  0  0  0  0  0  0  0  0  0  0
   58.0410   32.3350   44.6620 C   0  0  0  0  0  0  0  0  0  0  0  0
   58.3090   33.4850   43.9020 C   0  0  0  0  0  0  0  0  0  0  0  0
   58.9010   34.6020   44.5010 C   0  0  0  0  0  0  0  0  0  0  0  0
   59.2230   34.5780   45.8590 C   0  0  0  0  0  0  0  0  0  0  0  0
   58.9590   33.4340   46.6280 C   0  0  0  0  0  0  0  0  0  0  0  0
   59.3630   33.4310   48.3430 S   0  0  0  0  0  0  0  0  0  0  0  0
   59.2850   34.8300   48.8910 O   0  0  0  0  0  0  0  0  0  0  0  0
   58.3680   32.5690   49.0670 O   0  0  0  0  0  0  0  0  0  0  0  0
   60.9730   32.7940   48.5680 N   0  0  0  0  0  0  0  0  0  0  0  0
   61.6030   32.5800   47.2590 C   0  0  0  0  0  0  0  0  0  0  0  0
   61.7620   33.7400   49.3600 C   0  0  0  0  0  0  0  0  0  0  0  0
   58.3680   32.3120   46.0250 C   0  0  0  0  0  0  0  0  0  0  0  0
   58.0750   28.3250   46.4060 C   0  0  0  0  0  0  0  0  0  0  0  0
   58.5970   27.9980   47.6610 C   0  0  0  0  0  0  0  0  0  0  0  0
   60.8000   30.4340   50.4410 C   0  0  0  0  0  0  0  0  0  0  0  0
   59.8720   31.4460   51.1270 C   0  0  0  0  0  0  0  0  0  0  0  0
   58.6034   33.8502   54.9385 H   0  0  0  0  0  0  0  0  0  0  0  0
   60.3260   34.1552   54.5311 H   0  0  0  0  0  0  0  0  0  0  0  0
   59.1493   35.5123   54.5311 H   0  0  0  0  0  0  0  0  0  0  0  0
   58.4875   35.0634   52.4153 H   0  0  0  0  0  0  0  0  0  0  0  0
   59.9311   33.9862   52.3173 H   0  0  0  0  0  0  0  0  0  0  0  0
   60.8297   29.6883   53.2461 H   0  0  0  0  0  0  0  0  0  0  0  0
   59.1349   29.3203   53.7349 H   0  0  0  0  0  0  0  0  0  0  0  0
   60.2567   27.6835   52.0830 H   0  0  0  0  0  0  0  0  0  0  0  0
   58.6253   28.3364   51.6353 H   0  0  0  0  0  0  0  0  0  0  0  0
   61.5376   29.7348   47.4981 H   0  0  0  0  0  0  0  0  0  0  0  0
   60.6317   30.2733   45.2458 H   0  0  0  0  0  0  0  0  0  0  0  0
   58.5670   28.9500   43.4000 H   0  0  0  0  0  0  0  0  0  0  0  0
   58.0527   33.5076   42.8325 H   0  0  0  0  0  0  0  0  0  0  0  0
   59.1129   35.4997   43.9016 H   0  0  0  0  0  0  0  0  0  0  0  0
   59.6854   35.4590   46.3282 H   0  0  0  0  0  0  0  0  0  0  0  0
   62.6357   32.2292   47.4021 H   0  0  0  0  0  0  0  0  0  0  0  0
   61.0338   31.8248   46.6972 H   0  0  0  0  0  0  0  0  0  0  0  0
   61.6115   33.5257   46.6972 H   0  0  0  0  0  0  0  0  0  0  0  0
   61.6003   33.5461   50.4306 H   0  0  0  0  0  0  0  0  0  0  0  0
   62.8289   33.6170   49.1221 H   0  0  0  0  0  0  0  0  0  0  0  0
   61.4494   34.7675   49.1221 H   0  0  0  0  0  0  0  0  0  0  0  0
   58.1611   31.4127   46.6237 H   0  0  0  0  0  0  0  0  0  0  0  0
   57.0945   27.9286   46.1034 H   0  0  0  0  0  0  0  0  0  0  0  0
   58.0226   27.3479   48.3373 H   0  0  0  0  0  0  0  0  0  0  0  0
   61.7788   30.4411   50.9429 H   0  0  0  0  0  0  0  0  0  0  0  0
   60.9163   30.7149   49.3838 H   0  0  0  0  0  0  0  0  0  0  0  0
   60.4333   32.3733   51.3142 H   0  0  0  0  0  0  0  0  0  0  0  0
   59.0153   31.6287   50.4616 H   0  0  0  0  0  0  0  0  0  0  0  0
  1  2  1  0
  2  3  1  0
  3  4  1  0
  4  5  2  0
  4  6  1  0
  6  7  1  0
  7  8  1  0
  8  9  1  0
  9 10  1  0
 10 11  2  0
 10 12  1  0
 12 13  2  0
 13 14  1  0
 14 15  2  0
 15 16  1  0
 16 17  1  0
 17 18  2  0
 17 19  2  0
 17 20  1  0
 20 21  2  0
 21 22  1  0
 22 23  2  0
 23 24  1  0
 24 25  1  0
 25 26  2  0
 25 27  2  0
 25 28  1  0
 28 29  1  0
 28 30  1  0
 24 31  2  0
 15 32  1  0
 32 33  2  0
  9 34  1  0
 34 35  1  0
 35  6  1  0
 33 12  1  0
 31 20  1  0
  1 36  1  0
  1 37  1  0
  1 38  1  0
  2 39  1  0
  2 40  1  0
  7 41  1  0
  7 42  1  0
  8 43  1  0
  8 44  1  0
 13 45  1  0
 14 46  1  0
 16 47  1  0
 21 48  1  0
 22 49  1  0
 23 50  1  0
 29 51  1  0
 29 52  1  0
 29 53  1  0
 30 54  1  0
 30 55  1  0
 30 56  1  0
 31 57  1  0
 32 58  1  0
 33 59  1  0
 34 60  1  0
 34 61  1  0
 35 62  1  0
 35 63  1  0
M  END
>  <UniqueID>  (1) 
1

>  <SMILES>  (1) 
CCOC(=O)N1CCN(C(=O)c2ccc(NS(=O)(=O)c3cccc(S(=O)(=O)N(C)C)c3)cc2)CC1

>  <Energy>  (1) 
65.10443648865537

>  <Genealogy>  (1) 
CCOC(=O)N1CCN(C(=O)c2ccc(NS(=O)(=O)c3cccc(S(=O)(=O)N(C)C)c3)cc2)CC1 (3D coordinates assigned)
CCOC(=O)N1CCN(C(=O)c2ccc(NS(=O)(=O)c3cccc(S(=O)(=O)N(C)C)c3)cc2)CC1 (nonaromatic ring conformer: 65.10443648865537 kcal/mol)

>  <smiles>  (1) 
CCOC(=O)N1CCN(C(=O)c2ccc(NS(=O)(=O)c3cccc(S(=O)(=O)N(C)C)c3)cc2)CC1

>  <score_type>  (1) 
oracle

>  <origin>  (1) 
adg

>  <m_score__min__energy>  (1) 
-9.4299999999999997

>  <m_primary>  (1) 
energy

$$$$
1:0
     RDKit          3D

 73 78  0  0  0  0  0  0  0  0999 V2000
   57.4630   29.4290   45.9940 O   0  0  0  0  0  0  0  0  0  0  0  0
   58.5520   29.0190   46.4810 C   0  0  0  0  0  0  0  0  0  0  0  0
   58.7670   27.6090   46.6670 N   0  0  0  0  0  0  0  0  0  0  0  0
   57.9520   26.5980   46.0520 C   0  0  0  0  0  0  0  0  0  0  0  0
   56.5730   26.5730   46.3070 C   0  0  0  0  0  0  0  0  0  0  0  0
   55.7620   25.5950   45.7230 C   0  0  0  0  0  0  0  0  0  0  0  0
   56.3220   24.6150   44.8890 C   0  0  0  0  0  0  0  0  0  0  0  0
   55.4500   23.5490   44.2820 C   0  0  0  0  0  0  0  0  0  0  0  0
   54.2410   23.3070   45.1450 C   0  0  0  0  0  0  0  0  0  0  0  0
   52.9770   23.7630   44.7400 C   0  0  0  0  0  0  0  0  0  0  0  0
   51.8700   23.5470   45.5650 C   0  0  0  0  0  0  0  0  0  0  0  0
   52.0220   22.9050   46.7540 N   0  0  0  0  0  0  0  0  0  0  0  0
   53.2360   22.4620   47.1770 C   0  0  0  0  0  0  0  0  0  0  0  0
   54.3690   22.6600   46.3830 C   0  0  0  0  0  0  0  0  0  0  0  0
   57.7080   24.6160   44.6620 C   0  0  0  0  0  0  0  0  0  0  0  0
   58.5170   25.6020   45.2350 C   0  0  0  0  0  0  0  0  0  0  0  0
   59.5750   30.0030   46.9080 C   0  0  0  0  0  0  0  0  0  0  0  0
   60.9000   29.9050   46.4540 C   0  0  0  0  0  0  0  0  0  0  0  0
   61.8550   30.8380   46.8540 C   0  0  0  0  0  0  0  0  0  0  0  0
   61.5100   31.8930   47.7120 C   0  0  0  0  0  0  0  0  0  0  0  0
   62.5440   32.8700   48.1280 C   0  0  0  0  0  0  0  0  0  0  0  0
   62.6000   33.9850   47.5420 O   0  0  0  0  0  0  0  0  0  0  0  0
   63.4760   32.5800   49.1910 N   0  0  0  0  0  0  0  0  0  0  0  0
   63.0290   31.8860   50.4080 C   0  0  0  0  0  0  0  0  0  0  0  0
   64.0590   30.8420   50.8270 C   0  0  0  0  0  0  0  0  0  0  0  0
   65.4040   31.4860   50.9920 C   0  0  0  0  0  0  0  0  0  0  0  0
   66.3090   30.9970   51.9460 C   0  0  0  0  0  0  0  0  0  0  0  0
   67.5720   31.5800   52.0830 C   0  0  0  0  0  0  0  0  0  0  0  0
   67.9430   32.6460   51.2610 C   0  0  0  0  0  0  0  0  0  0  0  0
   67.0560   33.1270   50.2940 C   0  0  0  0  0  0  0  0  0  0  0  0
   65.7820   32.5540   50.1520 C   0  0  0  0  0  0  0  0  0  0  0  0
   64.8670   33.0500   49.0540 C   0  0  0  0  0  0  0  0  0  0  0  0
   60.1860   32.0020   48.1830 C   0  0  0  0  0  0  0  0  0  0  0  0
   59.8590   33.0610   49.0450 O   0  0  0  0  0  0  0  0  0  0  0  0
   59.3090   34.3100   48.6330 C   0  0  0  0  0  0  0  0  0  0  0  0
   58.8840   34.2050   47.1980 C   0  0  0  0  0  0  0  0  0  0  0  0
   57.6420   33.6390   46.8660 C   0  0  0  0  0  0  0  0  0  0  0  0
   57.2260   33.5880   45.5310 C   0  0  0  0  0  0  0  0  0  0  0  0
   58.0400   34.1130   44.5240 C   0  0  0  0  0  0  0  0  0  0  0  0
   59.2700   34.6920   44.8480 C   0  0  0  0  0  0  0  0  0  0  0  0
   59.6900   34.7440   46.1820 C   0  0  0  0  0  0  0  0  0  0  0  0
   59.2250   31.0580   47.7690 C   0  0  0  0  0  0  0  0  0  0  0  0
   59.4570   27.3060   47.3900 H   0  0  0  0  0  0  0  0  0  0  0  0
   56.1265   27.3279   46.9709 H   0  0  0  0  0  0  0  0  0  0  0  0
   54.6795   25.5938   45.9183 H   0  0  0  0  0  0  0  0  0  0  0  0
   55.1233   23.8732   43.2829 H   0  0  0  0  0  0  0  0  0  0  0  0
   56.0273   22.6157   44.2061 H   0  0  0  0  0  0  0  0  0  0  0  0
   52.8585   24.2867   43.7800 H   0  0  0  0  0  0  0  0  0  0  0  0
   50.8750   23.8966   45.2524 H   0  0  0  0  0  0  0  0  0  0  0  0
   53.3264   21.9473   48.1450 H   0  0  0  0  0  0  0  0  0  0  0  0
   55.3540   22.3110   46.7264 H   0  0  0  0  0  0  0  0  0  0  0  0
   58.1595   23.8370   44.0301 H   0  0  0  0  0  0  0  0  0  0  0  0
   59.6006   25.5988   45.0460 H   0  0  0  0  0  0  0  0  0  0  0  0
   61.1864   29.0860   45.7778 H   0  0  0  0  0  0  0  0  0  0  0  0
   62.8901   30.7462   46.4932 H   0  0  0  0  0  0  0  0  0  0  0  0
   62.9036   32.6186   51.2189 H   0  0  0  0  0  0  0  0  0  0  0  0
   62.0716   31.3842   50.2041 H   0  0  0  0  0  0  0  0  0  0  0  0
   63.7519   30.3899   51.7816 H   0  0  0  0  0  0  0  0  0  0  0  0
   64.1230   30.0657   50.0503 H   0  0  0  0  0  0  0  0  0  0  0  0
   66.0235   30.1513   52.5888 H   0  0  0  0  0  0  0  0  0  0  0  0
   68.2742   31.1987   52.8390 H   0  0  0  0  0  0  0  0  0  0  0  0
   68.9348   33.1079   51.3747 H   0  0  0  0  0  0  0  0  0  0  0  0
   67.3575   33.9590   49.6406 H   0  0  0  0  0  0  0  0  0  0  0  0
   64.8663   34.1499   49.0716 H   0  0  0  0  0  0  0  0  0  0  0  0
   65.2525   32.6484   48.1053 H   0  0  0  0  0  0  0  0  0  0  0  0
   58.4381   34.5543   49.2590 H   0  0  0  0  0  0  0  0  0  0  0  0
   60.0638   35.1029   48.7408 H   0  0  0  0  0  0  0  0  0  0  0  0
   56.9944   33.2346   47.6579 H   0  0  0  0  0  0  0  0  0  0  0  0
   56.2574   33.1343   45.2741 H   0  0  0  0  0  0  0  0  0  0  0  0
   57.7123   34.0705   43.4748 H   0  0  0  0  0  0  0  0  0  0  0  0
   59.9083   35.1071   44.0541 H   0  0  0  0  0  0  0  0  0  0  0  0
   60.6544   35.2085   46.4355 H   0  0  0  0  0  0  0  0  0  0  0  0
   58.1877   31.1477   48.1240 H   0  0  0  0  0  0  0  0  0  0  0  0
  1  2  2  0
  2  3  1  0
  3  4  1  0
  4  5  2  0
  5  6  1  0
  6  7  2  0
  7  8  1  0
  8  9  1  0
  9 10  2  0
 10 11  1  0
 11 12  2  0
 12 13  1  0
 13 14  2  0
  7 15  1  0
 15 16  2  0
  2 17  1  0
 17 18  2  0
 18 19  1  0
 19 20  2  0
 20 21  1  0
 21 22  2  0
 21 23  1  0
 23 24  1  0
 24 25  1  0
 25 26  1  0
 26 27  2  0
 27 28  1  0
 28 29  2  0
 29 30  1  0
 30 31  2  0
 31 32  1  0
 20 33  1  0
 33 34  1  0
 34 35  1  0
 35 36  1  0
 36 37  2  0
 37 38  1  0
 38 39  2  0
 39 40  1  0
 40 41  2  0
 33 42  2  0
 16  4  1  0
 42 17  1  0
 14  9  1  0
 32 23  1  0
 41 36  1  0
 31 26  1  0
  3 43  1  0
  5 44  1  0
  6 45  1  0
  8 46  1  0
  8 47  1  0
 10 48  1  0
 11 49  1  0
 13 50  1  0
 14 51  1  0
 15 52  1  0
 16 53  1  0
 18 54  1  0
 19 55  1  0
 24 56  1  0
 24 57  1  0
 25 58  1  0
 25 59  1  0
 27 60  1  0
 28 61  1  0
 29 62  1  0
 30 63  1  0
 32 64  1  0
 32 65  1  0
 35 66  1  0
 35 67  1  0
 37 68  1  0
 38 69  1  0
 39 70  1  0
 40 71  1  0
 41 72  1  0
 42 73  1  0
M  END
>  <UniqueID>  (2) 
2

>  <SMILES>  (2) 
O=C(Nc1ccc(Cc2ccncc2)cc1)c1ccc(C(=O)N2CCc3ccccc3C2)c(OCc2ccccc2)c1

>  <Energy>  (2) 
93.26784869200931

>  <Genealogy>  (2) 
O=C(Nc1ccc(Cc2ccncc2)cc1)c1ccc(C(=O)N2CCc3ccccc3C2)c(OCc2ccccc2)c1 (3D coordinates assigned)
O=C(Nc1ccc(Cc2ccncc2)cc1)c1ccc(C(=O)N2CCc3ccccc3C2)c(OCc2ccccc2)c1 (nonaromatic ring conformer: 93.26784869200931 kcal/mol)

>  <smiles>  (2) 
O=C(Nc1ccc(Cc2ccncc2)cc1)c1ccc(C(=O)N2CCc3ccccc3C2)c(OCc2ccccc2)c1

>  <score_type>  (2) 
oracle

>  <origin>  (2) 
adg

>  <m_score__min__energy>  (2) 
-10

>  <m_primary>  (2) 
energy

$$$$
2:0
     RDKit          3D

 49 51  0  0  0  0  0  0  0  0999 V2000
   60.1630   29.0830   48.7670 C   0  0  0  0  0  0  0  0  0  0  0  0
   60.7040   30.3690   48.9650 O   0  0  0  0  0  0  0  0  0  0  0  0
   61.2840   30.8470   47.7670 C   0  0  0  0  0  0  0  0  0  0  0  0
   60.4100   31.9070   47.1090 C   0  0  0  0  0  0  0  0  0  0  0  0
   59.3170   31.4090   46.3800 C   0  0  0  0  0  0  0  0  0  0  0  0
   58.4800   32.2680   45.6700 C   0  0  0  0  0  0  0  0  0  0  0  0
   57.3450   31.7570   44.9360 N   0  0  0  0  0  0  0  0  0  0  0  0
   57.7140   30.6040   44.0800 C   0  0  0  0  0  0  0  0  0  0  0  0
   56.6400   30.2970   43.0100 C   0  0  0  0  0  0  0  0  0  0  0  0
   55.3510   29.7200   43.6390 C   0  0  0  0  0  0  0  0  0  0  0  0
   55.5270   29.2440   44.9650 O   0  0  0  0  0  0  0  0  0  0  0  0
   56.6980   28.4580   45.0560 C   0  0  0  0  0  0  0  0  0  0  0  0
   57.9580   29.3360   44.9360 C   0  0  0  0  0  0  0  0  0  0  0  0
   58.7660   33.6290   45.6760 C   0  0  0  0  0  0  0  0  0  0  0  0
   59.8410   34.1190   46.4180 C   0  0  0  0  0  0  0  0  0  0  0  0
   60.0650   35.3590   46.3680 O   0  0  0  0  0  0  0  0  0  0  0  0
   60.6330   33.2790   47.1830 N   0  0  0  0  0  0  0  0  0  0  0  0
   61.7140   33.8630   48.0410 C   0  0  1  0  0  0  0  0  0  0  0  0
   61.5630   33.4710   49.5210 C   0  0  0  0  0  0  0  0  0  0  0  0
   62.8280   32.7180   49.9080 C   0  0  0  0  0  0  0  0  0  0  0  0
   63.8890   33.1010   48.8890 C   0  0  0  0  0  0  0  0  0  0  0  0
   63.1490   33.4780   47.6090 C   0  0  0  0  0  0  0  0  0  0  0  0
   63.1830   32.4230   46.7130 F   0  0  0  0  0  0  0  0  0  0  0  0
   63.7850   34.5580   47.0140 F   0  0  0  0  0  0  0  0  0  0  0  0
   59.9657   28.6141   49.7423 H   0  0  0  0  0  0  0  0  0  0  0  0
   59.2226   29.1638   48.2021 H   0  0  0  0  0  0  0  0  0  0  0  0
   60.8784   28.4673   48.2021 H   0  0  0  0  0  0  0  0  0  0  0  0
   62.2668   31.2852   47.9954 H   0  0  0  0  0  0  0  0  0  0  0  0
   61.3851   30.0015   47.0706 H   0  0  0  0  0  0  0  0  0  0  0  0
   59.1193   30.3270   46.3695 H   0  0  0  0  0  0  0  0  0  0  0  0
   56.9070   32.5160   44.3650 H   0  0  0  0  0  0  0  0  0  0  0  0
   56.6260   31.4530   45.6340 H   0  0  0  0  0  0  0  0  0  0  0  0
   58.6424   30.8868   43.5623 H   0  0  0  0  0  0  0  0  0  0  0  0
   56.3911   31.2272   42.4783 H   0  0  0  0  0  0  0  0  0  0  0  0
   57.0501   29.5447   42.3201 H   0  0  0  0  0  0  0  0  0  0  0  0
   54.5869   30.5111   43.6525 H   0  0  0  0  0  0  0  0  0  0  0  0
   55.0515   28.8579   43.0249 H   0  0  0  0  0  0  0  0  0  0  0  0
   56.7103   27.9406   46.0266 H   0  0  0  0  0  0  0  0  0  0  0  0
   56.6974   27.7285   44.2327 H   0  0  0  0  0  0  0  0  0  0  0  0
   58.2707   29.6451   45.9443 H   0  0  0  0  0  0  0  0  0  0  0  0
   58.7366   28.7395   44.4381 H   0  0  0  0  0  0  0  0  0  0  0  0
   58.1418   34.3222   45.0931 H   0  0  0  0  0  0  0  0  0  0  0  0
   61.5830   34.9469   47.9072 H   0  0  0  0  0  0  0  0  0  0  0  0
   61.4538   34.3722   50.1422 H   0  0  0  0  0  0  0  0  0  0  0  0
   60.6699   32.8475   49.6749 H   0  0  0  0  0  0  0  0  0  0  0  0
   63.1494   33.0097   50.9187 H   0  0  0  0  0  0  0  0  0  0  0  0
   62.6572   31.6314   49.9141 H   0  0  0  0  0  0  0  0  0  0  0  0
   64.4749   33.9571   49.2548 H   0  0  0  0  0  0  0  0  0  0  0  0
   64.5878   32.2700   48.7128 H   0  0  0  0  0  0  0  0  0  0  0  0
  1  2  1  0
  2  3  1  0
  3  4  1  0
  4  5  2  0
  5  6  1  0
  6  7  1  0
  7  8  1  0
  8  9  1  0
  9 10  1  0
 10 11  1  0
 11 12  1  0
 12 13  1  0
  6 14  2  0
 14 15  1  0
 15 16  2  0
 15 17  1  0
 17 18  1  0
 18 19  1  0
 19 20  1  0
 20 21  1  0
 21 22  1  0
 22 23  1  0
 22 24  1  0
 17  4  1  0
 22 18  1  0
 13  8  1  0
  1 25  1  0
  1 26  1  0
  1 27  1  0
  3 28  1  0
  3 29  1  0
  5 30  1  0
  7 31  1  0
  7 32  1  0
  8 33  1  0
  9 34  1  0
  9 35  1  0
 10 36  1  0
 10 37  1  0
 12 38  1  0
 12 39  1  0
 13 40  1  0
 13 41  1  0
 14 42  1  0
 18 43  1  1
 19 44  1  0
 19 45  1  0
 20 46  1  0
 20 47  1  0
 21 48  1  0
 21 49  1  0
M  CHG  1   7   1
M  END
>  <UniqueID>  (3) 
3

>  <SMILES>  (3) 
COCc1cc([NH2+]C2CCOCC2)cc(=O)n1[C@H]1CCCC1(F)F

>  <Energy>  (3) 
78.18924620363262

>  <Genealogy>  (3) 
COCc1cc([NH2+]C2CCOCC2)cc(=O)n1C1CCCC1(F)F (protonated)
COCc1cc([NH2+]C2CCOCC2)cc(=O)n1[C@H]1CCCC1(F)F (chirality)
COCc1cc([NH2+]C2CCOCC2)cc(=O)n1[C@H]1CCCC1(F)F (3D coordinates assigned)
COCc1cc([NH2+]C2CCOCC2)cc(=O)n1[C@H]1CCCC1(F)F (nonaromatic ring conformer: 78.18924620363262 kcal/mol)

>  <smiles>  (3) 
COCc1cc(NC2CCOCC2)cc(=O)n1C1CCCC1(F)F

>  <score_type>  (3) 
oracle

>  <origin>  (3) 
adg

>  <m_score__min__energy>  (3) 
-5.7699999999999996

>  <m_primary>  (3) 
energy

$$$$
3:0
     RDKit          3D

 56 59  0  0  0  0  0  0  0  0999 V2000
   67.1430   31.0490   50.8450 C   0  0  0  0  0  0  0  0  0  0  0  0
   67.2400   32.8170   51.0400 S   0  0  0  0  0  0  0  0  0  0  0  0
   68.1100   33.1290   52.2230 O   0  0  0  0  0  0  0  0  0  0  0  0
   67.8390   33.4120   49.7980 O   0  0  0  0  0  0  0  0  0  0  0  0
   65.6570   33.4800   51.2950 N   0  0  0  0  0  0  0  0  0  0  0  0
   65.2350   34.2010   52.4920 C   0  0  0  0  0  0  0  0  0  0  0  0
   63.7670   34.6240   52.2320 C   0  0  0  0  0  0  0  0  0  0  0  0
   63.4920   34.0980   50.8640 C   0  0  0  0  0  0  0  0  0  0  0  0
   62.3170   34.2070   50.1210 C   0  0  0  0  0  0  0  0  0  0  0  0
   62.2650   33.6300   48.8330 C   0  0  0  0  0  0  0  0  0  0  0  0
   61.0220   33.7440   48.0310 C   0  0  0  0  0  0  0  0  0  0  0  0
   60.0950   34.4890   48.4520 O   0  0  0  0  0  0  0  0  0  0  0  0
   60.8630   33.0320   46.7900 N   0  0  0  0  0  0  0  0  0  0  0  0
   59.6410   33.0100   46.0340 C   0  0  0  0  0  0  0  0  0  0  0  0
   59.0260   34.2210   45.6850 C   0  0  0  0  0  0  0  0  0  0  0  0
   57.8510   34.2260   44.9290 C   0  0  0  0  0  0  0  0  0  0  0  0
   57.2870   33.0210   44.5010 C   0  0  0  0  0  0  0  0  0  0  0  0
   57.9020   31.8040   44.8250 C   0  0  0  0  0  0  0  0  0  0  0  0
   57.2310   30.2790   44.2530 S   0  0  0  0  0  0  0  0  0  0  0  0
   56.7400   30.4350   42.8400 O   0  0  0  0  0  0  0  0  0  0  0  0
   56.0640   29.9130   45.1280 O   0  0  0  0  0  0  0  0  0  0  0  0
   58.4670   29.0430   44.3370 N   0  0  0  0  0  0  0  0  0  0  0  0
   58.1130   27.8440   43.5330 C   0  0  0  0  0  0  0  0  0  0  0  0
   57.9470   26.5590   44.3620 C   0  0  0  0  0  0  0  0  0  0  0  0
   57.1490   26.8390   45.6340 C   0  0  0  0  0  0  0  0  0  0  0  0
   57.8040   27.9350   46.4930 C   0  0  0  0  0  0  0  0  0  0  0  0
   58.8620   28.7540   45.7300 C   0  0  0  0  0  0  0  0  0  0  0  0
   59.0820   31.8010   45.5790 C   0  0  0  0  0  0  0  0  0  0  0  0
   63.4150   32.9760   48.3230 C   0  0  0  0  0  0  0  0  0  0  0  0
   64.5840   32.8830   49.0950 C   0  0  0  0  0  0  0  0  0  0  0  0
   64.5880   33.4550   50.3680 C   0  0  0  0  0  0  0  0  0  0  0  0
   67.1168   30.5717   51.8357 H   0  0  0  0  0  0  0  0  0  0  0  0
   66.2293   30.7910   50.2894 H   0  0  0  0  0  0  0  0  0  0  0  0
   68.0229   30.6926   50.2894 H   0  0  0  0  0  0  0  0  0  0  0  0
   65.2950   33.5472   53.3745 H   0  0  0  0  0  0  0  0  0  0  0  0
   65.8788   35.0707   52.6898 H   0  0  0  0  0  0  0  0  0  0  0  0
   63.0901   34.1708   52.9712 H   0  0  0  0  0  0  0  0  0  0  0  0
   63.6126   35.7101   52.3132 H   0  0  0  0  0  0  0  0  0  0  0  0
   61.4436   34.7345   50.5320 H   0  0  0  0  0  0  0  0  0  0  0  0
   61.6830   32.5380   46.3750 H   0  0  0  0  0  0  0  0  0  0  0  0
   59.4716   35.1732   46.0086 H   0  0  0  0  0  0  0  0  0  0  0  0
   57.3689   35.1802   44.6702 H   0  0  0  0  0  0  0  0  0  0  0  0
   56.3597   33.0278   43.9094 H   0  0  0  0  0  0  0  0  0  0  0  0
   57.1647   28.0445   43.0128 H   0  0  0  0  0  0  0  0  0  0  0  0
   58.9489   27.6687   42.8398 H   0  0  0  0  0  0  0  0  0  0  0  0
   57.4159   25.8067   43.7603 H   0  0  0  0  0  0  0  0  0  0  0  0
   58.9434   26.1872   44.6431 H   0  0  0  0  0  0  0  0  0  0  0  0
   56.1362   27.1644   45.3540 H   0  0  0  0  0  0  0  0  0  0  0  0
   57.1183   25.9135   46.2277 H   0  0  0  0  0  0  0  0  0  0  0  0
   57.0182   28.6200   46.8441 H   0  0  0  0  0  0  0  0  0  0  0  0
   58.3180   27.4332   47.3261 H   0  0  0  0  0  0  0  0  0  0  0  0
   59.0154   29.7074   46.2568 H   0  0  0  0  0  0  0  0  0  0  0  0
   59.7833   28.1540   45.6952 H   0  0  0  0  0  0  0  0  0  0  0  0
   59.5755   30.8472   45.8173 H   0  0  0  0  0  0  0  0  0  0  0  0
   63.3911   32.5379   47.3143 H   0  0  0  0  0  0  0  0  0  0  0  0
   65.4763   32.3710   48.7054 H   0  0  0  0  0  0  0  0  0  0  0  0
  1  2  1  0
  2  3  2  0
  2  4  2  0
  2  5  1  0
  5  6  1  0
  6  7  1  0
  7  8  1  0
  8  9  2  0
  9 10  1  0
 10 11  1  0
 11 12  2  0
 11 13  1  0
 13 14  1  0
 14 15  2  0
 15 16  1  0
 16 17  2  0
 17 18  1  0
 18 19  1  0
 19 20  2  0
 19 21  2  0
 19 22  1  0
 22 23  1  0
 23 24  1  0
 24 25  1  0
 25 26  1  0
 26 27  1  0
 18 28  2  0
 10 29  2  0
 29 30  1  0
 30 31  2  0
 31  5  1  0
 31  8  1  0
 28 14  1  0
 27 22  1  0
  1 32  1  0
  1 33  1  0
  1 34  1  0
  6 35  1  0
  6 36  1  0
  7 37  1  0
  7 38  1  0
  9 39  1  0
 13 40  1  0
 15 41  1  0
 16 42  1  0
 17 43  1  0
 23 44  1  0
 23 45  1  0
 24 46  1  0
 24 47  1  0
 25 48  1  0
 25 49  1  0
 26 50  1  0
 26 51  1  0
 27 52  1  0
 27 53  1  0
 28 54  1  0
 29 55  1  0
 30 56  1  0
M  END
>  <UniqueID>  (4) 
4

>  <SMILES>  (4) 
CS(=O)(=O)N1CCc2cc(C(=O)Nc3cccc(S(=O)(=O)N4CCCCC4)c3)ccc21

>  <Energy>  (4) 
83.61186821144268

>  <Genealogy>  (4) 
CS(=O)(=O)N1CCc2cc(C(=O)Nc3cccc(S(=O)(=O)N4CCCCC4)c3)ccc21 (3D coordinates assigned)
CS(=O)(=O)N1CCc2cc(C(=O)Nc3cccc(S(=O)(=O)N4CCCCC4)c3)ccc21 (nonaromatic ring conformer: 83.61186821144268 kcal/mol)

>  <smiles>  (4) 
CS(=O)(=O)N1CCc2cc(C(=O)Nc3cccc(S(=O)(=O)N4CCCCC4)c3)ccc21

>  <score_type>  (4) 
oracle

>  <origin>  (4) 
adg

>  <m_score__min__energy>  (4) 
-9.9800000000000004

>  <m_primary>  (4) 
energy

$$$$
4:0
     RDKit          3D

 40 42  0  0  0  0  0  0  0  0999 V2000
   55.6610   29.6420   41.2700 H   0  0  0  0  0  0  0  0  0  0  0  0
   56.3380   30.0710   41.8920 O   0  0  0  0  0  0  0  0  0  0  0  0
   56.7440   29.4460   43.0680 C   0  0  0  0  0  0  0  0  0  0  0  0
   57.3940   28.2050   43.0320 C   0  0  0  0  0  0  0  0  0  0  0  0
   57.5875   27.7152   42.0663 H   0  0  0  0  0  0  0  0  0  0  0  0
   57.7970   27.5880   44.2190 C   0  0  0  0  0  0  0  0  0  0  0  0
   58.3121   26.6167   44.1840 H   0  0  0  0  0  0  0  0  0  0  0  0
   57.5470   28.2030   45.4570 C   0  0  0  0  0  0  0  0  0  0  0  0
   58.0150   27.5600   46.7340 C   0  0  0  0  0  0  0  0  0  0  0  0
   57.7439   28.2018   47.5852 H   0  0  0  0  0  0  0  0  0  0  0  0
   59.1069   27.4329   46.6943 H   0  0  0  0  0  0  0  0  0  0  0  0
   57.3710   26.2190   46.9000 C   0  0  0  0  0  0  0  0  0  0  0  0
   58.0030   25.1330   47.3790 N   0  0  0  0  0  0  0  0  0  0  0  0
   57.0710   24.1600   47.2840 C   0  0  0  0  0  0  0  0  0  0  0  0
   57.3260   22.8180   47.6950 N   0  0  0  0  0  0  0  0  0  0  0  0
   56.3730   21.9960   47.8820 N   0  0  0  0  0  0  0  0  0  0  0  0
   55.9520   21.0740   46.8710 C   0  0  0  0  0  0  0  0  0  0  0  0
   56.2580   21.3340   45.5730 N   0  0  0  0  0  0  0  0  0  0  0  0
   55.8820   20.4910   44.5720 C   0  0  0  0  0  0  0  0  0  0  0  0
   56.1800   20.7490   43.3340 N   0  0  0  0  0  0  0  0  0  0  0  0
   57.0470   21.8470   42.9140 C   0  0  0  0  0  0  0  0  0  0  0  0
   57.3458   21.6960   41.8662 H   0  0  0  0  0  0  0  0  0  0  0  0
   57.9408   21.8694   43.5549 H   0  0  0  0  0  0  0  0  0  0  0  0
   56.3150   23.1490   43.0400 C   0  0  0  0  0  0  0  0  0  0  0  0
   55.2770   23.2237   42.6838 H   0  0  0  0  0  0  0  0  0  0  0  0
   56.9040   24.2190   43.5780 C   0  0  0  0  0  0  0  0  0  0  0  0
   56.3517   25.1665   43.6626 H   0  0  0  0  0  0  0  0  0  0  0  0
   57.9417   24.1533   43.9369 H   0  0  0  0  0  0  0  0  0  0  0  0
   55.1840   19.3630   44.8680 N   0  0  0  0  0  0  0  0  0  0  0  0
   54.8550   19.0600   46.1510 C   0  0  0  0  0  0  0  0  0  0  0  0
   54.2909   18.1418   46.3718 H   0  0  0  0  0  0  0  0  0  0  0  0
   55.2320   19.9120   47.1870 C   0  0  0  0  0  0  0  0  0  0  0  0
   54.9709   19.6787   48.2298 H   0  0  0  0  0  0  0  0  0  0  0  0
   55.8910   24.5610   46.7600 N   0  0  0  0  0  0  0  0  0  0  0  0
   56.1000   25.8640   46.5170 C   0  0  0  0  0  0  0  0  0  0  0  0
   55.1530   26.7090   45.9530 O   0  0  0  0  0  0  0  0  0  0  0  0
   56.9060   29.4520   45.4870 C   0  0  0  0  0  0  0  0  0  0  0  0
   56.7202   29.9487   46.4507 H   0  0  0  0  0  0  0  0  0  0  0  0
   56.5030   30.0670   44.2990 C   0  0  0  0  0  0  0  0  0  0  0  0
   55.9948   31.0421   44.3312 H   0  0  0  0  0  0  0  0  0  0  0  0
  1  2  1  0
  2  3  1  0
  3  4  2  0
  4  5  1  0
  4  6  1  0
  6  7  1  0
  6  8  2  0
  8  9  1  0
  9 10  1  0
  9 11  1  0
  9 12  1  0
 12 13  1  0
 13 14  1  0
 14 15  1  0
 15 16  2  0
 16 17  1  0
 17 18  2  0
 18 19  1  0
 19 20  2  0
 20 21  1  0
 21 22  1  0
 21 23  1  0
 21 24  1  0
 24 25  1  0
 24 26  2  0
 26 27  1  0
 26 28  1  0
 19 29  1  0
 29 30  1  0
 30 31  1  0
 30 32  2  0
 32 33  1  0
 14 34  2  0
 34 35  1  0
 35 36  1  0
  8 37  1  0
 37 38  1  0
 37 39  2  0
 39 40  1  0
 39  3  1  0
 35 12  2  0
 32 17  1  0
M  CHG  3  13  -1  29  -1  36  -1
M  END
>  <UniqueID>  (5) 
5

>  <SMILES>  (5) 
C=CC/N=c1\nc(/N=N/c2nc([O-])c(Cc3ccc(O)cc3)[n-]2)cc[n-]1

>  <Energy>  (5) 
65.31822246870036

>  <Genealogy>  (5) 
C=CCN=c1nc(N=Nc2nc([O-])c(Cc3ccc(O)cc3)[n-]2)cc[n-]1 (protonated)
C=CC/N=c1\nc(/N=N/c2nc([O-])c(Cc3ccc(O)cc3)[n-]2)cc[n-]1 (cis-trans isomerization)
C=CC/N=c1\nc(/N=N/c2nc([O-])c(Cc3ccc(O)cc3)[n-]2)cc[n-]1 (3D coordinates assigned)
C=CC/N=c1\nc(/N=N/c2nc([O-])c(Cc3ccc(O)cc3)[n-]2)cc[n-]1 (optimized conformer: 65.31822246870036 kcal/mol)

>  <smiles>  (5) 
C=CCN=c1nc(N=Nc2nc(O)c(Cc3ccc(O)cc3)[nH]2)cc[nH]1

>  <score_type>  (5) 
oracle

>  <origin>  (5) 
adg

>  <m_score__min__energy>  (5) 
-14.33

>  <m_primary>  (5) 
energy

$$$$
5:0
     RDKit          3D

 45 48  0  0  0  0  0  0  0  0999 V2000
   53.4521   25.2424   45.1583 H   0  0  0  0  0  0  0  0  0  0  0  0
   54.3680   24.8380   45.6140 C   0  0  0  0  0  0  0  0  0  0  0  0
   55.2380   25.6130   46.3140 N   0  0  0  0  0  0  0  0  0  0  0  0
   56.2870   24.8910   46.7690 C   0  0  0  0  0  0  0  0  0  0  0  0
   57.2610   25.3780   47.4790 N   0  0  0  0  0  0  0  0  0  0  0  0
   58.3340   26.2050   46.9970 C   0  0  0  0  0  0  0  0  0  0  0  0
   59.4390   26.2410   47.6080 O   0  0  0  0  0  0  0  0  0  0  0  0
   58.1390   27.0330   45.7830 C   0  0  0  0  0  0  0  0  0  0  0  0
   58.2920   26.4680   44.5050 C   0  0  0  0  0  0  0  0  0  0  0  0
   58.5617   25.4062   44.4059 H   0  0  0  0  0  0  0  0  0  0  0  0
   58.1040   27.2450   43.3610 C   0  0  0  0  0  0  0  0  0  0  0  0
   58.2267   26.7928   42.3658 H   0  0  0  0  0  0  0  0  0  0  0  0
   57.7610   28.5930   43.4740 C   0  0  0  0  0  0  0  0  0  0  0  0
   57.6085   29.1959   42.5667 H   0  0  0  0  0  0  0  0  0  0  0  0
   57.6090   29.1860   44.7410 C   0  0  0  0  0  0  0  0  0  0  0  0
   57.2210   30.6130   44.8760 C   0  0  0  0  0  0  0  0  0  0  0  0
   56.0690   30.9780   44.5120 O   0  0  0  0  0  0  0  0  0  0  0  0
   58.1240   31.5790   45.4390 N   0  0  0  0  0  0  0  0  0  0  0  0
   58.9320   31.2410   46.0090 H   0  0  0  0  0  0  0  0  0  0  0  0
   57.9830   32.9930   45.2220 C   0  0  0  0  0  0  0  0  0  0  0  0
   57.3080   33.4140   44.2450 O   0  0  0  0  0  0  0  0  0  0  0  0
   58.6660   33.9480   46.0480 N   0  0  0  0  0  0  0  0  0  0  0  0
   59.7620   33.7370   46.7150 C   0  0  0  0  0  0  0  0  0  0  0  0
   60.6570   32.7590   46.4200 N   0  0  0  0  0  0  0  0  0  0  0  0
   61.6780   32.7590   47.3150 C   0  0  0  0  0  0  0  0  0  0  0  0
   62.7600   31.8750   47.2790 C   0  0  0  0  0  0  0  0  0  0  0  0
   62.8341   31.1117   46.4904 H   0  0  0  0  0  0  0  0  0  0  0  0
   63.7520   31.9800   48.2700 C   0  0  0  0  0  0  0  0  0  0  0  0
   64.6149   31.2980   48.2528 H   0  0  0  0  0  0  0  0  0  0  0  0
   63.6490   32.9550   49.2880 C   0  0  0  0  0  0  0  0  0  0  0  0
   64.9110   33.0900   50.5080 S   0  0  0  0  0  0  0  0  0  0  0  0
   64.7530   34.3810   51.2620 O   0  0  0  0  0  0  0  0  0  0  0  0
   64.8040   31.9480   51.4810 O   0  0  0  0  0  0  0  0  0  0  0  0
   66.4590   33.0540   49.7440 N   0  0  0  0  0  0  0  0  0  0  0  0
   66.2890   33.0850   48.7130 H   0  0  0  0  0  0  0  0  0  0  0  0
   66.8780   32.1190   49.9510 H   0  0  0  0  0  0  0  0  0  0  0  0
   62.5520   33.8410   49.3090 C   0  0  0  0  0  0  0  0  0  0  0  0
   62.4612   34.6092   50.0911 H   0  0  0  0  0  0  0  0  0  0  0  0
   61.5870   33.7170   48.3130 C   0  0  0  0  0  0  0  0  0  0  0  0
   60.1860   34.6200   48.0940 S   0  0  0  0  0  0  0  0  0  0  0  0
   57.7950   28.3950   45.8900 C   0  0  0  0  0  0  0  0  0  0  0  0
   57.6701   28.8464   46.8853 H   0  0  0  0  0  0  0  0  0  0  0  0
   56.1770   23.2750   46.3330 S   0  0  0  0  0  0  0  0  0  0  0  0
   54.7210   23.4950   45.5160 C   0  0  0  0  0  0  0  0  0  0  0  0
   54.1484   22.7133   44.9954 H   0  0  0  0  0  0  0  0  0  0  0  0
  1  2  1  0
  2  3  1  0
  3  4  1  0
  4  5  2  3
  5  6  1  0
  6  7  2  0
  6  8  1  0
  8  9  2  0
  9 10  1  0
  9 11  1  0
 11 12  1  0
 11 13  2  0
 13 14  1  0
 13 15  1  0
 15 16  1  0
 16 17  2  0
 16 18  1  0
 18 19  1  0
 18 20  1  0
 20 21  2  0
 20 22  1  0
 22 23  2  0
 23 24  1  0
 24 25  1  0
 25 26  2  0
 26 27  1  0
 26 28  1  0
 28 29  1  0
 28 30  2  0
 30 31  1  0
 31 32  2  0
 31 33  2  0
 31 34  1  0
 34 35  1  0
 34 36  1  0
 30 37  1  0
 37 38  1  0
 37 39  2  0
 39 40  1  0
 15 41  2  0
 41 42  1  0
  4 43  1  0
 43 44  1  0
 44 45  1  0
 44  2  2  0
 41  8  1  0
 40 23  1  0
 39 25  1  0
M  CHG  2   3  -1  24  -1
M  END
>  <UniqueID>  (6) 
6

>  <SMILES>  (6) 
NS(=O)(=O)c1ccc2[n-]/c(=N\C(=O)NC(=O)c3cccc(C(=O)N=c4[n-]ccs4)c3)sc2c1

>  <Energy>  (6) 
122.82893402665212

>  <Genealogy>  (6) 
NS(=O)(=O)c1ccc2[n-]c(=NC(=O)NC(=O)c3cccc(C(=O)N=c4[n-]ccs4)c3)sc2c1 (protonated)
NS(=O)(=O)c1ccc2[n-]/c(=N\C(=O)NC(=O)c3cccc(C(=O)N=c4[n-]ccs4)c3)sc2c1 (cis-trans isomerization)
NS(=O)(=O)c1ccc2[n-]/c(=N\C(=O)NC(=O)c3cccc(C(=O)N=c4[n-]ccs4)c3)sc2c1 (3D coordinates assigned)
NS(=O)(=O)c1ccc2[n-]/c(=N\C(=O)NC(=O)c3cccc(C(=O)N=c4[n-]ccs4)c3)sc2c1 (optimized conformer: 122.82893402665212 kcal/mol)

>  <smiles>  (6) 
NS(=O)(=O)c1ccc2[nH]c(=NC(=O)NC(=O)c3cccc(C(=O)N=c4[nH]ccs4)c3)sc2c1

>  <score_type>  (6) 
oracle

>  <origin>  (6) 
adg

>  <m_score__min__energy>  (6) 
-12.640000000000001

>  <m_primary>  (6) 
energy

$$$$
6:0
     RDKit          3D

 36 38  0  0  0  0  0  0  0  0999 V2000
   60.3850   30.3790   46.9240 C   0  0  0  0  0  0  0  0  0  0  0  0
   59.2810   29.6710   46.5980 C   0  0  0  0  0  0  0  0  0  0  0  0
   59.2010   28.3020   46.9510 C   0  0  0  0  0  0  0  0  0  0  0  0
   60.1800   27.7350   47.5120 O   0  0  0  0  0  0  0  0  0  0  0  0
   58.0260   27.5800   46.6370 C   0  0  0  0  0  0  0  0  0  0  0  0
   57.8230   26.2790   46.9400 C   0  0  0  0  0  0  0  0  0  0  0  0
   57.1460   25.2840   46.0830 C   0  0  0  0  0  0  0  0  0  0  0  0
   57.8220   24.1050   45.7250 C   0  0  0  0  0  0  0  0  0  0  0  0
   57.1820   23.1290   44.9580 C   0  0  0  0  0  0  0  0  0  0  0  0
   55.8560   23.3110   44.5590 C   0  0  0  0  0  0  0  0  0  0  0  0
   55.2200   22.3380   43.7970 O   0  0  0  0  0  0  0  0  0  0  0  0
   55.1670   24.4700   44.9280 C   0  0  0  0  0  0  0  0  0  0  0  0
   55.8000   25.4580   45.6940 C   0  0  0  0  0  0  0  0  0  0  0  0
   55.0750   26.5990   46.0420 O   0  0  0  0  0  0  0  0  0  0  0  0
   57.0360   28.2190   45.9670 N   0  0  0  0  0  0  0  0  0  0  0  0
   57.1160   29.5240   45.6150 C   0  0  0  0  0  0  0  0  0  0  0  0
   56.1510   30.0460   44.9930 O   0  0  0  0  0  0  0  0  0  0  0  0
   58.2260   30.2600   45.9290 N   0  0  0  0  0  0  0  0  0  0  0  0
   58.2590   31.6450   45.5290 C   0  0  0  0  0  0  0  0  0  0  0  0
   58.1450   31.9910   44.1740 C   0  0  0  0  0  0  0  0  0  0  0  0
   58.1790   33.3340   43.7890 C   0  0  0  0  0  0  0  0  0  0  0  0
   58.3280   34.3370   44.7530 C   0  0  0  0  0  0  0  0  0  0  0  0
   58.4440   33.9970   46.1050 C   0  0  0  0  0  0  0  0  0  0  0  0
   58.5930   34.9940   47.0610 O   0  0  0  0  0  0  0  0  0  0  0  0
   58.4110   32.6540   46.4930 C   0  0  0  0  0  0  0  0  0  0  0  0
   60.4558   31.4429   46.6538 H   0  0  0  0  0  0  0  0  0  0  0  0
   61.2129   29.8913   47.4596 H   0  0  0  0  0  0  0  0  0  0  0  0
   58.1959   25.9286   47.9138 H   0  0  0  0  0  0  0  0  0  0  0  0
   58.8612   23.9500   46.0508 H   0  0  0  0  0  0  0  0  0  0  0  0
   57.7228   22.2161   44.6679 H   0  0  0  0  0  0  0  0  0  0  0  0
   54.1214   24.6073   44.6151 H   0  0  0  0  0  0  0  0  0  0  0  0
   55.1480   27.4700   45.5320 H   0  0  0  0  0  0  0  0  0  0  0  0
   58.0287   31.2043   43.4140 H   0  0  0  0  0  0  0  0  0  0  0  0
   58.0885   33.6030   42.7262 H   0  0  0  0  0  0  0  0  0  0  0  0
   58.3539   35.3935   44.4476 H   0  0  0  0  0  0  0  0  0  0  0  0
   58.5044   32.3876   47.5562 H   0  0  0  0  0  0  0  0  0  0  0  0
  1  2  2  0
  2  3  1  0
  3  4  2  0
  3  5  1  0
  5  6  2  3
  6  7  1  0
  7  8  2  0
  8  9  1  0
  9 10  2  0
 10 11  1  0
 10 12  1  0
 12 13  2  0
 13 14  1  0
  5 15  1  0
 15 16  1  0
 16 17  2  0
 16 18  1  0
 18 19  1  0
 19 20  2  0
 20 21  1  0
 21 22  2  0
 22 23  1  0
 23 24  1  0
 23 25  2  0
 18  2  1  0
 25 19  1  0
 13  7  1  0
  1 26  1  0
  1 27  1  0
  6 28  1  0
  8 29  1  0
  9 30  1  0
 12 31  1  0
 14 32  1  0
 20 33  1  0
 21 34  1  0
 22 35  1  0
 25 36  1  0
M  CHG  3  11  -1  15  -1  24  -1
M  END
>  <UniqueID>  (7) 
7

>  <SMILES>  (7) 
C=c1c(=O)c(=Cc2ccc([O-])cc2O)[n-]c(=O)n1-c1cccc([O-])c1

>  <Energy>  (7) 
68.58622742572747

>  <Genealogy>  (7) 
C=c1c(=O)c(=Cc2ccc([O-])cc2O)[n-]c(=O)n1-c1cccc([O-])c1 (protonated)
C=c1c(=O)c(=Cc2ccc([O-])cc2O)[n-]c(=O)n1-c1cccc([O-])c1 (3D coordinates assigned)
C=c1c(=O)c(=Cc2ccc([O-])cc2O)[n-]c(=O)n1-c1cccc([O-])c1 (optimized conformer: 68.58622742572747 kcal/mol)

>  <smiles>  (7) 
C=c1c(=O)c(=Cc2ccc(O)cc2O)[nH]c(=O)n1-c1cccc(O)c1

>  <score_type>  (7) 
oracle

>  <origin>  (7) 
adg

>  <m_score__min__energy>  (7) 
-13.449999999999999

>  <m_primary>  (7) 
energy

$$$$
7:0
     RDKit          3D

 34 36  0  0  0  0  0  0  0  0999 V2000
   55.5440   30.8600   44.4330 O   0  0  0  0  0  0  0  0  0  0  0  0
   56.2150   29.7960   44.4600 C   0  0  0  0  0  0  0  0  0  0  0  0
   57.5440   29.7540   43.7590 C   0  0  0  0  0  0  0  0  0  0  0  0
   58.5490   31.2130   44.2230 S   0  0  0  0  0  0  0  0  0  0  0  0
   58.5560   30.9320   46.0300 C   0  0  0  0  0  0  0  0  0  0  0  0
   59.5350   31.8430   46.7070 C   0  0  0  0  0  0  0  0  0  0  0  0
   59.0960   33.0280   47.3290 C   0  0  0  0  0  0  0  0  0  0  0  0
   60.0340   33.8370   47.9830 C   0  0  0  0  0  0  0  0  0  0  0  0
   59.6680   34.9020   48.5490 O   0  0  0  0  0  0  0  0  0  0  0  0
   61.3400   33.4500   47.9960 N   0  0  0  0  0  0  0  0  0  0  0  0
   62.3790   34.1060   48.5840 C   0  0  0  0  0  0  0  0  0  0  0  0
   63.6090   33.4660   48.4380 C   0  0  0  0  0  0  0  0  0  0  0  0
   63.3810   32.0430   47.5500 S   0  0  0  0  0  0  0  0  0  0  0  0
   61.7320   32.3090   47.3920 C   0  0  0  0  0  0  0  0  0  0  0  0
   60.8540   31.5010   46.7520 N   0  0  0  0  0  0  0  0  0  0  0  0
   55.7320   28.6960   45.2440 N   0  0  0  0  0  0  0  0  0  0  0  0
   56.4770   27.5400   45.6540 C   0  0  0  0  0  0  0  0  0  0  0  0
   57.8820   27.5350   45.6400 C   0  0  0  0  0  0  0  0  0  0  0  0
   58.5870   26.3850   46.0120 C   0  0  0  0  0  0  0  0  0  0  0  0
   57.8940   25.2280   46.3790 C   0  0  0  0  0  0  0  0  0  0  0  0
   58.5950   24.0860   46.7480 O   0  0  0  0  0  0  0  0  0  0  0  0
   56.4970   25.2170   46.3660 C   0  0  0  0  0  0  0  0  0  0  0  0
   55.7880   26.3660   45.9960 C   0  0  0  0  0  0  0  0  0  0  0  0
   54.3990   26.3400   45.9780 O   0  0  0  0  0  0  0  0  0  0  0  0
   58.0788   28.8373   44.0483 H   0  0  0  0  0  0  0  0  0  0  0  0
   57.3772   29.7637   42.6718 H   0  0  0  0  0  0  0  0  0  0  0  0
   57.5491   31.1246   46.4287 H   0  0  0  0  0  0  0  0  0  0  0  0
   58.8519   29.8904   46.2235 H   0  0  0  0  0  0  0  0  0  0  0  0
   58.0340   33.3134   47.3016 H   0  0  0  0  0  0  0  0  0  0  0  0
   62.2583   35.0558   49.1256 H   0  0  0  0  0  0  0  0  0  0  0  0
   64.5696   33.8265   48.8346 H   0  0  0  0  0  0  0  0  0  0  0  0
   58.4300   28.4388   45.3353 H   0  0  0  0  0  0  0  0  0  0  0  0
   59.6870   26.3915   46.0156 H   0  0  0  0  0  0  0  0  0  0  0  0
   55.9529   24.3033   46.6472 H   0  0  0  0  0  0  0  0  0  0  0  0
  1  2  2  0
  2  3  1  0
  3  4  1  0
  4  5  1  0
  5  6  1  0
  6  7  2  0
  7  8  1  0
  8  9  2  0
  8 10  1  0
 10 11  1  0
 11 12  2  0
 12 13  1  0
 13 14  1  0
 14 15  2  0
  2 16  1  0
 16 17  1  0
 17 18  2  0
 18 19  1  0
 19 20  2  0
 20 21  1  0
 20 22  1  0
 22 23  2  0
 23 24  1  0
 15  6  1  0
 23 17  1  0
 14 10  1  0
  3 25  1  0
  3 26  1  0
  5 27  1  0
  5 28  1  0
  7 29  1  0
 11 30  1  0
 12 31  1  0
 18 32  1  0
 19 33  1  0
 22 34  1  0
M  CHG  3  16  -1  21  -1  24  -1
M  END
>  <UniqueID>  (8) 
8

>  <SMILES>  (8) 
O=C(CSCc1cc(=O)n2ccsc2n1)[N-]c1ccc([O-])cc1[O-]

>  <Energy>  (8) 
73.24729628677558

>  <Genealogy>  (8) 
O=C(CSCc1cc(=O)n2ccsc2n1)[N-]c1ccc([O-])cc1[O-] (protonated)
O=C(CSCc1cc(=O)n2ccsc2n1)[N-]c1ccc([O-])cc1[O-] (3D coordinates assigned)
O=C(CSCc1cc(=O)n2ccsc2n1)[N-]c1ccc([O-])cc1[O-] (optimized conformer: 73.24729628677558 kcal/mol)

>  <smiles>  (8) 
O=C(CSCc1cc(=O)n2ccsc2n1)Nc1ccc(O)cc1O

>  <score_type>  (8) 
oracle

>  <origin>  (8) 
adg

>  <m_score__min__energy>  (8) 
-15.52

>  <m_primary>  (8) 
energy

$$$$
8:0
     RDKit          3D

 37 38  0  0  0  0  0  0  0  0999 V2000
   55.3280   23.8420   44.9510 C   0  0  0  0  0  0  0  0  0  0  0  0
   54.4060   24.8490   45.5500 C   0  0  0  0  0  0  0  0  0  0  0  0
   53.1720   24.6000   45.6240 O   0  0  0  0  0  0  0  0  0  0  0  0
   54.9140   26.0780   45.9800 O   0  0  0  0  0  0  0  0  0  0  0  0
   56.2700   26.2620   46.3800 C   0  0  0  0  0  0  0  0  0  0  0  0
   56.8680   27.3750   45.6420 N   0  0  0  0  0  0  0  0  0  0  0  0
   58.1810   27.9050   45.9180 C   0  0  0  0  0  0  0  0  0  0  0  0
   58.8870   27.5390   47.0810 C   0  0  0  0  0  0  0  0  0  0  0  0
   60.1630   28.0530   47.3290 C   0  0  0  0  0  0  0  0  0  0  0  0
   60.7520   28.9320   46.4200 C   0  0  0  0  0  0  0  0  0  0  0  0
   60.0670   29.3020   45.2630 C   0  0  0  0  0  0  0  0  0  0  0  0
   58.7830   28.8030   45.0110 C   0  0  0  0  0  0  0  0  0  0  0  0
   58.1140   29.2260   43.8640 O   0  0  0  0  0  0  0  0  0  0  0  0
   56.9050   30.4270   43.9520 S   0  0  0  0  0  0  0  0  0  0  0  0
   56.4220   30.7480   42.5650 O   0  0  0  0  0  0  0  0  0  0  0  0
   55.7420   29.9220   44.7580 O   0  0  0  0  0  0  0  0  0  0  0  0
   57.5600   31.8750   44.7110 C   0  0  0  0  0  0  0  0  0  0  0  0
   57.8170   31.8850   46.0900 C   0  0  0  0  0  0  0  0  0  0  0  0
   58.3740   33.0160   46.6920 C   0  0  0  0  0  0  0  0  0  0  0  0
   58.6830   34.1410   45.9200 C   0  0  0  0  0  0  0  0  0  0  0  0
   59.2250   35.2370   46.5050 F   0  0  0  0  0  0  0  0  0  0  0  0
   58.4360   34.1310   44.5440 C   0  0  0  0  0  0  0  0  0  0  0  0
   57.8790   33.0000   43.9380 C   0  0  0  0  0  0  0  0  0  0  0  0
   55.8361   23.2870   45.7534 H   0  0  0  0  0  0  0  0  0  0  0  0
   54.7516   23.1415   44.3288 H   0  0  0  0  0  0  0  0  0  0  0  0
   56.0765   24.3545   44.3288 H   0  0  0  0  0  0  0  0  0  0  0  0
   56.3045   26.4803   47.4576 H   0  0  0  0  0  0  0  0  0  0  0  0
   56.8355   25.3434   46.1646 H   0  0  0  0  0  0  0  0  0  0  0  0
   56.2910   27.8070   44.8870 H   0  0  0  0  0  0  0  0  0  0  0  0
   58.4302   26.8429   47.7999 H   0  0  0  0  0  0  0  0  0  0  0  0
   60.7035   27.7639   48.2424 H   0  0  0  0  0  0  0  0  0  0  0  0
   61.7572   29.3335   46.6159 H   0  0  0  0  0  0  0  0  0  0  0  0
   60.5377   29.9893   44.5446 H   0  0  0  0  0  0  0  0  0  0  0  0
   57.5794   31.0002   46.6988 H   0  0  0  0  0  0  0  0  0  0  0  0
   58.5698   33.0219   47.7744 H   0  0  0  0  0  0  0  0  0  0  0  0
   58.6803   35.0148   43.9363 H   0  0  0  0  0  0  0  0  0  0  0  0
   57.6912   32.9934   42.8542 H   0  0  0  0  0  0  0  0  0  0  0  0
  1  2  1  0
  2  3  2  0
  2  4  1  0
  4  5  1  0
  5  6  1  0
  6  7  1  0
  7  8  2  0
  8  9  1  0
  9 10  2  0
 10 11  1  0
 11 12  2  0
 12 13  1  0
 13 14  1  0
 14 15  2  0
 14 16  2  0
 14 17  1  0
 17 18  2  0
 18 19  1  0
 19 20  2  0
 20 21  1  0
 20 22  1  0
 22 23  2  0
 12  7  1  0
 23 17  1  0
  1 24  1  0
  1 25  1  0
  1 26  1  0
  5 27  1  0
  5 28  1  0
  6 29  1  0
  8 30  1  0
  9 31  1  0
 10 32  1  0
 11 33  1  0
 18 34  1  0
 19 35  1  0
 22 36  1  0
 23 37  1  0
M  END
>  <UniqueID>  (9) 
9

>  <SMILES>  (9) 
CC(=O)OCNc1ccccc1OS(=O)(=O)c1ccc(F)cc1

>  <Energy>  (9) 
38.446893867788354

>  <Genealogy>  (9) 
CC(=O)OCNc1ccccc1OS(=O)(=O)c1ccc(F)cc1 (3D coordinates assigned)
CC(=O)OCNc1ccccc1OS(=O)(=O)c1ccc(F)cc1 (optimized conformer: 38.446893867788354 kcal/mol)

>  <smiles>  (9) 
CC(=O)OCNc1ccccc1OS(=O)(=O)c1ccc(F)cc1

>  <score_type>  (9) 
oracle

>  <origin>  (9) 
adg

>  <m_score__min__energy>  (9) 
-7.7599999999999998

>  <m_primary>  (9) 
energy

$$$$
9:0
     RDKit          3D

 43 45  0  0  0  0  0  0  0  0999 V2000
   56.4830   19.0820   43.4350 H   0  0  0  0  0  0  0  0  0  0  0  0
   55.8990   19.9480   43.3990 N   0  0  0  0  0  0  0  0  0  0  0  0
   56.3710   21.0980   43.7610 C   0  0  0  0  0  0  0  0  0  0  0  0
   55.8860   22.2420   43.2050 N   0  0  0  0  0  0  0  0  0  0  0  0
   56.3580   23.4670   43.5610 C   0  0  0  0  0  0  0  0  0  0  0  0
   55.9439   24.3724   43.0932 H   0  0  0  0  0  0  0  0  0  0  0  0
   57.3690   23.5770   44.5210 C   0  0  0  0  0  0  0  0  0  0  0  0
   57.8780   24.8670   44.9020 C   0  0  0  0  0  0  0  0  0  0  0  0
   58.3110   25.9470   45.2180 C   0  0  0  0  0  0  0  0  0  0  0  0
   58.8220   27.2410   45.6060 C   0  0  0  0  0  0  0  0  0  0  0  0
   58.5350   28.4040   44.8610 C   0  0  0  0  0  0  0  0  0  0  0  0
   57.6950   28.3820   43.6070 C   0  0  0  0  0  0  0  0  0  0  0  0
   58.3407   28.1397   42.7500 H   0  0  0  0  0  0  0  0  0  0  0  0
   56.9081   27.6242   43.7355 H   0  0  0  0  0  0  0  0  0  0  0  0
   57.0180   29.7340   43.3520 C   0  0  0  0  0  0  0  0  0  0  0  0
   57.7824   30.5247   43.3733 H   0  0  0  0  0  0  0  0  0  0  0  0
   56.5232   29.6891   42.3706 H   0  0  0  0  0  0  0  0  0  0  0  0
   55.9770   30.0380   44.3850 C   0  0  0  0  0  0  0  0  0  0  0  0
   55.8690   31.2020   44.8530 O   0  0  0  0  0  0  0  0  0  0  0  0
   55.1530   29.0250   44.8630 O   0  0  0  0  0  0  0  0  0  0  0  0
   59.0630   29.5930   45.2590 N   0  0  0  0  0  0  0  0  0  0  0  0
   59.8510   29.6990   46.3630 C   0  0  0  0  0  0  0  0  0  0  0  0
   60.3900   30.9780   46.7550 N   0  0  0  0  0  0  0  0  0  0  0  0
   59.5250   32.1670   46.7470 C   0  0  0  0  0  0  0  0  0  0  0  0
   58.8418   32.1117   45.8867 H   0  0  0  0  0  0  0  0  0  0  0  0
   58.9518   32.1961   47.6854 H   0  0  0  0  0  0  0  0  0  0  0  0
   60.3670   33.4430   46.6410 C   0  0  0  0  0  0  0  0  0  0  0  0
   60.8180   33.4950   45.6390 H   0  0  0  0  0  0  0  0  0  0  0  0
   59.7138   34.3112   46.8131 H   0  0  0  0  0  0  0  0  0  0  0  0
   61.3940   33.4500   47.6120 O   0  0  0  0  0  0  0  0  0  0  0  0
   62.3110   32.4120   47.3340 C   0  0  0  0  0  0  0  0  0  0  0  0
   62.6673   32.5137   46.2983 H   0  0  0  0  0  0  0  0  0  0  0  0
   63.1525   32.4878   48.0384 H   0  0  0  0  0  0  0  0  0  0  0  0
   61.6510   31.0410   47.5050 C   0  0  0  0  0  0  0  0  0  0  0  0
   62.3328   30.2624   47.1322 H   0  0  0  0  0  0  0  0  0  0  0  0
   61.4377   30.8804   48.5721 H   0  0  0  0  0  0  0  0  0  0  0  0
   60.1250   28.5830   47.0920 N   0  0  0  0  0  0  0  0  0  0  0  0
   59.6350   27.3680   46.7420 C   0  0  0  0  0  0  0  0  0  0  0  0
   59.9190   26.3610   47.4450 O   0  0  0  0  0  0  0  0  0  0  0  0
   57.8820   22.4140   45.1060 C   0  0  0  0  0  0  0  0  0  0  0  0
   58.6766   22.4825   45.8636 H   0  0  0  0  0  0  0  0  0  0  0  0
   57.3830   21.1660   44.7260 C   0  0  0  0  0  0  0  0  0  0  0  0
   57.7809   20.2465   45.1801 H   0  0  0  0  0  0  0  0  0  0  0  0
  1  2  1  0
  2  3  2  0
  3  4  1  0
  4  5  1  0
  5  6  1  0
  5  7  2  0
  7  8  1  0
  8  9  3  0
  9 10  1  0
 10 11  2  0
 11 12  1  0
 12 13  1  0
 12 14  1  0
 12 15  1  0
 15 16  1  0
 15 17  1  0
 15 18  1  0
 18 19  2  0
 18 20  1  0
 11 21  1  0
 21 22  1  0
 22 23  1  0
 23 24  1  0
 24 25  1  0
 24 26  1  0
 24 27  1  0
 27 28  1  0
 27 29  1  0
 27 30  1  0
 30 31  1  0
 31 32  1  0
 31 33  1  0
 31 34  1  0
 34 35  1  0
 34 36  1  0
 22 37  2  0
 37 38  1  0
 38 39  2  0
  7 40  1  0
 40 41  1  0
 40 42  2  0
 42 43  1  0
 42  3  1  0
 38 10  1  0
 34 23  1  0
M  CHG  3   4  -1  20  -1  21  -1
M  END
>  <UniqueID>  (10) 
10

>  <SMILES>  (10) 
[H]/N=c1/ccc(C#Cc2c(CCC(=O)[O-])[n-]c(N3CCOCC3)nc2=O)c[n-]1

>  <Energy>  (10) 
41.48970612203768

>  <Genealogy>  (10) 
N=c1ccc(C#Cc2c(CCC(=O)[O-])[n-]c(N3CCOCC3)nc2=O)c[n-]1 (protonated)
[H]/N=c1/ccc(C#Cc2c(CCC(=O)[O-])[n-]c(N3CCOCC3)nc2=O)c[n-]1 (cis-trans isomerization)
[H]/N=c1/ccc(C#Cc2c(CCC(=O)[O-])[n-]c(N3CCOCC3)nc2=O)c[n-]1 (3D coordinates assigned)
[H]/N=c1/ccc(C#Cc2c(CCC(=O)[O-])[n-]c(N3CCOCC3)nc2=O)c[n-]1 (nonaromatic ring conformer: 41.48970612203768 kcal/mol)

>  <smiles>  (10) 
N=c1ccc(C#Cc2c(CCC(=O)O)[nH]c(N3CCOCC3)nc2=O)c[nH]1

>  <score_type>  (10) 
oracle

>  <origin>  (10) 
adg

>  <m_score__min__energy>  (10) 
-12.93

>  <m_primary>  (10) 
energy

$$$$
10:0
     RDKit          3D

 43 46  0  0  0  0  0  0  0  0999 V2000
   56.9610   28.0112   42.7701 H   0  0  0  0  0  0  0  0  0  0  0  0
   57.0260   28.9230   43.3820 C   0  0  0  0  0  0  0  0  0  0  0  0
   56.7310   30.4930   42.8480 S   0  0  0  0  0  0  0  0  0  0  0  0
   57.0540   31.1710   44.3440 C   0  0  0  0  0  0  0  0  0  0  0  0
   56.9930   32.4460   44.5910 N   0  0  0  0  0  0  0  0  0  0  0  0
   57.4390   33.0940   45.7950 C   0  0  0  0  0  0  0  0  0  0  0  0
   56.6480   33.8740   46.3880 O   0  0  0  0  0  0  0  0  0  0  0  0
   58.8040   32.9100   46.3310 C   0  0  0  0  0  0  0  0  0  0  0  0
   59.7680   33.9060   46.5120 C   0  0  0  0  0  0  0  0  0  0  0  0
   59.6530   35.3700   46.2320 C   0  0  0  0  0  0  0  0  0  0  0  0
   59.6096   35.9227   47.1821 H   0  0  0  0  0  0  0  0  0  0  0  0
   60.5278   35.7026   45.6540 H   0  0  0  0  0  0  0  0  0  0  0  0
   58.7370   35.5619   45.6540 H   0  0  0  0  0  0  0  0  0  0  0  0
   60.8170   33.2390   47.1130 C   0  0  0  0  0  0  0  0  0  0  0  0
   61.9860   33.7490   47.5680 N   0  0  0  0  0  0  0  0  0  0  0  0
   62.8780   32.9150   48.1790 C   0  0  0  0  0  0  0  0  0  0  0  0
   64.1640   33.4670   48.7070 C   0  0  0  0  0  0  0  0  0  0  0  0
   64.1428   33.4579   49.8068 H   0  0  0  0  0  0  0  0  0  0  0  0
   65.0017   32.8492   48.3513 H   0  0  0  0  0  0  0  0  0  0  0  0
   64.2932   34.4998   48.3513 H   0  0  0  0  0  0  0  0  0  0  0  0
   62.5670   31.5480   48.3560 C   0  0  0  0  0  0  0  0  0  0  0  0
   63.2742   30.8756   48.8637 H   0  0  0  0  0  0  0  0  0  0  0  0
   61.3390   31.0600   47.8730 C   0  0  0  0  0  0  0  0  0  0  0  0
   60.9410   29.6260   48.0710 C   0  0  0  0  0  0  0  0  0  0  0  0
   60.8804   29.4076   49.1474 H   0  0  0  0  0  0  0  0  0  0  0  0
   59.9601   29.4501   47.6053 H   0  0  0  0  0  0  0  0  0  0  0  0
   61.6909   28.9697   47.6053 H   0  0  0  0  0  0  0  0  0  0  0  0
   60.5090   31.9440   47.2580 N   0  0  0  0  0  0  0  0  0  0  0  0
   59.2950   31.7260   46.7770 N   0  0  0  0  0  0  0  0  0  0  0  0
   58.8060   30.8040   46.7660 H   0  0  0  0  0  0  0  0  0  0  0  0
   57.3690   30.2330   45.2640 N   0  0  0  0  0  0  0  0  0  0  0  0
   57.3680   28.9780   44.7380 C   0  0  0  0  0  0  0  0  0  0  0  0
   57.7500   27.8020   45.5630 C   0  0  0  0  0  0  0  0  0  0  0  0
   59.0780   27.6000   45.9900 C   0  0  0  0  0  0  0  0  0  0  0  0
   59.8596   28.3194   45.7043 H   0  0  0  0  0  0  0  0  0  0  0  0
   59.4080   26.4900   46.7750 C   0  0  0  0  0  0  0  0  0  0  0  0
   60.4469   26.3408   47.1042 H   0  0  0  0  0  0  0  0  0  0  0  0
   58.4230   25.5710   47.1420 C   0  0  0  0  0  0  0  0  0  0  0  0
   58.6858   24.7013   47.7621 H   0  0  0  0  0  0  0  0  0  0  0  0
   57.1050   25.7560   46.7220 C   0  0  0  0  0  0  0  0  0  0  0  0
   56.3292   25.0319   47.0116 H   0  0  0  0  0  0  0  0  0  0  0  0
   56.7700   26.8600   45.9340 C   0  0  0  0  0  0  0  0  0  0  0  0
   55.7307   26.9952   45.5999 H   0  0  0  0  0  0  0  0  0  0  0  0
  1  2  1  0
  2  3  1  0
  3  4  1  0
  4  5  2  0
  5  6  1  0
  6  7  2  0
  6  8  1  0
  8  9  1  0
  9 10  1  0
 10 11  1  0
 10 12  1  0
 10 13  1  0
  9 14  2  0
 14 15  1  0
 15 16  2  0
 16 17  1  0
 17 18  1  0
 17 19  1  0
 17 20  1  0
 16 21  1  0
 21 22  1  0
 21 23  2  0
 23 24  1  0
 24 25  1  0
 24 26  1  0
 24 27  1  0
 23 28  1  0
 28 29  1  0
 29 30  1  0
  4 31  1  0
 31 32  1  0
 32 33  1  0
 33 34  2  0
 34 35  1  0
 34 36  1  0
 36 37  1  0
 36 38  2  0
 38 39  1  0
 38 40  1  0
 40 41  1  0
 40 42  2  0
 42 43  1  0
 32  2  2  0
 42 33  1  0
 29  8  2  0
 28 14  1  0
M  CHG  2  29   1  31  -1
M  END
>  <UniqueID>  (11) 
11

>  <SMILES>  (11) 
Cc1cc(C)n2[nH+]c(C(=O)/N=c3\[n-]c(-c4ccccc4)cs3)c(C)c2n1

>  <Energy>  (11) 
118.92560959671728

>  <Genealogy>  (11) 
Cc1cc(C)n2[nH+]c(C(=O)N=c3[n-]c(-c4ccccc4)cs3)c(C)c2n1 (protonated)
Cc1cc(C)n2[nH+]c(C(=O)/N=c3\[n-]c(-c4ccccc4)cs3)c(C)c2n1 (cis-trans isomerization)
Cc1cc(C)n2[nH+]c(C(=O)/N=c3\[n-]c(-c4ccccc4)cs3)c(C)c2n1 (3D coordinates assigned)
Cc1cc(C)n2[nH+]c(C(=O)/N=c3\[n-]c(-c4ccccc4)cs3)c(C)c2n1 (optimized conformer: 118.92560959671728 kcal/mol)

>  <smiles>  (11) 
Cc1cc(C)n2nc(C(=O)N=c3[nH]c(-c4ccccc4)cs3)c(C)c2n1

>  <score_type>  (11) 
oracle

>  <origin>  (11) 
adg

>  <m_score__min__energy>  (11) 
-8.6500000000000004

>  <m_primary>  (11) 
energy

$$$$
11:0
     RDKit          3D

 28 29  0  0  0  0  0  0  0  0999 V2000
   54.9689   28.4035   53.2703 H   0  0  0  0  0  0  0  0  0  0  0  0
   54.5100   29.2110   52.6810 C   0  0  0  0  0  0  0  0  0  0  0  0
   55.3960   30.3130   52.2390 C   0  0  0  0  0  0  0  0  0  0  0  0
   55.0000   31.5070   52.2740 O   0  0  0  0  0  0  0  0  0  0  0  0
   56.7780   30.0550   51.9570 N   0  0  0  0  0  0  0  0  0  0  0  0
   57.6120   30.7520   51.2340 C   0  0  0  0  0  0  0  0  0  0  0  0
   58.1440   30.1530   50.1320 N   0  0  0  0  0  0  0  0  0  0  0  0
   59.0130   30.7860   49.3010 C   0  0  0  0  0  0  0  0  0  0  0  0
   59.4122   30.2610   48.4206 H   0  0  0  0  0  0  0  0  0  0  0  0
   59.3990   32.0980   49.5620 C   0  0  0  0  0  0  0  0  0  0  0  0
   60.0881   32.6214   48.8829 H   0  0  0  0  0  0  0  0  0  0  0  0
   58.9010   32.7400   50.6950 C   0  0  0  0  0  0  0  0  0  0  0  0
   59.2023   33.7748   50.9150 H   0  0  0  0  0  0  0  0  0  0  0  0
   58.0200   32.0740   51.5530 C   0  0  0  0  0  0  0  0  0  0  0  0
   57.6180   32.7200   52.7150 O   0  0  0  0  0  0  0  0  0  0  0  0
   53.1960   29.1120   52.4250 C   0  0  0  0  0  0  0  0  0  0  0  0
   52.6553   28.2725   52.8864 H   0  0  0  0  0  0  0  0  0  0  0  0
   52.4140   30.0350   51.5760 C   0  0  0  0  0  0  0  0  0  0  0  0
   52.0690   31.3240   52.0210 C   0  0  0  0  0  0  0  0  0  0  0  0
   52.3495   31.6463   53.0346 H   0  0  0  0  0  0  0  0  0  0  0  0
   51.3710   32.1980   51.1810 C   0  0  0  0  0  0  0  0  0  0  0  0
   51.0220   33.4630   51.6380 O   0  0  0  0  0  0  0  0  0  0  0  0
   51.0310   31.8000   49.8820 C   0  0  0  0  0  0  0  0  0  0  0  0
   50.3350   32.6680   49.0480 O   0  0  0  0  0  0  0  0  0  0  0  0
   51.4000   30.5290   49.4230 C   0  0  0  0  0  0  0  0  0  0  0  0
   51.0750   30.1330   48.1310 O   0  0  0  0  0  0  0  0  0  0  0  0
   52.0970   29.6560   50.2630 C   0  0  0  0  0  0  0  0  0  0  0  0
   52.3989   28.6654   49.8922 H   0  0  0  0  0  0  0  0  0  0  0  0
  1  2  1  0
  2  3  1  0
  3  4  2  0
  3  5  1  0
  5  6  2  3
  6  7  1  0
  7  8  1  0
  8  9  1  0
  8 10  2  0
 10 11  1  0
 10 12  1  0
 12 13  1  0
 12 14  2  0
 14 15  1  0
  2 16  2  0
 16 17  1  0
 16 18  1  0
 18 19  2  0
 19 20  1  0
 19 21  1  0
 21 22  1  0
 21 23  2  0
 23 24  1  0
 23 25  1  0
 25 26  1  0
 25 27  2  0
 27 28  1  0
 14  6  1  0
 27 18  1  0
M  CHG  5   7  -1  15  -1  22  -1  24  -1  26  -1
M  END
>  <UniqueID>  (12) 
12

>  <SMILES>  (12) 
O=C(/C=C\c1cc([O-])c([O-])c([O-])c1)N=c1[n-]cccc1[O-]

>  <Energy>  (12) 
50.41635910013732

>  <Genealogy>  (12) 
O=C(C=Cc1cc([O-])c([O-])c([O-])c1)N=c1[n-]cccc1[O-] (protonated)
O=C(/C=C\c1cc([O-])c([O-])c([O-])c1)N=c1[n-]cccc1[O-] (cis-trans isomerization)
O=C(/C=C\c1cc([O-])c([O-])c([O-])c1)N=c1[n-]cccc1[O-] (3D coordinates assigned)
O=C(/C=C\c1cc([O-])c([O-])c([O-])c1)N=c1[n-]cccc1[O-] (optimized conformer: 50.41635910013732 kcal/mol)

>  <smiles>  (12) 
O=C(C=Cc1cc(O)c(O)c(O)c1)N=c1[nH]cccc1O

>  <score_type>  (12) 
oracle

>  <origin>  (12) 
adg

>  <m_score__min__energy>  (12) 
-19.07

>  <m_primary>  (12) 
energy

$$$$
12:0
     RDKit          3D

 54 57  0  0  0  0  0  0  0  0999 V2000
   58.5460   30.3800   43.7650 N   0  0  0  0  0  0  0  0  0  0  0  0
   57.5210   31.7210   44.1380 S   0  0  0  0  0  0  0  0  0  0  0  0
   56.1530   31.2230   44.5070 O   0  0  0  0  0  0  0  0  0  0  0  0
   57.4130   32.6100   42.9300 O   0  0  0  0  0  0  0  0  0  0  0  0
   58.2010   32.6130   45.4950 C   0  0  0  0  0  0  0  0  0  0  0  0
   58.6900   33.9160   45.3250 C   0  0  0  0  0  0  0  0  0  0  0  0
   59.2220   34.6120   46.4130 C   0  0  0  0  0  0  0  0  0  0  0  0
   59.2600   34.0170   47.6770 C   0  0  0  0  0  0  0  0  0  0  0  0
   58.7520   32.7220   47.8620 C   0  0  0  0  0  0  0  0  0  0  0  0
   58.7490   32.1200   49.2070 C   0  0  0  0  0  0  0  0  0  0  0  0
   57.7610   32.3190   49.9620 O   0  0  0  0  0  0  0  0  0  0  0  0
   59.8160   31.2780   49.6670 N   0  0  0  0  0  0  0  0  0  0  0  0
   60.8770   30.7120   48.8350 C   0  0  0  0  0  0  0  0  0  0  0  0
   60.3070   29.7930   47.7850 C   0  0  0  0  0  0  0  0  0  0  0  0
   59.1640   29.0290   48.0640 C   0  0  0  0  0  0  0  0  0  0  0  0
   58.6030   28.2130   47.0790 C   0  0  0  0  0  0  0  0  0  0  0  0
   59.1830   28.1360   45.8010 C   0  0  0  0  0  0  0  0  0  0  0  0
   58.5760   27.2880   44.7470 C   0  0  0  0  0  0  0  0  0  0  0  0
   58.2830   27.7960   43.6310 O   0  0  0  0  0  0  0  0  0  0  0  0
   58.2850   25.9020   44.9850 N   0  0  0  0  0  0  0  0  0  0  0  0
   59.2950   25.0790   45.6770 C   0  0  0  0  0  0  0  0  0  0  0  0
   58.8160   23.6380   45.9320 C   0  0  0  0  0  0  0  0  0  0  0  0
   58.0480   23.1070   44.7520 C   0  0  0  0  0  0  0  0  0  0  0  0
   58.1910   21.7780   44.3250 C   0  0  0  0  0  0  0  0  0  0  0  0
   57.4280   21.3020   43.2530 C   0  0  0  0  0  0  0  0  0  0  0  0
   56.5110   22.1430   42.6160 C   0  0  0  0  0  0  0  0  0  0  0  0
   56.3530   23.4640   43.0470 C   0  0  0  0  0  0  0  0  0  0  0  0
   57.1250   23.9500   44.1130 C   0  0  0  0  0  0  0  0  0  0  0  0
   56.9690   25.3560   44.6170 C   0  0  0  0  0  0  0  0  0  0  0  0
   60.3300   28.9000   45.5250 C   0  0  0  0  0  0  0  0  0  0  0  0
   60.8930   29.7120   46.5120 C   0  0  0  0  0  0  0  0  0  0  0  0
   58.2410   32.0160   46.7620 C   0  0  0  0  0  0  0  0  0  0  0  0
   58.1160   29.8850   42.9520 H   0  0  0  0  0  0  0  0  0  0  0  0
   58.5010   29.7250   44.5760 H   0  0  0  0  0  0  0  0  0  0  0  0
   58.6546   34.3909   44.3334 H   0  0  0  0  0  0  0  0  0  0  0  0
   59.6121   35.6311   46.2745 H   0  0  0  0  0  0  0  0  0  0  0  0
   59.6891   34.5650   48.5288 H   0  0  0  0  0  0  0  0  0  0  0  0
   61.4213   31.5299   48.3402 H   0  0  0  0  0  0  0  0  0  0  0  0
   61.5552   30.1319   49.4781 H   0  0  0  0  0  0  0  0  0  0  0  0
   58.7072   29.0728   49.0637 H   0  0  0  0  0  0  0  0  0  0  0  0
   57.7005   27.6262   47.3051 H   0  0  0  0  0  0  0  0  0  0  0  0
   60.2036   25.0432   45.0580 H   0  0  0  0  0  0  0  0  0  0  0  0
   59.4868   25.5429   46.6558 H   0  0  0  0  0  0  0  0  0  0  0  0
   59.6903   22.9949   46.1108 H   0  0  0  0  0  0  0  0  0  0  0  0
   58.1524   23.6399   46.8093 H   0  0  0  0  0  0  0  0  0  0  0  0
   58.9027   21.1105   44.8329 H   0  0  0  0  0  0  0  0  0  0  0  0
   57.5501   20.2637   42.9108 H   0  0  0  0  0  0  0  0  0  0  0  0
   55.9125   21.7650   41.7740 H   0  0  0  0  0  0  0  0  0  0  0  0
   55.6241   24.1215   42.5507 H   0  0  0  0  0  0  0  0  0  0  0  0
   56.5225   25.9793   43.8283 H   0  0  0  0  0  0  0  0  0  0  0  0
   56.3158   25.3544   45.5021 H   0  0  0  0  0  0  0  0  0  0  0  0
   60.7871   28.8581   44.5254 H   0  0  0  0  0  0  0  0  0  0  0  0
   61.8013   30.2917   46.2905 H   0  0  0  0  0  0  0  0  0  0  0  0
   57.8701   30.9890   46.8951 H   0  0  0  0  0  0  0  0  0  0  0  0
  1  2  1  0
  2  3  2  0
  2  4  2  0
  2  5  1  0
  5  6  2  0
  6  7  1  0
  7  8  2  0
  8  9  1  0
  9 10  1  0
 10 11  2  0
 10 12  1  0
 12 13  1  0
 13 14  1  0
 14 15  2  0
 15 16  1  0
 16 17  2  0
 17 18  1  0
 18 19  2  0
 18 20  1  0
 20 21  1  0
 21 22  1  0
 22 23  1  0
 23 24  2  0
 24 25  1  0
 25 26  2  0
 26 27  1  0
 27 28  2  0
 28 29  1  0
 17 30  1  0
 30 31  2  0
  9 32  2  0
 32  5  1  0
 31 14  1  0
 29 20  1  0
 28 23  1  0
  1 33  1  0
  1 34  1  0
  6 35  1  0
  7 36  1  0
  8 37  1  0
 13 38  1  0
 13 39  1  0
 15 40  1  0
 16 41  1  0
 21 42  1  0
 21 43  1  0
 22 44  1  0
 22 45  1  0
 24 46  1  0
 25 47  1  0
 26 48  1  0
 27 49  1  0
 29 50  1  0
 29 51  1  0
 30 52  1  0
 31 53  1  0
 32 54  1  0
M  CHG  1  12  -1
M  END
>  <UniqueID>  (13) 
13

>  <SMILES>  (13) 
NS(=O)(=O)c1cccc(C(=O)[N-]Cc2ccc(C(=O)N3CCc4ccccc4C3)cc2)c1

>  <Energy>  (13) 
65.66720712175773

>  <Genealogy>  (13) 
NS(=O)(=O)c1cccc(C(=O)[N-]Cc2ccc(C(=O)N3CCc4ccccc4C3)cc2)c1 (protonated)
NS(=O)(=O)c1cccc(C(=O)[N-]Cc2ccc(C(=O)N3CCc4ccccc4C3)cc2)c1 (3D coordinates assigned)
NS(=O)(=O)c1cccc(C(=O)[N-]Cc2ccc(C(=O)N3CCc4ccccc4C3)cc2)c1 (nonaromatic ring conformer: 65.66720712175773 kcal/mol)

>  <smiles>  (13) 
NS(=O)(=O)c1cccc(C(=O)NCc2ccc(C(=O)N3CCc4ccccc4C3)cc2)c1

>  <score_type>  (13) 
oracle

>  <origin>  (13) 
adg

>  <m_score__min__energy>  (13) 
-13.27

>  <m_primary>  (13) 
energy

$$$$
13:0
     RDKit          3D

 73 76  0  0  0  0  0  0  0  0999 V2000
   58.8420   34.5460   46.5350 C   0  0  0  0  0  0  0  0  0  0  0  0
   60.0030   34.2080   47.4210 C   0  0  0  0  0  0  0  0  0  0  0  0
   61.2830   34.0500   46.8760 C   0  0  0  0  0  0  0  0  0  0  0  0
   62.3780   33.7300   47.6940 C   0  0  0  0  0  0  0  0  0  0  0  0
   63.7340   33.5540   47.0680 C   0  0  0  0  0  0  0  0  0  0  0  0
   62.1750   33.5300   49.0800 C   0  0  0  0  0  0  0  0  0  0  0  0
   63.2860   33.2430   49.9480 N   0  0  0  0  0  0  0  0  0  0  0  0
   63.6010   34.1380   51.0640 C   0  0  0  0  0  0  0  0  0  0  0  0
   65.1210   34.2160   51.2500 C   0  0  0  0  0  0  0  0  0  0  0  0
   65.7160   32.8760   51.3440 N   0  0  0  0  0  0  0  0  0  0  0  0
   65.4450   32.0950   50.1260 C   0  0  0  0  0  0  0  0  0  0  0  0
   63.9390   31.9350   49.8870 C   0  0  0  0  0  0  0  0  0  0  0  0
   60.8740   33.6350   49.6210 C   0  0  0  0  0  0  0  0  0  0  0  0
   60.6250   33.4370   51.0910 C   0  0  0  0  0  0  0  0  0  0  0  0
   61.1370   32.1670   51.4820 O   0  0  0  0  0  0  0  0  0  0  0  0
   60.9290   30.9740   50.7770 C   0  0  0  0  0  0  0  0  0  0  0  0
   61.6840   29.8130   51.0160 C   0  0  0  0  0  0  0  0  0  0  0  0
   61.4160   28.6420   50.3050 C   0  0  0  0  0  0  0  0  0  0  0  0
   60.3920   28.6050   49.3500 C   0  0  0  0  0  0  0  0  0  0  0  0
   60.1450   27.3760   48.6500 N   0  0  0  0  0  0  0  0  0  0  0  0
   60.5230   27.1770   47.2780 C   0  0  0  0  0  0  0  0  0  0  0  0
   61.0100   28.1250   46.6090 O   0  0  0  0  0  0  0  0  0  0  0  0
   60.3670   25.8280   46.6400 C   0  0  0  0  0  0  0  0  0  0  0  0
   58.9350   25.5840   46.2490 C   0  0  0  0  0  0  0  0  0  0  0  0
   58.4720   24.2750   46.0320 C   0  0  0  0  0  0  0  0  0  0  0  0
   57.1380   24.0510   45.6800 C   0  0  0  0  0  0  0  0  0  0  0  0
   56.2560   25.1290   45.5500 C   0  0  0  0  0  0  0  0  0  0  0  0
   56.7060   26.4410   45.7620 C   0  0  0  0  0  0  0  0  0  0  0  0
   55.8300   27.5600   45.6180 N   0  0  0  0  0  0  0  0  0  0  0  0
   56.2320   28.9710   44.6890 S   0  0  0  0  0  0  0  0  0  0  0  0
   57.3990   28.6100   43.3870 C   0  0  0  0  0  0  0  0  0  0  0  0
   54.9730   29.5580   44.1040 O   0  0  0  0  0  0  0  0  0  0  0  0
   56.8510   29.9810   45.6150 O   0  0  0  0  0  0  0  0  0  0  0  0
   58.0520   26.6640   46.0830 C   0  0  0  0  0  0  0  0  0  0  0  0
   59.6640   29.7860   49.0640 C   0  0  0  0  0  0  0  0  0  0  0  0
   58.6040   29.8340   47.9960 C   0  0  0  0  0  0  0  0  0  0  0  0
   59.9240   30.9500   49.8050 C   0  0  0  0  0  0  0  0  0  0  0  0
   59.8020   33.9850   48.7890 C   0  0  0  0  0  0  0  0  0  0  0  0
   57.9695   34.8000   47.1548 H   0  0  0  0  0  0  0  0  0  0  0  0
   59.1033   35.4054   45.9000 H   0  0  0  0  0  0  0  0  0  0  0  0
   58.6012   33.6807   45.9000 H   0  0  0  0  0  0  0  0  0  0  0  0
   61.4324   34.1782   45.7938 H   0  0  0  0  0  0  0  0  0  0  0  0
   64.4927   33.4555   47.8583 H   0  0  0  0  0  0  0  0  0  0  0  0
   63.7350   32.6482   46.4439 H   0  0  0  0  0  0  0  0  0  0  0  0
   63.9662   34.4295   46.4439 H   0  0  0  0  0  0  0  0  0  0  0  0
   63.2067   35.1423   50.8499 H   0  0  0  0  0  0  0  0  0  0  0  0
   63.1406   33.7492   51.9842 H   0  0  0  0  0  0  0  0  0  0  0  0
   65.5606   34.7440   50.3909 H   0  0  0  0  0  0  0  0  0  0  0  0
   65.3294   34.7552   52.1859 H   0  0  0  0  0  0  0  0  0  0  0  0
   65.3040   32.3780   52.1690 H   0  0  0  0  0  0  0  0  0  0  0  0
   65.8913   32.6112   49.2633 H   0  0  0  0  0  0  0  0  0  0  0  0
   65.8836   31.0941   50.2520 H   0  0  0  0  0  0  0  0  0  0  0  0
   63.7719   31.4893   48.8953 H   0  0  0  0  0  0  0  0  0  0  0  0
   63.5154   31.2809   50.6634 H   0  0  0  0  0  0  0  0  0  0  0  0
   61.1316   34.2300   51.6608 H   0  0  0  0  0  0  0  0  0  0  0  0
   59.5447   33.4801   51.2936 H   0  0  0  0  0  0  0  0  0  0  0  0
   62.4887   29.8271   51.7658 H   0  0  0  0  0  0  0  0  0  0  0  0
   62.0149   27.7394   50.4966 H   0  0  0  0  0  0  0  0  0  0  0  0
   59.5050   26.6790   49.0970 H   0  0  0  0  0  0  0  0  0  0  0  0
   60.9995   25.7788   45.7414 H   0  0  0  0  0  0  0  0  0  0  0  0
   60.6705   25.0582   47.3647 H   0  0  0  0  0  0  0  0  0  0  0  0
   59.1612   23.4245   46.1395 H   0  0  0  0  0  0  0  0  0  0  0  0
   56.7811   23.0253   45.5049 H   0  0  0  0  0  0  0  0  0  0  0  0
   55.2051   24.9473   45.2804 H   0  0  0  0  0  0  0  0  0  0  0  0
   58.3612   28.3123   43.8292 H   0  0  0  0  0  0  0  0  0  0  0  0
   57.0120   27.7896   42.7648 H   0  0  0  0  0  0  0  0  0  0  0  0
   57.5428   29.5056   42.7648 H   0  0  0  0  0  0  0  0  0  0  0  0
   58.4201   27.6933   46.2060 H   0  0  0  0  0  0  0  0  0  0  0  0
   57.6109   29.8790   48.4668 H   0  0  0  0  0  0  0  0  0  0  0  0
   58.7539   30.7263   47.3704 H   0  0  0  0  0  0  0  0  0  0  0  0
   58.6727   28.9318   47.3704 H   0  0  0  0  0  0  0  0  0  0  0  0
   59.3286   31.8559   49.6182 H   0  0  0  0  0  0  0  0  0  0  0  0
   58.7927   34.0856   49.2146 H   0  0  0  0  0  0  0  0  0  0  0  0
  1  2  1  0
  2  3  2  0
  3  4  1  0
  4  5  1  0
  4  6  2  0
  6  7  1  0
  7  8  1  0
  8  9  1  0
  9 10  1  0
 10 11  1  0
 11 12  1  0
  6 13  1  0
 13 14  1  0
 14 15  1  0
 15 16  1  0
 16 17  2  0
 17 18  1  0
 18 19  2  0
 19 20  1  0
 20 21  1  0
 21 22  2  0
 21 23  1  0
 23 24  1  0
 24 25  2  0
 25 26  1  0
 26 27  2  0
 27 28  1  0
 28 29  1  0
 29 30  1  0
 30 31  1  0
 30 32  2  0
 30 33  2  0
 28 34  2  0
 19 35  1  0
 35 36  1  0
 35 37  2  0
 13 38  2  0
 38  2  1  0
 12  7  1  0
 37 16  1  0
 34 24  1  0
  1 39  1  0
  1 40  1  0
  1 41  1  0
  3 42  1  0
  5 43  1  0
  5 44  1  0
  5 45  1  0
  8 46  1  0
  8 47  1  0
  9 48  1  0
  9 49  1  0
 10 50  1  0
 11 51  1  0
 11 52  1  0
 12 53  1  0
 12 54  1  0
 14 55  1  0
 14 56  1  0
 17 57  1  0
 18 58  1  0
 20 59  1  0
 23 60  1  0
 23 61  1  0
 25 62  1  0
 26 63  1  0
 27 64  1  0
 31 65  1  0
 31 66  1  0
 31 67  1  0
 34 68  1  0
 36 69  1  0
 36 70  1  0
 36 71  1  0
 37 72  1  0
 38 73  1  0
M  CHG  1  29  -1
M  END
>  <UniqueID>  (14) 
14

>  <SMILES>  (14) 
Cc1cc(C)c(N2CCNCC2)c(COc2ccc(NC(=O)Cc3cccc([N-]S(C)(=O)=O)c3)c(C)c2)c1

>  <Energy>  (14) 
84.80351383797364

>  <Genealogy>  (14) 
Cc1cc(C)c(N2CCNCC2)c(COc2ccc(NC(=O)Cc3cccc([N-]S(C)(=O)=O)c3)c(C)c2)c1 (protonated)
Cc1cc(C)c(N2CCNCC2)c(COc2ccc(NC(=O)Cc3cccc([N-]S(C)(=O)=O)c3)c(C)c2)c1 (3D coordinates assigned)
Cc1cc(C)c(N2CCNCC2)c(COc2ccc(NC(=O)Cc3cccc([N-]S(C)(=O)=O)c3)c(C)c2)c1 (nonaromatic ring conformer: 84.80351383797364 kcal/mol)

>  <smiles>  (14) 
Cc1cc(C)c(N2CCNCC2)c(COc2ccc(NC(=O)Cc3cccc(NS(C)(=O)=O)c3)c(C)c2)c1

>  <score_type>  (14) 
oracle

>  <origin>  (14) 
adg

>  <m_score__min__energy>  (14) 
-11.06

>  <m_primary>  (14) 
energy

$$$$
14:0
     RDKit          3D

 38 39  0  0  0  0  0  0  0  0999 V2000
   57.0036   33.4863   52.4581 H   0  0  0  0  0  0  0  0  0  0  0  0
   57.0290   32.4000   52.2870 C   0  0  0  0  0  0  0  0  0  0  0  0
   56.6950   31.5850   53.2400 N   0  0  0  0  0  0  0  0  0  0  0  0
   57.6310   30.9180   54.0950 C   0  0  0  0  0  0  0  0  0  0  0  0
   58.4630   31.5870   54.7680 O   0  0  0  0  0  0  0  0  0  0  0  0
   57.6160   29.4410   54.2010 C   0  0  0  0  0  0  0  0  0  0  0  0
   56.6330   28.6080   53.6550 C   0  0  0  0  0  0  0  0  0  0  0  0
   55.5380   29.0010   52.8230 N   0  0  0  0  0  0  0  0  0  0  0  0
   54.1670   28.6520   53.0570 C   0  0  0  0  0  0  0  0  0  0  0  0
   53.7820   27.4850   52.7800 O   0  0  0  0  0  0  0  0  0  0  0  0
   53.1660   29.6450   53.5890 C   0  0  0  0  0  0  0  0  0  0  0  0
   52.3846   29.1042   54.1431 H   0  0  0  0  0  0  0  0  0  0  0  0
   53.6935   30.3502   54.2481 H   0  0  0  0  0  0  0  0  0  0  0  0
   52.5240   30.4270   52.4730 C   0  0  0  0  0  0  0  0  0  0  0  0
   52.5860   29.9620   51.1490 C   0  0  0  0  0  0  0  0  0  0  0  0
   53.1178   29.0264   50.9215 H   0  0  0  0  0  0  0  0  0  0  0  0
   51.9740   30.6840   50.1180 C   0  0  0  0  0  0  0  0  0  0  0  0
   52.0204   30.3109   49.0842 H   0  0  0  0  0  0  0  0  0  0  0  0
   51.3040   31.8780   50.3990 C   0  0  0  0  0  0  0  0  0  0  0  0
   50.6980   32.5890   49.3710 O   0  0  0  0  0  0  0  0  0  0  0  0
   51.2490   32.3550   51.7150 C   0  0  0  0  0  0  0  0  0  0  0  0
   50.5870   33.5430   51.9990 O   0  0  0  0  0  0  0  0  0  0  0  0
   51.8590   31.6350   52.7470 C   0  0  0  0  0  0  0  0  0  0  0  0
   51.8183   32.0157   53.7782 H   0  0  0  0  0  0  0  0  0  0  0  0
   56.9280   27.0180   54.1050 S   0  0  0  0  0  0  0  0  0  0  0  0
   58.3280   27.3360   54.9770 C   0  0  0  0  0  0  0  0  0  0  0  0
   58.9492   26.5891   55.4929 H   0  0  0  0  0  0  0  0  0  0  0  0
   58.5670   28.7040   54.9350 C   0  0  0  0  0  0  0  0  0  0  0  0
   59.6510   29.2810   55.5850 O   0  0  0  0  0  0  0  0  0  0  0  0
   57.4500   31.8600   50.9510 C   0  0  0  0  0  0  0  0  0  0  0  0
   58.4807   32.1843   50.7447 H   0  0  0  0  0  0  0  0  0  0  0  0
   56.7542   32.2463   50.1916 H   0  0  0  0  0  0  0  0  0  0  0  0
   57.3970   30.3910   50.9140 N   0  0  0  0  0  0  0  0  0  0  0  0
   56.8650   30.0410   51.7460 H   0  0  0  0  0  0  0  0  0  0  0  0
   58.7380   29.8020   50.9340 C   0  0  0  0  0  0  0  0  0  0  0  0
   59.0607   29.6603   51.9760 H   0  0  0  0  0  0  0  0  0  0  0  0
   58.7190   28.8294   50.4205 H   0  0  0  0  0  0  0  0  0  0  0  0
   59.4413   30.4740   50.4205 H   0  0  0  0  0  0  0  0  0  0  0  0
  1  2  1  0
  2  3  2  0
  3  4  1  0
  4  5  2  0
  4  6  1  0
  6  7  2  0
  7  8  1  0
  8  9  1  0
  9 10  2  0
  9 11  1  0
 11 12  1  0
 11 13  1  0
 11 14  1  0
 14 15  2  0
 15 16  1  0
 15 17  1  0
 17 18  1  0
 17 19  2  0
 19 20  1  0
 19 21  1  0
 21 22  1  0
 21 23  2  0
 23 24  1  0
  7 25  1  0
 25 26  1  0
 26 27  1  0
 26 28  2  0
 28 29  1  0
  2 30  1  0
 30 31  1  0
 30 32  1  0
 30 33  1  0
 33 34  1  0
 33 35  1  0
 35 36  1  0
 35 37  1  0
 35 38  1  0
 28  6  1  0
 23 14  1  0
M  CHG  4   8  -1  20  -1  22  -1  29  -1
M  END
>  <UniqueID>  (15) 
15

>  <SMILES>  (15) 
CNC/C=N/C(=O)c1c([O-])csc1[N-]C(=O)Cc1ccc([O-])c([O-])c1

>  <Energy>  (15) 
68.33884677591377

>  <Genealogy>  (15) 
CNCC=NC(=O)c1c([O-])csc1[N-]C(=O)Cc1ccc([O-])c([O-])c1 (protonated)
CNC/C=N/C(=O)c1c([O-])csc1[N-]C(=O)Cc1ccc([O-])c([O-])c1 (cis-trans isomerization)
CNC/C=N/C(=O)c1c([O-])csc1[N-]C(=O)Cc1ccc([O-])c([O-])c1 (3D coordinates assigned)
CNC/C=N/C(=O)c1c([O-])csc1[N-]C(=O)Cc1ccc([O-])c([O-])c1 (optimized conformer: 68.33884677591377 kcal/mol)

>  <smiles>  (15) 
CNCC=NC(=O)c1c(O)csc1NC(=O)Cc1ccc(O)c(O)c1

>  <score_type>  (15) 
oracle

>  <origin>  (15) 
adg

>  <m_score__min__energy>  (15) 
-15.529999999999999

>  <m_primary>  (15) 
energy

$$$$
15:0
     RDKit          3D

 30 32  0  0  0  0  0  0  0  0999 V2000
   56.2110   27.4120   45.1080 H   0  0  0  0  0  0  0  0  0  0  0  0
   55.5870   26.8160   45.6380 O   0  0  0  0  0  0  0  0  0  0  0  0
   56.0310   25.6250   46.2060 C   0  0  0  0  0  0  0  0  0  0  0  0
   57.2510   25.4060   46.8360 C   0  0  0  0  0  0  0  0  0  0  0  0
   58.3270   26.3900   47.0170 C   0  0  0  0  0  0  0  0  0  0  0  0
   59.1773   26.1551   47.6741 H   0  0  0  0  0  0  0  0  0  0  0  0
   58.2810   27.5340   46.4070 N   0  0  0  0  0  0  0  0  0  0  0  0
   58.6510   27.7320   45.0380 C   0  0  0  0  0  0  0  0  0  0  0  0
   58.1460   27.0270   44.1210 O   0  0  0  0  0  0  0  0  0  0  0  0
   59.6110   28.8230   44.6890 C   0  0  0  0  0  0  0  0  0  0  0  0
   60.5391   28.6852   45.2631 H   0  0  0  0  0  0  0  0  0  0  0  0
   59.8209   28.7790   43.6101 H   0  0  0  0  0  0  0  0  0  0  0  0
   58.8980   30.4570   45.0840 S   0  0  0  0  0  0  0  0  0  0  0  0
   57.2350   30.0260   44.5730 C   0  0  0  0  0  0  0  0  0  0  0  0
   56.3060   29.5270   45.4050 N   0  0  0  0  0  0  0  0  0  0  0  0
   55.2200   29.3340   44.6770 N   0  0  0  0  0  0  0  0  0  0  0  0
   55.5160   29.7230   43.4240 C   0  0  0  0  0  0  0  0  0  0  0  0
   54.8058   29.6803   42.5850 H   0  0  0  0  0  0  0  0  0  0  0  0
   56.7820   30.1710   43.3140 N   0  0  0  0  0  0  0  0  0  0  0  0
   57.3510   24.1250   47.2700 N   0  0  0  0  0  0  0  0  0  0  0  0
   56.1860   23.5500   46.9080 C   0  0  0  0  0  0  0  0  0  0  0  0
   55.8070   22.2270   47.1330 C   0  0  0  0  0  0  0  0  0  0  0  0
   56.4761   21.5263   47.6539 H   0  0  0  0  0  0  0  0  0  0  0  0
   54.5420   21.8160   46.6730 C   0  0  0  0  0  0  0  0  0  0  0  0
   54.2128   20.7790   46.8349 H   0  0  0  0  0  0  0  0  0  0  0  0
   53.6920   22.7250   46.0050 C   0  0  0  0  0  0  0  0  0  0  0  0
   52.7055   22.3914   45.6507 H   0  0  0  0  0  0  0  0  0  0  0  0
   54.0990   24.0540   45.7900 C   0  0  0  0  0  0  0  0  0  0  0  0
   53.4472   24.7718   45.2705 H   0  0  0  0  0  0  0  0  0  0  0  0
   55.3570   24.4300   46.2580 C   0  0  0  0  0  0  0  0  0  0  0  0
  1  2  1  0
  2  3  1  0
  3  4  2  0
  4  5  1  0
  5  6  1  0
  5  7  2  0
  7  8  1  0
  8  9  2  0
  8 10  1  0
 10 11  1  0
 10 12  1  0
 10 13  1  0
 13 14  1  0
 14 15  2  0
 15 16  1  0
 16 17  1  0
 17 18  1  0
 17 19  2  0
  4 20  1  0
 20 21  1  0
 21 22  2  0
 22 23  1  0
 22 24  1  0
 24 25  1  0
 24 26  2  0
 26 27  1  0
 26 28  1  0
 28 29  1  0
 28 30  2  0
 30  3  1  0
 19 14  1  0
 30 21  1  0
M  CHG  2  16  -1  20  -1
M  END
>  <UniqueID>  (16) 
16

>  <SMILES>  (16) 
O=C(CSc1nc[n-]n1)/N=C/c1[n-]c2ccccc2c1O

>  <Energy>  (16) 
90.27839121368395

>  <Genealogy>  (16) 
O=C(CSc1nc[n-]n1)N=Cc1[n-]c2ccccc2c1O (protonated)
O=C(CSc1nc[n-]n1)/N=C/c1[n-]c2ccccc2c1O (cis-trans isomerization)
O=C(CSc1nc[n-]n1)/N=C/c1[n-]c2ccccc2c1O (3D coordinates assigned)
O=C(CSc1nc[n-]n1)/N=C/c1[n-]c2ccccc2c1O (optimized conformer: 90.27839121368395 kcal/mol)

>  <smiles>  (16) 
O=C(CSc1nc[nH]n1)N=Cc1[nH]c2ccccc2c1O

>  <score_type>  (16) 
oracle

>  <origin>  (16) 
adg

>  <m_score__min__energy>  (16) 
-10.279999999999999

>  <m_primary>  (16) 
energy

$$$$
16:0
     RDKit          3D

 59 63  0  0  0  0  0  0  0  0999 V2000
   55.3320   26.7190   46.3630 O   0  0  0  0  0  0  0  0  0  0  0  0
   56.3360   26.7100   45.6110 C   0  0  0  0  0  0  0  0  0  0  0  0
   57.1710   25.5430   45.4050 C   0  0  0  0  0  0  0  0  0  0  0  0
   56.8350   24.7310   44.3180 C   0  0  0  0  0  0  0  0  0  0  0  0
   57.5570   23.6030   44.0340 C   0  0  0  0  0  0  0  0  0  0  0  0
   58.6170   23.3010   44.8570 C   0  0  0  0  0  0  0  0  0  0  0  0
   58.9480   24.1020   45.9300 C   0  0  0  0  0  0  0  0  0  0  0  0
   58.2250   25.2620   46.2400 C   0  0  0  0  0  0  0  0  0  0  0  0
   58.6480   26.0480   47.3900 C   0  0  0  0  0  0  0  0  0  0  0  0
   59.3490   27.3020   47.1120 C   0  0  0  0  0  0  0  0  0  0  0  0
   60.0880   27.3630   45.9200 C   0  0  0  0  0  0  0  0  0  0  0  0
   60.7710   28.5290   45.5760 C   0  0  0  0  0  0  0  0  0  0  0  0
   60.7440   29.6500   46.3890 C   0  0  0  0  0  0  0  0  0  0  0  0
   60.0160   29.5770   47.5560 C   0  0  0  0  0  0  0  0  0  0  0  0
   59.3510   28.4250   47.8780 C   0  0  0  0  0  0  0  0  0  0  0  0
   56.6680   27.9230   44.9270 N   0  0  0  0  0  0  0  0  0  0  0  0
   57.8170   27.9800   44.0370 C   0  0  0  0  0  0  0  0  0  0  0  0
   58.2790   29.4040   43.8260 C   0  0  0  0  0  0  0  0  0  0  0  0
   57.2120   30.2370   43.4110 N   0  0  0  0  0  0  0  0  0  0  0  0
   57.4930   31.6040   43.1800 C   0  0  0  0  0  0  0  0  0  0  0  0
   58.0050   32.3770   44.3120 C   0  0  0  0  0  0  0  0  0  0  0  0
   58.4840   33.6240   44.0780 N   0  0  0  0  0  0  0  0  0  0  0  0
   58.9680   34.3610   45.1100 C   0  0  0  0  0  0  0  0  0  0  0  0
   59.4210   35.5360   44.8960 O   0  0  0  0  0  0  0  0  0  0  0  0
   58.9870   33.8710   46.4080 C   0  0  0  0  0  0  0  0  0  0  0  0
   59.4900   34.6620   47.4150 C   0  0  0  0  0  0  0  0  0  0  0  0
   59.4880   34.1250   48.7030 C   0  0  0  0  0  0  0  0  0  0  0  0
   59.0040   32.8550   48.9640 C   0  0  0  0  0  0  0  0  0  0  0  0
   58.5080   32.1050   47.9030 C   0  0  0  0  0  0  0  0  0  0  0  0
   58.4940   32.6040   46.6150 C   0  0  0  0  0  0  0  0  0  0  0  0
   58.0090   31.8680   45.5730 N   0  0  0  0  0  0  0  0  0  0  0  0
   55.8940   29.8640   43.7490 C   0  0  0  0  0  0  0  0  0  0  0  0
   55.9000   29.1390   45.0770 C   0  0  0  0  0  0  0  0  0  0  0  0
   55.9791   25.0019   43.6823 H   0  0  0  0  0  0  0  0  0  0  0  0
   57.2988   22.9614   43.1786 H   0  0  0  0  0  0  0  0  0  0  0  0
   59.2145   22.3999   44.6547 H   0  0  0  0  0  0  0  0  0  0  0  0
   59.8045   23.8222   46.5609 H   0  0  0  0  0  0  0  0  0  0  0  0
   57.7488   26.2923   47.9747 H   0  0  0  0  0  0  0  0  0  0  0  0
   59.3824   25.4184   47.9137 H   0  0  0  0  0  0  0  0  0  0  0  0
   60.1284   26.4878   45.2549 H   0  0  0  0  0  0  0  0  0  0  0  0
   61.3442   28.5592   44.6377 H   0  0  0  0  0  0  0  0  0  0  0  0
   61.2852   30.5668   46.1123 H   0  0  0  0  0  0  0  0  0  0  0  0
   59.9691   30.4453   48.2297 H   0  0  0  0  0  0  0  0  0  0  0  0
   58.7807   28.4066   48.8184 H   0  0  0  0  0  0  0  0  0  0  0  0
   58.6401   27.3978   44.4769 H   0  0  0  0  0  0  0  0  0  0  0  0
   57.5223   27.5629   43.0628 H   0  0  0  0  0  0  0  0  0  0  0  0
   58.6887   29.7911   44.7706 H   0  0  0  0  0  0  0  0  0  0  0  0
   59.0464   29.4059   43.0379 H   0  0  0  0  0  0  0  0  0  0  0  0
   58.2415   31.6577   42.3757 H   0  0  0  0  0  0  0  0  0  0  0  0
   56.5208   32.0590   42.9395 H   0  0  0  0  0  0  0  0  0  0  0  0
   59.8763   35.6721   47.2139 H   0  0  0  0  0  0  0  0  0  0  0  0
   59.8822   34.7281   49.5342 H   0  0  0  0  0  0  0  0  0  0  0  0
   59.0114   32.4485   49.9861 H   0  0  0  0  0  0  0  0  0  0  0  0
   58.1189   31.0939   48.0934 H   0  0  0  0  0  0  0  0  0  0  0  0
   57.6390   30.9060   45.7480 H   0  0  0  0  0  0  0  0  0  0  0  0
   55.2664   30.7641   43.8255 H   0  0  0  0  0  0  0  0  0  0  0  0
   55.4897   29.2002   42.9706 H   0  0  0  0  0  0  0  0  0  0  0  0
   56.3594   29.7765   45.8467 H   0  0  0  0  0  0  0  0  0  0  0  0
   54.8707   28.9017   45.3839 H   0  0  0  0  0  0  0  0  0  0  0  0
  1  2  2  0
  2  3  1  0
  3  4  2  0
  4  5  1  0
  5  6  2  0
  6  7  1  0
  7  8  2  0
  8  9  1  0
  9 10  1  0
 10 11  2  0
 11 12  1  0
 12 13  2  0
 13 14  1  0
 14 15  2  0
  2 16  1  0
 16 17  1  0
 17 18  1  0
 18 19  1  0
 19 20  1  0
 20 21  1  0
 21 22  2  0
 22 23  1  0
 23 24  2  0
 23 25  1  0
 25 26  2  0
 26 27  1  0
 27 28  2  0
 28 29  1  0
 29 30  2  0
 30 31  1  0
 19 32  1  0
 32 33  1  0
  8  3  1  0
 15 10  1  0
 33 16  1  0
 31 21  1  0
 30 25  1  0
  4 34  1  0
  5 35  1  0
  6 36  1  0
  7 37  1  0
  9 38  1  0
  9 39  1  0
 11 40  1  0
 12 41  1  0
 13 42  1  0
 14 43  1  0
 15 44  1  0
 17 45  1  0
 17 46  1  0
 18 47  1  0
 18 48  1  0
 20 49  1  0
 20 50  1  0
 26 51  1  0
 27 52  1  0
 28 53  1  0
 29 54  1  0
 31 55  1  0
 32 56  1  0
 32 57  1  0
 33 58  1  0
 33 59  1  0
M  END
>  <smiles>  (17) 
O=C(c1ccccc1Cc1ccccc1)N1CCN(Cc2nc(=O)c3ccccc3[nH]2)CC1

>  <score_type>  (17) 
oracle

>  <origin>  (17) 
adg

>  <m_score__min__energy>  (17) 
-10.65

>  <m_primary>  (17) 
energy

$$$$
17:0
     RDKit          3D

 52 55  0  0  0  0  0  0  0  0999 V2000
   56.2600   29.3840   44.6800 C   0  0  0  0  0  0  0  0  0  0  0  0
   57.5430   29.1170   44.9700 C   0  0  0  0  0  0  0  0  0  0  0  0
   58.1570   27.8560   45.0510 C   0  0  0  0  0  0  0  0  0  0  0  0
   57.7080   26.6270   44.7300 C   0  0  0  0  0  0  0  0  0  0  0  0
   57.1200   25.6560   45.6650 C   0  0  0  0  0  0  0  0  0  0  0  0
   57.7860   24.6250   46.2160 N   0  0  0  0  0  0  0  0  0  0  0  0
   56.8930   24.1120   47.0900 C   0  0  0  0  0  0  0  0  0  0  0  0
   57.1430   23.1060   47.8030 O   0  0  0  0  0  0  0  0  0  0  0  0
   55.7130   24.7680   47.1470 N   0  0  0  0  0  0  0  0  0  0  0  0
   55.8820   25.7500   46.2480 C   0  0  0  0  0  0  0  0  0  0  0  0
   54.9220   26.7160   45.9680 O   0  0  0  0  0  0  0  0  0  0  0  0
   59.4230   28.0740   45.5740 C   0  0  0  0  0  0  0  0  0  0  0  0
   59.5610   29.4350   45.7380 C   0  0  0  0  0  0  0  0  0  0  0  0
   60.7930   30.1020   46.2710 C   0  0  0  0  0  0  0  0  0  0  0  0
   58.4160   30.0660   45.3940 N   0  0  0  0  0  0  0  0  0  0  0  0
   58.1830   31.4840   45.4510 C   0  0  0  0  0  0  0  0  0  0  0  0
   57.8080   32.1460   44.2720 C   0  0  0  0  0  0  0  0  0  0  0  0
   57.5980   33.5240   44.2680 C   0  0  0  0  0  0  0  0  0  0  0  0
   57.7680   34.2570   45.4400 C   0  0  0  0  0  0  0  0  0  0  0  0
   58.1350   33.6150   46.6240 C   0  0  0  0  0  0  0  0  0  0  0  0
   58.3230   32.2180   46.6590 C   0  0  0  0  0  0  0  0  0  0  0  0
   58.7070   31.5860   47.9070 N   0  0  0  0  0  0  0  0  0  0  0  0
   59.7150   32.3380   48.6310 C   0  0  0  0  0  0  0  0  0  0  0  0
   60.8810   32.7500   47.9530 C   0  0  0  0  0  0  0  0  0  0  0  0
   61.9110   33.4180   48.6260 C   0  0  0  0  0  0  0  0  0  0  0  0
   63.1570   33.8190   47.8940 C   0  0  0  0  0  0  0  0  0  0  0  0
   61.7510   33.7480   49.9750 C   0  0  0  0  0  0  0  0  0  0  0  0
   60.5820   33.4000   50.6500 C   0  0  0  0  0  0  0  0  0  0  0  0
   59.5470   32.7150   49.9920 C   0  0  0  0  0  0  0  0  0  0  0  0
   58.3090   32.3680   50.7750 C   0  0  0  0  0  0  0  0  0  0  0  0
   55.9082   30.4258   44.6499 H   0  0  0  0  0  0  0  0  0  0  0  0
   55.5603   28.5610   44.4724 H   0  0  0  0  0  0  0  0  0  0  0  0
   57.7883   26.3231   43.6759 H   0  0  0  0  0  0  0  0  0  0  0  0
   60.1739   27.3064   45.8125 H   0  0  0  0  0  0  0  0  0  0  0  0
   60.7701   30.0896   47.3707 H   0  0  0  0  0  0  0  0  0  0  0  0
   61.6841   29.5631   45.9167 H   0  0  0  0  0  0  0  0  0  0  0  0
   60.8289   31.1428   45.9167 H   0  0  0  0  0  0  0  0  0  0  0  0
   57.6786   31.5723   43.3424 H   0  0  0  0  0  0  0  0  0  0  0  0
   57.2982   34.0323   43.3397 H   0  0  0  0  0  0  0  0  0  0  0  0
   57.6125   35.3459   45.4326 H   0  0  0  0  0  0  0  0  0  0  0  0
   58.2792   34.2059   47.5405 H   0  0  0  0  0  0  0  0  0  0  0  0
   59.0770   30.6220   47.7460 H   0  0  0  0  0  0  0  0  0  0  0  0
   57.8430   31.4660   48.4830 H   0  0  0  0  0  0  0  0  0  0  0  0
   60.9829   32.5430   46.8775 H   0  0  0  0  0  0  0  0  0  0  0  0
   63.9435   34.0721   48.6202 H   0  0  0  0  0  0  0  0  0  0  0  0
   63.4959   32.9845   47.2625 H   0  0  0  0  0  0  0  0  0  0  0  0
   62.9456   34.6945   47.2625 H   0  0  0  0  0  0  0  0  0  0  0  0
   62.5510   34.2846   50.5061 H   0  0  0  0  0  0  0  0  0  0  0  0
   60.4685   33.6652   51.7115 H   0  0  0  0  0  0  0  0  0  0  0  0
   58.5269   32.4291   51.8515 H   0  0  0  0  0  0  0  0  0  0  0  0
   57.5053   33.0755   50.5228 H   0  0  0  0  0  0  0  0  0  0  0  0
   57.9901   31.3459   50.5228 H   0  0  0  0  0  0  0  0  0  0  0  0
  1  2  2  0
  2  3  1  0
  3  4  2  3
  4  5  1  0
  5  6  1  0
  6  7  1  0
  7  8  2  0
  7  9  1  0
  9 10  1  0
 10 11  1  0
  3 12  1  0
 12 13  2  0
 13 14  1  0
 13 15  1  0
 15 16  1  0
 16 17  2  0
 17 18  1  0
 18 19  2  0
 19 20  1  0
 20 21  2  0
 21 22  1  0
 22 23  1  0
 23 24  2  0
 24 25  1  0
 25 26  1  0
 25 27  2  0
 27 28  1  0
 28 29  2  0
 29 30  1  0
 15  2  1  0
 21 16  1  0
 29 23  1  0
 10  5  2  0
  1 31  1  0
  1 32  1  0
  4 33  1  0
 12 34  1  0
 14 35  1  0
 14 36  1  0
 14 37  1  0
 17 38  1  0
 18 39  1  0
 19 40  1  0
 20 41  1  0
 22 42  1  0
 22 43  1  0
 24 44  1  0
 26 45  1  0
 26 46  1  0
 26 47  1  0
 27 48  1  0
 28 49  1  0
 30 50  1  0
 30 51  1  0
 30 52  1  0
M  CHG  4   6  -1   9  -1  11  -1  22   1
M  END
>  <UniqueID>  (18) 
17

>  <SMILES>  (18) 
C=c1c(=Cc2[n-]c(=O)[n-]c2[O-])cc(C)n1-c1ccccc1[NH2+]c1cc(C)ccc1C

>  <Energy>  (18) 
130.85436730629849

>  <Genealogy>  (18) 
C=c1c(=Cc2[n-]c(=O)[n-]c2[O-])cc(C)n1-c1ccccc1[NH2+]c1cc(C)ccc1C (protonated)
C=c1c(=Cc2[n-]c(=O)[n-]c2[O-])cc(C)n1-c1ccccc1[NH2+]c1cc(C)ccc1C (3D coordinates assigned)
C=c1c(=Cc2[n-]c(=O)[n-]c2[O-])cc(C)n1-c1ccccc1[NH2+]c1cc(C)ccc1C (optimized conformer: 130.85436730629849 kcal/mol)

>  <smiles>  (18) 
C=c1c(=Cc2[nH]c(=O)[nH]c2O)cc(C)n1-c1ccccc1Nc1cc(C)ccc1C

>  <score_type>  (18) 
oracle

>  <origin>  (18) 
adg

>  <m_score__min__energy>  (18) 
-15.539999999999999

>  <m_primary>  (18) 
energy

$$$$
18:0
     RDKit          3D

 49 52  0  0  0  0  0  0  0  0999 V2000
   59.2770   37.0460   47.0670 H   0  0  0  0  0  0  0  0  0  0  0  0
   59.6630   36.5800   46.2090 N   0  0  0  0  0  0  0  0  0  0  0  0
   59.5860   35.3010   46.0450 C   0  0  0  0  0  0  0  0  0  0  0  0
   60.1430   34.4690   46.9630 N   0  0  0  0  0  0  0  0  0  0  0  0
   60.0620   33.1190   46.8220 C   0  0  0  0  0  0  0  0  0  0  0  0
   59.4140   32.5690   45.7130 C   0  0  0  0  0  0  0  0  0  0  0  0
   58.8570   33.4400   44.7730 C   0  0  0  0  0  0  0  0  0  0  0  0
   58.3456   33.0397   43.8852 H   0  0  0  0  0  0  0  0  0  0  0  0
   58.9490   34.7840   44.9590 N   0  0  0  0  0  0  0  0  0  0  0  0
   59.3610   31.0750   45.5500 C   0  0  0  0  0  0  0  0  0  0  0  0
   58.4888   30.8105   44.9342 H   0  0  0  0  0  0  0  0  0  0  0  0
   60.2896   30.7411   45.0639 H   0  0  0  0  0  0  0  0  0  0  0  0
   59.2480   30.4080   46.8580 N   0  0  0  0  0  0  0  0  0  0  0  0
   58.6900   29.0830   46.9120 C   0  0  0  0  0  0  0  0  0  0  0  0
   59.3870   28.0640   47.5800 C   0  0  0  0  0  0  0  0  0  0  0  0
   60.3264   28.2978   48.1024 H   0  0  0  0  0  0  0  0  0  0  0  0
   58.8980   26.7560   47.5870 C   0  0  0  0  0  0  0  0  0  0  0  0
   59.4473   25.9712   48.1277 H   0  0  0  0  0  0  0  0  0  0  0  0
   57.7100   26.4340   46.9090 C   0  0  0  0  0  0  0  0  0  0  0  0
   57.1830   25.0500   46.9300 C   0  0  0  0  0  0  0  0  0  0  0  0
   57.3230   24.3460   47.9660 O   0  0  0  0  0  0  0  0  0  0  0  0
   56.5040   24.5250   45.7740 N   0  0  0  0  0  0  0  0  0  0  0  0
   55.2910   24.0510   45.7190 C   0  0  0  0  0  0  0  0  0  0  0  0
   55.0540   22.7060   45.7400 N   0  0  0  0  0  0  0  0  0  0  0  0
   53.7950   22.1930   45.6820 C   0  0  0  0  0  0  0  0  0  0  0  0
   53.6438   21.1036   45.7006 H   0  0  0  0  0  0  0  0  0  0  0  0
   52.6960   23.0480   45.5990 C   0  0  0  0  0  0  0  0  0  0  0  0
   51.6761   22.6390   45.5483 H   0  0  0  0  0  0  0  0  0  0  0  0
   52.9040   24.4270   45.5810 C   0  0  0  0  0  0  0  0  0  0  0  0
   52.0464   25.1131   45.5189 H   0  0  0  0  0  0  0  0  0  0  0  0
   54.2040   24.9350   45.6420 C   0  0  0  0  0  0  0  0  0  0  0  0
   54.4100   26.3100   45.6280 O   0  0  0  0  0  0  0  0  0  0  0  0
   57.0190   27.4510   46.2310 C   0  0  0  0  0  0  0  0  0  0  0  0
   56.0992   27.2067   45.6793 H   0  0  0  0  0  0  0  0  0  0  0  0
   57.4840   28.7720   46.2470 C   0  0  0  0  0  0  0  0  0  0  0  0
   56.7140   29.7800   45.5840 N   0  0  0  0  0  0  0  0  0  0  0  0
   56.3850   29.7240   43.8850 S   0  0  0  0  0  0  0  0  0  0  0  0
   54.9350   29.3960   43.6540 O   0  0  0  0  0  0  0  0  0  0  0  0
   56.7100   31.0460   43.2510 O   0  0  0  0  0  0  0  0  0  0  0  0
   57.3800   28.4470   43.1470 C   0  0  0  0  0  0  0  0  0  0  0  0
   57.8495   27.8445   43.9386 H   0  0  0  0  0  0  0  0  0  0  0  0
   56.7444   27.8015   42.5231 H   0  0  0  0  0  0  0  0  0  0  0  0
   58.1613   28.9055   42.5231 H   0  0  0  0  0  0  0  0  0  0  0  0
   59.8320   30.9810   48.0900 C   0  0  0  0  0  0  0  0  0  0  0  0
   59.0132   31.2806   48.7606 H   0  0  0  0  0  0  0  0  0  0  0  0
   60.4699   30.2085   48.5443 H   0  0  0  0  0  0  0  0  0  0  0  0
   60.7150   32.2070   47.8160 C   0  0  0  0  0  0  0  0  0  0  0  0
   60.8754   32.7539   48.7568 H   0  0  0  0  0  0  0  0  0  0  0  0
   61.6762   31.8655   47.4043 H   0  0  0  0  0  0  0  0  0  0  0  0
  1  2  1  0
  2  3  2  3
  3  4  1  0
  4  5  2  0
  5  6  1  0
  6  7  2  0
  7  8  1  0
  7  9  1  0
  6 10  1  0
 10 11  1  0
 10 12  1  0
 10 13  1  0
 13 14  1  0
 14 15  2  0
 15 16  1  0
 15 17  1  0
 17 18  1  0
 17 19  2  0
 19 20  1  0
 20 21  2  0
 20 22  1  0
 22 23  2  0
 23 24  1  0
 24 25  1  0
 25 26  1  0
 25 27  2  0
 27 28  1  0
 27 29  1  0
 29 30  1  0
 29 31  2  0
 31 32  1  0
 19 33  1  0
 33 34  1  0
 33 35  2  0
 35 36  1  0
 36 37  1  0
 37 38  2  0
 37 39  2  0
 37 40  1  0
 40 41  1  0
 40 42  1  0
 40 43  1  0
 13 44  1  0
 44 45  1  0
 44 46  1  0
 44 47  1  0
 47 48  1  0
 47 49  1  0
  9  3  1  0
 35 14  1  0
 47  5  1  0
 31 23  1  0
M  CHG  4   9  -1  24  -1  32  -1  36  -1
M  END
>  <UniqueID>  (19) 
18

>  <SMILES>  (19) 
CS(=O)(=O)[N-]c1cc(C(=O)/N=c2\[n-]cccc2[O-])ccc1N1CCc2nc(=N)[n-]cc2C1

>  <Energy>  (19) 
69.5210670538569

>  <Genealogy>  (19) 
CS(=O)(=O)[N-]c1cc(C(=O)N=c2[n-]cccc2[O-])ccc1N1CCc2nc(=N)[n-]cc2C1 (protonated)
CS(=O)(=O)[N-]c1cc(C(=O)/N=c2\[n-]cccc2[O-])ccc1N1CCc2nc(=N)[n-]cc2C1 (cis-trans isomerization)
CS(=O)(=O)[N-]c1cc(C(=O)/N=c2\[n-]cccc2[O-])ccc1N1CCc2nc(=N)[n-]cc2C1 (3D coordinates assigned)
CS(=O)(=O)[N-]c1cc(C(=O)/N=c2\[n-]cccc2[O-])ccc1N1CCc2nc(=N)[n-]cc2C1 (nonaromatic ring conformer: 69.5210670538569 kcal/mol)

>  <smiles>  (19) 
CS(=O)(=O)Nc1cc(C(=O)N=c2[nH]cccc2O)ccc1N1CCc2nc(=N)[nH]cc2C1

>  <score_type>  (19) 
oracle

>  <origin>  (19) 
adg

>  <m_score__min__energy>  (19) 
-15.619999999999999

>  <m_primary>  (19) 
energy

$$$$
19:0
     RDKit          3D

 25 26  0  0  0  0  0  0  0  0999 V2000
   54.9510   29.7340   43.9820 N   0  0  0  0  0  0  0  0  0  0  0  0
   56.5750   30.3170   44.0640 S   0  0  0  0  0  0  0  0  0  0  0  0
   57.1090   30.5160   42.6720 O   0  0  0  0  0  0  0  0  0  0  0  0
   56.5960   31.6380   44.7810 O   0  0  0  0  0  0  0  0  0  0  0  0
   57.5760   29.1520   44.9230 C   0  0  0  0  0  0  0  0  0  0  0  0
   58.8750   29.4940   45.3210 C   0  0  0  0  0  0  0  0  0  0  0  0
   59.6620   28.5720   46.0150 C   0  0  0  0  0  0  0  0  0  0  0  0
   59.1550   27.3070   46.3220 C   0  0  0  0  0  0  0  0  0  0  0  0
   57.8510   26.9530   45.9380 C   0  0  0  0  0  0  0  0  0  0  0  0
   57.3090   25.6110   46.2660 C   0  0  0  0  0  0  0  0  0  0  0  0
   55.9270   25.4080   46.4230 C   0  0  0  0  0  0  0  0  0  0  0  0
   55.0310   26.4600   46.2530 O   0  0  0  0  0  0  0  0  0  0  0  0
   55.4540   24.1700   46.7260 N   0  0  0  0  0  0  0  0  0  0  0  0
   56.2920   23.1160   46.8790 C   0  0  0  0  0  0  0  0  0  0  0  0
   55.8300   21.9800   47.1590 O   0  0  0  0  0  0  0  0  0  0  0  0
   57.6300   23.2830   46.7310 N   0  0  0  0  0  0  0  0  0  0  0  0
   58.1570   24.4990   46.4310 C   0  0  0  0  0  0  0  0  0  0  0  0
   59.4060   24.6180   46.3200 O   0  0  0  0  0  0  0  0  0  0  0  0
   57.0650   27.8850   45.2380 C   0  0  0  0  0  0  0  0  0  0  0  0
   54.7730   29.2030   44.8640 H   0  0  0  0  0  0  0  0  0  0  0  0
   59.2761   30.4910   45.0864 H   0  0  0  0  0  0  0  0  0  0  0  0
   60.6835   28.8427   46.3205 H   0  0  0  0  0  0  0  0  0  0  0  0
   59.7801   26.5845   46.8672 H   0  0  0  0  0  0  0  0  0  0  0  0
   54.0360   26.3250   46.3860 H   0  0  0  0  0  0  0  0  0  0  0  0
   56.0417   27.6182   44.9352 H   0  0  0  0  0  0  0  0  0  0  0  0
  1  2  1  0
  2  3  2  0
  2  4  2  0
  2  5  1  0
  5  6  2  0
  6  7  1  0
  7  8  2  0
  8  9  1  0
  9 10  1  0
 10 11  2  0
 11 12  1  0
 11 13  1  0
 13 14  1  0
 14 15  2  0
 14 16  1  0
 16 17  1  0
 17 18  2  0
  9 19  2  0
 19  5  1  0
 17 10  1  0
  1 20  1  0
  6 21  1  0
  7 22  1  0
  8 23  1  0
 12 24  1  0
 19 25  1  0
M  CHG  3   1  -1  13  -1  16  -1
M  END
>  <UniqueID>  (20) 
19

>  <SMILES>  (20) 
[NH-]S(=O)(=O)c1cccc(-c2c(O)[n-]c(=O)[n-]c2=O)c1

>  <Energy>  (20) 
33.81943075281929

>  <Genealogy>  (20) 
[NH-]S(=O)(=O)c1cccc(-c2c(O)[n-]c(=O)[n-]c2=O)c1 (protonated)
[NH-]S(=O)(=O)c1cccc(-c2c(O)[n-]c(=O)[n-]c2=O)c1 (3D coordinates assigned)
[NH-]S(=O)(=O)c1cccc(-c2c(O)[n-]c(=O)[n-]c2=O)c1 (optimized conformer: 33.81943075281929 kcal/mol)

>  <smiles>  (20) 
NS(=O)(=O)c1cccc(-c2c(O)[nH]c(=O)[nH]c2=O)c1

>  <score_type>  (20) 
oracle

>  <origin>  (20) 
adg

>  <m_score__min__energy>  (20) 
-13.98

>  <m_primary>  (20) 
energy

$$$$
20:0
     RDKit          3D

 56 59  0  0  0  0  0  0  0  0999 V2000
   54.8997   28.9794   44.8035 H   0  0  0  0  0  0  0  0  0  0  0  0
   55.9440   29.3220   44.8480 C   0  0  0  0  0  0  0  0  0  0  0  0
   56.2520   30.6000   44.5030 N   0  0  0  0  0  0  0  0  0  0  0  0
   57.5230   31.0830   44.5330 C   0  0  0  0  0  0  0  0  0  0  0  0
   57.7140   32.3280   44.1900 N   0  0  0  0  0  0  0  0  0  0  0  0
   57.6600   33.5140   45.0020 C   0  0  0  0  0  0  0  0  0  0  0  0
   56.8990   34.4700   44.6880 O   0  0  0  0  0  0  0  0  0  0  0  0
   58.4310   33.5760   46.2670 C   0  0  0  0  0  0  0  0  0  0  0  0
   59.5190   34.4610   46.3980 C   0  0  0  0  0  0  0  0  0  0  0  0
   59.7993   35.1103   45.5555 H   0  0  0  0  0  0  0  0  0  0  0  0
   60.2450   34.5200   47.5910 C   0  0  0  0  0  0  0  0  0  0  0  0
   61.0908   35.2171   47.6848 H   0  0  0  0  0  0  0  0  0  0  0  0
   59.8990   33.6960   48.6640 C   0  0  0  0  0  0  0  0  0  0  0  0
   60.6030   33.7540   49.8210 F   0  0  0  0  0  0  0  0  0  0  0  0
   58.8220   32.8120   48.5460 C   0  0  0  0  0  0  0  0  0  0  0  0
   58.5480   32.1643   49.3918 H   0  0  0  0  0  0  0  0  0  0  0  0
   58.0930   32.7500   47.3550 C   0  0  0  0  0  0  0  0  0  0  0  0
   57.2488   32.0503   47.2675 H   0  0  0  0  0  0  0  0  0  0  0  0
   58.5600   30.2360   44.9720 C   0  0  0  0  0  0  0  0  0  0  0  0
   59.5928   30.6099   45.0307 H   0  0  0  0  0  0  0  0  0  0  0  0
   58.2680   28.9190   45.3320 C   0  0  0  0  0  0  0  0  0  0  0  0
   59.0753   28.2546   45.6738 H   0  0  0  0  0  0  0  0  0  0  0  0
   56.9530   28.4370   45.2610 C   0  0  0  0  0  0  0  0  0  0  0  0
   56.6440   27.0410   45.6550 C   0  0  0  0  0  0  0  0  0  0  0  0
   55.4710   26.7510   46.0150 O   0  0  0  0  0  0  0  0  0  0  0  0
   57.6660   26.0250   45.6470 N   0  0  0  0  0  0  0  0  0  0  0  0
   58.6640   26.3170   45.5520 H   0  0  0  0  0  0  0  0  0  0  0  0
   57.4050   24.5840   45.7640 C   0  0  0  0  0  0  0  0  0  0  0  0
   56.4057   24.3912   45.3466 H   0  0  0  0  0  0  0  0  0  0  0  0
   58.4070   23.7560   44.9290 C   0  0  0  0  0  0  0  0  0  0  0  0
   57.9582   23.5434   43.9475 H   0  0  0  0  0  0  0  0  0  0  0  0
   59.3300   24.3462   44.8306 H   0  0  0  0  0  0  0  0  0  0  0  0
   58.7730   22.4200   45.6060 C   0  0  0  0  0  0  0  0  0  0  0  0
   59.1519   21.7285   44.8390 H   0  0  0  0  0  0  0  0  0  0  0  0
   59.5332   22.6320   46.3722 H   0  0  0  0  0  0  0  0  0  0  0  0
   57.6160   21.7890   46.2840 N   0  0  0  0  0  0  0  0  0  0  0  0
   56.6040   21.2630   45.3400 C   0  0  0  0  0  0  0  0  0  0  0  0
   56.9856   21.3617   44.3130 H   0  0  0  0  0  0  0  0  0  0  0  0
   56.4156   20.2070   45.5836 H   0  0  0  0  0  0  0  0  0  0  0  0
   55.3060   22.0190   45.4570 C   0  0  0  0  0  0  0  0  0  0  0  0
   55.0350   23.1100   44.6130 C   0  0  0  0  0  0  0  0  0  0  0  0
   55.7812   23.4268   43.8695 H   0  0  0  0  0  0  0  0  0  0  0  0
   53.8190   23.7940   44.7160 C   0  0  0  0  0  0  0  0  0  0  0  0
   53.6111   24.6476   44.0541 H   0  0  0  0  0  0  0  0  0  0  0  0
   52.8680   23.3940   45.6590 C   0  0  0  0  0  0  0  0  0  0  0  0
   51.9132   23.9342   45.7397 H   0  0  0  0  0  0  0  0  0  0  0  0
   53.1290   22.3090   46.4990 C   0  0  0  0  0  0  0  0  0  0  0  0
   52.3792   21.9954   47.2402 H   0  0  0  0  0  0  0  0  0  0  0  0
   54.3420   21.6210   46.3990 C   0  0  0  0  0  0  0  0  0  0  0  0
   54.5426   20.7650   47.0601 H   0  0  0  0  0  0  0  0  0  0  0  0
   57.0150   22.6450   47.3440 C   0  0  0  0  0  0  0  0  0  0  0  0
   55.9208   22.5490   47.2850 H   0  0  0  0  0  0  0  0  0  0  0  0
   57.4243   22.2930   48.3024 H   0  0  0  0  0  0  0  0  0  0  0  0
   57.3750   24.1400   47.2330 C   0  0  0  0  0  0  0  0  0  0  0  0
   56.6233   24.7334   47.7742 H   0  0  0  0  0  0  0  0  0  0  0  0
   58.3723   24.2967   47.6699 H   0  0  0  0  0  0  0  0  0  0  0  0
  1  2  1  0
  2  3  1  0
  3  4  1  0
  4  5  2  0
  5  6  1  0
  6  7  2  0
  6  8  1  0
  8  9  2  0
  9 10  1  0
  9 11  1  0
 11 12  1  0
 11 13  2  0
 13 14  1  0
 13 15  1  0
 15 16  1  0
 15 17  2  0
 17 18  1  0
  4 19  1  0
 19 20  1  0
 19 21  2  0
 21 22  1  0
 21 23  1  0
 23 24  1  0
 24 25  2  0
 24 26  1  0
 26 27  1  0
 26 28  1  0
 28 29  1  0
 28 30  1  0
 30 31  1  0
 30 32  1  0
 30 33  1  0
 33 34  1  0
 33 35  1  0
 33 36  1  0
 36 37  1  0
 37 38  1  0
 37 39  1  0
 37 40  1  0
 40 41  2  0
 41 42  1  0
 41 43  1  0
 43 44  1  0
 43 45  2  0
 45 46  1  0
 45 47  1  0
 47 48  1  0
 47 49  2  0
 49 50  1  0
 36 51  1  0
 51 52  1  0
 51 53  1  0
 51 54  1  0
 54 55  1  0
 54 56  1  0
 23  2  2  0
 54 28  1  0
 17  8  1  0
 49 40  1  0
M  CHG  1   3  -1
M  END
>  <UniqueID>  (21) 
20

>  <SMILES>  (21) 
O=C(/N=c1\ccc(C(=O)NC2CCN(Cc3ccccc3)CC2)c[n-]1)c1ccc(F)cc1

>  <Energy>  (21) 
80.6287869007182

>  <Genealogy>  (21) 
O=C(N=c1ccc(C(=O)NC2CCN(Cc3ccccc3)CC2)c[n-]1)c1ccc(F)cc1 (protonated)
O=C(/N=c1\ccc(C(=O)NC2CCN(Cc3ccccc3)CC2)c[n-]1)c1ccc(F)cc1 (cis-trans isomerization)
O=C(/N=c1\ccc(C(=O)NC2CCN(Cc3ccccc3)CC2)c[n-]1)c1ccc(F)cc1 (3D coordinates assigned)
O=C(/N=c1\ccc(C(=O)NC2CCN(Cc3ccccc3)CC2)c[n-]1)c1ccc(F)cc1 (nonaromatic ring conformer: 80.6287869007182 kcal/mol)

>  <smiles>  (21) 
O=C(N=c1ccc(C(=O)NC2CCN(Cc3ccccc3)CC2)c[nH]1)c1ccc(F)cc1

>  <score_type>  (21) 
oracle

>  <origin>  (21) 
adg

>  <m_score__min__energy>  (21) 
-10.07

>  <m_primary>  (21) 
energy

$$$$
21:0
     RDKit          3D

 57 61  0  0  0  0  0  0  0  0999 V2000
   63.4290   32.3040   47.1690 C   0  0  0  0  0  0  0  0  0  0  0  0
   62.4190   33.2170   47.8600 C   0  0  0  0  0  0  0  0  0  0  0  0
   61.3690   32.4050   48.5990 C   0  0  0  0  0  0  0  0  0  0  0  0
   61.7280   31.0990   48.9650 C   0  0  0  0  0  0  0  0  0  0  0  0
   60.8580   30.3040   49.7110 C   0  0  0  0  0  0  0  0  0  0  0  0
   59.6170   30.8250   50.0900 C   0  0  0  0  0  0  0  0  0  0  0  0
   59.2580   32.1250   49.6880 C   0  0  0  0  0  0  0  0  0  0  0  0
   58.1210   32.5690   50.0120 O   0  0  0  0  0  0  0  0  0  0  0  0
   60.1280   32.9050   48.9540 N   0  0  0  0  0  0  0  0  0  0  0  0
   59.7080   34.2710   48.5570 C   0  0  0  0  0  0  0  0  0  0  0  0
   59.0080   34.2670   47.2210 C   0  0  0  0  0  0  0  0  0  0  0  0
   59.5590   34.9560   46.1250 C   0  0  0  0  0  0  0  0  0  0  0  0
   58.9010   34.9610   44.8920 C   0  0  0  0  0  0  0  0  0  0  0  0
   57.6810   34.2930   44.7460 C   0  0  0  0  0  0  0  0  0  0  0  0
   57.1170   33.6220   45.8340 C   0  0  0  0  0  0  0  0  0  0  0  0
   57.7730   33.6140   47.0690 C   0  0  0  0  0  0  0  0  0  0  0  0
   58.6540   29.9310   50.8290 C   0  0  0  0  0  0  0  0  0  0  0  0
   59.3560   28.9670   51.8050 C   0  0  0  0  0  0  0  0  0  0  0  0
   60.8370   28.6540   51.4720 C   0  0  0  0  0  0  0  0  0  0  0  0
   61.2260   28.9520   50.0750 N   0  0  1  0  0  0  0  0  0  0  0  0
   60.6990   28.0150   49.1080 C   0  0  0  0  0  0  0  0  0  0  0  0
   60.3650   26.8470   49.4500 O   0  0  0  0  0  0  0  0  0  0  0  0
   60.4820   28.4550   47.7600 N   0  0  0  0  0  0  0  0  0  0  0  0
   59.2300   28.4630   47.0600 C   0  0  0  0  0  0  0  0  0  0  0  0
   58.4130   27.3020   46.9690 C   0  0  0  0  0  0  0  0  0  0  0  0
   57.2030   27.3370   46.2520 C   0  0  0  0  0  0  0  0  0  0  0  0
   56.8470   28.5290   45.6340 C   0  0  0  0  0  0  0  0  0  0  0  0
   57.6300   29.6350   45.7020 C   0  0  0  0  0  0  0  0  0  0  0  0
   58.8350   29.6430   46.3980 C   0  0  0  0  0  0  0  0  0  0  0  0
   57.0380   30.6620   44.9930 O   0  0  0  0  0  0  0  0  0  0  0  0
   55.8070   30.1700   44.4440 C   0  0  0  0  0  0  0  0  0  0  0  0
   55.7250   28.8060   44.8770 O   0  0  0  0  0  0  0  0  0  0  0  0
   64.0197   31.7700   47.9279 H   0  0  0  0  0  0  0  0  0  0  0  0
   62.8952   31.5758   46.5407 H   0  0  0  0  0  0  0  0  0  0  0  0
   64.0997   32.9084   46.5407 H   0  0  0  0  0  0  0  0  0  0  0  0
   62.9480   33.8602   48.5786 H   0  0  0  0  0  0  0  0  0  0  0  0
   61.9165   33.8269   47.0948 H   0  0  0  0  0  0  0  0  0  0  0  0
   62.7059   30.6978   48.6604 H   0  0  0  0  0  0  0  0  0  0  0  0
   59.0220   34.6698   49.3189 H   0  0  0  0  0  0  0  0  0  0  0  0
   60.6076   34.8984   48.4737 H   0  0  0  0  0  0  0  0  0  0  0  0
   60.5121   35.4932   46.2391 H   0  0  0  0  0  0  0  0  0  0  0  0
   59.3432   35.4909   44.0354 H   0  0  0  0  0  0  0  0  0  0  0  0
   57.1654   34.2959   43.7743 H   0  0  0  0  0  0  0  0  0  0  0  0
   56.1559   33.0994   45.7190 H   0  0  0  0  0  0  0  0  0  0  0  0
   57.3199   33.0939   47.9259 H   0  0  0  0  0  0  0  0  0  0  0  0
   57.9573   30.5623   51.4000 H   0  0  0  0  0  0  0  0  0  0  0  0
   58.1322   29.3182   50.0792 H   0  0  0  0  0  0  0  0  0  0  0  0
   59.3201   29.4138   52.8095 H   0  0  0  0  0  0  0  0  0  0  0  0
   58.8175   28.0108   51.7301 H   0  0  0  0  0  0  0  0  0  0  0  0
   61.4737   29.2512   52.1413 H   0  0  0  0  0  0  0  0  0  0  0  0
   60.9675   27.5705   51.6098 H   0  0  0  0  0  0  0  0  0  0  0  0
   62.2690   28.8600   50.0410 H   0  0  0  0  0  0  0  0  0  0  0  0
   58.7293   26.3711   47.4623 H   0  0  0  0  0  0  0  0  0  0  0  0
   56.5589   26.4480   46.1829 H   0  0  0  0  0  0  0  0  0  0  0  0
   59.4624   30.5460   46.4306 H   0  0  0  0  0  0  0  0  0  0  0  0
   54.9541   30.7491   44.8277 H   0  0  0  0  0  0  0  0  0  0  0  0
   55.7801   30.2572   43.3478 H   0  0  0  0  0  0  0  0  0  0  0  0
  1  2  1  0
  2  3  1  0
  3  4  2  0
  4  5  1  0
  5  6  2  0
  6  7  1  0
  7  8  2  0
  7  9  1  0
  9 10  1  0
 10 11  1  0
 11 12  2  0
 12 13  1  0
 13 14  2  0
 14 15  1  0
 15 16  2  0
  6 17  1  0
 17 18  1  0
 18 19  1  0
 19 20  1  0
 20 21  1  0
 21 22  2  0
 21 23  1  0
 23 24  1  0
 24 25  2  0
 25 26  1  0
 26 27  2  0
 27 28  1  0
 28 29  2  0
 28 30  1  0
 30 31  1  0
 31 32  1  0
  9  3  1  0
 16 11  1  0
 29 24  1  0
 20  5  1  0
 32 27  1  0
  1 33  1  0
  1 34  1  0
  1 35  1  0
  2 36  1  0
  2 37  1  0
  4 38  1  0
 10 39  1  0
 10 40  1  0
 12 41  1  0
 13 42  1  0
 14 43  1  0
 15 44  1  0
 16 45  1  0
 17 46  1  0
 17 47  1  0
 18 48  1  0
 18 49  1  0
 19 50  1  0
 19 51  1  0
 20 52  1  1
 25 53  1  0
 26 54  1  0
 29 55  1  0
 31 56  1  0
 31 57  1  0
M  CHG  2  20   1  23  -1
M  END
>  <UniqueID>  (22) 
21

>  <SMILES>  (22) 
CCc1cc2c(c(=O)n1Cc1ccccc1)CCC[N@H+]2C(=O)[N-]c1ccc2c(c1)OCO2

>  <Energy>  (22) 
109.44434417276757

>  <Genealogy>  (22) 
CCc1cc2c(c(=O)n1Cc1ccccc1)CCC[NH+]2C(=O)[N-]c1ccc2c(c1)OCO2 (protonated)
CCc1cc2c(c(=O)n1Cc1ccccc1)CCC[N@H+]2C(=O)[N-]c1ccc2c(c1)OCO2 (chirality)
CCc1cc2c(c(=O)n1Cc1ccccc1)CCC[N@H+]2C(=O)[N-]c1ccc2c(c1)OCO2 (3D coordinates assigned)
CCc1cc2c(c(=O)n1Cc1ccccc1)CCC[N@H+]2C(=O)[N-]c1ccc2c(c1)OCO2 (nonaromatic ring conformer: 109.44434417276757 kcal/mol)

>  <smiles>  (22) 
CCc1cc2c(c(=O)n1Cc1ccccc1)CCCN2C(=O)Nc1ccc2c(c1)OCO2

>  <score_type>  (22) 
oracle

>  <origin>  (22) 
adg

>  <m_score__min__energy>  (22) 
-9.6400000000000006

>  <m_primary>  (22) 
energy

$$$$
22:0
     RDKit          3D

 45 47  0  0  0  0  0  0  0  0999 V2000
   63.7370   33.0930   46.7680 C   0  0  0  0  0  0  0  0  0  0  0  0
   63.3650   33.8590   48.0320 C   0  0  0  0  0  0  0  0  0  0  0  0
   61.9270   33.5980   48.4130 C   0  0  0  0  0  0  0  0  0  0  0  0
   60.9910   33.2580   47.4300 C   0  0  0  0  0  0  0  0  0  0  0  0
   59.6740   33.0190   47.7470 N   0  0  0  0  0  0  0  0  0  0  0  0
   58.6840   32.6450   46.6940 C   0  0  1  0  0  0  0  0  0  0  0  0
   57.4130   33.4950   46.7270 C   0  0  0  0  0  0  0  0  0  0  0  0
   56.8680   33.5830   45.4280 O   0  0  0  0  0  0  0  0  0  0  0  0
   57.8270   33.0880   44.5220 C   0  0  2  0  0  0  0  0  0  0  0  0
   57.3110   31.7860   43.8880 C   0  0  0  0  0  0  0  0  0  0  0  0
   56.4930   31.0670   44.8080 O   0  0  0  0  0  0  0  0  0  0  0  0
   56.5830   29.6830   45.0060 C   0  0  0  0  0  0  0  0  0  0  0  0
   55.5590   28.9560   44.8770 O   0  0  0  0  0  0  0  0  0  0  0  0
   57.8840   29.0750   45.3630 C   0  0  0  0  0  0  0  0  0  0  0  0
   58.9990   29.2110   44.5140 C   0  0  0  0  0  0  0  0  0  0  0  0
   60.2250   28.6330   44.8590 C   0  0  0  0  0  0  0  0  0  0  0  0
   60.3500   27.9130   46.0500 C   0  0  0  0  0  0  0  0  0  0  0  0
   59.2510   27.7700   46.8990 C   0  0  0  0  0  0  0  0  0  0  0  0
   58.0220   28.3480   46.5600 C   0  0  0  0  0  0  0  0  0  0  0  0
   59.1350   32.8750   45.2670 C   0  0  0  0  0  0  0  0  0  0  0  0
   59.3190   32.9840   49.0770 C   0  0  0  0  0  0  0  0  0  0  0  0
   58.1570   32.6390   49.4250 O   0  0  0  0  0  0  0  0  0  0  0  0
   60.2200   33.3030   50.0460 N   0  0  0  0  0  0  0  0  0  0  0  0
   61.5050   33.6140   49.7440 C   0  0  0  0  0  0  0  0  0  0  0  0
   62.3130   33.8960   50.6710 O   0  0  0  0  0  0  0  0  0  0  0  0
   64.2022   32.1350   47.0434 H   0  0  0  0  0  0  0  0  0  0  0  0
   62.8307   32.9032   46.1742 H   0  0  0  0  0  0  0  0  0  0  0  0
   64.4465   33.6879   46.1742 H   0  0  0  0  0  0  0  0  0  0  0  0
   64.0203   33.5372   48.8548 H   0  0  0  0  0  0  0  0  0  0  0  0
   63.4899   34.9352   47.8419 H   0  0  0  0  0  0  0  0  0  0  0  0
   61.3152   33.1802   46.3817 H   0  0  0  0  0  0  0  0  0  0  0  0
   58.5397   31.5811   46.9333 H   0  0  0  0  0  0  0  0  0  0  0  0
   56.6789   33.0297   47.4012 H   0  0  0  0  0  0  0  0  0  0  0  0
   57.6580   34.5043   47.0894 H   0  0  0  0  0  0  0  0  0  0  0  0
   58.0031   33.8063   43.7078 H   0  0  0  0  0  0  0  0  0  0  0  0
   56.7195   32.0298   42.9932 H   0  0  0  0  0  0  0  0  0  0  0  0
   58.1731   31.1590   43.6166 H   0  0  0  0  0  0  0  0  0  0  0  0
   58.9053   29.7749   43.5742 H   0  0  0  0  0  0  0  0  0  0  0  0
   61.0922   28.7454   44.1917 H   0  0  0  0  0  0  0  0  0  0  0  0
   61.3150   27.4586   46.3188 H   0  0  0  0  0  0  0  0  0  0  0  0
   59.3510   27.2022   47.8358 H   0  0  0  0  0  0  0  0  0  0  0  0
   57.1594   28.2333   47.2329 H   0  0  0  0  0  0  0  0  0  0  0  0
   59.6734   31.9987   44.8769 H   0  0  0  0  0  0  0  0  0  0  0  0
   59.8331   33.7189   45.1649 H   0  0  0  0  0  0  0  0  0  0  0  0
   59.9200   33.2900   51.0480 H   0  0  0  0  0  0  0  0  0  0  0  0
  1  2  1  0
  2  3  1  0
  3  4  2  0
  4  5  1  0
  5  6  1  0
  6  7  1  0
  7  8  1  0
  8  9  1  0
  9 10  1  0
 10 11  1  0
 11 12  1  0
 12 13  2  0
 12 14  1  0
 14 15  2  0
 15 16  1  0
 16 17  2  0
 17 18  1  0
 18 19  2  0
  9 20  1  0
  5 21  1  0
 21 22  2  0
 21 23  1  0
 23 24  1  0
 24 25  2  0
 24  3  1  0
 20  6  1  0
 19 14  1  0
  1 26  1  0
  1 27  1  0
  1 28  1  0
  2 29  1  0
  2 30  1  0
  4 31  1  0
  6 32  1  6
  7 33  1  0
  7 34  1  0
  9 35  1  6
 10 36  1  0
 10 37  1  0
 15 38  1  0
 16 39  1  0
 17 40  1  0
 18 41  1  0
 19 42  1  0
 20 43  1  0
 20 44  1  0
 23 45  1  0
M  END
>  <UniqueID>  (23) 
22

>  <SMILES>  (23) 
CCc1cn([C@H]2CO[C@H](COC(=O)c3ccccc3)C2)c(=O)[nH]c1=O

>  <Energy>  (23) 
52.592774925231204

>  <Genealogy>  (23) 
CCc1cn([C@H]2CO[C@H](COC(=O)c3ccccc3)C2)c(=O)[nH]c1=O (chirality)
CCc1cn([C@H]2CO[C@H](COC(=O)c3ccccc3)C2)c(=O)[nH]c1=O (3D coordinates assigned)
CCc1cn([C@H]2CO[C@H](COC(=O)c3ccccc3)C2)c(=O)[nH]c1=O (nonaromatic ring conformer: 52.592774925231204 kcal/mol)

>  <smiles>  (23) 
CCc1cn(C2COC(COC(=O)c3ccccc3)C2)c(=O)[nH]c1=O

>  <score_type>  (23) 
oracle

>  <origin>  (23) 
adg

>  <m_score__min__energy>  (23) 
-8.6500000000000004

>  <m_primary>  (23) 
energy

$$$$
23:0
     RDKit          3D

 45 47  0  0  0  0  0  0  0  0999 V2000
   56.3220   22.9940   43.8140 C   0  0  0  0  0  0  0  0  0  0  0  0
   56.1850   23.1870   45.3200 C   0  0  0  0  0  0  0  0  0  0  0  0
   56.7120   24.5060   45.7210 N   0  0  0  0  0  0  0  0  0  0  0  0
   58.0600   24.6860   45.9070 C   0  0  0  0  0  0  0  0  0  0  0  0
   58.8670   23.7270   45.7520 O   0  0  0  0  0  0  0  0  0  0  0  0
   58.5630   25.9370   46.2670 C   0  0  0  0  0  0  0  0  0  0  0  0
   57.6740   27.0020   46.4270 C   0  0  0  0  0  0  0  0  0  0  0  0
   58.1530   28.3500   46.8060 C   0  0  0  0  0  0  0  0  0  0  0  0
   59.2250   28.4790   47.4540 O   0  0  0  0  0  0  0  0  0  0  0  0
   57.4690   29.5310   46.3610 N   0  0  0  0  0  0  0  0  0  0  0  0
   57.2470   29.8940   45.1260 C   0  0  0  0  0  0  0  0  0  0  0  0
   56.8330   28.9870   44.1840 N   0  0  0  0  0  0  0  0  0  0  0  0
   56.6180   29.3430   42.8900 C   0  0  0  0  0  0  0  0  0  0  0  0
   56.8080   30.6600   42.4830 C   0  0  0  0  0  0  0  0  0  0  0  0
   57.2040   31.6120   43.4160 C   0  0  0  0  0  0  0  0  0  0  0  0
   57.4110   31.2540   44.7600 C   0  0  0  0  0  0  0  0  0  0  0  0
   57.8760   32.3100   45.7600 C   0  0  0  0  0  0  0  0  0  0  0  0
   59.3780   32.1380   46.0600 C   0  0  0  0  0  0  0  0  0  0  0  0
   59.9150   33.3550   46.8270 C   0  0  0  0  0  0  0  0  0  0  0  0
   59.7030   34.6410   46.1260 N   0  0  0  0  0  0  0  0  0  0  0  0
   58.7800   34.5780   44.9800 C   0  0  0  0  0  0  0  0  0  0  0  0
   57.5280   33.7550   45.3080 C   0  0  0  0  0  0  0  0  0  0  0  0
   56.3510   26.7950   46.2110 N   0  0  0  0  0  0  0  0  0  0  0  0
   55.8640   25.5780   45.8620 C   0  0  0  0  0  0  0  0  0  0  0  0
   54.6250   25.4500   45.6650 O   0  0  0  0  0  0  0  0  0  0  0  0
   56.9480   22.1121   43.6128 H   0  0  0  0  0  0  0  0  0  0  0  0
   55.3260   22.8454   43.3713 H   0  0  0  0  0  0  0  0  0  0  0  0
   56.7908   23.8852   43.3713 H   0  0  0  0  0  0  0  0  0  0  0  0
   55.1228   23.1214   45.5984 H   0  0  0  0  0  0  0  0  0  0  0  0
   56.7602   22.4025   45.8335 H   0  0  0  0  0  0  0  0  0  0  0  0
   59.6423   26.0818   46.4222 H   0  0  0  0  0  0  0  0  0  0  0  0
   56.6420   27.9930   44.4360 H   0  0  0  0  0  0  0  0  0  0  0  0
   56.2922   28.5864   42.1610 H   0  0  0  0  0  0  0  0  0  0  0  0
   56.6464   30.9454   41.4330 H   0  0  0  0  0  0  0  0  0  0  0  0
   57.3567   32.6545   43.0999 H   0  0  0  0  0  0  0  0  0  0  0  0
   57.3203   32.1518   46.6961 H   0  0  0  0  0  0  0  0  0  0  0  0
   59.5246   31.2331   46.6681 H   0  0  0  0  0  0  0  0  0  0  0  0
   59.9231   32.0475   45.1089 H   0  0  0  0  0  0  0  0  0  0  0  0
   59.4073   33.4029   47.8016 H   0  0  0  0  0  0  0  0  0  0  0  0
   61.0020   33.2184   46.9263 H   0  0  0  0  0  0  0  0  0  0  0  0
   60.6250   34.9880   45.7720 H   0  0  0  0  0  0  0  0  0  0  0  0
   58.4750   35.6000   44.7107 H   0  0  0  0  0  0  0  0  0  0  0  0
   59.3026   34.0908   44.1437 H   0  0  0  0  0  0  0  0  0  0  0  0
   56.9769   34.2561   46.1175 H   0  0  0  0  0  0  0  0  0  0  0  0
   56.9211   33.6852   44.3932 H   0  0  0  0  0  0  0  0  0  0  0  0
  1  2  1  0
  2  3  1  0
  3  4  1  0
  4  5  2  0
  4  6  1  0
  6  7  2  0
  7  8  1  0
  8  9  2  0
  8 10  1  0
 10 11  2  3
 11 12  1  0
 12 13  1  0
 13 14  2  0
 14 15  1  0
 15 16  2  0
 16 17  1  0
 17 18  1  0
 18 19  1  0
 19 20  1  0
 20 21  1  0
 21 22  1  0
  7 23  1  0
 23 24  1  0
 24 25  2  0
 24  3  1  0
 16 11  1  0
 22 17  1  0
  1 26  1  0
  1 27  1  0
  1 28  1  0
  2 29  1  0
  2 30  1  0
  6 31  1  0
 12 32  1  0
 13 33  1  0
 14 34  1  0
 15 35  1  0
 17 36  1  0
 18 37  1  0
 18 38  1  0
 19 39  1  0
 19 40  1  0
 20 41  1  0
 21 42  1  0
 21 43  1  0
 22 44  1  0
 22 45  1  0
M  CHG  1  23  -1
M  END
>  <UniqueID>  (24) 
23

>  <SMILES>  (24) 
CCn1c(=O)cc(C(=O)N=c2[nH]cccc2C2CCNCC2)[n-]c1=O

>  <Energy>  (24) 
65.54334349461678

>  <Genealogy>  (24) 
CCn1c(=O)cc(C(=O)N=c2[nH]cccc2C2CCNCC2)[n-]c1=O (protonated)
CCn1c(=O)cc(C(=O)N=c2[nH]cccc2C2CCNCC2)[n-]c1=O (3D coordinates assigned)
CCn1c(=O)cc(C(=O)N=c2[nH]cccc2C2CCNCC2)[n-]c1=O (nonaromatic ring conformer: 65.54334349461678 kcal/mol)

>  <smiles>  (24) 
CCn1c(=O)cc(C(=O)N=c2[nH]cccc2C2CCNCC2)[nH]c1=O

>  <score_type>  (24) 
oracle

>  <origin>  (24) 
adg

>  <m_score__min__energy>  (24) 
-9.8699999999999992

>  <m_primary>  (24) 
energy

$$$$
24:0
     RDKit          3D

 47 49  0  0  0  0  0  0  0  0999 V2000
   59.6030   35.7210   46.7950 N   0  0  0  0  0  0  0  0  0  0  0  0
   58.9930   34.2700   46.0830 S   0  0  0  0  0  0  0  0  0  0  0  0
   57.5380   34.1170   46.4300 O   0  0  0  0  0  0  0  0  0  0  0  0
   59.1280   34.3460   44.5870 O   0  0  0  0  0  0  0  0  0  0  0  0
   59.9080   32.8940   46.6870 C   0  0  0  0  0  0  0  0  0  0  0  0
   61.2800   33.0110   46.9500 C   0  0  0  0  0  0  0  0  0  0  0  0
   61.9980   31.9110   47.4230 C   0  0  0  0  0  0  0  0  0  0  0  0
   61.3570   30.6860   47.6280 C   0  0  0  0  0  0  0  0  0  0  0  0
   59.9860   30.5490   47.3480 C   0  0  0  0  0  0  0  0  0  0  0  0
   59.2980   29.2570   47.5680 C   0  0  0  0  0  0  0  0  0  0  0  0
   58.4230   29.1750   48.4730 O   0  0  0  0  0  0  0  0  0  0  0  0
   59.6170   28.0900   46.7850 N   0  0  0  0  0  0  0  0  0  0  0  0
   59.9320   26.8260   47.4690 C   0  0  0  0  0  0  0  0  0  0  0  0
   59.0590   25.6990   46.9770 C   0  0  0  0  0  0  0  0  0  0  0  0
   59.5520   24.7740   46.0420 C   0  0  0  0  0  0  0  0  0  0  0  0
   58.7280   23.7590   45.5510 C   0  0  0  0  0  0  0  0  0  0  0  0
   57.4040   23.6510   45.9870 C   0  0  0  0  0  0  0  0  0  0  0  0
   56.5970   22.6380   45.4700 O   0  0  0  0  0  0  0  0  0  0  0  0
   56.9080   24.5620   46.9350 C   0  0  0  0  0  0  0  0  0  0  0  0
   55.5950   24.4720   47.3820 O   0  0  0  0  0  0  0  0  0  0  0  0
   57.7360   25.5730   47.4320 C   0  0  0  0  0  0  0  0  0  0  0  0
   59.5720   28.1420   45.3130 C   0  0  0  0  0  0  0  0  0  0  0  0
   58.4720   29.0630   44.8400 C   0  0  0  0  0  0  0  0  0  0  0  0
   58.8100   30.2670   44.1960 C   0  0  0  0  0  0  0  0  0  0  0  0
   57.8120   31.1610   43.7960 C   0  0  0  0  0  0  0  0  0  0  0  0
   56.4700   30.8590   44.0250 C   0  0  0  0  0  0  0  0  0  0  0  0
   56.1170   29.6570   44.6440 C   0  0  0  0  0  0  0  0  0  0  0  0
   54.7770   29.3620   44.8640 O   0  0  0  0  0  0  0  0  0  0  0  0
   57.1110   28.7540   45.0470 C   0  0  0  0  0  0  0  0  0  0  0  0
   56.7360   27.5590   45.6550 O   0  0  0  0  0  0  0  0  0  0  0  0
   59.2650   31.6640   46.8870 C   0  0  0  0  0  0  0  0  0  0  0  0
   58.8340   36.1230   47.3770 H   0  0  0  0  0  0  0  0  0  0  0  0
   61.7914   33.9705   46.7835 H   0  0  0  0  0  0  0  0  0  0  0  0
   63.0729   32.0089   47.6353 H   0  0  0  0  0  0  0  0  0  0  0  0
   61.9271   29.8262   48.0097 H   0  0  0  0  0  0  0  0  0  0  0  0
   60.9853   26.5706   47.2809 H   0  0  0  0  0  0  0  0  0  0  0  0
   59.7480   26.9607   48.5451 H   0  0  0  0  0  0  0  0  0  0  0  0
   60.5930   24.8495   45.6946 H   0  0  0  0  0  0  0  0  0  0  0  0
   59.1227   23.0407   44.8174 H   0  0  0  0  0  0  0  0  0  0  0  0
   55.6390   22.5090   45.7700 H   0  0  0  0  0  0  0  0  0  0  0  0
   57.3485   26.2750   48.1850 H   0  0  0  0  0  0  0  0  0  0  0  0
   60.5374   28.5105   44.9359 H   0  0  0  0  0  0  0  0  0  0  0  0
   59.3717   27.1300   44.9313 H   0  0  0  0  0  0  0  0  0  0  0  0
   59.8665   30.5069   44.0058 H   0  0  0  0  0  0  0  0  0  0  0  0
   58.0859   32.1038   43.3000 H   0  0  0  0  0  0  0  0  0  0  0  0
   55.6876   31.5685   43.7177 H   0  0  0  0  0  0  0  0  0  0  0  0
   58.1884   31.5711   46.6816 H   0  0  0  0  0  0  0  0  0  0  0  0
  1  2  1  0
  2  3  2  0
  2  4  2  0
  2  5  1  0
  5  6  2  0
  6  7  1  0
  7  8  2  0
  8  9  1  0
  9 10  1  0
 10 11  2  0
 10 12  1  0
 12 13  1  0
 13 14  1  0
 14 15  2  0
 15 16  1  0
 16 17  2  0
 17 18  1  0
 17 19  1  0
 19 20  1  0
 19 21  2  0
 12 22  1  0
 22 23  1  0
 23 24  2  0
 24 25  1  0
 25 26  2  0
 26 27  1  0
 27 28  1  0
 27 29  2  0
 29 30  1  0
  9 31  2  0
 31  5  1  0
 21 14  1  0
 29 23  1  0
  1 32  1  0
  6 33  1  0
  7 34  1  0
  8 35  1  0
 13 36  1  0
 13 37  1  0
 15 38  1  0
 16 39  1  0
 18 40  1  0
 21 41  1  0
 22 42  1  0
 22 43  1  0
 24 44  1  0
 25 45  1  0
 26 46  1  0
 31 47  1  0
M  CHG  4   1  -1  20  -1  28  -1  30  -1
M  END
>  <UniqueID>  (25) 
24

>  <SMILES>  (25) 
[NH-]S(=O)(=O)c1cccc(C(=O)N(Cc2ccc(O)c([O-])c2)Cc2cccc([O-])c2[O-])c1

>  <Energy>  (25) 
52.36323964956342

>  <Genealogy>  (25) 
[NH-]S(=O)(=O)c1cccc(C(=O)N(Cc2ccc(O)c([O-])c2)Cc2cccc([O-])c2[O-])c1 (protonated)
[NH-]S(=O)(=O)c1cccc(C(=O)N(Cc2ccc(O)c([O-])c2)Cc2cccc([O-])c2[O-])c1 (3D coordinates assigned)
[NH-]S(=O)(=O)c1cccc(C(=O)N(Cc2ccc(O)c([O-])c2)Cc2cccc([O-])c2[O-])c1 (optimized conformer: 52.36323964956342 kcal/mol)

>  <smiles>  (25) 
NS(=O)(=O)c1cccc(C(=O)N(Cc2ccc(O)c(O)c2)Cc2cccc(O)c2O)c1

>  <score_type>  (25) 
oracle

>  <origin>  (25) 
adg

>  <m_score__min__energy>  (25) 
-16.670000000000002

>  <m_primary>  (25) 
energy

$$$$
25:0
     RDKit          3D

 65 69  0  0  0  0  0  0  0  0999 V2000
   62.6180   30.9110   46.7920 O   0  0  0  0  0  0  0  0  0  0  0  0
   61.6520   30.8180   47.5980 C   0  0  0  0  0  0  0  0  0  0  0  0
   61.7120   31.6300   48.8700 C   0  0  0  0  0  0  0  0  0  0  0  0
   62.6190   30.9510   49.9340 C   0  0  0  0  0  0  0  0  0  0  0  0
   63.1550   31.9630   50.9710 C   0  0  0  0  0  0  0  0  0  0  0  0
   62.0510   32.4900   51.9210 C   0  0  0  0  0  0  0  0  0  0  0  0
   60.8110   31.6920   51.8190 N   0  0  0  0  0  0  0  0  0  0  0  0
   59.7430   32.1460   52.7350 C   0  0  0  0  0  0  0  0  0  0  0  0
   58.4250   31.4200   52.5600 C   0  0  0  0  0  0  0  0  0  0  0  0
   57.4150   31.9610   51.7500 C   0  0  0  0  0  0  0  0  0  0  0  0
   56.1710   31.3300   51.6530 C   0  0  0  0  0  0  0  0  0  0  0  0
   55.9090   30.1600   52.3770 C   0  0  0  0  0  0  0  0  0  0  0  0
   54.6130   29.6210   52.3210 O   0  0  0  0  0  0  0  0  0  0  0  0
   53.4150   30.3480   52.2740 C   0  0  0  0  0  0  0  0  0  0  0  0
   52.9650   30.8030   51.0290 C   0  0  0  0  0  0  0  0  0  0  0  0
   51.7780   31.5350   50.9260 C   0  0  0  0  0  0  0  0  0  0  0  0
   51.0210   31.8070   52.0740 C   0  0  0  0  0  0  0  0  0  0  0  0
   51.4500   31.3380   53.3200 C   0  0  0  0  0  0  0  0  0  0  0  0
   52.6410   30.6040   53.4240 C   0  0  0  0  0  0  0  0  0  0  0  0
   56.9230   29.6120   53.1860 C   0  0  0  0  0  0  0  0  0  0  0  0
   58.1700   30.2380   53.2710 C   0  0  0  0  0  0  0  0  0  0  0  0
   61.0860   30.2480   51.8950 C   0  0  0  0  0  0  0  0  0  0  0  0
   61.8940   29.7900   50.6620 C   0  0  0  0  0  0  0  0  0  0  0  0
   60.5520   29.9190   47.3080 N   0  0  0  0  0  0  0  0  0  0  0  0
   60.3100   28.7760   48.2040 C   0  0  0  0  0  0  0  0  0  0  0  0
   59.7370   27.5900   47.4340 C   0  0  0  0  0  0  0  0  0  0  0  0
   58.4980   28.0070   46.7030 C   0  0  0  0  0  0  0  0  0  0  0  0
   57.4190   27.1160   46.5760 C   0  0  0  0  0  0  0  0  0  0  0  0
   56.2800   27.4840   45.8590 C   0  0  0  0  0  0  0  0  0  0  0  0
   55.2070   26.6020   45.7620 O   0  0  0  0  0  0  0  0  0  0  0  0
   56.2200   28.7350   45.2360 C   0  0  0  0  0  0  0  0  0  0  0  0
   55.0890   29.0830   44.5040 O   0  0  0  0  0  0  0  0  0  0  0  0
   57.2960   29.6320   45.3440 C   0  0  0  0  0  0  0  0  0  0  0  0
   57.2040   31.1770   44.4950 Cl  0  0  0  0  0  0  0  0  0  0  0  0
   58.4360   29.2810   46.1040 C   0  0  0  0  0  0  0  0  0  0  0  0
   59.6100   30.2370   46.2120 C   0  0  0  0  0  0  0  0  0  0  0  0
   62.1155   32.6270   48.6394 H   0  0  0  0  0  0  0  0  0  0  0  0
   60.6943   31.7062   49.2804 H   0  0  0  0  0  0  0  0  0  0  0  0
   63.4735   30.5348   49.3804 H   0  0  0  0  0  0  0  0  0  0  0  0
   63.9319   31.4702   51.5740 H   0  0  0  0  0  0  0  0  0  0  0  0
   63.5545   32.8251   50.4168 H   0  0  0  0  0  0  0  0  0  0  0  0
   62.4201   32.4433   52.9562 H   0  0  0  0  0  0  0  0  0  0  0  0
   61.8161   33.5247   51.6309 H   0  0  0  0  0  0  0  0  0  0  0  0
   60.0867   31.9927   53.7686 H   0  0  0  0  0  0  0  0  0  0  0  0
   59.5546   33.2042   52.5012 H   0  0  0  0  0  0  0  0  0  0  0  0
   57.6031   32.8875   51.1877 H   0  0  0  0  0  0  0  0  0  0  0  0
   55.3922   31.7557   51.0032 H   0  0  0  0  0  0  0  0  0  0  0  0
   53.5501   30.5828   50.1239 H   0  0  0  0  0  0  0  0  0  0  0  0
   51.4384   31.8973   49.9444 H   0  0  0  0  0  0  0  0  0  0  0  0
   50.0907   32.3886   51.9951 H   0  0  0  0  0  0  0  0  0  0  0  0
   50.8524   31.5451   54.2200 H   0  0  0  0  0  0  0  0  0  0  0  0
   52.9711   30.2280   54.4036 H   0  0  0  0  0  0  0  0  0  0  0  0
   56.7333   28.6885   53.7528 H   0  0  0  0  0  0  0  0  0  0  0  0
   58.9582   29.7999   53.9009 H   0  0  0  0  0  0  0  0  0  0  0  0
   61.6641   30.0363   52.8066 H   0  0  0  0  0  0  0  0  0  0  0  0
   60.1308   29.7030   51.9190 H   0  0  0  0  0  0  0  0  0  0  0  0
   62.6482   29.0600   50.9910 H   0  0  0  0  0  0  0  0  0  0  0  0
   61.1784   29.3561   49.9481 H   0  0  0  0  0  0  0  0  0  0  0  0
   61.2603   28.4769   48.6704 H   0  0  0  0  0  0  0  0  0  0  0  0
   59.5831   29.0799   48.9716 H   0  0  0  0  0  0  0  0  0  0  0  0
   60.4834   27.2299   46.7107 H   0  0  0  0  0  0  0  0  0  0  0  0
   59.4865   26.7859   48.1416 H   0  0  0  0  0  0  0  0  0  0  0  0
   57.4726   26.1223   47.0447 H   0  0  0  0  0  0  0  0  0  0  0  0
   60.1644   30.2113   45.2623 H   0  0  0  0  0  0  0  0  0  0  0  0
   59.1904   31.2294   46.4337 H   0  0  0  0  0  0  0  0  0  0  0  0
  1  2  2  0
  2  3  1  0
  3  4  1  0
  4  5  1  0
  5  6  1  0
  6  7  1  0
  7  8  1  0
  8  9  1  0
  9 10  2  0
 10 11  1  0
 11 12  2  0
 12 13  1  0
 13 14  1  0
 14 15  2  0
 15 16  1  0
 16 17  2  0
 17 18  1  0
 18 19  2  0
 12 20  1  0
 20 21  2  0
  7 22  1  0
 22 23  1  0
  2 24  1  0
 24 25  1  0
 25 26  1  0
 26 27  1  0
 27 28  2  0
 28 29  1  0
 29 30  1  0
 29 31  2  0
 31 32  1  0
 31 33  1  0
 33 34  1  0
 33 35  2  0
 35 36  1  0
 23  4  1  0
 36 24  1  0
 21  9  1  0
 35 27  1  0
 19 14  1  0
  3 37  1  0
  3 38  1  0
  4 39  1  0
  5 40  1  0
  5 41  1  0
  6 42  1  0
  6 43  1  0
  8 44  1  0
  8 45  1  0
 10 46  1  0
 11 47  1  0
 15 48  1  0
 16 49  1  0
 17 50  1  0
 18 51  1  0
 19 52  1  0
 20 53  1  0
 21 54  1  0
 22 55  1  0
 22 56  1  0
 23 57  1  0
 23 58  1  0
 25 59  1  0
 25 60  1  0
 26 61  1  0
 26 62  1  0
 28 63  1  0
 36 64  1  0
 36 65  1  0
M  CHG  2  30  -1  32  -1
M  END
>  <UniqueID>  (26) 
25

>  <SMILES>  (26) 
O=C(CC1CCN(Cc2ccc(Oc3ccccc3)cc2)CC1)N1CCc2cc([O-])c([O-])c(Cl)c2C1

>  <Energy>  (26) 
90.839615905235

>  <Genealogy>  (26) 
O=C(CC1CCN(Cc2ccc(Oc3ccccc3)cc2)CC1)N1CCc2cc([O-])c([O-])c(Cl)c2C1 (protonated)
O=C(CC1CCN(Cc2ccc(Oc3ccccc3)cc2)CC1)N1CCc2cc([O-])c([O-])c(Cl)c2C1 (3D coordinates assigned)
O=C(CC1CCN(Cc2ccc(Oc3ccccc3)cc2)CC1)N1CCc2cc([O-])c([O-])c(Cl)c2C1 (nonaromatic ring conformer: 90.839615905235 kcal/mol)

>  <smiles>  (26) 
O=C(CC1CCN(Cc2ccc(Oc3ccccc3)cc2)CC1)N1CCc2cc(O)c(O)c(Cl)c2C1

>  <score_type>  (26) 
oracle

>  <origin>  (26) 
adg

>  <m_score__min__energy>  (26) 
-15.24

>  <m_primary>  (26) 
energy

$$$$
26:0
     RDKit          3D

 50 52  0  0  0  0  0  0  0  0999 V2000
   56.0070   26.9650   45.9280 O   0  0  0  0  0  0  0  0  0  0  0  0
   57.0840   27.5940   45.7490 C   0  0  0  0  0  0  0  0  0  0  0  0
   58.1090   27.6260   46.8150 C   0  0  0  0  0  0  0  0  0  0  0  0
   58.2400   28.6590   47.6510 C   0  0  0  0  0  0  0  0  0  0  0  0
   59.4690   29.4770   47.6580 C   0  0  0  0  0  0  0  0  0  0  0  0
   60.1370   29.7220   46.4370 C   0  0  0  0  0  0  0  0  0  0  0  0
   59.6450   29.2430   45.2210 O   0  0  0  0  0  0  0  0  0  0  0  0
   61.3170   30.4710   46.4240 C   0  0  0  0  0  0  0  0  0  0  0  0
   61.8560   30.9660   47.6080 C   0  0  0  0  0  0  0  0  0  0  0  0
   61.2130   30.7260   48.8190 C   0  0  0  0  0  0  0  0  0  0  0  0
   60.0100   30.0010   48.8650 C   0  0  0  0  0  0  0  0  0  0  0  0
   59.3720   29.7580   50.2190 C   0  0  0  0  0  0  0  0  0  0  0  0
   58.9370   31.0450   50.8810 C   0  0  0  0  0  0  0  0  0  0  0  0
   57.6240   31.1930   51.3650 C   0  0  0  0  0  0  0  0  0  0  0  0
   57.2350   32.3810   51.9940 C   0  0  0  0  0  0  0  0  0  0  0  0
   58.1550   33.4180   52.1630 C   0  0  0  0  0  0  0  0  0  0  0  0
   57.7780   34.5640   52.7770 F   0  0  0  0  0  0  0  0  0  0  0  0
   59.4660   33.2730   51.7010 C   0  0  0  0  0  0  0  0  0  0  0  0
   59.8560   32.0950   51.0620 C   0  0  0  0  0  0  0  0  0  0  0  0
   57.2730   28.2810   44.5070 N   0  0  0  0  0  0  0  0  0  0  0  0
   56.4450   29.7330   44.0560 S   0  0  0  0  0  0  0  0  0  0  0  0
   56.0840   29.6530   42.6000 O   0  0  0  0  0  0  0  0  0  0  0  0
   55.1950   29.8530   44.8810 O   0  0  0  0  0  0  0  0  0  0  0  0
   57.5230   31.1060   44.3200 C   0  0  0  0  0  0  0  0  0  0  0  0
   57.1590   32.2690   44.8720 C   0  0  0  0  0  0  0  0  0  0  0  0
   58.0040   33.0900   45.7610 C   0  0  0  0  0  0  0  0  0  0  0  0
   58.7650   34.1620   45.2620 C   0  0  0  0  0  0  0  0  0  0  0  0
   59.5970   34.8930   46.1180 C   0  0  0  0  0  0  0  0  0  0  0  0
   59.6910   34.5480   47.4690 C   0  0  0  0  0  0  0  0  0  0  0  0
   58.9600   33.4650   47.9650 C   0  0  0  0  0  0  0  0  0  0  0  0
   58.1180   32.7410   47.1160 C   0  0  0  0  0  0  0  0  0  0  0  0
   58.7882   26.7675   46.9230 H   0  0  0  0  0  0  0  0  0  0  0  0
   57.4213   28.9037   48.3437 H   0  0  0  0  0  0  0  0  0  0  0  0
   58.6610   29.0750   45.0490 H   0  0  0  0  0  0  0  0  0  0  0  0
   61.8246   30.6712   45.4689 H   0  0  0  0  0  0  0  0  0  0  0  0
   62.7899   31.5468   47.5867 H   0  0  0  0  0  0  0  0  0  0  0  0
   61.6522   31.1088   49.7521 H   0  0  0  0  0  0  0  0  0  0  0  0
   58.4914   29.1124   50.0856 H   0  0  0  0  0  0  0  0  0  0  0  0
   60.1222   29.2805   50.8664 H   0  0  0  0  0  0  0  0  0  0  0  0
   56.9010   30.3722   51.2485 H   0  0  0  0  0  0  0  0  0  0  0  0
   56.2029   32.4982   52.3559 H   0  0  0  0  0  0  0  0  0  0  0  0
   60.1912   34.0881   51.8411 H   0  0  0  0  0  0  0  0  0  0  0  0
   60.8882   31.9868   50.6976 H   0  0  0  0  0  0  0  0  0  0  0  0
   58.5720   30.9971   44.0074 H   0  0  0  0  0  0  0  0  0  0  0  0
   56.1497   32.6431   44.6453 H   0  0  0  0  0  0  0  0  0  0  0  0
   58.7063   34.4269   44.1960 H   0  0  0  0  0  0  0  0  0  0  0  0
   60.1781   35.7409   45.7264 H   0  0  0  0  0  0  0  0  0  0  0  0
   60.3398   35.1284   48.1415 H   0  0  0  0  0  0  0  0  0  0  0  0
   59.0473   33.1821   49.0244 H   0  0  0  0  0  0  0  0  0  0  0  0
   57.5410   31.8924   47.5121 H   0  0  0  0  0  0  0  0  0  0  0  0
  1  2  2  0
  2  3  1  0
  3  4  2  3
  4  5  1  0
  5  6  2  0
  6  7  1  0
  6  8  1  0
  8  9  2  0
  9 10  1  0
 10 11  2  0
 11 12  1  0
 12 13  1  0
 13 14  2  0
 14 15  1  0
 15 16  2  0
 16 17  1  0
 16 18  1  0
 18 19  2  0
  2 20  1  0
 20 21  1  0
 21 22  2  0
 21 23  2  0
 21 24  1  0
 24 25  2  3
 25 26  1  0
 26 27  2  0
 27 28  1  0
 28 29  2  0
 29 30  1  0
 30 31  2  0
 11  5  1  0
 19 13  1  0
 31 26  1  0
  3 32  1  0
  4 33  1  0
  7 34  1  0
  8 35  1  0
  9 36  1  0
 10 37  1  0
 12 38  1  0
 12 39  1  0
 14 40  1  0
 15 41  1  0
 18 42  1  0
 19 43  1  0
 24 44  1  0
 25 45  1  0
 27 46  1  0
 28 47  1  0
 29 48  1  0
 30 49  1  0
 31 50  1  0
M  CHG  1  20  -1
M  END
>  <UniqueID>  (27) 
26

>  <SMILES>  (27) 
O=C(C=Cc1c(O)cccc1Cc1ccc(F)cc1)[N-]S(=O)(=O)C=Cc1ccccc1

>  <Energy>  (27) 
67.89196838278683

>  <Genealogy>  (27) 
O=C(C=Cc1c(O)cccc1Cc1ccc(F)cc1)[N-]S(=O)(=O)C=Cc1ccccc1 (protonated)
O=C(C=Cc1c(O)cccc1Cc1ccc(F)cc1)[N-]S(=O)(=O)C=Cc1ccccc1 (3D coordinates assigned)
O=C(C=Cc1c(O)cccc1Cc1ccc(F)cc1)[N-]S(=O)(=O)C=Cc1ccccc1 (optimized conformer: 67.89196838278683 kcal/mol)

>  <smiles>  (27) 
O=C(C=Cc1c(O)cccc1Cc1ccc(F)cc1)NS(=O)(=O)C=Cc1ccccc1

>  <score_type>  (27) 
oracle

>  <origin>  (27) 
adg

>  <m_score__min__energy>  (27) 
-12.529999999999999

>  <m_primary>  (27) 
energy

$$$$
27:0
     RDKit          3D

 65 70  0  0  0  0  0  0  0  0999 V2000
   49.9080   29.1010   53.4010 C   0  0  0  0  0  0  0  0  0  0  0  0
   50.3110   30.3670   53.3050 C   0  0  0  0  0  0  0  0  0  0  0  0
   51.6750   30.7400   52.8700 C   0  0  0  0  0  0  0  0  0  0  0  0
   51.9170   31.6530   51.8180 C   0  0  0  0  0  0  0  0  0  0  0  0
   50.8680   32.3160   51.1880 O   0  0  0  0  0  0  0  0  0  0  0  0
   53.2300   31.9320   51.4130 C   0  0  0  0  0  0  0  0  0  0  0  0
   54.3130   31.3140   52.0530 C   0  0  0  0  0  0  0  0  0  0  0  0
   55.4870   31.5730   51.6710 O   0  0  0  0  0  0  0  0  0  0  0  0
   54.0580   30.4550   53.0870 N   0  0  0  0  0  0  0  0  0  0  0  0
   52.7930   30.1850   53.5090 C   0  0  0  0  0  0  0  0  0  0  0  0
   52.7330   29.3160   54.5480 N   0  0  0  0  0  0  0  0  0  0  0  0
   54.0320   29.0330   54.7700 C   0  0  0  0  0  0  0  0  0  0  0  0
   54.5300   28.1580   55.7300 C   0  0  0  0  0  0  0  0  0  0  0  0
   55.9150   27.9520   55.7760 C   0  0  0  0  0  0  0  0  0  0  0  0
   56.7690   28.6070   54.8650 C   0  0  0  0  0  0  0  0  0  0  0  0
   56.2510   29.5050   53.8960 C   0  0  0  0  0  0  0  0  0  0  0  0
   57.0830   30.1690   52.9780 O   0  0  0  0  0  0  0  0  0  0  0  0
   57.6470   29.5900   51.8030 C   0  0  0  0  0  0  0  0  0  0  0  0
   58.1270   30.6670   50.8710 C   0  0  0  0  0  0  0  0  0  0  0  0
   58.2700   31.9800   51.3420 C   0  0  0  0  0  0  0  0  0  0  0  0
   58.7150   32.9930   50.4890 C   0  0  0  0  0  0  0  0  0  0  0  0
   59.0040   32.7150   49.1390 C   0  0  0  0  0  0  0  0  0  0  0  0
   59.5050   33.7720   48.2260 C   0  0  0  0  0  0  0  0  0  0  0  0
   58.7920   34.1320   47.2500 O   0  0  0  0  0  0  0  0  0  0  0  0
   60.7980   34.3800   48.3850 N   0  0  0  0  0  0  0  0  0  0  0  0
   61.9500   33.7820   48.9970 C   0  0  0  0  0  0  0  0  0  0  0  0
   62.2200   34.0550   50.3440 C   0  0  0  0  0  0  0  0  0  0  0  0
   63.3310   33.4850   50.9740 C   0  0  0  0  0  0  0  0  0  0  0  0
   64.1780   32.6110   50.2700 C   0  0  0  0  0  0  0  0  0  0  0  0
   65.3170   32.0190   50.9310 N   0  0  0  0  0  0  0  0  0  0  0  0
   65.3700   30.5670   51.1570 C   0  0  0  0  0  0  0  0  0  0  0  0
   66.1490   30.2130   52.4500 C   0  0  0  0  0  0  0  0  0  0  0  0
   66.8330   31.3120   53.0340 O   0  0  0  0  0  0  0  0  0  0  0  0
   67.5130   32.0480   52.0410 C   0  0  0  0  0  0  0  0  0  0  0  0
   66.4980   32.8450   51.2240 C   0  0  0  0  0  0  0  0  0  0  0  0
   63.8940   32.3240   48.9210 C   0  0  0  0  0  0  0  0  0  0  0  0
   62.7860   32.9000   48.2900 C   0  0  0  0  0  0  0  0  0  0  0  0
   58.8580   31.3960   48.6700 C   0  0  0  0  0  0  0  0  0  0  0  0
   58.4230   30.3820   49.5290 C   0  0  0  0  0  0  0  0  0  0  0  0
   54.8520   29.7050   53.8900 C   0  0  0  0  0  0  0  0  0  0  0  0
   48.8831   28.8734   53.7293 H   0  0  0  0  0  0  0  0  0  0  0  0
   50.6001   28.2831   53.1519 H   0  0  0  0  0  0  0  0  0  0  0  0
   49.6009   31.1676   53.5595 H   0  0  0  0  0  0  0  0  0  0  0  0
   53.4109   32.6387   50.5897 H   0  0  0  0  0  0  0  0  0  0  0  0
   53.8569   27.6435   56.4316 H   0  0  0  0  0  0  0  0  0  0  0  0
   56.3402   27.2730   56.5298 H   0  0  0  0  0  0  0  0  0  0  0  0
   57.8521   28.4192   54.9060 H   0  0  0  0  0  0  0  0  0  0  0  0
   58.4955   28.9494   52.0852 H   0  0  0  0  0  0  0  0  0  0  0  0
   56.8772   28.9919   51.2933 H   0  0  0  0  0  0  0  0  0  0  0  0
   58.0303   32.2139   52.3898 H   0  0  0  0  0  0  0  0  0  0  0  0
   58.8406   34.0155   50.8748 H   0  0  0  0  0  0  0  0  0  0  0  0
   61.5536   34.7223   50.9103 H   0  0  0  0  0  0  0  0  0  0  0  0
   63.5435   33.7220   52.0269 H   0  0  0  0  0  0  0  0  0  0  0  0
   64.3430   30.1825   51.2436 H   0  0  0  0  0  0  0  0  0  0  0  0
   65.8940   30.1076   50.3059 H   0  0  0  0  0  0  0  0  0  0  0  0
   65.4338   29.8198   53.1875 H   0  0  0  0  0  0  0  0  0  0  0  0
   66.9154   29.4765   52.1670 H   0  0  0  0  0  0  0  0  0  0  0  0
   68.2252   32.7379   52.5172 H   0  0  0  0  0  0  0  0  0  0  0  0
   68.0607   31.3597   51.3805 H   0  0  0  0  0  0  0  0  0  0  0  0
   66.1877   33.7317   51.7962 H   0  0  0  0  0  0  0  0  0  0  0  0
   66.9639   33.1522   50.2760 H   0  0  0  0  0  0  0  0  0  0  0  0
   64.5484   31.6416   48.3588 H   0  0  0  0  0  0  0  0  0  0  0  0
   62.5685   32.6622   47.2383 H   0  0  0  0  0  0  0  0  0  0  0  0
   59.0877   31.1611   47.6202 H   0  0  0  0  0  0  0  0  0  0  0  0
   58.3122   29.3550   49.1508 H   0  0  0  0  0  0  0  0  0  0  0  0
  1  2  2  0
  2  3  1  0
  3  4  1  0
  4  5  1  0
  4  6  2  0
  6  7  1  0
  7  8  2  0
  7  9  1  0
  9 10  1  0
 10 11  1  0
 11 12  1  0
 12 13  2  0
 13 14  1  0
 14 15  2  0
 15 16  1  0
 16 17  1  0
 17 18  1  0
 18 19  1  0
 19 20  2  0
 20 21  1  0
 21 22  2  0
 22 23  1  0
 23 24  2  0
 23 25  1  0
 25 26  1  0
 26 27  2  0
 27 28  1  0
 28 29  2  0
 29 30  1  0
 30 31  1  0
 31 32  1  0
 32 33  1  0
 33 34  1  0
 34 35  1  0
 29 36  1  0
 36 37  2  0
 22 38  1  0
 38 39  2  0
 16 40  2  0
 10  3  2  0
 40 12  1  0
 40  9  1  0
 39 19  1  0
 37 26  1  0
 35 30  1  0
  1 41  1  0
  1 42  1  0
  2 43  1  0
  6 44  1  0
 13 45  1  0
 14 46  1  0
 15 47  1  0
 18 48  1  0
 18 49  1  0
 20 50  1  0
 21 51  1  0
 27 52  1  0
 28 53  1  0
 31 54  1  0
 31 55  1  0
 32 56  1  0
 32 57  1  0
 34 58  1  0
 34 59  1  0
 35 60  1  0
 35 61  1  0
 36 62  1  0
 37 63  1  0
 38 64  1  0
 39 65  1  0
M  CHG  3   5  -1  11  -1  25  -1
M  END
>  <UniqueID>  (28) 
27

>  <SMILES>  (28) 
C=Cc1c([O-])cc(=O)n2c1[n-]c1cccc(OCc3ccc(C(=O)[N-]c4ccc(N5CCOCC5)cc4)cc3)c12

>  <Energy>  (28) 
140.47022263269864

>  <Genealogy>  (28) 
C=Cc1c([O-])cc(=O)n2c1[n-]c1cccc(OCc3ccc(C(=O)[N-]c4ccc(N5CCOCC5)cc4)cc3)c12 (protonated)
C=Cc1c([O-])cc(=O)n2c1[n-]c1cccc(OCc3ccc(C(=O)[N-]c4ccc(N5CCOCC5)cc4)cc3)c12 (3D coordinates assigned)
C=Cc1c([O-])cc(=O)n2c1[n-]c1cccc(OCc3ccc(C(=O)[N-]c4ccc(N5CCOCC5)cc4)cc3)c12 (nonaromatic ring conformer: 140.47022263269864 kcal/mol)

>  <smiles>  (28) 
C=Cc1c(O)cc(=O)n2c1[nH]c1cccc(OCc3ccc(C(=O)Nc4ccc(N5CCOCC5)cc4)cc3)c12

>  <score_type>  (28) 
oracle

>  <origin>  (28) 
adg

>  <m_score__min__energy>  (28) 
-13.09

>  <m_primary>  (28) 
energy

$$$$
28:0
     RDKit          3D

 19 19  0  0  0  0  0  0  0  0999 V2000
   55.1460   29.3300   44.8610 N   0  0  0  0  0  0  0  0  0  0  0  0
   56.2830   30.0970   44.4760 C   0  0  0  0  0  0  0  0  0  0  0  0
   56.3430   31.3230   44.7610 O   0  0  0  0  0  0  0  0  0  0  0  0
   57.4190   29.4420   43.7560 C   0  0  0  0  0  0  0  0  0  0  0  0
   58.7940   29.0960   44.9070 S   0  0  0  0  0  0  0  0  0  0  0  0
   58.1860   27.4810   45.3830 C   0  0  0  0  0  0  0  0  0  0  0  0
   56.8640   27.3040   45.6450 N   0  0  0  0  0  0  0  0  0  0  0  0
   56.3820   26.0870   46.0060 C   0  0  0  0  0  0  0  0  0  0  0  0
   55.1540   25.9440   46.2400 O   0  0  0  0  0  0  0  0  0  0  0  0
   57.2500   24.9980   46.1130 C   0  0  0  0  0  0  0  0  0  0  0  0
   58.6080   25.2000   45.8460 C   0  0  0  0  0  0  0  0  0  0  0  0
   59.5350   24.1180   45.9450 N   0  0  0  0  0  0  0  0  0  0  0  0
   59.0460   26.4360   45.4880 N   0  0  0  0  0  0  0  0  0  0  0  0
   55.2130   28.6170   45.6210 H   0  0  0  0  0  0  0  0  0  0  0  0
   57.0704   28.4967   43.3144 H   0  0  0  0  0  0  0  0  0  0  0  0
   57.7779   30.1201   42.9678 H   0  0  0  0  0  0  0  0  0  0  0  0
   56.8744   24.0049   46.4005 H   0  0  0  0  0  0  0  0  0  0  0  0
   59.2490   23.1540   45.6640 H   0  0  0  0  0  0  0  0  0  0  0  0
   60.5050   24.2730   46.2970 H   0  0  0  0  0  0  0  0  0  0  0  0
  1  2  1  0
  2  3  2  0
  2  4  1  0
  4  5  1  0
  5  6  1  0
  6  7  2  0
  7  8  1  0
  8  9  2  0
  8 10  1  0
 10 11  2  0
 11 12  1  0
 11 13  1  0
 13  6  1  0
  1 14  1  0
  4 15  1  0
  4 16  1  0
 10 17  1  0
 12 18  1  0
 12 19  1  0
M  CHG  2   1  -1  13  -1
M  END
>  <UniqueID>  (29) 
28

>  <SMILES>  (29) 
[NH-]C(=O)CSc1nc(=O)cc(N)[n-]1

>  <Energy>  (29) 
11.710279894482046

>  <Genealogy>  (29) 
[NH-]C(=O)CSc1nc(=O)cc(N)[n-]1 (protonated)
[NH-]C(=O)CSc1nc(=O)cc(N)[n-]1 (3D coordinates assigned)
[NH-]C(=O)CSc1nc(=O)cc(N)[n-]1 (optimized conformer: 11.710279894482046 kcal/mol)

>  <smiles>  (29) 
NC(=O)CSc1nc(=O)cc(N)[nH]1

>  <score_type>  (29) 
oracle

>  <origin>  (29) 
adg

>  <m_score__min__energy>  (29) 
-10.210000000000001

>  <m_primary>  (29) 
energy

$$$$
29:0
     RDKit          3D

 24 25  0  0  0  0  0  0  0  0999 V2000
   54.3550   26.2900   45.9770 O   0  0  0  0  0  0  0  0  0  0  0  0
   55.5940   26.3490   46.1930 C   0  0  0  0  0  0  0  0  0  0  0  0
   56.1680   25.4270   47.0590 O   0  0  0  0  0  0  0  0  0  0  0  0
   56.4120   27.3560   45.4800 C   0  0  0  0  0  0  0  0  0  0  0  0
   55.8900   28.6060   45.3370 N   0  0  0  0  0  0  0  0  0  0  0  0
   56.5260   29.5960   44.6600 C   0  0  0  0  0  0  0  0  0  0  0  0
   55.9280   30.8500   44.5590 O   0  0  0  0  0  0  0  0  0  0  0  0
   57.7660   29.3470   44.0710 C   0  0  0  0  0  0  0  0  0  0  0  0
   58.3490   28.0860   44.2010 C   0  0  0  0  0  0  0  0  0  0  0  0
   59.4800   27.8750   43.6860 O   0  0  0  0  0  0  0  0  0  0  0  0
   57.6830   27.0690   44.9150 C   0  0  0  0  0  0  0  0  0  0  0  0
   58.3540   25.7630   45.1080 C   0  0  0  0  0  0  0  0  0  0  0  0
   57.8020   24.5960   44.5550 C   0  0  0  0  0  0  0  0  0  0  0  0
   58.4450   23.3660   44.7260 C   0  0  0  0  0  0  0  0  0  0  0  0
   59.6450   23.2950   45.4410 C   0  0  0  0  0  0  0  0  0  0  0  0
   60.2820   22.0710   45.6090 O   0  0  0  0  0  0  0  0  0  0  0  0
   60.2040   24.4550   45.9860 C   0  0  0  0  0  0  0  0  0  0  0  0
   59.5630   25.6870   45.8170 C   0  0  0  0  0  0  0  0  0  0  0  0
   55.2360   31.1620   45.2310 H   0  0  0  0  0  0  0  0  0  0  0  0
   58.2806   30.1395   43.5079 H   0  0  0  0  0  0  0  0  0  0  0  0
   56.8620   24.6496   43.9862 H   0  0  0  0  0  0  0  0  0  0  0  0
   58.0063   22.4528   44.2975 H   0  0  0  0  0  0  0  0  0  0  0  0
   61.1480   24.3989   46.5478 H   0  0  0  0  0  0  0  0  0  0  0  0
   60.0080   26.5992   46.2412 H   0  0  0  0  0  0  0  0  0  0  0  0
  1  2  2  0
  2  3  1  0
  2  4  1  0
  4  5  1  0
  5  6  1  0
  6  7  1  0
  6  8  2  0
  8  9  1  0
  9 10  2  0
  9 11  1  0
 11 12  1  0
 12 13  2  0
 13 14  1  0
 14 15  2  0
 15 16  1  0
 15 17  1  0
 17 18  2  0
 11  4  2  0
 18 12  1  0
  7 19  1  0
  8 20  1  0
 13 21  1  0
 14 22  1  0
 17 23  1  0
 18 24  1  0
M  CHG  3   3  -1   5  -1  16  -1
M  END
>  <UniqueID>  (30) 
29

>  <SMILES>  (30) 
O=C([O-])c1[n-]c(O)cc(=O)c1-c1ccc([O-])cc1

>  <Energy>  (30) 
36.84790160224028

>  <Genealogy>  (30) 
O=C([O-])c1[n-]c(O)cc(=O)c1-c1ccc([O-])cc1 (protonated)
O=C([O-])c1[n-]c(O)cc(=O)c1-c1ccc([O-])cc1 (3D coordinates assigned)
O=C([O-])c1[n-]c(O)cc(=O)c1-c1ccc([O-])cc1 (optimized conformer: 36.84790160224028 kcal/mol)

>  <smiles>  (30) 
O=C(O)c1[nH]c(O)cc(=O)c1-c1ccc(O)cc1

>  <score_type>  (30) 
oracle

>  <origin>  (30) 
adg

>  <m_score__min__energy>  (30) 
-11.77

>  <m_primary>  (30) 
energy

$$$$
30:0
     RDKit          3D

 39 40  0  0  0  0  0  0  0  0999 V2000
   60.7750   26.7310   49.3670 C   0  0  0  0  0  0  0  0  0  0  0  0
   60.4510   26.6620   47.8760 C   0  0  0  0  0  0  0  0  0  0  0  0
   59.5460   27.7570   47.4640 N   0  0  0  0  0  0  0  0  0  0  0  0
   59.2070   28.7340   48.5290 C   0  0  0  0  0  0  0  0  0  0  0  0
   59.2050   30.1260   48.0500 C   0  0  0  0  0  0  0  0  0  0  0  0
   59.2330   31.2730   47.6800 C   0  0  0  0  0  0  0  0  0  0  0  0
   59.2560   32.6300   47.2060 C   0  0  0  0  0  0  0  0  0  0  0  0
   59.9580   33.6110   47.9190 C   0  0  0  0  0  0  0  0  0  0  0  0
   60.0030   34.9250   47.4440 C   0  0  0  0  0  0  0  0  0  0  0  0
   59.3480   35.2610   46.2550 C   0  0  0  0  0  0  0  0  0  0  0  0
   58.6480   34.2840   45.5410 C   0  0  0  0  0  0  0  0  0  0  0  0
   58.6030   32.9690   46.0130 C   0  0  0  0  0  0  0  0  0  0  0  0
   58.3820   27.2970   46.6670 C   0  0  0  0  0  0  0  0  0  0  0  0
   57.8820   28.3170   45.6600 C   0  0  0  0  0  0  0  0  0  0  0  0
   58.7870   29.2340   45.0970 C   0  0  0  0  0  0  0  0  0  0  0  0
   58.3440   30.2130   44.2050 C   0  0  0  0  0  0  0  0  0  0  0  0
   56.9950   30.2820   43.8560 C   0  0  0  0  0  0  0  0  0  0  0  0
   56.0840   29.3620   44.3800 C   0  0  0  0  0  0  0  0  0  0  0  0
   54.7440   29.4460   44.0020 O   0  0  0  0  0  0  0  0  0  0  0  0
   56.5260   28.3680   45.2730 C   0  0  0  0  0  0  0  0  0  0  0  0
   55.6190   27.4320   45.7620 O   0  0  0  0  0  0  0  0  0  0  0  0
   59.8626   26.5367   49.9499 H   0  0  0  0  0  0  0  0  0  0  0  0
   61.5350   25.9746   49.6125 H   0  0  0  0  0  0  0  0  0  0  0  0
   61.1608   27.7314   49.6125 H   0  0  0  0  0  0  0  0  0  0  0  0
   61.3871   26.7381   47.3034 H   0  0  0  0  0  0  0  0  0  0  0  0
   59.9458   25.7052   47.6777 H   0  0  0  0  0  0  0  0  0  0  0  0
   58.2063   28.4954   48.9185 H   0  0  0  0  0  0  0  0  0  0  0  0
   59.9794   28.6542   49.3081 H   0  0  0  0  0  0  0  0  0  0  0  0
   60.4743   33.3468   48.8537 H   0  0  0  0  0  0  0  0  0  0  0  0
   60.5534   35.6944   48.0053 H   0  0  0  0  0  0  0  0  0  0  0  0
   59.3836   36.2949   45.8812 H   0  0  0  0  0  0  0  0  0  0  0  0
   58.1320   34.5503   44.6067 H   0  0  0  0  0  0  0  0  0  0  0  0
   58.0552   32.2003   45.4482 H   0  0  0  0  0  0  0  0  0  0  0  0
   58.6737   26.3871   46.1221 H   0  0  0  0  0  0  0  0  0  0  0  0
   57.5601   27.1204   47.3764 H   0  0  0  0  0  0  0  0  0  0  0  0
   59.8534   29.1798   45.3615 H   0  0  0  0  0  0  0  0  0  0  0  0
   59.0595   30.9306   43.7771 H   0  0  0  0  0  0  0  0  0  0  0  0
   56.6473   31.0643   43.1652 H   0  0  0  0  0  0  0  0  0  0  0  0
   54.0130   28.9450   44.4910 H   0  0  0  0  0  0  0  0  0  0  0  0
  1  2  1  0
  2  3  1  0
  3  4  1  0
  4  5  1  0
  5  6  3  0
  6  7  1  0
  7  8  2  0
  8  9  1  0
  9 10  2  0
 10 11  1  0
 11 12  2  0
  3 13  1  0
 13 14  1  0
 14 15  2  0
 15 16  1  0
 16 17  2  0
 17 18  1  0
 18 19  1  0
 18 20  2  0
 20 21  1  0
 12  7  1  0
 20 14  1  0
  1 22  1  0
  1 23  1  0
  1 24  1  0
  2 25  1  0
  2 26  1  0
  4 27  1  0
  4 28  1  0
  8 29  1  0
  9 30  1  0
 10 31  1  0
 11 32  1  0
 12 33  1  0
 13 34  1  0
 13 35  1  0
 15 36  1  0
 16 37  1  0
 17 38  1  0
 19 39  1  0
M  CHG  1  21  -1
M  END
>  <UniqueID>  (31) 
30

>  <SMILES>  (31) 
CCN(CC#Cc1ccccc1)Cc1cccc(O)c1[O-]

>  <Energy>  (31) 
39.24346575890246

>  <Genealogy>  (31) 
CCN(CC#Cc1ccccc1)Cc1cccc(O)c1[O-] (protonated)
CCN(CC#Cc1ccccc1)Cc1cccc(O)c1[O-] (3D coordinates assigned)
CCN(CC#Cc1ccccc1)Cc1cccc(O)c1[O-] (optimized conformer: 39.24346575890246 kcal/mol)

>  <smiles>  (31) 
CCN(CC#Cc1ccccc1)Cc1cccc(O)c1O

>  <score_type>  (31) 
oracle

>  <origin>  (31) 
adg

>  <m_score__min__energy>  (31) 
-11.73

>  <m_primary>  (31) 
energy

$$$$
31:0
     RDKit          3D

 45 48  0  0  0  0  0  0  0  0999 V2000
   56.5870   30.8010   44.6890 O   0  0  0  0  0  0  0  0  0  0  0  0
   57.7930   30.8600   45.0550 C   0  0  0  0  0  0  0  0  0  0  0  0
   58.5800   29.6600   45.1160 N   0  0  0  0  0  0  0  0  0  0  0  0
   58.0250   28.3450   45.2980 C   0  0  0  0  0  0  0  0  0  0  0  0
   58.8770   27.2300   45.2820 C   0  0  0  0  0  0  0  0  0  0  0  0
   58.3630   25.9440   45.4790 C   0  0  0  0  0  0  0  0  0  0  0  0
   56.9980   25.7620   45.7090 C   0  0  0  0  0  0  0  0  0  0  0  0
   56.1440   26.8680   45.7500 C   0  0  0  0  0  0  0  0  0  0  0  0
   54.7880   26.6880   45.9940 O   0  0  0  0  0  0  0  0  0  0  0  0
   56.6530   28.1560   45.5510 C   0  0  0  0  0  0  0  0  0  0  0  0
   58.4000   32.1800   45.3470 C   0  0  0  0  0  0  0  0  0  0  0  0
   57.7130   33.3550   45.0030 C   0  0  0  0  0  0  0  0  0  0  0  0
   58.2780   34.6030   45.2600 C   0  0  0  0  0  0  0  0  0  0  0  0
   59.5280   34.6730   45.8700 C   0  0  0  0  0  0  0  0  0  0  0  0
   60.1790   33.5340   46.2180 N   0  0  0  0  0  0  0  0  0  0  0  0
   59.6500   32.2970   45.9920 C   0  0  0  0  0  0  0  0  0  0  0  0
   60.3490   31.1450   46.3850 O   0  0  0  0  0  0  0  0  0  0  0  0
   60.0960   30.3950   47.5420 C   0  0  0  0  0  0  0  0  0  0  0  0
   60.6380   29.1100   47.6340 C   0  0  0  0  0  0  0  0  0  0  0  0
   60.4100   28.3250   48.7640 C   0  0  0  0  0  0  0  0  0  0  0  0
   59.6190   28.8120   49.8080 C   0  0  0  0  0  0  0  0  0  0  0  0
   59.0320   30.0890   49.7230 C   0  0  0  0  0  0  0  0  0  0  0  0
   58.1810   30.6240   50.8180 C   0  0  0  0  0  0  0  0  0  0  0  0
   58.1450   31.9960   51.1260 C   0  0  0  0  0  0  0  0  0  0  0  0
   57.3320   32.4480   52.1680 C   0  0  0  0  0  0  0  0  0  0  0  0
   56.5670   31.5380   52.8970 C   0  0  0  0  0  0  0  0  0  0  0  0
   56.6310   30.1830   52.5750 C   0  0  0  0  0  0  0  0  0  0  0  0
   57.4270   29.7610   51.5590 N   0  0  0  0  0  0  0  0  0  0  0  0
   59.2790   30.8760   48.5830 C   0  0  0  0  0  0  0  0  0  0  0  0
   59.6050   29.7390   44.9280 H   0  0  0  0  0  0  0  0  0  0  0  0
   59.9552   27.3681   45.1136 H   0  0  0  0  0  0  0  0  0  0  0  0
   59.0358   25.0742   45.4526 H   0  0  0  0  0  0  0  0  0  0  0  0
   56.5950   24.7494   45.8578 H   0  0  0  0  0  0  0  0  0  0  0  0
   55.9787   29.0241   45.5924 H   0  0  0  0  0  0  0  0  0  0  0  0
   56.7230   33.2904   44.5279 H   0  0  0  0  0  0  0  0  0  0  0  0
   57.7421   35.5231   44.9839 H   0  0  0  0  0  0  0  0  0  0  0  0
   59.9880   35.6520   46.0699 H   0  0  0  0  0  0  0  0  0  0  0  0
   61.2490   28.7149   46.8090 H   0  0  0  0  0  0  0  0  0  0  0  0
   60.8536   27.3208   48.8336 H   0  0  0  0  0  0  0  0  0  0  0  0
   59.4538   28.1934   50.7024 H   0  0  0  0  0  0  0  0  0  0  0  0
   58.7534   32.7086   50.5498 H   0  0  0  0  0  0  0  0  0  0  0  0
   57.2952   33.5197   52.4131 H   0  0  0  0  0  0  0  0  0  0  0  0
   55.9206   31.8852   53.7165 H   0  0  0  0  0  0  0  0  0  0  0  0
   56.0357   29.4545   53.1450 H   0  0  0  0  0  0  0  0  0  0  0  0
   58.8294   31.8768   48.5043 H   0  0  0  0  0  0  0  0  0  0  0  0
  1  2  2  0
  2  3  1  0
  3  4  1  0
  4  5  2  0
  5  6  1  0
  6  7  2  0
  7  8  1  0
  8  9  1  0
  8 10  2  0
  2 11  1  0
 11 12  2  0
 12 13  1  0
 13 14  2  0
 14 15  1  0
 15 16  2  0
 16 17  1  0
 17 18  1  0
 18 19  2  0
 19 20  1  0
 20 21  2  0
 21 22  1  0
 22 23  1  0
 23 24  2  0
 24 25  1  0
 25 26  2  0
 26 27  1  0
 27 28  2  0
 22 29  2  0
 10  4  1  0
 16 11  1  0
 29 18  1  0
 28 23  1  0
  3 30  1  0
  5 31  1  0
  6 32  1  0
  7 33  1  0
 10 34  1  0
 12 35  1  0
 13 36  1  0
 14 37  1  0
 19 38  1  0
 20 39  1  0
 21 40  1  0
 24 41  1  0
 25 42  1  0
 26 43  1  0
 27 44  1  0
 29 45  1  0
M  CHG  1   9  -1
M  END
>  <UniqueID>  (32) 
31

>  <SMILES>  (32) 
O=C(Nc1cccc([O-])c1)c1cccnc1Oc1cccc(-c2ccccn2)c1

>  <Energy>  (32) 
67.12496757817122

>  <Genealogy>  (32) 
O=C(Nc1cccc([O-])c1)c1cccnc1Oc1cccc(-c2ccccn2)c1 (protonated)
O=C(Nc1cccc([O-])c1)c1cccnc1Oc1cccc(-c2ccccn2)c1 (3D coordinates assigned)
O=C(Nc1cccc([O-])c1)c1cccnc1Oc1cccc(-c2ccccn2)c1 (optimized conformer: 67.12496757817122 kcal/mol)

>  <smiles>  (32) 
O=C(Nc1cccc(O)c1)c1cccnc1Oc1cccc(-c2ccccn2)c1

>  <score_type>  (32) 
oracle

>  <origin>  (32) 
adg

>  <m_score__min__energy>  (32) 
-12.699999999999999

>  <m_primary>  (32) 
energy

$$$$
32:0
     RDKit          3D

 50 52  0  0  0  0  0  0  0  0999 V2000
   60.1560   29.5050   50.4680 C   0  0  0  0  0  0  0  0  0  0  0  0
   60.8250   29.6110   49.2170 O   0  0  0  0  0  0  0  0  0  0  0  0
   60.8240   30.7250   48.3600 C   0  0  0  0  0  0  0  0  0  0  0  0
   61.9770   31.5080   48.0790 C   0  0  0  0  0  0  0  0  0  0  0  0
   63.2200   31.1200   48.5820 O   0  0  0  0  0  0  0  0  0  0  0  0
   61.8530   32.6620   47.2650 C   0  0  0  0  0  0  0  0  0  0  0  0
   62.9910   33.5610   46.9810 C   0  0  0  0  0  0  0  0  0  0  0  0
   64.1610   33.4910   47.7940 N   0  0  0  0  0  0  0  0  0  0  0  0
   62.9530   34.3670   46.0100 O   0  0  0  0  0  0  0  0  0  0  0  0
   60.6150   32.9700   46.6860 C   0  0  0  0  0  0  0  0  0  0  0  0
   59.4950   32.1540   46.8930 C   0  0  0  0  0  0  0  0  0  0  0  0
   58.2400   32.4540   46.2540 N   0  0  0  0  0  0  0  0  0  0  0  0
   57.7840   31.7780   45.0730 C   0  0  0  0  0  0  0  0  0  0  0  0
   57.1460   30.5750   44.7980 C   0  0  0  0  0  0  0  0  0  0  0  0
   56.5970   29.5060   45.5770 N   0  0  0  0  0  0  0  0  0  0  0  0
   57.2600   28.2340   45.7050 C   0  0  0  0  0  0  0  0  0  0  0  0
   58.6520   28.1650   45.5780 C   0  0  0  0  0  0  0  0  0  0  0  0
   59.3350   26.9670   45.7990 C   0  0  0  0  0  0  0  0  0  0  0  0
   58.6240   25.8100   46.1150 C   0  0  0  0  0  0  0  0  0  0  0  0
   57.2200   25.8370   46.1790 C   0  0  0  0  0  0  0  0  0  0  0  0
   56.4670   24.5970   46.4870 C   0  0  0  0  0  0  0  0  0  0  0  0
   55.8820   24.5130   47.6040 O   0  0  0  0  0  0  0  0  0  0  0  0
   56.3610   23.5110   45.5360 N   0  0  0  0  0  0  0  0  0  0  0  0
   55.7840   22.2230   45.9690 C   0  0  0  0  0  0  0  0  0  0  0  0
   56.7080   23.7210   44.1220 C   0  0  0  0  0  0  0  0  0  0  0  0
   56.5370   27.0530   45.9690 C   0  0  0  0  0  0  0  0  0  0  0  0
   55.1440   27.0760   45.9920 O   0  0  0  0  0  0  0  0  0  0  0  0
   57.2270   30.8410   43.4450 C   0  0  0  0  0  0  0  0  0  0  0  0
   56.8980   30.2190   42.3860 O   0  0  0  0  0  0  0  0  0  0  0  0
   57.7630   32.0870   43.7280 C   0  0  0  0  0  0  0  0  0  0  0  0
   58.1170   33.0770   43.0410 O   0  0  0  0  0  0  0  0  0  0  0  0
   59.6000   31.0590   47.7640 C   0  0  0  0  0  0  0  0  0  0  0  0
   58.5080   30.2910   48.0150 F   0  0  0  0  0  0  0  0  0  0  0  0
   60.8843   29.6204   51.2842 H   0  0  0  0  0  0  0  0  0  0  0  0
   59.3926   30.2934   50.5435 H   0  0  0  0  0  0  0  0  0  0  0  0
   59.6737   28.5192   50.5435 H   0  0  0  0  0  0  0  0  0  0  0  0
   64.0830   31.6140   48.3910 H   0  0  0  0  0  0  0  0  0  0  0  0
   64.6960   32.6000   47.8990 H   0  0  0  0  0  0  0  0  0  0  0  0
   60.5206   33.8681   46.0579 H   0  0  0  0  0  0  0  0  0  0  0  0
   57.6260   33.1970   46.6590 H   0  0  0  0  0  0  0  0  0  0  0  0
   55.6370   29.6390   45.9990 H   0  0  0  0  0  0  0  0  0  0  0  0
   59.2163   29.0674   45.3001 H   0  0  0  0  0  0  0  0  0  0  0  0
   60.4320   26.9363   45.7239 H   0  0  0  0  0  0  0  0  0  0  0  0
   59.1637   24.8726   46.3150 H   0  0  0  0  0  0  0  0  0  0  0  0
   55.7651   22.1807   47.0680 H   0  0  0  0  0  0  0  0  0  0  0  0
   54.7589   22.1315   45.5808 H   0  0  0  0  0  0  0  0  0  0  0  0
   56.3982   21.3971   45.5808 H   0  0  0  0  0  0  0  0  0  0  0  0
   57.6474   24.2895   44.0555 H   0  0  0  0  0  0  0  0  0  0  0  0
   56.8331   22.7469   43.6266 H   0  0  0  0  0  0  0  0  0  0  0  0
   55.9030   24.2837   43.6266 H   0  0  0  0  0  0  0  0  0  0  0  0
  1  2  1  0
  2  3  1  0
  3  4  2  0
  4  5  1  0
  4  6  1  0
  6  7  1  0
  7  8  1  0
  7  9  2  0
  6 10  2  0
 10 11  1  0
 11 12  1  0
 12 13  1  0
 13 14  2  0
 14 15  1  0
 15 16  1  0
 16 17  2  0
 17 18  1  0
 18 19  2  0
 19 20  1  0
 20 21  1  0
 21 22  2  0
 21 23  1  0
 23 24  1  0
 23 25  1  0
 20 26  2  0
 26 27  1  0
 14 28  1  0
 28 29  2  0
 28 30  1  0
 30 31  2  0
 11 32  2  0
 32 33  1  0
 32  3  1  0
 30 13  1  0
 26 16  1  0
  1 34  1  0
  1 35  1  0
  1 36  1  0
  5 37  1  0
  8 38  1  0
 10 39  1  0
 12 40  1  0
 15 41  1  0
 17 42  1  0
 18 43  1  0
 19 44  1  0
 24 45  1  0
 24 46  1  0
 24 47  1  0
 25 48  1  0
 25 49  1  0
 25 50  1  0
M  CHG  2   8  -1  27  -1
M  END
>  <UniqueID>  (33) 
32

>  <SMILES>  (33) 
COc1c(O)c(C([NH-])=O)cc(Nc2c(Nc3cccc(C(=O)N(C)C)c3[O-])c(=O)c2=O)c1F

>  <Energy>  (33) 
60.5450735520872

>  <Genealogy>  (33) 
COc1c(O)c(C([NH-])=O)cc(Nc2c(Nc3cccc(C(=O)N(C)C)c3[O-])c(=O)c2=O)c1F (protonated)
COc1c(O)c(C([NH-])=O)cc(Nc2c(Nc3cccc(C(=O)N(C)C)c3[O-])c(=O)c2=O)c1F (3D coordinates assigned)
COc1c(O)c(C([NH-])=O)cc(Nc2c(Nc3cccc(C(=O)N(C)C)c3[O-])c(=O)c2=O)c1F (optimized conformer: 60.5450735520872 kcal/mol)

>  <smiles>  (33) 
COc1c(O)c(C(N)=O)cc(Nc2c(Nc3cccc(C(=O)N(C)C)c3O)c(=O)c2=O)c1F

>  <score_type>  (33) 
oracle

>  <origin>  (33) 
adg

>  <m_score__min__energy>  (33) 
-11.859999999999999

>  <m_primary>  (33) 
energy

$$$$
33:0
     RDKit          3D

 61 64  0  0  0  0  0  0  0  0999 V2000
   57.1310   32.3860   49.8170 H   0  0  0  0  0  0  0  0  0  0  0  0
   57.4140   32.7140   48.9010 O   0  0  0  0  0  0  0  0  0  0  0  0
   58.7320   32.5840   48.4700 C   0  0  0  0  0  0  0  0  0  0  0  0
   59.3560   33.6350   47.8840 N   0  0  0  0  0  0  0  0  0  0  0  0
   60.6380   33.5490   47.4490 C   0  0  0  0  0  0  0  0  0  0  0  0
   61.1710   34.5640   46.9250 O   0  0  0  0  0  0  0  0  0  0  0  0
   61.3400   32.3760   47.5810 N   0  0  0  0  0  0  0  0  0  0  0  0
   62.7530   32.3090   47.1530 C   0  0  0  0  0  0  0  0  0  0  0  0
   63.0554   31.2540   47.0789 H   0  0  0  0  0  0  0  0  0  0  0  0
   62.8446   32.8094   46.1777 H   0  0  0  0  0  0  0  0  0  0  0  0
   63.6730   33.0240   48.1530 C   0  0  0  0  0  0  0  0  0  0  0  0
   64.6805   32.5875   48.0861 H   0  0  0  0  0  0  0  0  0  0  0  0
   63.6904   34.0942   47.8994 H   0  0  0  0  0  0  0  0  0  0  0  0
   63.1710   32.8830   49.5710 C   0  0  0  0  0  0  0  0  0  0  0  0
   63.3700   31.7490   50.2650 C   0  0  0  0  0  0  0  0  0  0  0  0
   63.9014   30.9031   49.8044 H   0  0  0  0  0  0  0  0  0  0  0  0
   62.8600   31.6460   51.6770 C   0  0  0  0  0  0  0  0  0  0  0  0
   62.8692   30.5912   51.9890 H   0  0  0  0  0  0  0  0  0  0  0  0
   63.5103   32.2419   52.3342 H   0  0  0  0  0  0  0  0  0  0  0  0
   61.4230   32.1900   51.7730 C   0  0  0  0  0  0  0  0  0  0  0  0
   60.7361   31.4224   51.3870 H   0  0  0  0  0  0  0  0  0  0  0  0
   61.2423   32.4263   52.8320 H   0  0  0  0  0  0  0  0  0  0  0  0
   61.1890   33.5010   50.9740 C   0  0  0  0  0  0  0  0  0  0  0  0
   60.4073   33.3143   50.2229 H   0  0  0  0  0  0  0  0  0  0  0  0
   60.8982   34.2720   51.7027 H   0  0  0  0  0  0  0  0  0  0  0  0
   62.4440   34.0210   50.2490 C   0  0  0  0  0  0  0  0  0  0  0  0
   62.1448   34.7615   49.4927 H   0  0  0  0  0  0  0  0  0  0  0  0
   63.1158   34.4840   50.9868 H   0  0  0  0  0  0  0  0  0  0  0  0
   60.7350   31.2870   48.1640 C   0  0  0  0  0  0  0  0  0  0  0  0
   61.3610   30.1980   48.2900 O   0  0  0  0  0  0  0  0  0  0  0  0
   59.4200   31.3790   48.6420 C   0  0  0  0  0  0  0  0  0  0  0  0
   58.7630   30.2150   49.2780 C   0  0  0  0  0  0  0  0  0  0  0  0
   58.2896   29.4796   48.6109 H   0  0  0  0  0  0  0  0  0  0  0  0
   58.6930   29.9740   50.6210 C   0  0  0  0  0  0  0  0  0  0  0  0
   59.7180   29.2500   51.3060 C   0  0  0  0  0  0  0  0  0  0  0  0
   60.8070   28.7240   50.7190 C   0  0  0  0  0  0  0  0  0  0  0  0
   60.9675   28.8561   49.6388 H   0  0  0  0  0  0  0  0  0  0  0  0
   61.5376   28.1615   51.3189 H   0  0  0  0  0  0  0  0  0  0  0  0
   59.6000   29.0390   52.6400 N   0  0  0  0  0  0  0  0  0  0  0  0
   58.5490   29.4780   53.3640 C   0  0  0  0  0  0  0  0  0  0  0  0
   58.5130   29.2160   54.5960 O   0  0  0  0  0  0  0  0  0  0  0  0
   57.5470   30.1870   52.7650 N   0  0  0  0  0  0  0  0  0  0  0  0
   56.3760   30.6350   53.5510 C   0  0  0  0  0  0  0  0  0  0  0  0
   56.6419   30.6386   54.6184 H   0  0  0  0  0  0  0  0  0  0  0  0
   56.0990   31.6447   53.2136 H   0  0  0  0  0  0  0  0  0  0  0  0
   55.1700   29.7080   53.3400 C   0  0  0  0  0  0  0  0  0  0  0  0
   55.4291   28.9521   52.5841 H   0  0  0  0  0  0  0  0  0  0  0  0
   54.9280   29.2349   54.3031 H   0  0  0  0  0  0  0  0  0  0  0  0
   53.9580   30.4700   52.8730 C   0  0  0  0  0  0  0  0  0  0  0  0
   52.9040   30.7370   53.7640 C   0  0  0  0  0  0  0  0  0  0  0  0
   52.9464   30.3541   54.7943 H   0  0  0  0  0  0  0  0  0  0  0  0
   51.8020   31.4880   53.3440 C   0  0  0  0  0  0  0  0  0  0  0  0
   50.9776   31.6916   54.0433 H   0  0  0  0  0  0  0  0  0  0  0  0
   51.7460   31.9810   52.0360 C   0  0  0  0  0  0  0  0  0  0  0  0
   50.6510   32.7290   51.6220 O   0  0  0  0  0  0  0  0  0  0  0  0
   52.7950   31.7240   51.1480 C   0  0  0  0  0  0  0  0  0  0  0  0
   52.7517   32.1124   50.1198 H   0  0  0  0  0  0  0  0  0  0  0  0
   53.8990   30.9740   51.5650 C   0  0  0  0  0  0  0  0  0  0  0  0
   54.7245   30.7784   50.8648 H   0  0  0  0  0  0  0  0  0  0  0  0
   57.6070   30.4520   51.4190 C   0  0  0  0  0  0  0  0  0  0  0  0
   56.6920   31.1490   50.8990 O   0  0  0  0  0  0  0  0  0  0  0  0
  1  2  1  0
  2  3  1  0
  3  4  1  0
  4  5  1  0
  5  6  2  0
  5  7  1  0
  7  8  1  0
  8  9  1  0
  8 10  1  0
  8 11  1  0
 11 12  1  0
 11 13  1  0
 11 14  1  0
 14 15  2  0
 15 16  1  0
 15 17  1  0
 17 18  1  0
 17 19  1  0
 17 20  1  0
 20 21  1  0
 20 22  1  0
 20 23  1  0
 23 24  1  0
 23 25  1  0
 23 26  1  0
 26 27  1  0
 26 28  1  0
  7 29  1  0
 29 30  2  0
 29 31  1  0
 31 32  1  0
 32 33  1  0
 32 34  2  0
 34 35  1  0
 35 36  2  0
 36 37  1  0
 36 38  1  0
 35 39  1  0
 39 40  1  0
 40 41  2  0
 40 42  1  0
 42 43  1  0
 43 44  1  0
 43 45  1  0
 43 46  1  0
 46 47  1  0
 46 48  1  0
 46 49  1  0
 49 50  2  0
 50 51  1  0
 50 52  1  0
 52 53  1  0
 52 54  2  0
 54 55  1  0
 54 56  1  0
 56 57  1  0
 56 58  2  0
 58 59  1  0
 42 60  1  0
 60 61  2  0
 31  3  2  0
 60 34  1  0
 26 14  1  0
 58 49  1  0
M  CHG  3   4  -1  39  -1  55  -1
M  END
>  <UniqueID>  (34) 
33

>  <SMILES>  (34) 
C=c1[n-]c(=O)n(CCc2ccc([O-])cc2)c(=O)/c1=C\c1c(O)[n-]c(=O)n(CCC2=CCCCC2)c1=O

>  <Energy>  (34) 
85.7837945961297

>  <Genealogy>  (34) 
C=c1[n-]c(=O)n(CCc2ccc([O-])cc2)c(=O)c1=Cc1c(O)[n-]c(=O)n(CCC2=CCCCC2)c1=O (protonated)
C=c1[n-]c(=O)n(CCc2ccc([O-])cc2)c(=O)/c1=C\c1c(O)[n-]c(=O)n(CCC2=CCCCC2)c1=O (cis-trans isomerization)
C=c1[n-]c(=O)n(CCc2ccc([O-])cc2)c(=O)/c1=C\c1c(O)[n-]c(=O)n(CCC2=CCCCC2)c1=O (3D coordinates assigned)
C=c1[n-]c(=O)n(CCc2ccc([O-])cc2)c(=O)/c1=C\c1c(O)[n-]c(=O)n(CCC2=CCCCC2)c1=O (nonaromatic ring conformer: 85.7837945961297 kcal/mol)

>  <smiles>  (34) 
C=c1[nH]c(=O)n(CCc2ccc(O)cc2)c(=O)c1=Cc1c(O)[nH]c(=O)n(CCC2=CCCCC2)c1=O

>  <score_type>  (34) 
oracle

>  <origin>  (34) 
adg

>  <m_score__min__energy>  (34) 
-15.01

>  <m_primary>  (34) 
energy

$$$$
34:0
     RDKit          3D

 52 55  0  0  0  0  0  0  0  0999 V2000
   53.4080   26.7160   45.6160 H   0  0  0  0  0  0  0  0  0  0  0  0
   54.0900   25.9320   45.7410 N   0  0  0  0  0  0  0  0  0  0  0  0
   55.3380   26.1580   45.9910 C   0  0  0  0  0  0  0  0  0  0  0  0
   55.8980   27.3550   45.6640 N   0  0  0  0  0  0  0  0  0  0  0  0
   57.2130   27.6120   45.9060 C   0  0  0  0  0  0  0  0  0  0  0  0
   57.7750   28.9170   45.5110 C   0  0  0  0  0  0  0  0  0  0  0  0
   57.1620   29.8170   44.6640 C   0  0  0  0  0  0  0  0  0  0  0  0
   56.1564   29.7319   44.2264 H   0  0  0  0  0  0  0  0  0  0  0  0
   58.0650   30.8480   44.4750 C   0  0  0  0  0  0  0  0  0  0  0  0
   57.8990   32.0430   43.6170 C   0  0  0  0  0  0  0  0  0  0  0  0
   57.7580   31.8830   42.3760 O   0  0  0  0  0  0  0  0  0  0  0  0
   57.9320   33.3860   44.1370 N   0  0  0  0  0  0  0  0  0  0  0  0
   58.4110   33.7590   45.2900 C   0  0  0  0  0  0  0  0  0  0  0  0
   58.1480   33.0530   46.4200 N   0  0  0  0  0  0  0  0  0  0  0  0
   58.6450   33.4050   47.6360 C   0  0  0  0  0  0  0  0  0  0  0  0
   58.4110   32.5100   48.8240 C   0  0  0  0  0  0  0  0  0  0  0  0
   57.9902   33.1087   49.6453 H   0  0  0  0  0  0  0  0  0  0  0  0
   57.7147   31.7130   48.5241 H   0  0  0  0  0  0  0  0  0  0  0  0
   59.6560   31.8860   49.2790 N   0  0  0  0  0  0  0  0  0  0  0  0
   60.3910   32.4600   49.7500 H   0  0  0  0  0  0  0  0  0  0  0  0
   59.9480   30.5100   49.0290 C   0  0  0  0  0  0  0  0  0  0  0  0
   59.1270   29.7880   48.3980 O   0  0  0  0  0  0  0  0  0  0  0  0
   61.1660   29.9850   49.4720 O   0  0  0  0  0  0  0  0  0  0  0  0
   62.2150   30.7820   50.0150 C   0  0  0  0  0  0  0  0  0  0  0  0
   61.8707   31.2415   50.9533 H   0  0  0  0  0  0  0  0  0  0  0  0
   63.0872   30.1385   50.2028 H   0  0  0  0  0  0  0  0  0  0  0  0
   62.6120   31.8650   49.0520 C   0  0  0  0  0  0  0  0  0  0  0  0
   62.9340   31.5420   47.7220 C   0  0  0  0  0  0  0  0  0  0  0  0
   62.8602   30.4997   47.3782 H   0  0  0  0  0  0  0  0  0  0  0  0
   63.3480   32.5410   46.8340 C   0  0  0  0  0  0  0  0  0  0  0  0
   63.6083   32.2816   45.7972 H   0  0  0  0  0  0  0  0  0  0  0  0
   63.4310   33.8690   47.2640 C   0  0  0  0  0  0  0  0  0  0  0  0
   63.7660   34.6527   46.5686 H   0  0  0  0  0  0  0  0  0  0  0  0
   63.0880   34.2000   48.5780 C   0  0  0  0  0  0  0  0  0  0  0  0
   63.1391   35.2472   48.9108 H   0  0  0  0  0  0  0  0  0  0  0  0
   62.6800   33.2040   49.4710 C   0  0  0  0  0  0  0  0  0  0  0  0
   62.4117   33.4699   50.5041 H   0  0  0  0  0  0  0  0  0  0  0  0
   59.4760   34.5280   47.7400 C   0  0  0  0  0  0  0  0  0  0  0  0
   59.9203   34.8022   48.7082 H   0  0  0  0  0  0  0  0  0  0  0  0
   59.7350   35.2960   46.6030 C   0  0  0  0  0  0  0  0  0  0  0  0
   60.3603   36.1979   46.6774 H   0  0  0  0  0  0  0  0  0  0  0  0
   59.1980   34.9160   45.3710 C   0  0  0  0  0  0  0  0  0  0  0  0
   59.3911   35.5196   44.4719 H   0  0  0  0  0  0  0  0  0  0  0  0
   59.1730   30.5530   45.2490 C   0  0  0  0  0  0  0  0  0  0  0  0
   60.0672   31.1870   45.3408 H   0  0  0  0  0  0  0  0  0  0  0  0
   58.9930   29.3740   45.8730 N   0  0  0  0  0  0  0  0  0  0  0  0
   59.6900   28.9040   46.4960 H   0  0  0  0  0  0  0  0  0  0  0  0
   58.0000   26.6270   46.5180 C   0  0  0  0  0  0  0  0  0  0  0  0
   59.0635   26.8106   46.7309 H   0  0  0  0  0  0  0  0  0  0  0  0
   57.4070   25.4080   46.8520 C   0  0  0  0  0  0  0  0  0  0  0  0
   58.0036   24.6211   47.3366 H   0  0  0  0  0  0  0  0  0  0  0  0
   56.0940   25.1930   46.5790 N   0  0  0  0  0  0  0  0  0  0  0  0
  1  2  1  0
  2  3  2  0
  3  4  1  0
  4  5  2  0
  5  6  1  0
  6  7  2  0
  7  8  1  0
  7  9  1  0
  9 10  1  0
 10 11  2  0
 10 12  1  0
 12 13  2  3
 13 14  1  0
 14 15  1  0
 15 16  1  0
 16 17  1  0
 16 18  1  0
 16 19  1  0
 19 20  1  0
 19 21  1  0
 21 22  2  0
 21 23  1  0
 23 24  1  0
 24 25  1  0
 24 26  1  0
 24 27  1  0
 27 28  2  0
 28 29  1  0
 28 30  1  0
 30 31  1  0
 30 32  2  0
 32 33  1  0
 32 34  1  0
 34 35  1  0
 34 36  2  0
 36 37  1  0
 15 38  2  0
 38 39  1  0
 38 40  1  0
 40 41  1  0
 40 42  2  0
 42 43  1  0
  9 44  2  0
 44 45  1  0
 44 46  1  0
 46 47  1  0
  5 48  1  0
 48 49  1  0
 48 50  2  0
 50 51  1  0
 50 52  1  0
 52  3  1  0
 46  6  1  0
 42 13  1  0
 36 27  1  0
M  CHG  2  14  -1  52  -1
M  END
>  <UniqueID>  (35) 
34

>  <SMILES>  (35) 
[H]/N=c1\nc(-c2cc(C(=O)N=c3cccc(CNC(=O)OCc4ccccc4)[n-]3)c[nH]2)cc[n-]1

>  <Energy>  (35) 
81.7309410756266

>  <Genealogy>  (35) 
N=c1nc(-c2cc(C(=O)N=c3cccc(CNC(=O)OCc4ccccc4)[n-]3)c[nH]2)cc[n-]1 (protonated)
[H]/N=c1\nc(-c2cc(C(=O)N=c3cccc(CNC(=O)OCc4ccccc4)[n-]3)c[nH]2)cc[n-]1 (cis-trans isomerization)
[H]/N=c1\nc(-c2cc(C(=O)N=c3cccc(CNC(=O)OCc4ccccc4)[n-]3)c[nH]2)cc[n-]1 (3D coordinates assigned)
[H]/N=c1\nc(-c2cc(C(=O)N=c3cccc(CNC(=O)OCc4ccccc4)[n-]3)c[nH]2)cc[n-]1 (optimized conformer: 81.7309410756266 kcal/mol)

>  <smiles>  (35) 
N=c1nc(-c2cc(C(=O)N=c3cccc(CNC(=O)OCc4ccccc4)[nH]3)c[nH]2)cc[nH]1

>  <score_type>  (35) 
oracle

>  <origin>  (35) 
adg

>  <m_score__min__energy>  (35) 
-12.699999999999999

>  <m_primary>  (35) 
energy

$$$$
35:0
     RDKit          3D

 41 43  0  0  0  0  0  0  0  0999 V2000
   58.6300   25.4320   45.3670 H   0  0  0  0  0  0  0  0  0  0  0  0
   58.0310   24.6150   45.3780 O   0  0  0  0  0  0  0  0  0  0  0  0
   56.6420   24.7230   45.4210 C   0  0  0  0  0  0  0  0  0  0  0  0
   55.8610   23.6020   45.1100 C   0  0  0  0  0  0  0  0  0  0  0  0
   56.3467   22.6683   44.7901 H   0  0  0  0  0  0  0  0  0  0  0  0
   54.4710   23.6640   45.2040 C   0  0  0  0  0  0  0  0  0  0  0  0
   53.8569   22.7855   44.9569 H   0  0  0  0  0  0  0  0  0  0  0  0
   53.8700   24.8500   45.6140 C   0  0  0  0  0  0  0  0  0  0  0  0
   52.7754   24.9079   45.7067 H   0  0  0  0  0  0  0  0  0  0  0  0
   54.6340   25.9370   45.9000 N   0  0  0  0  0  0  0  0  0  0  0  0
   55.9920   25.9280   45.8010 C   0  0  0  0  0  0  0  0  0  0  0  0
   56.6270   27.0320   46.0860 N   0  0  0  0  0  0  0  0  0  0  0  0
   57.4610   27.8190   45.2250 C   0  0  0  0  0  0  0  0  0  0  0  0
   58.2890   27.2340   44.4800 O   0  0  0  0  0  0  0  0  0  0  0  0
   57.4220   29.2960   45.2850 C   0  0  0  0  0  0  0  0  0  0  0  0
   58.4420   30.2370   46.2440 S   0  0  0  0  0  0  0  0  0  0  0  0
   57.7540   31.6870   45.7320 C   0  0  0  0  0  0  0  0  0  0  0  0
   58.1020   32.8740   46.1230 N   0  0  0  0  0  0  0  0  0  0  0  0
   58.3650   34.2170   45.0560 S   0  0  0  0  0  0  0  0  0  0  0  0
   57.0750   34.9590   44.8480 O   0  0  0  0  0  0  0  0  0  0  0  0
   58.8860   33.7240   43.7340 O   0  0  0  0  0  0  0  0  0  0  0  0
   59.5600   35.3200   45.7860 C   0  0  0  0  0  0  0  0  0  0  0  0
   60.2142   35.7199   44.9973 H   0  0  0  0  0  0  0  0  0  0  0  0
   59.0288   36.1425   46.2874 H   0  0  0  0  0  0  0  0  0  0  0  0
   60.3950   34.5870   46.7990 C   0  0  0  0  0  0  0  0  0  0  0  0
   61.5280   33.8630   46.3920 C   0  0  0  0  0  0  0  0  0  0  0  0
   61.8226   33.8556   45.3322 H   0  0  0  0  0  0  0  0  0  0  0  0
   62.2820   33.1520   47.3300 C   0  0  0  0  0  0  0  0  0  0  0  0
   63.1715   32.5910   47.0073 H   0  0  0  0  0  0  0  0  0  0  0  0
   61.9090   33.1520   48.6760 C   0  0  0  0  0  0  0  0  0  0  0  0
   62.5057   32.5936   49.4123 H   0  0  0  0  0  0  0  0  0  0  0  0
   60.7770   33.8620   49.0870 C   0  0  0  0  0  0  0  0  0  0  0  0
   60.4820   33.8600   50.1467 H   0  0  0  0  0  0  0  0  0  0  0  0
   60.0190   34.5750   48.1520 C   0  0  0  0  0  0  0  0  0  0  0  0
   59.1256   35.1280   48.4777 H   0  0  0  0  0  0  0  0  0  0  0  0
   56.7620   31.4850   44.8410 N   0  0  0  0  0  0  0  0  0  0  0  0
   56.5680   30.1620   44.5860 C   0  0  0  0  0  0  0  0  0  0  0  0
   55.5060   29.7120   43.6310 C   0  0  0  0  0  0  0  0  0  0  0  0
   54.6370   29.3438   44.1960 H   0  0  0  0  0  0  0  0  0  0  0  0
   55.2000   30.5578   42.9978 H   0  0  0  0  0  0  0  0  0  0  0  0
   55.9009   28.9039   42.9978 H   0  0  0  0  0  0  0  0  0  0  0  0
  1  2  1  0
  2  3  1  0
  3  4  2  0
  4  5  1  0
  4  6  1  0
  6  7  1  0
  6  8  2  0
  8  9  1  0
  8 10  1  0
 10 11  1  0
 11 12  2  0
 12 13  1  0
 13 14  2  0
 13 15  1  0
 15 16  1  0
 16 17  1  0
 17 18  2  3
 18 19  1  0
 19 20  2  0
 19 21  2  0
 19 22  1  0
 22 23  1  0
 22 24  1  0
 22 25  1  0
 25 26  2  0
 26 27  1  0
 26 28  1  0
 28 29  1  0
 28 30  2  0
 30 31  1  0
 30 32  1  0
 32 33  1  0
 32 34  2  0
 34 35  1  0
 17 36  1  0
 36 37  1  0
 37 38  1  0
 38 39  1  0
 38 40  1  0
 38 41  1  0
 11  3  1  0
 37 15  2  0
 34 25  1  0
M  CHG  2  10  -1  36  -1
M  END
>  <UniqueID>  (36) 
35

>  <SMILES>  (36) 
Cc1[n-]c(=NS(=O)(=O)Cc2ccccc2)sc1C(=O)/N=c1/[n-]cccc1O

>  <Energy>  (36) 
84.19825044525518

>  <Genealogy>  (36) 
Cc1[n-]c(=NS(=O)(=O)Cc2ccccc2)sc1C(=O)N=c1[n-]cccc1O (protonated)
Cc1[n-]c(=NS(=O)(=O)Cc2ccccc2)sc1C(=O)/N=c1/[n-]cccc1O (cis-trans isomerization)
Cc1[n-]c(=NS(=O)(=O)Cc2ccccc2)sc1C(=O)/N=c1/[n-]cccc1O (3D coordinates assigned)
Cc1[n-]c(=NS(=O)(=O)Cc2ccccc2)sc1C(=O)/N=c1/[n-]cccc1O (optimized conformer: 84.19825044525518 kcal/mol)

>  <smiles>  (36) 
Cc1[nH]c(=NS(=O)(=O)Cc2ccccc2)sc1C(=O)N=c1[nH]cccc1O

>  <score_type>  (36) 
oracle

>  <origin>  (36) 
adg

>  <m_score__min__energy>  (36) 
-12.25

>  <m_primary>  (36) 
energy

$$$$
36:0
     RDKit          3D

 79 84  0  0  0  0  0  0  0  0999 V2000
   58.7020   34.9680   44.8680 C   0  0  0  0  0  0  0  0  0  0  0  0
   58.1880   34.1880   46.0840 C   0  0  0  0  0  0  0  0  0  0  0  0
   57.0150   33.2750   45.6980 C   0  0  0  0  0  0  0  0  0  0  0  0
   59.3110   33.4050   46.7390 C   0  0  0  0  0  0  0  0  0  0  0  0
   60.3510   34.0830   47.3850 C   0  0  0  0  0  0  0  0  0  0  0  0
   61.3800   33.3710   48.0010 C   0  0  0  0  0  0  0  0  0  0  0  0
   61.3790   31.9700   48.0120 C   0  0  0  0  0  0  0  0  0  0  0  0
   62.4630   31.3020   48.6670 N   0  0  0  0  0  0  0  0  0  0  0  0
   62.4690   30.9980   50.0640 C   0  0  0  0  0  0  0  0  0  0  0  0
   61.4140   31.1030   50.7480 O   0  0  0  0  0  0  0  0  0  0  0  0
   63.7020   30.5870   50.6680 N   0  0  0  0  0  0  0  0  0  0  0  0
   64.8280   31.4310   51.0760 C   0  0  2  0  0  0  0  0  0  0  0  0
   64.5190   32.1720   52.4050 C   0  0  0  0  0  0  0  0  0  0  0  0
   65.7070   33.0910   52.7770 C   0  0  1  0  0  0  0  0  0  0  0  0
   66.9860   32.2390   52.9430 C   0  0  0  0  0  0  0  0  0  0  0  0
   67.3000   31.5130   51.6150 C   0  0  2  0  0  0  0  0  0  0  0  0
   67.5150   32.5540   50.4980 C   0  0  0  0  0  0  0  0  0  0  0  0
   66.2380   33.4070   50.3320 C   0  0  2  0  0  0  0  0  0  0  0  0
   65.9250   34.1340   51.6590 C   0  0  0  0  0  0  0  0  0  0  0  0
   65.0590   32.4820   49.9600 C   0  0  0  0  0  0  0  0  0  0  0  0
   66.1190   30.5870   51.2430 C   0  0  0  0  0  0  0  0  0  0  0  0
   60.3520   31.2630   47.3390 C   0  0  0  0  0  0  0  0  0  0  0  0
   60.3160   29.8170   47.3080 N   0  0  0  0  0  0  0  0  0  0  0  0
   60.3560   29.1290   46.0040 C   0  0  0  0  0  0  0  0  0  0  0  0
   60.3910   27.6130   46.1790 C   0  0  0  0  0  0  0  0  0  0  0  0
   59.3770   27.2220   47.1670 N   0  0  0  0  0  0  0  0  0  0  0  0
   58.2940   26.3170   46.8420 C   0  0  0  0  0  0  0  0  0  0  0  0
   57.5790   25.8370   47.7710 O   0  0  0  0  0  0  0  0  0  0  0  0
   57.9990   25.9290   45.4110 C   0  0  0  0  0  0  0  0  0  0  0  0
   56.7810   25.0650   45.2550 C   0  0  0  0  0  0  0  0  0  0  0  0
   56.8100   23.7530   44.9330 N   0  0  0  0  0  0  0  0  0  0  0  0
   55.5200   23.3630   45.0640 C   0  0  0  0  0  0  0  0  0  0  0  0
   55.1350   22.1860   44.8240 O   0  0  0  0  0  0  0  0  0  0  0  0
   54.6940   24.3440   45.4850 N   0  0  0  0  0  0  0  0  0  0  0  0
   53.2480   24.2870   45.6790 C   0  0  0  0  0  0  0  0  0  0  0  0
   55.4900   25.4190   45.6000 C   0  0  0  0  0  0  0  0  0  0  0  0
   55.0660   26.6720   46.0220 O   0  0  0  0  0  0  0  0  0  0  0  0
   59.4430   27.8320   48.5060 C   0  0  0  0  0  0  0  0  0  0  0  0
   60.4140   29.0280   48.5480 C   0  0  0  0  0  0  0  0  0  0  0  0
   59.3400   31.9990   46.6890 C   0  0  0  0  0  0  0  0  0  0  0  0
   59.2774   35.8412   45.2090 H   0  0  0  0  0  0  0  0  0  0  0  0
   59.3486   34.3169   44.2613 H   0  0  0  0  0  0  0  0  0  0  0  0
   57.8487   35.3053   44.2613 H   0  0  0  0  0  0  0  0  0  0  0  0
   57.8131   34.9126   46.8218 H   0  0  0  0  0  0  0  0  0  0  0  0
   56.5292   32.8969   46.6096 H   0  0  0  0  0  0  0  0  0  0  0  0
   56.2861   33.8458   45.1039 H   0  0  0  0  0  0  0  0  0  0  0  0
   57.3894   32.4283   45.1039 H   0  0  0  0  0  0  0  0  0  0  0  0
   60.3569   35.1828   47.4070 H   0  0  0  0  0  0  0  0  0  0  0  0
   62.2035   33.9168   48.4847 H   0  0  0  0  0  0  0  0  0  0  0  0
   63.3830   31.2890   48.1750 H   0  0  0  0  0  0  0  0  0  0  0  0
   63.6106   32.7801   52.2821 H   0  0  0  0  0  0  0  0  0  0  0  0
   64.3637   31.4344   53.2062 H   0  0  0  0  0  0  0  0  0  0  0  0
   65.4856   33.6090   53.7218 H   0  0  0  0  0  0  0  0  0  0  0  0
   67.8291   32.8925   53.2115 H   0  0  0  0  0  0  0  0  0  0  0  0
   66.8295   31.4953   53.7383 H   0  0  0  0  0  0  0  0  0  0  0  0
   68.2130   30.9107   51.7318 H   0  0  0  0  0  0  0  0  0  0  0  0
   68.3594   33.2069   50.7637 H   0  0  0  0  0  0  0  0  0  0  0  0
   67.7336   32.0357   49.5527 H   0  0  0  0  0  0  0  0  0  0  0  0
   66.3907   34.1525   49.5377 H   0  0  0  0  0  0  0  0  0  0  0  0
   66.7680   34.7880   51.9267 H   0  0  0  0  0  0  0  0  0  0  0  0
   65.0149   34.7401   51.5398 H   0  0  0  0  0  0  0  0  0  0  0  0
   64.1483   33.0865   49.8364 H   0  0  0  0  0  0  0  0  0  0  0  0
   65.2952   31.9609   49.0205 H   0  0  0  0  0  0  0  0  0  0  0  0
   66.3429   30.0698   50.2984 H   0  0  0  0  0  0  0  0  0  0  0  0
   65.9701   29.8461   52.0423 H   0  0  0  0  0  0  0  0  0  0  0  0
   59.4606   29.4027   45.4266 H   0  0  0  0  0  0  0  0  0  0  0  0
   61.2693   29.4392   45.4751 H   0  0  0  0  0  0  0  0  0  0  0  0
   60.1755   27.1256   45.2167 H   0  0  0  0  0  0  0  0  0  0  0  0
   61.3874   27.3019   46.5261 H   0  0  0  0  0  0  0  0  0  0  0  0
   57.8488   26.8487   44.8265 H   0  0  0  0  0  0  0  0  0  0  0  0
   58.8571   25.3393   45.0561 H   0  0  0  0  0  0  0  0  0  0  0  0
   53.0226   24.2781   46.7556 H   0  0  0  0  0  0  0  0  0  0  0  0
   52.7806   25.1674   45.2138 H   0  0  0  0  0  0  0  0  0  0  0  0
   52.8514   23.3725   45.2138 H   0  0  0  0  0  0  0  0  0  0  0  0
   58.4383   28.1801   48.7876 H   0  0  0  0  0  0  0  0  0  0  0  0
   59.8115   27.0702   49.2088 H   0  0  0  0  0  0  0  0  0  0  0  0
   60.1617   29.6690   49.4056 H   0  0  0  0  0  0  0  0  0  0  0  0
   61.4416   28.6482   48.6472 H   0  0  0  0  0  0  0  0  0  0  0  0
   58.5575   31.4633   46.1316 H   0  0  0  0  0  0  0  0  0  0  0  0
  1  2  1  0
  2  3  1  0
  2  4  1  0
  4  5  2  0
  5  6  1  0
  6  7  2  0
  7  8  1  0
  8  9  1  0
  9 10  2  0
  9 11  1  0
 12 11  1  6
 12 13  1  0
 13 14  1  0
 14 15  1  0
 15 16  1  0
 16 17  1  0
 17 18  1  0
 18 19  1  0
 18 20  1  0
 16 21  1  0
  7 22  1  0
 22 23  1  0
 23 24  1  0
 24 25  1  0
 25 26  1  0
 26 27  1  0
 27 28  2  0
 27 29  1  0
 29 30  1  0
 30 31  1  0
 31 32  1  0
 32 33  2  0
 32 34  1  0
 34 35  1  0
 34 36  1  0
 36 37  1  0
 26 38  1  0
 38 39  1  0
 22 40  2  0
 40  4  1  0
 20 12  1  0
 39 23  1  0
 21 12  1  0
 36 30  2  0
 19 14  1  0
  1 41  1  0
  1 42  1  0
  1 43  1  0
  2 44  1  0
  3 45  1  0
  3 46  1  0
  3 47  1  0
  5 48  1  0
  6 49  1  0
  8 50  1  0
 13 51  1  0
 13 52  1  0
 14 53  1  1
 15 54  1  0
 15 55  1  0
 16 56  1  1
 17 57  1  0
 17 58  1  0
 18 59  1  6
 19 60  1  0
 19 61  1  0
 20 62  1  0
 20 63  1  0
 21 64  1  0
 21 65  1  0
 24 66  1  0
 24 67  1  0
 25 68  1  0
 25 69  1  0
 29 70  1  0
 29 71  1  0
 35 72  1  0
 35 73  1  0
 35 74  1  0
 38 75  1  0
 38 76  1  0
 39 77  1  0
 39 78  1  0
 40 79  1  0
M  CHG  3  11  -1  31  -1  37  -1
M  END
>  <UniqueID>  (37) 
36

>  <SMILES>  (37) 
CC(C)c1ccc(NC(=O)[N-]C23CC4CC(CC(C4)C2)C3)c(N2CCN(C(=O)Cc3[n-]c(=O)n(C)c3[O-])CC2)c1

>  <Energy>  (37) 
118.18352016305411

>  <Genealogy>  (37) 
CC(C)c1ccc(NC(=O)[N-]C23CC4CC(CC(C4)C2)C3)c(N2CCN(C(=O)Cc3[n-]c(=O)n(C)c3[O-])CC2)c1 (protonated)
CC(C)c1ccc(NC(=O)[N-]C23CC4CC(CC(C4)C2)C3)c(N2CCN(C(=O)Cc3[n-]c(=O)n(C)c3[O-])CC2)c1 (3D coordinates assigned)
CC(C)c1ccc(NC(=O)[N-]C23CC4CC(CC(C4)C2)C3)c(N2CCN(C(=O)Cc3[n-]c(=O)n(C)c3[O-])CC2)c1 (nonaromatic ring conformer: 118.18352016305411 kcal/mol)

>  <smiles>  (37) 
CC(C)c1ccc(NC(=O)NC23CC4CC(CC(C4)C2)C3)c(N2CCN(C(=O)Cc3[nH]c(=O)n(C)c3O)CC2)c1

>  <score_type>  (37) 
oracle

>  <origin>  (37) 
adg

>  <m_score__min__energy>  (37) 
-15.85

>  <m_primary>  (37) 
energy

$$$$
37:0
     RDKit          3D

 40 42  0  0  0  0  0  0  0  0999 V2000
   61.0290   26.7230   47.8450 C   0  0  0  0  0  0  0  0  0  0  0  0
   60.7750   26.3910   46.3720 C   0  0  0  0  0  0  0  0  0  0  0  0
   59.4400   26.8720   45.9310 N   0  0  0  0  0  0  0  0  0  0  0  0
   59.3360   28.0820   45.2600 C   0  0  0  0  0  0  0  0  0  0  0  0
   60.5810   28.8660   44.8640 C   0  0  0  0  0  0  0  0  0  0  0  0
   58.0580   28.6500   45.0080 C   0  0  0  0  0  0  0  0  0  0  0  0
   57.8980   30.0340   44.3820 C   0  0  0  0  0  0  0  0  0  0  0  0
   58.2050   31.1500   45.3560 C   0  0  0  0  0  0  0  0  0  0  0  0
   58.4610   30.8510   46.7070 C   0  0  0  0  0  0  0  0  0  0  0  0
   58.7150   31.8760   47.6230 C   0  0  0  0  0  0  0  0  0  0  0  0
   58.7010   33.2090   47.2060 C   0  0  0  0  0  0  0  0  0  0  0  0
   58.4260   33.5200   45.8720 C   0  0  0  0  0  0  0  0  0  0  0  0
   58.4020   34.8460   45.4600 O   0  0  0  0  0  0  0  0  0  0  0  0
   58.1710   32.4970   44.9520 C   0  0  0  0  0  0  0  0  0  0  0  0
   56.9080   27.9200   45.3420 C   0  0  0  0  0  0  0  0  0  0  0  0
   55.7710   28.4230   45.1180 O   0  0  0  0  0  0  0  0  0  0  0  0
   57.0120   26.6420   45.9140 C   0  0  0  0  0  0  0  0  0  0  0  0
   55.8570   25.8690   46.2150 C   0  0  0  0  0  0  0  0  0  0  0  0
   54.5740   26.3390   45.9530 O   0  0  0  0  0  0  0  0  0  0  0  0
   55.9830   24.6050   46.7830 C   0  0  0  0  0  0  0  0  0  0  0  0
   57.2370   24.0810   47.0570 C   0  0  0  0  0  0  0  0  0  0  0  0
   57.3500   22.8130   47.6150 O   0  0  0  0  0  0  0  0  0  0  0  0
   58.3830   24.8210   46.7740 C   0  0  0  0  0  0  0  0  0  0  0  0
   58.3050   26.1210   46.2040 C   0  0  0  0  0  0  0  0  0  0  0  0
   60.4836   26.0101   48.4809 H   0  0  0  0  0  0  0  0  0  0  0  0
   62.1063   26.6530   48.0562 H   0  0  0  0  0  0  0  0  0  0  0  0
   60.6796   27.7444   48.0562 H   0  0  0  0  0  0  0  0  0  0  0  0
   61.5500   26.8726   45.7576 H   0  0  0  0  0  0  0  0  0  0  0  0
   60.8063   25.2979   46.2528 H   0  0  0  0  0  0  0  0  0  0  0  0
   61.1087   29.1983   45.7702 H   0  0  0  0  0  0  0  0  0  0  0  0
   61.2452   28.2228   44.2680 H   0  0  0  0  0  0  0  0  0  0  0  0
   60.2880   29.7429   44.2680 H   0  0  0  0  0  0  0  0  0  0  0  0
   58.5834   30.1150   43.5255 H   0  0  0  0  0  0  0  0  0  0  0  0
   56.8481   30.1409   44.0718 H   0  0  0  0  0  0  0  0  0  0  0  0
   58.4612   29.8040   47.0445 H   0  0  0  0  0  0  0  0  0  0  0  0
   58.9264   31.6322   48.6746 H   0  0  0  0  0  0  0  0  0  0  0  0
   58.9064   34.0135   47.9275 H   0  0  0  0  0  0  0  0  0  0  0  0
   57.9424   32.7478   43.9057 H   0  0  0  0  0  0  0  0  0  0  0  0
   55.0823   24.0180   47.0160 H   0  0  0  0  0  0  0  0  0  0  0  0
   59.3702   24.3898   46.9966 H   0  0  0  0  0  0  0  0  0  0  0  0
  1  2  1  0
  2  3  1  0
  3  4  1  0
  4  5  1  0
  4  6  2  0
  6  7  1  0
  7  8  1  0
  8  9  2  0
  9 10  1  0
 10 11  2  0
 11 12  1  0
 12 13  1  0
 12 14  2  0
  6 15  1  0
 15 16  2  0
 15 17  1  0
 17 18  2  0
 18 19  1  0
 18 20  1  0
 20 21  2  0
 21 22  1  0
 21 23  1  0
 23 24  2  0
 24  3  1  0
 14  8  1  0
 24 17  1  0
  1 25  1  0
  1 26  1  0
  1 27  1  0
  2 28  1  0
  2 29  1  0
  5 30  1  0
  5 31  1  0
  5 32  1  0
  7 33  1  0
  7 34  1  0
  9 35  1  0
 10 36  1  0
 11 37  1  0
 14 38  1  0
 20 39  1  0
 23 40  1  0
M  CHG  3  13  -1  19  -1  22  -1
M  END
>  <UniqueID>  (38) 
37

>  <SMILES>  (38) 
CCn1c(C)c(Cc2cccc([O-])c2)c(=O)c2c([O-])cc([O-])cc21

>  <Energy>  (38) 
62.697243618542785

>  <Genealogy>  (38) 
CCn1c(C)c(Cc2cccc([O-])c2)c(=O)c2c([O-])cc([O-])cc21 (protonated)
CCn1c(C)c(Cc2cccc([O-])c2)c(=O)c2c([O-])cc([O-])cc21 (3D coordinates assigned)
CCn1c(C)c(Cc2cccc([O-])c2)c(=O)c2c([O-])cc([O-])cc21 (optimized conformer: 62.697243618542785 kcal/mol)

>  <smiles>  (38) 
CCn1c(C)c(Cc2cccc(O)c2)c(=O)c2c(O)cc(O)cc21

>  <score_type>  (38) 
oracle

>  <origin>  (38) 
adg

>  <m_score__min__energy>  (38) 
-14.710000000000001

>  <m_primary>  (38) 
energy

$$$$
38:0
     RDKit          3D

 58 62  0  0  0  0  0  0  0  0999 V2000
   57.2670   21.6300   43.4110 C   0  0  0  0  0  0  0  0  0  0  0  0
   56.2940   22.6210   43.7350 O   0  0  0  0  0  0  0  0  0  0  0  0
   56.5480   23.7470   44.5340 C   0  0  0  0  0  0  0  0  0  0  0  0
   57.8600   23.9730   44.9670 C   0  0  0  0  0  0  0  0  0  0  0  0
   58.1650   25.0790   45.7640 C   0  0  0  0  0  0  0  0  0  0  0  0
   57.1570   25.9660   46.1600 C   0  0  0  0  0  0  0  0  0  0  0  0
   57.5100   27.0910   46.9730 N   0  0  0  0  0  0  0  0  0  0  0  0
   58.6680   27.9100   46.7710 C   0  0  0  0  0  0  0  0  0  0  0  0
   59.6420   27.4770   46.0960 O   0  0  0  0  0  0  0  0  0  0  0  0
   58.6900   29.2990   47.3450 C   0  0  0  0  0  0  0  0  0  0  0  0
   58.5920   30.3330   46.3020 N   0  0  0  0  0  0  0  0  0  0  0  0
   57.7960   30.1090   45.1090 C   0  0  0  0  0  0  0  0  0  0  0  0
   57.6750   28.8260   44.5390 C   0  0  0  0  0  0  0  0  0  0  0  0
   57.0440   28.6590   43.3030 C   0  0  0  0  0  0  0  0  0  0  0  0
   56.5340   29.7650   42.6190 C   0  0  0  0  0  0  0  0  0  0  0  0
   56.6290   31.0380   43.1810 C   0  0  0  0  0  0  0  0  0  0  0  0
   57.2380   31.2090   44.4290 C   0  0  0  0  0  0  0  0  0  0  0  0
   57.1910   32.8130   45.2240 S   0  0  0  0  0  0  0  0  0  0  0  0
   58.8980   32.7230   45.7560 C   0  0  0  0  0  0  0  0  0  0  0  0
   59.7170   33.8520   45.6470 C   0  0  0  0  0  0  0  0  0  0  0  0
   60.9950   33.8460   46.2090 C   0  0  0  0  0  0  0  0  0  0  0  0
   61.4580   32.7110   46.8900 C   0  0  0  0  0  0  0  0  0  0  0  0
   63.0460   32.7190   47.6510 S   0  0  0  0  0  0  0  0  0  0  0  0
   63.7740   31.4540   47.2880 O   0  0  0  0  0  0  0  0  0  0  0  0
   63.8460   33.8920   47.1510 O   0  0  0  0  0  0  0  0  0  0  0  0
   62.8480   32.8020   49.3840 N   0  0  0  0  0  0  0  0  0  0  0  0
   62.7120   34.1860   49.8350 C   0  0  0  0  0  0  0  0  0  0  0  0
   63.1840   34.2110   51.2780 C   0  0  0  0  0  0  0  0  0  0  0  0
   64.1000   33.0030   51.4180 C   0  0  0  0  0  0  0  0  0  0  0  0
   64.0240   32.2800   50.0800 C   0  0  0  0  0  0  0  0  0  0  0  0
   60.6440   31.5750   46.9820 C   0  0  0  0  0  0  0  0  0  0  0  0
   59.3680   31.5550   46.3880 C   0  0  0  0  0  0  0  0  0  0  0  0
   55.8400   25.7660   45.7000 C   0  0  0  0  0  0  0  0  0  0  0  0
   54.8330   26.6780   46.0020 O   0  0  0  0  0  0  0  0  0  0  0  0
   55.5370   24.6550   44.9040 C   0  0  0  0  0  0  0  0  0  0  0  0
   57.6822   21.2071   44.3377 H   0  0  0  0  0  0  0  0  0  0  0  0
   56.7938   20.8300   42.8227 H   0  0  0  0  0  0  0  0  0  0  0  0
   58.0755   22.0885   42.8227 H   0  0  0  0  0  0  0  0  0  0  0  0
   58.6578   23.2734   44.6771 H   0  0  0  0  0  0  0  0  0  0  0  0
   59.2033   25.2539   46.0823 H   0  0  0  0  0  0  0  0  0  0  0  0
   57.8409   29.4105   48.0354 H   0  0  0  0  0  0  0  0  0  0  0  0
   59.6495   29.4342   47.8656 H   0  0  0  0  0  0  0  0  0  0  0  0
   58.0792   27.9513   45.0695 H   0  0  0  0  0  0  0  0  0  0  0  0
   56.9487   27.6534   42.8675 H   0  0  0  0  0  0  0  0  0  0  0  0
   56.0572   29.6319   41.6367 H   0  0  0  0  0  0  0  0  0  0  0  0
   56.2249   31.9080   42.6427 H   0  0  0  0  0  0  0  0  0  0  0  0
   59.3536   34.7453   45.1179 H   0  0  0  0  0  0  0  0  0  0  0  0
   61.6395   34.7327   46.1175 H   0  0  0  0  0  0  0  0  0  0  0  0
   63.3352   34.8507   49.2186 H   0  0  0  0  0  0  0  0  0  0  0  0
   61.6726   34.5352   49.7477 H   0  0  0  0  0  0  0  0  0  0  0  0
   63.7351   35.1396   51.4878 H   0  0  0  0  0  0  0  0  0  0  0  0
   62.3435   34.1746   51.9867 H   0  0  0  0  0  0  0  0  0  0  0  0
   65.1317   33.3243   51.6237 H   0  0  0  0  0  0  0  0  0  0  0  0
   63.7953   32.3533   52.2517 H   0  0  0  0  0  0  0  0  0  0  0  0
   64.9316   32.4775   49.4907 H   0  0  0  0  0  0  0  0  0  0  0  0
   63.9476   31.1920   50.2229 H   0  0  0  0  0  0  0  0  0  0  0  0
   61.0057   30.6889   47.5242 H   0  0  0  0  0  0  0  0  0  0  0  0
   54.5034   24.4903   44.5656 H   0  0  0  0  0  0  0  0  0  0  0  0
  1  2  1  0
  2  3  1  0
  3  4  2  0
  4  5  1  0
  5  6  2  0
  6  7  1  0
  7  8  1  0
  8  9  2  0
  8 10  1  0
 10 11  1  0
 11 12  1  0
 12 13  2  0
 13 14  1  0
 14 15  2  0
 15 16  1  0
 16 17  2  0
 17 18  1  0
 18 19  1  0
 19 20  2  0
 20 21  1  0
 21 22  2  0
 22 23  1  0
 23 24  2  0
 23 25  2  0
 23 26  1  0
 26 27  1  0
 27 28  1  0
 28 29  1  0
 29 30  1  0
 22 31  1  0
 31 32  2  0
  6 33  1  0
 33 34  1  0
 33 35  2  0
 35  3  1  0
 32 11  1  0
 17 12  1  0
 32 19  1  0
 30 26  1  0
  1 36  1  0
  1 37  1  0
  1 38  1  0
  4 39  1  0
  5 40  1  0
 10 41  1  0
 10 42  1  0
 13 43  1  0
 14 44  1  0
 15 45  1  0
 16 46  1  0
 20 47  1  0
 21 48  1  0
 27 49  1  0
 27 50  1  0
 28 51  1  0
 28 52  1  0
 29 53  1  0
 29 54  1  0
 30 55  1  0
 30 56  1  0
 31 57  1  0
 35 58  1  0
M  CHG  2   7  -1  34  -1
M  END
>  <UniqueID>  (39) 
38

>  <SMILES>  (39) 
COc1ccc([N-]C(=O)CN2c3ccccc3Sc3ccc(S(=O)(=O)N4CCCC4)cc32)c([O-])c1

>  <Energy>  (39) 
85.40151366607718

>  <Genealogy>  (39) 
COc1ccc([N-]C(=O)CN2c3ccccc3Sc3ccc(S(=O)(=O)N4CCCC4)cc32)c([O-])c1 (protonated)
COc1ccc([N-]C(=O)CN2c3ccccc3Sc3ccc(S(=O)(=O)N4CCCC4)cc32)c([O-])c1 (3D coordinates assigned)
COc1ccc([N-]C(=O)CN2c3ccccc3Sc3ccc(S(=O)(=O)N4CCCC4)cc32)c([O-])c1 (nonaromatic ring conformer: 85.40151366607718 kcal/mol)

>  <smiles>  (39) 
COc1ccc(NC(=O)CN2c3ccccc3Sc3ccc(S(=O)(=O)N4CCCC4)cc32)c(O)c1

>  <score_type>  (39) 
oracle

>  <origin>  (39) 
adg

>  <m_score__min__energy>  (39) 
-16

>  <m_primary>  (39) 
energy

$$$$
39:0
     RDKit          3D

 48 50  0  0  0  0  0  0  0  0999 V2000
   58.8420   30.3880   44.4470 C   0  0  0  0  0  0  0  0  0  0  0  0
   57.2940   29.6740   43.9180 S   0  0  0  0  0  0  0  0  0  0  0  0
   56.9360   30.1520   42.5330 O   0  0  0  0  0  0  0  0  0  0  0  0
   56.2130   30.1100   44.8740 O   0  0  0  0  0  0  0  0  0  0  0  0
   57.3910   27.9380   43.9430 N   0  0  0  0  0  0  0  0  0  0  0  0
   57.6890   27.1470   45.1120 C   0  0  0  0  0  0  0  0  0  0  0  0
   56.9840   25.9480   45.3160 C   0  0  0  0  0  0  0  0  0  0  0  0
   57.2490   25.1490   46.4290 C   0  0  0  0  0  0  0  0  0  0  0  0
   58.2100   25.5380   47.3600 C   0  0  0  0  0  0  0  0  0  0  0  0
   58.9140   26.7430   47.1920 C   0  0  0  0  0  0  0  0  0  0  0  0
   59.9100   27.1610   48.2080 C   0  0  0  0  0  0  0  0  0  0  0  0
   60.9590   26.4800   48.3550 O   0  0  0  0  0  0  0  0  0  0  0  0
   59.7460   28.3430   49.0030 N   0  0  0  0  0  0  0  0  0  0  0  0
   59.9070   29.7030   48.5700 C   0  0  0  0  0  0  0  0  0  0  0  0
   60.7550   30.0540   47.5030 C   0  0  0  0  0  0  0  0  0  0  0  0
   60.8730   31.3910   47.1040 C   0  0  0  0  0  0  0  0  0  0  0  0
   60.1170   32.3860   47.7370 C   0  0  0  0  0  0  0  0  0  0  0  0
   60.2410   34.0730   47.2170 S   0  0  0  0  0  0  0  0  0  0  0  0
   60.3960   34.9560   48.4270 O   0  0  0  0  0  0  0  0  0  0  0  0
   61.4730   34.2350   46.3640 O   0  0  0  0  0  0  0  0  0  0  0  0
   58.8210   34.5960   46.3340 N   0  0  0  0  0  0  0  0  0  0  0  0
   57.6290   33.8280   46.7240 C   0  0  0  0  0  0  0  0  0  0  0  0
   57.3110   32.8650   45.5910 C   0  0  0  0  0  0  0  0  0  0  0  0
   57.8550   33.5540   44.3610 C   0  0  0  0  0  0  0  0  0  0  0  0
   58.9860   34.4350   44.8780 C   0  0  0  0  0  0  0  0  0  0  0  0
   59.2460   32.0310   48.7800 C   0  0  0  0  0  0  0  0  0  0  0  0
   59.1430   30.6980   49.1920 C   0  0  0  0  0  0  0  0  0  0  0  0
   58.6650   27.5320   46.0530 C   0  0  0  0  0  0  0  0  0  0  0  0
   58.8809   30.4059   45.5462 H   0  0  0  0  0  0  0  0  0  0  0  0
   59.6757   29.7835   44.0604 H   0  0  0  0  0  0  0  0  0  0  0  0
   58.9234   31.4146   44.0604 H   0  0  0  0  0  0  0  0  0  0  0  0
   57.1960   27.4480   43.0330 H   0  0  0  0  0  0  0  0  0  0  0  0
   56.2167   25.6369   44.5919 H   0  0  0  0  0  0  0  0  0  0  0  0
   56.6970   24.2083   46.5719 H   0  0  0  0  0  0  0  0  0  0  0  0
   58.4187   24.8990   48.2307 H   0  0  0  0  0  0  0  0  0  0  0  0
   61.3279   29.2742   46.9799 H   0  0  0  0  0  0  0  0  0  0  0  0
   61.5621   31.6611   46.2902 H   0  0  0  0  0  0  0  0  0  0  0  0
   57.8305   33.2664   47.6481 H   0  0  0  0  0  0  0  0  0  0  0  0
   56.7790   34.5015   46.9084 H   0  0  0  0  0  0  0  0  0  0  0  0
   57.8091   31.8971   45.7493 H   0  0  0  0  0  0  0  0  0  0  0  0
   56.2362   32.6448   45.5120 H   0  0  0  0  0  0  0  0  0  0  0  0
   58.2369   32.8160   43.6402 H   0  0  0  0  0  0  0  0  0  0  0  0
   57.0834   34.1346   43.8342 H   0  0  0  0  0  0  0  0  0  0  0  0
   59.9547   33.9598   44.6641 H   0  0  0  0  0  0  0  0  0  0  0  0
   58.9570   35.4170   44.3831 H   0  0  0  0  0  0  0  0  0  0  0  0
   58.6416   32.8051   49.2755 H   0  0  0  0  0  0  0  0  0  0  0  0
   58.4576   30.4299   50.0096 H   0  0  0  0  0  0  0  0  0  0  0  0
   59.2377   28.4579   45.8960 H   0  0  0  0  0  0  0  0  0  0  0  0
  1  2  1  0
  2  3  2  0
  2  4  2  0
  2  5  1  0
  5  6  1  0
  6  7  2  0
  7  8  1  0
  8  9  2  0
  9 10  1  0
 10 11  1  0
 11 12  2  0
 11 13  1  0
 13 14  1  0
 14 15  2  0
 15 16  1  0
 16 17  2  0
 17 18  1  0
 18 19  2  0
 18 20  2  0
 18 21  1  0
 21 22  1  0
 22 23  1  0
 23 24  1  0
 24 25  1  0
 17 26  1  0
 26 27  2  0
 10 28  2  0
 28  6  1  0
 27 14  1  0
 25 21  1  0
  1 29  1  0
  1 30  1  0
  1 31  1  0
  5 32  1  0
  7 33  1  0
  8 34  1  0
  9 35  1  0
 15 36  1  0
 16 37  1  0
 22 38  1  0
 22 39  1  0
 23 40  1  0
 23 41  1  0
 24 42  1  0
 24 43  1  0
 25 44  1  0
 25 45  1  0
 26 46  1  0
 27 47  1  0
 28 48  1  0
M  CHG  1  13  -1
M  END
>  <UniqueID>  (40) 
39

>  <SMILES>  (40) 
CS(=O)(=O)Nc1cccc(C(=O)[N-]c2ccc(S(=O)(=O)N3CCCC3)cc2)c1

>  <Energy>  (40) 
53.97596877238049

>  <Genealogy>  (40) 
CS(=O)(=O)Nc1cccc(C(=O)[N-]c2ccc(S(=O)(=O)N3CCCC3)cc2)c1 (protonated)
CS(=O)(=O)Nc1cccc(C(=O)[N-]c2ccc(S(=O)(=O)N3CCCC3)cc2)c1 (3D coordinates assigned)
CS(=O)(=O)Nc1cccc(C(=O)[N-]c2ccc(S(=O)(=O)N3CCCC3)cc2)c1 (nonaromatic ring conformer: 53.97596877238049 kcal/mol)

>  <smiles>  (40) 
CS(=O)(=O)Nc1cccc(C(=O)Nc2ccc(S(=O)(=O)N3CCCC3)cc2)c1

>  <score_type>  (40) 
oracle

>  <origin>  (40) 
adg

>  <m_score__min__energy>  (40) 
-11.02

>  <m_primary>  (40) 
energy

$$$$
40:0
     RDKit          3D

 62 65  0  0  0  0  0  0  0  0999 V2000
   60.4330   28.9620   44.9630 C   0  0  0  0  0  0  0  0  0  0  0  0
   60.0590   27.6830   45.5860 N   0  0  0  0  0  0  0  0  0  0  0  0
   60.0610   27.8350   47.0510 C   0  0  0  0  0  0  0  0  0  0  0  0
   58.7290   27.2610   45.0980 C   0  0  0  0  0  0  0  0  0  0  0  0
   58.3470   27.9890   43.8360 C   0  0  0  0  0  0  0  0  0  0  0  0
   57.3600   28.8880   43.7260 C   0  0  0  0  0  0  0  0  0  0  0  0
   56.6670   29.5500   44.8450 C   0  0  0  0  0  0  0  0  0  0  0  0
   55.4070   29.5100   44.8780 O   0  0  0  0  0  0  0  0  0  0  0  0
   57.3890   30.3410   45.7970 N   0  0  0  0  0  0  0  0  0  0  0  0
   57.8900   31.6730   45.5990 C   0  0  0  0  0  0  0  0  0  0  0  0
   57.3660   32.5120   44.5970 C   0  0  0  0  0  0  0  0  0  0  0  0
   57.8240   33.8250   44.4670 C   0  0  0  0  0  0  0  0  0  0  0  0
   58.7890   34.3220   45.3500 C   0  0  0  0  0  0  0  0  0  0  0  0
   59.2970   33.5060   46.3620 C   0  0  0  0  0  0  0  0  0  0  0  0
   58.8680   32.1770   46.4800 C   0  0  0  0  0  0  0  0  0  0  0  0
   59.5060   31.1470   47.8100 S   0  0  0  0  0  0  0  0  0  0  0  0
   61.1030   31.9690   47.9450 C   0  0  0  0  0  0  0  0  0  0  0  0
   62.1710   31.4480   47.2030 C   0  0  0  0  0  0  0  0  0  0  0  0
   63.3970   32.1170   47.1560 C   0  0  0  0  0  0  0  0  0  0  0  0
   63.5670   33.3140   47.8510 C   0  0  0  0  0  0  0  0  0  0  0  0
   62.5140   33.8400   48.6020 C   0  0  0  0  0  0  0  0  0  0  0  0
   61.2780   33.1760   48.6560 C   0  0  0  0  0  0  0  0  0  0  0  0
   60.2390   33.7130   49.5480 C   0  0  0  0  0  0  0  0  0  0  0  0
   59.5970   34.7180   49.1480 O   0  0  0  0  0  0  0  0  0  0  0  0
   59.8630   33.0530   50.8340 C   0  0  0  0  0  0  0  0  0  0  0  0
   60.7260   33.1350   51.9480 C   0  0  0  0  0  0  0  0  0  0  0  0
   61.9230   33.8420   51.8800 O   0  0  0  0  0  0  0  0  0  0  0  0
   60.3920   32.5390   53.1200 N   0  0  0  0  0  0  0  0  0  0  0  0
   59.2380   31.8470   53.2760 C   0  0  0  0  0  0  0  0  0  0  0  0
   58.3360   31.7210   52.2120 C   0  0  0  0  0  0  0  0  0  0  0  0
   57.0740   30.9580   52.4030 C   0  0  0  0  0  0  0  0  0  0  0  0
   55.8330   31.5540   52.1020 C   0  0  0  0  0  0  0  0  0  0  0  0
   54.6420   30.8450   52.2890 C   0  0  0  0  0  0  0  0  0  0  0  0
   54.6730   29.5380   52.7760 C   0  0  0  0  0  0  0  0  0  0  0  0
   55.8980   28.9350   53.0830 C   0  0  0  0  0  0  0  0  0  0  0  0
   57.0940   29.6370   52.9000 C   0  0  0  0  0  0  0  0  0  0  0  0
   58.2680   29.0190   53.1950 F   0  0  0  0  0  0  0  0  0  0  0  0
   58.6570   32.3270   50.9790 C   0  0  0  0  0  0  0  0  0  0  0  0
   57.8750   32.1890   50.0010 O   0  0  0  0  0  0  0  0  0  0  0  0
   60.6495   29.7024   45.7472 H   0  0  0  0  0  0  0  0  0  0  0  0
   61.3266   28.8179   44.3380 H   0  0  0  0  0  0  0  0  0  0  0  0
   59.6025   29.3221   44.3380 H   0  0  0  0  0  0  0  0  0  0  0  0
   60.0479   26.8414   47.5227 H   0  0  0  0  0  0  0  0  0  0  0  0
   60.9664   28.3767   47.3622 H   0  0  0  0  0  0  0  0  0  0  0  0
   59.1702   28.4004   47.3622 H   0  0  0  0  0  0  0  0  0  0  0  0
   58.7493   26.1801   44.8948 H   0  0  0  0  0  0  0  0  0  0  0  0
   57.9855   27.5002   45.8726 H   0  0  0  0  0  0  0  0  0  0  0  0
   58.9269   27.7636   42.9289 H   0  0  0  0  0  0  0  0  0  0  0  0
   57.0380   29.1560   42.7089 H   0  0  0  0  0  0  0  0  0  0  0  0
   56.5925   32.1317   43.9136 H   0  0  0  0  0  0  0  0  0  0  0  0
   57.4256   34.4693   43.6694 H   0  0  0  0  0  0  0  0  0  0  0  0
   59.1476   35.3567   45.2465 H   0  0  0  0  0  0  0  0  0  0  0  0
   60.0371   33.9076   47.0698 H   0  0  0  0  0  0  0  0  0  0  0  0
   62.0434   30.5042   46.6526 H   0  0  0  0  0  0  0  0  0  0  0  0
   64.2289   31.6990   46.5701 H   0  0  0  0  0  0  0  0  0  0  0  0
   64.5302   33.8435   47.8076 H   0  0  0  0  0  0  0  0  0  0  0  0
   62.6536   34.7806   49.1549 H   0  0  0  0  0  0  0  0  0  0  0  0
   59.0077   31.3807   54.2453 H   0  0  0  0  0  0  0  0  0  0  0  0
   55.8008   32.5840   51.7173 H   0  0  0  0  0  0  0  0  0  0  0  0
   53.6783   31.3192   52.0515 H   0  0  0  0  0  0  0  0  0  0  0  0
   53.7349   28.9816   52.9186 H   0  0  0  0  0  0  0  0  0  0  0  0
   55.9204   27.9054   53.4696 H   0  0  0  0  0  0  0  0  0  0  0  0
  1  2  1  0
  2  3  1  0
  2  4  1  0
  4  5  1  0
  5  6  2  3
  6  7  1  0
  7  8  2  0
  7  9  1  0
  9 10  1  0
 10 11  2  0
 11 12  1  0
 12 13  2  0
 13 14  1  0
 14 15  2  0
 15 16  1  0
 16 17  1  0
 17 18  2  0
 18 19  1  0
 19 20  2  0
 20 21  1  0
 21 22  2  0
 22 23  1  0
 23 24  2  0
 23 25  1  0
 25 26  2  0
 26 27  1  0
 26 28  1  0
 28 29  1  0
 29 30  2  0
 30 31  1  0
 31 32  2  0
 32 33  1  0
 33 34  2  0
 34 35  1  0
 35 36  2  0
 36 37  1  0
 30 38  1  0
 38 39  2  0
 15 10  1  0
 22 17  1  0
 38 25  1  0
 36 31  1  0
  1 40  1  0
  1 41  1  0
  1 42  1  0
  3 43  1  0
  3 44  1  0
  3 45  1  0
  4 46  1  0
  4 47  1  0
  5 48  1  0
  6 49  1  0
 11 50  1  0
 12 51  1  0
 13 52  1  0
 14 53  1  0
 18 54  1  0
 19 55  1  0
 20 56  1  0
 21 57  1  0
 29 58  1  0
 32 59  1  0
 33 60  1  0
 34 61  1  0
 35 62  1  0
M  CHG  3   9  -1  27  -1  28  -1
M  END
>  <UniqueID>  (41) 
40

>  <SMILES>  (41) 
CN(C)CC=CC(=O)[N-]c1ccccc1Sc1ccccc1C(=O)c1c([O-])[n-]cc(-c2ccccc2F)c1=O

>  <Energy>  (41) 
85.23214504224315

>  <Genealogy>  (41) 
CN(C)CC=CC(=O)[N-]c1ccccc1Sc1ccccc1C(=O)c1c([O-])[n-]cc(-c2ccccc2F)c1=O (protonated)
CN(C)CC=CC(=O)[N-]c1ccccc1Sc1ccccc1C(=O)c1c([O-])[n-]cc(-c2ccccc2F)c1=O (3D coordinates assigned)
CN(C)CC=CC(=O)[N-]c1ccccc1Sc1ccccc1C(=O)c1c([O-])[n-]cc(-c2ccccc2F)c1=O (optimized conformer: 85.23214504224315 kcal/mol)

>  <smiles>  (41) 
CN(C)CC=CC(=O)Nc1ccccc1Sc1ccccc1C(=O)c1c(O)[nH]cc(-c2ccccc2F)c1=O

>  <score_type>  (41) 
oracle

>  <origin>  (41) 
adg

>  <m_score__min__energy>  (41) 
-15.08

>  <m_primary>  (41) 
energy

$$$$
41:0
     RDKit          3D

 55 58  0  0  0  0  0  0  0  0999 V2000
   60.4420   26.6610   49.3080 N   0  0  0  0  0  0  0  0  0  0  0  0
   59.8970   26.7150   48.2880 C   0  0  0  0  0  0  0  0  0  0  0  0
   59.2190   26.7860   47.0170 C   0  0  0  0  0  0  0  0  0  0  0  0
   58.6210   25.6320   46.5000 C   0  0  0  0  0  0  0  0  0  0  0  0
   57.9900   25.6350   45.2360 C   0  0  0  0  0  0  0  0  0  0  0  0
   57.3650   24.4270   44.6980 N   0  0  0  0  0  0  0  0  0  0  0  0
   56.6550   24.4940   43.4020 C   0  0  0  0  0  0  0  0  0  0  0  0
   56.0010   23.1720   42.9890 C   0  0  0  0  0  0  0  0  0  0  0  0
   56.8110   22.0770   43.3410 O   0  0  0  0  0  0  0  0  0  0  0  0
   56.8200   21.9670   44.7440 C   0  0  0  0  0  0  0  0  0  0  0  0
   57.5810   23.1330   45.3800 C   0  0  0  0  0  0  0  0  0  0  0  0
   57.9920   26.8450   44.5070 C   0  0  0  0  0  0  0  0  0  0  0  0
   58.5760   28.0140   45.0220 C   0  0  0  0  0  0  0  0  0  0  0  0
   58.6490   29.2420   44.1490 C   0  0  0  0  0  0  0  0  0  0  0  0
   57.0090   29.8720   43.8230 S   0  0  0  0  0  0  0  0  0  0  0  0
   56.1460   29.6460   45.0310 O   0  0  0  0  0  0  0  0  0  0  0  0
   56.3930   29.1680   42.6450 O   0  0  0  0  0  0  0  0  0  0  0  0
   57.0950   31.5740   43.5010 N   0  0  0  0  0  0  0  0  0  0  0  0
   57.5260   32.4490   44.3580 C   0  0  0  0  0  0  0  0  0  0  0  0
   58.5270   33.2970   43.9990 N   0  0  0  0  0  0  0  0  0  0  0  0
   59.0010   34.2280   44.8680 C   0  0  0  0  0  0  0  0  0  0  0  0
   58.4610   34.3230   46.1490 C   0  0  0  0  0  0  0  0  0  0  0  0
   57.4360   33.4480   46.5040 C   0  0  0  0  0  0  0  0  0  0  0  0
   56.9890   32.5310   45.6070 N   0  0  0  0  0  0  0  0  0  0  0  0
   59.1770   27.9880   46.2960 C   0  0  0  0  0  0  0  0  0  0  0  0
   59.7590   29.1440   46.8330 O   0  0  0  0  0  0  0  0  0  0  0  0
   58.9880   30.2890   47.1960 C   0  0  0  0  0  0  0  0  0  0  0  0
   59.8770   31.3790   47.7230 C   0  0  0  0  0  0  0  0  0  0  0  0
   59.4570   32.1770   48.8000 C   0  0  0  0  0  0  0  0  0  0  0  0
   60.3060   33.1570   49.3230 C   0  0  0  0  0  0  0  0  0  0  0  0
   61.5810   33.3430   48.7790 C   0  0  0  0  0  0  0  0  0  0  0  0
   62.6470   34.5690   49.4410 Cl  0  0  0  0  0  0  0  0  0  0  0  0
   62.0080   32.5460   47.7120 C   0  0  0  0  0  0  0  0  0  0  0  0
   61.1620   31.5640   47.1880 C   0  0  0  0  0  0  0  0  0  0  0  0
   58.6425   24.7035   47.0895 H   0  0  0  0  0  0  0  0  0  0  0  0
   55.8705   25.2616   43.4751 H   0  0  0  0  0  0  0  0  0  0  0  0
   57.4068   24.7338   42.6357 H   0  0  0  0  0  0  0  0  0  0  0  0
   55.0290   23.0779   43.4954 H   0  0  0  0  0  0  0  0  0  0  0  0
   55.8682   23.1729   41.8970 H   0  0  0  0  0  0  0  0  0  0  0  0
   55.7834   21.9705   45.1119 H   0  0  0  0  0  0  0  0  0  0  0  0
   57.3230   21.0282   45.0190 H   0  0  0  0  0  0  0  0  0  0  0  0
   57.2532   23.2325   46.4253 H   0  0  0  0  0  0  0  0  0  0  0  0
   58.6529   22.9008   45.2962 H   0  0  0  0  0  0  0  0  0  0  0  0
   57.5247   26.8724   43.5116 H   0  0  0  0  0  0  0  0  0  0  0  0
   59.2396   30.0161   44.6608 H   0  0  0  0  0  0  0  0  0  0  0  0
   59.1247   28.9736   43.1942 H   0  0  0  0  0  0  0  0  0  0  0  0
   59.8105   34.9062   44.5604 H   0  0  0  0  0  0  0  0  0  0  0  0
   58.8350   35.0712   46.8634 H   0  0  0  0  0  0  0  0  0  0  0  0
   56.9900   33.4998   47.5082 H   0  0  0  0  0  0  0  0  0  0  0  0
   58.4496   30.6579   46.3105 H   0  0  0  0  0  0  0  0  0  0  0  0
   58.2746   30.0016   47.9825 H   0  0  0  0  0  0  0  0  0  0  0  0
   58.4567   32.0304   49.2334 H   0  0  0  0  0  0  0  0  0  0  0  0
   59.9708   33.7826   50.1634 H   0  0  0  0  0  0  0  0  0  0  0  0
   63.0109   32.6920   47.2844 H   0  0  0  0  0  0  0  0  0  0  0  0
   61.5042   30.9341   46.3537 H   0  0  0  0  0  0  0  0  0  0  0  0
  1  2  3  0
  2  3  1  0
  3  4  2  0
  4  5  1  0
  5  6  1  0
  6  7  1  0
  7  8  1  0
  8  9  1  0
  9 10  1  0
 10 11  1  0
  5 12  2  0
 12 13  1  0
 13 14  1  0
 14 15  1  0
 15 16  2  0
 15 17  2  0
 15 18  1  0
 18 19  2  3
 19 20  1  0
 20 21  2  0
 21 22  1  0
 22 23  2  0
 23 24  1  0
 13 25  2  0
 25 26  1  0
 26 27  1  0
 27 28  1  0
 28 29  2  0
 29 30  1  0
 30 31  2  0
 31 32  1  0
 31 33  1  0
 33 34  2  0
 25  3  1  0
 34 28  1  0
 11  6  1  0
 24 19  1  0
  4 35  1  0
  7 36  1  0
  7 37  1  0
  8 38  1  0
  8 39  1  0
 10 40  1  0
 10 41  1  0
 11 42  1  0
 11 43  1  0
 12 44  1  0
 14 45  1  0
 14 46  1  0
 21 47  1  0
 22 48  1  0
 23 49  1  0
 27 50  1  0
 27 51  1  0
 29 52  1  0
 30 53  1  0
 33 54  1  0
 34 55  1  0
M  CHG  1  24  -1
M  END
>  <UniqueID>  (42) 
41

>  <SMILES>  (42) 
N#Cc1cc(N2CCOCC2)cc(CS(=O)(=O)N=c2nccc[n-]2)c1OCc1ccc(Cl)cc1

>  <Energy>  (42) 
70.15610931596757

>  <Genealogy>  (42) 
N#Cc1cc(N2CCOCC2)cc(CS(=O)(=O)N=c2nccc[n-]2)c1OCc1ccc(Cl)cc1 (protonated)
N#Cc1cc(N2CCOCC2)cc(CS(=O)(=O)N=c2nccc[n-]2)c1OCc1ccc(Cl)cc1 (3D coordinates assigned)
N#Cc1cc(N2CCOCC2)cc(CS(=O)(=O)N=c2nccc[n-]2)c1OCc1ccc(Cl)cc1 (nonaromatic ring conformer: 70.15610931596757 kcal/mol)

>  <smiles>  (42) 
N#Cc1cc(N2CCOCC2)cc(CS(=O)(=O)N=c2nccc[nH]2)c1OCc1ccc(Cl)cc1

>  <score_type>  (42) 
oracle

>  <origin>  (42) 
adg

>  <m_score__min__energy>  (42) 
-10.56

>  <m_primary>  (42) 
energy

$$$$
42:0
     RDKit          3D

 50 52  0  0  0  0  0  0  0  0999 V2000
   59.4360   29.1605   43.9964 H   0  0  0  0  0  0  0  0  0  0  0  0
   58.7030   29.4090   44.7780 C   0  0  0  0  0  0  0  0  0  0  0  0
   58.3400   30.7030   44.9030 C   0  0  0  0  0  0  0  0  0  0  0  0
   58.7530   31.5690   46.0420 C   0  0  0  0  0  0  0  0  0  0  0  0
   59.1950   31.0540   47.1070 O   0  0  0  0  0  0  0  0  0  0  0  0
   58.5930   33.0440   45.9460 C   0  0  0  0  0  0  0  0  0  0  0  0
   59.0720   33.8360   46.9270 C   0  0  0  0  0  0  0  0  0  0  0  0
   58.3730   34.5129   47.4401 H   0  0  0  0  0  0  0  0  0  0  0  0
   60.4850   33.8400   47.3460 C   0  0  0  0  0  0  0  0  0  0  0  0
   61.4860   33.8260   46.3630 C   0  0  0  0  0  0  0  0  0  0  0  0
   61.2075   33.8134   45.2989 H   0  0  0  0  0  0  0  0  0  0  0  0
   62.8340   33.8280   46.7280 C   0  0  0  0  0  0  0  0  0  0  0  0
   63.6138   33.8209   45.9522 H   0  0  0  0  0  0  0  0  0  0  0  0
   63.1920   33.8390   48.0770 C   0  0  0  0  0  0  0  0  0  0  0  0
   64.2542   33.8430   48.3627 H   0  0  0  0  0  0  0  0  0  0  0  0
   62.2050   33.8450   49.0650 C   0  0  0  0  0  0  0  0  0  0  0  0
   62.4949   33.8545   50.1261 H   0  0  0  0  0  0  0  0  0  0  0  0
   60.8450   33.8390   48.7140 C   0  0  0  0  0  0  0  0  0  0  0  0
   59.7940   33.8490   49.7920 C   0  0  0  0  0  0  0  0  0  0  0  0
   60.2806   33.8444   50.7785 H   0  0  0  0  0  0  0  0  0  0  0  0
   59.1753   34.7531   49.6925 H   0  0  0  0  0  0  0  0  0  0  0  0
   59.1582   32.9569   49.6925 H   0  0  0  0  0  0  0  0  0  0  0  0
   57.7780   33.6230   44.8020 C   0  0  0  0  0  0  0  0  0  0  0  0
   58.1852   34.6112   44.5421 H   0  0  0  0  0  0  0  0  0  0  0  0
   56.7324   33.6948   45.1361 H   0  0  0  0  0  0  0  0  0  0  0  0
   57.8120   32.7330   43.5560 C   0  0  0  0  0  0  0  0  0  0  0  0
   58.8335   32.7269   43.1479 H   0  0  0  0  0  0  0  0  0  0  0  0
   57.1013   33.1382   42.8207 H   0  0  0  0  0  0  0  0  0  0  0  0
   57.3990   31.2980   43.8860 C   0  0  0  0  0  0  0  0  0  0  0  0
   57.4266   30.6923   42.9682 H   0  0  0  0  0  0  0  0  0  0  0  0
   56.3808   31.3056   44.3022 H   0  0  0  0  0  0  0  0  0  0  0  0
   58.1910   28.3000   45.6110 C   0  0  0  0  0  0  0  0  0  0  0  0
   56.9050   27.8010   45.3520 C   0  0  0  0  0  0  0  0  0  0  0  0
   56.2974   28.2479   44.5514 H   0  0  0  0  0  0  0  0  0  0  0  0
   56.3870   26.7340   46.1080 C   0  0  0  0  0  0  0  0  0  0  0  0
   55.1000   26.2160   45.8960 O   0  0  0  0  0  0  0  0  0  0  0  0
   54.8170   24.8460   45.6290 C   0  0  0  0  0  0  0  0  0  0  0  0
   54.7048   24.3029   46.5790 H   0  0  0  0  0  0  0  0  0  0  0  0
   53.8842   24.7702   45.0509 H   0  0  0  0  0  0  0  0  0  0  0  0
   55.6434   24.4068   45.0509 H   0  0  0  0  0  0  0  0  0  0  0  0
   57.1750   26.1600   47.1090 C   0  0  0  0  0  0  0  0  0  0  0  0
   56.7736   25.3309   47.7103 H   0  0  0  0  0  0  0  0  0  0  0  0
   58.4670   26.6290   47.3530 C   0  0  0  0  0  0  0  0  0  0  0  0
   59.0775   26.1627   48.1403 H   0  0  0  0  0  0  0  0  0  0  0  0
   58.9940   27.6940   46.5990 C   0  0  0  0  0  0  0  0  0  0  0  0
   60.3040   28.1650   46.7950 O   0  0  0  0  0  0  0  0  0  0  0  0
   60.7760   28.7630   47.9960 C   0  0  0  0  0  0  0  0  0  0  0  0
   60.3551   28.2297   48.8611 H   0  0  0  0  0  0  0  0  0  0  0  0
   61.8740   28.7044   48.0279 H   0  0  0  0  0  0  0  0  0  0  0  0
   60.4640   29.8173   48.0279 H   0  0  0  0  0  0  0  0  0  0  0  0
  1  2  1  0
  2  3  2  3
  3  4  1  0
  4  5  2  0
  4  6  1  0
  6  7  2  0
  7  8  1  0
  7  9  1  0
  9 10  2  0
 10 11  1  0
 10 12  1  0
 12 13  1  0
 12 14  2  0
 14 15  1  0
 14 16  1  0
 16 17  1  0
 16 18  2  0
 18 19  1  0
 19 20  1  0
 19 21  1  0
 19 22  1  0
  6 23  1  0
 23 24  1  0
 23 25  1  0
 23 26  1  0
 26 27  1  0
 26 28  1  0
 26 29  1  0
 29 30  1  0
 29 31  1  0
  2 32  1  0
 32 33  2  0
 33 34  1  0
 33 35  1  0
 35 36  1  0
 36 37  1  0
 37 38  1  0
 37 39  1  0
 37 40  1  0
 35 41  2  0
 41 42  1  0
 41 43  1  0
 43 44  1  0
 43 45  2  0
 45 46  1  0
 46 47  1  0
 47 48  1  0
 47 49  1  0
 47 50  1  0
 29  3  1  0
 45 32  1  0
 18  9  1  0
M  END
>  <UniqueID>  (43) 
42

>  <SMILES>  (43) 
COc1ccc(OC)c(C=C2CCC/C(=C\c3ccccc3C)C2=O)c1

>  <Energy>  (43) 
67.04642155223165

>  <Genealogy>  (43) 
COc1ccc(OC)c(C=C2CCC/C(=C\c3ccccc3C)C2=O)c1 (cis-trans isomerization)
COc1ccc(OC)c(C=C2CCC/C(=C\c3ccccc3C)C2=O)c1 (3D coordinates assigned)
COc1ccc(OC)c(C=C2CCC/C(=C\c3ccccc3C)C2=O)c1 (nonaromatic ring conformer: 67.04642155223165 kcal/mol)

>  <smiles>  (43) 
COc1ccc(OC)c(C=C2CCCC(=Cc3ccccc3C)C2=O)c1

>  <score_type>  (43) 
oracle

>  <origin>  (43) 
adg

>  <m_score__min__energy>  (43) 
-8.9800000000000004

>  <m_primary>  (43) 
energy

$$$$
43:0
     RDKit          3D

 39 41  0  0  0  0  0  0  0  0999 V2000
   60.4310   30.1850   46.3180 C   0  0  0  0  0  0  0  0  0  0  0  0
   59.2620   29.7330   45.8140 C   0  0  0  0  0  0  0  0  0  0  0  0
   59.0940   28.3460   45.5810 C   0  0  0  0  0  0  0  0  0  0  0  0
   60.0160   27.5370   45.8840 O   0  0  0  0  0  0  0  0  0  0  0  0
   57.8750   27.8850   45.0330 C   0  0  0  0  0  0  0  0  0  0  0  0
   57.6040   26.5930   44.7480 C   0  0  0  0  0  0  0  0  0  0  0  0
   57.1610   25.5660   45.7150 C   0  0  0  0  0  0  0  0  0  0  0  0
   55.9010   25.6400   46.3300 C   0  0  0  0  0  0  0  0  0  0  0  0
   55.0200   26.6690   46.0190 O   0  0  0  0  0  0  0  0  0  0  0  0
   55.5370   24.7040   47.2450 N   0  0  0  0  0  0  0  0  0  0  0  0
   56.3800   23.6980   47.5890 C   0  0  0  0  0  0  0  0  0  0  0  0
   55.9150   22.5860   48.6900 S   0  0  0  0  0  0  0  0  0  0  0  0
   57.6130   23.6190   47.0270 N   0  0  0  0  0  0  0  0  0  0  0  0
   58.0240   24.5310   46.1070 C   0  0  0  0  0  0  0  0  0  0  0  0
   59.1780   24.4330   45.6100 O   0  0  0  0  0  0  0  0  0  0  0  0
   56.8930   28.7890   44.7930 N   0  0  0  0  0  0  0  0  0  0  0  0
   57.0460   30.1130   45.0270 C   0  0  0  0  0  0  0  0  0  0  0  0
   56.0860   30.8910   44.7730 O   0  0  0  0  0  0  0  0  0  0  0  0
   58.2250   30.5970   45.5280 N   0  0  0  0  0  0  0  0  0  0  0  0
   58.3390   32.0220   45.7460 C   0  0  0  0  0  0  0  0  0  0  0  0
   58.4870   32.5290   47.0580 C   0  0  0  0  0  0  0  0  0  0  0  0
   58.5250   31.5970   48.2380 C   0  0  0  0  0  0  0  0  0  0  0  0
   58.5950   33.9130   47.2570 C   0  0  0  0  0  0  0  0  0  0  0  0
   58.5580   34.7880   46.1720 C   0  0  0  0  0  0  0  0  0  0  0  0
   58.4130   34.2940   44.8750 C   0  0  0  0  0  0  0  0  0  0  0  0
   58.3020   32.9130   44.6490 C   0  0  0  0  0  0  0  0  0  0  0  0
   58.1420   32.3960   43.2450 C   0  0  0  0  0  0  0  0  0  0  0  0
   60.5713   31.2603   46.5025 H   0  0  0  0  0  0  0  0  0  0  0  0
   61.2426   29.4777   46.5439 H   0  0  0  0  0  0  0  0  0  0  0  0
   57.7237   26.2760   43.7015 H   0  0  0  0  0  0  0  0  0  0  0  0
   58.5011   32.1827   49.1688 H   0  0  0  0  0  0  0  0  0  0  0  0
   57.6534   30.9268   48.2041 H   0  0  0  0  0  0  0  0  0  0  0  0
   59.4482   30.9999   48.2041 H   0  0  0  0  0  0  0  0  0  0  0  0
   58.7097   34.3110   48.2760 H   0  0  0  0  0  0  0  0  0  0  0  0
   58.6434   35.8719   46.3391 H   0  0  0  0  0  0  0  0  0  0  0  0
   58.3855   34.9910   44.0245 H   0  0  0  0  0  0  0  0  0  0  0  0
   57.8169   31.3456   43.2759 H   0  0  0  0  0  0  0  0  0  0  0  0
   57.3881   32.9978   42.7164 H   0  0  0  0  0  0  0  0  0  0  0  0
   59.1041   32.4667   42.7164 H   0  0  0  0  0  0  0  0  0  0  0  0
  1  2  2  0
  2  3  1  0
  3  4  2  0
  3  5  1  0
  5  6  2  3
  6  7  1  0
  7  8  2  0
  8  9  1  0
  8 10  1  0
 10 11  1  0
 11 12  2  0
 11 13  1  0
 13 14  1  0
 14 15  2  0
  5 16  1  0
 16 17  1  0
 17 18  2  0
 17 19  1  0
 19 20  1  0
 20 21  2  0
 21 22  1  0
 21 23  1  0
 23 24  2  0
 24 25  1  0
 25 26  2  0
 26 27  1  0
 19  2  1  0
 26 20  1  0
 14  7  1  0
  1 28  1  0
  1 29  1  0
  6 30  1  0
 22 31  1  0
 22 32  1  0
 22 33  1  0
 23 34  1  0
 24 35  1  0
 25 36  1  0
 27 37  1  0
 27 38  1  0
 27 39  1  0
M  CHG  4   9  -1  10  -1  13  -1  16  -1
M  END
>  <UniqueID>  (44) 
43

>  <SMILES>  (44) 
C=c1c(=O)c(=Cc2c([O-])[n-]c(=S)[n-]c2=O)[n-]c(=O)n1-c1c(C)cccc1C

>  <Energy>  (44) 
71.29316655486906

>  <Genealogy>  (44) 
C=c1c(=O)c(=Cc2c([O-])[n-]c(=S)[n-]c2=O)[n-]c(=O)n1-c1c(C)cccc1C (protonated)
C=c1c(=O)c(=Cc2c([O-])[n-]c(=S)[n-]c2=O)[n-]c(=O)n1-c1c(C)cccc1C (3D coordinates assigned)
C=c1c(=O)c(=Cc2c([O-])[n-]c(=S)[n-]c2=O)[n-]c(=O)n1-c1c(C)cccc1C (optimized conformer: 71.29316655486906 kcal/mol)

>  <smiles>  (44) 
C=c1c(=O)c(=Cc2c(O)[nH]c(=S)[nH]c2=O)[nH]c(=O)n1-c1c(C)cccc1C

>  <score_type>  (44) 
oracle

>  <origin>  (44) 
adg

>  <m_score__min__energy>  (44) 
-17.5

>  <m_primary>  (44) 
energy

$$$$
44:0
     RDKit          3D

 37 39  0  0  0  0  0  0  0  0999 V2000
   60.7478   28.0941   45.2357 H   0  0  0  0  0  0  0  0  0  0  0  0
   59.9790   28.8660   45.3880 C   0  0  0  0  0  0  0  0  0  0  0  0
   59.0370   28.9670   44.4930 N   0  0  0  0  0  0  0  0  0  0  0  0
   57.7200   29.3930   44.7510 N   0  0  0  0  0  0  0  0  0  0  0  0
   57.1250   30.4870   44.2440 C   0  0  0  0  0  0  0  0  0  0  0  0
   57.8160   31.5450   43.4360 C   0  0  0  0  0  0  0  0  0  0  0  0
   58.9034   31.3890   43.4930 H   0  0  0  0  0  0  0  0  0  0  0  0
   57.4717   31.4724   42.3938 H   0  0  0  0  0  0  0  0  0  0  0  0
   57.5040   32.8480   43.9300 O   0  0  0  0  0  0  0  0  0  0  0  0
   58.0570   33.4300   45.0810 C   0  0  0  0  0  0  0  0  0  0  0  0
   57.6420   33.0830   46.3820 C   0  0  0  0  0  0  0  0  0  0  0  0
   56.8358   32.3481   46.5230 H   0  0  0  0  0  0  0  0  0  0  0  0
   58.2530   33.6710   47.4950 C   0  0  0  0  0  0  0  0  0  0  0  0
   57.9299   33.3937   48.5093 H   0  0  0  0  0  0  0  0  0  0  0  0
   59.2730   34.6100   47.3200 C   0  0  0  0  0  0  0  0  0  0  0  0
   59.7545   35.0687   48.1962 H   0  0  0  0  0  0  0  0  0  0  0  0
   59.6810   34.9660   46.0330 C   0  0  0  0  0  0  0  0  0  0  0  0
   60.4821   35.7072   45.8959 H   0  0  0  0  0  0  0  0  0  0  0  0
   59.0720   34.3810   44.9180 C   0  0  0  0  0  0  0  0  0  0  0  0
   59.3925   34.6699   43.9062 H   0  0  0  0  0  0  0  0  0  0  0  0
   55.7950   30.4630   44.4680 N   0  0  0  0  0  0  0  0  0  0  0  0
   55.5260   29.3290   45.1030 N   0  0  0  0  0  0  0  0  0  0  0  0
   56.6950   28.6790   45.2580 C   0  0  0  0  0  0  0  0  0  0  0  0
   56.7970   27.1440   45.8190 S   0  0  0  0  0  0  0  0  0  0  0  0
   60.0880   29.7170   46.5960 C   0  0  0  0  0  0  0  0  0  0  0  0
   59.1820   29.6140   47.6650 C   0  0  0  0  0  0  0  0  0  0  0  0
   58.3788   28.8632   47.6312 H   0  0  0  0  0  0  0  0  0  0  0  0
   59.2960   30.4590   48.7690 C   0  0  0  0  0  0  0  0  0  0  0  0
   58.5889   30.3643   49.6063 H   0  0  0  0  0  0  0  0  0  0  0  0
   60.3030   31.4240   48.8160 C   0  0  0  0  0  0  0  0  0  0  0  0
   60.3901   32.0807   49.6942 H   0  0  0  0  0  0  0  0  0  0  0  0
   61.2060   31.5620   47.7490 C   0  0  0  0  0  0  0  0  0  0  0  0
   62.2380   32.5650   47.7950 N   0  0  0  0  0  0  0  0  0  0  0  0
   62.0510   33.6450   48.3930 O   0  0  0  0  0  0  0  0  0  0  0  0
   63.4490   32.3510   47.1760 O   0  0  0  0  0  0  0  0  0  0  0  0
   61.0820   30.7080   46.6360 C   0  0  0  0  0  0  0  0  0  0  0  0
   61.7727   30.8187   45.7871 H   0  0  0  0  0  0  0  0  0  0  0  0
  1  2  1  0
  2  3  2  0
  3  4  1  0
  4  5  1  0
  5  6  1  0
  6  7  1  0
  6  8  1  0
  6  9  1  0
  9 10  1  0
 10 11  2  0
 11 12  1  0
 11 13  1  0
 13 14  1  0
 13 15  2  0
 15 16  1  0
 15 17  1  0
 17 18  1  0
 17 19  2  0
 19 20  1  0
  5 21  2  0
 21 22  1  0
 22 23  1  0
 23 24  2  0
  2 25  1  0
 25 26  2  0
 26 27  1  0
 26 28  1  0
 28 29  1  0
 28 30  2  0
 30 31  1  0
 30 32  1  0
 32 33  1  0
 33 34  2  0
 33 35  1  0
 32 36  2  0
 36 37  1  0
 23  4  1  0
 36 25  1  0
 19 10  1  0
M  CHG  3  22  -1  33   1  35  -1
M  END
>  <UniqueID>  (45) 
44

>  <SMILES>  (45) 
O=[N+]([O-])c1cccc(/C=N\n2c(COc3ccccc3)n[n-]c2=S)c1

>  <Energy>  (45) 
86.35043796250014

>  <Genealogy>  (45) 
O=[N+]([O-])c1cccc(C=Nn2c(COc3ccccc3)n[n-]c2=S)c1 (protonated)
O=[N+]([O-])c1cccc(/C=N\n2c(COc3ccccc3)n[n-]c2=S)c1 (cis-trans isomerization)
O=[N+]([O-])c1cccc(/C=N\n2c(COc3ccccc3)n[n-]c2=S)c1 (3D coordinates assigned)
O=[N+]([O-])c1cccc(/C=N\n2c(COc3ccccc3)n[n-]c2=S)c1 (optimized conformer: 86.35043796250014 kcal/mol)

>  <smiles>  (45) 
O=[N+]([O-])c1cccc(C=Nn2c(COc3ccccc3)n[nH]c2=S)c1

>  <score_type>  (45) 
oracle

>  <origin>  (45) 
adg

>  <m_score__min__energy>  (45) 
-9.4600000000000009

>  <m_primary>  (45) 
energy

$$$$
45:0
     RDKit          3D

 39 41  0  0  0  0  0  0  0  0999 V2000
   55.2160   30.0530   45.6190 H   0  0  0  0  0  0  0  0  0  0  0  0
   55.4130   29.3360   44.9330 O   0  0  0  0  0  0  0  0  0  0  0  0
   56.2020   28.2340   45.2530 C   0  0  0  0  0  0  0  0  0  0  0  0
   55.6180   27.1090   45.7440 N   0  0  0  0  0  0  0  0  0  0  0  0
   56.3550   26.0090   46.0440 C   0  0  0  0  0  0  0  0  0  0  0  0
   55.7930   24.9820   46.5000 O   0  0  0  0  0  0  0  0  0  0  0  0
   57.6980   26.0170   45.8480 N   0  0  0  0  0  0  0  0  0  0  0  0
   58.3310   27.1160   45.3610 C   0  0  0  0  0  0  0  0  0  0  0  0
   59.5780   27.0850   45.1840 O   0  0  0  0  0  0  0  0  0  0  0  0
   57.5950   28.2750   45.0690 C   0  0  0  0  0  0  0  0  0  0  0  0
   58.2560   29.4640   44.4970 C   0  0  0  0  0  0  0  0  0  0  0  0
   58.8028   29.3269   43.5524 H   0  0  0  0  0  0  0  0  0  0  0  0
   58.2500   30.7030   45.0280 C   0  0  0  0  0  0  0  0  0  0  0  0
   57.8040   31.8080   44.3260 C   0  0  0  0  0  0  0  0  0  0  0  0
   57.4623   31.8252   43.2805 H   0  0  0  0  0  0  0  0  0  0  0  0
   57.8690   32.8830   45.1850 C   0  0  0  0  0  0  0  0  0  0  0  0
   57.5000   34.2860   44.8030 C   0  0  0  0  0  0  0  0  0  0  0  0
   57.3426   34.8843   45.7125 H   0  0  0  0  0  0  0  0  0  0  0  0
   58.3120   34.7297   44.2082 H   0  0  0  0  0  0  0  0  0  0  0  0
   56.5748   34.2728   44.2082 H   0  0  0  0  0  0  0  0  0  0  0  0
   58.3680   32.5050   46.3860 N   0  0  0  0  0  0  0  0  0  0  0  0
   58.6270   33.4150   47.5150 C   0  0  0  0  0  0  0  0  0  0  0  0
   58.2219   34.4095   47.2764 H   0  0  0  0  0  0  0  0  0  0  0  0
   58.1406   33.0079   48.4137 H   0  0  0  0  0  0  0  0  0  0  0  0
   60.1070   33.5350   47.7800 C   0  0  0  0  0  0  0  0  0  0  0  0
   61.0280   33.4400   46.7220 C   0  0  0  0  0  0  0  0  0  0  0  0
   60.6678   33.2841   45.6944 H   0  0  0  0  0  0  0  0  0  0  0  0
   62.4010   33.5430   46.9710 C   0  0  0  0  0  0  0  0  0  0  0  0
   63.1171   33.4647   46.1397 H   0  0  0  0  0  0  0  0  0  0  0  0
   62.8640   33.7450   48.2730 C   0  0  0  0  0  0  0  0  0  0  0  0
   64.1940   33.8440   48.5120 F   0  0  0  0  0  0  0  0  0  0  0  0
   61.9540   33.8460   49.3300 C   0  0  0  0  0  0  0  0  0  0  0  0
   62.3188   34.0075   50.3551 H   0  0  0  0  0  0  0  0  0  0  0  0
   60.5810   33.7420   49.0860 C   0  0  0  0  0  0  0  0  0  0  0  0
   59.8689   33.8227   49.9205 H   0  0  0  0  0  0  0  0  0  0  0  0
   58.6340   31.1710   46.2980 C   0  0  0  0  0  0  0  0  0  0  0  0
   59.2620   30.4680   47.2560 C   0  0  0  0  0  0  0  0  0  0  0  0
   59.5119   30.9461   48.2146 H   0  0  0  0  0  0  0  0  0  0  0  0
   59.5261   29.4145   47.0814 H   0  0  0  0  0  0  0  0  0  0  0  0
  1  2  1  0
  2  3  1  0
  3  4  1  0
  4  5  1  0
  5  6  2  0
  5  7  1  0
  7  8  1  0
  8  9  2  0
  8 10  1  0
 10 11  1  0
 11 12  1  0
 11 13  2  0
 13 14  1  0
 14 15  1  0
 14 16  2  0
 16 17  1  0
 17 18  1  0
 17 19  1  0
 17 20  1  0
 16 21  1  0
 21 22  1  0
 22 23  1  0
 22 24  1  0
 22 25  1  0
 25 26  2  0
 26 27  1  0
 26 28  1  0
 28 29  1  0
 28 30  2  0
 30 31  1  0
 30 32  1  0
 32 33  1  0
 32 34  2  0
 34 35  1  0
 21 36  1  0
 36 37  2  0
 37 38  1  0
 37 39  1  0
 10  3  2  0
 36 13  1  0
 34 25  1  0
M  CHG  2   4  -1   7  -1
M  END
>  <UniqueID>  (46) 
45

>  <SMILES>  (46) 
C=c1/c(=C\c2c(O)[n-]c(=O)[n-]c2=O)cc(C)n1Cc1ccc(F)cc1

>  <Energy>  (46) 
83.55430329548024

>  <Genealogy>  (46) 
C=c1c(=Cc2c(O)[n-]c(=O)[n-]c2=O)cc(C)n1Cc1ccc(F)cc1 (protonated)
C=c1/c(=C\c2c(O)[n-]c(=O)[n-]c2=O)cc(C)n1Cc1ccc(F)cc1 (cis-trans isomerization)
C=c1/c(=C\c2c(O)[n-]c(=O)[n-]c2=O)cc(C)n1Cc1ccc(F)cc1 (3D coordinates assigned)
C=c1/c(=C\c2c(O)[n-]c(=O)[n-]c2=O)cc(C)n1Cc1ccc(F)cc1 (optimized conformer: 83.55430329548024 kcal/mol)

>  <smiles>  (46) 
C=c1c(=Cc2c(O)[nH]c(=O)[nH]c2=O)cc(C)n1Cc1ccc(F)cc1

>  <score_type>  (46) 
oracle

>  <origin>  (46) 
adg

>  <m_score__min__energy>  (46) 
-12.82

>  <m_primary>  (46) 
energy

$$$$
46:0
     RDKit          3D

 43 45  0  0  0  0  0  0  0  0999 V2000
   59.9710   35.0610   46.8290 C   0  0  0  0  0  0  0  0  0  0  0  0
   59.9020   33.5570   46.8320 C   0  0  0  0  0  0  0  0  0  0  0  0
   58.6790   32.9320   46.5360 C   0  0  0  0  0  0  0  0  0  0  0  0
   58.5740   31.5420   46.5190 C   0  0  0  0  0  0  0  0  0  0  0  0
   59.6910   30.7420   46.7830 C   0  0  0  0  0  0  0  0  0  0  0  0
   59.5460   29.3110   46.7830 N   0  0  0  0  0  0  0  0  0  0  0  0
   59.6720   28.4860   47.9530 C   0  0  0  0  0  0  0  0  0  0  0  0
   60.0950   28.9660   49.0390 O   0  0  0  0  0  0  0  0  0  0  0  0
   59.4160   27.0170   47.8570 C   0  0  0  0  0  0  0  0  0  0  0  0
   59.7220   26.5840   46.5340 O   0  0  0  0  0  0  0  0  0  0  0  0
   59.0970   25.5140   45.8720 C   0  0  0  0  0  0  0  0  0  0  0  0
   59.6200   24.2070   45.9260 C   0  0  0  0  0  0  0  0  0  0  0  0
   58.9880   23.1640   45.2470 C   0  0  0  0  0  0  0  0  0  0  0  0
   57.8290   23.4070   44.5140 C   0  0  0  0  0  0  0  0  0  0  0  0
   57.2950   24.6950   44.4530 C   0  0  0  0  0  0  0  0  0  0  0  0
   57.9210   25.7610   45.1240 C   0  0  0  0  0  0  0  0  0  0  0  0
   57.3380   27.1250   45.0640 C   0  0  0  0  0  0  0  0  0  0  0  0
   57.9830   28.1970   44.5660 N   0  0  0  0  0  0  0  0  0  0  0  0
   57.0900   29.1980   44.6980 C   0  0  0  0  0  0  0  0  0  0  0  0
   57.3360   30.3780   44.3360 O   0  0  0  0  0  0  0  0  0  0  0  0
   55.9100   28.8360   45.2450 N   0  0  0  0  0  0  0  0  0  0  0  0
   56.0800   27.5230   45.4680 C   0  0  0  0  0  0  0  0  0  0  0  0
   55.0890   26.7050   45.9960 O   0  0  0  0  0  0  0  0  0  0  0  0
   60.9150   31.3570   47.0920 C   0  0  0  0  0  0  0  0  0  0  0  0
   61.0400   32.7570   47.1000 C   0  0  0  0  0  0  0  0  0  0  0  0
   62.6240   33.4730   47.4470 S   0  0  0  0  0  0  0  0  0  0  0  0
   63.7600   32.2250   47.8260 N   0  0  0  0  0  0  0  0  0  0  0  0
   63.1210   34.2360   46.2510 O   0  0  0  0  0  0  0  0  0  0  0  0
   62.5090   34.4260   48.6050 O   0  0  0  0  0  0  0  0  0  0  0  0
   59.9879   35.4293   47.8654 H   0  0  0  0  0  0  0  0  0  0  0  0
   60.8850   35.3851   46.3097 H   0  0  0  0  0  0  0  0  0  0  0  0
   59.0906   35.4674   46.3097 H   0  0  0  0  0  0  0  0  0  0  0  0
   57.7939   33.5467   46.3151 H   0  0  0  0  0  0  0  0  0  0  0  0
   57.6054   31.0705   46.2963 H   0  0  0  0  0  0  0  0  0  0  0  0
   59.4430   28.8310   45.8610 H   0  0  0  0  0  0  0  0  0  0  0  0
   60.0526   26.4827   48.5776 H   0  0  0  0  0  0  0  0  0  0  0  0
   58.3610   26.8053   48.0854 H   0  0  0  0  0  0  0  0  0  0  0  0
   60.5324   24.0071   46.5070 H   0  0  0  0  0  0  0  0  0  0  0  0
   59.4064   22.1476   45.2910 H   0  0  0  0  0  0  0  0  0  0  0  0
   57.3333   22.5818   43.9818 H   0  0  0  0  0  0  0  0  0  0  0  0
   56.3769   24.8780   43.8754 H   0  0  0  0  0  0  0  0  0  0  0  0
   61.7892   30.7337   47.3314 H   0  0  0  0  0  0  0  0  0  0  0  0
   64.5290   32.2930   47.1220 H   0  0  0  0  0  0  0  0  0  0  0  0
  1  2  1  0
  2  3  2  0
  3  4  1  0
  4  5  2  0
  5  6  1  0
  6  7  1  0
  7  8  2  0
  7  9  1  0
  9 10  1  0
 10 11  1  0
 11 12  2  0
 12 13  1  0
 13 14  2  0
 14 15  1  0
 15 16  2  0
 16 17  1  0
 17 18  1  0
 18 19  1  0
 19 20  2  0
 19 21  1  0
 21 22  1  0
 22 23  1  0
  5 24  1  0
 24 25  2  0
 25 26  1  0
 26 27  1  0
 26 28  2  0
 26 29  2  0
 25  2  1  0
 16 11  1  0
 22 17  2  0
  1 30  1  0
  1 31  1  0
  1 32  1  0
  3 33  1  0
  4 34  1  0
  6 35  1  0
  9 36  1  0
  9 37  1  0
 12 38  1  0
 13 39  1  0
 14 40  1  0
 15 41  1  0
 24 42  1  0
 27 43  1  0
M  CHG  4  18  -1  21  -1  23  -1  27  -1
M  END
>  <UniqueID>  (47) 
46

>  <SMILES>  (47) 
Cc1ccc(NC(=O)COc2ccccc2-c2[n-]c(=O)[n-]c2[O-])cc1S([NH-])(=O)=O

>  <Energy>  (47) 
82.1294097795541

>  <Genealogy>  (47) 
Cc1ccc(NC(=O)COc2ccccc2-c2[n-]c(=O)[n-]c2[O-])cc1S([NH-])(=O)=O (protonated)
Cc1ccc(NC(=O)COc2ccccc2-c2[n-]c(=O)[n-]c2[O-])cc1S([NH-])(=O)=O (3D coordinates assigned)
Cc1ccc(NC(=O)COc2ccccc2-c2[n-]c(=O)[n-]c2[O-])cc1S([NH-])(=O)=O (optimized conformer: 82.1294097795541 kcal/mol)

>  <smiles>  (47) 
Cc1ccc(NC(=O)COc2ccccc2-c2[nH]c(=O)[nH]c2O)cc1S(N)(=O)=O

>  <score_type>  (47) 
oracle

>  <origin>  (47) 
adg

>  <m_score__min__energy>  (47) 
-17.25

>  <m_primary>  (47) 
energy

$$$$
47:0
     RDKit          3D

 43 45  0  0  0  0  0  0  0  0999 V2000
   57.8930   19.7060   47.2580 C   0  0  0  0  0  0  0  0  0  0  0  0
   57.4030   20.9200   47.8190 O   0  0  0  0  0  0  0  0  0  0  0  0
   56.1070   21.4270   47.6200 C   0  0  0  0  0  0  0  0  0  0  0  0
   54.9800   20.5820   47.5770 C   0  0  0  0  0  0  0  0  0  0  0  0
   53.7040   21.1150   47.3750 C   0  0  0  0  0  0  0  0  0  0  0  0
   53.5380   22.4910   47.2140 C   0  0  0  0  0  0  0  0  0  0  0  0
   54.6450   23.3400   47.2520 C   0  0  0  0  0  0  0  0  0  0  0  0
   55.9350   22.8190   47.4500 C   0  0  0  0  0  0  0  0  0  0  0  0
   57.1210   23.7530   47.4810 C   0  0  0  0  0  0  0  0  0  0  0  0
   57.1330   24.5950   46.2910 N   0  0  0  0  0  0  0  0  0  0  0  0
   58.0520   25.6750   46.0950 C   0  0  0  0  0  0  0  0  0  0  0  0
   59.2800   25.5160   46.3310 O   0  0  0  0  0  0  0  0  0  0  0  0
   57.5440   26.9820   45.6580 C   0  0  0  0  0  0  0  0  0  0  0  0
   58.2920   27.9940   45.0760 C   0  0  0  0  0  0  0  0  0  0  0  0
   57.4830   29.0090   44.7050 N   0  0  0  0  0  0  0  0  0  0  0  0
   57.8860   30.1850   43.9380 C   0  0  0  0  0  0  0  0  0  0  0  0
   58.3000   31.2850   44.8760 C   0  0  0  0  0  0  0  0  0  0  0  0
   57.7980   32.5870   44.7060 C   0  0  0  0  0  0  0  0  0  0  0  0
   58.1290   33.5940   45.6160 C   0  0  0  0  0  0  0  0  0  0  0  0
   58.9550   33.3090   46.7080 C   0  0  0  0  0  0  0  0  0  0  0  0
   59.3630   34.5720   47.8540 Cl  0  0  0  0  0  0  0  0  0  0  0  0
   59.4490   32.0130   46.8890 C   0  0  0  0  0  0  0  0  0  0  0  0
   59.1190   31.0020   45.9810 C   0  0  0  0  0  0  0  0  0  0  0  0
   56.2260   28.6480   45.0320 C   0  0  0  0  0  0  0  0  0  0  0  0
   55.0950   29.4140   44.7750 O   0  0  0  0  0  0  0  0  0  0  0  0
   56.2290   27.4080   45.6270 C   0  0  0  0  0  0  0  0  0  0  0  0
   55.1160   26.7080   46.0760 O   0  0  0  0  0  0  0  0  0  0  0  0
   58.1720   19.0147   48.0668 H   0  0  0  0  0  0  0  0  0  0  0  0
   57.1098   19.2467   46.6369 H   0  0  0  0  0  0  0  0  0  0  0  0
   58.7756   19.9190   46.6369 H   0  0  0  0  0  0  0  0  0  0  0  0
   55.1054   19.4965   47.7032 H   0  0  0  0  0  0  0  0  0  0  0  0
   52.8293   20.4488   47.3429 H   0  0  0  0  0  0  0  0  0  0  0  0
   52.5322   22.9076   47.0567 H   0  0  0  0  0  0  0  0  0  0  0  0
   54.5069   24.4240   47.1261 H   0  0  0  0  0  0  0  0  0  0  0  0
   57.0580   24.3899   48.3756 H   0  0  0  0  0  0  0  0  0  0  0  0
   58.0452   23.1571   47.5071 H   0  0  0  0  0  0  0  0  0  0  0  0
   59.3830   27.9729   44.9371 H   0  0  0  0  0  0  0  0  0  0  0  0
   58.7319   29.9235   43.2853 H   0  0  0  0  0  0  0  0  0  0  0  0
   57.0390   30.5281   43.3257 H   0  0  0  0  0  0  0  0  0  0  0  0
   57.1418   32.8139   43.8528 H   0  0  0  0  0  0  0  0  0  0  0  0
   57.7393   34.6127   45.4734 H   0  0  0  0  0  0  0  0  0  0  0  0
   60.0987   31.7885   47.7478 H   0  0  0  0  0  0  0  0  0  0  0  0
   59.5021   29.9821   46.1328 H   0  0  0  0  0  0  0  0  0  0  0  0
  1  2  1  0
  2  3  1  0
  3  4  2  0
  4  5  1  0
  5  6  2  0
  6  7  1  0
  7  8  2  0
  8  9  1  0
  9 10  1  0
 10 11  1  0
 11 12  2  0
 11 13  1  0
 13 14  2  0
 14 15  1  0
 15 16  1  0
 16 17  1  0
 17 18  2  0
 18 19  1  0
 19 20  2  0
 20 21  1  0
 20 22  1  0
 22 23  2  0
 15 24  1  0
 24 25  1  0
 24 26  2  0
 26 27  1  0
  8  3  1  0
 26 13  1  0
 23 17  1  0
  1 28  1  0
  1 29  1  0
  1 30  1  0
  4 31  1  0
  5 32  1  0
  6 33  1  0
  7 34  1  0
  9 35  1  0
  9 36  1  0
 14 37  1  0
 16 38  1  0
 16 39  1  0
 18 40  1  0
 19 41  1  0
 22 42  1  0
 23 43  1  0
M  CHG  3  10  -1  25  -1  27  -1
M  END
>  <UniqueID>  (48) 
47

>  <SMILES>  (48) 
COc1ccccc1C[N-]C(=O)c1cn(Cc2ccc(Cl)cc2)c([O-])c1[O-]

>  <Energy>  (48) 
69.15333537170585

>  <Genealogy>  (48) 
COc1ccccc1C[N-]C(=O)c1cn(Cc2ccc(Cl)cc2)c([O-])c1[O-] (protonated)
COc1ccccc1C[N-]C(=O)c1cn(Cc2ccc(Cl)cc2)c([O-])c1[O-] (3D coordinates assigned)
COc1ccccc1C[N-]C(=O)c1cn(Cc2ccc(Cl)cc2)c([O-])c1[O-] (optimized conformer: 69.15333537170585 kcal/mol)

>  <smiles>  (48) 
COc1ccccc1CNC(=O)c1cn(Cc2ccc(Cl)cc2)c(O)c1O

>  <score_type>  (48) 
oracle

>  <origin>  (48) 
adg

>  <m_score__min__energy>  (48) 
-15.94

>  <m_primary>  (48) 
energy

$$$$
48:0
     RDKit          3D

 33 35  0  0  0  0  0  0  0  0999 V2000
   56.3310   22.6340   41.6390 H   0  0  0  0  0  0  0  0  0  0  0  0
   56.2370   21.8130   42.2250 O   0  0  0  0  0  0  0  0  0  0  0  0
   56.6140   21.8290   43.5660 C   0  0  0  0  0  0  0  0  0  0  0  0
   56.6490   20.6410   44.3100 C   0  0  0  0  0  0  0  0  0  0  0  0
   56.3680   19.6881   43.8377 H   0  0  0  0  0  0  0  0  0  0  0  0
   57.0410   20.6670   45.6520 C   0  0  0  0  0  0  0  0  0  0  0  0
   57.0748   19.7332   46.2325 H   0  0  0  0  0  0  0  0  0  0  0  0
   57.3900   21.8780   46.2570 C   0  0  0  0  0  0  0  0  0  0  0  0
   57.7149   21.8923   47.3078 H   0  0  0  0  0  0  0  0  0  0  0  0
   57.3270   23.0770   45.5270 C   0  0  0  0  0  0  0  0  0  0  0  0
   57.7410   24.3590   46.1320 C   0  0  0  0  0  0  0  0  0  0  0  0
   58.6396   24.3562   46.7664 H   0  0  0  0  0  0  0  0  0  0  0  0
   57.1020   25.5270   45.9650 C   0  0  0  0  0  0  0  0  0  0  0  0
   57.7510   26.6770   45.7080 N   0  0  0  0  0  0  0  0  0  0  0  0
   56.7700   27.6070   45.5890 C   0  0  0  0  0  0  0  0  0  0  0  0
   57.0110   28.9120   45.3330 C   0  0  0  0  0  0  0  0  0  0  0  0
   56.3070   29.5920   44.3180 C   0  0  0  0  0  0  0  0  0  0  0  0
   55.5513   29.0540   43.7268 H   0  0  0  0  0  0  0  0  0  0  0  0
   56.5580   30.9420   44.0540 C   0  0  0  0  0  0  0  0  0  0  0  0
   55.9986   31.4561   43.2586 H   0  0  0  0  0  0  0  0  0  0  0  0
   57.5190   31.6460   44.7970 C   0  0  0  0  0  0  0  0  0  0  0  0
   57.7580   32.9370   44.5440 C   0  0  0  0  0  0  0  0  0  0  0  0
   58.5125   33.4819   45.1304 H   0  0  0  0  0  0  0  0  0  0  0  0
   57.2001   33.4542   43.7495 H   0  0  0  0  0  0  0  0  0  0  0  0
   58.2260   30.9770   45.8080 C   0  0  0  0  0  0  0  0  0  0  0  0
   58.9827   31.5184   46.3948 H   0  0  0  0  0  0  0  0  0  0  0  0
   57.9760   29.6280   46.0750 C   0  0  0  0  0  0  0  0  0  0  0  0
   58.5372   29.1183   46.8720 H   0  0  0  0  0  0  0  0  0  0  0  0
   55.5250   27.0960   45.7460 N   0  0  0  0  0  0  0  0  0  0  0  0
   55.7460   25.7910   45.9770 C   0  0  0  0  0  0  0  0  0  0  0  0
   54.8180   24.9540   46.1310 O   0  0  0  0  0  0  0  0  0  0  0  0
   56.9620   23.0410   44.1730 C   0  0  0  0  0  0  0  0  0  0  0  0
   56.9493   23.9706   43.5851 H   0  0  0  0  0  0  0  0  0  0  0  0
  1  2  1  0
  2  3  1  0
  3  4  2  0
  4  5  1  0
  4  6  1  0
  6  7  1  0
  6  8  2  0
  8  9  1  0
  8 10  1  0
 10 11  1  0
 11 12  1  0
 11 13  2  0
 13 14  1  0
 14 15  1  0
 15 16  2  3
 16 17  1  0
 17 18  1  0
 17 19  2  0
 19 20  1  0
 19 21  1  0
 21 22  2  0
 22 23  1  0
 22 24  1  0
 21 25  1  0
 25 26  1  0
 25 27  2  0
 27 28  1  0
 15 29  1  0
 29 30  1  0
 30 31  2  0
 10 32  2  0
 32 33  1  0
 32  3  1  0
 30 13  1  0
 27 16  1  0
M  CHG  2  14  -1  29  -1
M  END
>  <UniqueID>  (49) 
48

>  <SMILES>  (49) 
C=c1ccc(=c2[n-]c(=O)/c(=C\c3cccc(O)c3)[n-]2)cc1

>  <Energy>  (49) 
77.51994030180808

>  <Genealogy>  (49) 
C=c1ccc(=c2[n-]c(=O)c(=Cc3cccc(O)c3)[n-]2)cc1 (protonated)
C=c1ccc(=c2[n-]c(=O)/c(=C\c3cccc(O)c3)[n-]2)cc1 (cis-trans isomerization)
C=c1ccc(=c2[n-]c(=O)/c(=C\c3cccc(O)c3)[n-]2)cc1 (3D coordinates assigned)
C=c1ccc(=c2[n-]c(=O)/c(=C\c3cccc(O)c3)[n-]2)cc1 (optimized conformer: 77.51994030180808 kcal/mol)

>  <smiles>  (49) 
C=c1ccc(=c2[nH]c(=O)c(=Cc3cccc(O)c3)[nH]2)cc1

>  <score_type>  (49) 
oracle

>  <origin>  (49) 
adg

>  <m_score__min__energy>  (49) 
-11.42

>  <m_primary>  (49) 
energy

$$$$
49:0
     RDKit          3D

 67 70  0  0  0  0  0  0  0  0999 V2000
   52.4060   30.4650   50.8580 C   0  0  0  0  0  0  0  0  0  0  0  0
   53.5430   29.8600   51.5690 N   0  0  0  0  0  0  0  0  0  0  0  0
   53.0560   29.1100   52.7420 C   0  0  0  0  0  0  0  0  0  0  0  0
   54.5200   30.8940   51.9720 C   0  0  0  0  0  0  0  0  0  0  0  0
   55.4480   30.3660   53.0730 C   0  0  0  0  0  0  0  0  0  0  0  0
   56.6150   29.7630   52.5100 O   0  0  0  0  0  0  0  0  0  0  0  0
   57.5640   30.4020   51.6930 C   0  0  0  0  0  0  0  0  0  0  0  0
   57.5390   31.7830   51.4250 C   0  0  0  0  0  0  0  0  0  0  0  0
   58.5170   32.3630   50.6100 C   0  0  0  0  0  0  0  0  0  0  0  0
   59.5380   31.5770   50.0510 C   0  0  0  0  0  0  0  0  0  0  0  0
   60.5280   32.1640   49.1810 N   0  0  0  0  0  0  0  0  0  0  0  0
   61.0590   33.4750   49.2880 C   0  0  0  0  0  0  0  0  0  0  0  0
   60.7970   34.2530   50.2430 O   0  0  0  0  0  0  0  0  0  0  0  0
   62.0030   33.8150   48.2050 C   0  0  0  0  0  0  0  0  0  0  0  0
   62.0440   32.5430   47.3460 C   0  0  0  0  0  0  0  0  0  0  0  0
   61.1380   31.4920   48.0360 C   0  0  2  0  0  0  0  0  0  0  0  0
   60.0770   30.9590   47.0950 C   0  0  0  0  0  0  0  0  0  0  0  0
   59.9630   29.5790   46.8690 C   0  0  0  0  0  0  0  0  0  0  0  0
   58.9640   29.0800   46.0280 C   0  0  0  0  0  0  0  0  0  0  0  0
   58.0530   29.9500   45.4010 C   0  0  0  0  0  0  0  0  0  0  0  0
   56.9840   29.3970   44.5240 C   0  0  0  0  0  0  0  0  0  0  0  0
   55.7740   29.5360   44.8530 O   0  0  0  0  0  0  0  0  0  0  0  0
   57.2950   28.6600   43.2520 C   0  0  0  0  0  0  0  0  0  0  0  0
   57.7680   27.2620   43.5560 C   0  0  0  0  0  0  0  0  0  0  0  0
   57.6480   26.7000   44.7250 N   0  0  0  0  0  0  0  0  0  0  0  0
   56.9780   25.4640   45.0180 C   0  0  0  0  0  0  0  0  0  0  0  0
   57.5280   24.2290   44.6300 C   0  0  0  0  0  0  0  0  0  0  0  0
   56.8490   23.0380   44.9030 C   0  0  0  0  0  0  0  0  0  0  0  0
   55.6090   23.0710   45.5450 C   0  0  0  0  0  0  0  0  0  0  0  0
   55.0410   24.2960   45.9050 C   0  0  0  0  0  0  0  0  0  0  0  0
   55.7180   25.4950   45.6340 C   0  0  0  0  0  0  0  0  0  0  0  0
   55.1470   26.7170   45.9850 O   0  0  0  0  0  0  0  0  0  0  0  0
   58.1800   31.3350   45.6210 C   0  0  0  0  0  0  0  0  0  0  0  0
   59.1850   31.8320   46.4540 C   0  0  0  0  0  0  0  0  0  0  0  0
   59.5430   30.1950   50.3010 C   0  0  0  0  0  0  0  0  0  0  0  0
   58.5660   29.6160   51.1140 C   0  0  0  0  0  0  0  0  0  0  0  0
   51.6801   30.8512   51.5887 H   0  0  0  0  0  0  0  0  0  0  0  0
   52.7657   31.2910   50.2268 H   0  0  0  0  0  0  0  0  0  0  0  0
   51.9220   29.7052   50.2268 H   0  0  0  0  0  0  0  0  0  0  0  0
   53.3841   29.6153   53.6623 H   0  0  0  0  0  0  0  0  0  0  0  0
   51.9571   29.0668   52.7192 H   0  0  0  0  0  0  0  0  0  0  0  0
   53.4636   28.0886   52.7192 H   0  0  0  0  0  0  0  0  0  0  0  0
   55.1236   31.1802   51.0980 H   0  0  0  0  0  0  0  0  0  0  0  0
   53.9719   31.7651   52.3603 H   0  0  0  0  0  0  0  0  0  0  0  0
   55.7512   31.2022   53.7203 H   0  0  0  0  0  0  0  0  0  0  0  0
   54.9059   29.6065   53.6555 H   0  0  0  0  0  0  0  0  0  0  0  0
   56.7461   32.4101   51.8587 H   0  0  0  0  0  0  0  0  0  0  0  0
   58.4861   33.4433   50.4053 H   0  0  0  0  0  0  0  0  0  0  0  0
   61.6371   34.6718   47.6202 H   0  0  0  0  0  0  0  0  0  0  0  0
   62.9946   34.1085   48.5800 H   0  0  0  0  0  0  0  0  0  0  0  0
   61.6676   32.7590   46.3352 H   0  0  0  0  0  0  0  0  0  0  0  0
   63.0741   32.1685   47.2533 H   0  0  0  0  0  0  0  0  0  0  0  0
   61.7297   30.6194   48.3497 H   0  0  0  0  0  0  0  0  0  0  0  0
   60.6640   28.8855   47.3565 H   0  0  0  0  0  0  0  0  0  0  0  0
   58.8893   27.9963   45.8547 H   0  0  0  0  0  0  0  0  0  0  0  0
   56.3878   28.6087   42.6320 H   0  0  0  0  0  0  0  0  0  0  0  0
   58.0908   29.1966   42.7147 H   0  0  0  0  0  0  0  0  0  0  0  0
   58.2401   26.6850   42.7472 H   0  0  0  0  0  0  0  0  0  0  0  0
   58.4966   24.2002   44.1095 H   0  0  0  0  0  0  0  0  0  0  0  0
   57.2916   22.0740   44.6120 H   0  0  0  0  0  0  0  0  0  0  0  0
   55.0796   22.1328   45.7672 H   0  0  0  0  0  0  0  0  0  0  0  0
   54.0602   24.3205   46.4024 H   0  0  0  0  0  0  0  0  0  0  0  0
   55.1420   27.5020   45.3450 H   0  0  0  0  0  0  0  0  0  0  0  0
   57.4821   32.0312   45.1329 H   0  0  0  0  0  0  0  0  0  0  0  0
   59.2780   32.9171   46.6088 H   0  0  0  0  0  0  0  0  0  0  0  0
   60.3235   29.5628   49.8524 H   0  0  0  0  0  0  0  0  0  0  0  0
   58.5846   28.5321   51.3007 H   0  0  0  0  0  0  0  0  0  0  0  0
  1  2  1  0
  2  3  1  0
  2  4  1  0
  4  5  1  0
  5  6  1  0
  6  7  1  0
  7  8  2  0
  8  9  1  0
  9 10  2  0
 10 11  1  0
 11 12  1  0
 12 13  2  0
 12 14  1  0
 14 15  1  0
 15 16  1  0
 16 17  1  0
 17 18  2  0
 18 19  1  0
 19 20  2  0
 20 21  1  0
 21 22  2  0
 21 23  1  0
 23 24  1  0
 24 25  2  3
 25 26  1  0
 26 27  2  0
 27 28  1  0
 28 29  2  0
 29 30  1  0
 30 31  2  0
 31 32  1  0
 20 33  1  0
 33 34  2  0
 10 35  1  0
 35 36  2  0
 36  7  1  0
 16 11  1  0
 34 17  1  0
 31 26  1  0
  1 37  1  0
  1 38  1  0
  1 39  1  0
  3 40  1  0
  3 41  1  0
  3 42  1  0
  4 43  1  0
  4 44  1  0
  5 45  1  0
  5 46  1  0
  8 47  1  0
  9 48  1  0
 14 49  1  0
 14 50  1  0
 15 51  1  0
 15 52  1  0
 16 53  1  1
 18 54  1  0
 19 55  1  0
 23 56  1  0
 23 57  1  0
 24 58  1  0
 27 59  1  0
 28 60  1  0
 29 61  1  0
 30 62  1  0
 32 63  1  0
 33 64  1  0
 34 65  1  0
 35 66  1  0
 36 67  1  0
M  END
>  <UniqueID>  (50) 
49

>  <SMILES>  (50) 
CN(C)CCOc1ccc(N2C(=O)CC[C@@H]2c2ccc(C(=O)CC=Nc3ccccc3O)cc2)cc1

>  <Energy>  (50) 
87.9854199397422

>  <Genealogy>  (50) 
CN(C)CCOc1ccc(N2C(=O)CC[C@@H]2c2ccc(C(=O)CC=Nc3ccccc3O)cc2)cc1 (chirality)
CN(C)CCOc1ccc(N2C(=O)CC[C@@H]2c2ccc(C(=O)CC=Nc3ccccc3O)cc2)cc1 (3D coordinates assigned)
CN(C)CCOc1ccc(N2C(=O)CC[C@@H]2c2ccc(C(=O)CC=Nc3ccccc3O)cc2)cc1 (nonaromatic ring conformer: 87.9854199397422 kcal/mol)

>  <smiles>  (50) 
CN(C)CCOc1ccc(N2C(=O)CCC2c2ccc(C(=O)CC=Nc3ccccc3O)cc2)cc1

>  <score_type>  (50) 
oracle

>  <origin>  (50) 
adg

>  <m_score__min__energy>  (50) 
-10.550000000000001

>  <m_primary>  (50) 
energy

$$$$
50:0
     RDKit          3D

 53 57  0  0  0  0  0  0  0  0999 V2000
   55.2110   29.4330   44.5640 O   0  0  0  0  0  0  0  0  0  0  0  0
   56.4610   29.5460   44.6770 C   0  0  0  0  0  0  0  0  0  0  0  0
   57.3630   28.6570   43.8830 C   0  0  0  0  0  0  0  0  0  0  0  0
   58.4210   28.0910   44.7920 C   0  0  0  0  0  0  0  0  0  0  0  0
   59.7500   28.5330   44.6780 C   0  0  0  0  0  0  0  0  0  0  0  0
   60.7240   28.0800   45.5720 C   0  0  0  0  0  0  0  0  0  0  0  0
   60.3790   27.1880   46.5900 C   0  0  0  0  0  0  0  0  0  0  0  0
   59.0590   26.7510   46.7190 C   0  0  0  0  0  0  0  0  0  0  0  0
   58.0780   27.2010   45.8280 C   0  0  0  0  0  0  0  0  0  0  0  0
   56.7970   26.7860   45.9890 F   0  0  0  0  0  0  0  0  0  0  0  0
   57.0220   30.4600   45.6220 N   0  0  0  0  0  0  0  0  0  0  0  0
   57.9460   31.5250   45.2490 C   0  0  0  0  0  0  0  0  0  0  0  0
   59.0020   31.7320   46.3170 C   0  0  0  0  0  0  0  0  0  0  0  0
   59.1460   30.7490   47.2540 N   0  0  0  0  0  0  0  0  0  0  0  0
   60.1600   30.7780   48.1550 C   0  0  0  0  0  0  0  0  0  0  0  0
   60.3150   29.7780   49.1210 C   0  0  0  0  0  0  0  0  0  0  0  0
   61.3650   29.8270   49.9810 N   0  0  0  0  0  0  0  0  0  0  0  0
   62.2820   30.8280   49.9170 C   0  0  0  0  0  0  0  0  0  0  0  0
   63.3380   30.8470   50.8360 O   0  0  0  0  0  0  0  0  0  0  0  0
   64.3960   31.7670   50.8350 C   0  0  0  0  0  0  0  0  0  0  0  0
   65.7160   31.3950   50.5120 C   0  0  0  0  0  0  0  0  0  0  0  0
   66.7410   32.3460   50.5330 C   0  0  0  0  0  0  0  0  0  0  0  0
   66.4630   33.6690   50.8880 C   0  0  0  0  0  0  0  0  0  0  0  0
   67.4580   34.5890   50.9100 F   0  0  0  0  0  0  0  0  0  0  0  0
   65.1600   34.0400   51.2300 C   0  0  0  0  0  0  0  0  0  0  0  0
   64.1330   33.0910   51.2110 C   0  0  0  0  0  0  0  0  0  0  0  0
   62.1410   31.8140   48.9880 N   0  0  0  0  0  0  0  0  0  0  0  0
   61.1030   31.8060   48.1100 C   0  0  0  0  0  0  0  0  0  0  0  0
   60.9600   32.8050   47.1470 C   0  0  0  0  0  0  0  0  0  0  0  0
   61.8490   33.6990   47.0570 O   0  0  0  0  0  0  0  0  0  0  0  0
   59.8770   32.8040   46.2990 N   0  0  0  0  0  0  0  0  0  0  0  0
   59.7380   33.8820   45.2950 C   0  0  0  0  0  0  0  0  0  0  0  0
   59.6240   35.2980   45.8670 C   0  0  0  0  0  0  0  0  0  0  0  0
   58.3950   34.6070   45.3250 C   0  0  0  0  0  0  0  0  0  0  0  0
   56.7775   27.8361   43.4433 H   0  0  0  0  0  0  0  0  0  0  0  0
   57.8377   29.2354   43.0767 H   0  0  0  0  0  0  0  0  0  0  0  0
   60.0252   29.2393   43.8809 H   0  0  0  0  0  0  0  0  0  0  0  0
   61.7634   28.4263   45.4739 H   0  0  0  0  0  0  0  0  0  0  0  0
   61.1476   26.8295   47.2905 H   0  0  0  0  0  0  0  0  0  0  0  0
   58.7894   26.0509   47.5234 H   0  0  0  0  0  0  0  0  0  0  0  0
   58.4396   31.2571   44.3032 H   0  0  0  0  0  0  0  0  0  0  0  0
   57.3753   32.4587   45.1371 H   0  0  0  0  0  0  0  0  0  0  0  0
   58.4780   29.9440   47.2630 H   0  0  0  0  0  0  0  0  0  0  0  0
   59.5885   28.9544   49.1838 H   0  0  0  0  0  0  0  0  0  0  0  0
   65.9411   30.3526   50.2423 H   0  0  0  0  0  0  0  0  0  0  0  0
   67.7679   32.0524   50.2697 H   0  0  0  0  0  0  0  0  0  0  0  0
   64.9418   35.0799   51.5146 H   0  0  0  0  0  0  0  0  0  0  0  0
   63.1116   33.3860   51.4932 H   0  0  0  0  0  0  0  0  0  0  0  0
   60.3568   33.3994   44.5242 H   0  0  0  0  0  0  0  0  0  0  0  0
   59.7289   35.4633   46.9494 H   0  0  0  0  0  0  0  0  0  0  0  0
   60.1254   36.2573   45.6710 H   0  0  0  0  0  0  0  0  0  0  0  0
   57.6058   34.2714   46.0139 H   0  0  0  0  0  0  0  0  0  0  0  0
   57.6337   34.8586   44.5719 H   0  0  0  0  0  0  0  0  0  0  0  0
  1  2  2  0
  2  3  1  0
  3  4  1  0
  4  5  2  0
  5  6  1  0
  6  7  2  0
  7  8  1  0
  8  9  2  0
  9 10  1  0
  2 11  1  0
 11 12  1  0
 12 13  1  0
 13 14  2  0
 14 15  1  0
 15 16  2  0
 16 17  1  0
 17 18  2  0
 18 19  1  0
 19 20  1  0
 20 21  2  0
 21 22  1  0
 22 23  2  0
 23 24  1  0
 23 25  1  0
 25 26  2  0
 18 27  1  0
 27 28  2  0
 28 29  1  0
 29 30  2  0
 29 31  1  0
 31 32  1  0
 32 33  1  0
 33 34  1  0
  9  4  1  0
 31 13  1  0
 34 32  1  0
 28 15  1  0
 26 20  1  0
  3 35  1  0
  3 36  1  0
  5 37  1  0
  6 38  1  0
  7 39  1  0
  8 40  1  0
 12 41  1  0
 12 42  1  0
 14 43  1  0
 16 44  1  0
 21 45  1  0
 22 46  1  0
 25 47  1  0
 26 48  1  0
 32 49  1  0
 33 50  1  0
 33 51  1  0
 34 52  1  0
 34 53  1  0
M  CHG  2  11  -1  14   1
M  END
>  <UniqueID>  (51) 
50

>  <SMILES>  (51) 
O=C(Cc1ccccc1F)[N-]Cc1[nH+]c2cnc(Oc3ccc(F)cc3)nc2c(=O)n1C1CC1

>  <Energy>  (51) 
339.74617249180915

>  <Genealogy>  (51) 
O=C(Cc1ccccc1F)[N-]Cc1[nH+]c2cnc(Oc3ccc(F)cc3)nc2c(=O)n1C1CC1 (protonated)
O=C(Cc1ccccc1F)[N-]Cc1[nH+]c2cnc(Oc3ccc(F)cc3)nc2c(=O)n1C1CC1 (3D coordinates assigned)
O=C(Cc1ccccc1F)[N-]Cc1[nH+]c2cnc(Oc3ccc(F)cc3)nc2c(=O)n1C1CC1 (nonaromatic ring conformer: 339.74617249180915 kcal/mol)

>  <smiles>  (51) 
O=C(Cc1ccccc1F)NCc1nc2cnc(Oc3ccc(F)cc3)nc2c(=O)n1C1CC1

>  <score_type>  (51) 
oracle

>  <origin>  (51) 
adg

>  <m_score__min__energy>  (51) 
-9.1199999999999992

>  <m_primary>  (51) 
energy

$$$$
51:0
     RDKit          3D

 40 42  0  0  0  0  0  0  0  0999 V2000
   59.9590   25.7980   46.1690 C   0  0  0  0  0  0  0  0  0  0  0  0
   59.2300   27.0690   45.8260 C   0  0  0  0  0  0  0  0  0  0  0  0
   59.8300   28.3030   46.1230 C   0  0  0  0  0  0  0  0  0  0  0  0
   59.2050   29.4660   45.8080 N   0  0  0  0  0  0  0  0  0  0  0  0
   57.9860   29.4970   45.2050 C   0  0  0  0  0  0  0  0  0  0  0  0
   57.3570   30.7980   44.8900 C   0  0  0  0  0  0  0  0  0  0  0  0
   56.1590   30.8350   44.4980 O   0  0  0  0  0  0  0  0  0  0  0  0
   58.0970   32.0220   45.0390 N   0  0  0  0  0  0  0  0  0  0  0  0
   57.4690   33.3400   44.9420 C   0  0  0  0  0  0  0  0  0  0  0  0
   58.5160   34.4490   45.0720 C   0  0  0  0  0  0  0  0  0  0  0  0
   59.4020   34.2320   46.2610 C   0  0  0  0  0  0  0  0  0  0  0  0
   59.3340   34.9090   47.4560 C   0  0  0  0  0  0  0  0  0  0  0  0
   60.3350   34.4910   48.2480 N   0  0  0  0  0  0  0  0  0  0  0  0
   60.9850   33.5710   47.5020 C   0  0  0  0  0  0  0  0  0  0  0  0
   60.4490   33.3910   46.2760 N   0  0  0  0  0  0  0  0  0  0  0  0
   57.3390   28.2890   44.9070 C   0  0  0  0  0  0  0  0  0  0  0  0
   57.9480   27.0660   45.2290 C   0  0  0  0  0  0  0  0  0  0  0  0
   57.2230   25.8110   44.9290 C   0  0  0  0  0  0  0  0  0  0  0  0
   57.4050   25.1580   43.6980 C   0  0  0  0  0  0  0  0  0  0  0  0
   56.7250   23.9660   43.4260 C   0  0  0  0  0  0  0  0  0  0  0  0
   55.8670   23.4130   44.3820 C   0  0  0  0  0  0  0  0  0  0  0  0
   55.1930   22.2300   44.1090 O   0  0  0  0  0  0  0  0  0  0  0  0
   55.6910   24.0510   45.6130 C   0  0  0  0  0  0  0  0  0  0  0  0
   56.3680   25.2430   45.8900 C   0  0  0  0  0  0  0  0  0  0  0  0
   60.0190   25.6934   47.2624 H   0  0  0  0  0  0  0  0  0  0  0  0
   59.4163   24.9389   45.7477 H   0  0  0  0  0  0  0  0  0  0  0  0
   60.9745   25.8326   45.7477 H   0  0  0  0  0  0  0  0  0  0  0  0
   60.8138   28.3276   46.6146 H   0  0  0  0  0  0  0  0  0  0  0  0
   59.0910   31.9860   45.3590 H   0  0  0  0  0  0  0  0  0  0  0  0
   56.9669   33.4299   43.9674 H   0  0  0  0  0  0  0  0  0  0  0  0
   56.7393   33.4450   45.7584 H   0  0  0  0  0  0  0  0  0  0  0  0
   59.1352   34.4641   44.1630 H   0  0  0  0  0  0  0  0  0  0  0  0
   57.9901   35.4061   45.2039 H   0  0  0  0  0  0  0  0  0  0  0  0
   58.5831   35.6682   47.7199 H   0  0  0  0  0  0  0  0  0  0  0  0
   61.8676   33.0206   47.8598 H   0  0  0  0  0  0  0  0  0  0  0  0
   56.3527   28.2999   44.4201 H   0  0  0  0  0  0  0  0  0  0  0  0
   58.0843   25.5855   42.9458 H   0  0  0  0  0  0  0  0  0  0  0  0
   56.8655   23.4626   42.4581 H   0  0  0  0  0  0  0  0  0  0  0  0
   55.0183   23.6145   46.3659 H   0  0  0  0  0  0  0  0  0  0  0  0
   56.2312   25.7378   46.8628 H   0  0  0  0  0  0  0  0  0  0  0  0
  1  2  1  0
  2  3  2  0
  3  4  1  0
  4  5  2  0
  5  6  1  0
  6  7  2  0
  6  8  1  0
  8  9  1  0
  9 10  1  0
 10 11  1  0
 11 12  2  0
 12 13  1  0
 13 14  1  0
 14 15  2  0
  5 16  1  0
 16 17  2  0
 17 18  1  0
 18 19  2  0
 19 20  1  0
 20 21  2  0
 21 22  1  0
 21 23  1  0
 23 24  2  0
 17  2  1  0
 24 18  1  0
 15 11  1  0
  1 25  1  0
  1 26  1  0
  1 27  1  0
  3 28  1  0
  8 29  1  0
  9 30  1  0
  9 31  1  0
 10 32  1  0
 10 33  1  0
 12 34  1  0
 14 35  1  0
 16 36  1  0
 19 37  1  0
 20 38  1  0
 23 39  1  0
 24 40  1  0
M  CHG  2  13  -1  22  -1
M  END
>  <UniqueID>  (52) 
51

>  <SMILES>  (52) 
Cc1cnc(C(=O)NCCc2c[n-]cn2)cc1-c1ccc([O-])cc1

>  <Energy>  (52) 
72.78829079473931

>  <Genealogy>  (52) 
Cc1cnc(C(=O)NCCc2c[n-]cn2)cc1-c1ccc([O-])cc1 (protonated)
Cc1cnc(C(=O)NCCc2c[n-]cn2)cc1-c1ccc([O-])cc1 (3D coordinates assigned)
Cc1cnc(C(=O)NCCc2c[n-]cn2)cc1-c1ccc([O-])cc1 (optimized conformer: 72.78829079473931 kcal/mol)

>  <smiles>  (52) 
Cc1cnc(C(=O)NCCc2c[nH]cn2)cc1-c1ccc(O)cc1

>  <score_type>  (52) 
oracle

>  <origin>  (52) 
adg

>  <m_score__min__energy>  (52) 
-10.75

>  <m_primary>  (52) 
energy

$$$$
52:0
     RDKit          3D

 49 51  0  0  0  0  0  0  0  0999 V2000
   58.2170   27.1310   42.9870 C   0  0  0  0  0  0  0  0  0  0  0  0
   58.3960   28.2240   43.9590 N   0  0  2  0  0  0  0  0  0  0  0  0
   59.7930   28.3140   44.4430 C   0  0  0  0  0  0  0  0  0  0  0  0
   59.8580   28.4730   45.9430 C   0  0  0  0  0  0  0  0  0  0  0  0
   60.2780   27.4030   46.7480 C   0  0  0  0  0  0  0  0  0  0  0  0
   60.3150   27.5390   48.1360 C   0  0  0  0  0  0  0  0  0  0  0  0
   59.9390   28.7450   48.7340 C   0  0  0  0  0  0  0  0  0  0  0  0
   59.5250   29.8310   47.9450 C   0  0  0  0  0  0  0  0  0  0  0  0
   59.1350   31.1060   48.5910 C   0  0  0  0  0  0  0  0  0  0  0  0
   59.6220   31.4020   49.7140 O   0  0  0  0  0  0  0  0  0  0  0  0
   58.2070   32.0180   47.9830 N   0  0  0  0  0  0  0  0  0  0  0  0
   58.4950   32.9150   46.9010 C   0  0  0  0  0  0  0  0  0  0  0  0
   59.2860   34.0400   47.1660 C   0  0  0  0  0  0  0  0  0  0  0  0
   59.5330   34.9850   46.1680 C   0  0  0  0  0  0  0  0  0  0  0  0
   59.0020   34.8060   44.8910 C   0  0  0  0  0  0  0  0  0  0  0  0
   58.2420   33.6700   44.6010 C   0  0  0  0  0  0  0  0  0  0  0  0
   57.9980   32.7050   45.5910 C   0  0  0  0  0  0  0  0  0  0  0  0
   57.3000   31.5070   45.2340 N   0  0  0  0  0  0  0  0  0  0  0  0
   59.4680   29.6780   46.5480 C   0  0  0  0  0  0  0  0  0  0  0  0
   57.5060   28.0310   45.0780 C   0  0  0  0  0  0  0  0  0  0  0  0
   56.5550   28.8390   45.2800 O   0  0  0  0  0  0  0  0  0  0  0  0
   57.6620   26.8980   45.8890 O   0  0  0  0  0  0  0  0  0  0  0  0
   57.1640   25.6170   45.5990 C   0  0  0  0  0  0  0  0  0  0  0  0
   58.0010   24.5630   45.1930 C   0  0  0  0  0  0  0  0  0  0  0  0
   57.4580   23.3110   44.9020 C   0  0  0  0  0  0  0  0  0  0  0  0
   56.0800   23.1210   45.0080 C   0  0  0  0  0  0  0  0  0  0  0  0
   55.2790   24.1530   45.3830 N   0  0  0  0  0  0  0  0  0  0  0  0
   55.7800   25.3860   45.6730 C   0  0  0  0  0  0  0  0  0  0  0  0
   54.9800   26.3410   46.0230 N   0  0  0  0  0  0  0  0  0  0  0  0
   58.0619   26.1840   43.5246 H   0  0  0  0  0  0  0  0  0  0  0  0
   57.3414   27.3417   42.3554 H   0  0  0  0  0  0  0  0  0  0  0  0
   59.1141   27.0514   42.3554 H   0  0  0  0  0  0  0  0  0  0  0  0
   58.1350   29.1250   43.4900 H   0  0  0  0  0  0  0  0  0  0  0  0
   60.3280   27.3959   44.1588 H   0  0  0  0  0  0  0  0  0  0  0  0
   60.2569   29.2000   43.9850 H   0  0  0  0  0  0  0  0  0  0  0  0
   60.5793   26.4529   46.2826 H   0  0  0  0  0  0  0  0  0  0  0  0
   60.6410   26.6948   48.7614 H   0  0  0  0  0  0  0  0  0  0  0  0
   59.9674   28.8444   49.8291 H   0  0  0  0  0  0  0  0  0  0  0  0
   59.7163   34.1804   48.1686 H   0  0  0  0  0  0  0  0  0  0  0  0
   60.1466   35.8708   46.3892 H   0  0  0  0  0  0  0  0  0  0  0  0
   59.1818   35.5603   44.1108 H   0  0  0  0  0  0  0  0  0  0  0  0
   57.8320   33.5308   43.5898 H   0  0  0  0  0  0  0  0  0  0  0  0
   57.0230   30.8160   45.9670 H   0  0  0  0  0  0  0  0  0  0  0  0
   56.9600   31.3390   44.2620 H   0  0  0  0  0  0  0  0  0  0  0  0
   59.1141   30.5113   45.9231 H   0  0  0  0  0  0  0  0  0  0  0  0
   59.0853   24.7255   45.1046 H   0  0  0  0  0  0  0  0  0  0  0  0
   58.1105   22.4815   44.5919 H   0  0  0  0  0  0  0  0  0  0  0  0
   55.6419   22.1363   44.7881 H   0  0  0  0  0  0  0  0  0  0  0  0
   55.3320   27.3060   46.2190 H   0  0  0  0  0  0  0  0  0  0  0  0
  1  2  1  0
  2  3  1  0
  3  4  1  0
  4  5  2  0
  5  6  1  0
  6  7  2  0
  7  8  1  0
  8  9  1  0
  9 10  2  0
  9 11  1  0
 11 12  1  0
 12 13  2  0
 13 14  1  0
 14 15  2  0
 15 16  1  0
 16 17  2  0
 17 18  1  0
  8 19  2  0
  2 20  1  0
 20 21  2  0
 20 22  1  0
 22 23  1  0
 23 24  2  0
 24 25  1  0
 25 26  2  0
 26 27  1  0
 27 28  1  0
 28 29  2  3
 19  4  1  0
 28 23  1  0
 17 12  1  0
  1 30  1  0
  1 31  1  0
  1 32  1  0
  2 33  1  6
  3 34  1  0
  3 35  1  0
  5 36  1  0
  6 37  1  0
  7 38  1  0
 13 39  1  0
 14 40  1  0
 15 41  1  0
 16 42  1  0
 18 43  1  0
 18 44  1  0
 19 45  1  0
 24 46  1  0
 25 47  1  0
 26 48  1  0
 29 49  1  0
M  CHG  3   2   1  11  -1  27  -1
M  END
>  <UniqueID>  (53) 
52

>  <SMILES>  (53) 
C[N@H+](Cc1cccc(C(=O)[N-]c2ccccc2N)c1)C(=O)Oc1ccc[n-]c1=N

>  <Energy>  (53) 
67.49408443679803

>  <Genealogy>  (53) 
C[NH+](Cc1cccc(C(=O)[N-]c2ccccc2N)c1)C(=O)Oc1ccc[n-]c1=N (protonated)
C[N@H+](Cc1cccc(C(=O)[N-]c2ccccc2N)c1)C(=O)Oc1ccc[n-]c1=N (chirality)
C[N@H+](Cc1cccc(C(=O)[N-]c2ccccc2N)c1)C(=O)Oc1ccc[n-]c1=N (3D coordinates assigned)
C[N@H+](Cc1cccc(C(=O)[N-]c2ccccc2N)c1)C(=O)Oc1ccc[n-]c1=N (optimized conformer: 67.49408443679803 kcal/mol)

>  <smiles>  (53) 
CN(Cc1cccc(C(=O)Nc2ccccc2N)c1)C(=O)Oc1ccc[nH]c1=N

>  <score_type>  (53) 
oracle

>  <origin>  (53) 
adg

>  <m_score__min__energy>  (53) 
-10.24

>  <m_primary>  (53) 
energy

$$$$
53:0
     RDKit          3D

 74 77  0  0  0  0  0  0  0  0999 V2000
   56.6270   21.9480   45.6400 C   0  0  0  0  0  0  0  0  0  0  0  0
   56.4780   23.0710   44.6950 N   0  0  0  0  0  0  0  0  0  0  0  0
   56.4240   22.5530   43.3170 C   0  0  0  0  0  0  0  0  0  0  0  0
   55.2670   23.8740   44.9800 C   0  0  0  0  0  0  0  0  0  0  0  0
   55.5970   25.2190   45.6500 C   0  0  0  0  0  0  0  0  0  0  0  0
   57.0460   25.4750   45.6450 N   0  0  0  0  0  0  0  0  0  0  0  0
   57.7920   25.2800   46.9010 C   0  0  0  0  0  0  0  0  0  0  0  0
   58.6260   26.4900   47.2310 C   0  0  0  0  0  0  0  0  0  0  0  0
   58.0140   27.7280   47.4730 C   0  0  0  0  0  0  0  0  0  0  0  0
   58.7840   28.8500   47.7780 C   0  0  0  0  0  0  0  0  0  0  0  0
   60.1870   28.7630   47.8340 C   0  0  0  0  0  0  0  0  0  0  0  0
   61.0070   29.9720   48.1130 C   0  0  0  0  0  0  0  0  0  0  0  0
   61.4440   30.2580   49.4200 C   0  0  0  0  0  0  0  0  0  0  0  0
   62.2220   31.3910   49.6770 C   0  0  0  0  0  0  0  0  0  0  0  0
   62.5830   32.2600   48.6350 C   0  0  0  0  0  0  0  0  0  0  0  0
   63.4010   33.4880   48.9380 C   0  0  0  0  0  0  0  0  0  0  0  0
   62.7300   34.3420   49.7960 F   0  0  0  0  0  0  0  0  0  0  0  0
   64.5890   33.1050   49.5270 F   0  0  0  0  0  0  0  0  0  0  0  0
   63.6750   34.1760   47.7700 F   0  0  0  0  0  0  0  0  0  0  0  0
   62.1260   31.9910   47.3330 C   0  0  0  0  0  0  0  0  0  0  0  0
   61.3550   30.8550   47.0730 C   0  0  0  0  0  0  0  0  0  0  0  0
   60.7970   27.5160   47.6000 C   0  0  0  0  0  0  0  0  0  0  0  0
   60.0220   26.3880   47.3080 C   0  0  0  0  0  0  0  0  0  0  0  0
   57.7680   25.8390   44.4410 C   0  0  0  0  0  0  0  0  0  0  0  0
   57.4770   25.2800   43.3490 O   0  0  0  0  0  0  0  0  0  0  0  0
   58.8530   26.8920   44.4160 C   0  0  0  0  0  0  0  0  0  0  0  0
   58.3270   28.2720   44.4700 N   0  0  0  0  0  0  0  0  0  0  0  0
   56.9750   28.4850   44.5020 C   0  0  0  0  0  0  0  0  0  0  0  0
   56.4530   29.7750   44.6210 C   0  0  0  0  0  0  0  0  0  0  0  0
   57.3160   30.8610   44.7620 C   0  0  0  0  0  0  0  0  0  0  0  0
   56.7630   32.1700   44.9470 N   0  0  0  0  0  0  0  0  0  0  0  0
   57.6900   33.6250   45.1470 S   0  0  0  0  0  0  0  0  0  0  0  0
   58.7260   33.7610   44.0640 O   0  0  0  0  0  0  0  0  0  0  0  0
   56.7540   34.7950   45.0400 O   0  0  0  0  0  0  0  0  0  0  0  0
   58.4580   33.6330   46.7380 C   0  0  0  0  0  0  0  0  0  0  0  0
   59.4020   34.6200   47.0650 C   0  0  0  0  0  0  0  0  0  0  0  0
   60.0410   34.6050   48.3080 C   0  0  0  0  0  0  0  0  0  0  0  0
   59.7330   33.6100   49.2390 C   0  0  0  0  0  0  0  0  0  0  0  0
   58.7850   32.6300   48.9260 C   0  0  0  0  0  0  0  0  0  0  0  0
   58.1510   32.6380   47.6790 C   0  0  0  0  0  0  0  0  0  0  0  0
   58.6960   30.6370   44.7240 C   0  0  0  0  0  0  0  0  0  0  0  0
   59.1890   29.3360   44.5900 C   0  0  0  0  0  0  0  0  0  0  0  0
   60.4380   29.1620   44.5880 O   0  0  0  0  0  0  0  0  0  0  0  0
   56.5767   22.3274   46.6713 H   0  0  0  0  0  0  0  0  0  0  0  0
   55.8174   21.2215   45.4767 H   0  0  0  0  0  0  0  0  0  0  0  0
   57.5981   21.4577   45.4767 H   0  0  0  0  0  0  0  0  0  0  0  0
   57.3250   23.6820   44.7690 H   0  0  0  0  0  0  0  0  0  0  0  0
   56.3100   21.4592   43.3407 H   0  0  0  0  0  0  0  0  0  0  0  0
   55.5675   22.9996   42.7907 H   0  0  0  0  0  0  0  0  0  0  0  0
   57.3542   22.8134   42.7907 H   0  0  0  0  0  0  0  0  0  0  0  0
   54.7430   24.0707   44.0330 H   0  0  0  0  0  0  0  0  0  0  0  0
   54.6401   23.2981   45.6767 H   0  0  0  0  0  0  0  0  0  0  0  0
   55.0881   26.0265   45.1033 H   0  0  0  0  0  0  0  0  0  0  0  0
   55.2537   25.1812   46.6944 H   0  0  0  0  0  0  0  0  0  0  0  0
   57.0781   25.1021   47.7187 H   0  0  0  0  0  0  0  0  0  0  0  0
   58.4628   24.4169   46.7780 H   0  0  0  0  0  0  0  0  0  0  0  0
   56.9186   27.8149   47.4219 H   0  0  0  0  0  0  0  0  0  0  0  0
   58.2896   29.8123   47.9767 H   0  0  0  0  0  0  0  0  0  0  0  0
   61.1713   29.5847   50.2460 H   0  0  0  0  0  0  0  0  0  0  0  0
   62.5540   31.6033   50.7040 H   0  0  0  0  0  0  0  0  0  0  0  0
   62.3772   32.6798   46.5130 H   0  0  0  0  0  0  0  0  0  0  0  0
   61.0170   30.6488   46.0468 H   0  0  0  0  0  0  0  0  0  0  0  0
   61.8924   27.4275   47.6471 H   0  0  0  0  0  0  0  0  0  0  0  0
   60.5103   25.4171   47.1382 H   0  0  0  0  0  0  0  0  0  0  0  0
   59.5123   26.7351   45.2824 H   0  0  0  0  0  0  0  0  0  0  0  0
   59.3907   26.7844   43.4624 H   0  0  0  0  0  0  0  0  0  0  0  0
   56.2896   27.6274   44.4330 H   0  0  0  0  0  0  0  0  0  0  0  0
   55.3646   29.9337   44.6035 H   0  0  0  0  0  0  0  0  0  0  0  0
   59.6402   35.4103   46.3379 H   0  0  0  0  0  0  0  0  0  0  0  0
   60.7860   35.3763   48.5531 H   0  0  0  0  0  0  0  0  0  0  0  0
   60.2355   33.5971   50.2174 H   0  0  0  0  0  0  0  0  0  0  0  0
   58.5375   31.8512   49.6623 H   0  0  0  0  0  0  0  0  0  0  0  0
   57.4100   31.8624   47.4354 H   0  0  0  0  0  0  0  0  0  0  0  0
   59.3932   31.4845   44.7995 H   0  0  0  0  0  0  0  0  0  0  0  0
  1  2  1  0
  2  3  1  0
  2  4  1  0
  4  5  1  0
  5  6  1  0
  6  7  1  0
  7  8  1  0
  8  9  2  0
  9 10  1  0
 10 11  2  0
 11 12  1  0
 12 13  2  0
 13 14  1  0
 14 15  2  0
 15 16  1  0
 16 17  1  0
 16 18  1  0
 16 19  1  0
 15 20  1  0
 20 21  2  0
 11 22  1  0
 22 23  2  0
  6 24  1  0
 24 25  2  0
 24 26  1  0
 26 27  1  0
 27 28  1  0
 28 29  2  0
 29 30  1  0
 30 31  1  0
 31 32  1  0
 32 33  2  0
 32 34  2  0
 32 35  1  0
 35 36  2  0
 36 37  1  0
 37 38  2  0
 38 39  1  0
 39 40  2  0
 30 41  2  0
 41 42  1  0
 42 43  2  0
 23  8  1  0
 42 27  1  0
 21 12  1  0
 40 35  1  0
  1 44  1  0
  1 45  1  0
  1 46  1  0
  2 47  1  0
  3 48  1  0
  3 49  1  0
  3 50  1  0
  4 51  1  0
  4 52  1  0
  5 53  1  0
  5 54  1  0
  7 55  1  0
  7 56  1  0
  9 57  1  0
 10 58  1  0
 13 59  1  0
 14 60  1  0
 20 61  1  0
 21 62  1  0
 22 63  1  0
 23 64  1  0
 26 65  1  0
 26 66  1  0
 28 67  1  0
 29 68  1  0
 36 69  1  0
 37 70  1  0
 38 71  1  0
 39 72  1  0
 40 73  1  0
 41 74  1  0
M  CHG  2   2   1  31  -1
M  END
>  <UniqueID>  (54) 
53

>  <SMILES>  (54) 
C[NH+](C)CCN(Cc1ccc(-c2ccc(C(F)(F)F)cc2)cc1)C(=O)Cn1ccc([N-]S(=O)(=O)c2ccccc2)cc1=O

>  <Energy>  (54) 
91.85473980903384

>  <Genealogy>  (54) 
C[NH+](C)CCN(Cc1ccc(-c2ccc(C(F)(F)F)cc2)cc1)C(=O)Cn1ccc([N-]S(=O)(=O)c2ccccc2)cc1=O (protonated)
C[NH+](C)CCN(Cc1ccc(-c2ccc(C(F)(F)F)cc2)cc1)C(=O)Cn1ccc([N-]S(=O)(=O)c2ccccc2)cc1=O (3D coordinates assigned)
C[NH+](C)CCN(Cc1ccc(-c2ccc(C(F)(F)F)cc2)cc1)C(=O)Cn1ccc([N-]S(=O)(=O)c2ccccc2)cc1=O (optimized conformer: 91.85473980903384 kcal/mol)

>  <smiles>  (54) 
CN(C)CCN(Cc1ccc(-c2ccc(C(F)(F)F)cc2)cc1)C(=O)Cn1ccc(NS(=O)(=O)c2ccccc2)cc1=O

>  <score_type>  (54) 
oracle

>  <origin>  (54) 
adg

>  <m_score__min__energy>  (54) 
-10.050000000000001

>  <m_primary>  (54) 
energy

$$$$
54:0
     RDKit          3D

 64 67  0  0  0  0  0  0  0  0999 V2000
   58.0920   32.8510   43.7280 C   0  0  0  0  0  0  0  0  0  0  0  0
   58.1600   34.0430   44.5870 N   0  0  0  0  0  0  0  0  0  0  0  0
   57.2410   33.9280   45.7470 C   0  0  0  0  0  0  0  0  0  0  0  0
   57.9690   33.4740   47.0230 C   0  0  0  0  0  0  0  0  0  0  0  0
   59.0470   34.4190   47.4190 N   0  0  0  0  0  0  0  0  0  0  0  0
   60.0960   33.7410   48.2160 C   0  0  0  0  0  0  0  0  0  0  0  0
   59.6390   32.3600   48.6930 C   0  0  0  0  0  0  0  0  0  0  0  0
   60.2480   31.3590   47.8820 O   0  0  0  0  0  0  0  0  0  0  0  0
   59.5560   30.3100   47.2590 C   0  0  0  0  0  0  0  0  0  0  0  0
   60.0840   29.0220   47.3570 C   0  0  0  0  0  0  0  0  0  0  0  0
   59.4350   27.9430   46.7590 C   0  0  0  0  0  0  0  0  0  0  0  0
   58.2350   28.1250   46.0610 C   0  0  0  0  0  0  0  0  0  0  0  0
   57.5820   26.9650   45.5220 N   0  0  0  0  0  0  0  0  0  0  0  0
   58.0040   25.6320   45.8610 C   0  0  0  0  0  0  0  0  0  0  0  0
   58.8690   25.4620   46.7640 O   0  0  0  0  0  0  0  0  0  0  0  0
   57.4980   24.4540   45.1150 C   0  0  0  0  0  0  0  0  0  0  0  0
   57.2870   24.5660   43.7290 C   0  0  0  0  0  0  0  0  0  0  0  0
   56.7670   23.4940   42.9980 C   0  0  0  0  0  0  0  0  0  0  0  0
   56.4560   22.2940   43.6390 C   0  0  0  0  0  0  0  0  0  0  0  0
   55.9320   21.2310   42.9130 O   0  0  0  0  0  0  0  0  0  0  0  0
   56.6760   22.1600   45.0110 C   0  0  0  0  0  0  0  0  0  0  0  0
   57.2100   23.2230   45.7520 C   0  0  0  0  0  0  0  0  0  0  0  0
   57.4680   23.0270   47.1110 O   0  0  0  0  0  0  0  0  0  0  0  0
   56.4900   22.6450   48.0400 C   0  0  0  0  0  0  0  0  0  0  0  0
   56.8080   21.9370   49.2170 C   0  0  0  0  0  0  0  0  0  0  0  0
   55.7980   21.5840   50.1180 C   0  0  0  0  0  0  0  0  0  0  0  0
   54.4690   21.9290   49.8540 C   0  0  0  0  0  0  0  0  0  0  0  0
   54.1470   22.6250   48.6860 C   0  0  0  0  0  0  0  0  0  0  0  0
   55.1530   22.9780   47.7810 C   0  0  0  0  0  0  0  0  0  0  0  0
   57.6960   29.4320   45.9250 C   0  0  0  0  0  0  0  0  0  0  0  0
   56.4860   29.7120   45.1110 C   0  0  0  0  0  0  0  0  0  0  0  0
   55.5190   28.6890   44.8810 N   0  0  0  0  0  0  0  0  0  0  0  0
   56.2830   30.8590   44.6390 O   0  0  0  0  0  0  0  0  0  0  0  0
   58.3630   30.5110   46.5400 C   0  0  0  0  0  0  0  0  0  0  0  0
   59.6350   35.1470   46.2650 C   0  0  0  0  0  0  0  0  0  0  0  0
   59.5650   34.3240   44.9710 C   0  0  0  0  0  0  0  0  0  0  0  0
   58.0406   31.9492   44.3557 H   0  0  0  0  0  0  0  0  0  0  0  0
   57.1956   32.9074   43.0929 H   0  0  0  0  0  0  0  0  0  0  0  0
   58.9890   32.8050   43.0929 H   0  0  0  0  0  0  0  0  0  0  0  0
   56.7802   34.9095   45.9324 H   0  0  0  0  0  0  0  0  0  0  0  0
   56.4830   33.1691   45.5029 H   0  0  0  0  0  0  0  0  0  0  0  0
   57.2386   33.4056   47.8427 H   0  0  0  0  0  0  0  0  0  0  0  0
   58.4328   32.4977   46.8189 H   0  0  0  0  0  0  0  0  0  0  0  0
   60.9962   33.6239   47.5947 H   0  0  0  0  0  0  0  0  0  0  0  0
   60.3067   34.3580   49.1020 H   0  0  0  0  0  0  0  0  0  0  0  0
   59.9375   32.2156   49.7418 H   0  0  0  0  0  0  0  0  0  0  0  0
   58.5445   32.2849   48.6131 H   0  0  0  0  0  0  0  0  0  0  0  0
   61.0200   28.8568   47.9107 H   0  0  0  0  0  0  0  0  0  0  0  0
   59.8710   26.9361   46.8364 H   0  0  0  0  0  0  0  0  0  0  0  0
   57.0500   27.0980   44.6320 H   0  0  0  0  0  0  0  0  0  0  0  0
   57.5337   25.5067   43.2150 H   0  0  0  0  0  0  0  0  0  0  0  0
   56.6026   23.5965   41.9152 H   0  0  0  0  0  0  0  0  0  0  0  0
   56.4285   21.2136   45.5140 H   0  0  0  0  0  0  0  0  0  0  0  0
   57.8521   21.6618   49.4271 H   0  0  0  0  0  0  0  0  0  0  0  0
   56.0499   21.0336   51.0365 H   0  0  0  0  0  0  0  0  0  0  0  0
   53.6771   21.6525   50.5657 H   0  0  0  0  0  0  0  0  0  0  0  0
   53.1012   22.8955   48.4782 H   0  0  0  0  0  0  0  0  0  0  0  0
   54.8936   23.5205   46.8599 H   0  0  0  0  0  0  0  0  0  0  0  0
   55.5190   27.8100   45.4460 H   0  0  0  0  0  0  0  0  0  0  0  0
   57.9448   31.5250   46.4567 H   0  0  0  0  0  0  0  0  0  0  0  0
   59.0823   36.0867   46.1187 H   0  0  0  0  0  0  0  0  0  0  0  0
   60.6946   35.3399   46.4886 H   0  0  0  0  0  0  0  0  0  0  0  0
   60.0521   34.8871   44.1613 H   0  0  0  0  0  0  0  0  0  0  0  0
   60.0772   33.3654   45.1408 H   0  0  0  0  0  0  0  0  0  0  0  0
  1  2  1  0
  2  3  1  0
  3  4  1  0
  4  5  1  0
  5  6  1  0
  6  7  1  0
  7  8  1  0
  8  9  1  0
  9 10  2  0
 10 11  1  0
 11 12  2  0
 12 13  1  0
 13 14  1  0
 14 15  2  0
 14 16  1  0
 16 17  2  0
 17 18  1  0
 18 19  2  0
 19 20  1  0
 19 21  1  0
 21 22  2  0
 22 23  1  0
 23 24  1  0
 24 25  2  0
 25 26  1  0
 26 27  2  0
 27 28  1  0
 28 29  2  0
 12 30  1  0
 30 31  1  0
 31 32  1  0
 31 33  2  0
 30 34  2  0
  5 35  1  0
 35 36  1  0
 36  2  1  0
 34  9  1  0
 22 16  1  0
 29 24  1  0
  1 37  1  0
  1 38  1  0
  1 39  1  0
  3 40  1  0
  3 41  1  0
  4 42  1  0
  4 43  1  0
  6 44  1  0
  6 45  1  0
  7 46  1  0
  7 47  1  0
 10 48  1  0
 11 49  1  0
 13 50  1  0
 17 51  1  0
 18 52  1  0
 21 53  1  0
 25 54  1  0
 26 55  1  0
 27 56  1  0
 28 57  1  0
 29 58  1  0
 32 59  1  0
 34 60  1  0
 35 61  1  0
 35 62  1  0
 36 63  1  0
 36 64  1  0
M  CHG  2  20  -1  32  -1
M  END
>  <UniqueID>  (55) 
54

>  <SMILES>  (55) 
CN1CCN(CCOc2ccc(NC(=O)c3ccc([O-])cc3Oc3ccccc3)c(C([NH-])=O)c2)CC1

>  <Energy>  (55) 
98.32949679594545

>  <Genealogy>  (55) 
CN1CCN(CCOc2ccc(NC(=O)c3ccc([O-])cc3Oc3ccccc3)c(C([NH-])=O)c2)CC1 (protonated)
CN1CCN(CCOc2ccc(NC(=O)c3ccc([O-])cc3Oc3ccccc3)c(C([NH-])=O)c2)CC1 (3D coordinates assigned)
CN1CCN(CCOc2ccc(NC(=O)c3ccc([O-])cc3Oc3ccccc3)c(C([NH-])=O)c2)CC1 (nonaromatic ring conformer: 98.32949679594545 kcal/mol)

>  <smiles>  (55) 
CN1CCN(CCOc2ccc(NC(=O)c3ccc(O)cc3Oc3ccccc3)c(C(N)=O)c2)CC1

>  <score_type>  (55) 
oracle

>  <origin>  (55) 
adg

>  <m_score__min__energy>  (55) 
-14.109999999999999

>  <m_primary>  (55) 
energy

$$$$
55:0
     RDKit          3D

 44 46  0  0  0  0  0  0  0  0999 V2000
   54.4120   23.6930   43.5550 C   0  0  0  0  0  0  0  0  0  0  0  0
   53.7110   23.7940   45.1890 S   0  0  0  0  0  0  0  0  0  0  0  0
   52.8550   25.0260   45.2690 O   0  0  0  0  0  0  0  0  0  0  0  0
   52.8530   22.5920   45.4670 O   0  0  0  0  0  0  0  0  0  0  0  0
   54.9720   23.9140   46.3740 N   0  0  0  0  0  0  0  0  0  0  0  0
   56.2300   24.5850   46.2060 C   0  0  0  0  0  0  0  0  0  0  0  0
   57.4470   23.8800   46.2150 C   0  0  0  0  0  0  0  0  0  0  0  0
   58.6560   24.5570   46.0570 C   0  0  0  0  0  0  0  0  0  0  0  0
   58.6700   25.9400   45.8800 C   0  0  0  0  0  0  0  0  0  0  0  0
   57.4690   26.6660   45.8590 C   0  0  0  0  0  0  0  0  0  0  0  0
   57.5100   28.1350   45.6540 C   0  0  0  0  0  0  0  0  0  0  0  0
   56.4380   28.8000   45.0430 C   0  0  0  0  0  0  0  0  0  0  0  0
   56.4810   30.1450   44.8580 N   0  0  0  0  0  0  0  0  0  0  0  0
   57.5380   30.8950   45.2660 C   0  0  0  0  0  0  0  0  0  0  0  0
   57.5370   32.1340   45.0370 O   0  0  0  0  0  0  0  0  0  0  0  0
   58.6260   30.2830   45.9150 C   0  0  0  0  0  0  0  0  0  0  0  0
   59.7900   31.0650   46.3870 C   0  0  0  0  0  0  0  0  0  0  0  0
   60.9490   30.6650   46.0950 O   0  0  0  0  0  0  0  0  0  0  0  0
   59.6290   32.2480   47.1940 N   0  0  0  0  0  0  0  0  0  0  0  0
   58.4770   32.4100   48.0870 C   0  0  0  0  0  0  0  0  0  0  0  0
   58.9190   33.1250   49.3690 C   0  0  0  0  0  0  0  0  0  0  0  0
   59.6020   34.3260   49.0630 O   0  0  0  0  0  0  0  0  0  0  0  0
   60.8100   34.0320   48.3880 C   0  0  0  0  0  0  0  0  0  0  0  0
   60.5310   33.3900   47.0250 C   0  0  0  0  0  0  0  0  0  0  0  0
   58.6080   28.8920   46.0900 C   0  0  0  0  0  0  0  0  0  0  0  0
   56.2440   25.9860   46.0360 C   0  0  0  0  0  0  0  0  0  0  0  0
   55.0510   26.7150   46.0600 O   0  0  0  0  0  0  0  0  0  0  0  0
   55.4982   23.5365   43.6310 H   0  0  0  0  0  0  0  0  0  0  0  0
   53.9573   22.8511   43.0124 H   0  0  0  0  0  0  0  0  0  0  0  0
   54.2135   24.6290   43.0124 H   0  0  0  0  0  0  0  0  0  0  0  0
   57.4452   22.7880   46.3475 H   0  0  0  0  0  0  0  0  0  0  0  0
   59.6029   23.9974   46.0721 H   0  0  0  0  0  0  0  0  0  0  0  0
   59.6284   26.4654   45.7560 H   0  0  0  0  0  0  0  0  0  0  0  0
   55.5576   28.2299   44.7117 H   0  0  0  0  0  0  0  0  0  0  0  0
   57.7034   33.0074   47.5824 H   0  0  0  0  0  0  0  0  0  0  0  0
   58.0692   31.4206   48.3416 H   0  0  0  0  0  0  0  0  0  0  0  0
   58.0319   33.3589   49.9759 H   0  0  0  0  0  0  0  0  0  0  0  0
   59.5994   32.4637   49.9256 H   0  0  0  0  0  0  0  0  0  0  0  0
   61.3753   34.9637   48.2385 H   0  0  0  0  0  0  0  0  0  0  0  0
   61.3909   33.3246   48.9980 H   0  0  0  0  0  0  0  0  0  0  0  0
   60.0626   34.1310   46.3605 H   0  0  0  0  0  0  0  0  0  0  0  0
   61.4776   33.0451   46.5835 H   0  0  0  0  0  0  0  0  0  0  0  0
   59.4602   28.3909   46.5723 H   0  0  0  0  0  0  0  0  0  0  0  0
   54.1760   26.3210   46.3820 H   0  0  0  0  0  0  0  0  0  0  0  0
  1  2  1  0
  2  3  2  0
  2  4  2  0
  2  5  1  0
  5  6  1  0
  6  7  2  0
  7  8  1  0
  8  9  2  0
  9 10  1  0
 10 11  1  0
 11 12  2  0
 12 13  1  0
 13 14  1  0
 14 15  2  0
 14 16  1  0
 16 17  1  0
 17 18  2  0
 17 19  1  0
 19 20  1  0
 20 21  1  0
 21 22  1  0
 22 23  1  0
 23 24  1  0
 16 25  2  0
 10 26  2  0
 26 27  1  0
 26  6  1  0
 25 11  1  0
 24 19  1  0
  1 28  1  0
  1 29  1  0
  1 30  1  0
  7 31  1  0
  8 32  1  0
  9 33  1  0
 12 34  1  0
 20 35  1  0
 20 36  1  0
 21 37  1  0
 21 38  1  0
 23 39  1  0
 23 40  1  0
 24 41  1  0
 24 42  1  0
 25 43  1  0
 27 44  1  0
M  CHG  2   5  -1  13  -1
M  END
>  <UniqueID>  (56) 
55

>  <SMILES>  (56) 
CS(=O)(=O)[N-]c1cccc(-c2c[n-]c(=O)c(C(=O)N3CCOCC3)c2)c1O

>  <Energy>  (56) 
61.02818910431553

>  <Genealogy>  (56) 
CS(=O)(=O)[N-]c1cccc(-c2c[n-]c(=O)c(C(=O)N3CCOCC3)c2)c1O (protonated)
CS(=O)(=O)[N-]c1cccc(-c2c[n-]c(=O)c(C(=O)N3CCOCC3)c2)c1O (3D coordinates assigned)
CS(=O)(=O)[N-]c1cccc(-c2c[n-]c(=O)c(C(=O)N3CCOCC3)c2)c1O (nonaromatic ring conformer: 61.02818910431553 kcal/mol)

>  <smiles>  (56) 
CS(=O)(=O)Nc1cccc(-c2c[nH]c(=O)c(C(=O)N3CCOCC3)c2)c1O

>  <score_type>  (56) 
oracle

>  <origin>  (56) 
adg

>  <m_score__min__energy>  (56) 
-12.699999999999999

>  <m_primary>  (56) 
energy

$$$$
56:0
     RDKit          3D

 40 42  0  0  0  0  0  0  0  0999 V2000
   54.9401   29.1215   44.7664 H   0  0  0  0  0  0  0  0  0  0  0  0
   56.0300   29.2260   44.6610 C   0  0  0  0  0  0  0  0  0  0  0  0
   56.5090   30.1320   43.7920 C   0  0  0  0  0  0  0  0  0  0  0  0
   56.3421   29.9630   42.7180 H   0  0  0  0  0  0  0  0  0  0  0  0
   57.2510   31.3480   44.2050 C   0  0  0  0  0  0  0  0  0  0  0  0
   57.3970   31.6170   45.5750 C   0  0  0  0  0  0  0  0  0  0  0  0
   56.9869   30.9138   46.3148 H   0  0  0  0  0  0  0  0  0  0  0  0
   58.0580   32.7690   46.0080 C   0  0  0  0  0  0  0  0  0  0  0  0
   58.1540   32.9753   47.0842 H   0  0  0  0  0  0  0  0  0  0  0  0
   58.5970   33.6590   45.0770 C   0  0  0  0  0  0  0  0  0  0  0  0
   59.2670   34.8540   45.5220 C   0  0  0  0  0  0  0  0  0  0  0  0
   59.8060   35.8130   45.8810 N   0  0  0  0  0  0  0  0  0  0  0  0
   58.4830   33.3870   43.7110 C   0  0  0  0  0  0  0  0  0  0  0  0
   58.9164   34.0814   42.9762 H   0  0  0  0  0  0  0  0  0  0  0  0
   57.8210   32.2370   43.2750 C   0  0  0  0  0  0  0  0  0  0  0  0
   57.7448   32.0250   42.1983 H   0  0  0  0  0  0  0  0  0  0  0  0
   56.9110   28.3600   45.4850 C   0  0  0  0  0  0  0  0  0  0  0  0
   56.4270   27.1400   45.9910 C   0  0  0  0  0  0  0  0  0  0  0  0
   55.1350   26.7140   45.6980 O   0  0  0  0  0  0  0  0  0  0  0  0
   57.2130   26.3700   46.7880 N   0  0  0  0  0  0  0  0  0  0  0  0
   58.4800   26.7300   47.1180 C   0  0  0  0  0  0  0  0  0  0  0  0
   59.1660   25.9830   47.8670 O   0  0  0  0  0  0  0  0  0  0  0  0
   59.0180   27.9220   46.6180 C   0  0  0  0  0  0  0  0  0  0  0  0
   60.3480   28.3300   46.9590 N   0  0  0  0  0  0  0  0  0  0  0  0
   61.0180   27.5930   47.2720 H   0  0  0  0  0  0  0  0  0  0  0  0
   60.9090   29.5480   46.3800 C   0  0  0  0  0  0  0  0  0  0  0  0
   61.9973   29.4333   46.2689 H   0  0  0  0  0  0  0  0  0  0  0  0
   60.4559   29.7268   45.3938 H   0  0  0  0  0  0  0  0  0  0  0  0
   60.6180   30.7140   47.2830 C   0  0  0  0  0  0  0  0  0  0  0  0
   61.3080   31.9250   47.1250 C   0  0  0  0  0  0  0  0  0  0  0  0
   62.1017   32.0151   46.3687 H   0  0  0  0  0  0  0  0  0  0  0  0
   60.9810   33.0160   47.9340 C   0  0  0  0  0  0  0  0  0  0  0  0
   61.5277   33.9643   47.8248 H   0  0  0  0  0  0  0  0  0  0  0  0
   59.9870   32.9070   48.8570 N   0  0  0  0  0  0  0  0  0  0  0  0
   59.2920   31.7470   49.0220 C   0  0  0  0  0  0  0  0  0  0  0  0
   58.4940   31.6885   49.7768 H   0  0  0  0  0  0  0  0  0  0  0  0
   59.5900   30.6310   48.2350 C   0  0  0  0  0  0  0  0  0  0  0  0
   59.0240   29.6962   48.3606 H   0  0  0  0  0  0  0  0  0  0  0  0
   58.2360   28.7240   45.7820 C   0  0  0  0  0  0  0  0  0  0  0  0
   58.6595   29.6447   45.3543 H   0  0  0  0  0  0  0  0  0  0  0  0
  1  2  1  0
  2  3  2  0
  3  4  1  0
  3  5  1  0
  5  6  2  0
  6  7  1  0
  6  8  1  0
  8  9  1  0
  8 10  2  0
 10 11  1  0
 11 12  3  0
 10 13  1  0
 13 14  1  0
 13 15  2  0
 15 16  1  0
  2 17  1  0
 17 18  2  0
 18 19  1  0
 18 20  1  0
 20 21  1  0
 21 22  2  0
 21 23  1  0
 23 24  1  0
 24 25  1  0
 24 26  1  0
 26 27  1  0
 26 28  1  0
 26 29  1  0
 29 30  2  0
 30 31  1  0
 30 32  1  0
 32 33  1  0
 32 34  2  0
 34 35  1  0
 35 36  1  0
 35 37  2  0
 37 38  1  0
 23 39  2  0
 39 40  1  0
 15  5  1  0
 39 17  1  0
 37 29  1  0
M  CHG  2  19  -1  20  -1
M  END
>  <UniqueID>  (57) 
56

>  <SMILES>  (57) 
N#Cc1ccc(/C=C/c2cc(NCc3ccncc3)c(=O)[n-]c2[O-])cc1

>  <Energy>  (57) 
53.24528366024788

>  <Genealogy>  (57) 
N#Cc1ccc(C=Cc2cc(NCc3ccncc3)c(=O)[n-]c2[O-])cc1 (protonated)
N#Cc1ccc(/C=C/c2cc(NCc3ccncc3)c(=O)[n-]c2[O-])cc1 (cis-trans isomerization)
N#Cc1ccc(/C=C/c2cc(NCc3ccncc3)c(=O)[n-]c2[O-])cc1 (3D coordinates assigned)
N#Cc1ccc(/C=C/c2cc(NCc3ccncc3)c(=O)[n-]c2[O-])cc1 (optimized conformer: 53.24528366024788 kcal/mol)

>  <smiles>  (57) 
N#Cc1ccc(C=Cc2cc(NCc3ccncc3)c(=O)[nH]c2O)cc1

>  <score_type>  (57) 
oracle

>  <origin>  (57) 
adg

>  <m_score__min__energy>  (57) 
-14.15

>  <m_primary>  (57) 
energy

$$$$
57:0
     RDKit          3D

 52 55  0  0  0  0  0  0  0  0999 V2000
   59.5620   29.9730   47.1080 C   0  0  0  0  0  0  0  0  0  0  0  0
   59.1320   30.9100   46.2470 C   0  0  0  0  0  0  0  0  0  0  0  0
   58.4210   30.7120   45.0500 C   0  0  0  0  0  0  0  0  0  0  0  0
   58.0780   29.5850   44.3960 C   0  0  0  0  0  0  0  0  0  0  0  0
   57.5340   28.3620   45.0170 C   0  0  0  0  0  0  0  0  0  0  0  0
   56.1560   28.2090   45.2370 C   0  0  0  0  0  0  0  0  0  0  0  0
   55.2610   29.1980   44.8340 O   0  0  0  0  0  0  0  0  0  0  0  0
   55.6890   27.0890   45.8500 N   0  0  0  0  0  0  0  0  0  0  0  0
   56.5360   26.1160   46.2730 C   0  0  0  0  0  0  0  0  0  0  0  0
   56.0810   25.0860   46.8340 O   0  0  0  0  0  0  0  0  0  0  0  0
   57.8750   26.2550   46.0950 N   0  0  0  0  0  0  0  0  0  0  0  0
   58.3920   27.3550   45.4870 C   0  0  0  0  0  0  0  0  0  0  0  0
   59.6400   27.4550   45.3440 O   0  0  0  0  0  0  0  0  0  0  0  0
   58.1070   31.9750   44.5730 C   0  0  0  0  0  0  0  0  0  0  0  0
   58.6550   32.8840   45.4530 C   0  0  0  0  0  0  0  0  0  0  0  0
   58.5730   34.3730   45.3020 C   0  0  0  0  0  0  0  0  0  0  0  0
   59.2840   32.2430   46.4610 N   0  0  0  0  0  0  0  0  0  0  0  0
   59.9250   32.8800   47.5790 C   0  0  0  0  0  0  0  0  0  0  0  0
   61.1060   33.6100   47.3920 C   0  0  0  0  0  0  0  0  0  0  0  0
   61.7290   34.2270   48.4800 C   0  0  0  0  0  0  0  0  0  0  0  0
   61.1770   34.1180   49.7590 C   0  0  0  0  0  0  0  0  0  0  0  0
   59.9920   33.3940   49.9560 C   0  0  0  0  0  0  0  0  0  0  0  0
   59.3030   33.2380   51.5740 S   0  0  0  0  0  0  0  0  0  0  0  0
   60.4150   33.0410   52.5670 O   0  0  0  0  0  0  0  0  0  0  0  0
   58.5830   34.5090   51.9290 O   0  0  0  0  0  0  0  0  0  0  0  0
   58.1940   31.8930   51.6780 N   0  0  0  0  0  0  0  0  0  0  0  0
   58.8110   30.7680   52.4000 C   0  0  0  0  0  0  0  0  0  0  0  0
   57.7680   29.6710   52.6940 C   0  0  0  0  0  0  0  0  0  0  0  0
   56.5700   29.9000   51.9780 O   0  0  0  0  0  0  0  0  0  0  0  0
   55.9730   31.1100   52.4140 C   0  0  0  0  0  0  0  0  0  0  0  0
   56.9510   32.3020   52.3450 C   0  0  0  0  0  0  0  0  0  0  0  0
   59.3640   32.7850   48.8610 C   0  0  0  0  0  0  0  0  0  0  0  0
   60.1112   30.2691   48.0140 H   0  0  0  0  0  0  0  0  0  0  0  0
   59.3650   28.9096   46.9071 H   0  0  0  0  0  0  0  0  0  0  0  0
   58.2154   29.5759   43.3047 H   0  0  0  0  0  0  0  0  0  0  0  0
   54.3210   28.9610   44.5410 H   0  0  0  0  0  0  0  0  0  0  0  0
   57.5306   32.2077   43.6655 H   0  0  0  0  0  0  0  0  0  0  0  0
   58.5472   34.8416   46.2969 H   0  0  0  0  0  0  0  0  0  0  0  0
   59.4526   34.7345   44.7492 H   0  0  0  0  0  0  0  0  0  0  0  0
   57.6590   34.6357   44.7492 H   0  0  0  0  0  0  0  0  0  0  0  0
   61.5438   33.6977   46.3867 H   0  0  0  0  0  0  0  0  0  0  0  0
   62.6560   34.7997   48.3293 H   0  0  0  0  0  0  0  0  0  0  0  0
   61.6731   34.6013   50.6136 H   0  0  0  0  0  0  0  0  0  0  0  0
   59.6180   30.3433   51.7849 H   0  0  0  0  0  0  0  0  0  0  0  0
   59.2131   31.1384   53.3545 H   0  0  0  0  0  0  0  0  0  0  0  0
   58.1810   28.6949   52.3997 H   0  0  0  0  0  0  0  0  0  0  0  0
   57.5395   29.6866   53.7699 H   0  0  0  0  0  0  0  0  0  0  0  0
   55.1048   31.3270   51.7744 H   0  0  0  0  0  0  0  0  0  0  0  0
   55.6744   30.9792   53.4646 H   0  0  0  0  0  0  0  0  0  0  0  0
   56.4863   33.1223   51.7784 H   0  0  0  0  0  0  0  0  0  0  0  0
   57.1828   32.6389   53.3662 H   0  0  0  0  0  0  0  0  0  0  0  0
   58.4260   32.2295   49.0078 H   0  0  0  0  0  0  0  0  0  0  0  0
  1  2  2  0
  2  3  1  0
  3  4  2  3
  4  5  1  0
  5  6  2  0
  6  7  1  0
  6  8  1  0
  8  9  1  0
  9 10  2  0
  9 11  1  0
 11 12  1  0
 12 13  2  0
  3 14  1  0
 14 15  2  0
 15 16  1  0
 15 17  1  0
 17 18  1  0
 18 19  2  0
 19 20  1  0
 20 21  2  0
 21 22  1  0
 22 23  1  0
 23 24  2  0
 23 25  2  0
 23 26  1  0
 26 27  1  0
 27 28  1  0
 28 29  1  0
 29 30  1  0
 30 31  1  0
 22 32  2  0
 17  2  1  0
 32 18  1  0
 12  5  1  0
 31 26  1  0
  1 33  1  0
  1 34  1  0
  4 35  1  0
  7 36  1  0
 14 37  1  0
 16 38  1  0
 16 39  1  0
 16 40  1  0
 19 41  1  0
 20 42  1  0
 21 43  1  0
 27 44  1  0
 27 45  1  0
 28 46  1  0
 28 47  1  0
 30 48  1  0
 30 49  1  0
 31 50  1  0
 31 51  1  0
 32 52  1  0
M  CHG  2   8  -1  11  -1
M  END
>  <UniqueID>  (58) 
57

>  <SMILES>  (58) 
C=c1c(=Cc2c(O)[n-]c(=O)[n-]c2=O)cc(C)n1-c1cccc(S(=O)(=O)N2CCOCC2)c1

>  <Energy>  (58) 
110.11013548513202

>  <Genealogy>  (58) 
C=c1c(=Cc2c(O)[n-]c(=O)[n-]c2=O)cc(C)n1-c1cccc(S(=O)(=O)N2CCOCC2)c1 (protonated)
C=c1c(=Cc2c(O)[n-]c(=O)[n-]c2=O)cc(C)n1-c1cccc(S(=O)(=O)N2CCOCC2)c1 (3D coordinates assigned)
C=c1c(=Cc2c(O)[n-]c(=O)[n-]c2=O)cc(C)n1-c1cccc(S(=O)(=O)N2CCOCC2)c1 (nonaromatic ring conformer: 110.11013548513202 kcal/mol)

>  <smiles>  (58) 
C=c1c(=Cc2c(O)[nH]c(=O)[nH]c2=O)cc(C)n1-c1cccc(S(=O)(=O)N2CCOCC2)c1

>  <score_type>  (58) 
oracle

>  <origin>  (58) 
adg

>  <m_score__min__energy>  (58) 
-14.77

>  <m_primary>  (58) 
energy

$$$$
58:0
     RDKit          3D

 38 40  0  0  0  0  0  0  0  0999 V2000
   57.2329   33.7498   43.2440 H   0  0  0  0  0  0  0  0  0  0  0  0
   57.7740   33.3430   44.1110 C   0  0  0  0  0  0  0  0  0  0  0  0
   57.8510   31.9620   44.2970 C   0  0  0  0  0  0  0  0  0  0  0  0
   57.3771   31.2847   43.5713 H   0  0  0  0  0  0  0  0  0  0  0  0
   58.5280   31.4350   45.4020 C   0  0  0  0  0  0  0  0  0  0  0  0
   58.6110   30.0100   45.5560 N   0  0  0  0  0  0  0  0  0  0  0  0
   59.5560   29.5990   45.7140 H   0  0  0  0  0  0  0  0  0  0  0  0
   57.4840   29.1350   45.3840 C   0  0  0  0  0  0  0  0  0  0  0  0
   56.3360   29.6130   45.1720 O   0  0  0  0  0  0  0  0  0  0  0  0
   57.6340   27.6710   45.4740 C   0  0  0  0  0  0  0  0  0  0  0  0
   57.4010   26.7960   46.8930 S   0  0  0  0  0  0  0  0  0  0  0  0
   57.7220   25.3120   46.1590 C   0  0  0  0  0  0  0  0  0  0  0  0
   57.7220   24.1430   46.7310 N   0  0  0  0  0  0  0  0  0  0  0  0
   57.5770   22.8580   46.1060 C   0  0  0  0  0  0  0  0  0  0  0  0
   57.3940   21.7580   46.7510 N   0  0  0  0  0  0  0  0  0  0  0  0
   57.2890   20.6510   45.8090 C   0  0  0  0  0  0  0  0  0  0  0  0
   58.0867   19.9150   45.9880 H   0  0  0  0  0  0  0  0  0  0  0  0
   56.3342   20.1141   45.9097 H   0  0  0  0  0  0  0  0  0  0  0  0
   57.4460   21.2890   44.4200 C   0  0  0  0  0  0  0  0  0  0  0  0
   58.3242   20.8806   43.8984 H   0  0  0  0  0  0  0  0  0  0  0  0
   56.5859   21.0932   43.7628 H   0  0  0  0  0  0  0  0  0  0  0  0
   57.6240   22.6990   44.7040 N   0  0  0  0  0  0  0  0  0  0  0  0
   57.7630   23.4580   44.0020 H   0  0  0  0  0  0  0  0  0  0  0  0
   57.9860   25.4590   44.8430 N   0  0  0  0  0  0  0  0  0  0  0  0
   57.9280   26.7620   44.4470 C   0  0  0  0  0  0  0  0  0  0  0  0
   58.1360   27.1280   43.0110 C   0  0  0  0  0  0  0  0  0  0  0  0
   58.6787   28.0829   42.9509 H   0  0  0  0  0  0  0  0  0  0  0  0
   58.7220   26.3413   42.5133 H   0  0  0  0  0  0  0  0  0  0  0  0
   57.1602   27.2288   42.5133 H   0  0  0  0  0  0  0  0  0  0  0  0
   59.1670   32.3050   46.3060 C   0  0  0  0  0  0  0  0  0  0  0  0
   59.9160   31.7970   47.3180 F   0  0  0  0  0  0  0  0  0  0  0  0
   59.0800   33.7010   46.1320 C   0  0  0  0  0  0  0  0  0  0  0  0
   59.7820   34.6240   47.1000 C   0  0  0  0  0  0  0  0  0  0  0  0
   59.2360   34.5450   48.3690 F   0  0  0  0  0  0  0  0  0  0  0  0
   59.6710   35.9270   46.6490 F   0  0  0  0  0  0  0  0  0  0  0  0
   61.1210   34.2870   47.1820 F   0  0  0  0  0  0  0  0  0  0  0  0
   58.3810   34.2100   45.0210 C   0  0  0  0  0  0  0  0  0  0  0  0
   58.3128   35.2973   44.8692 H   0  0  0  0  0  0  0  0  0  0  0  0
  1  2  1  0
  2  3  2  0
  3  4  1  0
  3  5  1  0
  5  6  1  0
  6  7  1  0
  6  8  1  0
  8  9  2  0
  8 10  1  0
 10 11  1  0
 11 12  1  0
 12 13  2  0
 13 14  1  0
 14 15  2  0
 15 16  1  0
 16 17  1  0
 16 18  1  0
 16 19  1  0
 19 20  1  0
 19 21  1  0
 19 22  1  0
 22 23  1  0
 12 24  1  0
 24 25  1  0
 25 26  1  0
 26 27  1  0
 26 28  1  0
 26 29  1  0
  5 30  2  0
 30 31  1  0
 30 32  1  0
 32 33  1  0
 33 34  1  0
 33 35  1  0
 33 36  1  0
 32 37  2  0
 37 38  1  0
 37  2  1  0
 25 10  2  0
 22 14  1  0
M  CHG  1  24  -1
M  END
>  <UniqueID>  (59) 
58

>  <SMILES>  (59) 
Cc1[n-]/c(=N/C2=NCCN2)sc1C(=O)Nc1cccc(C(F)(F)F)c1F

>  <Energy>  (59) 
93.9546569446356

>  <Genealogy>  (59) 
Cc1[n-]c(=NC2=NCCN2)sc1C(=O)Nc1cccc(C(F)(F)F)c1F (protonated)
Cc1[n-]/c(=N/C2=NCCN2)sc1C(=O)Nc1cccc(C(F)(F)F)c1F (cis-trans isomerization)
Cc1[n-]/c(=N/C2=NCCN2)sc1C(=O)Nc1cccc(C(F)(F)F)c1F (3D coordinates assigned)
Cc1[n-]/c(=N/C2=NCCN2)sc1C(=O)Nc1cccc(C(F)(F)F)c1F (nonaromatic ring conformer: 93.9546569446356 kcal/mol)

>  <smiles>  (59) 
Cc1[nH]c(=NC2=NCCN2)sc1C(=O)Nc1cccc(C(F)(F)F)c1F

>  <score_type>  (59) 
oracle

>  <origin>  (59) 
adg

>  <m_score__min__energy>  (59) 
-8.5399999999999991

>  <m_primary>  (59) 
energy

$$$$
59:0
     RDKit          3D

 43 45  0  0  0  0  0  0  0  0999 V2000
   61.1710   29.7640   49.4280 O   0  0  0  0  0  0  0  0  0  0  0  0
   60.9870   30.5730   48.4760 C   0  0  0  0  0  0  0  0  0  0  0  0
   61.9350   31.6970   48.3160 C   0  0  0  0  0  0  0  0  0  0  0  0
   63.0020   31.7820   47.4230 C   0  0  0  0  0  0  0  0  0  0  0  0
   63.7290   32.9730   47.5390 C   0  0  0  0  0  0  0  0  0  0  0  0
   63.2470   33.8290   48.5190 C   0  0  0  0  0  0  0  0  0  0  0  0
   61.9180   33.1010   49.2450 S   0  0  0  0  0  0  0  0  0  0  0  0
   59.9110   30.3450   47.5290 N   0  0  2  0  0  0  0  0  0  0  0  0
   60.4240   30.4080   46.1290 C   0  0  0  0  0  0  0  0  0  0  0  0
   60.3270   29.0500   45.4080 C   0  0  0  0  0  0  0  0  0  0  0  0
   58.9590   28.4500   45.5870 C   0  0  0  0  0  0  0  0  0  0  0  0
   57.8300   29.0880   45.0440 C   0  0  0  0  0  0  0  0  0  0  0  0
   56.5630   28.5140   45.1810 C   0  0  0  0  0  0  0  0  0  0  0  0
   56.4140   27.2960   45.8510 C   0  0  0  0  0  0  0  0  0  0  0  0
   55.1530   26.7280   45.9870 O   0  0  0  0  0  0  0  0  0  0  0  0
   57.5340   26.6500   46.3830 C   0  0  0  0  0  0  0  0  0  0  0  0
   58.8030   27.2200   46.2470 C   0  0  0  0  0  0  0  0  0  0  0  0
   58.8520   31.3510   47.7930 C   0  0  0  0  0  0  0  0  0  0  0  0
   58.8380   32.4550   46.7650 C   0  0  0  0  0  0  0  0  0  0  0  0
   57.9500   32.4060   45.6770 C   0  0  0  0  0  0  0  0  0  0  0  0
   57.9150   33.4510   44.7490 C   0  0  0  0  0  0  0  0  0  0  0  0
   58.7660   34.5490   44.8990 C   0  0  0  0  0  0  0  0  0  0  0  0
   59.6530   34.6050   45.9770 C   0  0  0  0  0  0  0  0  0  0  0  0
   59.6910   33.5640   46.9080 C   0  0  0  0  0  0  0  0  0  0  0  0
   63.2485   30.9916   46.6988 H   0  0  0  0  0  0  0  0  0  0  0  0
   64.6013   33.2083   46.9115 H   0  0  0  0  0  0  0  0  0  0  0  0
   63.6632   34.8142   48.7762 H   0  0  0  0  0  0  0  0  0  0  0  0
   59.5220   29.3900   47.7010 H   0  0  0  0  0  0  0  0  0  0  0  0
   59.8338   31.1485   45.5692 H   0  0  0  0  0  0  0  0  0  0  0  0
   61.4863   30.6902   46.1727 H   0  0  0  0  0  0  0  0  0  0  0  0
   60.5197   29.1962   44.3349 H   0  0  0  0  0  0  0  0  0  0  0  0
   61.0726   28.3661   45.8397 H   0  0  0  0  0  0  0  0  0  0  0  0
   57.9442   30.0425   44.5093 H   0  0  0  0  0  0  0  0  0  0  0  0
   55.6819   29.0213   44.7611 H   0  0  0  0  0  0  0  0  0  0  0  0
   57.4163   25.6914   46.9096 H   0  0  0  0  0  0  0  0  0  0  0  0
   59.6827   26.7034   46.6584 H   0  0  0  0  0  0  0  0  0  0  0  0
   57.8747   30.8462   47.7825 H   0  0  0  0  0  0  0  0  0  0  0  0
   59.0596   31.8073   48.7721 H   0  0  0  0  0  0  0  0  0  0  0  0
   57.2799   31.5422   45.5551 H   0  0  0  0  0  0  0  0  0  0  0  0
   57.2169   33.4088   43.9000 H   0  0  0  0  0  0  0  0  0  0  0  0
   58.7376   35.3701   44.1676 H   0  0  0  0  0  0  0  0  0  0  0  0
   60.3225   35.4701   46.0929 H   0  0  0  0  0  0  0  0  0  0  0  0
   60.3904   33.6119   47.7557 H   0  0  0  0  0  0  0  0  0  0  0  0
  1  2  2  0
  2  3  1  0
  3  4  2  0
  4  5  1  0
  5  6  2  0
  6  7  1  0
  2  8  1  0
  8  9  1  0
  9 10  1  0
 10 11  1  0
 11 12  2  0
 12 13  1  0
 13 14  2  0
 14 15  1  0
 14 16  1  0
 16 17  2  0
  8 18  1  0
 18 19  1  0
 19 20  2  0
 20 21  1  0
 21 22  2  0
 22 23  1  0
 23 24  2  0
  7  3  1  0
 17 11  1  0
 24 19  1  0
  4 25  1  0
  5 26  1  0
  6 27  1  0
  8 28  1  1
  9 29  1  0
  9 30  1  0
 10 31  1  0
 10 32  1  0
 12 33  1  0
 13 34  1  0
 16 35  1  0
 17 36  1  0
 18 37  1  0
 18 38  1  0
 20 39  1  0
 21 40  1  0
 22 41  1  0
 23 42  1  0
 24 43  1  0
M  CHG  2   8   1  15  -1
M  END
>  <UniqueID>  (60) 
59

>  <SMILES>  (60) 
O=C(c1cccs1)[N@H+](CCc1ccc([O-])cc1)Cc1ccccc1

>  <Energy>  (60) 
74.24233787814141

>  <Genealogy>  (60) 
O=C(c1cccs1)[NH+](CCc1ccc([O-])cc1)Cc1ccccc1 (protonated)
O=C(c1cccs1)[N@H+](CCc1ccc([O-])cc1)Cc1ccccc1 (chirality)
O=C(c1cccs1)[N@H+](CCc1ccc([O-])cc1)Cc1ccccc1 (3D coordinates assigned)
O=C(c1cccs1)[N@H+](CCc1ccc([O-])cc1)Cc1ccccc1 (optimized conformer: 74.24233787814141 kcal/mol)

>  <smiles>  (60) 
O=C(c1cccs1)N(CCc1ccc(O)cc1)Cc1ccccc1

>  <score_type>  (60) 
oracle

>  <origin>  (60) 
adg

>  <m_score__min__energy>  (60) 
-9.8699999999999992

>  <m_primary>  (60) 
energy

$$$$
60:0
     RDKit          3D

 70 73  0  0  1  0  0  0  0  0999 V2000
   64.5740   31.0590   51.0030 C   0  0  0  0  0  0  0  0  0  0  0  0
   65.7430   31.9710   50.7860 C   0  0  0  0  0  0  0  0  0  0  0  0
   65.5330   32.9580   49.7150 C   0  0  0  0  0  0  0  0  0  0  0  0
   64.4470   32.8330   48.8150 N   0  0  0  0  0  0  0  0  0  0  0  0
   63.2730   33.5950   48.7000 C   0  0  0  0  0  0  0  0  0  0  0  0
   62.9460   34.5670   49.3760 O   0  0  0  0  0  0  0  0  0  0  0  0
   62.2580   33.2030   47.6190 C   0  0  2  0  0  0  0  0  0  0  0  0
   60.9140   33.5070   48.2770 C   0  0  0  0  0  0  0  0  0  0  0  0
   59.8140   33.6370   47.2920 C   0  0  0  0  0  0  0  0  0  0  0  0
   59.9770   34.3800   46.1390 C   0  0  0  0  0  0  0  0  0  0  0  0
   58.9120   34.4660   45.2510 C   0  0  0  0  0  0  0  0  0  0  0  0
   57.7280   33.8260   45.5200 C   0  0  0  0  0  0  0  0  0  0  0  0
   57.5850   33.0910   46.6730 C   0  0  0  0  0  0  0  0  0  0  0  0
   58.6200   32.9880   47.5670 C   0  0  0  0  0  0  0  0  0  0  0  0
   62.4030   31.8060   47.3780 N   0  0  0  0  0  0  0  0  0  0  0  0
   61.5150   30.8990   47.5190 C   0  0  0  0  0  0  0  0  0  0  0  0
   61.0430   30.2830   46.3790 C   0  0  0  0  0  0  0  0  0  0  0  0
   60.0860   29.3050   46.5290 C   0  0  0  0  0  0  0  0  0  0  0  0
   59.5400   28.6050   45.3260 C   0  0  0  0  0  0  0  0  0  0  0  0
   58.3060   29.2200   44.8280 C   0  0  0  0  0  0  0  0  0  0  0  0
   58.3920   30.4010   44.1220 C   0  0  0  0  0  0  0  0  0  0  0  0
   57.2780   31.0330   43.6280 C   0  0  0  0  0  0  0  0  0  0  0  0
   56.0180   30.5000   43.8220 C   0  0  0  0  0  0  0  0  0  0  0  0
   55.9210   29.3310   44.5200 C   0  0  0  0  0  0  0  0  0  0  0  0
   57.0410   28.6940   45.0190 C   0  0  0  0  0  0  0  0  0  0  0  0
   59.6850   29.0290   47.7780 N   0  0  0  0  0  0  0  0  0  0  0  0
   60.1610   29.6450   48.8730 C   0  0  0  0  0  0  0  0  0  0  0  0
   59.7570   29.3590   50.0620 N   0  0  0  0  0  0  0  0  0  0  0  0
   60.2830   30.0060   51.2200 C   0  0  0  0  0  0  0  0  0  0  0  0
   59.6560   31.3470   51.4900 C   0  0  0  0  0  0  0  0  0  0  0  0
   58.3250   31.4900   51.7960 C   0  0  0  0  0  0  0  0  0  0  0  0
   57.7670   32.7280   52.0430 C   0  0  0  0  0  0  0  0  0  0  0  0
   58.5470   33.8660   51.9860 C   0  0  0  0  0  0  0  0  0  0  0  0
   59.8880   33.7490   51.6800 C   0  0  0  0  0  0  0  0  0  0  0  0
   60.4140   32.5040   51.4400 C   0  0  0  0  0  0  0  0  0  0  0  0
   61.7720   32.4290   51.1340 O   0  0  0  0  0  0  0  0  0  0  0  0
   61.0960   30.6030   48.7560 N   0  0  0  0  0  0  0  0  0  0  0  0
   64.4064   30.9282   52.0823 H   0  0  0  0  0  0  0  0  0  0  0  0
   63.6763   31.4978   50.5430 H   0  0  0  0  0  0  0  0  0  0  0  0
   64.7812   30.0815   50.5430 H   0  0  0  0  0  0  0  0  0  0  0  0
   65.9398   32.5122   51.7232 H   0  0  0  0  0  0  0  0  0  0  0  0
   66.5903   31.3399   50.4797 H   0  0  0  0  0  0  0  0  0  0  0  0
   65.4214   33.9355   50.2070 H   0  0  0  0  0  0  0  0  0  0  0  0
   66.4068   32.8020   49.0653 H   0  0  0  0  0  0  0  0  0  0  0  0
   64.5190   32.0260   48.0970 H   0  0  0  0  0  0  0  0  0  0  0  0
   62.3740   33.7256   46.6580 H   0  0  0  0  0  0  0  0  0  0  0  0
   60.6695   32.6906   48.9726 H   0  0  0  0  0  0  0  0  0  0  0  0
   61.0090   34.4702   48.7996 H   0  0  0  0  0  0  0  0  0  0  0  0
   60.9278   34.8916   45.9288 H   0  0  0  0  0  0  0  0  0  0  0  0
   59.0184   35.0512   44.3257 H   0  0  0  0  0  0  0  0  0  0  0  0
   56.8907   33.9014   44.8106 H   0  0  0  0  0  0  0  0  0  0  0  0
   56.6325   32.5813   46.8802 H   0  0  0  0  0  0  0  0  0  0  0  0
   58.5045   32.3990   48.4888 H   0  0  0  0  0  0  0  0  0  0  0  0
   61.4184   30.5636   45.3839 H   0  0  0  0  0  0  0  0  0  0  0  0
   60.2959   28.6352   44.5274 H   0  0  0  0  0  0  0  0  0  0  0  0
   59.3023   27.5722   45.6206 H   0  0  0  0  0  0  0  0  0  0  0  0
   59.3814   30.8497   43.9496 H   0  0  0  0  0  0  0  0  0  0  0  0
   57.3897   31.9750   43.0711 H   0  0  0  0  0  0  0  0  0  0  0  0
   55.1223   31.0014   43.4268 H   0  0  0  0  0  0  0  0  0  0  0  0
   54.9292   28.8862   44.6890 H   0  0  0  0  0  0  0  0  0  0  0  0
   56.9248   27.7533   45.5772 H   0  0  0  0  0  0  0  0  0  0  0  0
   58.9610   28.2900   47.9040 H   0  0  0  0  0  0  0  0  0  0  0  0
   60.1090   29.3576   52.0914 H   0  0  0  0  0  0  0  0  0  0  0  0
   61.3541   30.1782   51.0383 H   0  0  0  0  0  0  0  0  0  0  0  0
   57.6873   30.5951   51.8455 H   0  0  0  0  0  0  0  0  0  0  0  0
   56.6972   32.8084   52.2861 H   0  0  0  0  0  0  0  0  0  0  0  0
   58.1050   34.8540   52.1821 H   0  0  0  0  0  0  0  0  0  0  0  0
   60.5274   34.6427   51.6291 H   0  0  0  0  0  0  0  0  0  0  0  0
   62.3260   33.2710   50.9740 H   0  0  0  0  0  0  0  0  0  0  0  0
   61.4580   31.0740   49.6070 H   0  0  0  0  0  0  0  0  0  0  0  0
  1  2  1  0
  2  3  1  0
  3  4  1  0
  4  5  1  0
  5  6  2  0
  5  7  1  0
  7  8  1  0
  8  9  1  0
  9 10  2  0
 10 11  1  0
 11 12  2  0
 12 13  1  0
 13 14  2  0
  7 15  1  0
 15 16  2  0
 16 17  1  0
 17 18  2  0
 18 19  1  0
 19 20  1  0
 20 21  2  0
 21 22  1  0
 22 23  2  0
 23 24  1  0
 24 25  2  0
 18 26  1  0
 26 27  1  0
 27 28  2  0
 28 29  1  0
 29 30  1  0
 30 31  2  0
 31 32  1  0
 32 33  2  0
 33 34  1  0
 34 35  2  0
 35 36  1  0
 27 37  1  0
 14  9  1  0
 37 16  1  0
 25 20  1  0
 35 30  1  0
  1 38  1  0
  1 39  1  0
  1 40  1  0
  2 41  1  0
  2 42  1  0
  3 43  1  0
  3 44  1  0
  4 45  1  0
  7 46  1  6
  8 47  1  0
  8 48  1  0
 10 49  1  0
 11 50  1  0
 12 51  1  0
 13 52  1  0
 14 53  1  0
 17 54  1  0
 19 55  1  0
 19 56  1  0
 21 57  1  0
 22 58  1  0
 23 59  1  0
 24 60  1  0
 25 61  1  0
 26 62  1  0
 29 63  1  0
 29 64  1  0
 31 65  1  0
 32 66  1  0
 33 67  1  0
 34 68  1  0
 36 69  1  0
 37 70  1  0
M  END
>  <smiles>  (61) 
CCCNC(=O)C(Cc1ccccc1)N=c1cc(Cc2ccccc2)[nH]c(=NCc2ccccc2O)[nH]1

>  <score_type>  (61) 
oracle

>  <origin>  (61) 
adg

>  <m_score__min__energy>  (61) 
-10.27

>  <m_primary>  (61) 
energy

$$$$
61:0
     RDKit          3D

 26 27  0  0  0  0  0  0  0  0999 V2000
   54.0210   26.7380   46.5670 H   0  0  0  0  0  0  0  0  0  0  0  0
   54.7770   26.3300   45.9720 N   0  0  0  0  0  0  0  0  0  0  0  0
   56.0200   26.6560   46.1370 C   0  0  0  0  0  0  0  0  0  0  0  0
   56.7990   25.9470   46.9940 N   0  0  0  0  0  0  0  0  0  0  0  0
   58.1030   26.2770   47.1570 C   0  0  0  0  0  0  0  0  0  0  0  0
   58.8260   25.6140   47.9460 O   0  0  0  0  0  0  0  0  0  0  0  0
   58.6290   27.3200   46.4710 N   0  0  0  0  0  0  0  0  0  0  0  0
   57.8580   28.0490   45.6240 C   0  0  0  0  0  0  0  0  0  0  0  0
   58.4080   29.0400   44.9790 N   0  0  0  0  0  0  0  0  0  0  0  0
   58.2840   30.4400   45.2700 C   0  0  0  0  0  0  0  0  0  0  0  0
   59.3640   31.1590   45.8130 C   0  0  0  0  0  0  0  0  0  0  0  0
   60.3001   30.6368   46.0601 H   0  0  0  0  0  0  0  0  0  0  0  0
   59.2540   32.5320   46.0400 C   0  0  0  0  0  0  0  0  0  0  0  0
   60.0956   33.0852   46.4824 H   0  0  0  0  0  0  0  0  0  0  0  0
   58.0770   33.2030   45.7060 C   0  0  0  0  0  0  0  0  0  0  0  0
   57.9892   34.2834   45.8931 H   0  0  0  0  0  0  0  0  0  0  0  0
   57.0090   32.5050   45.1340 C   0  0  0  0  0  0  0  0  0  0  0  0
   56.0864   33.0400   44.8647 H   0  0  0  0  0  0  0  0  0  0  0  0
   57.1100   31.1180   44.9010 C   0  0  0  0  0  0  0  0  0  0  0  0
   56.0650   30.3840   44.3160 O   0  0  0  0  0  0  0  0  0  0  0  0
   56.1300   29.7750   43.0320 C   0  0  0  0  0  0  0  0  0  0  0  0
   56.2461   28.6873   43.1476 H   0  0  0  0  0  0  0  0  0  0  0  0
   55.2040   29.9881   42.4778 H   0  0  0  0  0  0  0  0  0  0  0  0
   56.9902   30.1787   42.4778 H   0  0  0  0  0  0  0  0  0  0  0  0
   56.5470   27.7020   45.4460 N   0  0  0  0  0  0  0  0  0  0  0  0
   55.9390   28.2020   44.7590 H   0  0  0  0  0  0  0  0  0  0  0  0
  1  2  1  0
  2  3  2  0
  3  4  1  0
  4  5  1  0
  5  6  2  0
  5  7  1  0
  7  8  1  0
  8  9  2  3
  9 10  1  0
 10 11  2  0
 11 12  1  0
 11 13  1  0
 13 14  1  0
 13 15  2  0
 15 16  1  0
 15 17  1  0
 17 18  1  0
 17 19  2  0
 19 20  1  0
 20 21  1  0
 21 22  1  0
 21 23  1  0
 21 24  1  0
  8 25  1  0
 25 26  1  0
 25  3  1  0
 19 10  1  0
M  CHG  2   4  -1   7  -1
M  END
>  <UniqueID>  (62) 
60

>  <SMILES>  (62) 
[H]/N=c1\[n-]c(=O)[n-]c(=Nc2ccccc2OC)[nH]1

>  <Energy>  (62) 
35.624003741946886

>  <Genealogy>  (62) 
COc1ccccc1N=c1[n-]c(=O)[n-]c(=N)[nH]1 (protonated)
[H]/N=c1\[n-]c(=O)[n-]c(=Nc2ccccc2OC)[nH]1 (cis-trans isomerization)
[H]/N=c1\[n-]c(=O)[n-]c(=Nc2ccccc2OC)[nH]1 (3D coordinates assigned)
[H]/N=c1\[n-]c(=O)[n-]c(=Nc2ccccc2OC)[nH]1 (optimized conformer: 35.624003741946886 kcal/mol)

>  <smiles>  (62) 
COc1ccccc1N=c1[nH]c(=N)[nH]c(=O)[nH]1

>  <score_type>  (62) 
oracle

>  <origin>  (62) 
adg

>  <m_score__min__energy>  (62) 
-10.119999999999999

>  <m_primary>  (62) 
energy

$$$$
62:0
     RDKit          3D

 39 41  0  0  0  0  0  0  0  0999 V2000
   57.0320   21.1090   43.4170 C   0  0  0  0  0  0  0  0  0  0  0  0
   55.9880   22.0200   43.7450 O   0  0  0  0  0  0  0  0  0  0  0  0
   56.1970   23.3070   44.2660 C   0  0  0  0  0  0  0  0  0  0  0  0
   57.2550   24.0670   43.7530 C   0  0  0  0  0  0  0  0  0  0  0  0
   57.5050   25.3550   44.2360 C   0  0  0  0  0  0  0  0  0  0  0  0
   56.6940   25.9030   45.2460 C   0  0  0  0  0  0  0  0  0  0  0  0
   56.9050   27.2230   45.7630 N   0  0  0  0  0  0  0  0  0  0  0  0
   56.8960   28.6780   44.8170 S   0  0  0  0  0  0  0  0  0  0  0  0
   57.2990   28.3410   43.4090 O   0  0  0  0  0  0  0  0  0  0  0  0
   55.4920   29.2130   44.8070 O   0  0  0  0  0  0  0  0  0  0  0  0
   58.0470   29.8710   45.4690 C   0  0  0  0  0  0  0  0  0  0  0  0
   59.2540   29.4820   46.1180 C   0  0  0  0  0  0  0  0  0  0  0  0
   59.6140   28.0360   46.3220 C   0  0  0  0  0  0  0  0  0  0  0  0
   60.1260   30.4390   46.5550 N   0  0  0  0  0  0  0  0  0  0  0  0
   59.8220   31.7500   46.4110 C   0  0  0  0  0  0  0  0  0  0  0  0
   60.7790   33.0440   46.8960 S   0  0  0  0  0  0  0  0  0  0  0  0
   59.6420   34.1780   46.3640 C   0  0  0  0  0  0  0  0  0  0  0  0
   59.8310   35.6570   46.3910 C   0  0  0  0  0  0  0  0  0  0  0  0
   58.5560   33.5090   45.8020 C   0  0  0  0  0  0  0  0  0  0  0  0
   58.6670   32.1520   45.8420 N   0  0  0  0  0  0  0  0  0  0  0  0
   57.7610   31.2510   45.3720 C   0  0  0  0  0  0  0  0  0  0  0  0
   56.6770   31.6530   44.8670 O   0  0  0  0  0  0  0  0  0  0  0  0
   55.6360   25.1430   45.7590 C   0  0  0  0  0  0  0  0  0  0  0  0
   55.3860   23.8540   45.2770 C   0  0  0  0  0  0  0  0  0  0  0  0
   57.4808   20.7173   44.3417 H   0  0  0  0  0  0  0  0  0  0  0  0
   56.6203   20.2762   42.8279 H   0  0  0  0  0  0  0  0  0  0  0  0
   57.8014   21.6297   42.8279 H   0  0  0  0  0  0  0  0  0  0  0  0
   57.8951   23.6471   42.9631 H   0  0  0  0  0  0  0  0  0  0  0  0
   58.3393   25.9421   43.8245 H   0  0  0  0  0  0  0  0  0  0  0  0
   59.6678   27.8200   47.3992 H   0  0  0  0  0  0  0  0  0  0  0  0
   58.8472   27.3983   45.8580 H   0  0  0  0  0  0  0  0  0  0  0  0
   60.5903   27.8322   45.8580 H   0  0  0  0  0  0  0  0  0  0  0  0
   61.0290   30.1730   47.0110 H   0  0  0  0  0  0  0  0  0  0  0  0
   59.8751   36.0020   47.4346 H   0  0  0  0  0  0  0  0  0  0  0  0
   60.7696   35.9161   45.8792 H   0  0  0  0  0  0  0  0  0  0  0  0
   58.9878   36.1438   45.8792 H   0  0  0  0  0  0  0  0  0  0  0  0
   57.6897   34.0286   45.3666 H   0  0  0  0  0  0  0  0  0  0  0  0
   54.9955   25.5634   46.5483 H   0  0  0  0  0  0  0  0  0  0  0  0
   54.5528   23.2662   45.6897 H   0  0  0  0  0  0  0  0  0  0  0  0
  1  2  1  0
  2  3  1  0
  3  4  2  0
  4  5  1  0
  5  6  2  0
  6  7  1  0
  7  8  1  0
  8  9  2  0
  8 10  2  0
  8 11  1  0
 11 12  2  0
 12 13  1  0
 12 14  1  0
 14 15  2  0
 15 16  1  0
 16 17  1  0
 17 18  1  0
 17 19  2  0
 19 20  1  0
 20 21  1  0
 21 22  2  0
  6 23  1  0
 23 24  2  0
 24  3  1  0
 21 11  1  0
 20 15  1  0
  1 25  1  0
  1 26  1  0
  1 27  1  0
  4 28  1  0
  5 29  1  0
 13 30  1  0
 13 31  1  0
 13 32  1  0
 14 33  1  0
 18 34  1  0
 18 35  1  0
 18 36  1  0
 19 37  1  0
 23 38  1  0
 24 39  1  0
M  CHG  2   7  -1  14   1
M  END
>  <UniqueID>  (63) 
61

>  <SMILES>  (63) 
COc1ccc([N-]S(=O)(=O)c2c(C)[nH+]c3sc(C)cn3c2=O)cc1

>  <Energy>  (63) 
79.87826142414208

>  <Genealogy>  (63) 
COc1ccc([N-]S(=O)(=O)c2c(C)[nH+]c3sc(C)cn3c2=O)cc1 (protonated)
COc1ccc([N-]S(=O)(=O)c2c(C)[nH+]c3sc(C)cn3c2=O)cc1 (3D coordinates assigned)
COc1ccc([N-]S(=O)(=O)c2c(C)[nH+]c3sc(C)cn3c2=O)cc1 (optimized conformer: 79.87826142414208 kcal/mol)

>  <smiles>  (63) 
COc1ccc(NS(=O)(=O)c2c(C)nc3sc(C)cn3c2=O)cc1

>  <score_type>  (63) 
oracle

>  <origin>  (63) 
adg

>  <m_score__min__energy>  (63) 
-8.2599999999999998

>  <m_primary>  (63) 
energy

$$$$
63:0
     RDKit          3D

 42 44  0  0  0  0  0  0  0  0999 V2000
   57.0470   29.0780   45.6690 H   0  0  0  0  0  0  0  0  0  0  0  0
   56.6980   30.0260   45.5790 O   0  0  0  0  0  0  0  0  0  0  0  0
   56.9910   30.8290   44.4740 C   0  0  0  0  0  0  0  0  0  0  0  0
   56.7280   30.3420   43.1900 C   0  0  0  0  0  0  0  0  0  0  0  0
   56.2893   29.3415   43.0615 H   0  0  0  0  0  0  0  0  0  0  0  0
   57.0210   31.1230   42.0710 C   0  0  0  0  0  0  0  0  0  0  0  0
   56.8197   30.7428   41.0586 H   0  0  0  0  0  0  0  0  0  0  0  0
   57.5720   32.3910   42.2520 C   0  0  0  0  0  0  0  0  0  0  0  0
   57.8078   33.0173   41.3790 H   0  0  0  0  0  0  0  0  0  0  0  0
   57.8180   32.8540   43.5060 N   0  0  0  0  0  0  0  0  0  0  0  0
   57.5440   32.1150   44.6200 C   0  0  0  0  0  0  0  0  0  0  0  0
   57.7890   32.5820   45.8120 N   0  0  0  0  0  0  0  0  0  0  0  0
   58.8900   32.2450   46.6740 C   0  0  0  0  0  0  0  0  0  0  0  0
   59.5600   33.1500   47.2470 O   0  0  0  0  0  0  0  0  0  0  0  0
   59.2150   30.8230   46.9200 C   0  0  0  0  0  0  0  0  0  0  0  0
   58.8280   30.1980   48.1200 C   0  0  0  0  0  0  0  0  0  0  0  0
   58.3405   30.7874   48.9105 H   0  0  0  0  0  0  0  0  0  0  0  0
   59.0590   28.8330   48.3140 C   0  0  0  0  0  0  0  0  0  0  0  0
   58.7528   28.3548   49.2561 H   0  0  0  0  0  0  0  0  0  0  0  0
   59.6790   28.0700   47.3140 C   0  0  0  0  0  0  0  0  0  0  0  0
   59.8280   26.5800   47.4690 C   0  0  0  0  0  0  0  0  0  0  0  0
   60.8883   26.3401   47.6370 H   0  0  0  0  0  0  0  0  0  0  0  0
   59.2188   26.2541   48.3249 H   0  0  0  0  0  0  0  0  0  0  0  0
   59.3620   25.8780   46.2700 N   0  0  0  0  0  0  0  0  0  0  0  0
   57.8120   26.4730   45.7390 S   0  0  0  0  0  0  0  0  0  0  0  0
   58.0080   27.4170   44.5850 O   0  0  0  0  0  0  0  0  0  0  0  0
   57.1690   27.2290   46.8670 O   0  0  0  0  0  0  0  0  0  0  0  0
   56.7570   25.1220   45.3000 C   0  0  0  0  0  0  0  0  0  0  0  0
   57.3410   23.9650   44.7620 C   0  0  0  0  0  0  0  0  0  0  0  0
   58.4356   23.8947   44.6795 H   0  0  0  0  0  0  0  0  0  0  0  0
   56.5440   22.9010   44.3300 C   0  0  0  0  0  0  0  0  0  0  0  0
   57.2840   21.4830   43.6110 Cl  0  0  0  0  0  0  0  0  0  0  0  0
   55.1540   22.9800   44.4440 C   0  0  0  0  0  0  0  0  0  0  0  0
   54.5268   22.1453   44.0977 H   0  0  0  0  0  0  0  0  0  0  0  0
   54.5580   24.1170   44.9970 C   0  0  0  0  0  0  0  0  0  0  0  0
   52.8080   24.1970   45.1190 Cl  0  0  0  0  0  0  0  0  0  0  0  0
   55.3540   25.1890   45.4300 C   0  0  0  0  0  0  0  0  0  0  0  0
   54.7430   26.3140   45.9760 O   0  0  0  0  0  0  0  0  0  0  0  0
   60.1190   28.7020   46.1410 C   0  0  0  0  0  0  0  0  0  0  0  0
   60.6533   28.1218   45.3743 H   0  0  0  0  0  0  0  0  0  0  0  0
   59.8820   30.0640   45.9420 C   0  0  0  0  0  0  0  0  0  0  0  0
   60.2197   30.5467   45.0130 H   0  0  0  0  0  0  0  0  0  0  0  0
  1  2  1  0
  2  3  1  0
  3  4  2  0
  4  5  1  0
  4  6  1  0
  6  7  1  0
  6  8  2  0
  8  9  1  0
  8 10  1  0
 10 11  1  0
 11 12  2  0
 12 13  1  0
 13 14  2  0
 13 15  1  0
 15 16  2  0
 16 17  1  0
 16 18  1  0
 18 19  1  0
 18 20  2  0
 20 21  1  0
 21 22  1  0
 21 23  1  0
 21 24  1  0
 24 25  1  0
 25 26  2  0
 25 27  2  0
 25 28  1  0
 28 29  2  0
 29 30  1  0
 29 31  1  0
 31 32  1  0
 31 33  2  0
 33 34  1  0
 33 35  1  0
 35 36  1  0
 35 37  2  0
 37 38  1  0
 20 39  1  0
 39 40  1  0
 39 41  2  0
 41 42  1  0
 11  3  1  0
 41 15  1  0
 37 28  1  0
M  CHG  3  10  -1  24  -1  38  -1
M  END
>  <UniqueID>  (64) 
62

>  <SMILES>  (64) 
O=C(/N=c1\[n-]cccc1O)c1ccc(C[N-]S(=O)(=O)c2cc(Cl)cc(Cl)c2[O-])cc1

>  <Energy>  (64) 
45.32845145105884

>  <Genealogy>  (64) 
O=C(N=c1[n-]cccc1O)c1ccc(C[N-]S(=O)(=O)c2cc(Cl)cc(Cl)c2[O-])cc1 (protonated)
O=C(/N=c1\[n-]cccc1O)c1ccc(C[N-]S(=O)(=O)c2cc(Cl)cc(Cl)c2[O-])cc1 (cis-trans isomerization)
O=C(/N=c1\[n-]cccc1O)c1ccc(C[N-]S(=O)(=O)c2cc(Cl)cc(Cl)c2[O-])cc1 (3D coordinates assigned)
O=C(/N=c1\[n-]cccc1O)c1ccc(C[N-]S(=O)(=O)c2cc(Cl)cc(Cl)c2[O-])cc1 (optimized conformer: 45.32845145105884 kcal/mol)

>  <smiles>  (64) 
O=C(N=c1[nH]cccc1O)c1ccc(CNS(=O)(=O)c2cc(Cl)cc(Cl)c2O)cc1

>  <score_type>  (64) 
oracle

>  <origin>  (64) 
adg

>  <m_score__min__energy>  (64) 
-15.550000000000001

>  <m_primary>  (64) 
energy

$$$$
64:0
     RDKit          3D

 45 47  0  0  0  0  0  0  0  0999 V2000
   57.5740   31.4620   50.9680 C   0  0  0  0  0  0  0  0  0  0  0  0
   58.4950   32.3740   50.2270 C   0  0  0  0  0  0  0  0  0  0  0  0
   59.2250   33.3830   50.8520 C   0  0  0  0  0  0  0  0  0  0  0  0
   60.0780   34.2090   49.6630 S   0  0  0  0  0  0  0  0  0  0  0  0
   59.4840   33.2510   48.4070 C   0  0  0  0  0  0  0  0  0  0  0  0
   59.7850   33.4260   47.0060 N   0  0  0  0  0  0  0  0  0  0  0  0
   60.8950   32.6680   46.3990 C   0  0  0  0  0  0  0  0  0  0  0  0
   62.0640   32.5370   47.3510 C   0  0  0  0  0  0  0  0  0  0  0  0
   62.0490   31.5420   48.3450 C   0  0  0  0  0  0  0  0  0  0  0  0
   63.1230   31.4090   49.2300 C   0  0  0  0  0  0  0  0  0  0  0  0
   64.2150   32.2740   49.1400 C   0  0  0  0  0  0  0  0  0  0  0  0
   64.2300   33.2820   48.1730 C   0  0  0  0  0  0  0  0  0  0  0  0
   63.1580   33.4240   47.2860 C   0  0  0  0  0  0  0  0  0  0  0  0
   63.1900   34.4220   46.3690 F   0  0  0  0  0  0  0  0  0  0  0  0
   58.9950   34.3290   46.2000 C   0  0  0  0  0  0  0  0  0  0  0  0
   59.5420   35.3380   45.6730 O   0  0  0  0  0  0  0  0  0  0  0  0
   57.5340   34.0660   45.9470 C   0  0  0  0  0  0  0  0  0  0  0  0
   57.1760   32.6920   46.3170 N   0  0  0  0  0  0  0  0  0  0  0  0
   57.4830   31.6230   44.9820 S   0  0  0  0  0  0  0  0  0  0  0  0
   56.1870   31.0220   44.5130 O   0  0  0  0  0  0  0  0  0  0  0  0
   58.1040   32.3960   43.8530 O   0  0  0  0  0  0  0  0  0  0  0  0
   58.5810   30.3450   45.4780 C   0  0  0  0  0  0  0  0  0  0  0  0
   59.1490   29.4920   44.5230 C   0  0  0  0  0  0  0  0  0  0  0  0
   60.0440   28.5030   44.9350 C   0  0  0  0  0  0  0  0  0  0  0  0
   60.3600   28.3740   46.2890 C   0  0  0  0  0  0  0  0  0  0  0  0
   59.7750   29.2440   47.2130 C   0  0  0  0  0  0  0  0  0  0  0  0
   58.9080   30.2030   46.7920 N   0  0  0  0  0  0  0  0  0  0  0  0
   58.6280   32.3130   48.8750 N   0  0  0  0  0  0  0  0  0  0  0  0
   57.7136   31.6002   52.0503 H   0  0  0  0  0  0  0  0  0  0  0  0
   56.5330   31.6951   50.6998 H   0  0  0  0  0  0  0  0  0  0  0  0
   57.7969   30.4187   50.6998 H   0  0  0  0  0  0  0  0  0  0  0  0
   59.2402   33.5999   51.9303 H   0  0  0  0  0  0  0  0  0  0  0  0
   60.5372   31.6627   46.1320 H   0  0  0  0  0  0  0  0  0  0  0  0
   61.2367   33.2123   45.5063 H   0  0  0  0  0  0  0  0  0  0  0  0
   61.1866   30.8641   48.4266 H   0  0  0  0  0  0  0  0  0  0  0  0
   63.1076   30.6218   49.9982 H   0  0  0  0  0  0  0  0  0  0  0  0
   65.0638   32.1618   49.8306 H   0  0  0  0  0  0  0  0  0  0  0  0
   65.0884   33.9668   48.1089 H   0  0  0  0  0  0  0  0  0  0  0  0
   56.9333   34.7677   46.5444 H   0  0  0  0  0  0  0  0  0  0  0  0
   57.3334   34.2040   44.8743 H   0  0  0  0  0  0  0  0  0  0  0  0
   57.7980   32.3930   47.1040 H   0  0  0  0  0  0  0  0  0  0  0  0
   58.8923   29.6004   43.4589 H   0  0  0  0  0  0  0  0  0  0  0  0
   60.4988   27.8276   44.1954 H   0  0  0  0  0  0  0  0  0  0  0  0
   61.0617   27.5962   46.6246 H   0  0  0  0  0  0  0  0  0  0  0  0
   60.0163   29.1528   48.2823 H   0  0  0  0  0  0  0  0  0  0  0  0
  1  2  1  0
  2  3  2  0
  3  4  1  0
  4  5  1  0
  5  6  1  0
  6  7  1  0
  7  8  1  0
  8  9  2  0
  9 10  1  0
 10 11  2  0
 11 12  1  0
 12 13  2  0
 13 14  1  0
  6 15  1  0
 15 16  2  0
 15 17  1  0
 17 18  1  0
 18 19  1  0
 19 20  2  0
 19 21  2  0
 19 22  1  0
 22 23  2  0
 23 24  1  0
 24 25  2  0
 25 26  1  0
 26 27  2  0
  5 28  2  0
 28  2  1  0
 13  8  1  0
 27 22  1  0
  1 29  1  0
  1 30  1  0
  1 31  1  0
  3 32  1  0
  7 33  1  0
  7 34  1  0
  9 35  1  0
 10 36  1  0
 11 37  1  0
 12 38  1  0
 17 39  1  0
 17 40  1  0
 18 41  1  0
 23 42  1  0
 24 43  1  0
 25 44  1  0
 26 45  1  0
M  END
>  <UniqueID>  (65) 
63

>  <SMILES>  (65) 
Cc1csc(N(Cc2ccccc2F)C(=O)CNS(=O)(=O)c2ccccn2)n1

>  <Energy>  (65) 
75.64707518205458

>  <Genealogy>  (65) 
Cc1csc(N(Cc2ccccc2F)C(=O)CNS(=O)(=O)c2ccccn2)n1 (3D coordinates assigned)
Cc1csc(N(Cc2ccccc2F)C(=O)CNS(=O)(=O)c2ccccn2)n1 (optimized conformer: 75.64707518205458 kcal/mol)

>  <smiles>  (65) 
Cc1csc(N(Cc2ccccc2F)C(=O)CNS(=O)(=O)c2ccccn2)n1

>  <score_type>  (65) 
oracle

>  <origin>  (65) 
adg

>  <m_score__min__energy>  (65) 
-8.8200000000000003

>  <m_primary>  (65) 
energy

$$$$
65:0
     RDKit          3D

 58 61  0  0  0  0  0  0  0  0999 V2000
   61.2166   30.2038   47.0779 H   0  0  0  0  0  0  0  0  0  0  0  0
   60.3880   29.9050   46.4190 C   0  0  0  0  0  0  0  0  0  0  0  0
   60.2824   28.8546   46.1101 H   0  0  0  0  0  0  0  0  0  0  0  0
   59.5060   30.8220   45.9920 C   0  0  0  0  0  0  0  0  0  0  0  0
   58.3940   30.6250   45.1530 C   0  0  0  0  0  0  0  0  0  0  0  0
   57.9780   29.5390   44.4720 C   0  0  0  0  0  0  0  0  0  0  0  0
   58.0697   29.5667   43.3762 H   0  0  0  0  0  0  0  0  0  0  0  0
   57.4100   28.3160   45.0710 C   0  0  0  0  0  0  0  0  0  0  0  0
   56.0260   28.1810   45.2720 C   0  0  0  0  0  0  0  0  0  0  0  0
   55.1490   29.1830   44.8740 O   0  0  0  0  0  0  0  0  0  0  0  0
   55.5340   27.0610   45.8630 N   0  0  0  0  0  0  0  0  0  0  0  0
   56.3620   26.0690   46.2820 C   0  0  0  0  0  0  0  0  0  0  0  0
   55.8830   25.0390   46.8240 O   0  0  0  0  0  0  0  0  0  0  0  0
   57.7050   26.1900   46.1240 N   0  0  0  0  0  0  0  0  0  0  0  0
   58.2460   27.2900   45.5380 C   0  0  0  0  0  0  0  0  0  0  0  0
   59.4960   27.3730   45.4120 O   0  0  0  0  0  0  0  0  0  0  0  0
   57.7240   31.8380   45.1060 C   0  0  0  0  0  0  0  0  0  0  0  0
   56.7889   32.0491   44.5666 H   0  0  0  0  0  0  0  0  0  0  0  0
   58.4530   32.7290   45.8640 C   0  0  0  0  0  0  0  0  0  0  0  0
   58.0980   34.1680   46.0810 C   0  0  0  0  0  0  0  0  0  0  0  0
   58.0471   34.3744   47.1603 H   0  0  0  0  0  0  0  0  0  0  0  0
   58.8651   34.8083   45.6210 H   0  0  0  0  0  0  0  0  0  0  0  0
   57.1211   34.3781   45.6210 H   0  0  0  0  0  0  0  0  0  0  0  0
   59.5280   32.1160   46.4010 N   0  0  0  0  0  0  0  0  0  0  0  0
   60.5020   32.7420   47.2540 C   0  0  0  0  0  0  0  0  0  0  0  0
   61.7700   33.0270   46.7250 C   0  0  0  0  0  0  0  0  0  0  0  0
   61.9836   32.8022   45.6696 H   0  0  0  0  0  0  0  0  0  0  0  0
   62.7620   33.5930   47.5260 C   0  0  0  0  0  0  0  0  0  0  0  0
   63.7519   33.8152   47.1008 H   0  0  0  0  0  0  0  0  0  0  0  0
   62.4990   33.8770   48.8650 C   0  0  0  0  0  0  0  0  0  0  0  0
   63.2840   34.3177   49.4971 H   0  0  0  0  0  0  0  0  0  0  0  0
   61.2400   33.6030   49.4060 C   0  0  0  0  0  0  0  0  0  0  0  0
   61.0422   33.8292   50.4642 H   0  0  0  0  0  0  0  0  0  0  0  0
   60.2220   33.0410   48.6130 C   0  0  0  0  0  0  0  0  0  0  0  0
   58.8890   32.7900   49.2210 C   0  0  0  0  0  0  0  0  0  0  0  0
   57.9460   32.3200   48.5290 O   0  0  0  0  0  0  0  0  0  0  0  0
   58.6640   33.1030   50.5980 N   0  0  0  0  0  0  0  0  0  0  0  0
   58.6310   32.0920   51.6470 C   0  0  0  0  0  0  0  0  0  0  0  0
   59.6435   31.6885   51.7956 H   0  0  0  0  0  0  0  0  0  0  0  0
   58.2711   32.5518   52.5792 H   0  0  0  0  0  0  0  0  0  0  0  0
   57.6850   30.9540   51.2510 C   0  0  0  0  0  0  0  0  0  0  0  0
   56.9917   30.7623   52.0833 H   0  0  0  0  0  0  0  0  0  0  0  0
   57.1426   31.2621   50.3450 H   0  0  0  0  0  0  0  0  0  0  0  0
   58.4190   29.7060   50.9430 N   0  0  0  0  0  0  0  0  0  0  0  0
   59.7240   29.6560   51.6510 C   0  0  0  0  0  0  0  0  0  0  0  0
   59.6880   30.3429   52.5094 H   0  0  0  0  0  0  0  0  0  0  0  0
   59.8929   28.6186   51.9756 H   0  0  0  0  0  0  0  0  0  0  0  0
   60.8930   30.0620   50.7410 C   0  0  0  0  0  0  0  0  0  0  0  0
   60.7280   31.0903   50.3871 H   0  0  0  0  0  0  0  0  0  0  0  0
   61.8221   29.9888   51.3254 H   0  0  0  0  0  0  0  0  0  0  0  0
   61.0150   29.1690   49.5730 N   0  0  0  0  0  0  0  0  0  0  0  0
   61.4160   29.7250   48.7810 H   0  0  0  0  0  0  0  0  0  0  0  0
   59.7340   28.5850   49.1350 C   0  0  0  0  0  0  0  0  0  0  0  0
   59.7651   28.4380   48.0453 H   0  0  0  0  0  0  0  0  0  0  0  0
   59.5989   27.6291   49.6623 H   0  0  0  0  0  0  0  0  0  0  0  0
   58.5420   29.4880   49.4790 C   0  0  0  0  0  0  0  0  0  0  0  0
   58.6782   30.4611   48.9844 H   0  0  0  0  0  0  0  0  0  0  0  0
   57.6249   28.9913   49.1292 H   0  0  0  0  0  0  0  0  0  0  0  0
  1  2  1  0
  2  3  1  0
  2  4  2  0
  4  5  1  0
  5  6  2  0
  6  7  1  0
  6  8  1  0
  8  9  2  0
  9 10  1  0
  9 11  1  0
 11 12  1  0
 12 13  2  0
 12 14  1  0
 14 15  1  0
 15 16  2  0
  5 17  1  0
 17 18  1  0
 17 19  2  0
 19 20  1  0
 20 21  1  0
 20 22  1  0
 20 23  1  0
 19 24  1  0
 24 25  1  0
 25 26  2  0
 26 27  1  0
 26 28  1  0
 28 29  1  0
 28 30  2  0
 30 31  1  0
 30 32  1  0
 32 33  1  0
 32 34  2  0
 34 35  1  0
 35 36  2  0
 35 37  1  0
 37 38  1  0
 38 39  1  0
 38 40  1  0
 38 41  1  0
 41 42  1  0
 41 43  1  0
 41 44  1  0
 44 45  1  0
 45 46  1  0
 45 47  1  0
 45 48  1  0
 48 49  1  0
 48 50  1  0
 48 51  1  0
 51 52  1  0
 51 53  1  0
 53 54  1  0
 53 55  1  0
 53 56  1  0
 56 57  1  0
 56 58  1  0
 24  4  1  0
 34 25  1  0
 56 44  1  0
 15  8  1  0
M  CHG  4  10  -1  11  -1  14  -1  37  -1
M  END
>  <UniqueID>  (66) 
64

>  <SMILES>  (66) 
C=c1/c(=C\c2c([O-])[n-]c(=O)[n-]c2=O)cc(C)n1-c1ccccc1C(=O)[N-]CCN1CCNCC1

>  <Energy>  (66) 
120.02673890688139

>  <Genealogy>  (66) 
C=c1c(=Cc2c([O-])[n-]c(=O)[n-]c2=O)cc(C)n1-c1ccccc1C(=O)[N-]CCN1CCNCC1 (protonated)
C=c1/c(=C\c2c([O-])[n-]c(=O)[n-]c2=O)cc(C)n1-c1ccccc1C(=O)[N-]CCN1CCNCC1 (cis-trans isomerization)
C=c1/c(=C\c2c([O-])[n-]c(=O)[n-]c2=O)cc(C)n1-c1ccccc1C(=O)[N-]CCN1CCNCC1 (3D coordinates assigned)
C=c1/c(=C\c2c([O-])[n-]c(=O)[n-]c2=O)cc(C)n1-c1ccccc1C(=O)[N-]CCN1CCNCC1 (nonaromatic ring conformer: 120.02673890688139 kcal/mol)

>  <smiles>  (66) 
C=c1c(=Cc2c(O)[nH]c(=O)[nH]c2=O)cc(C)n1-c1ccccc1C(=O)NCCN1CCNCC1

>  <score_type>  (66) 
oracle

>  <origin>  (66) 
adg

>  <m_score__min__energy>  (66) 
-17.98

>  <m_primary>  (66) 
energy

$$$$
66:0
     RDKit          3D

 36 38  0  0  0  0  0  0  0  0999 V2000
   59.6480   35.7210   46.7090 C   0  0  0  0  0  0  0  0  0  0  0  0
   59.2640   34.3510   46.2340 C   0  0  0  0  0  0  0  0  0  0  0  0
   59.2340   33.2740   47.1310 C   0  0  0  0  0  0  0  0  0  0  0  0
   58.8410   32.0050   46.6950 C   0  0  0  0  0  0  0  0  0  0  0  0
   58.4460   31.8020   45.3650 C   0  0  0  0  0  0  0  0  0  0  0  0
   58.0650   30.4880   44.9260 N   0  0  0  0  0  0  0  0  0  0  0  0
   57.1080   30.2680   44.0300 N   0  0  0  0  0  0  0  0  0  0  0  0
   56.9890   28.9320   43.8470 C   0  0  0  0  0  0  0  0  0  0  0  0
   57.9150   28.2970   44.6510 C   0  0  0  0  0  0  0  0  0  0  0  0
   58.2370   26.9460   44.8250 C   0  0  0  0  0  0  0  0  0  0  0  0
   57.4870   25.8570   44.1060 C   0  0  0  0  0  0  0  0  0  0  0  0
   56.8100   24.9900   45.0630 N   0  0  0  0  0  0  0  0  0  0  0  0
   55.9960   25.4750   46.1360 C   0  0  0  0  0  0  0  0  0  0  0  0
   55.3030   26.7120   45.9940 N   0  0  0  0  0  0  0  0  0  0  0  0
   55.8840   24.8140   47.2040 O   0  0  0  0  0  0  0  0  0  0  0  0
   59.2890   26.6460   45.7170 C   0  0  0  0  0  0  0  0  0  0  0  0
   59.9880   27.6790   46.3790 C   0  0  0  0  0  0  0  0  0  0  0  0
   59.6400   29.0260   46.1730 C   0  0  0  0  0  0  0  0  0  0  0  0
   58.5730   29.2980   45.3110 C   0  0  0  0  0  0  0  0  0  0  0  0
   58.4800   32.8810   44.4670 C   0  0  0  0  0  0  0  0  0  0  0  0
   58.8730   34.1500   44.9020 C   0  0  0  0  0  0  0  0  0  0  0  0
   59.6532   35.7397   47.8088 H   0  0  0  0  0  0  0  0  0  0  0  0
   60.6510   35.9716   46.3333 H   0  0  0  0  0  0  0  0  0  0  0  0
   58.9214   36.4564   46.3333 H   0  0  0  0  0  0  0  0  0  0  0  0
   59.5207   33.4279   48.1818 H   0  0  0  0  0  0  0  0  0  0  0  0
   58.8417   31.1605   47.3998 H   0  0  0  0  0  0  0  0  0  0  0  0
   56.2756   28.4362   43.1722 H   0  0  0  0  0  0  0  0  0  0  0  0
   56.7410   26.3112   43.4373 H   0  0  0  0  0  0  0  0  0  0  0  0
   58.2009   25.2566   43.5230 H   0  0  0  0  0  0  0  0  0  0  0  0
   55.3900   27.2660   45.1130 H   0  0  0  0  0  0  0  0  0  0  0  0
   54.7060   27.0760   46.7680 H   0  0  0  0  0  0  0  0  0  0  0  0
   59.5670   25.5973   45.8982 H   0  0  0  0  0  0  0  0  0  0  0  0
   60.8126   27.4278   47.0623 H   0  0  0  0  0  0  0  0  0  0  0  0
   60.1885   29.8379   46.6729 H   0  0  0  0  0  0  0  0  0  0  0  0
   58.1958   32.7268   43.4156 H   0  0  0  0  0  0  0  0  0  0  0  0
   58.8756   34.9943   44.1969 H   0  0  0  0  0  0  0  0  0  0  0  0
  1  2  1  0
  2  3  2  0
  3  4  1  0
  4  5  2  0
  5  6  1  0
  6  7  1  0
  7  8  2  0
  8  9  1  0
  9 10  2  0
 10 11  1  0
 11 12  1  0
 12 13  1  0
 13 14  1  0
 13 15  2  0
 10 16  1  0
 16 17  2  0
 17 18  1  0
 18 19  2  0
  5 20  1  0
 20 21  2  0
 21  2  1  0
 19  6  1  0
 19  9  1  0
  1 22  1  0
  1 23  1  0
  1 24  1  0
  3 25  1  0
  4 26  1  0
  8 27  1  0
 11 28  1  0
 11 29  1  0
 14 30  1  0
 14 31  1  0
 16 32  1  0
 17 33  1  0
 18 34  1  0
 20 35  1  0
 21 36  1  0
M  CHG  1  12  -1
M  END
>  <UniqueID>  (67) 
65

>  <SMILES>  (67) 
Cc1ccc(-n2ncc3c(C[N-]C(N)=O)cccc32)cc1

>  <Energy>  (67) 
77.51799010585198

>  <Genealogy>  (67) 
Cc1ccc(-n2ncc3c(C[N-]C(N)=O)cccc32)cc1 (protonated)
Cc1ccc(-n2ncc3c(C[N-]C(N)=O)cccc32)cc1 (3D coordinates assigned)
Cc1ccc(-n2ncc3c(C[N-]C(N)=O)cccc32)cc1 (optimized conformer: 77.51799010585198 kcal/mol)

>  <smiles>  (67) 
Cc1ccc(-n2ncc3c(CNC(N)=O)cccc32)cc1

>  <score_type>  (67) 
oracle

>  <origin>  (67) 
adg

>  <m_score__min__energy>  (67) 
-10.220000000000001

>  <m_primary>  (67) 
energy

$$$$
67:0
     RDKit          3D

 34 36  0  0  0  0  0  0  0  0999 V2000
   55.1310   24.5390   46.1000 C   0  0  0  0  0  0  0  0  0  0  0  0
   56.1740   25.6060   45.9430 C   0  0  0  0  0  0  0  0  0  0  0  0
   57.5300   25.2820   46.0740 C   0  0  0  0  0  0  0  0  0  0  0  0
   58.4960   26.2680   45.8920 C   0  0  0  0  0  0  0  0  0  0  0  0
   58.1090   27.5720   45.5690 C   0  0  0  0  0  0  0  0  0  0  0  0
   59.0660   28.5770   45.3790 C   0  0  0  0  0  0  0  0  0  0  0  0
   58.6670   29.8720   45.0500 C   0  0  0  0  0  0  0  0  0  0  0  0
   57.3060   30.1880   44.9120 C   0  0  0  0  0  0  0  0  0  0  0  0
   56.9070   31.5890   44.5190 C   0  0  0  0  0  0  0  0  0  0  0  0
   57.7770   32.5990   45.2210 C   0  0  0  0  0  0  0  0  0  0  0  0
   58.5090   33.5390   44.4770 C   0  0  0  0  0  0  0  0  0  0  0  0
   59.2920   34.4970   45.1290 C   0  0  0  0  0  0  0  0  0  0  0  0
   59.3460   34.5260   46.5260 C   0  0  0  0  0  0  0  0  0  0  0  0
   58.6140   33.5990   47.2730 C   0  0  0  0  0  0  0  0  0  0  0  0
   57.8290   32.6390   46.6250 C   0  0  0  0  0  0  0  0  0  0  0  0
   56.3380   29.1800   45.0930 C   0  0  0  0  0  0  0  0  0  0  0  0
   54.9860   29.4810   44.9430 O   0  0  0  0  0  0  0  0  0  0  0  0
   56.7340   27.8690   45.4260 C   0  0  0  0  0  0  0  0  0  0  0  0
   55.8080   26.8780   45.6100 N   0  0  0  0  0  0  0  0  0  0  0  0
   54.9520   24.3558   47.1698 H   0  0  0  0  0  0  0  0  0  0  0  0
   54.1959   24.8672   45.6227 H   0  0  0  0  0  0  0  0  0  0  0  0
   55.4804   23.6116   45.6227 H   0  0  0  0  0  0  0  0  0  0  0  0
   57.8307   24.2528   46.3197 H   0  0  0  0  0  0  0  0  0  0  0  0
   59.5623   26.0213   46.0022 H   0  0  0  0  0  0  0  0  0  0  0  0
   60.1353   28.3440   45.4896 H   0  0  0  0  0  0  0  0  0  0  0  0
   59.4259   30.6535   44.8971 H   0  0  0  0  0  0  0  0  0  0  0  0
   57.0205   31.7066   43.4312 H   0  0  0  0  0  0  0  0  0  0  0  0
   55.8595   31.7567   44.8099 H   0  0  0  0  0  0  0  0  0  0  0  0
   58.4663   33.5216   43.3780 H   0  0  0  0  0  0  0  0  0  0  0  0
   59.8663   35.2288   44.5419 H   0  0  0  0  0  0  0  0  0  0  0  0
   59.9646   35.2784   47.0370 H   0  0  0  0  0  0  0  0  0  0  0  0
   58.6551   33.6241   48.3719 H   0  0  0  0  0  0  0  0  0  0  0  0
   57.2509   31.9135   47.2161 H   0  0  0  0  0  0  0  0  0  0  0  0
   54.7910   27.0900   45.4940 H   0  0  0  0  0  0  0  0  0  0  0  0
  1  2  1  0
  2  3  2  0
  3  4  1  0
  4  5  2  0
  5  6  1  0
  6  7  2  0
  7  8  1  0
  8  9  1  0
  9 10  1  0
 10 11  2  0
 11 12  1  0
 12 13  2  0
 13 14  1  0
 14 15  2  0
  8 16  2  0
 16 17  1  0
 16 18  1  0
 18 19  2  0
 19  2  1  0
 18  5  1  0
 15 10  1  0
  1 20  1  0
  1 21  1  0
  1 22  1  0
  3 23  1  0
  4 24  1  0
  6 25  1  0
  7 26  1  0
  9 27  1  0
  9 28  1  0
 11 29  1  0
 12 30  1  0
 13 31  1  0
 14 32  1  0
 15 33  1  0
 19 34  1  0
M  CHG  2  17  -1  19   1
M  END
>  <UniqueID>  (68) 
66

>  <SMILES>  (68) 
Cc1ccc2ccc(Cc3ccccc3)c([O-])c2[nH+]1

>  <Energy>  (68) 
39.064112725549485

>  <Genealogy>  (68) 
Cc1ccc2ccc(Cc3ccccc3)c([O-])c2[nH+]1 (protonated)
Cc1ccc2ccc(Cc3ccccc3)c([O-])c2[nH+]1 (3D coordinates assigned)
Cc1ccc2ccc(Cc3ccccc3)c([O-])c2[nH+]1 (optimized conformer: 39.064112725549485 kcal/mol)

>  <smiles>  (68) 
Cc1ccc2ccc(Cc3ccccc3)c(O)c2n1

>  <score_type>  (68) 
oracle

>  <origin>  (68) 
adg

>  <m_score__min__energy>  (68) 
-9.1300000000000008

>  <m_primary>  (68) 
energy

$$$$
68:0
     RDKit          3D

 49 51  0  0  0  0  0  0  0  0999 V2000
   63.2120   33.0630   46.7650 C   0  0  0  0  0  0  0  0  0  0  0  0
   63.1080   33.6600   48.1640 C   0  0  0  0  0  0  0  0  0  0  0  0
   61.7250   33.5880   48.6570 N   0  0  0  0  0  0  0  0  0  0  0  0
   61.3720   34.0880   49.9940 C   0  0  0  0  0  0  0  0  0  0  0  0
   59.9130   33.7880   50.3240 C   0  0  0  0  0  0  0  0  0  0  0  0
   60.6940   33.1210   47.7720 C   0  0  0  0  0  0  0  0  0  0  0  0
   60.1110   34.0210   46.8690 C   0  0  0  0  0  0  0  0  0  0  0  0
   59.0420   33.6220   46.0490 C   0  0  0  0  0  0  0  0  0  0  0  0
   58.4250   34.5050   45.1480 O   0  0  0  0  0  0  0  0  0  0  0  0
   57.0220   34.5650   44.9130 C   0  0  0  0  0  0  0  0  0  0  0  0
   58.5600   32.3070   46.1410 C   0  0  0  0  0  0  0  0  0  0  0  0
   57.3700   31.9260   45.4530 N   0  0  0  0  0  0  0  0  0  0  0  0
   57.4350   30.7670   44.1630 S   0  0  0  0  0  0  0  0  0  0  0  0
   56.2390   30.9450   43.2670 O   0  0  0  0  0  0  0  0  0  0  0  0
   58.6890   30.9830   43.3590 O   0  0  0  0  0  0  0  0  0  0  0  0
   57.4530   29.1350   44.8320 C   0  0  0  0  0  0  0  0  0  0  0  0
   58.6470   28.3700   44.8460 C   0  0  0  0  0  0  0  0  0  0  0  0
   58.6260   27.0230   45.2510 C   0  0  0  0  0  0  0  0  0  0  0  0
   57.4020   26.4790   45.6300 C   0  0  0  0  0  0  0  0  0  0  0  0
   57.1450   25.2180   46.0120 N   0  0  0  0  0  0  0  0  0  0  0  0
   55.8060   25.2560   46.2310 C   0  0  0  0  0  0  0  0  0  0  0  0
   55.1560   24.2480   46.6090 O   0  0  0  0  0  0  0  0  0  0  0  0
   55.2160   26.4570   46.0080 N   0  0  0  0  0  0  0  0  0  0  0  0
   56.2570   27.2120   45.6300 C   0  0  0  0  0  0  0  0  0  0  0  0
   56.2390   28.5490   45.2440 C   0  0  0  0  0  0  0  0  0  0  0  0
   59.1710   31.3920   47.0040 C   0  0  0  0  0  0  0  0  0  0  0  0
   60.2270   31.7900   47.8380 C   0  0  0  0  0  0  0  0  0  0  0  0
   60.8670   30.7770   48.7480 C   0  0  0  0  0  0  0  0  0  0  0  0
   63.4003   31.9819   46.8408 H   0  0  0  0  0  0  0  0  0  0  0  0
   62.2705   33.2340   46.2224 H   0  0  0  0  0  0  0  0  0  0  0  0
   64.0402   33.5423   46.2224 H   0  0  0  0  0  0  0  0  0  0  0  0
   63.7643   33.0992   48.8458 H   0  0  0  0  0  0  0  0  0  0  0  0
   63.4146   34.7156   48.1223 H   0  0  0  0  0  0  0  0  0  0  0  0
   62.0167   33.6022   50.7412 H   0  0  0  0  0  0  0  0  0  0  0  0
   61.5170   35.1783   50.0092 H   0  0  0  0  0  0  0  0  0  0  0  0
   59.7821   33.7611   51.4159 H   0  0  0  0  0  0  0  0  0  0  0  0
   59.2716   34.5730   49.8970 H   0  0  0  0  0  0  0  0  0  0  0  0
   59.6334   32.8136   49.8970 H   0  0  0  0  0  0  0  0  0  0  0  0
   60.4943   35.0499   46.8017 H   0  0  0  0  0  0  0  0  0  0  0  0
   56.4897   34.5878   45.8753 H   0  0  0  0  0  0  0  0  0  0  0  0
   56.7846   35.4741   44.3410 H   0  0  0  0  0  0  0  0  0  0  0  0
   56.7078   33.6795   44.3410 H   0  0  0  0  0  0  0  0  0  0  0  0
   59.5961   28.8331   44.5381 H   0  0  0  0  0  0  0  0  0  0  0  0
   59.5458   26.4199   45.2676 H   0  0  0  0  0  0  0  0  0  0  0  0
   55.3056   29.1309   45.2599 H   0  0  0  0  0  0  0  0  0  0  0  0
   58.8203   30.3497   47.0294 H   0  0  0  0  0  0  0  0  0  0  0  0
   60.6879   31.0604   49.7957 H   0  0  0  0  0  0  0  0  0  0  0  0
   60.4312   29.7853   48.5568 H   0  0  0  0  0  0  0  0  0  0  0  0
   61.9498   30.7447   48.5568 H   0  0  0  0  0  0  0  0  0  0  0  0
  1  2  1  0
  2  3  1  0
  3  4  1  0
  4  5  1  0
  3  6  1  0
  6  7  2  0
  7  8  1  0
  8  9  1  0
  9 10  1  0
  8 11  2  0
 11 12  1  0
 12 13  1  0
 13 14  2  0
 13 15  2  0
 13 16  1  0
 16 17  2  0
 17 18  1  0
 18 19  2  0
 19 20  1  0
 20 21  1  0
 21 22  2  0
 21 23  1  0
 23 24  1  0
 24 25  2  0
 11 26  1  0
 26 27  2  0
 27 28  1  0
 27  6  1  0
 25 16  1  0
 24 19  1  0
  1 29  1  0
  1 30  1  0
  1 31  1  0
  2 32  1  0
  2 33  1  0
  4 34  1  0
  4 35  1  0
  5 36  1  0
  5 37  1  0
  5 38  1  0
  7 39  1  0
 10 40  1  0
 10 41  1  0
 10 42  1  0
 17 43  1  0
 18 44  1  0
 25 45  1  0
 26 46  1  0
 28 47  1  0
 28 48  1  0
 28 49  1  0
M  CHG  3  12  -1  20  -1  23  -1
M  END
>  <UniqueID>  (69) 
67

>  <SMILES>  (69) 
CCN(CC)c1cc(OC)c([N-]S(=O)(=O)c2ccc3[n-]c(=O)[n-]c3c2)cc1C

>  <Energy>  (69) 
90.03821862184614

>  <Genealogy>  (69) 
CCN(CC)c1cc(OC)c([N-]S(=O)(=O)c2ccc3[n-]c(=O)[n-]c3c2)cc1C (protonated)
CCN(CC)c1cc(OC)c([N-]S(=O)(=O)c2ccc3[n-]c(=O)[n-]c3c2)cc1C (3D coordinates assigned)
CCN(CC)c1cc(OC)c([N-]S(=O)(=O)c2ccc3[n-]c(=O)[n-]c3c2)cc1C (optimized conformer: 90.03821862184614 kcal/mol)

>  <smiles>  (69) 
CCN(CC)c1cc(OC)c(NS(=O)(=O)c2ccc3[nH]c(=O)[nH]c3c2)cc1C

>  <score_type>  (69) 
oracle

>  <origin>  (69) 
adg

>  <m_score__min__energy>  (69) 
-12.99

>  <m_primary>  (69) 
energy

$$$$
69:0
     RDKit          3D

 52 55  0  0  0  0  0  0  0  0999 V2000
   54.2560   29.5340   53.1560 O   0  0  0  0  0  0  0  0  0  0  0  0
   54.3650   30.2210   52.1070 C   0  0  0  0  0  0  0  0  0  0  0  0
   55.6750   30.4690   51.5800 N   0  0  0  0  0  0  0  0  0  0  0  0
   56.8900   30.6020   52.3790 C   0  0  0  0  0  0  0  0  0  0  0  0
   58.0920   30.3220   51.5340 C   0  0  0  0  0  0  0  0  0  0  0  0
   58.1000   30.1020   50.1750 C   0  0  0  0  0  0  0  0  0  0  0  0
   59.4260   29.8840   49.8340 C   0  0  0  0  0  0  0  0  0  0  0  0
   59.9260   29.6150   48.4730 C   0  0  0  0  0  0  0  0  0  0  0  0
   61.1570   29.7360   48.2350 O   0  0  0  0  0  0  0  0  0  0  0  0
   59.0420   29.2720   47.3960 N   0  0  0  0  0  0  0  0  0  0  0  0
   58.4530   30.1320   46.6210 C   0  0  0  0  0  0  0  0  0  0  0  0
   57.4270   29.8300   45.7920 N   0  0  0  0  0  0  0  0  0  0  0  0
   57.0020   30.8790   45.0920 N   0  0  0  0  0  0  0  0  0  0  0  0
   57.6980   32.0090   45.3460 C   0  0  0  0  0  0  0  0  0  0  0  0
   57.3460   33.3410   44.7600 C   0  0  0  0  0  0  0  0  0  0  0  0
   58.5310   34.3040   44.8480 C   0  0  0  0  0  0  0  0  0  0  0  0
   58.6140   34.8290   46.1560 O   0  0  0  0  0  0  0  0  0  0  0  0
   59.9040   35.3570   46.3770 C   0  0  0  0  0  0  0  0  0  0  0  0
   60.6640   34.4120   47.2640 C   0  0  0  0  0  0  0  0  0  0  0  0
   61.8060   33.7520   46.7810 C   0  0  0  0  0  0  0  0  0  0  0  0
   62.4950   32.8490   47.5960 C   0  0  0  0  0  0  0  0  0  0  0  0
   62.0380   32.5840   48.8900 C   0  0  0  0  0  0  0  0  0  0  0  0
   60.8910   33.2210   49.3700 C   0  0  0  0  0  0  0  0  0  0  0  0
   60.2020   34.1280   48.5600 C   0  0  0  0  0  0  0  0  0  0  0  0
   58.8970   31.7490   46.5060 S   0  0  0  0  0  0  0  0  0  0  0  0
   60.2330   29.9820   50.9120 N   0  0  0  0  0  0  0  0  0  0  0  0
   59.4070   30.2400   51.9440 C   0  0  0  0  0  0  0  0  0  0  0  0
   59.8490   30.4010   53.2500 O   0  0  0  0  0  0  0  0  0  0  0  0
   53.1470   30.7690   51.4730 C   0  0  0  0  0  0  0  0  0  0  0  0
   52.4830   31.8610   52.0510 C   0  0  0  0  0  0  0  0  0  0  0  0
   51.3420   32.3800   51.4330 C   0  0  0  0  0  0  0  0  0  0  0  0
   50.6670   33.4510   52.0040 O   0  0  0  0  0  0  0  0  0  0  0  0
   50.8910   31.8380   50.2710 N   0  0  0  0  0  0  0  0  0  0  0  0
   51.5250   30.7930   49.6770 C   0  0  0  0  0  0  0  0  0  0  0  0
   51.0790   30.3230   48.5980 O   0  0  0  0  0  0  0  0  0  0  0  0
   52.6690   30.2440   50.2620 C   0  0  0  0  0  0  0  0  0  0  0  0
   56.9545   31.6258   52.7760 H   0  0  0  0  0  0  0  0  0  0  0  0
   56.8566   29.8810   53.2091 H   0  0  0  0  0  0  0  0  0  0  0  0
   57.2325   30.0997   49.4986 H   0  0  0  0  0  0  0  0  0  0  0  0
   57.0671   33.2081   43.7043 H   0  0  0  0  0  0  0  0  0  0  0  0
   56.5047   33.7647   45.3282 H   0  0  0  0  0  0  0  0  0  0  0  0
   59.4599   33.7653   44.6094 H   0  0  0  0  0  0  0  0  0  0  0  0
   58.3897   35.1261   44.1310 H   0  0  0  0  0  0  0  0  0  0  0  0
   60.4289   35.4667   45.4166 H   0  0  0  0  0  0  0  0  0  0  0  0
   59.8286   36.3439   46.8570 H   0  0  0  0  0  0  0  0  0  0  0  0
   62.1595   33.9464   45.7576 H   0  0  0  0  0  0  0  0  0  0  0  0
   63.3978   32.3465   47.2185 H   0  0  0  0  0  0  0  0  0  0  0  0
   62.5815   31.8738   49.5305 H   0  0  0  0  0  0  0  0  0  0  0  0
   60.5296   33.0084   50.3870 H   0  0  0  0  0  0  0  0  0  0  0  0
   59.2946   34.6213   48.9387 H   0  0  0  0  0  0  0  0  0  0  0  0
   52.8579   32.3059   52.9845 H   0  0  0  0  0  0  0  0  0  0  0  0
   53.1914   29.4062   49.7770 H   0  0  0  0  0  0  0  0  0  0  0  0
  1  2  2  0
  2  3  1  0
  3  4  1  0
  4  5  1  0
  5  6  1  0
  6  7  2  0
  7  8  1  0
  8  9  2  0
  8 10  1  0
 10 11  2  3
 11 12  1  0
 12 13  1  0
 13 14  2  0
 14 15  1  0
 15 16  1  0
 16 17  1  0
 17 18  1  0
 18 19  1  0
 19 20  2  0
 20 21  1  0
 21 22  2  0
 22 23  1  0
 23 24  2  0
 14 25  1  0
  7 26  1  0
 26 27  1  0
 27 28  1  0
  2 29  1  0
 29 30  1  0
 30 31  2  0
 31 32  1  0
 31 33  1  0
 33 34  1  0
 34 35  2  0
 34 36  1  0
 27  5  2  0
 36 29  2  0
 25 11  1  0
 24 19  1  0
  4 37  1  0
  4 38  1  0
  6 39  1  0
 15 40  1  0
 15 41  1  0
 16 42  1  0
 16 43  1  0
 18 44  1  0
 18 45  1  0
 20 46  1  0
 21 47  1  0
 22 48  1  0
 23 49  1  0
 24 50  1  0
 30 51  1  0
 36 52  1  0
M  CHG  6   3  -1  12  -1  26  -1  28  -1  32  -1  33  -1
M  END
>  <UniqueID>  (70) 
68

>  <SMILES>  (70) 
O=C([N-]Cc1cc(C(=O)N=c2[n-]nc(CCOCc3ccccc3)s2)[n-]c1[O-])c1cc([O-])[n-]c(=O)c1

>  <Energy>  (70) 
122.26775828870977

>  <Genealogy>  (70) 
O=C([N-]Cc1cc(C(=O)N=c2[n-]nc(CCOCc3ccccc3)s2)[n-]c1[O-])c1cc([O-])[n-]c(=O)c1 (protonated)
O=C([N-]Cc1cc(C(=O)N=c2[n-]nc(CCOCc3ccccc3)s2)[n-]c1[O-])c1cc([O-])[n-]c(=O)c1 (3D coordinates assigned)
O=C([N-]Cc1cc(C(=O)N=c2[n-]nc(CCOCc3ccccc3)s2)[n-]c1[O-])c1cc([O-])[n-]c(=O)c1 (optimized conformer: 122.26775828870977 kcal/mol)

>  <smiles>  (70) 
O=C(NCc1cc(C(=O)N=c2[nH]nc(CCOCc3ccccc3)s2)[nH]c1O)c1cc(O)[nH]c(=O)c1

>  <score_type>  (70) 
oracle

>  <origin>  (70) 
adg

>  <m_score__min__energy>  (70) 
-21.300000000000001

>  <m_primary>  (70) 
energy

$$$$
70:0
     RDKit          3D

 44 46  0  0  0  0  0  0  0  0999 V2000
   54.8030   27.1080   46.3940 H   0  0  0  0  0  0  0  0  0  0  0  0
   55.1180   26.1970   45.9930 N   0  0  0  0  0  0  0  0  0  0  0  0
   56.4970   25.9450   45.7410 C   0  0  0  0  0  0  0  0  0  0  0  0
   56.8230   24.9630   45.0190 O   0  0  0  0  0  0  0  0  0  0  0  0
   57.5190   26.8740   46.2660 C   0  0  0  0  0  0  0  0  0  0  0  0
   58.4510   26.3650   47.1170 N   0  0  0  0  0  0  0  0  0  0  0  0
   59.3810   27.1490   47.7200 C   0  0  0  0  0  0  0  0  0  0  0  0
   60.2320   26.6040   48.5400 N   0  0  0  0  0  0  0  0  0  0  0  0
   60.7670   27.1870   49.7400 C   0  0  0  0  0  0  0  0  0  0  0  0
   60.9680   28.5710   49.8720 C   0  0  0  0  0  0  0  0  0  0  0  0
   60.6872   29.2451   49.0494 H   0  0  0  0  0  0  0  0  0  0  0  0
   61.5230   29.0970   51.0430 C   0  0  0  0  0  0  0  0  0  0  0  0
   61.7530   30.8350   51.1790 Cl  0  0  0  0  0  0  0  0  0  0  0  0
   61.9040   28.2460   52.0910 C   0  0  0  0  0  0  0  0  0  0  0  0
   62.4520   28.8000   53.2500 O   0  0  0  0  0  0  0  0  0  0  0  0
   62.4070   28.3440   54.1510 H   0  0  0  0  0  0  0  0  0  0  0  0
   61.7320   26.8540   51.9500 C   0  0  0  0  0  0  0  0  0  0  0  0
   62.2450   25.6240   53.3270 Br  0  0  0  0  0  0  0  0  0  0  0  0
   61.1770   26.3360   50.7730 C   0  0  0  0  0  0  0  0  0  0  0  0
   61.0620   25.2480   50.6591 H   0  0  0  0  0  0  0  0  0  0  0  0
   59.3700   28.4900   47.4990 N   0  0  0  0  0  0  0  0  0  0  0  0
   58.4720   29.0550   46.6550 C   0  0  0  0  0  0  0  0  0  0  0  0
   58.4833   30.1431   46.4940 H   0  0  0  0  0  0  0  0  0  0  0  0
   57.5290   28.2620   45.9860 C   0  0  0  0  0  0  0  0  0  0  0  0
   56.6530   28.8980   44.9780 C   0  0  0  0  0  0  0  0  0  0  0  0
   55.4120   28.9720   45.1870 O   0  0  0  0  0  0  0  0  0  0  0  0
   57.2190   29.4970   43.8070 N   0  0  0  0  0  0  0  0  0  0  0  0
   56.7860   30.7800   43.2640 C   0  0  0  0  0  0  0  0  0  0  0  0
   56.3362   30.6206   42.2729 H   0  0  0  0  0  0  0  0  0  0  0  0
   56.0481   31.2254   43.9475 H   0  0  0  0  0  0  0  0  0  0  0  0
   57.9760   31.7330   43.1300 C   0  0  0  0  0  0  0  0  0  0  0  0
   58.8965   31.1457   42.9969 H   0  0  0  0  0  0  0  0  0  0  0  0
   57.8121   32.3853   42.2596 H   0  0  0  0  0  0  0  0  0  0  0  0
   58.1090   32.5890   44.3600 C   0  0  0  0  0  0  0  0  0  0  0  0
   58.8820   33.7620   44.3280 C   0  0  0  0  0  0  0  0  0  0  0  0
   59.4134   34.0432   43.4069 H   0  0  0  0  0  0  0  0  0  0  0  0
   58.9780   34.5730   45.4630 C   0  0  0  0  0  0  0  0  0  0  0  0
   59.5900   35.4866   45.4348 H   0  0  0  0  0  0  0  0  0  0  0  0
   58.2980   34.2250   46.6330 C   0  0  0  0  0  0  0  0  0  0  0  0
   58.3781   34.8624   47.5259 H   0  0  0  0  0  0  0  0  0  0  0  0
   57.5160   33.0670   46.6690 C   0  0  0  0  0  0  0  0  0  0  0  0
   56.9780   32.7957   47.5893 H   0  0  0  0  0  0  0  0  0  0  0  0
   57.4170   32.2530   45.5360 C   0  0  0  0  0  0  0  0  0  0  0  0
   56.7950   31.3462   45.5656 H   0  0  0  0  0  0  0  0  0  0  0  0
  1  2  1  0
  2  3  1  0
  3  4  2  0
  3  5  1  0
  5  6  2  0
  6  7  1  0
  7  8  2  0
  8  9  1  0
  9 10  2  0
 10 11  1  0
 10 12  1  0
 12 13  1  0
 12 14  2  0
 14 15  1  0
 15 16  1  0
 14 17  1  0
 17 18  1  0
 17 19  2  0
 19 20  1  0
  7 21  1  0
 21 22  1  0
 22 23  1  0
 22 24  2  0
 24 25  1  0
 25 26  2  0
 25 27  1  0
 27 28  1  0
 28 29  1  0
 28 30  1  0
 28 31  1  0
 31 32  1  0
 31 33  1  0
 31 34  1  0
 34 35  2  0
 35 36  1  0
 35 37  1  0
 37 38  1  0
 37 39  2  0
 39 40  1  0
 39 41  1  0
 41 42  1  0
 41 43  2  0
 43 44  1  0
 24  5  1  0
 43 34  1  0
 19  9  1  0
M  CHG  3   2  -1  21  -1  27  -1
M  END
>  <UniqueID>  (71) 
69

>  <SMILES>  (71) 
[NH-]C(=O)c1n/c(=N/c2cc(Cl)c(O)c(Br)c2)[n-]cc1C(=O)[N-]CCc1ccccc1

>  <Energy>  (71) 
58.19163896301182

>  <Genealogy>  (71) 
[NH-]C(=O)c1nc(=Nc2cc(Cl)c(O)c(Br)c2)[n-]cc1C(=O)[N-]CCc1ccccc1 (protonated)
[NH-]C(=O)c1n/c(=N/c2cc(Cl)c(O)c(Br)c2)[n-]cc1C(=O)[N-]CCc1ccccc1 (cis-trans isomerization)
[NH-]C(=O)c1n/c(=N/c2cc(Cl)c(O)c(Br)c2)[n-]cc1C(=O)[N-]CCc1ccccc1 (3D coordinates assigned)
[NH-]C(=O)c1n/c(=N/c2cc(Cl)c(O)c(Br)c2)[n-]cc1C(=O)[N-]CCc1ccccc1 (optimized conformer: 58.19163896301182 kcal/mol)

>  <smiles>  (71) 
NC(=O)c1nc(=Nc2cc(Cl)c(O)c(Br)c2)[nH]cc1C(=O)NCCc1ccccc1

>  <score_type>  (71) 
oracle

>  <origin>  (71) 
adg

>  <m_score__min__energy>  (71) 
-14.52

>  <m_primary>  (71) 
energy

$$$$
71:0
     RDKit          3D

 55 59  0  0  0  0  0  0  0  0999 V2000
   57.3320   26.3900   45.8100 O   0  0  0  0  0  0  0  0  0  0  0  0
   57.5810   27.6200   45.6920 C   0  0  0  0  0  0  0  0  0  0  0  0
   56.9370   28.3540   44.6430 N   0  0  0  0  0  0  0  0  0  0  0  0
   57.5580   29.4320   43.8750 C   0  0  0  0  0  0  0  0  0  0  0  0
   56.6470   30.6650   43.8320 C   0  0  0  0  0  0  0  0  0  0  0  0
   57.2890   31.8340   44.5210 C   0  0  0  0  0  0  0  0  0  0  0  0
   57.7590   32.9530   43.8400 C   0  0  0  0  0  0  0  0  0  0  0  0
   58.4960   33.9620   44.9680 S   0  0  0  0  0  0  0  0  0  0  0  0
   58.1930   32.9370   46.2700 C   0  0  0  0  0  0  0  0  0  0  0  0
   58.6010   33.1760   47.6740 C   0  0  0  0  0  0  0  0  0  0  0  0
   59.3520   34.3190   48.0050 C   0  0  0  0  0  0  0  0  0  0  0  0
   59.7330   34.5570   49.3280 C   0  0  0  0  0  0  0  0  0  0  0  0
   59.3730   33.6570   50.3330 C   0  0  0  0  0  0  0  0  0  0  0  0
   59.7440   33.8910   51.6150 F   0  0  0  0  0  0  0  0  0  0  0  0
   58.6340   32.5130   50.0160 C   0  0  0  0  0  0  0  0  0  0  0  0
   58.2480   32.2720   48.6940 C   0  0  0  0  0  0  0  0  0  0  0  0
   57.5380   31.8250   45.8590 N   0  0  0  0  0  0  0  0  0  0  0  0
   58.5410   28.2530   46.6150 C   0  0  0  0  0  0  0  0  0  0  0  0
   58.7980   27.6850   47.8730 C   0  0  0  0  0  0  0  0  0  0  0  0
   59.6730   28.3080   48.7690 C   0  0  0  0  0  0  0  0  0  0  0  0
   60.2920   29.5220   48.4230 C   0  0  0  0  0  0  0  0  0  0  0  0
   61.1720   30.1930   49.2910 C   0  0  0  0  0  0  0  0  0  0  0  0
   61.4430   29.6870   50.4180 O   0  0  0  0  0  0  0  0  0  0  0  0
   61.7310   31.3910   48.9160 N   0  0  0  0  0  0  0  0  0  0  0  0
   61.4590   31.9140   47.6720 C   0  0  0  0  0  0  0  0  0  0  0  0
   60.6170   31.2670   46.8250 N   0  0  0  0  0  0  0  0  0  0  0  0
   60.0230   30.1000   47.1690 C   0  0  0  0  0  0  0  0  0  0  0  0
   59.1500   29.4710   46.2740 C   0  0  0  0  0  0  0  0  0  0  0  0
   62.1300   33.1790   47.1890 C   0  0  0  0  0  0  0  0  0  0  0  0
   63.6570   33.0330   46.9970 C   0  0  0  0  0  0  0  0  0  0  0  0
   64.5060   33.0830   48.2820 C   0  0  0  0  0  0  0  0  0  0  0  0
   64.1160   32.0390   49.3430 C   0  0  0  0  0  0  0  0  0  0  0  0
   62.6530   32.1090   49.8230 C   0  0  0  0  0  0  0  0  0  0  0  0
   58.5136   29.7060   44.3458 H   0  0  0  0  0  0  0  0  0  0  0  0
   57.7248   29.0809   42.8460 H   0  0  0  0  0  0  0  0  0  0  0  0
   56.4500   30.9300   42.7827 H   0  0  0  0  0  0  0  0  0  0  0  0
   55.7081   30.4247   44.3522 H   0  0  0  0  0  0  0  0  0  0  0  0
   57.6658   33.1435   42.7606 H   0  0  0  0  0  0  0  0  0  0  0  0
   59.6410   35.0299   47.2169 H   0  0  0  0  0  0  0  0  0  0  0  0
   60.3174   35.4547   49.5782 H   0  0  0  0  0  0  0  0  0  0  0  0
   58.3560   31.8018   50.8078 H   0  0  0  0  0  0  0  0  0  0  0  0
   57.6655   31.3715   48.4496 H   0  0  0  0  0  0  0  0  0  0  0  0
   58.3072   26.7422   48.1563 H   0  0  0  0  0  0  0  0  0  0  0  0
   59.8773   27.8470   49.7466 H   0  0  0  0  0  0  0  0  0  0  0  0
   58.9400   29.9334   45.2983 H   0  0  0  0  0  0  0  0  0  0  0  0
   61.6836   33.4635   46.2248 H   0  0  0  0  0  0  0  0  0  0  0  0
   61.9732   33.9442   47.9636 H   0  0  0  0  0  0  0  0  0  0  0  0
   63.8439   32.0659   46.5073 H   0  0  0  0  0  0  0  0  0  0  0  0
   63.9664   33.9052   46.4024 H   0  0  0  0  0  0  0  0  0  0  0  0
   65.5577   32.9166   48.0061 H   0  0  0  0  0  0  0  0  0  0  0  0
   64.3322   34.0704   48.7346 H   0  0  0  0  0  0  0  0  0  0  0  0
   64.2872   31.0396   48.9166 H   0  0  0  0  0  0  0  0  0  0  0  0
   64.7381   32.2517   50.2249 H   0  0  0  0  0  0  0  0  0  0  0  0
   62.5870   31.6583   50.8242 H   0  0  0  0  0  0  0  0  0  0  0  0
   62.3538   33.1674   49.8391 H   0  0  0  0  0  0  0  0  0  0  0  0
  1  2  2  0
  2  3  1  0
  3  4  1  0
  4  5  1  0
  5  6  1  0
  6  7  2  0
  7  8  1  0
  8  9  1  0
  9 10  1  0
 10 11  2  0
 11 12  1  0
 12 13  2  0
 13 14  1  0
 13 15  1  0
 15 16  2  0
  9 17  2  0
  2 18  1  0
 18 19  2  0
 19 20  1  0
 20 21  2  0
 21 22  1  0
 22 23  2  0
 22 24  1  0
 24 25  1  0
 25 26  2  0
 26 27  1  0
 27 28  2  0
 25 29  1  0
 29 30  1  0
 30 31  1  0
 31 32  1  0
 32 33  1  0
 17  6  1  0
 28 18  1  0
 16 10  1  0
 27 21  1  0
 33 24  1  0
  4 34  1  0
  4 35  1  0
  5 36  1  0
  5 37  1  0
  7 38  1  0
 11 39  1  0
 12 40  1  0
 15 41  1  0
 16 42  1  0
 19 43  1  0
 20 44  1  0
 28 45  1  0
 29 46  1  0
 29 47  1  0
 30 48  1  0
 30 49  1  0
 31 50  1  0
 31 51  1  0
 32 52  1  0
 32 53  1  0
 33 54  1  0
 33 55  1  0
M  CHG  1   3  -1
M  END
>  <UniqueID>  (72) 
70

>  <SMILES>  (72) 
O=C([N-]CCc1csc(-c2ccc(F)cc2)n1)c1ccc2c(=O)n3c(nc2c1)CCCCC3

>  <Energy>  (72) 
105.24793316713107

>  <Genealogy>  (72) 
O=C([N-]CCc1csc(-c2ccc(F)cc2)n1)c1ccc2c(=O)n3c(nc2c1)CCCCC3 (protonated)
O=C([N-]CCc1csc(-c2ccc(F)cc2)n1)c1ccc2c(=O)n3c(nc2c1)CCCCC3 (3D coordinates assigned)
O=C([N-]CCc1csc(-c2ccc(F)cc2)n1)c1ccc2c(=O)n3c(nc2c1)CCCCC3 (nonaromatic ring conformer: 105.24793316713107 kcal/mol)

>  <smiles>  (72) 
O=C(NCCc1csc(-c2ccc(F)cc2)n1)c1ccc2c(=O)n3c(nc2c1)CCCCC3

>  <score_type>  (72) 
oracle

>  <origin>  (72) 
adg

>  <m_score__min__energy>  (72) 
-9.5099999999999998

>  <m_primary>  (72) 
energy

$$$$
72:0
     RDKit          3D

 63 67  0  0  0  0  0  0  0  0999 V2000
   54.7600   27.4630   46.3650 H   0  0  0  0  0  0  0  0  0  0  0  0
   54.8020   26.5160   46.0000 O   0  0  0  0  0  0  0  0  0  0  0  0
   55.8250   25.6430   46.3710 C   0  0  0  0  0  0  0  0  0  0  0  0
   55.6360   24.4740   47.0140 N   0  0  0  0  0  0  0  0  0  0  0  0
   56.8970   23.9980   47.1400 C   0  0  0  0  0  0  0  0  0  0  0  0
   57.1560   22.9010   47.7010 O   0  0  0  0  0  0  0  0  0  0  0  0
   57.8580   24.7900   46.6180 N   0  0  0  0  0  0  0  0  0  0  0  0
   57.1650   25.8420   46.1470 C   0  0  0  0  0  0  0  0  0  0  0  0
   57.7730   26.9930   45.4650 C   0  0  0  0  0  0  0  0  0  0  0  0
   57.8669   26.9450   44.3701 H   0  0  0  0  0  0  0  0  0  0  0  0
   58.2240   28.1030   46.0820 C   0  0  0  0  0  0  0  0  0  0  0  0
   58.3580   28.1840   47.4590 C   0  0  0  0  0  0  0  0  0  0  0  0
   58.1050   27.4017   48.1897 H   0  0  0  0  0  0  0  0  0  0  0  0
   58.8700   29.4350   47.7370 C   0  0  0  0  0  0  0  0  0  0  0  0
   59.1410   29.9610   49.1120 C   0  0  0  0  0  0  0  0  0  0  0  0
   58.7711   29.2430   49.8587 H   0  0  0  0  0  0  0  0  0  0  0  0
   60.2239   30.1019   49.2438 H   0  0  0  0  0  0  0  0  0  0  0  0
   58.6271   30.9246   49.2438 H   0  0  0  0  0  0  0  0  0  0  0  0
   59.0140   30.1450   46.6000 N   0  0  0  0  0  0  0  0  0  0  0  0
   59.3760   31.5330   46.5350 C   0  0  0  0  0  0  0  0  0  0  0  0
   60.6480   31.9450   46.9620 C   0  0  0  0  0  0  0  0  0  0  0  0
   61.3631   31.2018   47.3445 H   0  0  0  0  0  0  0  0  0  0  0  0
   61.0150   33.3040   46.9040 C   0  0  0  0  0  0  0  0  0  0  0  0
   62.3690   33.7450   47.3250 C   0  0  0  0  0  0  0  0  0  0  0  0
   63.0740   34.4490   46.5550 O   0  0  0  0  0  0  0  0  0  0  0  0
   62.9310   33.2910   48.5660 N   0  0  0  0  0  0  0  0  0  0  0  0
   63.3410   34.2810   49.5640 C   0  0  0  0  0  0  0  0  0  0  0  0
   63.9800   35.0348   49.0808 H   0  0  0  0  0  0  0  0  0  0  0  0
   62.4382   34.7501   49.9821 H   0  0  0  0  0  0  0  0  0  0  0  0
   64.1210   33.6220   50.7070 C   0  0  0  0  0  0  0  0  0  0  0  0
   65.1238   33.3423   50.3517 H   0  0  0  0  0  0  0  0  0  0  0  0
   64.2098   34.3308   51.5435 H   0  0  0  0  0  0  0  0  0  0  0  0
   63.4080   32.4140   51.1640 N   0  0  0  0  0  0  0  0  0  0  0  0
   64.0540   31.8600   52.3760 C   0  0  0  0  0  0  0  0  0  0  0  0
   64.5551   32.6722   52.9231 H   0  0  0  0  0  0  0  0  0  0  0  0
   63.2843   31.3958   53.0102 H   0  0  0  0  0  0  0  0  0  0  0  0
   65.0730   30.8130   51.9970 C   0  0  0  0  0  0  0  0  0  0  0  0
   64.8230   29.4510   52.2500 C   0  0  0  0  0  0  0  0  0  0  0  0
   63.8896   29.1524   52.7495 H   0  0  0  0  0  0  0  0  0  0  0  0
   65.7510   28.4720   51.8720 C   0  0  0  0  0  0  0  0  0  0  0  0
   65.5495   27.4117   52.0843 H   0  0  0  0  0  0  0  0  0  0  0  0
   66.9330   28.8430   51.2250 C   0  0  0  0  0  0  0  0  0  0  0  0
   67.6641   28.0765   50.9282 H   0  0  0  0  0  0  0  0  0  0  0  0
   67.1830   30.1950   50.9560 C   0  0  0  0  0  0  0  0  0  0  0  0
   68.1108   30.4862   50.4417 H   0  0  0  0  0  0  0  0  0  0  0  0
   66.2600   31.1810   51.3370 C   0  0  0  0  0  0  0  0  0  0  0  0
   66.4641   32.2399   51.1200 H   0  0  0  0  0  0  0  0  0  0  0  0
   63.2580   31.3770   50.1000 C   0  0  0  0  0  0  0  0  0  0  0  0
   64.0272   30.6069   50.2593 H   0  0  0  0  0  0  0  0  0  0  0  0
   62.2339   30.9848   50.1863 H   0  0  0  0  0  0  0  0  0  0  0  0
   63.4030   31.9110   48.6690 C   0  0  0  0  0  0  0  0  0  0  0  0
   64.4631   31.8723   48.3779 H   0  0  0  0  0  0  0  0  0  0  0  0
   62.7928   31.2849   48.0015 H   0  0  0  0  0  0  0  0  0  0  0  0
   60.0770   34.2450   46.4400 C   0  0  0  0  0  0  0  0  0  0  0  0
   60.3427   35.3120   46.4090 H   0  0  0  0  0  0  0  0  0  0  0  0
   58.8090   33.8320   46.0180 C   0  0  0  0  0  0  0  0  0  0  0  0
   58.0844   34.5742   45.6518 H   0  0  0  0  0  0  0  0  0  0  0  0
   58.4600   32.4810   46.0600 C   0  0  0  0  0  0  0  0  0  0  0  0
   57.2230   32.0960   45.6630 F   0  0  0  0  0  0  0  0  0  0  0  0
   58.6110   29.3550   45.5730 C   0  0  0  0  0  0  0  0  0  0  0  0
   58.5150   29.7940   44.3090 C   0  0  0  0  0  0  0  0  0  0  0  0
   58.8604   30.8059   44.0505 H   0  0  0  0  0  0  0  0  0  0  0  0
   58.0909   29.1421   43.5311 H   0  0  0  0  0  0  0  0  0  0  0  0
  1  2  1  0
  2  3  1  0
  3  4  1  0
  4  5  1  0
  5  6  2  0
  5  7  1  0
  7  8  1  0
  8  9  1  0
  9 10  1  0
  9 11  2  0
 11 12  1  0
 12 13  1  0
 12 14  2  0
 14 15  1  0
 15 16  1  0
 15 17  1  0
 15 18  1  0
 14 19  1  0
 19 20  1  0
 20 21  2  0
 21 22  1  0
 21 23  1  0
 23 24  1  0
 24 25  2  0
 24 26  1  0
 26 27  1  0
 27 28  1  0
 27 29  1  0
 27 30  1  0
 30 31  1  0
 30 32  1  0
 30 33  1  0
 33 34  1  0
 34 35  1  0
 34 36  1  0
 34 37  1  0
 37 38  2  0
 38 39  1  0
 38 40  1  0
 40 41  1  0
 40 42  2  0
 42 43  1  0
 42 44  1  0
 44 45  1  0
 44 46  2  0
 46 47  1  0
 33 48  1  0
 48 49  1  0
 48 50  1  0
 48 51  1  0
 51 52  1  0
 51 53  1  0
 23 54  2  0
 54 55  1  0
 54 56  1  0
 56 57  1  0
 56 58  2  0
 58 59  1  0
 19 60  1  0
 60 61  2  0
 61 62  1  0
 61 63  1  0
  8  3  2  0
 60 11  1  0
 58 20  1  0
 51 26  1  0
 46 37  1  0
M  CHG  2   4  -1   7  -1
M  END
>  <UniqueID>  (73) 
71

>  <SMILES>  (73) 
C=c1/c(=C\c2[n-]c(=O)[n-]c2O)cc(C)n1-c1cc(C(=O)N2CCN(Cc3ccccc3)CC2)ccc1F

>  <Energy>  (73) 
154.90965082275014

>  <Genealogy>  (73) 
C=c1c(=Cc2[n-]c(=O)[n-]c2O)cc(C)n1-c1cc(C(=O)N2CCN(Cc3ccccc3)CC2)ccc1F (protonated)
C=c1/c(=C\c2[n-]c(=O)[n-]c2O)cc(C)n1-c1cc(C(=O)N2CCN(Cc3ccccc3)CC2)ccc1F (cis-trans isomerization)
C=c1/c(=C\c2[n-]c(=O)[n-]c2O)cc(C)n1-c1cc(C(=O)N2CCN(Cc3ccccc3)CC2)ccc1F (3D coordinates assigned)
C=c1/c(=C\c2[n-]c(=O)[n-]c2O)cc(C)n1-c1cc(C(=O)N2CCN(Cc3ccccc3)CC2)ccc1F (nonaromatic ring conformer: 154.90965082275014 kcal/mol)

>  <smiles>  (73) 
C=c1c(=Cc2[nH]c(=O)[nH]c2O)cc(C)n1-c1cc(C(=O)N2CCN(Cc3ccccc3)CC2)ccc1F

>  <score_type>  (73) 
oracle

>  <origin>  (73) 
adg

>  <m_score__min__energy>  (73) 
-14.800000000000001

>  <m_primary>  (73) 
energy

$$$$
73:0
     RDKit          3D

 45 47  0  0  0  0  0  0  0  0999 V2000
   55.1300   26.6880   45.9780 N   0  0  0  0  0  0  0  0  0  0  0  0
   56.2030   25.7900   46.2490 C   0  0  0  0  0  0  0  0  0  0  0  0
   56.1120   24.9720   47.2040 O   0  0  0  0  0  0  0  0  0  0  0  0
   57.4650   25.8720   45.4510 C   0  0  0  0  0  0  0  0  0  0  0  0
   58.0850   27.1790   45.6390 N   0  0  0  0  0  0  0  0  0  0  0  0
   57.4430   28.3100   45.9870 C   0  0  0  0  0  0  0  0  0  0  0  0
   58.4010   29.2880   46.1660 C   0  0  0  0  0  0  0  0  0  0  0  0
   58.2170   30.6170   46.6730 N   0  0  0  0  0  0  0  0  0  0  0  0
   59.3020   31.4640   47.0810 C   0  0  0  0  0  0  0  0  0  0  0  0
   60.3590   30.9600   47.5480 O   0  0  0  0  0  0  0  0  0  0  0  0
   59.1900   32.9570   46.8880 C   0  0  2  0  0  0  0  0  0  0  0  0
   59.8050   33.7310   48.0730 C   0  0  0  0  0  0  0  0  0  0  0  0
   61.3130   33.6700   48.0500 C   0  0  0  0  0  0  0  0  0  0  0  0
   62.0410   33.5800   49.2500 C   0  0  0  0  0  0  0  0  0  0  0  0
   63.4330   33.4560   49.2240 C   0  0  0  0  0  0  0  0  0  0  0  0
   64.1100   33.4250   48.0010 C   0  0  0  0  0  0  0  0  0  0  0  0
   63.3940   33.5130   46.8030 C   0  0  0  0  0  0  0  0  0  0  0  0
   62.0000   33.6310   46.8260 C   0  0  0  0  0  0  0  0  0  0  0  0
   57.8050   33.3660   46.6370 N   0  0  0  0  0  0  0  0  0  0  0  0
   57.1530   33.4800   45.3650 C   0  0  0  0  0  0  0  0  0  0  0  0
   56.6910   34.5840   44.9720 O   0  0  0  0  0  0  0  0  0  0  0  0
   57.0230   32.2990   44.5060 C   0  0  0  0  0  0  0  0  0  0  0  0
   57.6840   32.0860   43.3130 C   0  0  0  0  0  0  0  0  0  0  0  0
   57.2510   30.8570   42.8640 C   0  0  0  0  0  0  0  0  0  0  0  0
   56.3550   30.3980   43.8080 C   0  0  0  0  0  0  0  0  0  0  0  0
   56.2400   31.2790   44.7740 O   0  0  0  0  0  0  0  0  0  0  0  0
   59.6150   28.6740   45.9320 C   0  0  0  0  0  0  0  0  0  0  0  0
   59.3950   27.3830   45.6160 N   0  0  0  0  0  0  0  0  0  0  0  0
   54.5520   27.0830   46.7530 H   0  0  0  0  0  0  0  0  0  0  0  0
   58.1596   25.0870   45.7847 H   0  0  0  0  0  0  0  0  0  0  0  0
   57.2305   25.7313   44.3855 H   0  0  0  0  0  0  0  0  0  0  0  0
   56.3564   28.4323   46.1066 H   0  0  0  0  0  0  0  0  0  0  0  0
   57.2530   31.0170   46.6500 H   0  0  0  0  0  0  0  0  0  0  0  0
   59.7739   33.2147   45.9921 H   0  0  0  0  0  0  0  0  0  0  0  0
   59.4888   34.7830   48.0156 H   0  0  0  0  0  0  0  0  0  0  0  0
   59.4548   33.2676   49.0071 H   0  0  0  0  0  0  0  0  0  0  0  0
   61.5121   33.6073   50.2141 H   0  0  0  0  0  0  0  0  0  0  0  0
   63.9961   33.3828   50.1661 H   0  0  0  0  0  0  0  0  0  0  0  0
   65.2058   33.3314   47.9812 H   0  0  0  0  0  0  0  0  0  0  0  0
   63.9274   33.4894   45.8413 H   0  0  0  0  0  0  0  0  0  0  0  0
   61.4399   33.6935   45.8813 H   0  0  0  0  0  0  0  0  0  0  0  0
   58.4053   32.7567   42.8232 H   0  0  0  0  0  0  0  0  0  0  0  0
   57.5577   30.3453   41.9398 H   0  0  0  0  0  0  0  0  0  0  0  0
   55.8185   29.4390   43.7583 H   0  0  0  0  0  0  0  0  0  0  0  0
   60.6003   29.1592   45.9935 H   0  0  0  0  0  0  0  0  0  0  0  0
  1  2  1  0
  2  3  2  0
  2  4  1  0
  4  5  1  0
  5  6  1  0
  6  7  2  0
  7  8  1  0
  8  9  1  0
  9 10  2  0
  9 11  1  0
 11 12  1  0
 12 13  1  0
 13 14  2  0
 14 15  1  0
 15 16  2  0
 16 17  1  0
 17 18  2  0
 11 19  1  0
 19 20  1  0
 20 21  2  0
 20 22  1  0
 22 23  2  0
 23 24  1  0
 24 25  2  0
 25 26  1  0
  7 27  1  0
 27 28  2  0
 28  5  1  0
 18 13  1  0
 26 22  1  0
  1 29  1  0
  4 30  1  0
  4 31  1  0
  6 32  1  0
  8 33  1  0
 11 34  1  6
 12 35  1  0
 12 36  1  0
 14 37  1  0
 15 38  1  0
 16 39  1  0
 17 40  1  0
 18 41  1  0
 23 42  1  0
 24 43  1  0
 25 44  1  0
 27 45  1  0
M  CHG  2   1  -1  19  -1
M  END
>  <UniqueID>  (74) 
72

>  <SMILES>  (74) 
[NH-]C(=O)Cn1cc(NC(=O)[C@H](Cc2ccccc2)[N-]C(=O)c2ccco2)cn1

>  <Energy>  (74) 
97.60603448473971

>  <Genealogy>  (74) 
[NH-]C(=O)Cn1cc(NC(=O)C(Cc2ccccc2)[N-]C(=O)c2ccco2)cn1 (protonated)
[NH-]C(=O)Cn1cc(NC(=O)[C@H](Cc2ccccc2)[N-]C(=O)c2ccco2)cn1 (chirality)
[NH-]C(=O)Cn1cc(NC(=O)[C@H](Cc2ccccc2)[N-]C(=O)c2ccco2)cn1 (3D coordinates assigned)
[NH-]C(=O)Cn1cc(NC(=O)[C@H](Cc2ccccc2)[N-]C(=O)c2ccco2)cn1 (optimized conformer: 97.60603448473971 kcal/mol)

>  <smiles>  (74) 
NC(=O)Cn1cc(NC(=O)C(Cc2ccccc2)NC(=O)c2ccco2)cn1

>  <score_type>  (74) 
oracle

>  <origin>  (74) 
adg

>  <m_score__min__energy>  (74) 
-12.710000000000001

>  <m_primary>  (74) 
energy

$$$$
74:0
     RDKit          3D

 58 61  0  0  0  0  0  0  0  0999 V2000
   59.9850   35.0080   46.2200 C   0  0  0  0  0  0  0  0  0  0  0  0
   59.8840   34.3880   47.5770 C   0  0  0  0  0  0  0  0  0  0  0  0
   60.7790   34.5920   48.5640 N   0  0  0  0  0  0  0  0  0  0  0  0
   60.3890   33.8380   49.6100 C   0  0  0  0  0  0  0  0  0  0  0  0
   61.1310   33.7770   50.9080 C   0  0  0  0  0  0  0  0  0  0  0  0
   59.2230   33.1550   49.3010 C   0  0  0  0  0  0  0  0  0  0  0  0
   58.4750   31.8990   50.2920 S   0  0  0  0  0  0  0  0  0  0  0  0
   59.2220   31.7950   51.5910 O   0  0  0  0  0  0  0  0  0  0  0  0
   57.0420   32.2300   50.6010 O   0  0  0  0  0  0  0  0  0  0  0  0
   58.5570   30.3700   49.4660 N   0  0  0  0  0  0  0  0  0  0  0  0
   59.6750   29.5530   49.9520 C   0  0  0  0  0  0  0  0  0  0  0  0
   60.6810   29.2680   48.8310 C   0  0  0  0  0  0  0  0  0  0  0  0
   61.6300   30.4210   48.6210 C   0  0  0  0  0  0  0  0  0  0  0  0
   61.7880   30.9840   47.3440 C   0  0  0  0  0  0  0  0  0  0  0  0
   62.6920   32.0320   47.1430 C   0  0  0  0  0  0  0  0  0  0  0  0
   63.4450   32.5270   48.2150 C   0  0  0  0  0  0  0  0  0  0  0  0
   64.3500   33.5690   48.0250 O   0  0  0  0  0  0  0  0  0  0  0  0
   63.2880   31.9710   49.4890 C   0  0  0  0  0  0  0  0  0  0  0  0
   62.3860   30.9240   49.6920 C   0  0  0  0  0  0  0  0  0  0  0  0
   58.9050   33.5020   47.9970 C   0  0  0  0  0  0  0  0  0  0  0  0
   57.7800   33.0080   47.1870 C   0  0  0  0  0  0  0  0  0  0  0  0
   56.6240   33.4610   47.4090 O   0  0  0  0  0  0  0  0  0  0  0  0
   57.9820   32.0180   46.1620 N   0  0  0  0  0  0  0  0  0  0  0  0
   57.6710   32.3250   44.7610 C   0  0  0  0  0  0  0  0  0  0  0  0
   56.9600   31.1380   44.1170 C   0  0  0  0  0  0  0  0  0  0  0  0
   57.6700   29.8400   44.3990 C   0  0  0  0  0  0  0  0  0  0  0  0
   57.4220   28.7320   43.5710 C   0  0  0  0  0  0  0  0  0  0  0  0
   58.0220   27.5000   43.8390 C   0  0  0  0  0  0  0  0  0  0  0  0
   58.8650   27.3570   44.9410 C   0  0  0  0  0  0  0  0  0  0  0  0
   59.1100   28.4460   45.7810 C   0  0  0  0  0  0  0  0  0  0  0  0
   58.5070   29.6890   45.5290 C   0  0  0  0  0  0  0  0  0  0  0  0
   58.8180   30.8470   46.4480 C   0  0  0  0  0  0  0  0  0  0  0  0
   60.1611   36.0889   46.3229 H   0  0  0  0  0  0  0  0  0  0  0  0
   60.8206   34.5512   45.6694 H   0  0  0  0  0  0  0  0  0  0  0  0
   59.0476   34.8400   45.6694 H   0  0  0  0  0  0  0  0  0  0  0  0
   61.6250   35.2040   48.5190 H   0  0  0  0  0  0  0  0  0  0  0  0
   60.4162   33.8358   51.7421 H   0  0  0  0  0  0  0  0  0  0  0  0
   61.6875   32.8301   50.9681 H   0  0  0  0  0  0  0  0  0  0  0  0
   61.8347   34.6203   50.9681 H   0  0  0  0  0  0  0  0  0  0  0  0
   60.1858   30.0906   50.7645 H   0  0  0  0  0  0  0  0  0  0  0  0
   59.2748   28.5942   50.3132 H   0  0  0  0  0  0  0  0  0  0  0  0
   61.2625   28.3721   49.0942 H   0  0  0  0  0  0  0  0  0  0  0  0
   60.1181   29.1153   47.8983 H   0  0  0  0  0  0  0  0  0  0  0  0
   61.1985   30.5992   46.4988 H   0  0  0  0  0  0  0  0  0  0  0  0
   62.8119   32.4685   46.1405 H   0  0  0  0  0  0  0  0  0  0  0  0
   65.2100   33.4360   47.5060 H   0  0  0  0  0  0  0  0  0  0  0  0
   63.8765   32.3594   50.3333 H   0  0  0  0  0  0  0  0  0  0  0  0
   62.2673   30.4912   50.6963 H   0  0  0  0  0  0  0  0  0  0  0  0
   57.0182   33.2093   44.7172 H   0  0  0  0  0  0  0  0  0  0  0  0
   58.6057   32.5269   44.2174 H   0  0  0  0  0  0  0  0  0  0  0  0
   55.9363   31.0776   44.5150 H   0  0  0  0  0  0  0  0  0  0  0  0
   56.9525   31.2939   43.0281 H   0  0  0  0  0  0  0  0  0  0  0  0
   56.7506   28.8360   42.7059 H   0  0  0  0  0  0  0  0  0  0  0  0
   57.8295   26.6407   43.1799 H   0  0  0  0  0  0  0  0  0  0  0  0
   59.3374   26.3856   45.1489 H   0  0  0  0  0  0  0  0  0  0  0  0
   59.7798   28.3291   46.6457 H   0  0  0  0  0  0  0  0  0  0  0  0
   58.6435   30.5318   47.4873 H   0  0  0  0  0  0  0  0  0  0  0  0
   59.8681   31.1333   46.2889 H   0  0  0  0  0  0  0  0  0  0  0  0
  1  2  1  0
  2  3  1  0
  3  4  1  0
  4  5  1  0
  4  6  2  0
  6  7  1  0
  7  8  2  0
  7  9  2  0
  7 10  1  0
 10 11  1  0
 11 12  1  0
 12 13  1  0
 13 14  2  0
 14 15  1  0
 15 16  2  0
 16 17  1  0
 16 18  1  0
 18 19  2  0
  6 20  1  0
 20 21  1  0
 21 22  2  0
 21 23  1  0
 23 24  1  0
 24 25  1  0
 25 26  1  0
 26 27  2  0
 27 28  1  0
 28 29  2  0
 29 30  1  0
 30 31  2  0
 31 32  1  0
 20  2  2  0
 32 23  1  0
 19 13  1  0
 31 26  1  0
  1 33  1  0
  1 34  1  0
  1 35  1  0
  3 36  1  0
  5 37  1  0
  5 38  1  0
  5 39  1  0
 11 40  1  0
 11 41  1  0
 12 42  1  0
 12 43  1  0
 14 44  1  0
 15 45  1  0
 17 46  1  0
 18 47  1  0
 19 48  1  0
 24 49  1  0
 24 50  1  0
 25 51  1  0
 25 52  1  0
 27 53  1  0
 28 54  1  0
 29 55  1  0
 30 56  1  0
 32 57  1  0
 32 58  1  0
M  CHG  1  10  -1
M  END
>  <UniqueID>  (75) 
73

>  <SMILES>  (75) 
Cc1[nH]c(C)c(S(=O)(=O)[N-]CCc2ccc(O)cc2)c1C(=O)N1CCc2ccccc2C1

>  <Energy>  (75) 
88.16211653672438

>  <Genealogy>  (75) 
Cc1[nH]c(C)c(S(=O)(=O)[N-]CCc2ccc(O)cc2)c1C(=O)N1CCc2ccccc2C1 (protonated)
Cc1[nH]c(C)c(S(=O)(=O)[N-]CCc2ccc(O)cc2)c1C(=O)N1CCc2ccccc2C1 (3D coordinates assigned)
Cc1[nH]c(C)c(S(=O)(=O)[N-]CCc2ccc(O)cc2)c1C(=O)N1CCc2ccccc2C1 (nonaromatic ring conformer: 88.16211653672438 kcal/mol)

>  <smiles>  (75) 
Cc1[nH]c(C)c(S(=O)(=O)NCCc2ccc(O)cc2)c1C(=O)N1CCc2ccccc2C1

>  <score_type>  (75) 
oracle

>  <origin>  (75) 
adg

>  <m_score__min__energy>  (75) 
-10.74

>  <m_primary>  (75) 
energy

$$$$
75:0
     RDKit          3D

 57 60  0  0  0  0  0  0  0  0999 V2000
   55.8030   29.7560   44.7650 O   0  0  0  0  0  0  0  0  0  0  0  0
   57.0350   29.6850   45.0230 C   0  0  0  0  0  0  0  0  0  0  0  0
   57.9240   30.7040   44.5420 N   0  0  0  0  0  0  0  0  0  0  0  0
   58.0780   32.0320   45.0650 C   0  0  0  0  0  0  0  0  0  0  0  0
   57.6840   33.1700   44.3410 C   0  0  0  0  0  0  0  0  0  0  0  0
   57.8840   34.4450   44.8740 C   0  0  0  0  0  0  0  0  0  0  0  0
   58.4800   34.5980   46.1280 C   0  0  0  0  0  0  0  0  0  0  0  0
   58.8790   33.4710   46.8650 C   0  0  0  0  0  0  0  0  0  0  0  0
   59.5440   33.6270   48.2200 C   0  0  0  0  0  0  0  0  0  0  0  0
   60.9750   33.2450   48.2370 N   0  0  0  0  0  0  0  0  0  0  0  0
   61.2290   31.7990   48.4310 C   0  0  0  0  0  0  0  0  0  0  0  0
   61.8860   31.1670   47.1930 C   0  0  0  0  0  0  0  0  0  0  0  0
   63.1180   31.7800   46.8400 O   0  0  0  0  0  0  0  0  0  0  0  0
   63.1540   33.1850   47.0740 C   0  0  0  0  0  0  0  0  0  0  0  0
   61.7680   33.8480   47.1470 C   0  0  0  0  0  0  0  0  0  0  0  0
   58.6980   32.1920   46.3090 C   0  0  0  0  0  0  0  0  0  0  0  0
   57.5560   28.5840   45.8800 C   0  0  0  0  0  0  0  0  0  0  0  0
   56.7950   27.4260   46.1120 C   0  0  0  0  0  0  0  0  0  0  0  0
   55.5200   27.2830   45.5680 O   0  0  0  0  0  0  0  0  0  0  0  0
   57.2910   26.4370   46.8920 N   0  0  0  0  0  0  0  0  0  0  0  0
   58.5140   26.5230   47.4650 C   0  0  0  0  0  0  0  0  0  0  0  0
   58.9140   25.5720   48.1910 O   0  0  0  0  0  0  0  0  0  0  0  0
   59.2990   27.6280   47.2600 N   0  0  0  0  0  0  0  0  0  0  0  0
   60.6210   27.7260   47.9090 C   0  0  0  0  0  0  0  0  0  0  0  0
   60.4750   27.6440   49.4310 C   0  0  0  0  0  0  0  0  0  0  0  0
   60.0740   28.9790   49.9990 C   0  0  0  0  0  0  0  0  0  0  0  0
   58.8520   29.5660   49.6340 C   0  0  0  0  0  0  0  0  0  0  0  0
   58.4640   30.7900   50.1900 C   0  0  0  0  0  0  0  0  0  0  0  0
   59.2880   31.4290   51.1190 C   0  0  0  0  0  0  0  0  0  0  0  0
   60.4990   30.8440   51.4990 C   0  0  0  0  0  0  0  0  0  0  0  0
   60.8900   29.6210   50.9450 C   0  0  0  0  0  0  0  0  0  0  0  0
   58.8280   28.6640   46.4910 C   0  0  0  0  0  0  0  0  0  0  0  0
   59.5410   29.6910   46.3160 O   0  0  0  0  0  0  0  0  0  0  0  0
   57.2168   33.0561   43.3517 H   0  0  0  0  0  0  0  0  0  0  0  0
   57.5710   35.3323   44.3042 H   0  0  0  0  0  0  0  0  0  0  0  0
   58.6375   35.6056   46.5401 H   0  0  0  0  0  0  0  0  0  0  0  0
   59.4637   34.6807   48.5253 H   0  0  0  0  0  0  0  0  0  0  0  0
   59.0247   32.9452   48.9095 H   0  0  0  0  0  0  0  0  0  0  0  0
   61.8963   31.6669   49.2955 H   0  0  0  0  0  0  0  0  0  0  0  0
   60.2631   31.3003   48.5994 H   0  0  0  0  0  0  0  0  0  0  0  0
   62.0716   30.1028   47.4004 H   0  0  0  0  0  0  0  0  0  0  0  0
   61.1960   31.3086   46.3481 H   0  0  0  0  0  0  0  0  0  0  0  0
   63.6720   33.3626   48.0280 H   0  0  0  0  0  0  0  0  0  0  0  0
   63.6747   33.6350   46.2159 H   0  0  0  0  0  0  0  0  0  0  0  0
   61.8890   34.9246   47.3375 H   0  0  0  0  0  0  0  0  0  0  0  0
   61.2440   33.6940   46.1922 H   0  0  0  0  0  0  0  0  0  0  0  0
   59.0483   31.3062   46.8591 H   0  0  0  0  0  0  0  0  0  0  0  0
   55.1490   27.9670   44.9200 H   0  0  0  0  0  0  0  0  0  0  0  0
   61.2580   26.8996   47.5608 H   0  0  0  0  0  0  0  0  0  0  0  0
   61.0775   28.6915   47.6455 H   0  0  0  0  0  0  0  0  0  0  0  0
   59.7048   26.8993   49.6804 H   0  0  0  0  0  0  0  0  0  0  0  0
   61.4428   27.3513   49.8642 H   0  0  0  0  0  0  0  0  0  0  0  0
   58.1971   29.0618   48.9082 H   0  0  0  0  0  0  0  0  0  0  0  0
   57.5090   31.2494   49.8951 H   0  0  0  0  0  0  0  0  0  0  0  0
   58.9837   32.3934   51.5519 H   0  0  0  0  0  0  0  0  0  0  0  0
   61.1450   31.3459   52.2344 H   0  0  0  0  0  0  0  0  0  0  0  0
   61.8405   29.1598   51.2513 H   0  0  0  0  0  0  0  0  0  0  0  0
  1  2  2  0
  2  3  1  0
  3  4  1  0
  4  5  2  0
  5  6  1  0
  6  7  2  0
  7  8  1  0
  8  9  1  0
  9 10  1  0
 10 11  1  0
 11 12  1  0
 12 13  1  0
 13 14  1  0
 14 15  1  0
  8 16  2  0
  2 17  1  0
 17 18  2  0
 18 19  1  0
 18 20  1  0
 20 21  1  0
 21 22  2  0
 21 23  1  0
 23 24  1  0
 24 25  1  0
 25 26  1  0
 26 27  2  0
 27 28  1  0
 28 29  2  0
 29 30  1  0
 30 31  2  0
 23 32  1  0
 32 33  2  0
 16  4  1  0
 32 17  1  0
 15 10  1  0
 31 26  1  0
  5 34  1  0
  6 35  1  0
  7 36  1  0
  9 37  1  0
  9 38  1  0
 11 39  1  0
 11 40  1  0
 12 41  1  0
 12 42  1  0
 14 43  1  0
 14 44  1  0
 15 45  1  0
 15 46  1  0
 16 47  1  0
 19 48  1  0
 24 49  1  0
 24 50  1  0
 25 51  1  0
 25 52  1  0
 27 53  1  0
 28 54  1  0
 29 55  1  0
 30 56  1  0
 31 57  1  0
M  CHG  2   3  -1  20  -1
M  END
>  <UniqueID>  (76) 
74

>  <SMILES>  (76) 
O=C([N-]c1cccc(CN2CCOCC2)c1)c1c(O)[n-]c(=O)n(CCc2ccccc2)c1=O

>  <Energy>  (76) 
86.45872028505651

>  <Genealogy>  (76) 
O=C([N-]c1cccc(CN2CCOCC2)c1)c1c(O)[n-]c(=O)n(CCc2ccccc2)c1=O (protonated)
O=C([N-]c1cccc(CN2CCOCC2)c1)c1c(O)[n-]c(=O)n(CCc2ccccc2)c1=O (3D coordinates assigned)
O=C([N-]c1cccc(CN2CCOCC2)c1)c1c(O)[n-]c(=O)n(CCc2ccccc2)c1=O (nonaromatic ring conformer: 86.45872028505651 kcal/mol)

>  <smiles>  (76) 
O=C(Nc1cccc(CN2CCOCC2)c1)c1c(O)[nH]c(=O)n(CCc2ccccc2)c1=O

>  <score_type>  (76) 
oracle

>  <origin>  (76) 
adg

>  <m_score__min__energy>  (76) 
-12.4

>  <m_primary>  (76) 
energy

$$$$
76:0
     RDKit          3D

 52 55  0  0  0  0  0  0  0  0999 V2000
   59.8210   34.6240   48.6280 O   0  0  0  0  0  0  0  0  0  0  0  0
   60.1170   34.0710   47.5370 C   0  0  0  0  0  0  0  0  0  0  0  0
   59.1210   34.0030   46.5100 N   0  0  0  0  0  0  0  0  0  0  0  0
   58.5850   32.7960   45.9510 C   0  0  0  0  0  0  0  0  0  0  0  0
   58.7590   31.5540   46.5850 C   0  0  0  0  0  0  0  0  0  0  0  0
   58.2440   30.3920   46.0060 C   0  0  0  0  0  0  0  0  0  0  0  0
   57.5600   30.4540   44.7850 C   0  0  0  0  0  0  0  0  0  0  0  0
   56.9020   28.9810   44.0810 S   0  0  0  0  0  0  0  0  0  0  0  0
   58.0000   28.0630   43.6280 O   0  0  0  0  0  0  0  0  0  0  0  0
   56.0630   29.3460   42.8890 O   0  0  0  0  0  0  0  0  0  0  0  0
   55.9090   28.1640   45.2440 N   0  0  0  0  0  0  0  0  0  0  0  0
   56.2390   26.9270   45.8920 C   0  0  0  0  0  0  0  0  0  0  0  0
   57.4400   26.7450   46.5990 C   0  0  0  0  0  0  0  0  0  0  0  0
   57.7310   25.5130   47.1930 C   0  0  0  0  0  0  0  0  0  0  0  0
   56.8250   24.4420   47.0990 C   0  0  0  0  0  0  0  0  0  0  0  0
   57.1450   23.1260   47.7030 C   0  0  0  0  0  0  0  0  0  0  0  0
   57.0120   22.9500   48.9460 O   0  0  0  0  0  0  0  0  0  0  0  0
   57.6010   22.0470   46.8770 N   0  0  0  0  0  0  0  0  0  0  0  0
   56.7170   21.2350   46.0510 C   0  0  0  0  0  0  0  0  0  0  0  0
   56.5760   21.8480   44.6950 C   0  0  0  0  0  0  0  0  0  0  0  0
   55.8970   21.2740   43.6810 N   0  0  0  0  0  0  0  0  0  0  0  0
   55.9660   22.1090   42.6590 N   0  0  0  0  0  0  0  0  0  0  0  0
   56.6810   23.1640   43.0870 C   0  0  0  0  0  0  0  0  0  0  0  0
   56.9420   24.1620   42.3660 O   0  0  0  0  0  0  0  0  0  0  0  0
   57.0880   23.0520   44.3660 N   0  0  0  0  0  0  0  0  0  0  0  0
   55.6150   24.6350   46.4080 C   0  0  0  0  0  0  0  0  0  0  0  0
   55.3290   25.8660   45.8080 C   0  0  0  0  0  0  0  0  0  0  0  0
   57.4110   31.6890   44.1370 C   0  0  0  0  0  0  0  0  0  0  0  0
   57.9360   32.8510   44.7110 C   0  0  0  0  0  0  0  0  0  0  0  0
   61.4190   33.4880   47.3420 N   0  0  0  0  0  0  0  0  0  0  0  0
   62.4740   33.5170   48.3200 C   0  0  0  0  0  0  0  0  0  0  0  0
   62.3360   34.2260   49.5290 C   0  0  0  0  0  0  0  0  0  0  0  0
   63.3630   34.2060   50.4770 C   0  0  0  0  0  0  0  0  0  0  0  0
   64.5290   33.4700   50.2370 C   0  0  0  0  0  0  0  0  0  0  0  0
   65.9280   33.4430   51.5360 Br  0  0  0  0  0  0  0  0  0  0  0  0
   64.6610   32.7450   49.0490 C   0  0  0  0  0  0  0  0  0  0  0  0
   63.6340   32.7630   48.0990 C   0  0  0  0  0  0  0  0  0  0  0  0
   59.3022   31.4968   47.5398 H   0  0  0  0  0  0  0  0  0  0  0  0
   58.3761   29.4237   46.5110 H   0  0  0  0  0  0  0  0  0  0  0  0
   58.1551   27.5764   46.6855 H   0  0  0  0  0  0  0  0  0  0  0  0
   58.6770   25.3806   47.7386 H   0  0  0  0  0  0  0  0  0  0  0  0
   57.1388   20.2240   45.9514 H   0  0  0  0  0  0  0  0  0  0  0  0
   55.7269   21.1817   46.5272 H   0  0  0  0  0  0  0  0  0  0  0  0
   54.8884   23.8120   46.3389 H   0  0  0  0  0  0  0  0  0  0  0  0
   54.3815   26.0016   45.2658 H   0  0  0  0  0  0  0  0  0  0  0  0
   56.8800   31.7436   43.1752 H   0  0  0  0  0  0  0  0  0  0  0  0
   57.8388   33.8129   44.1862 H   0  0  0  0  0  0  0  0  0  0  0  0
   61.6450   33.0770   46.4110 H   0  0  0  0  0  0  0  0  0  0  0  0
   61.4172   34.7972   49.7279 H   0  0  0  0  0  0  0  0  0  0  0  0
   63.2544   34.7706   51.4148 H   0  0  0  0  0  0  0  0  0  0  0  0
   65.5732   32.1598   48.8609 H   0  0  0  0  0  0  0  0  0  0  0  0
   63.7381   32.1808   47.1716 H   0  0  0  0  0  0  0  0  0  0  0  0
  1  2  2  0
  2  3  1  0
  3  4  1  0
  4  5  2  0
  5  6  1  0
  6  7  2  0
  7  8  1  0
  8  9  2  0
  8 10  2  0
  8 11  1  0
 11 12  1  0
 12 13  2  0
 13 14  1  0
 14 15  2  0
 15 16  1  0
 16 17  2  0
 16 18  1  0
 18 19  1  0
 19 20  1  0
 20 21  2  0
 21 22  1  0
 22 23  1  0
 23 24  2  0
 23 25  1  0
 15 26  1  0
 26 27  2  0
  7 28  1  0
 28 29  2  0
  2 30  1  0
 30 31  1  0
 31 32  2  0
 32 33  1  0
 33 34  2  0
 34 35  1  0
 34 36  1  0
 36 37  2  0
 29  4  1  0
 37 31  1  0
 27 12  1  0
 25 20  1  0
  5 38  1  0
  6 39  1  0
 13 40  1  0
 14 41  1  0
 19 42  1  0
 19 43  1  0
 26 44  1  0
 27 45  1  0
 28 46  1  0
 29 47  1  0
 30 48  1  0
 32 49  1  0
 33 50  1  0
 36 51  1  0
 37 52  1  0
M  CHG  5   3  -1  11  -1  18  -1  22  -1  25  -1
M  END
>  <UniqueID>  (77) 
75

>  <SMILES>  (77) 
O=C([N-]c1ccc(S(=O)(=O)[N-]c2ccc(C(=O)[N-]Cc3n[n-]c(=O)[n-]3)cc2)cc1)Nc1ccc(Br)cc1

>  <Energy>  (77) 
98.92259127429892

>  <Genealogy>  (77) 
O=C([N-]c1ccc(S(=O)(=O)[N-]c2ccc(C(=O)[N-]Cc3n[n-]c(=O)[n-]3)cc2)cc1)Nc1ccc(Br)cc1 (protonated)
O=C([N-]c1ccc(S(=O)(=O)[N-]c2ccc(C(=O)[N-]Cc3n[n-]c(=O)[n-]3)cc2)cc1)Nc1ccc(Br)cc1 (3D coordinates assigned)
O=C([N-]c1ccc(S(=O)(=O)[N-]c2ccc(C(=O)[N-]Cc3n[n-]c(=O)[n-]3)cc2)cc1)Nc1ccc(Br)cc1 (optimized conformer: 98.92259127429892 kcal/mol)

>  <smiles>  (77) 
O=C(Nc1ccc(Br)cc1)Nc1ccc(S(=O)(=O)Nc2ccc(C(=O)NCc3n[nH]c(=O)[nH]3)cc2)cc1

>  <score_type>  (77) 
oracle

>  <origin>  (77) 
adg

>  <m_score__min__energy>  (77) 
-18.77

>  <m_primary>  (77) 
energy

$$$$
77:0
     RDKit          3D

 41 43  0  0  0  0  0  0  0  0999 V2000
   59.4304   24.2633   45.9541 H   0  0  0  0  0  0  0  0  0  0  0  0
   58.4520   24.7660   45.9620 C   0  0  0  0  0  0  0  0  0  0  0  0
   58.3700   26.0960   45.6960 N   0  0  0  0  0  0  0  0  0  0  0  0
   57.1810   26.7630   45.6870 C   0  0  0  0  0  0  0  0  0  0  0  0
   57.1190   28.0400   45.4400 N   0  0  0  0  0  0  0  0  0  0  0  0
   57.6800   29.1310   46.1950 C   0  0  0  0  0  0  0  0  0  0  0  0
   57.4050   30.3060   45.8360 O   0  0  0  0  0  0  0  0  0  0  0  0
   58.6440   28.9390   47.3380 C   0  0  0  0  0  0  0  0  0  0  0  0
   58.0740   28.8200   48.2712 H   0  0  0  0  0  0  0  0  0  0  0  0
   59.2495   28.0434   47.1346 H   0  0  0  0  0  0  0  0  0  0  0  0
   59.5680   30.1140   47.4760 C   0  0  0  0  0  0  0  0  0  0  0  0
   60.7080   30.3630   46.7260 C   0  0  0  0  0  0  0  0  0  0  0  0
   61.1224   29.7384   45.9209 H   0  0  0  0  0  0  0  0  0  0  0  0
   61.2150   31.5570   47.1990 C   0  0  0  0  0  0  0  0  0  0  0  0
   62.3810   32.1600   46.7420 O   0  0  0  0  0  0  0  0  0  0  0  0
   60.4370   32.0620   48.1790 N   0  0  0  0  0  0  0  0  0  0  0  0
   60.6930   33.2620   48.9780 C   0  0  0  0  0  0  0  0  0  0  0  0
   60.7164   32.9869   50.0428 H   0  0  0  0  0  0  0  0  0  0  0  0
   61.6583   33.6893   48.6688 H   0  0  0  0  0  0  0  0  0  0  0  0
   59.6000   34.3140   48.7560 C   0  0  0  0  0  0  0  0  0  0  0  0
   58.7867   34.1410   49.4762 H   0  0  0  0  0  0  0  0  0  0  0  0
   60.0467   35.3090   48.8987 H   0  0  0  0  0  0  0  0  0  0  0  0
   59.0390   34.2460   47.3600 C   0  0  0  0  0  0  0  0  0  0  0  0
   57.8240   33.5850   47.1150 C   0  0  0  0  0  0  0  0  0  0  0  0
   57.2624   33.1423   47.9508 H   0  0  0  0  0  0  0  0  0  0  0  0
   57.3260   33.4880   45.8110 C   0  0  0  0  0  0  0  0  0  0  0  0
   56.3709   32.9753   45.6244 H   0  0  0  0  0  0  0  0  0  0  0  0
   58.0410   34.0420   44.7450 C   0  0  0  0  0  0  0  0  0  0  0  0
   57.6475   33.9657   43.7206 H   0  0  0  0  0  0  0  0  0  0  0  0
   59.2560   34.6930   44.9800 C   0  0  0  0  0  0  0  0  0  0  0  0
   59.8190   35.1271   44.1406 H   0  0  0  0  0  0  0  0  0  0  0  0
   59.7550   34.7920   46.2820 C   0  0  0  0  0  0  0  0  0  0  0  0
   60.7136   35.3002   46.4633 H   0  0  0  0  0  0  0  0  0  0  0  0
   59.4310   31.1810   48.3450 C   0  0  0  0  0  0  0  0  0  0  0  0
   58.4070   31.3380   49.2730 O   0  0  0  0  0  0  0  0  0  0  0  0
   56.0000   26.0610   45.9790 C   0  0  0  0  0  0  0  0  0  0  0  0
   54.7720   26.7120   45.9910 O   0  0  0  0  0  0  0  0  0  0  0  0
   56.0640   24.6930   46.2550 C   0  0  0  0  0  0  0  0  0  0  0  0
   55.1444   24.1328   46.4798 H   0  0  0  0  0  0  0  0  0  0  0  0
   57.2970   24.0380   46.2450 C   0  0  0  0  0  0  0  0  0  0  0  0
   57.3565   22.9604   46.4579 H   0  0  0  0  0  0  0  0  0  0  0  0
  1  2  1  0
  2  3  1  0
  3  4  1  0
  4  5  2  0
  5  6  1  0
  6  7  2  0
  6  8  1  0
  8  9  1  0
  8 10  1  0
  8 11  1  0
 11 12  1  0
 12 13  1  0
 12 14  2  0
 14 15  1  0
 14 16  1  0
 16 17  1  0
 17 18  1  0
 17 19  1  0
 17 20  1  0
 20 21  1  0
 20 22  1  0
 20 23  1  0
 23 24  2  0
 24 25  1  0
 24 26  1  0
 26 27  1  0
 26 28  2  0
 28 29  1  0
 28 30  1  0
 30 31  1  0
 30 32  2  0
 32 33  1  0
 16 34  1  0
 34 35  1  0
  4 36  1  0
 36 37  1  0
 36 38  2  0
 38 39  1  0
 38 40  1  0
 40 41  1  0
 40  2  2  0
 34 11  2  0
 32 23  1  0
M  CHG  4   3  -1  15  -1  35  -1  37  -1
M  END
>  <UniqueID>  (78) 
76

>  <SMILES>  (78) 
O=C(Cc1cc([O-])n(CCc2ccccc2)c1[O-])/N=c1\[n-]cccc1[O-]

>  <Energy>  (78) 
68.9133555192792

>  <Genealogy>  (78) 
O=C(Cc1cc([O-])n(CCc2ccccc2)c1[O-])N=c1[n-]cccc1[O-] (protonated)
O=C(Cc1cc([O-])n(CCc2ccccc2)c1[O-])/N=c1\[n-]cccc1[O-] (cis-trans isomerization)
O=C(Cc1cc([O-])n(CCc2ccccc2)c1[O-])/N=c1\[n-]cccc1[O-] (3D coordinates assigned)
O=C(Cc1cc([O-])n(CCc2ccccc2)c1[O-])/N=c1\[n-]cccc1[O-] (optimized conformer: 68.9133555192792 kcal/mol)

>  <smiles>  (78) 
O=C(Cc1cc(O)n(CCc2ccccc2)c1O)N=c1[nH]cccc1O

>  <score_type>  (78) 
oracle

>  <origin>  (78) 
adg

>  <m_score__min__energy>  (78) 
-17

>  <m_primary>  (78) 
energy

$$$$
78:0
     RDKit          3D

 47 49  0  0  0  0  0  0  0  0999 V2000
   64.0000   32.0200   49.9610 C   0  0  0  0  0  0  0  0  0  0  0  0
   63.1370   32.6900   49.1680 C   0  0  0  0  0  0  0  0  0  0  0  0
   63.5620   32.9980   47.9090 N   0  0  0  0  0  0  0  0  0  0  0  0
   62.7720   33.6330   47.0100 C   0  0  0  0  0  0  0  0  0  0  0  0
   63.2170   33.8410   45.8460 O   0  0  0  0  0  0  0  0  0  0  0  0
   61.5170   34.0450   47.3590 N   0  0  0  0  0  0  0  0  0  0  0  0
   60.6460   34.7200   46.3710 C   0  0  0  0  0  0  0  0  0  0  0  0
   59.5060   33.8170   45.9760 C   0  0  0  0  0  0  0  0  0  0  0  0
   58.4130   34.3340   45.2610 C   0  0  0  0  0  0  0  0  0  0  0  0
   57.3680   33.4930   44.8650 C   0  0  0  0  0  0  0  0  0  0  0  0
   57.4060   32.1320   45.1830 C   0  0  0  0  0  0  0  0  0  0  0  0
   58.4890   31.6100   45.8940 C   0  0  0  0  0  0  0  0  0  0  0  0
   59.5380   32.4470   46.2870 C   0  0  0  0  0  0  0  0  0  0  0  0
   61.0450   33.8050   48.6230 C   0  0  0  0  0  0  0  0  0  0  0  0
   59.9280   34.2930   48.9570 O   0  0  0  0  0  0  0  0  0  0  0  0
   61.8110   33.0560   49.5640 C   0  0  0  0  0  0  0  0  0  0  0  0
   61.3020   32.7170   50.7870 C   0  0  0  0  0  0  0  0  0  0  0  0
   59.9360   32.2040   51.0480 C   0  0  0  0  0  0  0  0  0  0  0  0
   59.5300   30.9900   50.4610 C   0  0  0  0  0  0  0  0  0  0  0  0
   60.4540   30.2740   49.6790 O   0  0  0  0  0  0  0  0  0  0  0  0
   60.1820   29.7550   48.3820 C   0  0  0  0  0  0  0  0  0  0  0  0
   58.2220   30.5210   50.6790 C   0  0  0  0  0  0  0  0  0  0  0  0
   57.3290   31.2570   51.4560 C   0  0  0  0  0  0  0  0  0  0  0  0
   57.7200   32.4710   52.0180 C   0  0  0  0  0  0  0  0  0  0  0  0
   59.0220   32.9630   51.8130 C   0  0  0  0  0  0  0  0  0  0  0  0
   59.4410   34.1920   52.3510 O   0  0  0  0  0  0  0  0  0  0  0  0
   59.2030   34.6140   53.6880 C   0  0  0  0  0  0  0  0  0  0  0  0
   63.7070   31.7471   50.9855 H   0  0  0  0  0  0  0  0  0  0  0  0
   64.9961   31.7470   49.5826 H   0  0  0  0  0  0  0  0  0  0  0  0
   64.5230   32.7230   47.5950 H   0  0  0  0  0  0  0  0  0  0  0  0
   60.2418   35.6423   46.8138 H   0  0  0  0  0  0  0  0  0  0  0  0
   61.2390   34.9602   45.4762 H   0  0  0  0  0  0  0  0  0  0  0  0
   58.3788   35.4048   45.0115 H   0  0  0  0  0  0  0  0  0  0  0  0
   56.5157   33.9026   44.3030 H   0  0  0  0  0  0  0  0  0  0  0  0
   56.5825   31.4719   44.8730 H   0  0  0  0  0  0  0  0  0  0  0  0
   58.5168   30.5394   46.1451 H   0  0  0  0  0  0  0  0  0  0  0  0
   60.3919   32.0312   46.8420 H   0  0  0  0  0  0  0  0  0  0  0  0
   61.9663   32.8357   51.6557 H   0  0  0  0  0  0  0  0  0  0  0  0
   59.6732   28.7842   48.4748 H   0  0  0  0  0  0  0  0  0  0  0  0
   59.5358   30.4568   47.8344 H   0  0  0  0  0  0  0  0  0  0  0  0
   61.1268   29.6229   47.8344 H   0  0  0  0  0  0  0  0  0  0  0  0
   57.9018   29.5675   50.2336 H   0  0  0  0  0  0  0  0  0  0  0  0
   56.3106   30.8778   51.6265 H   0  0  0  0  0  0  0  0  0  0  0  0
   57.0067   33.0476   52.6252 H   0  0  0  0  0  0  0  0  0  0  0  0
   59.6206   33.8735   54.3861 H   0  0  0  0  0  0  0  0  0  0  0  0
   59.6844   35.5887   53.8561 H   0  0  0  0  0  0  0  0  0  0  0  0
   58.1198   34.7062   53.8561 H   0  0  0  0  0  0  0  0  0  0  0  0
  1  2  2  0
  2  3  1  0
  3  4  1  0
  4  5  2  0
  4  6  1  0
  6  7  1  0
  7  8  1  0
  8  9  2  0
  9 10  1  0
 10 11  2  0
 11 12  1  0
 12 13  2  0
  6 14  1  0
 14 15  2  0
 14 16  1  0
 16 17  2  3
 17 18  1  0
 18 19  2  0
 19 20  1  0
 20 21  1  0
 19 22  1  0
 22 23  2  0
 23 24  1  0
 24 25  2  0
 25 26  1  0
 26 27  1  0
 16  2  1  0
 25 18  1  0
 13  8  1  0
  1 28  1  0
  1 29  1  0
  3 30  1  0
  7 31  1  0
  7 32  1  0
  9 33  1  0
 10 34  1  0
 11 35  1  0
 12 36  1  0
 13 37  1  0
 17 38  1  0
 21 39  1  0
 21 40  1  0
 21 41  1  0
 22 42  1  0
 23 43  1  0
 24 44  1  0
 27 45  1  0
 27 46  1  0
 27 47  1  0
M  END
>  <UniqueID>  (79) 
77

>  <SMILES>  (79) 
C=c1[nH]c(=O)n(Cc2ccccc2)c(=O)c1=Cc1c(OC)cccc1OC

>  <Energy>  (79) 
73.29739767803784

>  <Genealogy>  (79) 
C=c1[nH]c(=O)n(Cc2ccccc2)c(=O)c1=Cc1c(OC)cccc1OC (3D coordinates assigned)
C=c1[nH]c(=O)n(Cc2ccccc2)c(=O)c1=Cc1c(OC)cccc1OC (optimized conformer: 73.29739767803784 kcal/mol)

>  <smiles>  (79) 
C=c1[nH]c(=O)n(Cc2ccccc2)c(=O)c1=Cc1c(OC)cccc1OC

>  <score_type>  (79) 
oracle

>  <origin>  (79) 
adg

>  <m_score__min__energy>  (79) 
-7.6399999999999997

>  <m_primary>  (79) 
energy

$$$$
79:0
     RDKit          3D

 57 59  0  0  0  0  0  0  0  0999 V2000
   56.7230   29.5130   44.4650 C   0  0  0  0  0  0  0  0  0  0  0  0
   58.1330   28.9920   44.1770 C   0  0  0  0  0  0  0  0  0  0  0  0
   58.4310   27.6850   44.7940 N   0  0  0  0  0  0  0  0  0  0  0  0
   57.9930   26.4690   44.0760 C   0  0  0  0  0  0  0  0  0  0  0  0
   57.4580   25.3560   44.9920 C   0  0  0  0  0  0  0  0  0  0  0  0
   56.2070   25.7780   45.6310 C   0  0  0  0  0  0  0  0  0  0  0  0
   55.2200   26.1090   46.1350 N   0  0  0  0  0  0  0  0  0  0  0  0
   59.9250   27.5950   45.7020 S   0  0  0  0  0  0  0  0  0  0  0  0
   61.0430   28.2140   44.9090 O   0  0  0  0  0  0  0  0  0  0  0  0
   60.2670   26.1480   45.9210 O   0  0  0  0  0  0  0  0  0  0  0  0
   59.8090   28.3830   47.2770 C   0  0  0  0  0  0  0  0  0  0  0  0
   58.8690   29.3950   47.5040 C   0  0  0  0  0  0  0  0  0  0  0  0
   58.7760   30.0040   48.7570 C   0  0  0  0  0  0  0  0  0  0  0  0
   59.6320   29.6250   49.8100 C   0  0  0  0  0  0  0  0  0  0  0  0
   59.4970   30.2850   51.1430 C   0  0  0  0  0  0  0  0  0  0  0  0
   58.6640   29.8110   51.9650 O   0  0  0  0  0  0  0  0  0  0  0  0
   60.3200   31.4240   51.5250 N   0  0  0  0  0  0  0  0  0  0  0  0
   59.5390   32.6620   51.6580 C   0  0  0  0  0  0  0  0  0  0  0  0
   58.9060   33.0930   50.3360 C   0  0  0  0  0  0  0  0  0  0  0  0
   59.8120   32.9820   49.1750 N   0  0  0  0  0  0  0  0  0  0  0  0
   59.3740   33.5210   47.8890 C   0  0  0  0  0  0  0  0  0  0  0  0
   60.0920   34.5570   47.2420 C   0  0  0  0  0  0  0  0  0  0  0  0
   59.6690   35.0650   46.0100 C   0  0  0  0  0  0  0  0  0  0  0  0
   58.5280   34.5560   45.3930 C   0  0  0  0  0  0  0  0  0  0  0  0
   57.8050   33.5350   46.0060 C   0  0  0  0  0  0  0  0  0  0  0  0
   58.2200   33.0200   47.2380 C   0  0  0  0  0  0  0  0  0  0  0  0
   61.0850   32.2300   49.2390 C   0  0  0  0  0  0  0  0  0  0  0  0
   61.4610   31.6510   50.6210 C   0  0  0  0  0  0  0  0  0  0  0  0
   60.5880   28.6170   49.5660 C   0  0  0  0  0  0  0  0  0  0  0  0
   60.6780   28.0100   48.3100 C   0  0  0  0  0  0  0  0  0  0  0  0
   56.5683   29.5702   45.5526 H   0  0  0  0  0  0  0  0  0  0  0  0
   56.6050   30.5141   44.0247 H   0  0  0  0  0  0  0  0  0  0  0  0
   55.9824   28.8292   44.0247 H   0  0  0  0  0  0  0  0  0  0  0  0
   58.2490   28.8940   43.0875 H   0  0  0  0  0  0  0  0  0  0  0  0
   58.8344   29.7168   44.6159 H   0  0  0  0  0  0  0  0  0  0  0  0
   57.1949   26.7515   43.3736 H   0  0  0  0  0  0  0  0  0  0  0  0
   58.8812   26.0629   43.5699 H   0  0  0  0  0  0  0  0  0  0  0  0
   57.2725   24.4518   44.3936 H   0  0  0  0  0  0  0  0  0  0  0  0
   58.2044   25.1459   45.7722 H   0  0  0  0  0  0  0  0  0  0  0  0
   58.1998   29.7123   46.6907 H   0  0  0  0  0  0  0  0  0  0  0  0
   58.0247   30.7899   48.9242 H   0  0  0  0  0  0  0  0  0  0  0  0
   60.7470   31.2170   52.4570 H   0  0  0  0  0  0  0  0  0  0  0  0
   58.7400   32.4986   52.3961 H   0  0  0  0  0  0  0  0  0  0  0  0
   60.2250   33.4599   51.9786 H   0  0  0  0  0  0  0  0  0  0  0  0
   58.0260   32.4596   50.1505 H   0  0  0  0  0  0  0  0  0  0  0  0
   58.6462   34.1570   50.4380 H   0  0  0  0  0  0  0  0  0  0  0  0
   60.9957   34.9678   47.7160 H   0  0  0  0  0  0  0  0  0  0  0  0
   60.2399   35.8707   45.5253 H   0  0  0  0  0  0  0  0  0  0  0  0
   58.1988   34.9595   44.4240 H   0  0  0  0  0  0  0  0  0  0  0  0
   56.9045   33.1326   45.5191 H   0  0  0  0  0  0  0  0  0  0  0  0
   57.6407   32.2124   47.7094 H   0  0  0  0  0  0  0  0  0  0  0  0
   61.0166   31.3916   48.5302 H   0  0  0  0  0  0  0  0  0  0  0  0
   61.8726   32.9594   48.9989 H   0  0  0  0  0  0  0  0  0  0  0  0
   61.9691   30.6884   50.4624 H   0  0  0  0  0  0  0  0  0  0  0  0
   62.0992   32.4023   51.1092 H   0  0  0  0  0  0  0  0  0  0  0  0
   61.2691   28.3056   50.3717 H   0  0  0  0  0  0  0  0  0  0  0  0
   61.4368   27.2338   48.1317 H   0  0  0  0  0  0  0  0  0  0  0  0
  1  2  1  0
  2  3  1  0
  3  4  1  0
  4  5  1  0
  5  6  1  0
  6  7  3  0
  3  8  1  0
  8  9  2  0
  8 10  2  0
  8 11  1  0
 11 12  2  0
 12 13  1  0
 13 14  2  0
 14 15  1  0
 15 16  2  0
 15 17  1  0
 17 18  1  0
 18 19  1  0
 19 20  1  0
 20 21  1  0
 21 22  2  0
 22 23  1  0
 23 24  2  0
 24 25  1  0
 25 26  2  0
 20 27  1  0
 27 28  1  0
 14 29  1  0
 29 30  2  0
 30 11  1  0
 28 17  1  0
 26 21  1  0
  1 31  1  0
  1 32  1  0
  1 33  1  0
  2 34  1  0
  2 35  1  0
  4 36  1  0
  4 37  1  0
  5 38  1  0
  5 39  1  0
 12 40  1  0
 13 41  1  0
 17 42  1  0
 18 43  1  0
 18 44  1  0
 19 45  1  0
 19 46  1  0
 22 47  1  0
 23 48  1  0
 24 49  1  0
 25 50  1  0
 26 51  1  0
 27 52  1  0
 27 53  1  0
 28 54  1  0
 28 55  1  0
 29 56  1  0
 30 57  1  0
M  CHG  1  17   1
M  END
>  <UniqueID>  (80) 
78

>  <SMILES>  (80) 
CCN(CCC#N)S(=O)(=O)c1ccc(C(=O)[NH+]2CCN(c3ccccc3)CC2)cc1

>  <Energy>  (80) 
80.56360016563819

>  <Genealogy>  (80) 
CCN(CCC#N)S(=O)(=O)c1ccc(C(=O)[NH+]2CCN(c3ccccc3)CC2)cc1 (protonated)
CCN(CCC#N)S(=O)(=O)c1ccc(C(=O)[NH+]2CCN(c3ccccc3)CC2)cc1 (3D coordinates assigned)
CCN(CCC#N)S(=O)(=O)c1ccc(C(=O)[NH+]2CCN(c3ccccc3)CC2)cc1 (nonaromatic ring conformer: 80.56360016563819 kcal/mol)

>  <smiles>  (80) 
CCN(CCC#N)S(=O)(=O)c1ccc(C(=O)N2CCN(c3ccccc3)CC2)cc1

>  <score_type>  (80) 
oracle

>  <origin>  (80) 
adg

>  <m_score__min__energy>  (80) 
-7.6699999999999999

>  <m_primary>  (80) 
energy

$$$$
80:0
     RDKit          3D

 30 31  0  0  0  0  0  0  0  0999 V2000
   55.2063   23.9139   46.7331 H   0  0  0  0  0  0  0  0  0  0  0  0
   56.0220   24.6330   46.5670 C   0  0  0  0  0  0  0  0  0  0  0  0
   55.7300   25.9450   46.1820 C   0  0  0  0  0  0  0  0  0  0  0  0
   54.4090   26.3350   45.9930 O   0  0  0  0  0  0  0  0  0  0  0  0
   56.7660   26.8630   45.9810 C   0  0  0  0  0  0  0  0  0  0  0  0
   56.5333   27.8916   45.6681 H   0  0  0  0  0  0  0  0  0  0  0  0
   58.1020   26.4770   46.1770 C   0  0  0  0  0  0  0  0  0  0  0  0
   59.2030   27.4320   45.9460 C   0  0  0  0  0  0  0  0  0  0  0  0
   60.3880   27.0630   46.1580 O   0  0  0  0  0  0  0  0  0  0  0  0
   58.9670   28.7720   45.4990 N   0  0  0  0  0  0  0  0  0  0  0  0
   58.1010   29.7300   46.1760 C   0  0  0  0  0  0  0  0  0  0  0  0
   58.6944   30.6006   46.4920 H   0  0  0  0  0  0  0  0  0  0  0  0
   57.6481   29.2541   47.0582 H   0  0  0  0  0  0  0  0  0  0  0  0
   57.0180   30.1770   45.2390 C   0  0  0  0  0  0  0  0  0  0  0  0
   56.0790   29.3800   44.9760 O   0  0  0  0  0  0  0  0  0  0  0  0
   57.0700   31.4360   44.5500 N   0  0  0  0  0  0  0  0  0  0  0  0
   57.5030   32.5760   45.0080 C   0  0  0  0  0  0  0  0  0  0  0  0
   56.6750   33.5950   45.3020 N   0  0  0  0  0  0  0  0  0  0  0  0
   57.4180   34.5570   45.7660 O   0  0  0  0  0  0  0  0  0  0  0  0
   58.6840   34.2080   45.7900 C   0  0  0  0  0  0  0  0  0  0  0  0
   59.7900   35.0680   46.2970 C   0  0  0  0  0  0  0  0  0  0  0  0
   59.7836   35.0630   47.3970 H   0  0  0  0  0  0  0  0  0  0  0  0
   60.7528   34.6789   45.9342 H   0  0  0  0  0  0  0  0  0  0  0  0
   59.6502   36.0970   45.9342 H   0  0  0  0  0  0  0  0  0  0  0  0
   58.8080   32.9180   45.3190 C   0  0  0  0  0  0  0  0  0  0  0  0
   59.7192   32.3104   45.2158 H   0  0  0  0  0  0  0  0  0  0  0  0
   58.3890   25.1510   46.5400 C   0  0  0  0  0  0  0  0  0  0  0  0
   59.4340   24.8318   46.6667 H   0  0  0  0  0  0  0  0  0  0  0  0
   57.3520   24.2350   46.7410 C   0  0  0  0  0  0  0  0  0  0  0  0
   57.6410   22.9280   47.1130 O   0  0  0  0  0  0  0  0  0  0  0  0
  1  2  1  0
  2  3  2  0
  3  4  1  0
  3  5  1  0
  5  6  1  0
  5  7  2  0
  7  8  1  0
  8  9  2  0
  8 10  1  0
 10 11  1  0
 11 12  1  0
 11 13  1  0
 11 14  1  0
 14 15  2  0
 14 16  1  0
 16 17  2  0
 17 18  1  0
 18 19  1  0
 19 20  1  0
 20 21  1  0
 21 22  1  0
 21 23  1  0
 21 24  1  0
 20 25  2  0
 25 26  1  0
  7 27  1  0
 27 28  1  0
 27 29  2  0
 29 30  1  0
 29  2  1  0
 25 17  1  0
M  CHG  4   4  -1  10  -1  18  -1  30  -1
M  END
>  <UniqueID>  (81) 
79

>  <SMILES>  (81) 
Cc1c/c(=N\C(=O)C[N-]C(=O)c2cc([O-])cc([O-])c2)[n-]o1

>  <Energy>  (81) 
69.5013668281666

>  <Genealogy>  (81) 
Cc1cc(=NC(=O)C[N-]C(=O)c2cc([O-])cc([O-])c2)[n-]o1 (protonated)
Cc1c/c(=N\C(=O)C[N-]C(=O)c2cc([O-])cc([O-])c2)[n-]o1 (cis-trans isomerization)
Cc1c/c(=N\C(=O)C[N-]C(=O)c2cc([O-])cc([O-])c2)[n-]o1 (3D coordinates assigned)
Cc1c/c(=N\C(=O)C[N-]C(=O)c2cc([O-])cc([O-])c2)[n-]o1 (optimized conformer: 69.5013668281666 kcal/mol)

>  <smiles>  (81) 
Cc1cc(=NC(=O)CNC(=O)c2cc(O)cc(O)c2)[nH]o1

>  <score_type>  (81) 
oracle

>  <origin>  (81) 
adg

>  <m_score__min__energy>  (81) 
-14.82

>  <m_primary>  (81) 
energy

$$$$
81:0
     RDKit          3D

 28 28  0  0  0  0  0  0  0  0999 V2000
   57.4010   33.8100   45.4720 C   0  0  0  0  0  0  0  0  0  0  0  0
   58.3120   33.7950   46.6960 C   0  0  0  0  0  0  0  0  0  0  0  0
   58.3800   32.4120   47.3500 C   0  0  0  0  0  0  0  0  0  0  0  0
   58.2130   31.3570   46.3520 N   0  0  0  0  0  0  0  0  0  0  0  0
   59.2080   30.3520   46.1040 C   0  0  0  0  0  0  0  0  0  0  0  0
   60.2840   30.3430   46.7610 O   0  0  0  0  0  0  0  0  0  0  0  0
   58.9890   29.3230   45.0330 C   0  0  0  0  0  0  0  0  0  0  0  0
   58.0120   28.2540   45.4950 C   0  0  0  0  0  0  0  0  0  0  0  0
   56.6120   28.3280   45.2490 C   0  0  0  0  0  0  0  0  0  0  0  0
   55.9400   29.4710   44.5880 C   0  0  0  0  0  0  0  0  0  0  0  0
   54.7710   29.3260   44.1430 O   0  0  0  0  0  0  0  0  0  0  0  0
   56.5350   30.7210   44.4950 O   0  0  0  0  0  0  0  0  0  0  0  0
   55.8200   27.2860   45.6240 N   0  0  0  0  0  0  0  0  0  0  0  0
   56.3210   26.1870   46.2360 C   0  0  0  0  0  0  0  0  0  0  0  0
   55.5520   25.2490   46.5720 O   0  0  0  0  0  0  0  0  0  0  0  0
   57.6470   26.0970   46.4870 N   0  0  0  0  0  0  0  0  0  0  0  0
   58.4990   27.0910   46.1320 C   0  0  0  0  0  0  0  0  0  0  0  0
   59.7280   26.9510   46.3740 O   0  0  0  0  0  0  0  0  0  0  0  0
   56.3503   33.8273   45.7971 H   0  0  0  0  0  0  0  0  0  0  0  0
   57.6128   34.7048   44.8682 H   0  0  0  0  0  0  0  0  0  0  0  0
   57.5832   32.9087   44.8682 H   0  0  0  0  0  0  0  0  0  0  0  0
   59.3254   34.0908   46.3869 H   0  0  0  0  0  0  0  0  0  0  0  0
   57.8973   34.4974   47.4340 H   0  0  0  0  0  0  0  0  0  0  0  0
   59.3572   32.2928   47.8407 H   0  0  0  0  0  0  0  0  0  0  0  0
   57.5684   32.3308   48.0881 H   0  0  0  0  0  0  0  0  0  0  0  0
   57.3680   31.3900   45.7400 H   0  0  0  0  0  0  0  0  0  0  0  0
   58.5845   29.8169   44.1372 H   0  0  0  0  0  0  0  0  0  0  0  0
   59.9524   28.8426   44.8069 H   0  0  0  0  0  0  0  0  0  0  0  0
  1  2  1  0
  2  3  1  0
  3  4  1  0
  4  5  1  0
  5  6  2  0
  5  7  1  0
  7  8  1  0
  8  9  2  0
  9 10  1  0
 10 11  2  0
 10 12  1  0
  9 13  1  0
 13 14  1  0
 14 15  2  0
 14 16  1  0
 16 17  1  0
 17 18  2  0
 17  8  1  0
  1 19  1  0
  1 20  1  0
  1 21  1  0
  2 22  1  0
  2 23  1  0
  3 24  1  0
  3 25  1  0
  4 26  1  0
  7 27  1  0
  7 28  1  0
M  CHG  3  12  -1  13  -1  16  -1
M  END
>  <UniqueID>  (82) 
80

>  <SMILES>  (82) 
CCCNC(=O)Cc1c(C(=O)[O-])[n-]c(=O)[n-]c1=O

>  <Energy>  (82) 
26.17039795571249

>  <Genealogy>  (82) 
CCCNC(=O)Cc1c(C(=O)[O-])[n-]c(=O)[n-]c1=O (protonated)
CCCNC(=O)Cc1c(C(=O)[O-])[n-]c(=O)[n-]c1=O (3D coordinates assigned)
CCCNC(=O)Cc1c(C(=O)[O-])[n-]c(=O)[n-]c1=O (optimized conformer: 26.17039795571249 kcal/mol)

>  <smiles>  (82) 
CCCNC(=O)Cc1c(C(=O)O)[nH]c(=O)[nH]c1=O

>  <score_type>  (82) 
oracle

>  <origin>  (82) 
adg

>  <m_score__min__energy>  (82) 
-12.33

>  <m_primary>  (82) 
energy

$$$$
82:0
     RDKit          3D

 73 76  0  0  0  0  0  0  0  0999 V2000
   62.0420   29.4680   50.9690 C   0  0  0  0  0  0  0  0  0  0  0  0
   61.4710   28.1910   50.3360 C   0  0  0  0  0  0  0  0  0  0  0  0
   60.3140   28.3970   49.4060 N   0  0  1  0  0  0  0  0  0  0  0  0
   60.1770   29.8000   48.9310 C   0  0  0  0  0  0  0  0  0  0  0  0
   58.8920   30.4890   49.3130 C   0  0  0  0  0  0  0  0  0  0  0  0
   58.5420   31.5350   48.6900 O   0  0  0  0  0  0  0  0  0  0  0  0
   58.0650   29.9510   50.3520 N   0  0  0  0  0  0  0  0  0  0  0  0
   58.1020   30.3620   51.7270 C   0  0  0  0  0  0  0  0  0  0  0  0
   57.4590   31.5440   52.1450 C   0  0  0  0  0  0  0  0  0  0  0  0
   57.4660   31.9110   53.4920 C   0  0  0  0  0  0  0  0  0  0  0  0
   58.1000   31.0920   54.4350 C   0  0  0  0  0  0  0  0  0  0  0  0
   58.7340   29.9100   54.0290 C   0  0  0  0  0  0  0  0  0  0  0  0
   58.7330   29.5310   52.6720 C   0  0  0  0  0  0  0  0  0  0  0  0
   59.3570   28.3540   52.2210 O   0  0  0  0  0  0  0  0  0  0  0  0
   59.8970   27.3460   53.0750 C   0  0  0  0  0  0  0  0  0  0  0  0
   60.2210   27.4230   48.3220 C   0  0  0  0  0  0  0  0  0  0  0  0
   61.1810   26.6330   48.1070 O   0  0  0  0  0  0  0  0  0  0  0  0
   59.0050   27.2950   47.4660 C   0  0  0  0  0  0  0  0  0  0  0  0
   58.2510   26.1080   47.5010 C   0  0  0  0  0  0  0  0  0  0  0  0
   57.0790   25.9840   46.7530 C   0  0  0  0  0  0  0  0  0  0  0  0
   56.6510   27.0360   45.9430 C   0  0  0  0  0  0  0  0  0  0  0  0
   57.3990   28.2210   45.8800 C   0  0  0  0  0  0  0  0  0  0  0  0
   56.8540   29.5850   44.9080 S   0  0  0  0  0  0  0  0  0  0  0  0
   57.3290   29.3790   43.4970 O   0  0  0  0  0  0  0  0  0  0  0  0
   55.3500   29.6690   44.9120 O   0  0  0  0  0  0  0  0  0  0  0  0
   57.5400   31.0530   45.5560 N   0  0  0  0  0  0  0  0  0  0  0  0
   57.0050   32.2190   44.8270 C   0  0  0  0  0  0  0  0  0  0  0  0
   57.6890   33.5220   45.2900 C   0  0  0  0  0  0  0  0  0  0  0  0
   58.5570   33.2600   46.4550 N   0  0  0  0  0  0  0  0  0  0  0  0
   59.1320   34.5090   46.9930 C   0  0  0  0  0  0  0  0  0  0  0  0
   60.1830   34.1900   48.0280 C   0  0  0  0  0  0  0  0  0  0  0  0
   59.8160   34.0500   49.3790 C   0  0  0  0  0  0  0  0  0  0  0  0
   60.7880   33.8150   50.3500 C   0  0  0  0  0  0  0  0  0  0  0  0
   62.1340   33.7220   49.9840 C   0  0  0  0  0  0  0  0  0  0  0  0
   62.5090   33.8510   48.6420 C   0  0  0  0  0  0  0  0  0  0  0  0
   61.5360   34.0860   47.6670 C   0  0  0  0  0  0  0  0  0  0  0  0
   59.6130   32.3030   46.0810 C   0  0  0  0  0  0  0  0  0  0  0  0
   59.0090   31.0260   45.4510 C   0  0  0  0  0  0  0  0  0  0  0  0
   58.5670   28.3490   46.6390 C   0  0  0  0  0  0  0  0  0  0  0  0
   62.0038   29.3826   52.0650 H   0  0  0  0  0  0  0  0  0  0  0  0
   63.0855   29.6015   50.6477 H   0  0  0  0  0  0  0  0  0  0  0  0
   61.4457   30.3347   50.6477 H   0  0  0  0  0  0  0  0  0  0  0  0
   62.2781   27.7022   49.7706 H   0  0  0  0  0  0  0  0  0  0  0  0
   61.0860   27.5853   51.1696 H   0  0  0  0  0  0  0  0  0  0  0  0
   59.4520   28.2750   49.9900 H   0  0  0  0  0  0  0  0  0  0  0  0
   61.0116   30.3826   49.3482 H   0  0  0  0  0  0  0  0  0  0  0  0
   60.1790   29.7497   47.8322 H   0  0  0  0  0  0  0  0  0  0  0  0
   56.9492   32.1805   51.4067 H   0  0  0  0  0  0  0  0  0  0  0  0
   56.9745   32.8416   53.8121 H   0  0  0  0  0  0  0  0  0  0  0  0
   58.1002   31.3774   55.4973 H   0  0  0  0  0  0  0  0  0  0  0  0
   59.2352   29.2745   54.7740 H   0  0  0  0  0  0  0  0  0  0  0  0
   59.7427   27.6340   54.1253 H   0  0  0  0  0  0  0  0  0  0  0  0
   59.3906   26.3894   52.8789 H   0  0  0  0  0  0  0  0  0  0  0  0
   60.9739   27.2377   52.8789 H   0  0  0  0  0  0  0  0  0  0  0  0
   58.5889   25.2676   48.1252 H   0  0  0  0  0  0  0  0  0  0  0  0
   56.4919   25.0551   46.8023 H   0  0  0  0  0  0  0  0  0  0  0  0
   55.7274   26.9363   45.3540 H   0  0  0  0  0  0  0  0  0  0  0  0
   57.1828   32.0825   43.7501 H   0  0  0  0  0  0  0  0  0  0  0  0
   55.9272   32.2967   45.0329 H   0  0  0  0  0  0  0  0  0  0  0  0
   58.2981   33.9241   44.4670 H   0  0  0  0  0  0  0  0  0  0  0  0
   56.9153   34.2493   45.5771 H   0  0  0  0  0  0  0  0  0  0  0  0
   59.5902   35.0817   46.1732 H   0  0  0  0  0  0  0  0  0  0  0  0
   58.3326   35.1020   47.4613 H   0  0  0  0  0  0  0  0  0  0  0  0
   58.7580   34.1263   49.6701 H   0  0  0  0  0  0  0  0  0  0  0  0
   60.4959   33.7027   51.4045 H   0  0  0  0  0  0  0  0  0  0  0  0
   62.9006   33.5469   50.7532 H   0  0  0  0  0  0  0  0  0  0  0  0
   63.5677   33.7676   48.3552 H   0  0  0  0  0  0  0  0  0  0  0  0
   61.8311   34.1899   46.6124 H   0  0  0  0  0  0  0  0  0  0  0  0
   60.2873   32.7782   45.3534 H   0  0  0  0  0  0  0  0  0  0  0  0
   60.1638   32.0177   46.9894 H   0  0  0  0  0  0  0  0  0  0  0  0
   59.2966   30.9730   44.3906 H   0  0  0  0  0  0  0  0  0  0  0  0
   59.3912   30.1454   45.9882 H   0  0  0  0  0  0  0  0  0  0  0  0
   59.1492   29.2810   46.5900 H   0  0  0  0  0  0  0  0  0  0  0  0
  1  2  1  0
  2  3  1  0
  3  4  1  0
  4  5  1  0
  5  6  2  0
  5  7  1  0
  7  8  1  0
  8  9  2  0
  9 10  1  0
 10 11  2  0
 11 12  1  0
 12 13  2  0
 13 14  1  0
 14 15  1  0
  3 16  1  0
 16 17  2  0
 16 18  1  0
 18 19  2  0
 19 20  1  0
 20 21  2  0
 21 22  1  0
 22 23  1  0
 23 24  2  0
 23 25  2  0
 23 26  1  0
 26 27  1  0
 27 28  1  0
 28 29  1  0
 29 30  1  0
 30 31  1  0
 31 32  2  0
 32 33  1  0
 33 34  2  0
 34 35  1  0
 35 36  2  0
 29 37  1  0
 37 38  1  0
 22 39  2  0
 13  8  1  0
 39 18  1  0
 38 26  1  0
 36 31  1  0
  1 40  1  0
  1 41  1  0
  1 42  1  0
  2 43  1  0
  2 44  1  0
  3 45  1  1
  4 46  1  0
  4 47  1  0
  9 48  1  0
 10 49  1  0
 11 50  1  0
 12 51  1  0
 15 52  1  0
 15 53  1  0
 15 54  1  0
 19 55  1  0
 20 56  1  0
 21 57  1  0
 27 58  1  0
 27 59  1  0
 28 60  1  0
 28 61  1  0
 30 62  1  0
 30 63  1  0
 32 64  1  0
 33 65  1  0
 34 66  1  0
 35 67  1  0
 36 68  1  0
 37 69  1  0
 37 70  1  0
 38 71  1  0
 38 72  1  0
 39 73  1  0
M  CHG  2   3   1   7  -1
M  END
>  <UniqueID>  (83) 
81

>  <SMILES>  (83) 
CC[N@@H+](CC(=O)[N-]c1ccccc1OC)C(=O)c1cccc(S(=O)(=O)N2CCN(Cc3ccccc3)CC2)c1

>  <Energy>  (83) 
97.44929366158865

>  <Genealogy>  (83) 
CC[NH+](CC(=O)[N-]c1ccccc1OC)C(=O)c1cccc(S(=O)(=O)N2CCN(Cc3ccccc3)CC2)c1 (protonated)
CC[N@@H+](CC(=O)[N-]c1ccccc1OC)C(=O)c1cccc(S(=O)(=O)N2CCN(Cc3ccccc3)CC2)c1 (chirality)
CC[N@@H+](CC(=O)[N-]c1ccccc1OC)C(=O)c1cccc(S(=O)(=O)N2CCN(Cc3ccccc3)CC2)c1 (3D coordinates assigned)
CC[N@@H+](CC(=O)[N-]c1ccccc1OC)C(=O)c1cccc(S(=O)(=O)N2CCN(Cc3ccccc3)CC2)c1 (nonaromatic ring conformer: 97.44929366158865 kcal/mol)

>  <smiles>  (83) 
CCN(CC(=O)Nc1ccccc1OC)C(=O)c1cccc(S(=O)(=O)N2CCN(Cc3ccccc3)CC2)c1

>  <score_type>  (83) 
oracle

>  <origin>  (83) 
adg

>  <m_score__min__energy>  (83) 
-11.460000000000001

>  <m_primary>  (83) 
energy

$$$$
83:0
     RDKit          3D

 40 42  0  0  0  0  0  0  0  0999 V2000
   55.9970   21.3350   50.3430 O   0  0  0  0  0  0  0  0  0  0  0  0
   57.1220   21.7930   50.0020 C   0  0  0  0  0  0  0  0  0  0  0  0
   58.2310   21.8840   51.0100 C   0  0  0  0  0  0  0  0  0  0  0  0
   58.8400   20.5170   51.3470 C   0  0  0  0  0  0  0  0  0  0  0  0
   59.5680   19.9250   50.1760 C   0  0  0  0  0  0  0  0  0  0  0  0
   60.9070   19.8850   50.0700 N   0  0  0  0  0  0  0  0  0  0  0  0
   61.1070   19.2920   48.8740 C   0  0  0  0  0  0  0  0  0  0  0  0
   62.2570   19.0550   48.4200 O   0  0  0  0  0  0  0  0  0  0  0  0
   59.9810   18.9630   48.2060 N   0  0  0  0  0  0  0  0  0  0  0  0
   59.0120   19.3700   49.0430 C   0  0  0  0  0  0  0  0  0  0  0  0
   57.6530   19.2260   48.7720 O   0  0  0  0  0  0  0  0  0  0  0  0
   57.3960   22.1170   48.6330 N   0  0  0  0  0  0  0  0  0  0  0  0
   56.7620   23.1460   47.8600 C   0  0  0  0  0  0  0  0  0  0  0  0
   55.5100   22.8810   47.2960 C   0  0  0  0  0  0  0  0  0  0  0  0
   54.8480   23.8590   46.5540 C   0  0  0  0  0  0  0  0  0  0  0  0
   55.4350   25.1120   46.3560 C   0  0  0  0  0  0  0  0  0  0  0  0
   54.7530   26.0610   45.6000 O   0  0  0  0  0  0  0  0  0  0  0  0
   56.7100   25.3910   46.8920 C   0  0  0  0  0  0  0  0  0  0  0  0
   57.3580   26.7110   46.6820 C   0  0  0  0  0  0  0  0  0  0  0  0
   58.1120   27.1890   47.5720 O   0  0  0  0  0  0  0  0  0  0  0  0
   57.2390   27.4110   45.4370 N   0  0  0  0  0  0  0  0  0  0  0  0
   57.5050   28.6640   45.1840 C   0  0  0  0  0  0  0  0  0  0  0  0
   58.8090   29.0560   45.2410 N   0  0  0  0  0  0  0  0  0  0  0  0
   59.2010   30.3340   44.9980 C   0  0  0  0  0  0  0  0  0  0  0  0
   58.2550   31.3030   44.6680 C   0  0  0  0  0  0  0  0  0  0  0  0
   56.9090   30.9510   44.6200 C   0  0  0  0  0  0  0  0  0  0  0  0
   56.5140   29.6380   44.8920 C   0  0  0  0  0  0  0  0  0  0  0  0
   55.1550   29.3460   44.9090 O   0  0  0  0  0  0  0  0  0  0  0  0
   57.3720   24.3930   47.6350 C   0  0  0  0  0  0  0  0  0  0  0  0
   59.0226   22.5313   50.6045 H   0  0  0  0  0  0  0  0  0  0  0  0
   57.8039   22.2945   51.9369 H   0  0  0  0  0  0  0  0  0  0  0  0
   59.5470   20.6384   52.1809 H   0  0  0  0  0  0  0  0  0  0  0  0
   58.0200   19.8359   51.6185 H   0  0  0  0  0  0  0  0  0  0  0  0
   57.0040   19.9900   48.9090 H   0  0  0  0  0  0  0  0  0  0  0  0
   55.0443   21.8947   47.4385 H   0  0  0  0  0  0  0  0  0  0  0  0
   53.8594   23.6433   46.1226 H   0  0  0  0  0  0  0  0  0  0  0  0
   60.2654   30.6041   45.0617 H   0  0  0  0  0  0  0  0  0  0  0  0
   58.5685   32.3342   44.4480 H   0  0  0  0  0  0  0  0  0  0  0  0
   56.1532   31.7091   44.3670 H   0  0  0  0  0  0  0  0  0  0  0  0
   58.3744   24.5911   48.0424 H   0  0  0  0  0  0  0  0  0  0  0  0
  1  2  2  0
  2  3  1  0
  3  4  1  0
  4  5  1  0
  5  6  1  0
  6  7  1  0
  7  8  2  0
  7  9  1  0
  9 10  1  0
 10 11  1  0
  2 12  1  0
 12 13  1  0
 13 14  2  0
 14 15  1  0
 15 16  2  0
 16 17  1  0
 16 18  1  0
 18 19  1  0
 19 20  2  0
 19 21  1  0
 21 22  2  3
 22 23  1  0
 23 24  1  0
 24 25  2  0
 25 26  1  0
 26 27  2  0
 27 28  1  0
 18 29  2  0
 10  5  2  0
 29 13  1  0
 27 22  1  0
  3 30  1  0
  3 31  1  0
  4 32  1  0
  4 33  1  0
 11 34  1  0
 14 35  1  0
 15 36  1  0
 24 37  1  0
 25 38  1  0
 26 39  1  0
 29 40  1  0
M  CHG  6   6  -1   9  -1  12  -1  17  -1  23  -1  28  -1
M  END
>  <UniqueID>  (84) 
82

>  <SMILES>  (84) 
O=C(CCc1[n-]c(=O)[n-]c1O)[N-]c1ccc([O-])c(C(=O)N=c2[n-]cccc2[O-])c1

>  <Energy>  (84) 
86.65153670099892

>  <Genealogy>  (84) 
O=C(CCc1[n-]c(=O)[n-]c1O)[N-]c1ccc([O-])c(C(=O)N=c2[n-]cccc2[O-])c1 (protonated)
O=C(CCc1[n-]c(=O)[n-]c1O)[N-]c1ccc([O-])c(C(=O)N=c2[n-]cccc2[O-])c1 (3D coordinates assigned)
O=C(CCc1[n-]c(=O)[n-]c1O)[N-]c1ccc([O-])c(C(=O)N=c2[n-]cccc2[O-])c1 (optimized conformer: 86.65153670099892 kcal/mol)

>  <smiles>  (84) 
O=C(CCc1[nH]c(=O)[nH]c1O)Nc1ccc(O)c(C(=O)N=c2[nH]cccc2O)c1

>  <score_type>  (84) 
oracle

>  <origin>  (84) 
adg

>  <m_score__min__energy>  (84) 
-18.620000000000001

>  <m_primary>  (84) 
energy

$$$$
84:0
     RDKit          3D

 69 73  0  0  0  0  0  0  0  0999 V2000
   57.7610   23.6960   43.2310 H   0  0  0  0  0  0  0  0  0  0  0  0
   58.0770   23.8360   44.2150 N   0  0  0  0  0  0  0  0  0  0  0  0
   57.7870   24.8710   44.9470 C   0  0  0  0  0  0  0  0  0  0  0  0
   57.6680   26.1750   44.3910 C   0  0  0  0  0  0  0  0  0  0  0  0
   57.7880   26.3960   42.8960 C   0  0  0  0  0  0  0  0  0  0  0  0
   58.3050   27.3482   42.7065 H   0  0  0  0  0  0  0  0  0  0  0  0
   58.3623   25.5715   42.4484 H   0  0  0  0  0  0  0  0  0  0  0  0
   56.7837   26.4286   42.4484 H   0  0  0  0  0  0  0  0  0  0  0  0
   57.4350   27.2620   45.2760 C   0  0  0  0  0  0  0  0  0  0  0  0
   57.4170   28.6690   44.8190 C   0  0  0  0  0  0  0  0  0  0  0  0
   56.2000   29.3500   44.6730 C   0  0  0  0  0  0  0  0  0  0  0  0
   55.2537   28.8328   44.8897 H   0  0  0  0  0  0  0  0  0  0  0  0
   56.1840   30.6810   44.2540 C   0  0  0  0  0  0  0  0  0  0  0  0
   55.2250   31.2063   44.1345 H   0  0  0  0  0  0  0  0  0  0  0  0
   57.3890   31.3530   43.9840 C   0  0  0  0  0  0  0  0  0  0  0  0
   57.4010   32.7540   43.6660 N   0  0  0  0  0  0  0  0  0  0  0  0
   57.7130   33.0430   42.7130 H   0  0  0  0  0  0  0  0  0  0  0  0
   57.3090   33.7940   44.6910 C   0  0  0  0  0  0  0  0  0  0  0  0
   57.4376   34.7804   44.2214 H   0  0  0  0  0  0  0  0  0  0  0  0
   56.3231   33.7366   45.1755 H   0  0  0  0  0  0  0  0  0  0  0  0
   58.3830   33.5920   45.7300 C   0  0  0  0  0  0  0  0  0  0  0  0
   59.6150   34.2390   45.5970 C   0  0  0  0  0  0  0  0  0  0  0  0
   59.7662   34.9671   44.7865 H   0  0  0  0  0  0  0  0  0  0  0  0
   60.6520   33.9660   46.4860 C   0  0  0  0  0  0  0  0  0  0  0  0
   61.6143   34.4869   46.3736 H   0  0  0  0  0  0  0  0  0  0  0  0
   60.4850   33.0320   47.5270 C   0  0  0  0  0  0  0  0  0  0  0  0
   61.6500   32.6790   48.4500 C   0  0  0  0  0  0  0  0  0  0  0  0
   61.1654   32.2472   49.3381 H   0  0  0  0  0  0  0  0  0  0  0  0
   62.6140   31.7020   47.7820 C   0  0  0  0  0  0  0  0  0  0  0  0
   63.0053   30.9877   48.5213 H   0  0  0  0  0  0  0  0  0  0  0  0
   62.1119   31.1201   46.9951 H   0  0  0  0  0  0  0  0  0  0  0  0
   63.7460   32.5420   47.2110 C   0  0  0  0  0  0  0  0  0  0  0  0
   64.7032   32.0108   47.3186 H   0  0  0  0  0  0  0  0  0  0  0  0
   63.5901   32.7384   46.1400 H   0  0  0  0  0  0  0  0  0  0  0  0
   63.7750   33.8440   48.0080 C   0  0  0  0  0  0  0  0  0  0  0  0
   64.6604   33.8665   48.6603 H   0  0  0  0  0  0  0  0  0  0  0  0
   63.8259   34.7121   47.3343 H   0  0  0  0  0  0  0  0  0  0  0  0
   62.5040   33.8880   48.8510 C   0  0  0  0  0  0  0  0  0  0  0  0
   62.7587   33.8314   49.9196 H   0  0  0  0  0  0  0  0  0  0  0  0
   61.9556   34.8263   48.6809 H   0  0  0  0  0  0  0  0  0  0  0  0
   59.2520   32.3490   47.6450 C   0  0  0  0  0  0  0  0  0  0  0  0
   59.1170   31.3570   48.6340 O   0  0  0  0  0  0  0  0  0  0  0  0
   59.2260   29.9450   48.4360 C   0  0  0  0  0  0  0  0  0  0  0  0
   58.2253   29.5261   48.2538 H   0  0  0  0  0  0  0  0  0  0  0  0
   60.1280   29.6800   47.2280 C   0  0  0  0  0  0  0  0  0  0  0  0
   59.6391   30.0705   46.3233 H   0  0  0  0  0  0  0  0  0  0  0  0
   61.0917   30.1826   47.3973 H   0  0  0  0  0  0  0  0  0  0  0  0
   60.3920   28.1670   47.0450 C   0  0  0  0  0  0  0  0  0  0  0  0
   59.8600   27.8253   46.1449 H   0  0  0  0  0  0  0  0  0  0  0  0
   61.4802   28.0325   46.9566 H   0  0  0  0  0  0  0  0  0  0  0  0
   59.9580   27.3880   48.1490 O   0  0  0  0  0  0  0  0  0  0  0  0
   60.4820   27.9220   49.3490 C   0  0  0  0  0  0  0  0  0  0  0  0
   60.3014   27.2111   50.1688 H   0  0  0  0  0  0  0  0  0  0  0  0
   61.5611   28.0902   49.2176 H   0  0  0  0  0  0  0  0  0  0  0  0
   59.8120   29.2660   49.6900 C   0  0  0  0  0  0  0  0  0  0  0  0
   59.0005   29.0871   50.4107 H   0  0  0  0  0  0  0  0  0  0  0  0
   60.5768   29.9325   50.1152 H   0  0  0  0  0  0  0  0  0  0  0  0
   58.2040   32.6560   46.7560 C   0  0  0  0  0  0  0  0  0  0  0  0
   57.2318   32.1539   46.8690 H   0  0  0  0  0  0  0  0  0  0  0  0
   58.6020   30.6540   44.0790 C   0  0  0  0  0  0  0  0  0  0  0  0
   59.5457   31.1585   43.8243 H   0  0  0  0  0  0  0  0  0  0  0  0
   58.6170   29.3220   44.4950 C   0  0  0  0  0  0  0  0  0  0  0  0
   59.5723   28.7818   44.5693 H   0  0  0  0  0  0  0  0  0  0  0  0
   57.2440   27.0130   46.6400 C   0  0  0  0  0  0  0  0  0  0  0  0
   57.0261   27.8445   47.3264 H   0  0  0  0  0  0  0  0  0  0  0  0
   57.3300   25.7140   47.1260 C   0  0  0  0  0  0  0  0  0  0  0  0
   57.1737   25.5188   48.1972 H   0  0  0  0  0  0  0  0  0  0  0  0
   57.6060   24.6850   46.2850 N   0  0  0  0  0  0  0  0  0  0  0  0
   57.6870   23.7230   46.6910 H   0  0  0  0  0  0  0  0  0  0  0  0
  1  2  1  0
  2  3  2  0
  3  4  1  0
  4  5  1  0
  5  6  1  0
  5  7  1  0
  5  8  1  0
  4  9  2  0
  9 10  1  0
 10 11  2  0
 11 12  1  0
 11 13  1  0
 13 14  1  0
 13 15  2  0
 15 16  1  0
 16 17  1  0
 16 18  1  0
 18 19  1  0
 18 20  1  0
 18 21  1  0
 21 22  2  0
 22 23  1  0
 22 24  1  0
 24 25  1  0
 24 26  2  0
 26 27  1  0
 27 28  1  0
 27 29  1  0
 29 30  1  0
 29 31  1  0
 29 32  1  0
 32 33  1  0
 32 34  1  0
 32 35  1  0
 35 36  1  0
 35 37  1  0
 35 38  1  0
 38 39  1  0
 38 40  1  0
 26 41  1  0
 41 42  1  0
 42 43  1  0
 43 44  1  0
 43 45  1  0
 45 46  1  0
 45 47  1  0
 45 48  1  0
 48 49  1  0
 48 50  1  0
 48 51  1  0
 51 52  1  0
 52 53  1  0
 52 54  1  0
 52 55  1  0
 55 56  1  0
 55 57  1  0
 41 58  2  0
 58 59  1  0
 15 60  1  0
 60 61  1  0
 60 62  2  0
 62 63  1  0
  9 64  1  0
 64 65  1  0
 64 66  2  0
 66 67  1  0
 66 68  1  0
 68 69  1  0
 68  3  1  0
 62 10  1  0
 58 21  1  0
 38 27  1  0
 55 43  1  0
M  END
>  <UniqueID>  (85) 
83

>  <SMILES>  (85) 
[H]/N=c1/[nH]ccc(-c2ccc(NCc3ccc(C4CCCC4)c(OC4CCOCC4)c3)cc2)c1C

>  <Energy>  (85) 
91.73409504894661

>  <Genealogy>  (85) 
[H]/N=c1/[nH]ccc(-c2ccc(NCc3ccc(C4CCCC4)c(OC4CCOCC4)c3)cc2)c1C (cis-trans isomerization)
[H]/N=c1/[nH]ccc(-c2ccc(NCc3ccc(C4CCCC4)c(OC4CCOCC4)c3)cc2)c1C (3D coordinates assigned)
[H]/N=c1/[nH]ccc(-c2ccc(NCc3ccc(C4CCCC4)c(OC4CCOCC4)c3)cc2)c1C (nonaromatic ring conformer: 91.73409504894661 kcal/mol)

>  <smiles>  (85) 
Cc1c(-c2ccc(NCc3ccc(C4CCCC4)c(OC4CCOCC4)c3)cc2)cc[nH]c1=N

>  <score_type>  (85) 
oracle

>  <origin>  (85) 
adg

>  <m_score__min__energy>  (85) 
-10.41

>  <m_primary>  (85) 
energy

$$$$
85:0
     RDKit          3D

 34 35  0  0  0  0  0  0  0  0999 V2000
   59.5890   34.4030   47.1700 C   0  0  0  0  0  0  0  0  0  0  0  0
   59.8940   33.7490   45.8260 C   0  0  0  0  0  0  0  0  0  0  0  0
   58.8640   32.6890   45.4980 C   0  0  0  0  0  0  0  0  0  0  0  0
   59.1990   31.3390   45.6600 C   0  0  0  0  0  0  0  0  0  0  0  0
   58.2920   30.3480   45.4110 N   0  0  0  0  0  0  0  0  0  0  0  0
   58.7210   28.9420   45.5740 C   0  0  2  0  0  0  0  0  0  0  0  0
   58.6300   28.1800   44.2670 C   0  0  0  0  0  0  0  0  0  0  0  0
   58.4890   26.7580   44.7370 C   0  0  2  0  0  0  0  0  0  0  0  0
   57.6510   26.0340   43.8700 O   0  0  0  0  0  0  0  0  0  0  0  0
   57.9250   26.9060   46.1670 C   0  0  2  0  0  0  0  0  0  0  0  0
   56.5150   26.3280   46.3670 C   0  0  0  0  0  0  0  0  0  0  0  0
   55.5750   27.0570   45.6280 O   0  0  0  0  0  0  0  0  0  0  0  0
   57.9270   28.2730   46.5260 O   0  0  0  0  0  0  0  0  0  0  0  0
   57.0350   30.6800   44.9700 C   0  0  0  0  0  0  0  0  0  0  0  0
   56.1920   29.7840   44.6960 O   0  0  0  0  0  0  0  0  0  0  0  0
   56.6800   31.9850   44.8210 N   0  0  0  0  0  0  0  0  0  0  0  0
   57.5530   32.9950   45.0810 C   0  0  0  0  0  0  0  0  0  0  0  0
   57.0460   34.5490   44.8960 S   0  0  0  0  0  0  0  0  0  0  0  0
   59.9019   33.7321   47.9836 H   0  0  0  0  0  0  0  0  0  0  0  0
   60.1366   35.3539   47.2477 H   0  0  0  0  0  0  0  0  0  0  0  0
   58.5086   34.5946   47.2477 H   0  0  0  0  0  0  0  0  0  0  0  0
   59.8828   34.5183   45.0398 H   0  0  0  0  0  0  0  0  0  0  0  0
   60.8842   33.2732   45.8820 H   0  0  0  0  0  0  0  0  0  0  0  0
   60.2122   31.0712   45.9943 H   0  0  0  0  0  0  0  0  0  0  0  0
   59.7668   28.9729   45.9136 H   0  0  0  0  0  0  0  0  0  0  0  0
   57.7536   28.4953   43.6817 H   0  0  0  0  0  0  0  0  0  0  0  0
   59.4904   28.3415   43.6010 H   0  0  0  0  0  0  0  0  0  0  0  0
   59.4294   26.1873   44.7402 H   0  0  0  0  0  0  0  0  0  0  0  0
   56.7660   26.4810   43.8950 H   0  0  0  0  0  0  0  0  0  0  0  0
   58.5852   26.3124   46.8164 H   0  0  0  0  0  0  0  0  0  0  0  0
   56.5031   25.2798   46.0335 H   0  0  0  0  0  0  0  0  0  0  0  0
   56.2537   26.3904   47.4337 H   0  0  0  0  0  0  0  0  0  0  0  0
   56.0940   27.5910   44.9730 H   0  0  0  0  0  0  0  0  0  0  0  0
   55.7120   32.2090   44.4970 H   0  0  0  0  0  0  0  0  0  0  0  0
  1  2  1  0
  2  3  1  0
  3  4  2  0
  4  5  1  0
  5  6  1  0
  6  7  1  0
  7  8  1  0
  8  9  1  0
  8 10  1  0
 10 11  1  0
 11 12  1  0
 10 13  1  0
  5 14  1  0
 14 15  2  0
 14 16  1  0
 16 17  1  0
 17 18  2  0
 17  3  1  0
 13  6  1  0
  1 19  1  0
  1 20  1  0
  1 21  1  0
  2 22  1  0
  2 23  1  0
  4 24  1  0
  6 25  1  1
  7 26  1  0
  7 27  1  0
  8 28  1  1
  9 29  1  0
 10 30  1  1
 11 31  1  0
 11 32  1  0
 12 33  1  0
 16 34  1  0
M  END
>  <UniqueID>  (86) 
84

>  <SMILES>  (86) 
CCc1cn([C@@H]2C[C@H](O)C(CO)O2)c(=O)[nH]c1=S

>  <Energy>  (86) 
37.48120468552908

>  <Genealogy>  (86) 
CCc1cn([C@@H]2C[C@H](O)C(CO)O2)c(=O)[nH]c1=S (chirality)
CCc1cn([C@@H]2C[C@H](O)C(CO)O2)c(=O)[nH]c1=S (3D coordinates assigned)
CCc1cn([C@@H]2C[C@H](O)C(CO)O2)c(=O)[nH]c1=S (nonaromatic ring conformer: 37.48120468552908 kcal/mol)

>  <smiles>  (86) 
CCc1cn(C2CC(O)C(CO)O2)c(=O)[nH]c1=S

>  <score_type>  (86) 
oracle

>  <origin>  (86) 
adg

>  <m_score__min__energy>  (86) 
-6.4000000000000004

>  <m_primary>  (86) 
energy

$$$$
86:0
     RDKit          3D

 67 70  0  0  0  0  0  0  0  0999 V2000
   56.3530   23.6710   43.6970 C   0  0  0  0  0  0  0  0  0  0  0  0
   56.8490   24.1300   45.0760 C   0  0  0  0  0  0  0  0  0  0  0  0
   57.0060   22.9100   45.9980 C   0  0  0  0  0  0  0  0  0  0  0  0
   58.1730   24.9160   44.9300 C   0  0  0  0  0  0  0  0  0  0  0  0
   58.2460   26.0720   45.8420 N   0  0  0  0  0  0  0  0  0  0  0  0
   58.7800   25.9430   47.1740 C   0  0  0  0  0  0  0  0  0  0  0  0
   58.0810   25.4010   48.0730 O   0  0  0  0  0  0  0  0  0  0  0  0
   60.1290   26.4940   47.5410 C   0  0  0  0  0  0  0  0  0  0  0  0
   60.0340   27.4540   48.6370 N   0  0  0  0  0  0  0  0  0  0  0  0
   60.2730   28.8580   48.4520 C   0  0  0  0  0  0  0  0  0  0  0  0
   60.4110   29.3200   47.2890 O   0  0  0  0  0  0  0  0  0  0  0  0
   60.3370   29.7670   49.6140 C   0  0  0  0  0  0  0  0  0  0  0  0
   59.3010   29.9830   50.2950 O   0  0  0  0  0  0  0  0  0  0  0  0
   61.5890   30.4410   49.9990 C   0  0  0  0  0  0  0  0  0  0  0  0
   62.3850   30.1220   51.0940 C   0  0  0  0  0  0  0  0  0  0  0  0
   63.4850   30.9080   51.1260 N   0  0  0  0  0  0  0  0  0  0  0  0
   63.4030   31.7080   50.0480 C   0  0  0  0  0  0  0  0  0  0  0  0
   64.3330   32.6550   49.6300 C   0  0  0  0  0  0  0  0  0  0  0  0
   64.0810   33.3470   48.4340 C   0  0  0  0  0  0  0  0  0  0  0  0
   62.9060   33.0910   47.6740 C   0  0  0  0  0  0  0  0  0  0  0  0
   62.6560   33.8150   46.4530 N   0  0  0  0  0  0  0  0  0  0  0  0
   63.6020   34.1770   45.7220 O   0  0  0  0  0  0  0  0  0  0  0  0
   61.3710   34.1380   46.0840 O   0  0  0  0  0  0  0  0  0  0  0  0
   61.9920   32.1110   48.1280 C   0  0  0  0  0  0  0  0  0  0  0  0
   62.2600   31.4550   49.3310 C   0  0  0  0  0  0  0  0  0  0  0  0
   57.6510   27.3300   45.4690 C   0  0  0  0  0  0  0  0  0  0  0  0
   58.4190   28.3940   44.9410 C   0  0  0  0  0  0  0  0  0  0  0  0
   59.8190   28.1710   44.6640 N   0  0  0  0  0  0  0  0  0  0  0  0
   57.8060   29.5980   44.6390 N   0  0  0  0  0  0  0  0  0  0  0  0
   58.5870   30.7750   44.1850 C   0  0  0  0  0  0  0  0  0  0  0  0
   58.5210   31.8890   45.2000 C   0  0  0  0  0  0  0  0  0  0  0  0
   58.3220   33.2230   44.8000 C   0  0  0  0  0  0  0  0  0  0  0  0
   58.2630   34.2440   45.7520 C   0  0  0  0  0  0  0  0  0  0  0  0
   58.3780   33.9420   47.1130 C   0  0  0  0  0  0  0  0  0  0  0  0
   58.5570   32.6170   47.5220 C   0  0  0  0  0  0  0  0  0  0  0  0
   58.6340   31.5950   46.5710 C   0  0  0  0  0  0  0  0  0  0  0  0
   56.4420   29.7220   44.8000 C   0  0  0  0  0  0  0  0  0  0  0  0
   55.8500   30.8030   44.5330 O   0  0  0  0  0  0  0  0  0  0  0  0
   55.7040   28.6770   45.2470 N   0  0  0  0  0  0  0  0  0  0  0  0
   56.2680   27.4950   45.5740 C   0  0  0  0  0  0  0  0  0  0  0  0
   55.5390   26.5500   45.9840 O   0  0  0  0  0  0  0  0  0  0  0  0
   55.5511   22.9289   43.8241 H   0  0  0  0  0  0  0  0  0  0  0  0
   55.9663   24.5369   43.1396 H   0  0  0  0  0  0  0  0  0  0  0  0
   57.1864   23.2185   43.1396 H   0  0  0  0  0  0  0  0  0  0  0  0
   56.1121   24.8079   45.5315 H   0  0  0  0  0  0  0  0  0  0  0  0
   56.9641   23.2359   47.0478 H   0  0  0  0  0  0  0  0  0  0  0  0
   56.1923   22.1959   45.8030 H   0  0  0  0  0  0  0  0  0  0  0  0
   57.9739   22.4252   45.8030 H   0  0  0  0  0  0  0  0  0  0  0  0
   59.0115   24.2390   45.1506 H   0  0  0  0  0  0  0  0  0  0  0  0
   58.2229   25.2988   43.9000 H   0  0  0  0  0  0  0  0  0  0  0  0
   60.7827   25.6643   47.8481 H   0  0  0  0  0  0  0  0  0  0  0  0
   60.5411   27.0122   46.6626 H   0  0  0  0  0  0  0  0  0  0  0  0
   59.8800   27.0780   49.6020 H   0  0  0  0  0  0  0  0  0  0  0  0
   62.1523   29.3395   51.8312 H   0  0  0  0  0  0  0  0  0  0  0  0
   64.2610   30.8710   51.8280 H   0  0  0  0  0  0  0  0  0  0  0  0
   65.2397   32.8559   50.2195 H   0  0  0  0  0  0  0  0  0  0  0  0
   64.8027   34.0978   48.0798 H   0  0  0  0  0  0  0  0  0  0  0  0
   61.0900   31.8712   47.5459 H   0  0  0  0  0  0  0  0  0  0  0  0
   60.1520   27.9230   43.7040 H   0  0  0  0  0  0  0  0  0  0  0  0
   60.5760   28.3690   45.3490 H   0  0  0  0  0  0  0  0  0  0  0  0
   59.6367   30.4780   44.0440 H   0  0  0  0  0  0  0  0  0  0  0  0
   58.1594   31.1365   43.2382 H   0  0  0  0  0  0  0  0  0  0  0  0
   58.2123   33.4635   43.7322 H   0  0  0  0  0  0  0  0  0  0  0  0
   58.1259   35.2871   45.4307 H   0  0  0  0  0  0  0  0  0  0  0  0
   58.3276   34.7467   47.8613 H   0  0  0  0  0  0  0  0  0  0  0  0
   58.6373   32.3785   48.5928 H   0  0  0  0  0  0  0  0  0  0  0  0
   58.7838   30.5551   46.8967 H   0  0  0  0  0  0  0  0  0  0  0  0
  1  2  1  0
  2  3  1  0
  2  4  1  0
  4  5  1  0
  5  6  1  0
  6  7  2  0
  6  8  1  0
  8  9  1  0
  9 10  1  0
 10 11  2  0
 10 12  1  0
 12 13  2  0
 12 14  1  0
 14 15  2  0
 15 16  1  0
 16 17  1  0
 17 18  2  0
 18 19  1  0
 19 20  2  0
 20 21  1  0
 21 22  2  0
 21 23  1  0
 20 24  1  0
 24 25  2  0
  5 26  1  0
 26 27  2  0
 27 28  1  0
 27 29  1  0
 29 30  1  0
 30 31  1  0
 31 32  2  0
 32 33  1  0
 33 34  2  0
 34 35  1  0
 35 36  2  0
 29 37  1  0
 37 38  2  0
 37 39  1  0
 39 40  1  0
 40 41  2  0
 25 14  1  0
 40 26  1  0
 25 17  1  0
 36 31  1  0
  1 42  1  0
  1 43  1  0
  1 44  1  0
  2 45  1  0
  3 46  1  0
  3 47  1  0
  3 48  1  0
  4 49  1  0
  4 50  1  0
  8 51  1  0
  8 52  1  0
  9 53  1  0
 15 54  1  0
 16 55  1  0
 18 56  1  0
 19 57  1  0
 24 58  1  0
 28 59  1  0
 28 60  1  0
 30 61  1  0
 30 62  1  0
 32 63  1  0
 33 64  1  0
 34 65  1  0
 35 66  1  0
 36 67  1  0
M  CHG  3  21   1  23  -1  39  -1
M  END
>  <UniqueID>  (87) 
85

>  <SMILES>  (87) 
CC(C)CN(C(=O)CNC(=O)C(=O)c1c[nH]c2ccc([N+](=O)[O-])cc12)c1c(N)n(Cc2ccccc2)c(=O)[n-]c1=O

>  <Energy>  (87) 
118.58490584595387

>  <Genealogy>  (87) 
CC(C)CN(C(=O)CNC(=O)C(=O)c1c[nH]c2ccc([N+](=O)[O-])cc12)c1c(N)n(Cc2ccccc2)c(=O)[n-]c1=O (protonated)
CC(C)CN(C(=O)CNC(=O)C(=O)c1c[nH]c2ccc([N+](=O)[O-])cc12)c1c(N)n(Cc2ccccc2)c(=O)[n-]c1=O (3D coordinates assigned)
CC(C)CN(C(=O)CNC(=O)C(=O)c1c[nH]c2ccc([N+](=O)[O-])cc12)c1c(N)n(Cc2ccccc2)c(=O)[n-]c1=O (optimized conformer: 118.58490584595387 kcal/mol)

>  <smiles>  (87) 
CC(C)CN(C(=O)CNC(=O)C(=O)c1c[nH]c2ccc([N+](=O)[O-])cc12)c1c(N)n(Cc2ccccc2)c(=O)[nH]c1=O

>  <score_type>  (87) 
oracle

>  <origin>  (87) 
adg

>  <m_score__min__energy>  (87) 
-12.06

>  <m_primary>  (87) 
energy

$$$$
87:0
     RDKit          3D

 23 24  0  0  0  0  0  0  0  0999 V2000
   57.0219   25.2315   47.0681 H   0  0  0  0  0  0  0  0  0  0  0  0
   57.2220   26.1810   46.5500 C   0  0  0  0  0  0  0  0  0  0  0  0
   58.7320   26.8890   46.3230 S   0  0  0  0  0  0  0  0  0  0  0  0
   58.1130   28.2270   45.5000 C   0  0  0  0  0  0  0  0  0  0  0  0
   58.8090   29.2060   44.9960 N   0  0  0  0  0  0  0  0  0  0  0  0
   58.4890   30.6040   45.0570 C   0  0  0  0  0  0  0  0  0  0  0  0
   58.1410   31.2700   43.8750 C   0  0  0  0  0  0  0  0  0  0  0  0
   58.1483   30.7267   42.9186 H   0  0  0  0  0  0  0  0  0  0  0  0
   57.7840   32.6230   43.9040 C   0  0  0  0  0  0  0  0  0  0  0  0
   57.5317   33.1453   42.9694 H   0  0  0  0  0  0  0  0  0  0  0  0
   57.7480   33.3110   45.1210 C   0  0  0  0  0  0  0  0  0  0  0  0
   57.3950   34.6540   45.1480 O   0  0  0  0  0  0  0  0  0  0  0  0
   58.0620   32.6450   46.3090 C   0  0  0  0  0  0  0  0  0  0  0  0
   58.0276   33.1849   47.2668 H   0  0  0  0  0  0  0  0  0  0  0  0
   58.4200   31.2930   46.2820 C   0  0  0  0  0  0  0  0  0  0  0  0
   58.6482   30.7671   47.2208 H   0  0  0  0  0  0  0  0  0  0  0  0
   56.7660   28.1330   45.3650 N   0  0  0  0  0  0  0  0  0  0  0  0
   55.9270   29.1560   44.7350 C   0  0  0  0  0  0  0  0  0  0  0  0
   55.4343   29.7567   45.5137 H   0  0  0  0  0  0  0  0  0  0  0  0
   56.5529   29.8092   44.1092 H   0  0  0  0  0  0  0  0  0  0  0  0
   55.1640   28.6700   44.1092 H   0  0  0  0  0  0  0  0  0  0  0  0
   56.2730   27.0120   45.9650 C   0  0  0  0  0  0  0  0  0  0  0  0
   54.9140   26.7150   45.9960 O   0  0  0  0  0  0  0  0  0  0  0  0
  1  2  1  0
  2  3  1  0
  3  4  1  0
  4  5  2  0
  5  6  1  0
  6  7  2  0
  7  8  1  0
  7  9  1  0
  9 10  1  0
  9 11  2  0
 11 12  1  0
 11 13  1  0
 13 14  1  0
 13 15  2  0
 15 16  1  0
  4 17  1  0
 17 18  1  0
 18 19  1  0
 18 20  1  0
 18 21  1  0
 17 22  1  0
 22 23  1  0
 22  2  2  0
 15  6  1  0
M  CHG  2  12  -1  23  -1
M  END
>  <UniqueID>  (88) 
86

>  <SMILES>  (88) 
Cn1c([O-])cs/c1=N\c1ccc([O-])cc1

>  <Energy>  (88) 
61.7287378901648

>  <Genealogy>  (88) 
Cn1c([O-])csc1=Nc1ccc([O-])cc1 (protonated)
Cn1c([O-])cs/c1=N\c1ccc([O-])cc1 (cis-trans isomerization)
Cn1c([O-])cs/c1=N\c1ccc([O-])cc1 (3D coordinates assigned)
Cn1c([O-])cs/c1=N\c1ccc([O-])cc1 (optimized conformer: 61.7287378901648 kcal/mol)

>  <smiles>  (88) 
Cn1c(O)csc1=Nc1ccc(O)cc1

>  <score_type>  (88) 
oracle

>  <origin>  (88) 
adg

>  <m_score__min__energy>  (88) 
-9.8000000000000007

>  <m_primary>  (88) 
energy

$$$$
88:0
     RDKit          3D

 36 37  0  0  0  0  0  0  0  0999 V2000
   55.2220   29.3180   44.8550 O   0  0  0  0  0  0  0  0  0  0  0  0
   56.3320   29.8510   44.5920 C   0  0  0  0  0  0  0  0  0  0  0  0
   57.4090   29.0170   43.9490 C   0  0  0  0  0  0  0  0  0  0  0  0
   58.1480   28.1660   44.9880 C   0  0  0  0  0  0  0  0  0  0  0  0
   57.5340   26.7980   45.0830 C   0  0  0  0  0  0  0  0  0  0  0  0
   57.7910   25.9460   44.1910 O   0  0  0  0  0  0  0  0  0  0  0  0
   56.6050   26.4480   46.1690 C   0  0  0  0  0  0  0  0  0  0  0  0
   57.0330   25.9530   47.2450 O   0  0  0  0  0  0  0  0  0  0  0  0
   55.2420   26.6670   46.0120 O   0  0  0  0  0  0  0  0  0  0  0  0
   56.4850   31.2620   44.8080 N   0  0  0  0  0  0  0  0  0  0  0  0
   57.6290   31.9260   45.3620 C   0  0  0  0  0  0  0  0  0  0  0  0
   57.8100   33.2880   45.1080 C   0  0  0  0  0  0  0  0  0  0  0  0
   58.9050   33.9660   45.6480 C   0  0  0  0  0  0  0  0  0  0  0  0
   59.8290   33.2940   46.4540 C   0  0  0  0  0  0  0  0  0  0  0  0
   59.6230   31.9370   46.7740 C   0  0  0  0  0  0  0  0  0  0  0  0
   58.5150   31.2640   46.2270 C   0  0  0  0  0  0  0  0  0  0  0  0
   60.4940   31.2330   47.7900 C   0  0  0  0  0  0  0  0  0  0  0  0
   61.8710   31.0450   47.3060 N   0  0  0  0  0  0  0  0  0  0  0  0
   62.6460   32.2960   47.3100 C   0  0  0  0  0  0  0  0  0  0  0  0
   61.8430   33.4630   47.8840 C   0  0  0  0  0  0  0  0  0  0  0  0
   60.9360   34.0030   46.9280 O   0  0  0  0  0  0  0  0  0  0  0  0
   56.9499   28.3524   43.2023 H   0  0  0  0  0  0  0  0  0  0  0  0
   58.1349   29.6931   43.4736 H   0  0  0  0  0  0  0  0  0  0  0  0
   59.2030   28.0692   44.6920 H   0  0  0  0  0  0  0  0  0  0  0  0
   58.0722   28.6581   45.9689 H   0  0  0  0  0  0  0  0  0  0  0  0
   57.0867   33.8287   44.4799 H   0  0  0  0  0  0  0  0  0  0  0  0
   59.0416   35.0370   45.4376 H   0  0  0  0  0  0  0  0  0  0  0  0
   58.3410   30.2077   46.4798 H   0  0  0  0  0  0  0  0  0  0  0  0
   60.5210   31.8342   48.7108 H   0  0  0  0  0  0  0  0  0  0  0  0
   60.0618   30.2384   47.9742 H   0  0  0  0  0  0  0  0  0  0  0  0
   61.8740   30.6090   46.3530 H   0  0  0  0  0  0  0  0  0  0  0  0
   62.3500   30.3770   47.9540 H   0  0  0  0  0  0  0  0  0  0  0  0
   63.5499   32.1523   47.9202 H   0  0  0  0  0  0  0  0  0  0  0  0
   62.9045   32.5398   46.2690 H   0  0  0  0  0  0  0  0  0  0  0  0
   61.2725   33.1081   48.7550 H   0  0  0  0  0  0  0  0  0  0  0  0
   62.5498   34.2559   48.1700 H   0  0  0  0  0  0  0  0  0  0  0  0
  1  2  2  0
  2  3  1  0
  3  4  1  0
  4  5  1  0
  5  6  2  0
  5  7  1  0
  7  8  2  0
  7  9  1  0
  2 10  1  0
 10 11  1  0
 11 12  2  0
 12 13  1  0
 13 14  2  0
 14 15  1  0
 15 16  2  0
 15 17  1  0
 17 18  1  0
 18 19  1  0
 19 20  1  0
 20 21  1  0
 16 11  1  0
 21 14  1  0
  3 22  1  0
  3 23  1  0
  4 24  1  0
  4 25  1  0
 12 26  1  0
 13 27  1  0
 16 28  1  0
 17 29  1  0
 17 30  1  0
 18 31  1  0
 18 32  1  0
 19 33  1  0
 19 34  1  0
 20 35  1  0
 20 36  1  0
M  CHG  3   9  -1  10  -1  18   1
M  END
>  <UniqueID>  (89) 
87

>  <SMILES>  (89) 
O=C(CCC(=O)C(=O)[O-])[N-]c1ccc2c(c1)C[NH2+]CCO2

>  <Energy>  (89) 
43.56764286375319

>  <Genealogy>  (89) 
O=C(CCC(=O)C(=O)[O-])[N-]c1ccc2c(c1)C[NH2+]CCO2 (protonated)
O=C(CCC(=O)C(=O)[O-])[N-]c1ccc2c(c1)C[NH2+]CCO2 (3D coordinates assigned)
O=C(CCC(=O)C(=O)[O-])[N-]c1ccc2c(c1)C[NH2+]CCO2 (nonaromatic ring conformer: 43.56764286375319 kcal/mol)

>  <smiles>  (89) 
O=C(CCC(=O)C(=O)O)Nc1ccc2c(c1)CNCCO2

>  <score_type>  (89) 
oracle

>  <origin>  (89) 
adg

>  <m_score__min__energy>  (89) 
-8.6199999999999992

>  <m_primary>  (89) 
energy

$$$$
89:0
     RDKit          3D

 37 39  0  0  0  0  0  0  0  0999 V2000
   56.1250   30.7666   52.7376 H   0  0  0  0  0  0  0  0  0  0  0  0
   56.9490   31.0270   52.0570 C   0  0  0  0  0  0  0  0  0  0  0  0
   57.4450   30.0930   51.2000 N   0  0  0  0  0  0  0  0  0  0  0  0
   58.4730   30.3620   50.3520 C   0  0  0  0  0  0  0  0  0  0  0  0
   58.9180   29.3300   49.4550 N   0  0  0  0  0  0  0  0  0  0  0  0
   59.1210   29.4550   48.1760 C   0  0  0  0  0  0  0  0  0  0  0  0
   58.2200   29.1210   47.2230 N   0  0  0  0  0  0  0  0  0  0  0  0
   58.6900   29.3960   45.9750 C   0  0  0  0  0  0  0  0  0  0  0  0
   57.9040   29.0550   44.7440 C   0  0  0  0  0  0  0  0  0  0  0  0
   57.7824   27.9634   44.6836 H   0  0  0  0  0  0  0  0  0  0  0  0
   58.4468   29.4268   43.8624 H   0  0  0  0  0  0  0  0  0  0  0  0
   56.5530   29.6990   44.7860 C   0  0  0  0  0  0  0  0  0  0  0  0
   55.5160   28.9900   44.8920 O   0  0  0  0  0  0  0  0  0  0  0  0
   56.4480   31.1220   44.6630 N   0  0  0  0  0  0  0  0  0  0  0  0
   57.5180   31.9490   44.1180 C   0  0  0  0  0  0  0  0  0  0  0  0
   58.3343   31.3039   43.7609 H   0  0  0  0  0  0  0  0  0  0  0  0
   57.1291   32.5462   43.2801 H   0  0  0  0  0  0  0  0  0  0  0  0
   58.0370   32.8670   45.1890 C   0  0  0  0  0  0  0  0  0  0  0  0
   57.8360   32.5590   46.5470 C   0  0  0  0  0  0  0  0  0  0  0  0
   57.2802   31.6520   46.8272 H   0  0  0  0  0  0  0  0  0  0  0  0
   58.3410   33.4030   47.5420 C   0  0  0  0  0  0  0  0  0  0  0  0
   58.1725   33.1652   48.6027 H   0  0  0  0  0  0  0  0  0  0  0  0
   59.0600   34.5490   47.1880 C   0  0  0  0  0  0  0  0  0  0  0  0
   59.4610   35.2092   47.9712 H   0  0  0  0  0  0  0  0  0  0  0  0
   59.2700   34.8570   45.8420 C   0  0  0  0  0  0  0  0  0  0  0  0
   59.9870   35.9570   45.5000 F   0  0  0  0  0  0  0  0  0  0  0  0
   58.7610   34.0190   44.8460 C   0  0  0  0  0  0  0  0  0  0  0  0
   58.9290   34.2640   43.7869 H   0  0  0  0  0  0  0  0  0  0  0  0
   59.9700   29.9510   45.9330 C   0  0  0  0  0  0  0  0  0  0  0  0
   60.5234   30.2315   45.0247 H   0  0  0  0  0  0  0  0  0  0  0  0
   60.5190   30.1160   47.5180 S   0  0  0  0  0  0  0  0  0  0  0  0
   59.0180   31.6600   50.3200 C   0  0  0  0  0  0  0  0  0  0  0  0
   59.8256   31.9059   49.6147 H   0  0  0  0  0  0  0  0  0  0  0  0
   58.5230   32.6330   51.1930 C   0  0  0  0  0  0  0  0  0  0  0  0
   58.9495   33.6469   51.1875 H   0  0  0  0  0  0  0  0  0  0  0  0
   57.4860   32.3150   52.0720 C   0  0  0  0  0  0  0  0  0  0  0  0
   57.0964   33.0716   52.7690 H   0  0  0  0  0  0  0  0  0  0  0  0
  1  2  1  0
  2  3  2  0
  3  4  1  0
  4  5  1  0
  5  6  2  0
  6  7  1  0
  7  8  1  0
  8  9  1  0
  9 10  1  0
  9 11  1  0
  9 12  1  0
 12 13  2  0
 12 14  1  0
 14 15  1  0
 15 16  1  0
 15 17  1  0
 15 18  1  0
 18 19  2  0
 19 20  1  0
 19 21  1  0
 21 22  1  0
 21 23  2  0
 23 24  1  0
 23 25  1  0
 25 26  1  0
 25 27  2  0
 27 28  1  0
  8 29  2  0
 29 30  1  0
 29 31  1  0
  4 32  2  0
 32 33  1  0
 32 34  1  0
 34 35  1  0
 34 36  2  0
 36 37  1  0
 36  2  1  0
 31  6  1  0
 27 18  1  0
M  CHG  2   7  -1  14  -1
M  END
>  <UniqueID>  (90) 
88

>  <SMILES>  (90) 
O=C(Cc1cs/c(=N/c2ccccn2)[n-]1)[N-]Cc1cccc(F)c1

>  <Energy>  (90) 
71.00674177269575

>  <Genealogy>  (90) 
O=C(Cc1csc(=Nc2ccccn2)[n-]1)[N-]Cc1cccc(F)c1 (protonated)
O=C(Cc1cs/c(=N/c2ccccn2)[n-]1)[N-]Cc1cccc(F)c1 (cis-trans isomerization)
O=C(Cc1cs/c(=N/c2ccccn2)[n-]1)[N-]Cc1cccc(F)c1 (3D coordinates assigned)
O=C(Cc1cs/c(=N/c2ccccn2)[n-]1)[N-]Cc1cccc(F)c1 (optimized conformer: 71.00674177269575 kcal/mol)

>  <smiles>  (90) 
O=C(Cc1csc(=Nc2ccccn2)[nH]1)NCc1cccc(F)c1

>  <score_type>  (90) 
oracle

>  <origin>  (90) 
adg

>  <m_score__min__energy>  (90) 
-10.949999999999999

>  <m_primary>  (90) 
energy

$$$$
90:0
     RDKit          3D

 61 64  0  0  0  0  0  0  0  0999 V2000
   54.4360   31.2070   51.5500 N   0  0  0  0  0  0  0  0  0  0  0  0
   54.3630   30.2080   52.5780 C   0  0  0  0  0  0  0  0  0  0  0  0
   53.2220   29.3930   52.6390 C   0  0  0  0  0  0  0  0  0  0  0  0
   53.1290   28.3680   53.5790 C   0  0  0  0  0  0  0  0  0  0  0  0
   54.1770   28.1390   54.4650 C   0  0  0  0  0  0  0  0  0  0  0  0
   55.3160   28.9450   54.4280 C   0  0  0  0  0  0  0  0  0  0  0  0
   55.4170   30.0150   53.5100 C   0  0  0  0  0  0  0  0  0  0  0  0
   56.6530   30.9010   53.4710 C   0  0  0  0  0  0  0  0  0  0  0  0
   57.4260   30.8250   52.1850 C   0  0  0  0  0  0  0  0  0  0  0  0
   56.9980   30.0950   51.2500 O   0  0  0  0  0  0  0  0  0  0  0  0
   58.5900   31.6450   51.9980 N   0  0  0  0  0  0  0  0  0  0  0  0
   59.4990   31.5100   50.8920 C   0  0  0  0  0  0  0  0  0  0  0  0
   60.2060   30.3110   50.7260 C   0  0  0  0  0  0  0  0  0  0  0  0
   61.0820   30.1490   49.6500 C   0  0  0  0  0  0  0  0  0  0  0  0
   61.2420   31.1750   48.7170 C   0  0  0  0  0  0  0  0  0  0  0  0
   60.5140   32.3690   48.8420 C   0  0  0  0  0  0  0  0  0  0  0  0
   60.6710   33.4760   47.8190 C   0  0  0  0  0  0  0  0  0  0  0  0
   59.6080   33.5010   46.7900 N   0  0  0  0  0  0  0  0  0  0  0  0
   59.8040   34.5470   45.7660 C   0  0  0  0  0  0  0  0  0  0  0  0
   58.5680   34.6880   44.8500 C   0  0  0  0  0  0  0  0  0  0  0  0
   57.7100   33.4860   44.8710 N   0  0  0  0  0  0  0  0  0  0  0  0
   58.3540   32.3250   44.2190 C   0  0  0  0  0  0  0  0  0  0  0  0
   57.6180   31.0610   44.5720 C   0  0  0  0  0  0  0  0  0  0  0  0
   58.2060   30.0960   45.4070 C   0  0  0  0  0  0  0  0  0  0  0  0
   57.5080   28.9320   45.7390 C   0  0  0  0  0  0  0  0  0  0  0  0
   56.2180   28.7220   45.2410 C   0  0  0  0  0  0  0  0  0  0  0  0
   55.5250   27.5640   45.5710 O   0  0  0  0  0  0  0  0  0  0  0  0
   55.6250   29.6780   44.4110 C   0  0  0  0  0  0  0  0  0  0  0  0
   56.3220   30.8440   44.0770 C   0  0  0  0  0  0  0  0  0  0  0  0
   57.2260   33.1800   46.2410 C   0  0  0  0  0  0  0  0  0  0  0  0
   58.2470   33.5310   47.3430 C   0  0  0  0  0  0  0  0  0  0  0  0
   59.6480   32.5320   49.9380 C   0  0  0  0  0  0  0  0  0  0  0  0
   55.2110   31.2380   50.8520 H   0  0  0  0  0  0  0  0  0  0  0  0
   53.6580   31.8920   51.4220 H   0  0  0  0  0  0  0  0  0  0  0  0
   52.3923   29.5650   51.9375 H   0  0  0  0  0  0  0  0  0  0  0  0
   52.2268   27.7400   53.6203 H   0  0  0  0  0  0  0  0  0  0  0  0
   54.1078   27.3205   55.1967 H   0  0  0  0  0  0  0  0  0  0  0  0
   56.1456   28.7449   55.1221 H   0  0  0  0  0  0  0  0  0  0  0  0
   56.3350   31.9433   53.6210 H   0  0  0  0  0  0  0  0  0  0  0  0
   57.3244   30.5413   54.2646 H   0  0  0  0  0  0  0  0  0  0  0  0
   58.7360   32.4420   52.6590 H   0  0  0  0  0  0  0  0  0  0  0  0
   60.0701   29.4922   51.4479 H   0  0  0  0  0  0  0  0  0  0  0  0
   61.6465   29.2116   49.5377 H   0  0  0  0  0  0  0  0  0  0  0  0
   61.9427   31.0472   47.8788 H   0  0  0  0  0  0  0  0  0  0  0  0
   60.6621   34.4400   48.3487 H   0  0  0  0  0  0  0  0  0  0  0  0
   61.6187   33.2901   47.2925 H   0  0  0  0  0  0  0  0  0  0  0  0
   59.9868   35.5082   46.2686 H   0  0  0  0  0  0  0  0  0  0  0  0
   60.6627   34.2593   45.1416 H   0  0  0  0  0  0  0  0  0  0  0  0
   57.9751   35.5509   45.1875 H   0  0  0  0  0  0  0  0  0  0  0  0
   58.9286   34.8240   43.8197 H   0  0  0  0  0  0  0  0  0  0  0  0
   58.3361   32.4640   43.1280 H   0  0  0  0  0  0  0  0  0  0  0  0
   59.3939   32.2462   44.5688 H   0  0  0  0  0  0  0  0  0  0  0  0
   59.2202   30.2576   45.8010 H   0  0  0  0  0  0  0  0  0  0  0  0
   57.9736   28.1799   46.3928 H   0  0  0  0  0  0  0  0  0  0  0  0
   54.6100   29.5133   44.0204 H   0  0  0  0  0  0  0  0  0  0  0  0
   55.8527   31.5943   43.4236 H   0  0  0  0  0  0  0  0  0  0  0  0
   56.3056   33.7545   46.4223 H   0  0  0  0  0  0  0  0  0  0  0  0
   57.0544   32.0946   46.2904 H   0  0  0  0  0  0  0  0  0  0  0  0
   58.0330   34.5376   47.7315 H   0  0  0  0  0  0  0  0  0  0  0  0
   58.1698   32.7948   48.1567 H   0  0  0  0  0  0  0  0  0  0  0  0
   59.0816   33.4683   50.0500 H   0  0  0  0  0  0  0  0  0  0  0  0
  1  2  1  0
  2  3  2  0
  3  4  1  0
  4  5  2  0
  5  6  1  0
  6  7  2  0
  7  8  1  0
  8  9  1  0
  9 10  2  0
  9 11  1  0
 11 12  1  0
 12 13  2  0
 13 14  1  0
 14 15  2  0
 15 16  1  0
 16 17  1  0
 17 18  1  0
 18 19  1  0
 19 20  1  0
 20 21  1  0
 21 22  1  0
 22 23  1  0
 23 24  2  0
 24 25  1  0
 25 26  2  0
 26 27  1  0
 26 28  1  0
 28 29  2  0
 21 30  1  0
 30 31  1  0
 16 32  2  0
  7  2  1  0
 32 12  1  0
 31 18  1  0
 29 23  1  0
  1 33  1  0
  1 34  1  0
  3 35  1  0
  4 36  1  0
  5 37  1  0
  6 38  1  0
  8 39  1  0
  8 40  1  0
 11 41  1  0
 13 42  1  0
 14 43  1  0
 15 44  1  0
 17 45  1  0
 17 46  1  0
 19 47  1  0
 19 48  1  0
 20 49  1  0
 20 50  1  0
 22 51  1  0
 22 52  1  0
 24 53  1  0
 25 54  1  0
 28 55  1  0
 29 56  1  0
 30 57  1  0
 30 58  1  0
 31 59  1  0
 31 60  1  0
 32 61  1  0
M  CHG  1  27  -1
M  END
>  <UniqueID>  (91) 
89

>  <SMILES>  (91) 
Nc1ccccc1CC(=O)Nc1cccc(CN2CCN(Cc3ccc([O-])cc3)CC2)c1

>  <Energy>  (91) 
83.98920421550595

>  <Genealogy>  (91) 
Nc1ccccc1CC(=O)Nc1cccc(CN2CCN(Cc3ccc([O-])cc3)CC2)c1 (protonated)
Nc1ccccc1CC(=O)Nc1cccc(CN2CCN(Cc3ccc([O-])cc3)CC2)c1 (3D coordinates assigned)
Nc1ccccc1CC(=O)Nc1cccc(CN2CCN(Cc3ccc([O-])cc3)CC2)c1 (nonaromatic ring conformer: 83.98920421550595 kcal/mol)

>  <smiles>  (91) 
Nc1ccccc1CC(=O)Nc1cccc(CN2CCN(Cc3ccc(O)cc3)CC2)c1

>  <score_type>  (91) 
oracle

>  <origin>  (91) 
adg

>  <m_score__min__energy>  (91) 
-13.550000000000001

>  <m_primary>  (91) 
energy

$$$$
91:0
     RDKit          3D

 42 44  0  0  0  0  0  0  0  0999 V2000
   61.7090   30.0940   46.7450 O   0  0  0  0  0  0  0  0  0  0  0  0
   60.7760   29.8010   47.5420 C   0  0  0  0  0  0  0  0  0  0  0  0
   60.9840   29.9320   48.9590 N   0  0  0  0  0  0  0  0  0  0  0  0
   61.9920   30.7780   49.5430 C   0  0  0  0  0  0  0  0  0  0  0  0
   62.6650   30.4080   50.7230 C   0  0  0  0  0  0  0  0  0  0  0  0
   63.6570   31.2360   51.2570 C   0  0  0  0  0  0  0  0  0  0  0  0
   63.9930   32.4330   50.6170 C   0  0  0  0  0  0  0  0  0  0  0  0
   65.3490   33.5600   51.3490 Br  0  0  0  0  0  0  0  0  0  0  0  0
   63.3420   32.7970   49.4350 C   0  0  0  0  0  0  0  0  0  0  0  0
   62.3520   31.9700   48.8960 C   0  0  0  0  0  0  0  0  0  0  0  0
   59.4970   29.2760   47.0070 C   0  0  0  0  0  0  0  0  0  0  0  0
   58.9920   28.0360   47.4340 C   0  0  0  0  0  0  0  0  0  0  0  0
   57.7800   27.5550   46.9320 C   0  0  0  0  0  0  0  0  0  0  0  0
   57.0520   28.3040   46.0040 C   0  0  0  0  0  0  0  0  0  0  0  0
   55.8470   27.8020   45.5280 O   0  0  0  0  0  0  0  0  0  0  0  0
   57.5380   29.5520   45.5720 C   0  0  0  0  0  0  0  0  0  0  0  0
   56.6380   30.5370   44.4060 S   0  0  0  0  0  0  0  0  0  0  0  0
   56.8860   30.0030   43.0230 O   0  0  0  0  0  0  0  0  0  0  0  0
   55.1640   30.4300   44.6810 O   0  0  0  0  0  0  0  0  0  0  0  0
   57.1190   32.2160   44.4640 N   0  0  0  0  0  0  0  0  0  0  0  0
   58.4860   32.3790   43.9510 C   0  0  0  0  0  0  0  0  0  0  0  0
   58.9110   33.8610   44.0340 C   0  0  0  0  0  0  0  0  0  0  0  0
   57.9070   34.6660   44.6260 O   0  0  0  0  0  0  0  0  0  0  0  0
   57.5920   34.1680   45.9130 C   0  0  0  0  0  0  0  0  0  0  0  0
   57.0300   32.7320   45.8380 C   0  0  0  0  0  0  0  0  0  0  0  0
   58.7560   30.0290   46.0780 C   0  0  0  0  0  0  0  0  0  0  0  0
   60.4550   29.2930   49.5940 H   0  0  0  0  0  0  0  0  0  0  0  0
   62.4094   29.4641   51.2266 H   0  0  0  0  0  0  0  0  0  0  0  0
   64.1745   30.9450   52.1830 H   0  0  0  0  0  0  0  0  0  0  0  0
   63.6091   33.7359   48.9279 H   0  0  0  0  0  0  0  0  0  0  0  0
   61.8521   32.2556   47.9587 H   0  0  0  0  0  0  0  0  0  0  0  0
   59.5544   27.4403   48.1681 H   0  0  0  0  0  0  0  0  0  0  0  0
   57.3967   26.5807   47.2694 H   0  0  0  0  0  0  0  0  0  0  0  0
   59.1755   31.7686   44.5526 H   0  0  0  0  0  0  0  0  0  0  0  0
   58.5174   32.0539   42.9006 H   0  0  0  0  0  0  0  0  0  0  0  0
   59.8277   33.9348   44.6374 H   0  0  0  0  0  0  0  0  0  0  0  0
   59.0800   34.2251   43.0099 H   0  0  0  0  0  0  0  0  0  0  0  0
   58.5037   34.1641   46.5285 H   0  0  0  0  0  0  0  0  0  0  0  0
   56.8242   34.8180   46.3579 H   0  0  0  0  0  0  0  0  0  0  0  0
   57.6105   32.0805   46.5078 H   0  0  0  0  0  0  0  0  0  0  0  0
   55.9739   32.7465   46.1452 H   0  0  0  0  0  0  0  0  0  0  0  0
   59.1371   31.0053   45.7439 H   0  0  0  0  0  0  0  0  0  0  0  0
  1  2  2  0
  2  3  1  0
  3  4  1  0
  4  5  2  0
  5  6  1  0
  6  7  2  0
  7  8  1  0
  7  9  1  0
  9 10  2  0
  2 11  1  0
 11 12  2  0
 12 13  1  0
 13 14  2  0
 14 15  1  0
 14 16  1  0
 16 17  1  0
 17 18  2  0
 17 19  2  0
 17 20  1  0
 20 21  1  0
 21 22  1  0
 22 23  1  0
 23 24  1  0
 24 25  1  0
 16 26  2  0
 10  4  1  0
 26 11  1  0
 25 20  1  0
  3 27  1  0
  5 28  1  0
  6 29  1  0
  9 30  1  0
 10 31  1  0
 12 32  1  0
 13 33  1  0
 21 34  1  0
 21 35  1  0
 22 36  1  0
 22 37  1  0
 24 38  1  0
 24 39  1  0
 25 40  1  0
 25 41  1  0
 26 42  1  0
M  CHG  1  15  -1
M  END
>  <UniqueID>  (92) 
90

>  <SMILES>  (92) 
O=C(Nc1ccc(Br)cc1)c1ccc([O-])c(S(=O)(=O)N2CCOCC2)c1

>  <Energy>  (92) 
57.23921603720336

>  <Genealogy>  (92) 
O=C(Nc1ccc(Br)cc1)c1ccc([O-])c(S(=O)(=O)N2CCOCC2)c1 (protonated)
O=C(Nc1ccc(Br)cc1)c1ccc([O-])c(S(=O)(=O)N2CCOCC2)c1 (3D coordinates assigned)
O=C(Nc1ccc(Br)cc1)c1ccc([O-])c(S(=O)(=O)N2CCOCC2)c1 (nonaromatic ring conformer: 57.23921603720336 kcal/mol)

>  <smiles>  (92) 
O=C(Nc1ccc(Br)cc1)c1ccc(O)c(S(=O)(=O)N2CCOCC2)c1

>  <score_type>  (92) 
oracle

>  <origin>  (92) 
adg

>  <m_score__min__energy>  (92) 
-10.619999999999999

>  <m_primary>  (92) 
energy

$$$$
92:0
     RDKit          3D

 42 44  0  0  0  0  0  0  0  0999 V2000
   58.1130   33.5760   45.6330 C   0  0  0  0  0  0  0  0  0  0  0  0
   59.0460   32.7710   46.4820 C   0  0  0  0  0  0  0  0  0  0  0  0
   58.5580   31.7240   47.2750 C   0  0  0  0  0  0  0  0  0  0  0  0
   59.4560   30.9620   48.0510 C   0  0  0  0  0  0  0  0  0  0  0  0
   59.0760   29.9710   48.8100 N   0  0  0  0  0  0  0  0  0  0  0  0
   59.6580   28.6640   48.9240 C   0  0  0  0  0  0  0  0  0  0  0  0
   60.0040   28.2050   50.0460 O   0  0  0  0  0  0  0  0  0  0  0  0
   59.9210   27.8610   47.6780 C   0  0  0  0  0  0  0  0  0  0  0  0
   58.7380   27.7640   46.7920 N   0  0  0  0  0  0  0  0  0  0  0  0
   57.9900   26.5150   47.0020 C   0  0  0  0  0  0  0  0  0  0  0  0
   56.6150   26.5310   46.3800 C   0  0  0  0  0  0  0  0  0  0  0  0
   55.8550   25.5680   46.6620 O   0  0  0  0  0  0  0  0  0  0  0  0
   56.0910   27.5670   45.5320 N   0  0  0  0  0  0  0  0  0  0  0  0
   56.6830   28.7230   44.9130 C   0  0  0  0  0  0  0  0  0  0  0  0
   55.8040   29.6630   44.3540 C   0  0  0  0  0  0  0  0  0  0  0  0
   56.2860   30.7920   43.6920 C   0  0  0  0  0  0  0  0  0  0  0  0
   57.6600   30.9950   43.5710 C   0  0  0  0  0  0  0  0  0  0  0  0
   58.5510   30.0700   44.1150 C   0  0  0  0  0  0  0  0  0  0  0  0
   58.0780   28.9290   44.7910 C   0  0  0  0  0  0  0  0  0  0  0  0
   59.0650   27.9640   45.3680 C   0  0  0  0  0  0  0  0  0  0  0  0
   60.8250   31.2510   47.9740 C   0  0  0  0  0  0  0  0  0  0  0  0
   61.2760   32.2920   47.1550 C   0  0  0  0  0  0  0  0  0  0  0  0
   62.7310   32.6280   47.0890 C   0  0  0  0  0  0  0  0  0  0  0  0
   60.3810   33.0250   46.4400 N   0  0  0  0  0  0  0  0  0  0  0  0
   57.4389   34.1576   46.2790 H   0  0  0  0  0  0  0  0  0  0  0  0
   58.6939   34.2611   44.9980 H   0  0  0  0  0  0  0  0  0  0  0  0
   57.5204   32.9010   44.9980 H   0  0  0  0  0  0  0  0  0  0  0  0
   57.4816   31.4978   47.2922 H   0  0  0  0  0  0  0  0  0  0  0  0
   60.7393   28.3387   47.1192 H   0  0  0  0  0  0  0  0  0  0  0  0
   60.1808   26.8397   47.9933 H   0  0  0  0  0  0  0  0  0  0  0  0
   58.5632   25.6863   46.5607 H   0  0  0  0  0  0  0  0  0  0  0  0
   57.8554   26.3943   48.0870 H   0  0  0  0  0  0  0  0  0  0  0  0
   54.7184   29.5072   44.4392 H   0  0  0  0  0  0  0  0  0  0  0  0
   55.5823   31.5220   43.2655 H   0  0  0  0  0  0  0  0  0  0  0  0
   58.0411   31.8839   43.0470 H   0  0  0  0  0  0  0  0  0  0  0  0
   59.6342   30.2335   44.0149 H   0  0  0  0  0  0  0  0  0  0  0  0
   59.0031   27.0045   44.8337 H   0  0  0  0  0  0  0  0  0  0  0  0
   60.0864   28.3593   45.2653 H   0  0  0  0  0  0  0  0  0  0  0  0
   61.5455   30.6592   48.5577 H   0  0  0  0  0  0  0  0  0  0  0  0
   63.1325   32.7207   48.1089 H   0  0  0  0  0  0  0  0  0  0  0  0
   63.2677   31.8302   46.5548 H   0  0  0  0  0  0  0  0  0  0  0  0
   62.8635   33.5804   46.5548 H   0  0  0  0  0  0  0  0  0  0  0  0
  1  2  1  0
  2  3  2  0
  3  4  1  0
  4  5  2  3
  5  6  1  0
  6  7  2  0
  6  8  1  0
  8  9  1  0
  9 10  1  0
 10 11  1  0
 11 12  2  0
 11 13  1  0
 13 14  1  0
 14 15  2  0
 15 16  1  0
 16 17  2  0
 17 18  1  0
 18 19  2  0
 19 20  1  0
  4 21  1  0
 21 22  2  0
 22 23  1  0
 22 24  1  0
 24  2  1  0
 20  9  1  0
 19 14  1  0
  1 25  1  0
  1 26  1  0
  1 27  1  0
  3 28  1  0
  8 29  1  0
  8 30  1  0
 10 31  1  0
 10 32  1  0
 15 33  1  0
 16 34  1  0
 17 35  1  0
 18 36  1  0
 20 37  1  0
 20 38  1  0
 21 39  1  0
 23 40  1  0
 23 41  1  0
 23 42  1  0
M  CHG  2  13  -1  24  -1
M  END
>  <UniqueID>  (93) 
91

>  <SMILES>  (93) 
Cc1cc(=NC(=O)CN2CC(=O)[N-]c3ccccc3C2)cc(C)[n-]1

>  <Energy>  (93) 
63.95702598536745

>  <Genealogy>  (93) 
Cc1cc(=NC(=O)CN2CC(=O)[N-]c3ccccc3C2)cc(C)[n-]1 (protonated)
Cc1cc(=NC(=O)CN2CC(=O)[N-]c3ccccc3C2)cc(C)[n-]1 (3D coordinates assigned)
Cc1cc(=NC(=O)CN2CC(=O)[N-]c3ccccc3C2)cc(C)[n-]1 (nonaromatic ring conformer: 63.95702598536745 kcal/mol)

>  <smiles>  (93) 
Cc1cc(=NC(=O)CN2CC(=O)Nc3ccccc3C2)cc(C)[nH]1

>  <score_type>  (93) 
oracle

>  <origin>  (93) 
adg

>  <m_score__min__energy>  (93) 
-8.5899999999999999

>  <m_primary>  (93) 
energy

$$$$
