0:0
     RDKit          3D

 62 66  0  0  0  0  0  0  0  0999 V2000
   60.0230   26.1730   47.2740 O   0  0  0  0  0  0  0  0  0  0  0  0
   59.2990   27.1680   47.5510 C   0  0  0  0  0  0  0  0  0  0  0  0
   57.8900   27.1140   47.2770 N   0  0  0  0  0  0  0  0  0  0  0  0
   57.2490   25.8670   46.8590 C   0  0  0  0  0  0  0  0  0  0  0  0
   56.3480   26.0860   45.6450 C   0  0  0  0  0  0  0  0  0  0  0  0
   55.8980   27.4390   45.6170 O   0  0  0  0  0  0  0  0  0  0  0  0
   56.5980   28.4960   45.0190 C   0  0  0  0  0  0  0  0  0  0  0  0
   55.8850   29.6500   44.6680 C   0  0  0  0  0  0  0  0  0  0  0  0
   56.5380   30.7320   44.0670 C   0  0  0  0  0  0  0  0  0  0  0  0
   57.9100   30.6670   43.8120 C   0  0  0  0  0  0  0  0  0  0  0  0
   58.6310   29.5210   44.1580 C   0  0  0  0  0  0  0  0  0  0  0  0
   57.9820   28.4380   44.7610 C   0  0  0  0  0  0  0  0  0  0  0  0
   59.9260   28.3800   48.1360 C   0  0  0  0  0  0  0  0  0  0  0  0
   60.3990   28.3630   49.4590 C   0  0  0  0  0  0  0  0  0  0  0  0
   60.9880   29.4990   50.0150 C   0  0  0  0  0  0  0  0  0  0  0  0
   61.1040   30.6700   49.2460 C   0  0  0  0  0  0  0  0  0  0  0  0
   61.7000   31.8720   49.7890 N   0  0  0  0  0  0  0  0  0  0  0  0
   62.0150   33.0120   48.9120 C   0  0  0  0  0  0  0  0  0  0  0  0
   62.8870   34.0580   49.6240 C   0  0  0  0  0  0  0  0  0  0  0  0
   64.0830   33.4230   50.3850 C   0  0  0  0  0  0  0  0  0  0  0  0
   65.1820   33.0010   49.3680 C   0  0  0  0  0  0  0  0  0  0  0  0
   66.4940   32.6010   50.0630 C   0  0  0  0  0  0  0  0  0  0  0  0
   66.8980   33.5930   51.1210 C   0  0  0  0  0  0  0  0  0  0  0  0
   68.2220   33.6210   51.5890 C   0  0  0  0  0  0  0  0  0  0  0  0
   68.5930   34.5210   52.5930 C   0  0  0  0  0  0  0  0  0  0  0  0
   67.6440   35.3920   53.1420 C   0  0  0  0  0  0  0  0  0  0  0  0
   66.3200   35.3610   52.6900 C   0  0  0  0  0  0  0  0  0  0  0  0
   65.9410   34.4570   51.6900 C   0  0  0  0  0  0  0  0  0  0  0  0
   64.6120   34.4380   51.2490 O   0  0  0  0  0  0  0  0  0  0  0  0
   63.6290   32.2020   51.2610 C   0  0  0  0  0  0  0  0  0  0  0  0
   62.1220   31.9310   51.1950 C   0  0  0  0  0  0  0  0  0  0  0  0
   60.6230   30.6670   47.9720 N   0  0  0  0  0  0  0  0  0  0  0  0
   60.0450   29.5740   47.4080 C   0  0  0  0  0  0  0  0  0  0  0  0
   57.3200   27.9880   47.3340 H   0  0  0  0  0  0  0  0  0  0  0  0
   58.0268   25.1335   46.6003 H   0  0  0  0  0  0  0  0  0  0  0  0
   56.6288   25.4998   47.6900 H   0  0  0  0  0  0  0  0  0  0  0  0
   56.9134   25.8698   44.7265 H   0  0  0  0  0  0  0  0  0  0  0  0
   55.4790   25.4148   45.7110 H   0  0  0  0  0  0  0  0  0  0  0  0
   54.8044   29.7058   44.8662 H   0  0  0  0  0  0  0  0  0  0  0  0
   55.9706   31.6343   43.7952 H   0  0  0  0  0  0  0  0  0  0  0  0
   58.4226   31.5176   43.3390 H   0  0  0  0  0  0  0  0  0  0  0  0
   59.7111   29.4702   43.9559 H   0  0  0  0  0  0  0  0  0  0  0  0
   58.5537   27.5389   45.0344 H   0  0  0  0  0  0  0  0  0  0  0  0
   60.3042   27.4472   50.0609 H   0  0  0  0  0  0  0  0  0  0  0  0
   61.3598   29.4784   51.0501 H   0  0  0  0  0  0  0  0  0  0  0  0
   62.5541   32.6420   48.0274 H   0  0  0  0  0  0  0  0  0  0  0  0
   61.0686   33.4943   48.6261 H   0  0  0  0  0  0  0  0  0  0  0  0
   63.2800   34.7589   48.8728 H   0  0  0  0  0  0  0  0  0  0  0  0
   62.2548   34.5688   50.3652 H   0  0  0  0  0  0  0  0  0  0  0  0
   64.8145   32.1438   48.7847 H   0  0  0  0  0  0  0  0  0  0  0  0
   65.3927   33.8650   48.7207 H   0  0  0  0  0  0  0  0  0  0  0  0
   66.3606   31.6154   50.5329 H   0  0  0  0  0  0  0  0  0  0  0  0
   67.2873   32.5751   49.3014 H   0  0  0  0  0  0  0  0  0  0  0  0
   68.9687   32.9335   51.1649 H   0  0  0  0  0  0  0  0  0  0  0  0
   69.6324   34.5447   52.9522 H   0  0  0  0  0  0  0  0  0  0  0  0
   67.9395   36.1012   53.9292 H   0  0  0  0  0  0  0  0  0  0  0  0
   65.5762   36.0475   53.1207 H   0  0  0  0  0  0  0  0  0  0  0  0
   64.1601   31.3048   50.9102 H   0  0  0  0  0  0  0  0  0  0  0  0
   63.8691   32.4459   52.3064 H   0  0  0  0  0  0  0  0  0  0  0  0
   61.8993   30.9722   51.6859 H   0  0  0  0  0  0  0  0  0  0  0  0
   61.5797   32.7385   51.7087 H   0  0  0  0  0  0  0  0  0  0  0  0
   59.6685   29.6254   46.3757 H   0  0  0  0  0  0  0  0  0  0  0  0
  1  2  2  0
  2  3  1  0
  3  4  1  0
  4  5  1  0
  5  6  1  0
  6  7  1  0
  7  8  2  0
  8  9  1  0
  9 10  2  0
 10 11  1  0
 11 12  2  0
  2 13  1  0
 13 14  2  0
 14 15  1  0
 15 16  2  0
 16 17  1  0
 17 18  1  0
 18 19  1  0
 19 20  1  0
 20 21  1  0
 21 22  1  0
 22 23  1  0
 23 24  2  0
 24 25  1  0
 25 26  2  0
 26 27  1  0
 27 28  2  0
 28 29  1  0
 20 30  1  0
 30 31  1  0
 16 32  1  0
 32 33  2  0
 12  7  1  0
 33 13  1  0
 31 17  1  0
 29 20  1  0
 28 23  1  0
  3 34  1  0
  4 35  1  0
  4 36  1  0
  5 37  1  0
  5 38  1  0
  8 39  1  0
  9 40  1  0
 10 41  1  0
 11 42  1  0
 12 43  1  0
 14 44  1  0
 15 45  1  0
 18 46  1  0
 18 47  1  0
 19 48  1  0
 19 49  1  0
 21 50  1  0
 21 51  1  0
 22 52  1  0
 22 53  1  0
 24 54  1  0
 25 55  1  0
 26 56  1  0
 27 57  1  0
 30 58  1  0
 30 59  1  0
 31 60  1  0
 31 61  1  0
 33 62  1  0
M  END
>  <UniqueID>  (1) 
1

>  <SMILES>  (1) 
O=C(NCCOc1ccccc1)c1ccc(N2CCC3(CCc4ccccc4O3)CC2)nc1

>  <Energy>  (1) 
72.98526899908131

>  <Genealogy>  (1) 
O=C(NCCOc1ccccc1)c1ccc(N2CCC3(CCc4ccccc4O3)CC2)nc1 (3D coordinates assigned)
O=C(NCCOc1ccccc1)c1ccc(N2CCC3(CCc4ccccc4O3)CC2)nc1 (nonaromatic ring conformer: 72.98526899908131 kcal/mol)

>  <smiles>  (1) 
O=C(NCCOc1ccccc1)c1ccc(N2CCC3(CCc4ccccc4O3)CC2)nc1

>  <score_type>  (1) 
oracle

>  <origin>  (1) 
adg

>  <m_score__min__energy>  (1) 
-7.8399999999999999

>  <m_primary>  (1) 
energy

$$$$
1:0
     RDKit          3D

 20 20  0  0  0  0  0  0  0  0999 V2000
   55.1290   26.3280   46.8090 H   0  0  0  0  0  0  0  0  0  0  0  0
   54.6130   26.0410   45.9860 O   0  0  0  0  0  0  0  0  0  0  0  0
   54.7240   24.7520   45.5210 N   0  0  0  0  0  0  0  0  0  0  0  0
   55.2180   23.8220   46.2700 C   0  0  0  0  0  0  0  0  0  0  0  0
   54.7498   22.8266   46.2757 H   0  0  0  0  0  0  0  0  0  0  0  0
   56.3970   24.0720   47.1160 C   0  0  0  0  0  0  0  0  0  0  0  0
   57.0660   23.0900   47.5290 O   0  0  0  0  0  0  0  0  0  0  0  0
   56.8470   25.3970   47.4280 N   0  0  0  0  0  0  0  0  0  0  0  0
   57.6340   26.2480   46.5820 C   0  0  0  0  0  0  0  0  0  0  0  0
   58.6950   27.0180   47.0930 C   0  0  0  0  0  0  0  0  0  0  0  0
   58.9221   26.9934   48.1690 H   0  0  0  0  0  0  0  0  0  0  0  0
   59.4610   27.8140   46.2370 C   0  0  0  0  0  0  0  0  0  0  0  0
   60.2809   28.4251   46.6425 H   0  0  0  0  0  0  0  0  0  0  0  0
   59.1870   27.8350   44.8660 C   0  0  0  0  0  0  0  0  0  0  0  0
   59.7870   28.4680   44.1957 H   0  0  0  0  0  0  0  0  0  0  0  0
   58.1520   27.0530   44.3460 C   0  0  0  0  0  0  0  0  0  0  0  0
   57.8960   27.0740   42.9760 O   0  0  0  0  0  0  0  0  0  0  0  0
   56.9520   27.0170   42.6120 H   0  0  0  0  0  0  0  0  0  0  0  0
   57.3820   26.2540   45.2030 C   0  0  0  0  0  0  0  0  0  0  0  0
   56.5761   25.6287   44.7912 H   0  0  0  0  0  0  0  0  0  0  0  0
  1  2  1  0
  2  3  1  0
  3  4  2  0
  4  5  1  0
  4  6  1  0
  6  7  2  0
  6  8  1  0
  8  9  1  0
  9 10  2  0
 10 11  1  0
 10 12  1  0
 12 13  1  0
 12 14  2  0
 14 15  1  0
 14 16  1  0
 16 17  1  0
 17 18  1  0
 16 19  2  0
 19 20  1  0
 19  9  1  0
M  CHG  1   8  -1
M  END
>  <UniqueID>  (2) 
2

>  <SMILES>  (2) 
O=C(/C=N/O)[N-]c1cccc(O)c1

>  <Energy>  (2) 
21.149224947888197

>  <Genealogy>  (2) 
O=C(C=NO)[N-]c1cccc(O)c1 (protonated)
O=C(/C=N/O)[N-]c1cccc(O)c1 (cis-trans isomerization)
O=C(/C=N/O)[N-]c1cccc(O)c1 (3D coordinates assigned)
O=C(/C=N/O)[N-]c1cccc(O)c1 (optimized conformer: 21.149224947888197 kcal/mol)

>  <smiles>  (2) 
O=C(C=NO)Nc1cccc(O)c1

>  <score_type>  (2) 
oracle

>  <origin>  (2) 
adg

>  <m_score__min__energy>  (2) 
-7.5899999999999999

>  <m_primary>  (2) 
energy

$$$$
2:0
     RDKit          3D

 46 48  0  0  0  0  0  0  0  0999 V2000
   56.6280   29.6870   43.1260 C   0  0  0  0  0  0  0  0  0  0  0  0
   55.5680   29.8030   44.2150 C   0  0  0  0  0  0  0  0  0  0  0  0
   55.7230   28.7650   45.1820 O   0  0  0  0  0  0  0  0  0  0  0  0
   56.9230   28.0970   45.4840 C   0  0  0  0  0  0  0  0  0  0  0  0
   57.1040   26.7210   45.2440 C   0  0  0  0  0  0  0  0  0  0  0  0
   58.3150   26.1020   45.5660 C   0  0  0  0  0  0  0  0  0  0  0  0
   59.3580   26.8490   46.1150 C   0  0  0  0  0  0  0  0  0  0  0  0
   59.1920   28.2140   46.3510 C   0  0  0  0  0  0  0  0  0  0  0  0
   57.9700   28.8410   46.0540 C   0  0  0  0  0  0  0  0  0  0  0  0
   57.7690   30.2420   46.2890 N   0  0  0  0  0  0  0  0  0  0  0  0
   58.5520   31.0970   47.1320 C   0  0  0  0  0  0  0  0  0  0  0  0
   58.9080   30.6680   48.2620 O   0  0  0  0  0  0  0  0  0  0  0  0
   58.9680   32.4550   46.7220 C   0  0  0  0  0  0  0  0  0  0  0  0
   57.9780   33.3000   46.1910 C   0  0  0  0  0  0  0  0  0  0  0  0
   58.2980   34.5830   45.7460 C   0  0  0  0  0  0  0  0  0  0  0  0
   59.6090   35.0450   45.8340 C   0  0  0  0  0  0  0  0  0  0  0  0
   60.6000   34.2310   46.3830 C   0  0  0  0  0  0  0  0  0  0  0  0
   60.2990   32.9410   46.8490 C   0  0  0  0  0  0  0  0  0  0  0  0
   61.6170   32.0300   47.6120 S   0  0  0  0  0  0  0  0  0  0  0  0
   61.4860   30.5790   47.2470 O   0  0  0  0  0  0  0  0  0  0  0  0
   62.9380   32.5330   47.0970 O   0  0  0  0  0  0  0  0  0  0  0  0
   61.6210   32.1820   49.3370 N   0  0  0  0  0  0  0  0  0  0  0  0
   60.6530   32.7440   49.9900 C   0  0  0  0  0  0  0  0  0  0  0  0
   60.3590   34.0230   49.9460 O   0  0  0  0  0  0  0  0  0  0  0  0
   59.3230   34.2630   50.6970 N   0  0  0  0  0  0  0  0  0  0  0  0
   58.9300   33.1000   51.2570 C   0  0  0  0  0  0  0  0  0  0  0  0
   57.7250   32.9430   52.1260 C   0  0  0  0  0  0  0  0  0  0  0  0
   59.7650   32.0920   50.8160 C   0  0  0  0  0  0  0  0  0  0  0  0
   59.6840   30.3750   51.1700 Cl  0  0  0  0  0  0  0  0  0  0  0  0
   57.6196   29.5785   43.5896 H   0  0  0  0  0  0  0  0  0  0  0  0
   56.4170   28.8066   42.5012 H   0  0  0  0  0  0  0  0  0  0  0  0
   56.6124   30.5922   42.5012 H   0  0  0  0  0  0  0  0  0  0  0  0
   55.6674   30.7786   44.7133 H   0  0  0  0  0  0  0  0  0  0  0  0
   54.5742   29.7103   43.7527 H   0  0  0  0  0  0  0  0  0  0  0  0
   56.2883   26.1307   44.8010 H   0  0  0  0  0  0  0  0  0  0  0  0
   58.4461   25.0247   45.3865 H   0  0  0  0  0  0  0  0  0  0  0  0
   60.3124   26.3610   46.3620 H   0  0  0  0  0  0  0  0  0  0  0  0
   60.0212   28.8019   46.7714 H   0  0  0  0  0  0  0  0  0  0  0  0
   56.9388   32.9455   46.1256 H   0  0  0  0  0  0  0  0  0  0  0  0
   57.5143   35.2302   45.3253 H   0  0  0  0  0  0  0  0  0  0  0  0
   59.8630   36.0517   45.4706 H   0  0  0  0  0  0  0  0  0  0  0  0
   61.6321   34.6051   46.4519 H   0  0  0  0  0  0  0  0  0  0  0  0
   58.8790   35.2000   50.8190 H   0  0  0  0  0  0  0  0  0  0  0  0
   58.0275   32.9824   53.1829 H   0  0  0  0  0  0  0  0  0  0  0  0
   57.0141   33.7561   51.9175 H   0  0  0  0  0  0  0  0  0  0  0  0
   57.2462   31.9749   51.9175 H   0  0  0  0  0  0  0  0  0  0  0  0
  1  2  1  0
  2  3  1  0
  3  4  1  0
  4  5  2  0
  5  6  1  0
  6  7  2  0
  7  8  1  0
  8  9  2  0
  9 10  1  0
 10 11  1  0
 11 12  2  0
 11 13  1  0
 13 14  2  0
 14 15  1  0
 15 16  2  0
 16 17  1  0
 17 18  2  0
 18 19  1  0
 19 20  2  0
 19 21  2  0
 19 22  1  0
 22 23  2  3
 23 24  1  0
 24 25  1  0
 25 26  1  0
 26 27  1  0
 26 28  2  0
 28 29  1  0
  9  4  1  0
 18 13  1  0
 28 23  1  0
  1 30  1  0
  1 31  1  0
  1 32  1  0
  2 33  1  0
  2 34  1  0
  5 35  1  0
  6 36  1  0
  7 37  1  0
  8 38  1  0
 14 39  1  0
 15 40  1  0
 16 41  1  0
 17 42  1  0
 25 43  1  0
 27 44  1  0
 27 45  1  0
 27 46  1  0
M  CHG  1  10  -1
M  END
>  <UniqueID>  (3) 
3

>  <SMILES>  (3) 
CCOc1ccccc1[N-]C(=O)c1ccccc1S(=O)(=O)N=c1o[nH]c(C)c1Cl

>  <Energy>  (3) 
89.76218991510616

>  <Genealogy>  (3) 
CCOc1ccccc1[N-]C(=O)c1ccccc1S(=O)(=O)N=c1o[nH]c(C)c1Cl (protonated)
CCOc1ccccc1[N-]C(=O)c1ccccc1S(=O)(=O)N=c1o[nH]c(C)c1Cl (3D coordinates assigned)
CCOc1ccccc1[N-]C(=O)c1ccccc1S(=O)(=O)N=c1o[nH]c(C)c1Cl (optimized conformer: 89.76218991510616 kcal/mol)

>  <smiles>  (3) 
CCOc1ccccc1NC(=O)c1ccccc1S(=O)(=O)N=c1o[nH]c(C)c1Cl

>  <score_type>  (3) 
oracle

>  <origin>  (3) 
adg

>  <m_score__min__energy>  (3) 
-10.43

>  <m_primary>  (3) 
energy

$$$$
3:0
     RDKit          3D

 15 15  0  0  0  0  0  0  0  0999 V2000
   57.9450   25.2960   47.1230 C   0  0  0  0  0  0  0  0  0  0  0  0
   57.6270   26.5840   46.4960 N   0  0  0  0  0  0  0  0  0  0  0  0
   58.5690   27.5720   46.4530 C   0  0  0  0  0  0  0  0  0  0  0  0
   58.2800   28.8000   45.8610 C   0  0  0  0  0  0  0  0  0  0  0  0
   59.5020   30.0640   45.8140 Cl  0  0  0  0  0  0  0  0  0  0  0  0
   57.0120   28.9950   45.3140 C   0  0  0  0  0  0  0  0  0  0  0  0
   56.7150   30.0910   44.7700 O   0  0  0  0  0  0  0  0  0  0  0  0
   56.0920   27.9950   45.3690 N   0  0  0  0  0  0  0  0  0  0  0  0
   56.3880   26.7990   45.9510 C   0  0  0  0  0  0  0  0  0  0  0  0
   55.5080   25.8940   45.9840 O   0  0  0  0  0  0  0  0  0  0  0  0
   57.9182   25.4044   48.2173 H   0  0  0  0  0  0  0  0  0  0  0  0
   57.2056   24.5438   46.8109 H   0  0  0  0  0  0  0  0  0  0  0  0
   58.9495   24.9743   46.8109 H   0  0  0  0  0  0  0  0  0  0  0  0
   59.5636   27.3970   46.8891 H   0  0  0  0  0  0  0  0  0  0  0  0
   55.1440   28.1460   44.9570 H   0  0  0  0  0  0  0  0  0  0  0  0
  1  2  1  0
  2  3  1  0
  3  4  2  0
  4  5  1  0
  4  6  1  0
  6  7  2  0
  6  8  1  0
  8  9  1  0
  9 10  2  0
  9  2  1  0
  1 11  1  0
  1 12  1  0
  1 13  1  0
  3 14  1  0
  8 15  1  0
M  END
>  <UniqueID>  (4) 
4

>  <SMILES>  (4) 
Cn1cc(Cl)c(=O)[nH]c1=O

>  <Energy>  (4) 
15.933850266477224

>  <Genealogy>  (4) 
Cn1cc(Cl)c(=O)[nH]c1=O (3D coordinates assigned)
Cn1cc(Cl)c(=O)[nH]c1=O (optimized conformer: 15.933850266477224 kcal/mol)

>  <smiles>  (4) 
Cn1cc(Cl)c(=O)[nH]c1=O

>  <score_type>  (4) 
oracle

>  <origin>  (4) 
adg

>  <m_score__min__energy>  (4) 
-4.6699999999999999

>  <m_primary>  (4) 
energy

$$$$
4:0
     RDKit          3D

 34 35  0  0  0  0  0  0  0  0999 V2000
   57.7640   26.8510   44.4720 C   0  0  0  0  0  0  0  0  0  0  0  0
   56.6840   27.6300   45.6540 S   0  0  0  0  0  0  0  0  0  0  0  0
   55.5760   26.6750   45.9960 O   0  0  0  0  0  0  0  0  0  0  0  0
   57.4360   27.9650   46.9110 O   0  0  0  0  0  0  0  0  0  0  0  0
   55.9900   29.0670   44.9750 N   0  0  0  0  0  0  0  0  0  0  0  0
   56.7160   30.2150   44.5140 C   0  0  0  0  0  0  0  0  0  0  0  0
   56.7360   30.4830   43.1410 C   0  0  0  0  0  0  0  0  0  0  0  0
   57.4250   31.5920   42.6470 C   0  0  0  0  0  0  0  0  0  0  0  0
   58.1070   32.4420   43.5200 C   0  0  0  0  0  0  0  0  0  0  0  0
   58.1100   32.1880   44.9040 C   0  0  0  0  0  0  0  0  0  0  0  0
   58.8200   33.0850   45.8530 C   0  0  0  0  0  0  0  0  0  0  0  0
   58.1610   34.1250   46.5280 C   0  0  0  0  0  0  0  0  0  0  0  0
   58.8930   34.9310   47.3990 C   0  0  0  0  0  0  0  0  0  0  0  0
   60.2210   34.7080   47.5810 N   0  0  0  0  0  0  0  0  0  0  0  0
   60.8530   33.7050   46.9150 C   0  0  0  0  0  0  0  0  0  0  0  0
   62.5700   33.4260   47.1520 S   0  0  0  0  0  0  0  0  0  0  0  0
   62.8630   31.6890   47.4000 C   0  0  0  0  0  0  0  0  0  0  0  0
   63.3260   33.8870   45.9380 O   0  0  0  0  0  0  0  0  0  0  0  0
   63.0440   34.2010   48.3490 O   0  0  0  0  0  0  0  0  0  0  0  0
   60.1540   32.9090   46.0640 N   0  0  0  0  0  0  0  0  0  0  0  0
   57.4010   31.0740   45.3930 C   0  0  0  0  0  0  0  0  0  0  0  0
   58.5448   26.2878   45.0042 H   0  0  0  0  0  0  0  0  0  0  0  0
   57.1818   26.1635   43.8408 H   0  0  0  0  0  0  0  0  0  0  0  0
   58.2326   27.6204   43.8408 H   0  0  0  0  0  0  0  0  0  0  0  0
   56.2053   29.8154   42.4462 H   0  0  0  0  0  0  0  0  0  0  0  0
   57.4307   31.7970   41.5663 H   0  0  0  0  0  0  0  0  0  0  0  0
   58.6452   33.3155   43.1234 H   0  0  0  0  0  0  0  0  0  0  0  0
   57.0863   34.3008   46.3724 H   0  0  0  0  0  0  0  0  0  0  0  0
   58.3945   35.7489   47.9398 H   0  0  0  0  0  0  0  0  0  0  0  0
   60.7560   35.3190   48.2380 H   0  0  0  0  0  0  0  0  0  0  0  0
   62.8993   31.4735   48.4781 H   0  0  0  0  0  0  0  0  0  0  0  0
   62.0498   31.1103   46.9376 H   0  0  0  0  0  0  0  0  0  0  0  0
   63.8211   31.4091   46.9376 H   0  0  0  0  0  0  0  0  0  0  0  0
   57.3825   30.8731   46.4743 H   0  0  0  0  0  0  0  0  0  0  0  0
  1  2  1  0
  2  3  2  0
  2  4  2  0
  2  5  1  0
  5  6  1  0
  6  7  2  0
  7  8  1  0
  8  9  2  0
  9 10  1  0
 10 11  1  0
 11 12  2  0
 12 13  1  0
 13 14  2  0
 14 15  1  0
 15 16  1  0
 16 17  1  0
 16 18  2  0
 16 19  2  0
 15 20  2  0
 10 21  2  0
 21  6  1  0
 20 11  1  0
  1 22  1  0
  1 23  1  0
  1 24  1  0
  7 25  1  0
  8 26  1  0
  9 27  1  0
 12 28  1  0
 13 29  1  0
 14 30  1  0
 17 31  1  0
 17 32  1  0
 17 33  1  0
 21 34  1  0
M  CHG  2   5  -1  14   1
M  END
>  <UniqueID>  (5) 
5

>  <SMILES>  (5) 
CS(=O)(=O)[N-]c1cccc(-c2cc[nH+]c(S(C)(=O)=O)n2)c1

>  <Energy>  (5) 
34.07218293585138

>  <Genealogy>  (5) 
CS(=O)(=O)[N-]c1cccc(-c2cc[nH+]c(S(C)(=O)=O)n2)c1 (protonated)
CS(=O)(=O)[N-]c1cccc(-c2cc[nH+]c(S(C)(=O)=O)n2)c1 (3D coordinates assigned)
CS(=O)(=O)[N-]c1cccc(-c2cc[nH+]c(S(C)(=O)=O)n2)c1 (optimized conformer: 34.07218293585138 kcal/mol)

>  <smiles>  (5) 
CS(=O)(=O)Nc1cccc(-c2ccnc(S(C)(=O)=O)n2)c1

>  <score_type>  (5) 
oracle

>  <origin>  (5) 
adg

>  <m_score__min__energy>  (5) 
-8.7300000000000004

>  <m_primary>  (5) 
energy

$$$$
5:0
     RDKit          3D

 33 35  0  0  0  0  0  0  0  0999 V2000
   58.8557   20.8637   43.2429 H   0  0  0  0  0  0  0  0  0  0  0  0
   58.1630   21.5090   43.8030 C   0  0  0  0  0  0  0  0  0  0  0  0
   56.9120   21.8260   43.2640 C   0  0  0  0  0  0  0  0  0  0  0  0
   56.6271   21.4386   42.2747 H   0  0  0  0  0  0  0  0  0  0  0  0
   56.0220   22.6340   43.9790 C   0  0  0  0  0  0  0  0  0  0  0  0
   54.8470   22.9860   43.4000 F   0  0  0  0  0  0  0  0  0  0  0  0
   56.3790   23.1170   45.2550 C   0  0  0  0  0  0  0  0  0  0  0  0
   55.5070   23.9630   46.0200 N   0  0  0  0  0  0  0  0  0  0  0  0
   55.4490   25.3900   45.9420 C   0  0  0  0  0  0  0  0  0  0  0  0
   54.3550   25.9640   45.6890 O   0  0  0  0  0  0  0  0  0  0  0  0
   56.6210   26.1460   46.2750 N   0  0  0  0  0  0  0  0  0  0  0  0
   56.9090   27.3710   45.9390 C   0  0  0  0  0  0  0  0  0  0  0  0
   58.4010   28.0840   46.2940 S   0  0  0  0  0  0  0  0  0  0  0  0
   57.9760   29.5240   45.5400 C   0  0  0  0  0  0  0  0  0  0  0  0
   58.7310   30.6840   45.3980 C   0  0  0  0  0  0  0  0  0  0  0  0
   59.7467   30.7501   45.8151 H   0  0  0  0  0  0  0  0  0  0  0  0
   58.1600   31.7760   44.7040 C   0  0  0  0  0  0  0  0  0  0  0  0
   58.8470   32.9840   44.5160 O   0  0  0  0  0  0  0  0  0  0  0  0
   59.3110   33.8170   45.5730 C   0  0  0  0  0  0  0  0  0  0  0  0
   59.0558   33.3588   46.5399 H   0  0  0  0  0  0  0  0  0  0  0  0
   60.4025   33.9309   45.4979 H   0  0  0  0  0  0  0  0  0  0  0  0
   58.8333   34.8050   45.4979 H   0  0  0  0  0  0  0  0  0  0  0  0
   56.8550   31.6600   44.1780 C   0  0  0  0  0  0  0  0  0  0  0  0
   56.4100   32.5092   43.6386 H   0  0  0  0  0  0  0  0  0  0  0  0
   56.1170   30.4750   44.3340 C   0  0  0  0  0  0  0  0  0  0  0  0
   55.1019   30.3888   43.9191 H   0  0  0  0  0  0  0  0  0  0  0  0
   56.6950   29.4090   45.0250 C   0  0  0  0  0  0  0  0  0  0  0  0
   56.0950   28.2090   45.2410 N   0  0  0  0  0  0  0  0  0  0  0  0
   55.1480   27.9810   44.8720 H   0  0  0  0  0  0  0  0  0  0  0  0
   57.6470   22.8210   45.7710 C   0  0  0  0  0  0  0  0  0  0  0  0
   57.9479   23.2277   46.7477 H   0  0  0  0  0  0  0  0  0  0  0  0
   58.5330   22.0120   45.0530 C   0  0  0  0  0  0  0  0  0  0  0  0
   59.7520   21.7170   45.5670 F   0  0  0  0  0  0  0  0  0  0  0  0
  1  2  1  0
  2  3  2  0
  3  4  1  0
  3  5  1  0
  5  6  1  0
  5  7  2  0
  7  8  1  0
  8  9  1  0
  9 10  2  0
  9 11  1  0
 11 12  2  0
 12 13  1  0
 13 14  1  0
 14 15  2  0
 15 16  1  0
 15 17  1  0
 17 18  1  0
 18 19  1  0
 19 20  1  0
 19 21  1  0
 19 22  1  0
 17 23  2  0
 23 24  1  0
 23 25  1  0
 25 26  1  0
 25 27  2  0
 27 28  1  0
 28 29  1  0
  7 30  1  0
 30 31  1  0
 30 32  2  0
 32 33  1  0
 32  2  1  0
 28 12  1  0
 27 14  1  0
M  CHG  1   8  -1
M  END
>  <UniqueID>  (6) 
6

>  <SMILES>  (6) 
COc1ccc2[nH]/c(=N\C(=O)[N-]c3cc(F)ccc3F)sc2c1

>  <Energy>  (6) 
79.57155047574646

>  <Genealogy>  (6) 
COc1ccc2[nH]c(=NC(=O)[N-]c3cc(F)ccc3F)sc2c1 (protonated)
COc1ccc2[nH]/c(=N\C(=O)[N-]c3cc(F)ccc3F)sc2c1 (cis-trans isomerization)
COc1ccc2[nH]/c(=N\C(=O)[N-]c3cc(F)ccc3F)sc2c1 (3D coordinates assigned)
COc1ccc2[nH]/c(=N\C(=O)[N-]c3cc(F)ccc3F)sc2c1 (optimized conformer: 79.57155047574646 kcal/mol)

>  <smiles>  (6) 
COc1ccc2[nH]c(=NC(=O)Nc3cc(F)ccc3F)sc2c1

>  <score_type>  (6) 
oracle

>  <origin>  (6) 
adg

>  <m_score__min__energy>  (6) 
-8.8900000000000006

>  <m_primary>  (6) 
energy

$$$$
6:0
     RDKit          3D

 40 42  0  0  0  0  0  0  0  0999 V2000
   59.9540   30.5100   51.7480 C   0  0  0  0  0  0  0  0  0  0  0  0
   58.4190   30.5680   50.8490 S   0  0  0  0  0  0  0  0  0  0  0  0
   57.9750   32.0000   50.7270 O   0  0  0  0  0  0  0  0  0  0  0  0
   57.3790   29.7950   51.6110 O   0  0  0  0  0  0  0  0  0  0  0  0
   58.6490   29.8240   49.2900 N   0  0  0  0  0  0  0  0  0  0  0  0
   59.8720   29.0230   49.2320 C   0  0  0  0  0  0  0  0  0  0  0  0
   59.6620   27.7670   48.3820 C   0  0  0  0  0  0  0  0  0  0  0  0
   60.0190   28.0940   46.6200 S   0  0  0  0  0  0  0  0  0  0  0  0
   58.3110   27.9730   46.0720 C   0  0  0  0  0  0  0  0  0  0  0  0
   57.5400   26.8300   46.0780 C   0  0  0  0  0  0  0  0  0  0  0  0
   57.9840   25.5760   46.4850 O   0  0  0  0  0  0  0  0  0  0  0  0
   56.2860   27.0690   45.6480 N   0  0  0  0  0  0  0  0  0  0  0  0
   56.2670   28.3880   45.3660 C   0  0  0  0  0  0  0  0  0  0  0  0
   55.1440   29.0390   44.8740 O   0  0  0  0  0  0  0  0  0  0  0  0
   57.4940   28.9860   45.6040 C   0  0  0  0  0  0  0  0  0  0  0  0
   57.8370   30.4140   45.4230 C   0  0  0  0  0  0  0  0  0  0  0  0
   57.5940   31.0560   44.1980 C   0  0  0  0  0  0  0  0  0  0  0  0
   57.9390   32.3980   44.0170 C   0  0  0  0  0  0  0  0  0  0  0  0
   58.5330   33.1200   45.0610 C   0  0  0  0  0  0  0  0  0  0  0  0
   58.8880   34.4670   44.8880 C   0  0  0  0  0  0  0  0  0  0  0  0
   59.4800   35.1760   45.9360 C   0  0  0  0  0  0  0  0  0  0  0  0
   59.7220   34.5490   47.1620 C   0  0  0  0  0  0  0  0  0  0  0  0
   59.3720   33.2080   47.3470 C   0  0  0  0  0  0  0  0  0  0  0  0
   58.7760   32.4840   46.3030 C   0  0  0  0  0  0  0  0  0  0  0  0
   58.4230   31.1380   46.4750 C   0  0  0  0  0  0  0  0  0  0  0  0
   59.7468   30.5178   52.8283 H   0  0  0  0  0  0  0  0  0  0  0  0
   60.4981   29.5907   51.4857 H   0  0  0  0  0  0  0  0  0  0  0  0
   60.5659   31.3857   51.4857 H   0  0  0  0  0  0  0  0  0  0  0  0
   60.6776   29.6271   48.7892 H   0  0  0  0  0  0  0  0  0  0  0  0
   60.1398   28.7155   50.2536 H   0  0  0  0  0  0  0  0  0  0  0  0
   60.3329   26.9734   48.7427 H   0  0  0  0  0  0  0  0  0  0  0  0
   58.6105   27.4570   48.4726 H   0  0  0  0  0  0  0  0  0  0  0  0
   58.8150   25.1660   46.0770 H   0  0  0  0  0  0  0  0  0  0  0  0
   57.1277   30.4973   43.3731 H   0  0  0  0  0  0  0  0  0  0  0  0
   57.7438   32.8891   43.0523 H   0  0  0  0  0  0  0  0  0  0  0  0
   58.6997   34.9652   43.9255 H   0  0  0  0  0  0  0  0  0  0  0  0
   59.7568   36.2314   45.7962 H   0  0  0  0  0  0  0  0  0  0  0  0
   60.1891   35.1123   47.9833 H   0  0  0  0  0  0  0  0  0  0  0  0
   59.5643   32.7192   48.3135 H   0  0  0  0  0  0  0  0  0  0  0  0
   58.6063   30.6450   47.4411 H   0  0  0  0  0  0  0  0  0  0  0  0
  1  2  1  0
  2  3  2  0
  2  4  2  0
  2  5  1  0
  5  6  1  0
  6  7  1  0
  7  8  1  0
  8  9  1  0
  9 10  2  0
 10 11  1  0
 10 12  1  0
 12 13  1  0
 13 14  1  0
 13 15  2  0
 15 16  1  0
 16 17  2  0
 17 18  1  0
 18 19  2  0
 19 20  1  0
 20 21  2  0
 21 22  1  0
 22 23  2  0
 23 24  1  0
 24 25  2  0
 15  9  1  0
 25 16  1  0
 24 19  1  0
  1 26  1  0
  1 27  1  0
  1 28  1  0
  6 29  1  0
  6 30  1  0
  7 31  1  0
  7 32  1  0
 11 33  1  0
 17 34  1  0
 18 35  1  0
 20 36  1  0
 21 37  1  0
 22 38  1  0
 23 39  1  0
 25 40  1  0
M  CHG  3   5  -1  12  -1  14  -1
M  END
>  <UniqueID>  (7) 
7

>  <SMILES>  (7) 
CS(=O)(=O)[N-]CCSc1c(O)[n-]c([O-])c1-c1ccc2ccccc2c1

>  <Energy>  (7) 
66.20853530497294

>  <Genealogy>  (7) 
CS(=O)(=O)[N-]CCSc1c(O)[n-]c([O-])c1-c1ccc2ccccc2c1 (protonated)
CS(=O)(=O)[N-]CCSc1c(O)[n-]c([O-])c1-c1ccc2ccccc2c1 (3D coordinates assigned)
CS(=O)(=O)[N-]CCSc1c(O)[n-]c([O-])c1-c1ccc2ccccc2c1 (optimized conformer: 66.20853530497294 kcal/mol)

>  <smiles>  (7) 
CS(=O)(=O)NCCSc1c(O)[nH]c(O)c1-c1ccc2ccccc2c1

>  <score_type>  (7) 
oracle

>  <origin>  (7) 
adg

>  <m_score__min__energy>  (7) 
-13.869999999999999

>  <m_primary>  (7) 
energy

$$$$
7:0
     RDKit          3D

 39 40  0  0  0  0  0  0  0  0999 V2000
   56.6530   26.4420   46.0040 C   0  0  0  0  0  0  0  0  0  0  0  0
   55.9080   27.5910   45.6170 O   0  0  0  0  0  0  0  0  0  0  0  0
   56.4790   28.8120   45.2230 C   0  0  0  0  0  0  0  0  0  0  0  0
   55.7700   29.6130   44.3270 C   0  0  0  0  0  0  0  0  0  0  0  0
   56.3060   30.8200   43.8770 C   0  0  0  0  0  0  0  0  0  0  0  0
   57.5670   31.2490   44.3180 C   0  0  0  0  0  0  0  0  0  0  0  0
   58.1510   32.5310   43.7640 C   0  0  0  0  0  0  0  0  0  0  0  0
   57.6750   33.7990   44.5000 C   0  0  0  0  0  0  0  0  0  0  0  0
   57.1660   33.5550   45.9350 C   0  0  0  0  0  0  0  0  0  0  0  0
   58.2630   33.6110   46.9730 C   0  0  0  0  0  0  0  0  0  0  0  0
   59.3400   34.5030   46.8280 C   0  0  0  0  0  0  0  0  0  0  0  0
   60.3310   34.5800   47.8120 C   0  0  0  0  0  0  0  0  0  0  0  0
   60.2680   33.7540   48.9360 C   0  0  0  0  0  0  0  0  0  0  0  0
   59.2210   32.8380   49.0710 C   0  0  0  0  0  0  0  0  0  0  0  0
   58.2270   32.7590   48.0910 C   0  0  0  0  0  0  0  0  0  0  0  0
   58.2770   30.4710   45.2580 C   0  0  0  0  0  0  0  0  0  0  0  0
   59.5160   30.9340   45.7280 O   0  0  0  0  0  0  0  0  0  0  0  0
   60.3950   30.1910   46.5660 C   0  0  0  0  0  0  0  0  0  0  0  0
   57.7290   29.2480   45.6970 C   0  0  0  0  0  0  0  0  0  0  0  0
   56.6915   26.3826   47.1017 H   0  0  0  0  0  0  0  0  0  0  0  0
   56.1681   25.5390   45.6047 H   0  0  0  0  0  0  0  0  0  0  0  0
   57.6753   26.5162   45.6047 H   0  0  0  0  0  0  0  0  0  0  0  0
   54.7801   29.2901   43.9724 H   0  0  0  0  0  0  0  0  0  0  0  0
   55.7352   31.4405   43.1705 H   0  0  0  0  0  0  0  0  0  0  0  0
   59.2468   32.4753   43.8419 H   0  0  0  0  0  0  0  0  0  0  0  0
   57.8074   32.6164   42.7225 H   0  0  0  0  0  0  0  0  0  0  0  0
   58.5182   34.5036   44.5502 H   0  0  0  0  0  0  0  0  0  0  0  0
   56.8203   34.1893   43.9280 H   0  0  0  0  0  0  0  0  0  0  0  0
   56.4171   34.3239   46.1759 H   0  0  0  0  0  0  0  0  0  0  0  0
   56.7406   32.5410   45.9631 H   0  0  0  0  0  0  0  0  0  0  0  0
   59.4036   35.1436   45.9361 H   0  0  0  0  0  0  0  0  0  0  0  0
   61.1615   35.2926   47.7002 H   0  0  0  0  0  0  0  0  0  0  0  0
   61.0418   33.8241   49.7147 H   0  0  0  0  0  0  0  0  0  0  0  0
   59.1790   32.1780   49.9500 H   0  0  0  0  0  0  0  0  0  0  0  0
   57.4128   32.0267   48.1951 H   0  0  0  0  0  0  0  0  0  0  0  0
   60.1552   30.3937   47.6202 H   0  0  0  0  0  0  0  0  0  0  0  0
   60.2747   29.1167   46.3626 H   0  0  0  0  0  0  0  0  0  0  0  0
   61.4343   30.4885   46.3626 H   0  0  0  0  0  0  0  0  0  0  0  0
   58.2846   28.6293   46.4170 H   0  0  0  0  0  0  0  0  0  0  0  0
  1  2  1  0
  2  3  1  0
  3  4  2  0
  4  5  1  0
  5  6  2  0
  6  7  1  0
  7  8  1  0
  8  9  1  0
  9 10  1  0
 10 11  2  0
 11 12  1  0
 12 13  2  0
 13 14  1  0
 14 15  2  0
  6 16  1  0
 16 17  1  0
 17 18  1  0
 16 19  2  0
 19  3  1  0
 15 10  1  0
  1 20  1  0
  1 21  1  0
  1 22  1  0
  4 23  1  0
  5 24  1  0
  7 25  1  0
  7 26  1  0
  8 27  1  0
  8 28  1  0
  9 29  1  0
  9 30  1  0
 11 31  1  0
 12 32  1  0
 13 33  1  0
 14 34  1  0
 15 35  1  0
 18 36  1  0
 18 37  1  0
 18 38  1  0
 19 39  1  0
M  END
>  <UniqueID>  (8) 
8

>  <SMILES>  (8) 
COc1ccc(CCCc2ccccc2)c(OC)c1

>  <Energy>  (8) 
32.421225134417966

>  <Genealogy>  (8) 
COc1ccc(CCCc2ccccc2)c(OC)c1 (3D coordinates assigned)
COc1ccc(CCCc2ccccc2)c(OC)c1 (optimized conformer: 32.421225134417966 kcal/mol)

>  <smiles>  (8) 
COc1ccc(CCCc2ccccc2)c(OC)c1

>  <score_type>  (8) 
oracle

>  <origin>  (8) 
adg

>  <m_score__min__energy>  (8) 
-6.5099999999999998

>  <m_primary>  (8) 
energy

$$$$
8:0
     RDKit          3D

 50 52  0  0  0  0  0  0  0  0999 V2000
   56.9240   30.3060   43.6700 C   0  0  0  0  0  0  0  0  0  0  0  0
   56.9730   30.7900   45.0080 O   0  0  0  0  0  0  0  0  0  0  0  0
   57.7690   31.8670   45.4390 C   0  0  0  0  0  0  0  0  0  0  0  0
   57.6210   33.1650   44.9090 C   0  0  0  0  0  0  0  0  0  0  0  0
   58.4290   34.2080   45.3670 C   0  0  0  0  0  0  0  0  0  0  0  0
   59.3970   33.9680   46.3420 C   0  0  0  0  0  0  0  0  0  0  0  0
   59.5540   32.6850   46.8710 C   0  0  0  0  0  0  0  0  0  0  0  0
   58.7330   31.6280   46.4320 C   0  0  0  0  0  0  0  0  0  0  0  0
   58.8350   30.3330   46.9620 O   0  0  0  0  0  0  0  0  0  0  0  0
   58.9980   30.0380   48.3470 C   0  0  0  0  0  0  0  0  0  0  0  0
   60.2440   29.1780   48.5470 C   0  0  0  0  0  0  0  0  0  0  0  0
   60.6590   28.5500   47.2930 N   0  0  0  0  0  0  0  0  0  0  0  0
   60.2150   27.2790   46.8000 C   0  0  0  0  0  0  0  0  0  0  0  0
   61.0760   26.4060   46.5140 O   0  0  0  0  0  0  0  0  0  0  0  0
   58.7880   26.9690   46.5960 C   0  0  0  0  0  0  0  0  0  0  0  0
   57.9790   27.8040   45.8120 C   0  0  0  0  0  0  0  0  0  0  0  0
   56.6330   27.4950   45.6090 C   0  0  0  0  0  0  0  0  0  0  0  0
   56.0770   26.3410   46.1880 C   0  0  0  0  0  0  0  0  0  0  0  0
   54.7020   25.9860   45.9830 N   0  0  0  0  0  0  0  0  0  0  0  0
   54.2340   24.7030   45.5450 C   0  0  0  0  0  0  0  0  0  0  0  0
   53.1470   24.2600   45.9980 O   0  0  0  0  0  0  0  0  0  0  0  0
   54.9680   23.9150   44.5980 N   0  0  0  0  0  0  0  0  0  0  0  0
   56.1670   23.1770   44.8800 C   0  0  0  0  0  0  0  0  0  0  0  0
   56.1580   22.0690   45.7480 C   0  0  0  0  0  0  0  0  0  0  0  0
   57.3370   21.3580   45.9930 C   0  0  0  0  0  0  0  0  0  0  0  0
   58.5280   21.7400   45.3680 C   0  0  0  0  0  0  0  0  0  0  0  0
   58.5410   22.8340   44.4990 C   0  0  0  0  0  0  0  0  0  0  0  0
   57.3630   23.5450   44.2480 C   0  0  0  0  0  0  0  0  0  0  0  0
   57.3880   24.6030   43.3990 F   0  0  0  0  0  0  0  0  0  0  0  0
   56.8720   25.5350   47.0110 C   0  0  0  0  0  0  0  0  0  0  0  0
   58.2190   25.8470   47.2170 C   0  0  0  0  0  0  0  0  0  0  0  0
   56.8132   29.2116   43.6798 H   0  0  0  0  0  0  0  0  0  0  0  0
   56.0669   30.7567   43.1482 H   0  0  0  0  0  0  0  0  0  0  0  0
   57.8540   30.5757   43.1482 H   0  0  0  0  0  0  0  0  0  0  0  0
   56.8664   33.3569   44.1320 H   0  0  0  0  0  0  0  0  0  0  0  0
   58.3017   35.2211   44.9578 H   0  0  0  0  0  0  0  0  0  0  0  0
   60.0374   34.7899   46.6946 H   0  0  0  0  0  0  0  0  0  0  0  0
   60.3233   32.4989   47.6349 H   0  0  0  0  0  0  0  0  0  0  0  0
   59.1072   30.9765   48.9103 H   0  0  0  0  0  0  0  0  0  0  0  0
   58.1154   29.4903   48.7091 H   0  0  0  0  0  0  0  0  0  0  0  0
   61.0621   29.8124   48.9187 H   0  0  0  0  0  0  0  0  0  0  0  0
   60.0080   28.3855   49.2725 H   0  0  0  0  0  0  0  0  0  0  0  0
   58.4076   28.7078   45.3543 H   0  0  0  0  0  0  0  0  0  0  0  0
   56.0053   28.1566   44.9940 H   0  0  0  0  0  0  0  0  0  0  0  0
   55.2209   21.7615   46.2350 H   0  0  0  0  0  0  0  0  0  0  0  0
   57.3274   20.4974   46.6780 H   0  0  0  0  0  0  0  0  0  0  0  0
   59.4546   21.1793   45.5604 H   0  0  0  0  0  0  0  0  0  0  0  0
   59.4794   23.1367   44.0114 H   0  0  0  0  0  0  0  0  0  0  0  0
   56.4345   24.6512   47.4984 H   0  0  0  0  0  0  0  0  0  0  0  0
   58.8353   25.2102   47.8686 H   0  0  0  0  0  0  0  0  0  0  0  0
  1  2  1  0
  2  3  1  0
  3  4  2  0
  4  5  1  0
  5  6  2  0
  6  7  1  0
  7  8  2  0
  8  9  1  0
  9 10  1  0
 10 11  1  0
 11 12  1  0
 12 13  1  0
 13 14  2  0
 13 15  1  0
 15 16  2  0
 16 17  1  0
 17 18  2  0
 18 19  1  0
 19 20  1  0
 20 21  2  0
 20 22  1  0
 22 23  1  0
 23 24  2  0
 24 25  1  0
 25 26  2  0
 26 27  1  0
 27 28  2  0
 28 29  1  0
 18 30  1  0
 30 31  2  0
  8  3  1  0
 31 15  1  0
 28 23  1  0
  1 32  1  0
  1 33  1  0
  1 34  1  0
  4 35  1  0
  5 36  1  0
  6 37  1  0
  7 38  1  0
 10 39  1  0
 10 40  1  0
 11 41  1  0
 11 42  1  0
 16 43  1  0
 17 44  1  0
 24 45  1  0
 25 46  1  0
 26 47  1  0
 27 48  1  0
 30 49  1  0
 31 50  1  0
M  CHG  3  12  -1  19  -1  22  -1
M  END
>  <UniqueID>  (9) 
9

>  <SMILES>  (9) 
COc1ccccc1OCC[N-]C(=O)c1ccc([N-]C(=O)[N-]c2ccccc2F)cc1

>  <Energy>  (9) 
57.796742614061756

>  <Genealogy>  (9) 
COc1ccccc1OCC[N-]C(=O)c1ccc([N-]C(=O)[N-]c2ccccc2F)cc1 (protonated)
COc1ccccc1OCC[N-]C(=O)c1ccc([N-]C(=O)[N-]c2ccccc2F)cc1 (3D coordinates assigned)
COc1ccccc1OCC[N-]C(=O)c1ccc([N-]C(=O)[N-]c2ccccc2F)cc1 (optimized conformer: 57.796742614061756 kcal/mol)

>  <smiles>  (9) 
COc1ccccc1OCCNC(=O)c1ccc(NC(=O)Nc2ccccc2F)cc1

>  <score_type>  (9) 
oracle

>  <origin>  (9) 
adg

>  <m_score__min__energy>  (9) 
-12.27

>  <m_primary>  (9) 
energy

$$$$
9:0
     RDKit          3D

 40 41  0  0  0  0  0  0  0  0999 V2000
   62.9310   31.6480   47.5180 C   0  0  0  0  0  0  0  0  0  0  0  0
   61.8370   31.9620   48.3730 O   0  0  0  0  0  0  0  0  0  0  0  0
   60.6420   32.5710   47.9520 C   0  0  0  0  0  0  0  0  0  0  0  0
   60.6440   33.6500   47.0450 C   0  0  0  0  0  0  0  0  0  0  0  0
   59.4430   34.2060   46.6010 C   0  0  0  0  0  0  0  0  0  0  0  0
   58.2270   33.6930   47.0510 C   0  0  0  0  0  0  0  0  0  0  0  0
   58.2070   32.6310   47.9550 C   0  0  0  0  0  0  0  0  0  0  0  0
   59.4080   32.0720   48.4280 C   0  0  0  0  0  0  0  0  0  0  0  0
   59.3460   30.9560   49.4000 C   0  0  0  0  0  0  0  0  0  0  0  0
   58.3080   30.8020   50.0990 O   0  0  0  0  0  0  0  0  0  0  0  0
   60.4660   30.0770   49.5820 N   0  0  0  0  0  0  0  0  0  0  0  0
   60.3730   28.8970   50.4400 C   0  0  0  0  0  0  0  0  0  0  0  0
   60.7580   27.6550   49.6860 C   0  0  0  0  0  0  0  0  0  0  0  0
   61.1340   26.6420   50.3330 O   0  0  0  0  0  0  0  0  0  0  0  0
   60.7770   27.6060   48.2520 N   0  0  0  0  0  0  0  0  0  0  0  0
   59.7810   28.1310   47.3630 C   0  0  0  0  0  0  0  0  0  0  0  0
   60.0620   29.3000   46.6460 C   0  0  0  0  0  0  0  0  0  0  0  0
   59.1240   29.8260   45.7530 C   0  0  0  0  0  0  0  0  0  0  0  0
   57.9010   29.1730   45.5500 C   0  0  0  0  0  0  0  0  0  0  0  0
   56.7180   29.8440   44.4330 S   0  0  0  0  0  0  0  0  0  0  0  0
   55.1240   29.3750   44.9140 N   0  0  0  0  0  0  0  0  0  0  0  0
   56.9930   29.3330   43.0470 O   0  0  0  0  0  0  0  0  0  0  0  0
   56.8010   31.3450   44.4360 O   0  0  0  0  0  0  0  0  0  0  0  0
   57.6260   27.9900   46.2480 C   0  0  0  0  0  0  0  0  0  0  0  0
   58.5640   27.4640   47.1410 C   0  0  0  0  0  0  0  0  0  0  0  0
   63.8115   31.3953   48.1270 H   0  0  0  0  0  0  0  0  0  0  0  0
   62.6656   30.7898   46.8832 H   0  0  0  0  0  0  0  0  0  0  0  0
   63.1612   32.5163   46.8832 H   0  0  0  0  0  0  0  0  0  0  0  0
   61.5999   34.0573   46.6840 H   0  0  0  0  0  0  0  0  0  0  0  0
   59.4559   35.0497   45.8954 H   0  0  0  0  0  0  0  0  0  0  0  0
   57.2818   34.1266   46.6924 H   0  0  0  0  0  0  0  0  0  0  0  0
   57.2440   32.2272   48.3009 H   0  0  0  0  0  0  0  0  0  0  0  0
   61.3800   30.3230   49.1400 H   0  0  0  0  0  0  0  0  0  0  0  0
   61.0494   29.0215   51.2985 H   0  0  0  0  0  0  0  0  0  0  0  0
   59.3330   28.7923   50.7828 H   0  0  0  0  0  0  0  0  0  0  0  0
   61.0275   29.8081   46.7863 H   0  0  0  0  0  0  0  0  0  0  0  0
   59.3466   30.7552   45.2081 H   0  0  0  0  0  0  0  0  0  0  0  0
   55.2330   28.6390   45.6480 H   0  0  0  0  0  0  0  0  0  0  0  0
   56.6677   27.4727   46.0927 H   0  0  0  0  0  0  0  0  0  0  0  0
   58.3489   26.5248   47.6718 H   0  0  0  0  0  0  0  0  0  0  0  0
  1  2  1  0
  2  3  1  0
  3  4  2  0
  4  5  1  0
  5  6  2  0
  6  7  1  0
  7  8  2  0
  8  9  1  0
  9 10  2  0
  9 11  1  0
 11 12  1  0
 12 13  1  0
 13 14  2  0
 13 15  1  0
 15 16  1  0
 16 17  2  0
 17 18  1  0
 18 19  2  0
 19 20  1  0
 20 21  1  0
 20 22  2  0
 20 23  2  0
 19 24  1  0
 24 25  2  0
  8  3  1  0
 25 16  1  0
  1 26  1  0
  1 27  1  0
  1 28  1  0
  4 29  1  0
  5 30  1  0
  6 31  1  0
  7 32  1  0
 11 33  1  0
 12 34  1  0
 12 35  1  0
 17 36  1  0
 18 37  1  0
 21 38  1  0
 24 39  1  0
 25 40  1  0
M  CHG  2  15  -1  21  -1
M  END
>  <UniqueID>  (10) 
10

>  <SMILES>  (10) 
COc1ccccc1C(=O)NCC(=O)[N-]c1ccc(S([NH-])(=O)=O)cc1

>  <Energy>  (10) 
45.923689999088914

>  <Genealogy>  (10) 
COc1ccccc1C(=O)NCC(=O)[N-]c1ccc(S([NH-])(=O)=O)cc1 (protonated)
COc1ccccc1C(=O)NCC(=O)[N-]c1ccc(S([NH-])(=O)=O)cc1 (3D coordinates assigned)
COc1ccccc1C(=O)NCC(=O)[N-]c1ccc(S([NH-])(=O)=O)cc1 (optimized conformer: 45.923689999088914 kcal/mol)

>  <smiles>  (10) 
COc1ccccc1C(=O)NCC(=O)Nc1ccc(S(N)(=O)=O)cc1

>  <score_type>  (10) 
oracle

>  <origin>  (10) 
adg

>  <m_score__min__energy>  (10) 
-11.119999999999999

>  <m_primary>  (10) 
energy

$$$$
10:0
     RDKit          3D

 34 35  0  0  0  0  0  0  0  0999 V2000
   60.7390   27.5060   50.2950 C   0  0  0  0  0  0  0  0  0  0  0  0
   60.6360   27.0530   48.9500 O   0  0  0  0  0  0  0  0  0  0  0  0
   59.8420   27.6480   47.9580 C   0  0  0  0  0  0  0  0  0  0  0  0
   59.2040   26.8690   46.9720 C   0  0  0  0  0  0  0  0  0  0  0  0
   58.3730   27.4570   46.0160 C   0  0  0  0  0  0  0  0  0  0  0  0
   57.6100   26.4140   44.8200 Cl  0  0  0  0  0  0  0  0  0  0  0  0
   58.1580   28.8470   46.0330 C   0  0  0  0  0  0  0  0  0  0  0  0
   57.1010   29.6240   44.8470 S   0  0  0  0  0  0  0  0  0  0  0  0
   55.5210   28.9240   44.8840 N   0  0  0  0  0  0  0  0  0  0  0  0
   57.6790   29.4450   43.4710 O   0  0  0  0  0  0  0  0  0  0  0  0
   56.9900   31.0890   45.1600 O   0  0  0  0  0  0  0  0  0  0  0  0
   58.7980   29.6260   47.0070 C   0  0  0  0  0  0  0  0  0  0  0  0
   59.6510   29.0480   47.9550 C   0  0  0  0  0  0  0  0  0  0  0  0
   60.2720   29.9310   48.9030 N   0  0  0  0  0  0  0  0  0  0  0  0
   59.7720   31.5380   49.3300 S   0  0  0  0  0  0  0  0  0  0  0  0
   58.3610   31.4980   49.8470 O   0  0  0  0  0  0  0  0  0  0  0  0
   60.6980   32.0850   50.3790 O   0  0  0  0  0  0  0  0  0  0  0  0
   59.8420   32.5910   47.9110 C   0  0  0  0  0  0  0  0  0  0  0  0
   58.6570   32.9180   47.2310 C   0  0  0  0  0  0  0  0  0  0  0  0
   58.6900   33.7480   46.1070 C   0  0  0  0  0  0  0  0  0  0  0  0
   57.0710   34.1830   45.1930 Br  0  0  0  0  0  0  0  0  0  0  0  0
   59.9080   34.2570   45.6510 C   0  0  0  0  0  0  0  0  0  0  0  0
   61.0920   33.9390   46.3170 C   0  0  0  0  0  0  0  0  0  0  0  0
   61.0700   33.1090   47.4460 C   0  0  0  0  0  0  0  0  0  0  0  0
   62.7420   32.7180   48.3010 Br  0  0  0  0  0  0  0  0  0  0  0  0
   60.5482   26.6669   50.9802 H   0  0  0  0  0  0  0  0  0  0  0  0
   61.7500   27.9015   50.4723 H   0  0  0  0  0  0  0  0  0  0  0  0
   59.9984   28.2998   50.4723 H   0  0  0  0  0  0  0  0  0  0  0  0
   59.3631   25.7807   46.9551 H   0  0  0  0  0  0  0  0  0  0  0  0
   55.0140   29.3560   45.6890 H   0  0  0  0  0  0  0  0  0  0  0  0
   58.6267   30.7124   47.0269 H   0  0  0  0  0  0  0  0  0  0  0  0
   57.6958   32.5177   47.5859 H   0  0  0  0  0  0  0  0  0  0  0  0
   59.9339   34.9094   44.7657 H   0  0  0  0  0  0  0  0  0  0  0  0
   62.0487   34.3423   45.9537 H   0  0  0  0  0  0  0  0  0  0  0  0
  1  2  1  0
  2  3  1  0
  3  4  2  0
  4  5  1  0
  5  6  1  0
  5  7  2  0
  7  8  1  0
  8  9  1  0
  8 10  2  0
  8 11  2  0
  7 12  1  0
 12 13  2  0
 13 14  1  0
 14 15  1  0
 15 16  2  0
 15 17  2  0
 15 18  1  0
 18 19  2  0
 19 20  1  0
 20 21  1  0
 20 22  2  0
 22 23  1  0
 23 24  2  0
 24 25  1  0
 13  3  1  0
 24 18  1  0
  1 26  1  0
  1 27  1  0
  1 28  1  0
  4 29  1  0
  9 30  1  0
 12 31  1  0
 19 32  1  0
 22 33  1  0
 23 34  1  0
M  CHG  2   9  -1  14  -1
M  END
>  <UniqueID>  (11) 
11

>  <SMILES>  (11) 
COc1cc(Cl)c(S([NH-])(=O)=O)cc1[N-]S(=O)(=O)c1cc(Br)ccc1Br

>  <Energy>  (11) 
44.82948895584148

>  <Genealogy>  (11) 
COc1cc(Cl)c(S([NH-])(=O)=O)cc1[N-]S(=O)(=O)c1cc(Br)ccc1Br (protonated)
COc1cc(Cl)c(S([NH-])(=O)=O)cc1[N-]S(=O)(=O)c1cc(Br)ccc1Br (3D coordinates assigned)
COc1cc(Cl)c(S([NH-])(=O)=O)cc1[N-]S(=O)(=O)c1cc(Br)ccc1Br (optimized conformer: 44.82948895584148 kcal/mol)

>  <smiles>  (11) 
COc1cc(Cl)c(S(N)(=O)=O)cc1NS(=O)(=O)c1cc(Br)ccc1Br

>  <score_type>  (11) 
oracle

>  <origin>  (11) 
adg

>  <m_score__min__energy>  (11) 
-12.890000000000001

>  <m_primary>  (11) 
energy

$$$$
11:0
     RDKit          3D

 29 30  0  0  0  0  0  0  0  0999 V2000
   65.6500   33.5100   50.8340 C   0  0  0  0  0  0  0  0  0  0  0  0
   64.3150   33.3990   50.1780 C   0  0  0  0  0  0  0  0  0  0  0  0
   64.0240   32.6400   49.0650 C   0  0  0  0  0  0  0  0  0  0  0  0
   62.6980   32.9270   48.8120 C   0  0  0  0  0  0  0  0  0  0  0  0
   61.8840   32.3660   47.7220 C   0  0  0  0  0  0  0  0  0  0  0  0
   62.4560   31.8020   46.7500 O   0  0  0  0  0  0  0  0  0  0  0  0
   60.4530   32.4980   47.7470 N   0  0  0  0  0  0  0  0  0  0  0  0
   59.5660   31.7860   46.8660 C   0  0  0  0  0  0  0  0  0  0  0  0
   58.7710   32.5070   45.9620 C   0  0  0  0  0  0  0  0  0  0  0  0
   57.8840   31.8420   45.1100 C   0  0  0  0  0  0  0  0  0  0  0  0
   57.7650   30.4470   45.1650 C   0  0  0  0  0  0  0  0  0  0  0  0
   56.6580   29.6110   44.0830 S   0  0  0  0  0  0  0  0  0  0  0  0
   55.1390   29.3820   44.8760 N   0  0  0  0  0  0  0  0  0  0  0  0
   56.4510   30.4230   42.8350 O   0  0  0  0  0  0  0  0  0  0  0  0
   57.2310   28.2760   43.6990 O   0  0  0  0  0  0  0  0  0  0  0  0
   58.5450   29.7230   46.0780 C   0  0  0  0  0  0  0  0  0  0  0  0
   59.4320   30.3880   46.9290 C   0  0  0  0  0  0  0  0  0  0  0  0
   62.2420   33.8130   49.7190 N   0  0  0  0  0  0  0  0  0  0  0  0
   63.2320   34.1080   50.5490 N   0  0  0  0  0  0  0  0  0  0  0  0
   65.5236   33.4995   51.9267 H   0  0  0  0  0  0  0  0  0  0  0  0
   66.2799   32.6611   50.5296 H   0  0  0  0  0  0  0  0  0  0  0  0
   66.1310   34.4512   50.5296 H   0  0  0  0  0  0  0  0  0  0  0  0
   64.6913   31.9647   48.5094 H   0  0  0  0  0  0  0  0  0  0  0  0
   60.0370   33.2150   48.3820 H   0  0  0  0  0  0  0  0  0  0  0  0
   58.8462   33.6037   45.9234 H   0  0  0  0  0  0  0  0  0  0  0  0
   57.2775   32.4160   44.3940 H   0  0  0  0  0  0  0  0  0  0  0  0
   55.2790   28.6340   45.5920 H   0  0  0  0  0  0  0  0  0  0  0  0
   58.4584   28.6274   46.1246 H   0  0  0  0  0  0  0  0  0  0  0  0
   60.0291   29.8138   47.6527 H   0  0  0  0  0  0  0  0  0  0  0  0
  1  2  1  0
  2  3  2  0
  3  4  1  0
  4  5  1  0
  5  6  2  0
  5  7  1  0
  7  8  1  0
  8  9  2  0
  9 10  1  0
 10 11  2  0
 11 12  1  0
 12 13  1  0
 12 14  2  0
 12 15  2  0
 11 16  1  0
 16 17  2  0
  4 18  2  0
 18 19  1  0
 19  2  1  0
 17  8  1  0
  1 20  1  0
  1 21  1  0
  1 22  1  0
  3 23  1  0
  7 24  1  0
  9 25  1  0
 10 26  1  0
 13 27  1  0
 16 28  1  0
 17 29  1  0
M  CHG  2  13  -1  19  -1
M  END
>  <UniqueID>  (12) 
12

>  <SMILES>  (12) 
Cc1cc(C(=O)Nc2ccc(S([NH-])(=O)=O)cc2)n[n-]1

>  <Energy>  (12) 
59.74951567992208

>  <Genealogy>  (12) 
Cc1cc(C(=O)Nc2ccc(S([NH-])(=O)=O)cc2)n[n-]1 (protonated)
Cc1cc(C(=O)Nc2ccc(S([NH-])(=O)=O)cc2)n[n-]1 (3D coordinates assigned)
Cc1cc(C(=O)Nc2ccc(S([NH-])(=O)=O)cc2)n[n-]1 (optimized conformer: 59.74951567992208 kcal/mol)

>  <smiles>  (12) 
Cc1cc(C(=O)Nc2ccc(S(N)(=O)=O)cc2)n[nH]1

>  <score_type>  (12) 
oracle

>  <origin>  (12) 
adg

>  <m_score__min__energy>  (12) 
-9.3300000000000001

>  <m_primary>  (12) 
energy

$$$$
12:0
     RDKit          3D

 65 68  0  0  0  0  0  0  0  0999 V2000
   56.2120   30.8870   52.3310 C   0  0  0  0  0  0  0  0  0  0  0  0
   57.0260   32.1080   52.4500 N   0  0  0  0  0  0  0  0  0  0  0  0
   57.7760   32.3490   51.1980 C   0  0  0  0  0  0  0  0  0  0  0  0
   58.9180   33.3500   51.4220 C   0  0  0  0  0  0  0  0  0  0  0  0
   59.8880   32.8880   52.4450 N   0  0  0  0  0  0  0  0  0  0  0  0
   61.3760   32.3520   51.7040 S   0  0  0  0  0  0  0  0  0  0  0  0
   62.0110   33.4850   50.9470 O   0  0  0  0  0  0  0  0  0  0  0  0
   62.3310   31.8800   52.7650 O   0  0  0  0  0  0  0  0  0  0  0  0
   61.0310   31.0470   50.5730 C   0  0  0  0  0  0  0  0  0  0  0  0
   60.3200   29.9100   50.9730 C   0  0  0  0  0  0  0  0  0  0  0  0
   60.0470   28.8990   50.0520 C   0  0  0  0  0  0  0  0  0  0  0  0
   60.5050   29.0250   48.7290 C   0  0  0  0  0  0  0  0  0  0  0  0
   60.2580   28.0420   47.7590 O   0  0  0  0  0  0  0  0  0  0  0  0
   59.4920   28.2170   46.5950 C   0  0  0  0  0  0  0  0  0  0  0  0
   58.0960   28.1980   46.7000 C   0  0  0  0  0  0  0  0  0  0  0  0
   57.2970   28.3830   45.5670 C   0  0  0  0  0  0  0  0  0  0  0  0
   57.8870   28.6020   44.3120 C   0  0  0  0  0  0  0  0  0  0  0  0
   57.0340   28.8100   43.0840 C   0  0  0  0  0  0  0  0  0  0  0  0
   56.5000   30.2490   42.9840 C   0  0  0  0  0  0  0  0  0  0  0  0
   57.3560   31.2330   43.7440 C   0  0  0  0  0  0  0  0  0  0  0  0
   58.4370   31.6300   43.2360 O   0  0  0  0  0  0  0  0  0  0  0  0
   56.9590   31.7700   45.0130 N   0  0  0  0  0  0  0  0  0  0  0  0
   56.8690   33.1900   45.3320 C   0  0  0  0  0  0  0  0  0  0  0  0
   58.0100   33.5760   46.2280 C   0  0  0  0  0  0  0  0  0  0  0  0
   58.9220   34.5640   45.8190 C   0  0  0  0  0  0  0  0  0  0  0  0
   60.0040   34.9050   46.6340 C   0  0  0  0  0  0  0  0  0  0  0  0
   60.1930   34.2590   47.8600 C   0  0  0  0  0  0  0  0  0  0  0  0
   61.2800   34.6060   48.6600 O   0  0  0  0  0  0  0  0  0  0  0  0
   59.2920   33.2660   48.2700 C   0  0  0  0  0  0  0  0  0  0  0  0
   58.2090   32.9210   47.4550 C   0  0  0  0  0  0  0  0  0  0  0  0
   59.2870   28.6440   44.2090 C   0  0  0  0  0  0  0  0  0  0  0  0
   60.0840   28.4620   45.3430 C   0  0  0  0  0  0  0  0  0  0  0  0
   61.1720   30.1510   48.3610 N   0  0  0  0  0  0  0  0  0  0  0  0
   61.4430   31.1520   49.2400 C   0  0  0  0  0  0  0  0  0  0  0  0
   59.3630   31.8290   53.3320 C   0  0  0  0  0  0  0  0  0  0  0  0
   57.8830   32.0730   53.6630 C   0  0  0  0  0  0  0  0  0  0  0  0
   55.9628   30.5132   53.3351 H   0  0  0  0  0  0  0  0  0  0  0  0
   55.2852   31.1160   51.7845 H   0  0  0  0  0  0  0  0  0  0  0  0
   56.7798   30.1196   51.7845 H   0  0  0  0  0  0  0  0  0  0  0  0
   58.1972   31.3970   50.8426 H   0  0  0  0  0  0  0  0  0  0  0  0
   57.0850   32.7684   50.4520 H   0  0  0  0  0  0  0  0  0  0  0  0
   59.4512   33.4951   50.4708 H   0  0  0  0  0  0  0  0  0  0  0  0
   58.4728   34.2884   51.7843 H   0  0  0  0  0  0  0  0  0  0  0  0
   59.9765   29.8137   52.0136 H   0  0  0  0  0  0  0  0  0  0  0  0
   59.4774   28.0093   50.3586 H   0  0  0  0  0  0  0  0  0  0  0  0
   57.6242   28.0364   47.6805 H   0  0  0  0  0  0  0  0  0  0  0  0
   56.2012   28.3568   45.6597 H   0  0  0  0  0  0  0  0  0  0  0  0
   57.6395   28.5941   42.1914 H   0  0  0  0  0  0  0  0  0  0  0  0
   56.1696   28.1334   43.1549 H   0  0  0  0  0  0  0  0  0  0  0  0
   56.4770   30.5448   41.9248 H   0  0  0  0  0  0  0  0  0  0  0  0
   55.4938   30.2657   43.4283 H   0  0  0  0  0  0  0  0  0  0  0  0
   56.9170   33.7779   44.4035 H   0  0  0  0  0  0  0  0  0  0  0  0
   55.9167   33.3905   45.8448 H   0  0  0  0  0  0  0  0  0  0  0  0
   58.7831   35.0710   44.8528 H   0  0  0  0  0  0  0  0  0  0  0  0
   60.7098   35.6842   46.3105 H   0  0  0  0  0  0  0  0  0  0  0  0
   61.4640   34.1330   49.5380 H   0  0  0  0  0  0  0  0  0  0  0  0
   59.4372   32.7573   49.2345 H   0  0  0  0  0  0  0  0  0  0  0  0
   57.5105   32.1341   47.7758 H   0  0  0  0  0  0  0  0  0  0  0  0
   59.7587   28.8210   43.2312 H   0  0  0  0  0  0  0  0  0  0  0  0
   61.1794   28.5106   45.2556 H   0  0  0  0  0  0  0  0  0  0  0  0
   61.9873   32.0464   48.9026 H   0  0  0  0  0  0  0  0  0  0  0  0
   59.4636   30.8558   52.8292 H   0  0  0  0  0  0  0  0  0  0  0  0
   59.9385   31.8393   54.2694 H   0  0  0  0  0  0  0  0  0  0  0  0
   57.5308   31.2644   54.3203 H   0  0  0  0  0  0  0  0  0  0  0  0
   57.8081   33.0549   54.1531 H   0  0  0  0  0  0  0  0  0  0  0  0
  1  2  1  0
  2  3  1  0
  3  4  1  0
  4  5  1  0
  5  6  1  0
  6  7  2  0
  6  8  2  0
  6  9  1  0
  9 10  2  0
 10 11  1  0
 11 12  2  0
 12 13  1  0
 13 14  1  0
 14 15  2  0
 15 16  1  0
 16 17  2  0
 17 18  1  0
 18 19  1  0
 19 20  1  0
 20 21  2  0
 20 22  1  0
 22 23  1  0
 23 24  1  0
 24 25  2  0
 25 26  1  0
 26 27  2  0
 27 28  1  0
 27 29  1  0
 29 30  2  0
 17 31  1  0
 31 32  2  0
 12 33  1  0
 33 34  2  0
  5 35  1  0
 35 36  1  0
 36  2  1  0
 34  9  1  0
 32 14  1  0
 30 24  1  0
  1 37  1  0
  1 38  1  0
  1 39  1  0
  3 40  1  0
  3 41  1  0
  4 42  1  0
  4 43  1  0
 10 44  1  0
 11 45  1  0
 15 46  1  0
 16 47  1  0
 18 48  1  0
 18 49  1  0
 19 50  1  0
 19 51  1  0
 23 52  1  0
 23 53  1  0
 25 54  1  0
 26 55  1  0
 28 56  1  0
 29 57  1  0
 30 58  1  0
 31 59  1  0
 32 60  1  0
 34 61  1  0
 35 62  1  0
 35 63  1  0
 36 64  1  0
 36 65  1  0
M  CHG  1  22  -1
M  END
>  <UniqueID>  (13) 
13

>  <SMILES>  (13) 
CN1CCN(S(=O)(=O)c2ccc(Oc3ccc(CCC(=O)[N-]Cc4ccc(O)cc4)cc3)nc2)CC1

>  <Energy>  (13) 
82.07220915617977

>  <Genealogy>  (13) 
CN1CCN(S(=O)(=O)c2ccc(Oc3ccc(CCC(=O)[N-]Cc4ccc(O)cc4)cc3)nc2)CC1 (protonated)
CN1CCN(S(=O)(=O)c2ccc(Oc3ccc(CCC(=O)[N-]Cc4ccc(O)cc4)cc3)nc2)CC1 (3D coordinates assigned)
CN1CCN(S(=O)(=O)c2ccc(Oc3ccc(CCC(=O)[N-]Cc4ccc(O)cc4)cc3)nc2)CC1 (nonaromatic ring conformer: 82.07220915617977 kcal/mol)

>  <smiles>  (13) 
CN1CCN(S(=O)(=O)c2ccc(Oc3ccc(CCC(=O)NCc4ccc(O)cc4)cc3)nc2)CC1

>  <score_type>  (13) 
oracle

>  <origin>  (13) 
adg

>  <m_score__min__energy>  (13) 
-10.390000000000001

>  <m_primary>  (13) 
energy

$$$$
13:0
     RDKit          3D

 42 44  0  0  0  0  0  0  0  0999 V2000
   61.1090   30.5700   48.9780 C   0  0  0  0  0  0  0  0  0  0  0  0
   59.9800   29.6480   48.7710 N   0  0  0  0  0  0  0  0  0  0  0  0
   58.8780   29.9350   49.7020 C   0  0  0  0  0  0  0  0  0  0  0  0
   60.3840   28.2230   48.7590 C   0  0  0  0  0  0  0  0  0  0  0  0
   59.9580   27.4320   47.5010 C   0  0  0  0  0  0  0  0  0  0  0  0
   60.7400   28.0780   45.9770 S   0  0  0  0  0  0  0  0  0  0  0  0
   59.5540   29.4140   45.7360 C   0  0  0  0  0  0  0  0  0  0  0  0
   59.9640   30.6830   45.9830 N   0  0  0  0  0  0  0  0  0  0  0  0
   59.1400   31.7430   45.8040 C   0  0  0  0  0  0  0  0  0  0  0  0
   59.6010   33.0400   46.0620 C   0  0  0  0  0  0  0  0  0  0  0  0
   58.7510   34.1340   45.8750 C   0  0  0  0  0  0  0  0  0  0  0  0
   57.4410   33.9370   45.4280 C   0  0  0  0  0  0  0  0  0  0  0  0
   56.9740   32.6440   45.1670 C   0  0  0  0  0  0  0  0  0  0  0  0
   57.8230   31.5360   45.3530 C   0  0  0  0  0  0  0  0  0  0  0  0
   57.4040   30.2180   45.1090 C   0  0  0  0  0  0  0  0  0  0  0  0
   56.2240   29.9960   44.7150 O   0  0  0  0  0  0  0  0  0  0  0  0
   58.2720   29.1730   45.3080 N   0  0  0  0  0  0  0  0  0  0  0  0
   57.8290   27.8260   45.0610 C   0  0  0  0  0  0  0  0  0  0  0  0
   57.0220   27.1620   45.9990 C   0  0  0  0  0  0  0  0  0  0  0  0
   56.5940   25.8530   45.7570 C   0  0  0  0  0  0  0  0  0  0  0  0
   56.9660   25.2010   44.5780 C   0  0  0  0  0  0  0  0  0  0  0  0
   57.7650   25.8590   43.6370 C   0  0  0  0  0  0  0  0  0  0  0  0
   58.1940   27.1680   43.8750 C   0  0  0  0  0  0  0  0  0  0  0  0
   61.2772   30.7074   50.0563 H   0  0  0  0  0  0  0  0  0  0  0  0
   62.0147   30.1501   48.5162 H   0  0  0  0  0  0  0  0  0  0  0  0
   60.8785   31.5414   48.5162 H   0  0  0  0  0  0  0  0  0  0  0  0
   59.2385   29.8411   50.7370 H   0  0  0  0  0  0  0  0  0  0  0  0
   58.5120   30.9584   49.5326 H   0  0  0  0  0  0  0  0  0  0  0  0
   58.0593   29.2201   49.5326 H   0  0  0  0  0  0  0  0  0  0  0  0
   61.4805   28.1789   48.8343 H   0  0  0  0  0  0  0  0  0  0  0  0
   59.8676   27.7507   49.6077 H   0  0  0  0  0  0  0  0  0  0  0  0
   60.2497   26.3792   47.6294 H   0  0  0  0  0  0  0  0  0  0  0  0
   58.8685   27.5362   47.3906 H   0  0  0  0  0  0  0  0  0  0  0  0
   60.6319   33.1979   46.4118 H   0  0  0  0  0  0  0  0  0  0  0  0
   59.1136   35.1521   46.0800 H   0  0  0  0  0  0  0  0  0  0  0  0
   56.7757   34.8006   45.2811 H   0  0  0  0  0  0  0  0  0  0  0  0
   55.9425   32.4929   44.8161 H   0  0  0  0  0  0  0  0  0  0  0  0
   56.7257   27.6731   46.9269 H   0  0  0  0  0  0  0  0  0  0  0  0
   55.9638   25.3357   46.4954 H   0  0  0  0  0  0  0  0  0  0  0  0
   56.6305   24.1704   44.3901 H   0  0  0  0  0  0  0  0  0  0  0  0
   58.0561   25.3458   42.7086 H   0  0  0  0  0  0  0  0  0  0  0  0
   58.8191   27.6841   43.1314 H   0  0  0  0  0  0  0  0  0  0  0  0
  1  2  1  0
  2  3  1  0
  2  4  1  0
  4  5  1  0
  5  6  1  0
  6  7  1  0
  7  8  2  0
  8  9  1  0
  9 10  2  0
 10 11  1  0
 11 12  2  0
 12 13  1  0
 13 14  2  0
 14 15  1  0
 15 16  2  0
 15 17  1  0
 17 18  1  0
 18 19  2  0
 19 20  1  0
 20 21  2  0
 21 22  1  0
 22 23  2  0
 17  7  1  0
 23 18  1  0
 14  9  1  0
  1 24  1  0
  1 25  1  0
  1 26  1  0
  3 27  1  0
  3 28  1  0
  3 29  1  0
  4 30  1  0
  4 31  1  0
  5 32  1  0
  5 33  1  0
 10 34  1  0
 11 35  1  0
 12 36  1  0
 13 37  1  0
 19 38  1  0
 20 39  1  0
 21 40  1  0
 22 41  1  0
 23 42  1  0
M  END
>  <UniqueID>  (14) 
14

>  <SMILES>  (14) 
CN(C)CCSc1nc2ccccc2c(=O)n1-c1ccccc1

>  <Energy>  (14) 
58.43721956942337

>  <Genealogy>  (14) 
CN(C)CCSc1nc2ccccc2c(=O)n1-c1ccccc1 (3D coordinates assigned)
CN(C)CCSc1nc2ccccc2c(=O)n1-c1ccccc1 (optimized conformer: 58.43721956942337 kcal/mol)

>  <smiles>  (14) 
CN(C)CCSc1nc2ccccc2c(=O)n1-c1ccccc1

>  <score_type>  (14) 
oracle

>  <origin>  (14) 
adg

>  <m_score__min__energy>  (14) 
-6.8099999999999996

>  <m_primary>  (14) 
energy

$$$$
14:0
     RDKit          3D

 41 42  0  0  0  0  0  0  0  0999 V2000
   55.8900   24.2820   44.4610 C   0  0  0  0  0  0  0  0  0  0  0  0
   55.0570   25.0160   45.8490 S   0  0  0  0  0  0  0  0  0  0  0  0
   55.4330   24.2720   47.1000 O   0  0  0  0  0  0  0  0  0  0  0  0
   53.5710   24.9230   45.6360 O   0  0  0  0  0  0  0  0  0  0  0  0
   55.5360   26.6790   45.9810 N   0  0  0  0  0  0  0  0  0  0  0  0
   56.9930   26.7700   46.0180 C   0  0  0  0  0  0  0  0  0  0  0  0
   57.4070   28.1790   45.7050 C   0  0  0  0  0  0  0  0  0  0  0  0
   58.7180   28.6090   45.9630 C   0  0  0  0  0  0  0  0  0  0  0  0
   59.1110   29.9110   45.6420 C   0  0  0  0  0  0  0  0  0  0  0  0
   58.2000   30.7990   45.0420 C   0  0  0  0  0  0  0  0  0  0  0  0
   58.5600   32.1420   44.6920 N   0  0  0  0  0  0  0  0  0  0  0  0
   57.9540   33.5720   45.4620 S   0  0  0  0  0  0  0  0  0  0  0  0
   57.2550   33.1830   46.7360 O   0  0  0  0  0  0  0  0  0  0  0  0
   56.9730   34.2380   44.5400 O   0  0  0  0  0  0  0  0  0  0  0  0
   59.2970   34.6710   45.7820 C   0  0  0  0  0  0  0  0  0  0  0  0
   60.0800   34.5980   46.8650 C   0  0  0  0  0  0  0  0  0  0  0  0
   61.0820   33.5410   47.0790 C   0  0  0  0  0  0  0  0  0  0  0  0
   62.4440   33.8470   46.9360 C   0  0  0  0  0  0  0  0  0  0  0  0
   63.4120   32.8610   47.1350 C   0  0  0  0  0  0  0  0  0  0  0  0
   63.0300   31.5650   47.4910 C   0  0  0  0  0  0  0  0  0  0  0  0
   61.6770   31.2550   47.6570 C   0  0  0  0  0  0  0  0  0  0  0  0
   60.6980   32.2410   47.4610 C   0  0  0  0  0  0  0  0  0  0  0  0
   59.3510   31.9380   47.6580 O   0  0  0  0  0  0  0  0  0  0  0  0
   56.8980   30.3620   44.7700 C   0  0  0  0  0  0  0  0  0  0  0  0
   56.5040   29.0600   45.0930 C   0  0  0  0  0  0  0  0  0  0  0  0
   56.6695   23.5952   44.8225 H   0  0  0  0  0  0  0  0  0  0  0  0
   55.1642   23.7244   43.8508 H   0  0  0  0  0  0  0  0  0  0  0  0
   56.3518   25.0722   43.8508 H   0  0  0  0  0  0  0  0  0  0  0  0
   57.3537   26.4944   47.0200 H   0  0  0  0  0  0  0  0  0  0  0  0
   57.4255   26.0837   45.2751 H   0  0  0  0  0  0  0  0  0  0  0  0
   59.4403   27.9170   46.4206 H   0  0  0  0  0  0  0  0  0  0  0  0
   60.1370   30.2428   45.8594 H   0  0  0  0  0  0  0  0  0  0  0  0
   59.5030   35.4635   45.0475 H   0  0  0  0  0  0  0  0  0  0  0  0
   59.9685   35.3716   47.6390 H   0  0  0  0  0  0  0  0  0  0  0  0
   62.7503   34.8684   46.6659 H   0  0  0  0  0  0  0  0  0  0  0  0
   64.4775   33.1048   47.0113 H   0  0  0  0  0  0  0  0  0  0  0  0
   63.7943   30.7882   47.6407 H   0  0  0  0  0  0  0  0  0  0  0  0
   61.3790   30.2352   47.9421 H   0  0  0  0  0  0  0  0  0  0  0  0
   58.6820   31.9730   46.8980 H   0  0  0  0  0  0  0  0  0  0  0  0
   56.1794   31.0484   44.2985 H   0  0  0  0  0  0  0  0  0  0  0  0
   55.4811   28.7253   44.8660 H   0  0  0  0  0  0  0  0  0  0  0  0
  1  2  1  0
  2  3  2  0
  2  4  2  0
  2  5  1  0
  5  6  1  0
  6  7  1  0
  7  8  2  0
  8  9  1  0
  9 10  2  0
 10 11  1  0
 11 12  1  0
 12 13  2  0
 12 14  2  0
 12 15  1  0
 15 16  2  3
 16 17  1  0
 17 18  2  0
 18 19  1  0
 19 20  2  0
 20 21  1  0
 21 22  2  0
 22 23  1  0
 10 24  1  0
 24 25  2  0
 25  7  1  0
 22 17  1  0
  1 26  1  0
  1 27  1  0
  1 28  1  0
  6 29  1  0
  6 30  1  0
  8 31  1  0
  9 32  1  0
 15 33  1  0
 16 34  1  0
 18 35  1  0
 19 36  1  0
 20 37  1  0
 21 38  1  0
 23 39  1  0
 24 40  1  0
 25 41  1  0
M  CHG  2   5  -1  11  -1
M  END
>  <UniqueID>  (15) 
15

>  <SMILES>  (15) 
CS(=O)(=O)[N-]Cc1ccc([N-]S(=O)(=O)C=Cc2ccccc2O)cc1

>  <Energy>  (15) 
44.95222839881349

>  <Genealogy>  (15) 
CS(=O)(=O)[N-]Cc1ccc([N-]S(=O)(=O)C=Cc2ccccc2O)cc1 (protonated)
CS(=O)(=O)[N-]Cc1ccc([N-]S(=O)(=O)C=Cc2ccccc2O)cc1 (3D coordinates assigned)
CS(=O)(=O)[N-]Cc1ccc([N-]S(=O)(=O)C=Cc2ccccc2O)cc1 (optimized conformer: 44.95222839881349 kcal/mol)

>  <smiles>  (15) 
CS(=O)(=O)NCc1ccc(NS(=O)(=O)C=Cc2ccccc2O)cc1

>  <score_type>  (15) 
oracle

>  <origin>  (15) 
adg

>  <m_score__min__energy>  (15) 
-11.869999999999999

>  <m_primary>  (15) 
energy

$$$$
15:0
     RDKit          3D

 36 37  0  0  0  0  0  0  0  0999 V2000
   56.6680   24.7330   44.6760 C   0  0  0  0  0  0  0  0  0  0  0  0
   56.0690   25.3220   46.2450 S   0  0  0  0  0  0  0  0  0  0  0  0
   54.9780   26.3240   45.9920 O   0  0  0  0  0  0  0  0  0  0  0  0
   55.5010   24.1880   47.0530 O   0  0  0  0  0  0  0  0  0  0  0  0
   57.3510   26.0970   47.1210 N   0  0  0  0  0  0  0  0  0  0  0  0
   58.1570   27.1750   46.6090 C   0  0  0  0  0  0  0  0  0  0  0  0
   59.5010   27.2670   47.0070 C   0  0  0  0  0  0  0  0  0  0  0  0
   60.3220   28.2790   46.5090 C   0  0  0  0  0  0  0  0  0  0  0  0
   59.8120   29.2170   45.6110 C   0  0  0  0  0  0  0  0  0  0  0  0
   58.4690   29.1620   45.2200 C   0  0  0  0  0  0  0  0  0  0  0  0
   57.9910   30.1060   44.2530 N   0  0  0  0  0  0  0  0  0  0  0  0
   57.0180   31.1380   44.4680 C   0  0  0  0  0  0  0  0  0  0  0  0
   55.8040   30.8100   44.5440 O   0  0  0  0  0  0  0  0  0  0  0  0
   57.3880   32.5980   44.4130 C   0  0  0  0  0  0  0  0  0  0  0  0
   58.2560   32.9960   45.5810 C   0  0  0  0  0  0  0  0  0  0  0  0
   59.1320   34.0870   45.4740 C   0  0  0  0  0  0  0  0  0  0  0  0
   59.9420   34.4500   46.5530 C   0  0  0  0  0  0  0  0  0  0  0  0
   59.8960   33.7230   47.7470 C   0  0  0  0  0  0  0  0  0  0  0  0
   60.9320   34.2100   49.0810 Cl  0  0  0  0  0  0  0  0  0  0  0  0
   59.0310   32.6200   47.8580 C   0  0  0  0  0  0  0  0  0  0  0  0
   58.9490   31.6740   49.3380 Cl  0  0  0  0  0  0  0  0  0  0  0  0
   58.2190   32.2600   46.7770 C   0  0  0  0  0  0  0  0  0  0  0  0
   57.6510   28.1260   45.7010 C   0  0  0  0  0  0  0  0  0  0  0  0
   57.4433   23.9706   44.8423 H   0  0  0  0  0  0  0  0  0  0  0  0
   55.8357   24.2918   44.1080 H   0  0  0  0  0  0  0  0  0  0  0  0
   57.0952   25.5726   44.1080 H   0  0  0  0  0  0  0  0  0  0  0  0
   57.4850   25.7970   48.1130 H   0  0  0  0  0  0  0  0  0  0  0  0
   59.9100   26.5341   47.7181 H   0  0  0  0  0  0  0  0  0  0  0  0
   61.3740   28.3375   46.8251 H   0  0  0  0  0  0  0  0  0  0  0  0
   60.4679   30.0030   45.2086 H   0  0  0  0  0  0  0  0  0  0  0  0
   57.9355   32.7924   43.4789 H   0  0  0  0  0  0  0  0  0  0  0  0
   56.4614   33.1893   44.4560 H   0  0  0  0  0  0  0  0  0  0  0  0
   59.1812   34.6593   44.5359 H   0  0  0  0  0  0  0  0  0  0  0  0
   60.6194   35.3120   46.4630 H   0  0  0  0  0  0  0  0  0  0  0  0
   57.5464   31.3940   46.8643 H   0  0  0  0  0  0  0  0  0  0  0  0
   56.6057   28.0567   45.3655 H   0  0  0  0  0  0  0  0  0  0  0  0
  1  2  1  0
  2  3  2  0
  2  4  2  0
  2  5  1  0
  5  6  1  0
  6  7  2  0
  7  8  1  0
  8  9  2  0
  9 10  1  0
 10 11  1  0
 11 12  1  0
 12 13  2  0
 12 14  1  0
 14 15  1  0
 15 16  2  0
 16 17  1  0
 17 18  2  0
 18 19  1  0
 18 20  1  0
 20 21  1  0
 20 22  2  0
 10 23  2  0
 23  6  1  0
 22 15  1  0
  1 24  1  0
  1 25  1  0
  1 26  1  0
  5 27  1  0
  7 28  1  0
  8 29  1  0
  9 30  1  0
 14 31  1  0
 14 32  1  0
 16 33  1  0
 17 34  1  0
 22 35  1  0
 23 36  1  0
M  CHG  1  11  -1
M  END
>  <UniqueID>  (16) 
16

>  <SMILES>  (16) 
CS(=O)(=O)Nc1cccc([N-]C(=O)Cc2ccc(Cl)c(Cl)c2)c1

>  <Energy>  (16) 
39.451845811220075

>  <Genealogy>  (16) 
CS(=O)(=O)Nc1cccc([N-]C(=O)Cc2ccc(Cl)c(Cl)c2)c1 (protonated)
CS(=O)(=O)Nc1cccc([N-]C(=O)Cc2ccc(Cl)c(Cl)c2)c1 (3D coordinates assigned)
CS(=O)(=O)Nc1cccc([N-]C(=O)Cc2ccc(Cl)c(Cl)c2)c1 (optimized conformer: 39.451845811220075 kcal/mol)

>  <smiles>  (16) 
CS(=O)(=O)Nc1cccc(NC(=O)Cc2ccc(Cl)c(Cl)c2)c1

>  <score_type>  (16) 
oracle

>  <origin>  (16) 
adg

>  <m_score__min__energy>  (16) 
-10.24

>  <m_primary>  (16) 
energy

$$$$
16:0
     RDKit          3D

 54 56  0  0  0  0  0  0  0  0999 V2000
   55.5830   24.7660   45.2890 C   0  0  0  0  0  0  0  0  0  0  0  0
   55.6530   25.3990   46.5480 O   0  0  0  0  0  0  0  0  0  0  0  0
   56.8730   25.0840   47.1950 C   0  0  0  0  0  0  0  0  0  0  0  0
   57.9840   24.7960   46.1790 C   0  0  0  0  0  0  0  0  0  0  0  0
   59.2940   25.1730   46.7090 N   0  0  0  0  0  0  0  0  0  0  0  0
   60.0520   26.3360   46.3470 C   0  0  0  0  0  0  0  0  0  0  0  0
   61.3090   26.2710   46.3790 O   0  0  0  0  0  0  0  0  0  0  0  0
   59.4100   27.6000   45.9320 C   0  0  0  0  0  0  0  0  0  0  0  0
   58.0100   27.6980   45.9090 C   0  0  0  0  0  0  0  0  0  0  0  0
   57.3930   28.8910   45.5270 C   0  0  0  0  0  0  0  0  0  0  0  0
   58.1680   29.9950   45.1470 C   0  0  0  0  0  0  0  0  0  0  0  0
   57.3980   31.4980   44.6410 S   0  0  0  0  0  0  0  0  0  0  0  0
   55.9210   31.2560   44.4960 O   0  0  0  0  0  0  0  0  0  0  0  0
   57.9460   31.9280   43.3080 O   0  0  0  0  0  0  0  0  0  0  0  0
   57.6780   32.7470   45.8320 N   0  0  2  0  0  0  0  0  0  0  0  0
   58.3900   33.9030   45.2200 C   0  0  0  0  0  0  0  0  0  0  0  0
   59.8720   33.9730   45.6150 C   0  0  0  0  0  0  0  0  0  0  0  0
   60.0060   34.1160   47.1450 C   0  0  2  0  0  0  0  0  0  0  0  0
   61.4360   33.8590   47.5890 C   0  0  0  0  0  0  0  0  0  0  0  0
   62.4100   33.4890   46.6440 C   0  0  0  0  0  0  0  0  0  0  0  0
   63.7280   33.2430   47.0440 C   0  0  0  0  0  0  0  0  0  0  0  0
   64.0850   33.3600   48.3900 C   0  0  0  0  0  0  0  0  0  0  0  0
   63.1260   33.7220   49.3380 C   0  0  0  0  0  0  0  0  0  0  0  0
   61.8080   33.9690   48.9430 C   0  0  0  0  0  0  0  0  0  0  0  0
   58.9830   33.2360   47.9100 C   0  0  0  0  0  0  0  0  0  0  0  0
   58.3570   32.1590   47.0120 C   0  0  0  0  0  0  0  0  0  0  0  0
   59.5640   29.8880   45.1290 C   0  0  0  0  0  0  0  0  0  0  0  0
   60.1820   28.6940   45.5140 C   0  0  0  0  0  0  0  0  0  0  0  0
   55.4631   23.6817   45.4299 H   0  0  0  0  0  0  0  0  0  0  0  0
   54.7230   25.1601   44.7277 H   0  0  0  0  0  0  0  0  0  0  0  0
   56.5084   24.9627   44.7277 H   0  0  0  0  0  0  0  0  0  0  0  0
   57.1747   25.9341   47.8245 H   0  0  0  0  0  0  0  0  0  0  0  0
   56.7192   24.1825   47.8062 H   0  0  0  0  0  0  0  0  0  0  0  0
   57.9870   23.7211   45.9452 H   0  0  0  0  0  0  0  0  0  0  0  0
   57.7904   25.3887   45.2728 H   0  0  0  0  0  0  0  0  0  0  0  0
   57.3959   26.8308   46.1933 H   0  0  0  0  0  0  0  0  0  0  0  0
   56.2955   28.9644   45.5244 H   0  0  0  0  0  0  0  0  0  0  0  0
   56.7330   33.0780   46.1400 H   0  0  0  0  0  0  0  0  0  0  0  0
   58.3228   33.8164   44.1255 H   0  0  0  0  0  0  0  0  0  0  0  0
   57.9075   34.8196   45.5901 H   0  0  0  0  0  0  0  0  0  0  0  0
   60.3792   33.0527   45.2897 H   0  0  0  0  0  0  0  0  0  0  0  0
   60.3333   34.8458   45.1298 H   0  0  0  0  0  0  0  0  0  0  0  0
   59.7614   35.1567   47.4041 H   0  0  0  0  0  0  0  0  0  0  0  0
   62.1337   33.3924   45.5837 H   0  0  0  0  0  0  0  0  0  0  0  0
   64.4842   32.9571   46.2980 H   0  0  0  0  0  0  0  0  0  0  0  0
   65.1218   33.1669   48.7027 H   0  0  0  0  0  0  0  0  0  0  0  0
   63.4080   33.8130   50.3973 H   0  0  0  0  0  0  0  0  0  0  0  0
   61.0562   34.2512   49.6948 H   0  0  0  0  0  0  0  0  0  0  0  0
   59.4970   32.7431   48.7483 H   0  0  0  0  0  0  0  0  0  0  0  0
   58.1738   33.8910   48.2653 H   0  0  0  0  0  0  0  0  0  0  0  0
   59.1504   31.4811   46.6642 H   0  0  0  0  0  0  0  0  0  0  0  0
   57.6036   31.6184   47.6037 H   0  0  0  0  0  0  0  0  0  0  0  0
   60.1760   30.7451   44.8113 H   0  0  0  0  0  0  0  0  0  0  0  0
   61.2787   28.6124   45.4889 H   0  0  0  0  0  0  0  0  0  0  0  0
  1  2  1  0
  2  3  1  0
  3  4  1  0
  4  5  1  0
  5  6  1  0
  6  7  2  0
  6  8  1  0
  8  9  2  0
  9 10  1  0
 10 11  2  0
 11 12  1  0
 12 13  2  0
 12 14  2  0
 12 15  1  0
 15 16  1  0
 16 17  1  0
 17 18  1  0
 18 19  1  0
 19 20  2  0
 20 21  1  0
 21 22  2  0
 22 23  1  0
 23 24  2  0
 18 25  1  0
 25 26  1  0
 11 27  1  0
 27 28  2  0
 28  8  1  0
 26 15  1  0
 24 19  1  0
  1 29  1  0
  1 30  1  0
  1 31  1  0
  3 32  1  0
  3 33  1  0
  4 34  1  0
  4 35  1  0
  9 36  1  0
 10 37  1  0
 15 38  1  1
 16 39  1  0
 16 40  1  0
 17 41  1  0
 17 42  1  0
 18 43  1  6
 20 44  1  0
 21 45  1  0
 22 46  1  0
 23 47  1  0
 24 48  1  0
 25 49  1  0
 25 50  1  0
 26 51  1  0
 26 52  1  0
 27 53  1  0
 28 54  1  0
M  CHG  2   5  -1  15   1
M  END
>  <UniqueID>  (17) 
17

>  <SMILES>  (17) 
COCC[N-]C(=O)c1ccc(S(=O)(=O)[NH+]2CCC(c3ccccc3)CC2)cc1

>  <Energy>  (17) 
65.53718427240184

>  <Genealogy>  (17) 
COCC[N-]C(=O)c1ccc(S(=O)(=O)[NH+]2CCC(c3ccccc3)CC2)cc1 (protonated)
COCC[N-]C(=O)c1ccc(S(=O)(=O)[NH+]2CCC(c3ccccc3)CC2)cc1 (3D coordinates assigned)
COCC[N-]C(=O)c1ccc(S(=O)(=O)[NH+]2CCC(c3ccccc3)CC2)cc1 (nonaromatic ring conformer: 65.53718427240184 kcal/mol)

>  <smiles>  (17) 
COCCNC(=O)c1ccc(S(=O)(=O)N2CCC(c3ccccc3)CC2)cc1

>  <score_type>  (17) 
oracle

>  <origin>  (17) 
adg

>  <m_score__min__energy>  (17) 
-9.1199999999999992

>  <m_primary>  (17) 
energy

$$$$
17:0
     RDKit          3D

 41 43  0  0  0  0  0  0  0  0999 V2000
   57.3830   31.5350   42.2490 C   0  0  0  0  0  0  0  0  0  0  0  0
   56.7670   30.5880   43.2730 C   0  0  0  0  0  0  0  0  0  0  0  0
   56.4590   31.2830   44.4810 O   0  0  0  0  0  0  0  0  0  0  0  0
   57.3950   31.9020   45.3280 C   0  0  0  0  0  0  0  0  0  0  0  0
   57.5610   33.3010   45.3790 C   0  0  0  0  0  0  0  0  0  0  0  0
   58.4870   33.8690   46.2590 C   0  0  0  0  0  0  0  0  0  0  0  0
   59.2540   33.0530   47.0930 C   0  0  0  0  0  0  0  0  0  0  0  0
   59.0990   31.6670   47.0470 C   0  0  0  0  0  0  0  0  0  0  0  0
   58.1770   31.0890   46.1640 C   0  0  0  0  0  0  0  0  0  0  0  0
   57.9810   29.6750   46.1570 N   0  0  0  0  0  0  0  0  0  0  0  0
   59.2800   28.6110   45.7450 S   0  0  0  0  0  0  0  0  0  0  0  0
   59.9960   28.1590   46.9860 O   0  0  0  0  0  0  0  0  0  0  0  0
   60.2550   29.3440   44.8660 O   0  0  0  0  0  0  0  0  0  0  0  0
   58.6190   27.2230   44.8850 C   0  0  0  0  0  0  0  0  0  0  0  0
   58.3500   27.2960   43.5120 C   0  0  0  0  0  0  0  0  0  0  0  0
   57.7580   26.2150   42.8530 C   0  0  0  0  0  0  0  0  0  0  0  0
   57.4250   25.0530   43.5620 C   0  0  0  0  0  0  0  0  0  0  0  0
   57.6970   24.9720   44.9420 C   0  0  0  0  0  0  0  0  0  0  0  0
   58.2860   26.0630   45.5960 C   0  0  0  0  0  0  0  0  0  0  0  0
   57.2280   23.7750   45.7330 C   0  0  0  0  0  0  0  0  0  0  0  0
   57.2740   22.4840   44.9050 C   0  0  0  0  0  0  0  0  0  0  0  0
   56.6490   22.6920   43.5560 C   0  0  0  0  0  0  0  0  0  0  0  0
   56.0490   21.7440   42.9830 O   0  0  0  0  0  0  0  0  0  0  0  0
   56.8040   23.9490   42.8890 N   0  0  0  0  0  0  0  0  0  0  0  0
   57.9109   32.3466   42.7712 H   0  0  0  0  0  0  0  0  0  0  0  0
   58.0941   30.9811   41.6185 H   0  0  0  0  0  0  0  0  0  0  0  0
   56.5884   31.9605   41.6185 H   0  0  0  0  0  0  0  0  0  0  0  0
   55.8433   30.1584   42.8579 H   0  0  0  0  0  0  0  0  0  0  0  0
   57.4908   29.7908   43.4981 H   0  0  0  0  0  0  0  0  0  0  0  0
   56.9595   33.9483   44.7238 H   0  0  0  0  0  0  0  0  0  0  0  0
   58.6117   34.9613   46.2945 H   0  0  0  0  0  0  0  0  0  0  0  0
   59.9802   33.5026   47.7861 H   0  0  0  0  0  0  0  0  0  0  0  0
   59.7027   31.0258   47.7062 H   0  0  0  0  0  0  0  0  0  0  0  0
   58.6055   28.2070   42.9509 H   0  0  0  0  0  0  0  0  0  0  0  0
   57.5527   26.2765   41.7741 H   0  0  0  0  0  0  0  0  0  0  0  0
   58.4882   26.0078   46.6758 H   0  0  0  0  0  0  0  0  0  0  0  0
   57.8763   23.6552   46.6136 H   0  0  0  0  0  0  0  0  0  0  0  0
   56.1833   23.9516   46.0286 H   0  0  0  0  0  0  0  0  0  0  0  0
   58.3222   22.1775   44.7732 H   0  0  0  0  0  0  0  0  0  0  0  0
   56.7104   21.7038   45.4376 H   0  0  0  0  0  0  0  0  0  0  0  0
   56.4780   24.0500   41.9020 H   0  0  0  0  0  0  0  0  0  0  0  0
  1  2  1  0
  2  3  1  0
  3  4  1  0
  4  5  2  0
  5  6  1  0
  6  7  2  0
  7  8  1  0
  8  9  2  0
  9 10  1  0
 10 11  1  0
 11 12  2  0
 11 13  2  0
 11 14  1  0
 14 15  2  0
 15 16  1  0
 16 17  2  0
 17 18  1  0
 18 19  2  0
 18 20  1  0
 20 21  1  0
 21 22  1  0
 22 23  2  0
 22 24  1  0
  9  4  1  0
 19 14  1  0
 24 17  1  0
  1 25  1  0
  1 26  1  0
  1 27  1  0
  2 28  1  0
  2 29  1  0
  5 30  1  0
  6 31  1  0
  7 32  1  0
  8 33  1  0
 15 34  1  0
 16 35  1  0
 19 36  1  0
 20 37  1  0
 20 38  1  0
 21 39  1  0
 21 40  1  0
 24 41  1  0
M  CHG  1  10  -1
M  END
>  <UniqueID>  (18) 
18

>  <SMILES>  (18) 
CCOc1ccccc1[N-]S(=O)(=O)c1ccc2c(c1)CCC(=O)N2

>  <Energy>  (18) 
46.38184805174324

>  <Genealogy>  (18) 
CCOc1ccccc1[N-]S(=O)(=O)c1ccc2c(c1)CCC(=O)N2 (protonated)
CCOc1ccccc1[N-]S(=O)(=O)c1ccc2c(c1)CCC(=O)N2 (3D coordinates assigned)
CCOc1ccccc1[N-]S(=O)(=O)c1ccc2c(c1)CCC(=O)N2 (nonaromatic ring conformer: 46.38184805174324 kcal/mol)

>  <smiles>  (18) 
CCOc1ccccc1NS(=O)(=O)c1ccc2c(c1)CCC(=O)N2

>  <score_type>  (18) 
oracle

>  <origin>  (18) 
adg

>  <m_score__min__energy>  (18) 
-10.35

>  <m_primary>  (18) 
energy

$$$$
18:0
     RDKit          3D

 30 32  0  0  0  0  0  0  0  0999 V2000
   55.1530   26.5240   45.9960 O   0  0  0  0  0  0  0  0  0  0  0  0
   56.4120   26.5180   46.0360 C   0  0  0  0  0  0  0  0  0  0  0  0
   57.1380   25.5710   46.9350 C   0  0  0  0  0  0  0  0  0  0  0  0
   58.4700   26.1100   47.2390 N   0  0  0  0  0  0  0  0  0  0  0  0
   59.2580   26.2570   46.0060 C   0  0  0  0  0  0  0  0  0  0  0  0
   58.6210   27.2820   45.0360 C   0  0  2  0  0  0  0  0  0  0  0  0
   59.1880   28.7190   45.1730 C   0  0  0  0  0  0  0  0  0  0  0  0
   58.0350   29.6020   45.0060 N   0  0  0  0  0  0  0  0  0  0  0  0
   58.0900   31.0370   44.8810 C   0  0  0  0  0  0  0  0  0  0  0  0
   58.0880   31.6420   43.6110 C   0  0  0  0  0  0  0  0  0  0  0  0
   58.1310   33.0340   43.4880 C   0  0  0  0  0  0  0  0  0  0  0  0
   58.1640   33.8380   44.6300 C   0  0  0  0  0  0  0  0  0  0  0  0
   58.1500   33.2500   45.8970 C   0  0  0  0  0  0  0  0  0  0  0  0
   58.1100   31.8580   46.0240 C   0  0  0  0  0  0  0  0  0  0  0  0
   56.8740   28.7970   45.1220 C   0  0  0  0  0  0  0  0  0  0  0  0
   55.7080   29.2620   45.2390 O   0  0  0  0  0  0  0  0  0  0  0  0
   57.1730   27.4170   45.2240 N   0  0  0  0  0  0  0  0  0  0  0  0
   56.5713   25.4448   47.8693 H   0  0  0  0  0  0  0  0  0  0  0  0
   57.2416   24.5966   46.4351 H   0  0  0  0  0  0  0  0  0  0  0  0
   58.9610   25.4180   47.8510 H   0  0  0  0  0  0  0  0  0  0  0  0
   60.2706   26.5970   46.2688 H   0  0  0  0  0  0  0  0  0  0  0  0
   59.2879   25.2804   45.5006 H   0  0  0  0  0  0  0  0  0  0  0  0
   58.8675   26.8643   44.0487 H   0  0  0  0  0  0  0  0  0  0  0  0
   59.6430   28.8615   46.1643 H   0  0  0  0  0  0  0  0  0  0  0  0
   59.9742   28.9238   44.4315 H   0  0  0  0  0  0  0  0  0  0  0  0
   58.0523   31.0151   42.7078 H   0  0  0  0  0  0  0  0  0  0  0  0
   58.1389   33.4970   42.4902 H   0  0  0  0  0  0  0  0  0  0  0  0
   58.2010   34.9330   44.5316 H   0  0  0  0  0  0  0  0  0  0  0  0
   58.1705   33.8830   46.7964 H   0  0  0  0  0  0  0  0  0  0  0  0
   58.0940   31.4013   47.0246 H   0  0  0  0  0  0  0  0  0  0  0  0
  1  2  2  0
  2  3  1  0
  3  4  1  0
  4  5  1  0
  5  6  1  0
  6  7  1  0
  7  8  1  0
  8  9  1  0
  9 10  2  0
 10 11  1  0
 11 12  2  0
 12 13  1  0
 13 14  2  0
  8 15  1  0
 15 16  2  0
 15 17  1  0
 17  2  1  0
 17  6  1  0
 14  9  1  0
  3 18  1  0
  3 19  1  0
  4 20  1  0
  5 21  1  0
  5 22  1  0
  6 23  1  6
  7 24  1  0
  7 25  1  0
 10 26  1  0
 11 27  1  0
 12 28  1  0
 13 29  1  0
 14 30  1  0
M  END
>  <UniqueID>  (19) 
19

>  <SMILES>  (19) 
O=C1CNC[C@@H]2CN(c3ccccc3)C(=O)N12

>  <Energy>  (19) 
56.726508471950275

>  <Genealogy>  (19) 
O=C1CNC[C@@H]2CN(c3ccccc3)C(=O)N12 (chirality)
O=C1CNC[C@@H]2CN(c3ccccc3)C(=O)N12 (3D coordinates assigned)
O=C1CNC[C@@H]2CN(c3ccccc3)C(=O)N12 (nonaromatic ring conformer: 56.726508471950275 kcal/mol)

>  <smiles>  (19) 
O=C1CNCC2CN(c3ccccc3)C(=O)N12

>  <score_type>  (19) 
oracle

>  <origin>  (19) 
adg

>  <m_score__min__energy>  (19) 
-7.1500000000000004

>  <m_primary>  (19) 
energy

$$$$
19:0
     RDKit          3D

 67 71  0  0  0  0  0  0  0  0999 V2000
   63.3980   32.5270   48.5178 H   0  0  0  0  0  0  0  0  0  0  0  0
   62.3410   32.7740   48.6960 C   0  0  0  0  0  0  0  0  0  0  0  0
   61.4160   32.6440   47.6610 C   0  0  0  0  0  0  0  0  0  0  0  0
   61.7508   32.3103   46.6677 H   0  0  0  0  0  0  0  0  0  0  0  0
   60.0610   32.9360   47.8780 C   0  0  0  0  0  0  0  0  0  0  0  0
   59.0790   32.7840   46.7730 C   0  0  0  0  0  0  0  0  0  0  0  0
   58.6980   31.4930   46.3640 C   0  0  0  0  0  0  0  0  0  0  0  0
   59.1282   30.6155   46.8689 H   0  0  0  0  0  0  0  0  0  0  0  0
   57.7760   31.3080   45.3200 C   0  0  0  0  0  0  0  0  0  0  0  0
   57.3700   29.9480   44.8870 C   0  0  0  0  0  0  0  0  0  0  0  0
   56.3270   29.4300   45.3730 O   0  0  0  0  0  0  0  0  0  0  0  0
   58.1280   29.2210   43.9090 N   0  0  0  0  0  0  0  0  0  0  0  0
   58.8890   29.6970   43.3730 H   0  0  0  0  0  0  0  0  0  0  0  0
   57.8210   27.8330   43.5840 C   0  0  0  0  0  0  0  0  0  0  0  0
   57.6939   27.2583   44.5133 H   0  0  0  0  0  0  0  0  0  0  0  0
   56.8918   27.7908   42.9968 H   0  0  0  0  0  0  0  0  0  0  0  0
   58.6457   27.4029   42.9968 H   0  0  0  0  0  0  0  0  0  0  0  0
   57.2170   32.4360   44.7000 C   0  0  0  0  0  0  0  0  0  0  0  0
   56.4799   32.3054   43.8940 H   0  0  0  0  0  0  0  0  0  0  0  0
   57.5870   33.7210   45.0960 C   0  0  0  0  0  0  0  0  0  0  0  0
   57.1397   34.5941   44.5983 H   0  0  0  0  0  0  0  0  0  0  0  0
   58.5270   33.9120   46.1260 C   0  0  0  0  0  0  0  0  0  0  0  0
   58.9400   35.1980   46.5160 O   0  0  0  0  0  0  0  0  0  0  0  0
   60.0210   35.9130   45.9260 C   0  0  0  0  0  0  0  0  0  0  0  0
   60.6577   36.3341   46.7180 H   0  0  0  0  0  0  0  0  0  0  0  0
   60.6156   35.2295   45.3021 H   0  0  0  0  0  0  0  0  0  0  0  0
   59.6247   36.7277   45.3021 H   0  0  0  0  0  0  0  0  0  0  0  0
   59.6420   33.3340   49.1600 C   0  0  0  0  0  0  0  0  0  0  0  0
   58.5779   33.5429   49.3443 H   0  0  0  0  0  0  0  0  0  0  0  0
   60.5710   33.4680   50.2110 C   0  0  0  0  0  0  0  0  0  0  0  0
   60.1720   33.8210   51.5110 O   0  0  0  0  0  0  0  0  0  0  0  0
   58.8460   34.1830   51.8800 C   0  0  0  0  0  0  0  0  0  0  0  0
   58.7638   34.2054   52.9767 H   0  0  0  0  0  0  0  0  0  0  0  0
   58.6112   35.1781   51.4743 H   0  0  0  0  0  0  0  0  0  0  0  0
   58.1381   33.4452   51.4743 H   0  0  0  0  0  0  0  0  0  0  0  0
   61.9350   33.2160   49.9590 C   0  0  0  0  0  0  0  0  0  0  0  0
   62.9220   33.3300   50.9920 N   0  0  0  0  0  0  0  0  0  0  0  0
   64.1540   32.9210   50.9020 C   0  0  0  0  0  0  0  0  0  0  0  0
   65.1920   33.7270   50.5660 N   0  0  0  0  0  0  0  0  0  0  0  0
   66.2680   32.9080   50.5640 C   0  0  0  0  0  0  0  0  0  0  0  0
   67.3016   33.2078   50.3366 H   0  0  0  0  0  0  0  0  0  0  0  0
   65.8550   31.6360   50.8940 C   0  0  0  0  0  0  0  0  0  0  0  0
   66.6120   30.4750   51.0280 C   0  0  0  0  0  0  0  0  0  0  0  0
   67.6979   30.4787   50.8527 H   0  0  0  0  0  0  0  0  0  0  0  0
   65.9380   29.3000   51.3950 C   0  0  0  0  0  0  0  0  0  0  0  0
   66.4991   28.3614   51.5137 H   0  0  0  0  0  0  0  0  0  0  0  0
   64.5470   29.3170   51.6120 C   0  0  0  0  0  0  0  0  0  0  0  0
   64.0231   28.3964   51.9086 H   0  0  0  0  0  0  0  0  0  0  0  0
   63.8300   30.5160   51.4480 C   0  0  0  0  0  0  0  0  0  0  0  0
   62.3710   30.5360   51.6510 C   0  0  0  0  0  0  0  0  0  0  0  0
   61.8290   31.0950   52.8180 C   0  0  0  0  0  0  0  0  0  0  0  0
   62.4966   31.4826   53.6017 H   0  0  0  0  0  0  0  0  0  0  0  0
   60.4410   31.1610   52.9880 C   0  0  0  0  0  0  0  0  0  0  0  0
   60.0199   31.6104   53.8994 H   0  0  0  0  0  0  0  0  0  0  0  0
   59.5870   30.6550   51.9980 C   0  0  0  0  0  0  0  0  0  0  0  0
   57.8390   30.7610   52.1830 S   0  0  0  0  0  0  0  0  0  0  0  0
   57.2810   31.6930   51.1440 O   0  0  0  0  0  0  0  0  0  0  0  0
   57.2160   29.4040   51.9990 O   0  0  0  0  0  0  0  0  0  0  0  0
   57.4530   31.3700   53.8080 C   0  0  0  0  0  0  0  0  0  0  0  0
   57.8809   30.6949   54.5638 H   0  0  0  0  0  0  0  0  0  0  0  0
   57.8782   32.3768   53.9328 H   0  0  0  0  0  0  0  0  0  0  0  0
   56.3610   31.4151   53.9328 H   0  0  0  0  0  0  0  0  0  0  0  0
   60.1290   30.0850   50.8380 C   0  0  0  0  0  0  0  0  0  0  0  0
   59.4614   29.6849   50.0607 H   0  0  0  0  0  0  0  0  0  0  0  0
   61.5150   30.0230   50.6650 C   0  0  0  0  0  0  0  0  0  0  0  0
   61.9350   29.5712   49.7542 H   0  0  0  0  0  0  0  0  0  0  0  0
   64.5290   31.6370   51.0980 N   0  0  0  0  0  0  0  0  0  0  0  0
  1  2  1  0
  2  3  2  0
  3  4  1  0
  3  5  1  0
  5  6  1  0
  6  7  2  0
  7  8  1  0
  7  9  1  0
  9 10  1  0
 10 11  2  0
 10 12  1  0
 12 13  1  0
 12 14  1  0
 14 15  1  0
 14 16  1  0
 14 17  1  0
  9 18  2  0
 18 19  1  0
 18 20  1  0
 20 21  1  0
 20 22  2  0
 22 23  1  0
 23 24  1  0
 24 25  1  0
 24 26  1  0
 24 27  1  0
  5 28  2  0
 28 29  1  0
 28 30  1  0
 30 31  1  0
 31 32  1  0
 32 33  1  0
 32 34  1  0
 32 35  1  0
 30 36  2  0
 36 37  1  0
 37 38  2  0
 38 39  1  0
 39 40  1  0
 40 41  1  0
 40 42  2  0
 42 43  1  0
 43 44  1  0
 43 45  2  0
 45 46  1  0
 45 47  1  0
 47 48  1  0
 47 49  2  0
 49 50  1  0
 50 51  2  0
 51 52  1  0
 51 53  1  0
 53 54  1  0
 53 55  2  0
 55 56  1  0
 56 57  2  0
 56 58  2  0
 56 59  1  0
 59 60  1  0
 59 61  1  0
 59 62  1  0
 55 63  1  0
 63 64  1  0
 63 65  2  0
 65 66  1  0
 49 67  1  0
 36  2  1  0
 67 38  1  0
 22  6  1  0
 67 42  1  0
 65 50  1  0
M  CHG  1  39  -1
M  END
>  <UniqueID>  (20) 
20

>  <SMILES>  (20) 
CNC(=O)c1ccc(OC)c(-c2ccc(/N=c3/[n-]cc4cccc(-c5ccc(S(C)(=O)=O)cc5)n34)c(OC)c2)c1

>  <Energy>  (20) 
126.24318699513839

>  <Genealogy>  (20) 
CNC(=O)c1ccc(OC)c(-c2ccc(N=c3[n-]cc4cccc(-c5ccc(S(C)(=O)=O)cc5)n34)c(OC)c2)c1 (protonated)
CNC(=O)c1ccc(OC)c(-c2ccc(/N=c3/[n-]cc4cccc(-c5ccc(S(C)(=O)=O)cc5)n34)c(OC)c2)c1 (cis-trans isomerization)
CNC(=O)c1ccc(OC)c(-c2ccc(/N=c3/[n-]cc4cccc(-c5ccc(S(C)(=O)=O)cc5)n34)c(OC)c2)c1 (3D coordinates assigned)
CNC(=O)c1ccc(OC)c(-c2ccc(/N=c3/[n-]cc4cccc(-c5ccc(S(C)(=O)=O)cc5)n34)c(OC)c2)c1 (optimized conformer: 126.24318699513839 kcal/mol)

>  <smiles>  (20) 
CNC(=O)c1ccc(OC)c(-c2ccc(N=c3[nH]cc4cccc(-c5ccc(S(C)(=O)=O)cc5)n34)c(OC)c2)c1

>  <score_type>  (20) 
oracle

>  <origin>  (20) 
adg

>  <m_score__min__energy>  (20) 
-9.6699999999999999

>  <m_primary>  (20) 
energy

$$$$
20:0
     RDKit          3D

 35 37  0  0  0  0  0  0  0  0999 V2000
   55.3630   29.3860   44.7530 N   0  0  0  0  0  0  0  0  0  0  0  0
   56.7070   29.8500   44.5910 C   0  0  0  0  0  0  0  0  0  0  0  0
   56.9560   31.3430   43.9580 S   0  0  0  0  0  0  0  0  0  0  0  0
   57.8550   28.9880   44.9680 C   0  0  0  0  0  0  0  0  0  0  0  0
   59.1590   29.3280   44.5650 C   0  0  0  0  0  0  0  0  0  0  0  0
   60.2430   28.5160   44.9080 C   0  0  0  0  0  0  0  0  0  0  0  0
   60.0420   27.3580   45.6600 C   0  0  0  0  0  0  0  0  0  0  0  0
   58.7520   27.0080   46.0870 C   0  0  0  0  0  0  0  0  0  0  0  0
   58.5280   25.7340   46.8550 C   0  0  0  0  0  0  0  0  0  0  0  0
   57.5200   24.9160   46.1820 N   0  0  0  0  0  0  0  0  0  0  0  0
   56.1920   25.1720   46.0850 C   0  0  0  0  0  0  0  0  0  0  0  0
   55.5820   26.2530   46.7210 O   0  0  0  0  0  0  0  0  0  0  0  0
   55.5610   24.2030   45.2920 C   0  0  0  0  0  0  0  0  0  0  0  0
   54.1740   24.1340   44.9290 N   0  0  0  0  0  0  0  0  0  0  0  0
   53.7820   23.3300   44.0590 O   0  0  0  0  0  0  0  0  0  0  0  0
   53.2470   24.9290   45.5620 O   0  0  0  0  0  0  0  0  0  0  0  0
   56.5680   23.3350   44.8950 C   0  0  0  0  0  0  0  0  0  0  0  0
   56.5780   22.2090   44.0720 C   0  0  0  0  0  0  0  0  0  0  0  0
   57.8130   21.5770   43.8500 C   0  0  0  0  0  0  0  0  0  0  0  0
   58.9850   22.0920   44.4460 C   0  0  0  0  0  0  0  0  0  0  0  0
   58.9290   23.2050   45.2360 N   0  0  0  0  0  0  0  0  0  0  0  0
   57.7320   23.8050   45.4500 C   0  0  0  0  0  0  0  0  0  0  0  0
   57.6630   27.8190   45.7310 C   0  0  0  0  0  0  0  0  0  0  0  0
   54.5580   29.9700   44.4310 H   0  0  0  0  0  0  0  0  0  0  0  0
   55.1530   28.4930   45.2510 H   0  0  0  0  0  0  0  0  0  0  0  0
   59.3268   30.2410   43.9748 H   0  0  0  0  0  0  0  0  0  0  0  0
   61.2578   28.7904   44.5843 H   0  0  0  0  0  0  0  0  0  0  0  0
   60.8978   26.7172   45.9190 H   0  0  0  0  0  0  0  0  0  0  0  0
   59.4724   25.1731   46.9139 H   0  0  0  0  0  0  0  0  0  0  0  0
   58.1766   25.9796   47.8680 H   0  0  0  0  0  0  0  0  0  0  0  0
   54.5790   26.3760   46.7490 H   0  0  0  0  0  0  0  0  0  0  0  0
   55.6528   21.8297   43.6135 H   0  0  0  0  0  0  0  0  0  0  0  0
   57.8669   20.6821   43.2127 H   0  0  0  0  0  0  0  0  0  0  0  0
   59.9501   21.5933   44.2729 H   0  0  0  0  0  0  0  0  0  0  0  0
   56.6486   27.5389   46.0512 H   0  0  0  0  0  0  0  0  0  0  0  0
  1  2  1  0
  2  3  2  0
  2  4  1  0
  4  5  2  0
  5  6  1  0
  6  7  2  0
  7  8  1  0
  8  9  1  0
  9 10  1  0
 10 11  1  0
 11 12  1  0
 11 13  2  0
 13 14  1  0
 14 15  2  0
 14 16  1  0
 13 17  1  0
 17 18  2  0
 18 19  1  0
 19 20  2  0
 20 21  1  0
 21 22  2  0
  8 23  2  0
 23  4  1  0
 22 10  1  0
 22 17  1  0
  1 24  1  0
  1 25  1  0
  5 26  1  0
  6 27  1  0
  7 28  1  0
  9 29  1  0
  9 30  1  0
 12 31  1  0
 18 32  1  0
 19 33  1  0
 20 34  1  0
 23 35  1  0
M  CHG  2  14   1  16  -1
M  END
>  <UniqueID>  (21) 
21

>  <SMILES>  (21) 
NC(=S)c1cccc(Cn2c(O)c([N+](=O)[O-])c3cccnc32)c1

>  <Energy>  (21) 
78.78381707797213

>  <Genealogy>  (21) 
NC(=S)c1cccc(Cn2c(O)c([N+](=O)[O-])c3cccnc32)c1 (3D coordinates assigned)
NC(=S)c1cccc(Cn2c(O)c([N+](=O)[O-])c3cccnc32)c1 (optimized conformer: 78.78381707797213 kcal/mol)

>  <smiles>  (21) 
NC(=S)c1cccc(Cn2c(O)c([N+](=O)[O-])c3cccnc32)c1

>  <score_type>  (21) 
oracle

>  <origin>  (21) 
adg

>  <m_score__min__energy>  (21) 
-9.0800000000000001

>  <m_primary>  (21) 
energy

$$$$
21:0
     RDKit          3D

 60 63  0  0  0  0  0  0  0  0999 V2000
   60.8570   31.8454   45.7468 H   0  0  0  0  0  0  0  0  0  0  0  0
   61.1700   31.8170   46.8010 C   0  0  0  0  0  0  0  0  0  0  0  0
   62.4290   31.4760   47.1020 C   0  0  0  0  0  0  0  0  0  0  0  0
   62.9716   30.8448   46.3829 H   0  0  0  0  0  0  0  0  0  0  0  0
   63.1470   31.8870   48.3350 C   0  0  0  0  0  0  0  0  0  0  0  0
   64.0340   32.9750   48.2540 C   0  0  0  0  0  0  0  0  0  0  0  0
   64.1779   33.4909   47.2932 H   0  0  0  0  0  0  0  0  0  0  0  0
   64.7350   33.4070   49.3850 C   0  0  0  0  0  0  0  0  0  0  0  0
   65.4308   34.2555   49.3079 H   0  0  0  0  0  0  0  0  0  0  0  0
   64.5540   32.7640   50.6120 C   0  0  0  0  0  0  0  0  0  0  0  0
   65.4310   33.3110   52.0300 Cl  0  0  0  0  0  0  0  0  0  0  0  0
   63.6700   31.6870   50.7080 C   0  0  0  0  0  0  0  0  0  0  0  0
   63.5268   31.1803   51.6738 H   0  0  0  0  0  0  0  0  0  0  0  0
   62.9660   31.2500   49.5810 C   0  0  0  0  0  0  0  0  0  0  0  0
   62.2672   30.4048   49.6666 H   0  0  0  0  0  0  0  0  0  0  0  0
   60.1980   32.1540   47.8490 C   0  0  0  0  0  0  0  0  0  0  0  0
   59.9600   33.3880   48.2320 O   0  0  0  0  0  0  0  0  0  0  0  0
   59.0580   33.4300   49.1680 N   0  0  0  0  0  0  0  0  0  0  0  0
   58.6790   32.1600   49.4100 C   0  0  0  0  0  0  0  0  0  0  0  0
   57.7160   31.7750   50.4850 C   0  0  0  0  0  0  0  0  0  0  0  0
   58.1727   31.9576   51.4689 H   0  0  0  0  0  0  0  0  0  0  0  0
   56.7997   32.3759   50.3889 H   0  0  0  0  0  0  0  0  0  0  0  0
   57.4665   30.7080   50.3889 H   0  0  0  0  0  0  0  0  0  0  0  0
   59.3980   31.3050   48.5990 C   0  0  0  0  0  0  0  0  0  0  0  0
   59.4470   29.5440   48.7360 S   0  0  0  0  0  0  0  0  0  0  0  0
   58.5160   29.1390   49.8450 O   0  0  0  0  0  0  0  0  0  0  0  0
   60.8290   29.0630   49.0800 O   0  0  0  0  0  0  0  0  0  0  0  0
   58.9180   28.8330   47.2330 N   0  0  0  0  0  0  0  0  0  0  0  0
   59.5590   29.5170   46.0940 C   0  0  0  0  0  0  0  0  0  0  0  0
   60.6489   29.5094   46.2422 H   0  0  0  0  0  0  0  0  0  0  0  0
   59.1716   30.5457   46.0523 H   0  0  0  0  0  0  0  0  0  0  0  0
   59.2330   28.8280   44.7510 C   0  0  0  0  0  0  0  0  0  0  0  0
   60.1482   28.3554   44.3650 H   0  0  0  0  0  0  0  0  0  0  0  0
   58.8558   29.5977   44.0616 H   0  0  0  0  0  0  0  0  0  0  0  0
   58.1390   27.7470   44.8950 C   0  0  0  0  0  0  0  0  0  0  0  0
   57.9905   27.2746   43.9128 H   0  0  0  0  0  0  0  0  0  0  0  0
   56.7680   28.3000   45.2680 C   0  0  0  0  0  0  0  0  0  0  0  0
   55.8590   27.5060   45.6310 O   0  0  0  0  0  0  0  0  0  0  0  0
   56.4700   29.7020   45.2440 N   0  0  0  0  0  0  0  0  0  0  0  0
   56.8630   30.6190   44.2150 C   0  0  0  0  0  0  0  0  0  0  0  0
   56.6430   30.3260   42.8570 C   0  0  0  0  0  0  0  0  0  0  0  0
   56.1639   29.3779   42.5713 H   0  0  0  0  0  0  0  0  0  0  0  0
   57.0310   31.2350   41.8700 C   0  0  0  0  0  0  0  0  0  0  0  0
   56.8620   30.9994   40.8089 H   0  0  0  0  0  0  0  0  0  0  0  0
   57.6330   32.4420   42.2290 C   0  0  0  0  0  0  0  0  0  0  0  0
   57.9405   33.1549   41.4497 H   0  0  0  0  0  0  0  0  0  0  0  0
   57.8460   32.7470   43.5760 C   0  0  0  0  0  0  0  0  0  0  0  0
   58.3174   33.7015   43.8531 H   0  0  0  0  0  0  0  0  0  0  0  0
   57.4600   31.8380   44.5810 C   0  0  0  0  0  0  0  0  0  0  0  0
   57.6610   32.1030   45.9460 O   0  0  0  0  0  0  0  0  0  0  0  0
   57.3700   33.3470   46.5750 C   0  0  0  0  0  0  0  0  0  0  0  0
   57.3994   33.2213   47.6674 H   0  0  0  0  0  0  0  0  0  0  0  0
   58.1174   34.0949   46.2717 H   0  0  0  0  0  0  0  0  0  0  0  0
   56.3684   33.6858   46.2717 H   0  0  0  0  0  0  0  0  0  0  0  0
   58.6290   26.7190   45.9450 C   0  0  0  0  0  0  0  0  0  0  0  0
   59.4102   26.0942   45.4874 H   0  0  0  0  0  0  0  0  0  0  0  0
   57.7590   26.1217   46.2553 H   0  0  0  0  0  0  0  0  0  0  0  0
   59.2110   27.3890   47.2130 C   0  0  0  0  0  0  0  0  0  0  0  0
   60.3012   27.2436   47.2278 H   0  0  0  0  0  0  0  0  0  0  0  0
   58.7468   26.9264   48.0965 H   0  0  0  0  0  0  0  0  0  0  0  0
  1  2  1  0
  2  3  2  0
  3  4  1  0
  3  5  1  0
  5  6  2  0
  6  7  1  0
  6  8  1  0
  8  9  1  0
  8 10  2  0
 10 11  1  0
 10 12  1  0
 12 13  1  0
 12 14  2  0
 14 15  1  0
  2 16  1  0
 16 17  1  0
 17 18  1  0
 18 19  2  0
 19 20  1  0
 20 21  1  0
 20 22  1  0
 20 23  1  0
 19 24  1  0
 24 25  1  0
 25 26  2  0
 25 27  2  0
 25 28  1  0
 28 29  1  0
 29 30  1  0
 29 31  1  0
 29 32  1  0
 32 33  1  0
 32 34  1  0
 32 35  1  0
 35 36  1  0
 35 37  1  0
 37 38  2  0
 37 39  1  0
 39 40  1  0
 40 41  2  0
 41 42  1  0
 41 43  1  0
 43 44  1  0
 43 45  2  0
 45 46  1  0
 45 47  1  0
 47 48  1  0
 47 49  2  0
 49 50  1  0
 50 51  1  0
 51 52  1  0
 51 53  1  0
 51 54  1  0
 35 55  1  0
 55 56  1  0
 55 57  1  0
 55 58  1  0
 58 59  1  0
 58 60  1  0
 14  5  1  0
 24 16  2  0
 58 28  1  0
 49 40  1  0
M  CHG  1  39  -1
M  END
>  <UniqueID>  (22) 
22

>  <SMILES>  (22) 
COc1ccccc1[N-]C(=O)C1CCN(S(=O)(=O)c2c(C)noc2/C=C/c2ccc(Cl)cc2)CC1

>  <Energy>  (22) 
110.61885600980011

>  <Genealogy>  (22) 
COc1ccccc1[N-]C(=O)C1CCN(S(=O)(=O)c2c(C)noc2C=Cc2ccc(Cl)cc2)CC1 (protonated)
COc1ccccc1[N-]C(=O)C1CCN(S(=O)(=O)c2c(C)noc2/C=C/c2ccc(Cl)cc2)CC1 (cis-trans isomerization)
COc1ccccc1[N-]C(=O)C1CCN(S(=O)(=O)c2c(C)noc2/C=C/c2ccc(Cl)cc2)CC1 (3D coordinates assigned)
COc1ccccc1[N-]C(=O)C1CCN(S(=O)(=O)c2c(C)noc2/C=C/c2ccc(Cl)cc2)CC1 (nonaromatic ring conformer: 110.61885600980011 kcal/mol)

>  <smiles>  (22) 
COc1ccccc1NC(=O)C1CCN(S(=O)(=O)c2c(C)noc2C=Cc2ccc(Cl)cc2)CC1

>  <score_type>  (22) 
oracle

>  <origin>  (22) 
adg

>  <m_score__min__energy>  (22) 
-12.050000000000001

>  <m_primary>  (22) 
energy

$$$$
22:0
     RDKit          3D

 43 45  0  0  0  0  0  0  0  0999 V2000
   56.6500   20.9840   42.9690 C   0  0  0  0  0  0  0  0  0  0  0  0
   55.9520   22.2220   43.0600 O   0  0  0  0  0  0  0  0  0  0  0  0
   56.2780   23.2520   43.9550 C   0  0  0  0  0  0  0  0  0  0  0  0
   57.6250   23.5980   44.1080 C   0  0  0  0  0  0  0  0  0  0  0  0
   58.0020   24.6150   44.9890 C   0  0  0  0  0  0  0  0  0  0  0  0
   57.0320   25.3030   45.7320 C   0  0  0  0  0  0  0  0  0  0  0  0
   57.4500   26.3740   46.7040 C   0  0  0  0  0  0  0  0  0  0  0  0
   56.6720   27.5570   46.5120 O   0  0  0  0  0  0  0  0  0  0  0  0
   57.1830   28.7450   46.0070 N   0  0  0  0  0  0  0  0  0  0  0  0
   56.4010   29.4430   45.1400 C   0  0  0  0  0  0  0  0  0  0  0  0
   55.1410   28.9630   44.7930 O   0  0  0  0  0  0  0  0  0  0  0  0
   56.8550   30.6290   44.5810 C   0  0  0  0  0  0  0  0  0  0  0  0
   58.1180   31.0960   44.9270 C   0  0  0  0  0  0  0  0  0  0  0  0
   58.5340   32.1670   44.4050 O   0  0  0  0  0  0  0  0  0  0  0  0
   58.8910   30.4010   45.8220 N   0  0  0  0  0  0  0  0  0  0  0  0
   60.2160   30.9180   46.2250 C   0  0  0  0  0  0  0  0  0  0  0  0
   60.0660   32.1730   47.0460 C   0  0  0  0  0  0  0  0  0  0  0  0
   60.2820   33.4360   46.4660 C   0  0  0  0  0  0  0  0  0  0  0  0
   60.1700   34.5950   47.2390 C   0  0  0  0  0  0  0  0  0  0  0  0
   59.8440   34.5050   48.5950 C   0  0  0  0  0  0  0  0  0  0  0  0
   59.6280   33.2540   49.1800 C   0  0  0  0  0  0  0  0  0  0  0  0
   59.7400   32.0910   48.4100 C   0  0  0  0  0  0  0  0  0  0  0  0
   58.4090   29.2380   46.3770 C   0  0  0  0  0  0  0  0  0  0  0  0
   59.0890   28.6330   47.2510 O   0  0  0  0  0  0  0  0  0  0  0  0
   55.6790   24.9600   45.5820 C   0  0  0  0  0  0  0  0  0  0  0  0
   55.3030   23.9420   44.7000 C   0  0  0  0  0  0  0  0  0  0  0  0
   56.8623   20.6075   43.9805 H   0  0  0  0  0  0  0  0  0  0  0  0
   56.0311   20.2530   42.4281 H   0  0  0  0  0  0  0  0  0  0  0  0
   57.5958   21.1352   42.4281 H   0  0  0  0  0  0  0  0  0  0  0  0
   58.3939   23.0648   43.5297 H   0  0  0  0  0  0  0  0  0  0  0  0
   59.0645   24.8771   45.1002 H   0  0  0  0  0  0  0  0  0  0  0  0
   57.3039   26.0076   47.7308 H   0  0  0  0  0  0  0  0  0  0  0  0
   58.5098   26.6143   46.5336 H   0  0  0  0  0  0  0  0  0  0  0  0
   56.2256   31.1909   43.8752 H   0  0  0  0  0  0  0  0  0  0  0  0
   60.7359   30.1546   46.8225 H   0  0  0  0  0  0  0  0  0  0  0  0
   60.7965   31.1521   45.3204 H   0  0  0  0  0  0  0  0  0  0  0  0
   60.5402   33.5119   45.3994 H   0  0  0  0  0  0  0  0  0  0  0  0
   60.3388   35.5799   46.7792 H   0  0  0  0  0  0  0  0  0  0  0  0
   59.7574   35.4184   49.2018 H   0  0  0  0  0  0  0  0  0  0  0  0
   59.3697   33.1837   50.2469 H   0  0  0  0  0  0  0  0  0  0  0  0
   59.5721   31.1083   48.8748 H   0  0  0  0  0  0  0  0  0  0  0  0
   54.9112   25.4943   46.1608 H   0  0  0  0  0  0  0  0  0  0  0  0
   54.2407   23.6793   44.5879 H   0  0  0  0  0  0  0  0  0  0  0  0
  1  2  1  0
  2  3  1  0
  3  4  2  0
  4  5  1  0
  5  6  2  0
  6  7  1  0
  7  8  1  0
  8  9  1  0
  9 10  1  0
 10 11  1  0
 10 12  2  0
 12 13  1  0
 13 14  2  0
 13 15  1  0
 15 16  1  0
 16 17  1  0
 17 18  2  0
 18 19  1  0
 19 20  2  0
 20 21  1  0
 21 22  2  0
 15 23  1  0
 23 24  2  0
  6 25  1  0
 25 26  2  0
 26  3  1  0
 23  9  1  0
 22 17  1  0
  1 27  1  0
  1 28  1  0
  1 29  1  0
  4 30  1  0
  5 31  1  0
  7 32  1  0
  7 33  1  0
 12 34  1  0
 16 35  1  0
 16 36  1  0
 18 37  1  0
 19 38  1  0
 20 39  1  0
 21 40  1  0
 22 41  1  0
 25 42  1  0
 26 43  1  0
M  CHG  1  11  -1
M  END
>  <UniqueID>  (23) 
23

>  <SMILES>  (23) 
COc1ccc(COn2c([O-])cc(=O)n(Cc3ccccc3)c2=O)cc1

>  <Energy>  (23) 
53.315574198291124

>  <Genealogy>  (23) 
COc1ccc(COn2c([O-])cc(=O)n(Cc3ccccc3)c2=O)cc1 (protonated)
COc1ccc(COn2c([O-])cc(=O)n(Cc3ccccc3)c2=O)cc1 (3D coordinates assigned)
COc1ccc(COn2c([O-])cc(=O)n(Cc3ccccc3)c2=O)cc1 (optimized conformer: 53.315574198291124 kcal/mol)

>  <smiles>  (23) 
COc1ccc(COn2c(O)cc(=O)n(Cc3ccccc3)c2=O)cc1

>  <score_type>  (23) 
oracle

>  <origin>  (23) 
adg

>  <m_score__min__energy>  (23) 
-11

>  <m_primary>  (23) 
energy

$$$$
23:0
     RDKit          3D

 52 54  0  0  1  0  0  0  0  0999 V2000
   57.4090   32.0000   52.7450 N   0  0  0  0  0  0  0  0  0  0  0  0
   58.5210   31.1570   49.5370 C   0  0  0  0  0  0  0  0  0  0  0  0
   59.1500   30.6640   52.1290 C   0  0  0  0  0  0  0  0  0  0  0  0
   59.9050   30.0880   51.1250 C   0  0  0  0  0  0  0  0  0  0  0  0
   59.5580   30.3590   49.8530 N   0  0  0  0  0  0  0  0  0  0  0  0
   60.3160   29.7800   48.7930 C   0  0  1  0  0  0  0  0  0  0  0  0
   59.5230   29.0980   47.8400 O   0  0  0  0  0  0  0  0  0  0  0  0
   60.5540   28.7840   46.9360 C   0  0  1  0  0  0  0  0  0  0  0  0
   60.0840   27.9820   45.7590 C   0  0  0  0  0  0  0  0  0  0  0  0
   58.8200   27.4180   45.9870 O   0  0  0  0  0  0  0  0  0  0  0  0
   57.6080   28.2240   45.2000 S   0  0  0  0  0  0  0  0  0  0  0  0
   57.7160   28.0750   43.6930 O   0  0  0  0  0  0  0  0  0  0  0  0
   56.2190   27.7420   45.5860 O   0  0  0  0  0  0  0  0  0  0  0  0
   57.6020   29.9230   45.5080 N   0  0  0  0  0  0  0  0  0  0  0  0
   57.0960   30.8780   44.5900 C   0  0  0  0  0  0  0  0  0  0  0  0
   56.6100   30.5990   43.4800 O   0  0  0  0  0  0  0  0  0  0  0  0
   57.1500   32.3120   44.9780 C   0  0  1  0  0  0  0  0  0  0  0  0
   57.4600   32.4660   46.3870 N   0  0  0  0  0  0  0  0  0  0  0  0
   58.2670   33.0360   44.2330 C   0  0  0  0  0  0  0  0  0  0  0  0
   59.0480   33.8980   45.1670 C   0  0  0  0  0  0  0  0  0  0  0  0
   59.2390   35.2570   44.9450 C   0  0  0  0  0  0  0  0  0  0  0  0
   59.9930   35.7190   45.9920 C   0  0  0  0  0  0  0  0  0  0  0  0
   60.2340   34.6280   46.8160 C   0  0  0  0  0  0  0  0  0  0  0  0
   59.6530   33.5540   46.2900 O   0  0  0  0  0  0  0  0  0  0  0  0
   60.9850   30.1830   46.5650 C   0  0  1  0  0  0  0  0  0  0  0  0
   60.0040   30.8730   45.8570 O   0  0  0  0  0  0  0  0  0  0  0  0
   61.1080   30.7790   47.9760 C   0  0  1  0  0  0  0  0  0  0  0  0
   60.5580   32.0480   48.0310 O   0  0  0  0  0  0  0  0  0  0  0  0
   58.0950   31.4770   51.7640 C   0  0  0  0  0  0  0  0  0  0  0  0
   58.1980   31.4080   48.3430 O   0  0  0  0  0  0  0  0  0  0  0  0
   57.7580   31.7400   50.4980 N   0  0  0  0  0  0  0  0  0  0  0  0
   57.3280   31.5040   53.6540 H   0  0  0  0  0  0  0  0  0  0  0  0
   59.3826   30.4802   53.1883 H   0  0  0  0  0  0  0  0  0  0  0  0
   60.7575   29.4326   51.3566 H   0  0  0  0  0  0  0  0  0  0  0  0
   60.9812   29.0974   49.3422 H   0  0  0  0  0  0  0  0  0  0  0  0
   61.3494   28.1413   47.3414 H   0  0  0  0  0  0  0  0  0  0  0  0
   60.0274   28.6398   44.8791 H   0  0  0  0  0  0  0  0  0  0  0  0
   60.8000   27.1635   45.5938 H   0  0  0  0  0  0  0  0  0  0  0  0
   57.9890   30.2410   46.4090 H   0  0  0  0  0  0  0  0  0  0  0  0
   56.1612   32.7293   44.7370 H   0  0  0  0  0  0  0  0  0  0  0  0
   57.4800   33.4540   46.6930 H   0  0  0  0  0  0  0  0  0  0  0  0
   58.2860   31.8950   46.6830 H   0  0  0  0  0  0  0  0  0  0  0  0
   58.9393   32.2932   43.7789 H   0  0  0  0  0  0  0  0  0  0  0  0
   57.8201   33.6711   43.4540 H   0  0  0  0  0  0  0  0  0  0  0  0
   58.8598   35.8454   44.0965 H   0  0  0  0  0  0  0  0  0  0  0  0
   60.3392   36.7513   46.1487 H   0  0  0  0  0  0  0  0  0  0  0  0
   60.8117   34.6487   47.7519 H   0  0  0  0  0  0  0  0  0  0  0  0
   61.8768   30.2253   45.9224 H   0  0  0  0  0  0  0  0  0  0  0  0
   59.3960   31.3760   46.4510 H   0  0  0  0  0  0  0  0  0  0  0  0
   62.1419   30.9142   48.3263 H   0  0  0  0  0  0  0  0  0  0  0  0
   59.6300   31.9980   47.6560 H   0  0  0  0  0  0  0  0  0  0  0  0
   56.9520   32.3600   50.2310 H   0  0  0  0  0  0  0  0  0  0  0  0
  1  2  2  3
  2  3  1  0
  3  4  2  0
  4  5  1  0
  5  6  1  0
  6  7  1  0
  7  8  1  0
  8  9  1  0
  9 10  1  0
 10 11  1  0
 11 12  2  0
 11 13  2  0
 11 14  1  0
 14 15  1  0
 15 16  2  0
 15 17  1  0
 17 18  1  0
 17 19  1  0
 19 20  1  0
 20 21  2  0
 21 22  1  0
 22 23  2  0
 23 24  1  0
  8 25  1  0
 25 26  1  0
 25 27  1  0
 27 28  1  0
  5 29  1  0
 29 30  2  0
 29 31  1  0
 31  2  1  0
 27  6  1  0
 24 20  1  0
  1 32  1  0
  3 33  1  0
  4 34  1  0
  6 35  1  1
  8 36  1  1
  9 37  1  0
  9 38  1  0
 14 39  1  0
 17 40  1  1
 18 41  1  0
 18 42  1  0
 19 43  1  0
 19 44  1  0
 21 45  1  0
 22 46  1  0
 23 47  1  0
 25 48  1  6
 26 49  1  0
 27 50  1  1
 28 51  1  0
 31 52  1  0
M  END
>  <smiles>  (24) 
N=c1ccn(C2OC(COS(=O)(=O)NC(=O)C(N)Cc3ccco3)C(O)C2O)c(=O)[nH]1

>  <score_type>  (24) 
oracle

>  <origin>  (24) 
adg

>  <m_score__min__energy>  (24) 
-9.3800000000000008

>  <m_primary>  (24) 
energy

$$$$
24:0
     RDKit          3D

 40 42  0  0  0  0  0  0  0  0999 V2000
   59.4010   27.1270   46.0370 C   0  0  0  0  0  0  0  0  0  0  0  0
   60.0880   28.0370   45.2280 C   0  0  0  0  0  0  0  0  0  0  0  0
   59.3870   29.0360   44.5440 C   0  0  0  0  0  0  0  0  0  0  0  0
   57.9900   29.1230   44.6580 C   0  0  0  0  0  0  0  0  0  0  0  0
   57.2410   30.2200   43.9590 C   0  0  0  0  0  0  0  0  0  0  0  0
   56.8290   31.1890   44.9180 O   0  0  0  0  0  0  0  0  0  0  0  0
   57.6200   32.2660   45.3460 C   0  0  0  0  0  0  0  0  0  0  0  0
   57.1690   33.5960   45.3200 C   0  0  0  0  0  0  0  0  0  0  0  0
   57.9810   34.5990   45.7460 N   0  0  0  0  0  0  0  0  0  0  0  0
   59.2370   34.3610   46.2040 C   0  0  0  0  0  0  0  0  0  0  0  0
   59.7410   33.0500   46.2520 C   0  0  0  0  0  0  0  0  0  0  0  0
   61.0760   32.7850   46.7370 N   0  0  0  0  0  0  0  0  0  0  0  0
   61.4760   31.4260   47.1240 C   0  0  0  0  0  0  0  0  0  0  0  0
   62.5920   31.4830   48.1750 C   0  0  0  0  0  0  0  0  0  0  0  0
   63.7690   32.2530   47.7180 N   0  0  0  0  0  0  0  0  0  0  0  0
   63.4790   33.3130   46.7280 C   0  0  0  0  0  0  0  0  0  0  0  0
   62.0570   33.8720   46.8540 C   0  0  0  0  0  0  0  0  0  0  0  0
   58.9100   32.0040   45.8150 C   0  0  0  0  0  0  0  0  0  0  0  0
   57.3090   28.2170   45.4870 C   0  0  0  0  0  0  0  0  0  0  0  0
   58.0140   27.2190   46.1680 C   0  0  0  0  0  0  0  0  0  0  0  0
   59.9530   26.3389   46.5701 H   0  0  0  0  0  0  0  0  0  0  0  0
   61.1813   27.9674   45.1291 H   0  0  0  0  0  0  0  0  0  0  0  0
   59.9317   29.7555   43.9150 H   0  0  0  0  0  0  0  0  0  0  0  0
   57.8952   30.6952   43.2132 H   0  0  0  0  0  0  0  0  0  0  0  0
   56.3584   29.8014   43.4532 H   0  0  0  0  0  0  0  0  0  0  0  0
   56.1573   33.8260   44.9544 H   0  0  0  0  0  0  0  0  0  0  0  0
   59.8642   35.2000   46.5397 H   0  0  0  0  0  0  0  0  0  0  0  0
   60.6077   30.8971   47.5439 H   0  0  0  0  0  0  0  0  0  0  0  0
   61.8457   30.8932   46.2355 H   0  0  0  0  0  0  0  0  0  0  0  0
   62.1942   31.9557   49.0851 H   0  0  0  0  0  0  0  0  0  0  0  0
   62.9233   30.4511   48.3634 H   0  0  0  0  0  0  0  0  0  0  0  0
   64.2230   32.6880   48.5550 H   0  0  0  0  0  0  0  0  0  0  0  0
   64.4630   31.5910   47.2990 H   0  0  0  0  0  0  0  0  0  0  0  0
   64.1942   34.1358   46.8747 H   0  0  0  0  0  0  0  0  0  0  0  0
   63.5709   32.8652   45.7275 H   0  0  0  0  0  0  0  0  0  0  0  0
   61.9435   34.3609   47.8328 H   0  0  0  0  0  0  0  0  0  0  0  0
   61.8840   34.6017   46.0493 H   0  0  0  0  0  0  0  0  0  0  0  0
   59.2791   30.9681   45.8425 H   0  0  0  0  0  0  0  0  0  0  0  0
   56.2175   28.2923   45.6013 H   0  0  0  0  0  0  0  0  0  0  0  0
   57.4746   26.5053   46.8080 H   0  0  0  0  0  0  0  0  0  0  0  0
  1  2  2  0
  2  3  1  0
  3  4  2  0
  4  5  1  0
  5  6  1  0
  6  7  1  0
  7  8  2  0
  8  9  1  0
  9 10  2  0
 10 11  1  0
 11 12  1  0
 12 13  1  0
 13 14  1  0
 14 15  1  0
 15 16  1  0
 16 17  1  0
 11 18  2  0
  4 19  1  0
 19 20  2  0
 20  1  1  0
 18  7  1  0
 17 12  1  0
  1 21  1  0
  2 22  1  0
  3 23  1  0
  5 24  1  0
  5 25  1  0
  8 26  1  0
 10 27  1  0
 13 28  1  0
 13 29  1  0
 14 30  1  0
 14 31  1  0
 15 32  1  0
 15 33  1  0
 16 34  1  0
 16 35  1  0
 17 36  1  0
 17 37  1  0
 18 38  1  0
 19 39  1  0
 20 40  1  0
M  CHG  1  15   1
M  END
>  <UniqueID>  (25) 
24

>  <SMILES>  (25) 
c1ccc(COc2cncc(N3CC[NH2+]CC3)c2)cc1

>  <Energy>  (25) 
48.91021338838585

>  <Genealogy>  (25) 
c1ccc(COc2cncc(N3CC[NH2+]CC3)c2)cc1 (protonated)
c1ccc(COc2cncc(N3CC[NH2+]CC3)c2)cc1 (3D coordinates assigned)
c1ccc(COc2cncc(N3CC[NH2+]CC3)c2)cc1 (nonaromatic ring conformer: 48.91021338838585 kcal/mol)

>  <smiles>  (25) 
c1ccc(COc2cncc(N3CCNCC3)c2)cc1

>  <score_type>  (25) 
oracle

>  <origin>  (25) 
adg

>  <m_score__min__energy>  (25) 
-5.7599999999999998

>  <m_primary>  (25) 
energy

$$$$
25:0
     RDKit          3D

 30 32  0  0  0  0  0  0  0  0999 V2000
   63.5432   31.9863   46.7587 H   0  0  0  0  0  0  0  0  0  0  0  0
   62.7900   31.6490   47.4860 C   0  0  0  0  0  0  0  0  0  0  0  0
   61.6970   30.8920   47.0610 C   0  0  0  0  0  0  0  0  0  0  0  0
   61.5723   30.6469   45.9959 H   0  0  0  0  0  0  0  0  0  0  0  0
   60.7620   30.4480   48.0010 C   0  0  0  0  0  0  0  0  0  0  0  0
   59.6200   29.7050   47.5600 N   0  0  0  0  0  0  0  0  0  0  0  0
   58.7610   30.0490   46.6420 C   0  0  0  0  0  0  0  0  0  0  0  0
   58.6300   31.3830   45.9890 C   0  0  0  0  0  0  0  0  0  0  0  0
   59.1230   32.6260   46.4140 C   0  0  0  0  0  0  0  0  0  0  0  0
   59.7356   32.6945   47.3251 H   0  0  0  0  0  0  0  0  0  0  0  0
   58.8300   33.7890   45.6680 C   0  0  0  0  0  0  0  0  0  0  0  0
   59.3590   35.0630   46.0760 N   0  0  0  0  0  0  0  0  0  0  0  0
   59.6420   35.9360   45.2290 O   0  0  0  0  0  0  0  0  0  0  0  0
   59.5760   35.3380   47.4070 O   0  0  0  0  0  0  0  0  0  0  0  0
   57.9960   33.6880   44.5300 C   0  0  0  0  0  0  0  0  0  0  0  0
   57.7779   34.5857   43.9328 H   0  0  0  0  0  0  0  0  0  0  0  0
   57.4460   32.4570   44.1570 C   0  0  0  0  0  0  0  0  0  0  0  0
   56.7691   32.3853   43.2929 H   0  0  0  0  0  0  0  0  0  0  0  0
   57.7700   31.3250   44.8980 C   0  0  0  0  0  0  0  0  0  0  0  0
   57.0810   29.7420   44.7130 S   0  0  0  0  0  0  0  0  0  0  0  0
   57.5140   29.0730   43.4410 O   0  0  0  0  0  0  0  0  0  0  0  0
   55.5900   29.7380   44.8860 O   0  0  0  0  0  0  0  0  0  0  0  0
   57.8780   29.0740   46.0840 N   0  0  0  0  0  0  0  0  0  0  0  0
   57.8640   28.0630   46.3420 H   0  0  0  0  0  0  0  0  0  0  0  0
   60.8910   30.8110   49.3110 N   0  0  0  0  0  0  0  0  0  0  0  0
   60.1640   30.5240   50.0050 H   0  0  0  0  0  0  0  0  0  0  0  0
   61.9510   31.5480   49.7430 C   0  0  0  0  0  0  0  0  0  0  0  0
   62.0415   31.8067   50.8083 H   0  0  0  0  0  0  0  0  0  0  0  0
   62.9250   31.9770   48.8360 C   0  0  0  0  0  0  0  0  0  0  0  0
   64.4140   33.0110   49.4350 Br  0  0  0  0  0  0  0  0  0  0  0  0
  1  2  1  0
  2  3  2  0
  3  4  1  0
  3  5  1  0
  5  6  1  0
  6  7  2  0
  7  8  1  0
  8  9  2  0
  9 10  1  0
  9 11  1  0
 11 12  1  0
 12 13  2  0
 12 14  1  0
 11 15  2  0
 15 16  1  0
 15 17  1  0
 17 18  1  0
 17 19  2  0
 19 20  1  0
 20 21  2  0
 20 22  2  0
 20 23  1  0
 23 24  1  0
  5 25  2  0
 25 26  1  0
 25 27  1  0
 27 28  1  0
 27 29  2  0
 29 30  1  0
 29  2  1  0
 23  7  1  0
 19  8  1  0
M  CHG  3  12   1  14  -1  25   1
M  END
>  <UniqueID>  (26) 
25

>  <SMILES>  (26) 
O=[N+]([O-])c1ccc2c(c1)/C(=N\c1ccc(Br)c[nH+]1)NS2(=O)=O

>  <Energy>  (26) 
67.12861044165021

>  <Genealogy>  (26) 
O=[N+]([O-])c1ccc2c(c1)C(=Nc1ccc(Br)c[nH+]1)NS2(=O)=O (protonated)
O=[N+]([O-])c1ccc2c(c1)/C(=N\c1ccc(Br)c[nH+]1)NS2(=O)=O (cis-trans isomerization)
O=[N+]([O-])c1ccc2c(c1)/C(=N\c1ccc(Br)c[nH+]1)NS2(=O)=O (3D coordinates assigned)
O=[N+]([O-])c1ccc2c(c1)/C(=N\c1ccc(Br)c[nH+]1)NS2(=O)=O (nonaromatic ring conformer: 67.12861044165021 kcal/mol)

>  <smiles>  (26) 
O=[N+]([O-])c1ccc2c(c1)C(=Nc1ccc(Br)cn1)NS2(=O)=O

>  <score_type>  (26) 
oracle

>  <origin>  (26) 
adg

>  <m_score__min__energy>  (26) 
-6.4299999999999997

>  <m_primary>  (26) 
energy

$$$$
26:0
     RDKit          3D

 36 39  0  0  0  0  0  0  0  0999 V2000
   58.2140   33.0910   41.4490 O   0  0  0  0  0  0  0  0  0  0  0  0
   57.7780   32.2600   42.2930 C   0  0  0  0  0  0  0  0  0  0  0  0
   57.0930   31.1710   41.8650 N   0  0  0  0  0  0  0  0  0  0  0  0
   56.6020   30.2500   42.7370 C   0  0  0  0  0  0  0  0  0  0  0  0
   55.9800   29.2510   42.2820 O   0  0  0  0  0  0  0  0  0  0  0  0
   56.7840   30.4010   44.0920 N   0  0  0  0  0  0  0  0  0  0  0  0
   56.2100   29.4010   45.0210 C   0  0  0  0  0  0  0  0  0  0  0  0
   57.2160   28.3210   45.3390 C   0  0  0  0  0  0  0  0  0  0  0  0
   58.5910   28.5680   45.1760 C   0  0  0  0  0  0  0  0  0  0  0  0
   59.5280   27.5670   45.4460 C   0  0  0  0  0  0  0  0  0  0  0  0
   59.1050   26.3100   45.8820 C   0  0  0  0  0  0  0  0  0  0  0  0
   57.7430   26.0530   46.0510 C   0  0  0  0  0  0  0  0  0  0  0  0
   56.7990   27.0500   45.7810 C   0  0  0  0  0  0  0  0  0  0  0  0
   55.4840   26.7760   45.9680 F   0  0  0  0  0  0  0  0  0  0  0  0
   57.4870   31.4850   44.5620 C   0  0  0  0  0  0  0  0  0  0  0  0
   57.7050   31.6480   45.8990 N   0  0  0  0  0  0  0  0  0  0  0  0
   58.3900   32.7050   46.4060 C   0  0  0  0  0  0  0  0  0  0  0  0
   58.5780   32.8210   47.7880 C   0  0  0  0  0  0  0  0  0  0  0  0
   59.2820   33.9120   48.3080 C   0  0  0  0  0  0  0  0  0  0  0  0
   59.7990   34.8890   47.4510 C   0  0  0  0  0  0  0  0  0  0  0  0
   59.6140   34.7800   46.0680 C   0  0  0  0  0  0  0  0  0  0  0  0
   58.9090   33.6890   45.5380 C   0  0  0  0  0  0  0  0  0  0  0  0
   58.7100   33.5510   44.1610 C   0  0  0  0  0  0  0  0  0  0  0  0
   57.9980   32.4470   43.6620 C   0  0  0  0  0  0  0  0  0  0  0  0
   56.9380   31.0360   40.8400 H   0  0  0  0  0  0  0  0  0  0  0  0
   55.9145   29.9038   45.9537 H   0  0  0  0  0  0  0  0  0  0  0  0
   55.3358   28.9367   44.5411 H   0  0  0  0  0  0  0  0  0  0  0  0
   58.9313   29.5564   44.8335 H   0  0  0  0  0  0  0  0  0  0  0  0
   60.6011   27.7699   45.3147 H   0  0  0  0  0  0  0  0  0  0  0  0
   59.8440   25.5228   46.0922 H   0  0  0  0  0  0  0  0  0  0  0  0
   57.4109   25.0633   46.3976 H   0  0  0  0  0  0  0  0  0  0  0  0
   58.1723   32.0546   48.4648 H   0  0  0  0  0  0  0  0  0  0  0  0
   59.4295   34.0019   49.3943 H   0  0  0  0  0  0  0  0  0  0  0  0
   60.3522   35.7449   47.8649 H   0  0  0  0  0  0  0  0  0  0  0  0
   60.0215   35.5500   45.3964 H   0  0  0  0  0  0  0  0  0  0  0  0
   59.1105   34.3061   43.4687 H   0  0  0  0  0  0  0  0  0  0  0  0
  1  2  2  0
  2  3  1  0
  3  4  1  0
  4  5  2  0
  4  6  1  0
  6  7  1  0
  7  8  1  0
  8  9  2  0
  9 10  1  0
 10 11  2  0
 11 12  1  0
 12 13  2  0
 13 14  1  0
  6 15  1  0
 15 16  2  0
 16 17  1  0
 17 18  2  0
 18 19  1  0
 19 20  2  0
 20 21  1  0
 21 22  2  0
 22 23  1  0
 23 24  2  0
 24  2  1  0
 13  8  1  0
 24 15  1  0
 22 17  1  0
  3 25  1  0
  7 26  1  0
  7 27  1  0
  9 28  1  0
 10 29  1  0
 11 30  1  0
 12 31  1  0
 18 32  1  0
 19 33  1  0
 20 34  1  0
 21 35  1  0
 23 36  1  0
M  END
>  <UniqueID>  (27) 
26

>  <SMILES>  (27) 
O=c1[nH]c(=O)n(Cc2ccccc2F)c2nc3ccccc3cc12

>  <Energy>  (27) 
52.49242410487184

>  <Genealogy>  (27) 
O=c1[nH]c(=O)n(Cc2ccccc2F)c2nc3ccccc3cc12 (3D coordinates assigned)
O=c1[nH]c(=O)n(Cc2ccccc2F)c2nc3ccccc3cc12 (optimized conformer: 52.49242410487184 kcal/mol)

>  <smiles>  (27) 
O=c1[nH]c(=O)n(Cc2ccccc2F)c2nc3ccccc3cc12

>  <score_type>  (27) 
oracle

>  <origin>  (27) 
adg

>  <m_score__min__energy>  (27) 
-8.0700000000000003

>  <m_primary>  (27) 
energy

$$$$
27:0
     RDKit          3D

 20 20  0  0  0  0  0  0  0  0999 V2000
   59.6670   35.2690   46.3330 C   0  0  0  0  0  0  0  0  0  0  0  0
   59.2700   33.9000   45.9040 C   0  0  0  0  0  0  0  0  0  0  0  0
   57.9290   33.8250   44.7080 S   0  0  0  0  0  0  0  0  0  0  0  0
   58.2350   32.7140   43.3490 C   0  0  0  0  0  0  0  0  0  0  0  0
   57.3490   31.4990   43.4240 C   0  0  0  0  0  0  0  0  0  0  0  0
   56.8980   30.8760   44.5660 C   0  0  0  0  0  0  0  0  0  0  0  0
   56.1200   29.8100   44.1650 C   0  0  0  0  0  0  0  0  0  0  0  0
   55.5010   28.9570   44.8530 O   0  0  0  0  0  0  0  0  0  0  0  0
   56.1180   29.8100   42.8050 N   0  0  0  0  0  0  0  0  0  0  0  0
   56.8580   30.8280   42.3650 N   0  0  0  0  0  0  0  0  0  0  0  0
   59.6815   35.3192   47.4318 H   0  0  0  0  0  0  0  0  0  0  0  0
   60.6690   35.4996   45.9421 H   0  0  0  0  0  0  0  0  0  0  0  0
   58.9438   35.9999   45.9421 H   0  0  0  0  0  0  0  0  0  0  0  0
   60.1507   33.4156   45.4572 H   0  0  0  0  0  0  0  0  0  0  0  0
   58.8986   33.3949   46.8078 H   0  0  0  0  0  0  0  0  0  0  0  0
   58.0396   33.2419   42.4039 H   0  0  0  0  0  0  0  0  0  0  0  0
   59.2827   32.3828   43.4011 H   0  0  0  0  0  0  0  0  0  0  0  0
   57.1168   31.1724   45.6025 H   0  0  0  0  0  0  0  0  0  0  0  0
   55.6320   29.1440   42.1760 H   0  0  0  0  0  0  0  0  0  0  0  0
   57.0530   31.0980   41.3780 H   0  0  0  0  0  0  0  0  0  0  0  0
  1  2  1  0
  2  3  1  0
  3  4  1  0
  4  5  1  0
  5  6  2  0
  6  7  1  0
  7  8  2  0
  7  9  1  0
  9 10  1  0
 10  5  1  0
  1 11  1  0
  1 12  1  0
  1 13  1  0
  2 14  1  0
  2 15  1  0
  4 16  1  0
  4 17  1  0
  6 18  1  0
  9 19  1  0
 10 20  1  0
M  END
>  <smiles>  (28) 
CCSCc1cc(=O)[nH][nH]1

>  <score_type>  (28) 
oracle

>  <origin>  (28) 
adg

>  <m_score__min__energy>  (28) 
-4.7800000000000002

>  <m_primary>  (28) 
energy

$$$$
28:0
     RDKit          3D

 39 41  0  0  0  0  0  0  0  0999 V2000
   54.6510   26.2540   45.8810 N   0  0  0  0  0  0  0  0  0  0  0  0
   56.0530   25.2580   46.0530 S   0  0  0  0  0  0  0  0  0  0  0  0
   56.0650   24.2280   44.9580 O   0  0  0  0  0  0  0  0  0  0  0  0
   56.0110   24.5530   47.3800 O   0  0  0  0  0  0  0  0  0  0  0  0
   57.4990   26.2580   45.9630 C   0  0  0  0  0  0  0  0  0  0  0  0
   57.9940   26.6950   44.7270 C   0  0  0  0  0  0  0  0  0  0  0  0
   59.1410   27.4940   44.6750 C   0  0  0  0  0  0  0  0  0  0  0  0
   59.7860   27.8760   45.8540 C   0  0  0  0  0  0  0  0  0  0  0  0
   59.2820   27.4730   47.0970 C   0  0  0  0  0  0  0  0  0  0  0  0
   59.9610   27.8840   48.2930 N   0  0  0  0  0  0  0  0  0  0  0  0
   59.7440   29.1250   48.9790 C   0  0  0  0  0  0  0  0  0  0  0  0
   59.6050   29.1190   50.2300 O   0  0  0  0  0  0  0  0  0  0  0  0
   59.7110   30.4050   48.2500 C   0  0  0  0  0  0  0  0  0  0  0  0
   60.7370   31.1380   48.2380 O   0  0  0  0  0  0  0  0  0  0  0  0
   58.5420   30.7890   47.5160 N   0  0  0  0  0  0  0  0  0  0  0  0
   58.5940   31.8550   46.5600 C   0  0  0  0  0  0  0  0  0  0  0  0
   59.1420   33.0880   46.9380 C   0  0  0  0  0  0  0  0  0  0  0  0
   59.2150   34.1420   46.0250 C   0  0  0  0  0  0  0  0  0  0  0  0
   58.7490   33.9770   44.7210 C   0  0  0  0  0  0  0  0  0  0  0  0
   58.2070   32.7480   44.3150 C   0  0  0  0  0  0  0  0  0  0  0  0
   57.7600   32.5730   42.9960 C   0  0  0  0  0  0  0  0  0  0  0  0
   57.2420   31.3430   42.5870 C   0  0  0  0  0  0  0  0  0  0  0  0
   57.1630   30.2790   43.4880 C   0  0  0  0  0  0  0  0  0  0  0  0
   57.5980   30.4390   44.8050 C   0  0  0  0  0  0  0  0  0  0  0  0
   58.1220   31.6730   45.2400 C   0  0  0  0  0  0  0  0  0  0  0  0
   58.1510   26.6380   47.1430 C   0  0  0  0  0  0  0  0  0  0  0  0
   54.7940   27.0920   46.4890 H   0  0  0  0  0  0  0  0  0  0  0  0
   57.4803   26.4096   43.7971 H   0  0  0  0  0  0  0  0  0  0  0  0
   59.5365   27.8227   43.7026 H   0  0  0  0  0  0  0  0  0  0  0  0
   60.6934   28.4959   45.8058 H   0  0  0  0  0  0  0  0  0  0  0  0
   57.7230   30.1420   47.4920 H   0  0  0  0  0  0  0  0  0  0  0  0
   59.5178   33.2268   47.9625 H   0  0  0  0  0  0  0  0  0  0  0  0
   59.6421   35.1069   46.3358 H   0  0  0  0  0  0  0  0  0  0  0  0
   58.8065   34.8130   44.0084 H   0  0  0  0  0  0  0  0  0  0  0  0
   57.8181   33.4080   42.2822 H   0  0  0  0  0  0  0  0  0  0  0  0
   56.8949   31.2114   41.5515 H   0  0  0  0  0  0  0  0  0  0  0  0
   56.7566   29.3113   43.1589 H   0  0  0  0  0  0  0  0  0  0  0  0
   57.5313   29.5958   45.5083 H   0  0  0  0  0  0  0  0  0  0  0  0
   57.7756   26.2806   48.1133 H   0  0  0  0  0  0  0  0  0  0  0  0
  1  2  1  0
  2  3  2  0
  2  4  2  0
  2  5  1  0
  5  6  2  0
  6  7  1  0
  7  8  2  0
  8  9  1  0
  9 10  1  0
 10 11  1  0
 11 12  2  0
 11 13  1  0
 13 14  2  0
 13 15  1  0
 15 16  1  0
 16 17  2  0
 17 18  1  0
 18 19  2  0
 19 20  1  0
 20 21  2  0
 21 22  1  0
 22 23  2  0
 23 24  1  0
 24 25  2  0
  9 26  2  0
 26  5  1  0
 25 16  1  0
 25 20  1  0
  1 27  1  0
  6 28  1  0
  7 29  1  0
  8 30  1  0
 15 31  1  0
 17 32  1  0
 18 33  1  0
 19 34  1  0
 21 35  1  0
 22 36  1  0
 23 37  1  0
 24 38  1  0
 26 39  1  0
M  CHG  2   1  -1  10  -1
M  END
>  <UniqueID>  (29) 
27

>  <SMILES>  (29) 
[NH-]S(=O)(=O)c1cccc([N-]C(=O)C(=O)Nc2cccc3ccccc23)c1

>  <Energy>  (29) 
54.4414071575152

>  <Genealogy>  (29) 
[NH-]S(=O)(=O)c1cccc([N-]C(=O)C(=O)Nc2cccc3ccccc23)c1 (protonated)
[NH-]S(=O)(=O)c1cccc([N-]C(=O)C(=O)Nc2cccc3ccccc23)c1 (3D coordinates assigned)
[NH-]S(=O)(=O)c1cccc([N-]C(=O)C(=O)Nc2cccc3ccccc23)c1 (optimized conformer: 54.4414071575152 kcal/mol)

>  <smiles>  (29) 
NS(=O)(=O)c1cccc(NC(=O)C(=O)Nc2cccc3ccccc23)c1

>  <score_type>  (29) 
oracle

>  <origin>  (29) 
adg

>  <m_score__min__energy>  (29) 
-13.23

>  <m_primary>  (29) 
energy

$$$$
29:0
     RDKit          3D

 31 33  0  0  0  0  0  0  0  0999 V2000
   62.2831   34.3283   50.2814 H   0  0  0  0  0  0  0  0  0  0  0  0
   62.2430   34.0870   49.2090 C   0  0  0  0  0  0  0  0  0  0  0  0
   63.3920   33.8600   48.5230 N   0  0  0  0  0  0  0  0  0  0  0  0
   63.3830   33.5590   47.1980 C   0  0  0  0  0  0  0  0  0  0  0  0
   64.3306   33.3805   46.6687 H   0  0  0  0  0  0  0  0  0  0  0  0
   62.1710   33.4760   46.5070 C   0  0  0  0  0  0  0  0  0  0  0  0
   62.1628   33.2308   45.4347 H   0  0  0  0  0  0  0  0  0  0  0  0
   60.9620   33.7070   47.1870 C   0  0  0  0  0  0  0  0  0  0  0  0
   59.6630   33.6250   46.4740 C   0  0  0  0  0  0  0  0  0  0  0  0
   58.8930   34.7450   46.1500 C   0  0  0  0  0  0  0  0  0  0  0  0
   59.1465   35.7906   46.3790 H   0  0  0  0  0  0  0  0  0  0  0  0
   57.5110   34.2170   45.3490 S   0  0  0  0  0  0  0  0  0  0  0  0
   57.9360   32.5890   45.4440 C   0  0  0  0  0  0  0  0  0  0  0  0
   57.1840   31.4670   44.9510 N   0  0  0  0  0  0  0  0  0  0  0  0
   57.6140   30.2690   44.6730 C   0  0  0  0  0  0  0  0  0  0  0  0
   58.6870   29.7300   45.3190 N   0  0  0  0  0  0  0  0  0  0  0  0
   59.1490   28.4810   45.0420 C   0  0  0  0  0  0  0  0  0  0  0  0
   60.3310   27.9420   45.7830 C   0  0  0  0  0  0  0  0  0  0  0  0
   60.1533   28.0230   46.8655 H   0  0  0  0  0  0  0  0  0  0  0  0
   60.4819   26.8861   45.5142 H   0  0  0  0  0  0  0  0  0  0  0  0
   61.2272   28.5204   45.5142 H   0  0  0  0  0  0  0  0  0  0  0  0
   58.5130   27.7080   44.0630 C   0  0  0  0  0  0  0  0  0  0  0  0
   58.8770   26.6965   43.8300 H   0  0  0  0  0  0  0  0  0  0  0  0
   57.4120   28.2350   43.3860 C   0  0  0  0  0  0  0  0  0  0  0  0
   56.9028   27.6390   42.6143 H   0  0  0  0  0  0  0  0  0  0  0  0
   56.9580   29.5200   43.6900 C   0  0  0  0  0  0  0  0  0  0  0  0
   56.0905   29.9406   43.1603 H   0  0  0  0  0  0  0  0  0  0  0  0
   59.1180   32.4380   46.0770 N   0  0  0  0  0  0  0  0  0  0  0  0
   59.5440   31.5020   46.2580 H   0  0  0  0  0  0  0  0  0  0  0  0
   61.0100   34.0150   48.5570 C   0  0  0  0  0  0  0  0  0  0  0  0
   60.0796   34.1988   49.1142 H   0  0  0  0  0  0  0  0  0  0  0  0
  1  2  1  0
  2  3  2  0
  3  4  1  0
  4  5  1  0
  4  6  2  0
  6  7  1  0
  6  8  1  0
  8  9  1  0
  9 10  2  0
 10 11  1  0
 10 12  1  0
 12 13  1  0
 13 14  1  0
 14 15  2  0
 15 16  1  0
 16 17  1  0
 17 18  1  0
 18 19  1  0
 18 20  1  0
 18 21  1  0
 17 22  2  0
 22 23  1  0
 22 24  1  0
 24 25  1  0
 24 26  2  0
 26 27  1  0
 13 28  2  0
 28 29  1  0
  8 30  2  0
 30 31  1  0
 30  2  1  0
 28  9  1  0
 26 15  1  0
M  CHG  2  16  -1  28   1
M  END
>  <UniqueID>  (30) 
28

>  <SMILES>  (30) 
Cc1ccc/c(=N/c2[nH+]c(-c3ccncc3)cs2)[n-]1

>  <Energy>  (30) 
70.40842256740741

>  <Genealogy>  (30) 
Cc1cccc(=Nc2[nH+]c(-c3ccncc3)cs2)[n-]1 (protonated)
Cc1ccc/c(=N/c2[nH+]c(-c3ccncc3)cs2)[n-]1 (cis-trans isomerization)
Cc1ccc/c(=N/c2[nH+]c(-c3ccncc3)cs2)[n-]1 (3D coordinates assigned)
Cc1ccc/c(=N/c2[nH+]c(-c3ccncc3)cs2)[n-]1 (optimized conformer: 70.40842256740741 kcal/mol)

>  <smiles>  (30) 
Cc1cccc(=Nc2nc(-c3ccncc3)cs2)[nH]1

>  <score_type>  (30) 
oracle

>  <origin>  (30) 
adg

>  <m_score__min__energy>  (30) 
-5.9800000000000004

>  <m_primary>  (30) 
energy

$$$$
30:0
     RDKit          3D

 35 36  0  0  0  0  0  0  0  0999 V2000
   57.8020   23.2450   44.5190 C   0  0  0  0  0  0  0  0  0  0  0  0
   58.3920   23.9100   45.7570 C   0  0  0  0  0  0  0  0  0  0  0  0
   58.3750   25.4030   45.6140 C   0  0  0  0  0  0  0  0  0  0  0  0
   59.4750   26.1590   45.4460 N   0  0  0  0  0  0  0  0  0  0  0  0
   59.1190   27.4340   45.4280 N   0  0  0  0  0  0  0  0  0  0  0  0
   60.0750   28.5290   45.2840 C   0  0  0  0  0  0  0  0  0  0  0  0
   57.7740   27.5230   45.5930 C   0  0  0  0  0  0  0  0  0  0  0  0
   56.9810   28.7740   45.6480 C   0  0  0  0  0  0  0  0  0  0  0  0
   57.4020   29.7530   46.3200 O   0  0  0  0  0  0  0  0  0  0  0  0
   55.7360   28.8790   44.9510 N   0  0  0  0  0  0  0  0  0  0  0  0
   55.5360   29.7140   43.7740 C   0  0  0  0  0  0  0  0  0  0  0  0
   56.4910   30.8640   43.7920 C   0  0  0  0  0  0  0  0  0  0  0  0
   57.3780   31.1920   42.7840 C   0  0  0  0  0  0  0  0  0  0  0  0
   58.0690   32.2940   43.2400 C   0  0  0  0  0  0  0  0  0  0  0  0
   57.5590   32.5640   44.4940 C   0  0  0  0  0  0  0  0  0  0  0  0
   58.0040   33.6660   45.3940 C   0  0  0  0  0  0  0  0  0  0  0  0
   56.6220   31.6960   44.8010 O   0  0  0  0  0  0  0  0  0  0  0  0
   57.2730   26.2320   45.7240 C   0  0  0  0  0  0  0  0  0  0  0  0
   55.6080   25.7320   45.9920 Cl  0  0  0  0  0  0  0  0  0  0  0  0
   57.1010   22.4549   44.8261 H   0  0  0  0  0  0  0  0  0  0  0  0
   57.2678   23.9962   43.9187 H   0  0  0  0  0  0  0  0  0  0  0  0
   58.6114   22.8040   43.9187 H   0  0  0  0  0  0  0  0  0  0  0  0
   57.7985   23.6246   46.6381 H   0  0  0  0  0  0  0  0  0  0  0  0
   59.4338   23.5773   45.8754 H   0  0  0  0  0  0  0  0  0  0  0  0
   60.4550   25.8080   45.3610 H   0  0  0  0  0  0  0  0  0  0  0  0
   60.3822   28.8809   46.2799 H   0  0  0  0  0  0  0  0  0  0  0  0
   60.9579   28.1747   44.7318 H   0  0  0  0  0  0  0  0  0  0  0  0
   59.6048   29.3560   44.7318 H   0  0  0  0  0  0  0  0  0  0  0  0
   55.7068   29.1133   42.8684 H   0  0  0  0  0  0  0  0  0  0  0  0
   54.5063   30.1009   43.7777 H   0  0  0  0  0  0  0  0  0  0  0  0
   57.5058   30.6801   41.8188 H   0  0  0  0  0  0  0  0  0  0  0  0
   58.8627   32.8444   42.7136 H   0  0  0  0  0  0  0  0  0  0  0  0
   57.8790   33.3565   46.4421 H   0  0  0  0  0  0  0  0  0  0  0  0
   59.0635   33.8910   45.2020 H   0  0  0  0  0  0  0  0  0  0  0  0
   57.3979   34.5636   45.2020 H   0  0  0  0  0  0  0  0  0  0  0  0
  1  2  1  0
  2  3  1  0
  3  4  2  0
  4  5  1  0
  5  6  1  0
  5  7  1  0
  7  8  1  0
  8  9  2  0
  8 10  1  0
 10 11  1  0
 11 12  1  0
 12 13  2  0
 13 14  1  0
 14 15  2  0
 15 16  1  0
 15 17  1  0
  7 18  2  0
 18 19  1  0
 18  3  1  0
 17 12  1  0
  1 20  1  0
  1 21  1  0
  1 22  1  0
  2 23  1  0
  2 24  1  0
  4 25  1  0
  6 26  1  0
  6 27  1  0
  6 28  1  0
 11 29  1  0
 11 30  1  0
 13 31  1  0
 14 32  1  0
 16 33  1  0
 16 34  1  0
 16 35  1  0
M  CHG  2   4   1  10  -1
M  END
>  <UniqueID>  (31) 
29

>  <SMILES>  (31) 
CCc1[nH+]n(C)c(C(=O)[N-]Cc2ccc(C)o2)c1Cl

>  <Energy>  (31) 
84.49794975305092

>  <Genealogy>  (31) 
CCc1[nH+]n(C)c(C(=O)[N-]Cc2ccc(C)o2)c1Cl (protonated)
CCc1[nH+]n(C)c(C(=O)[N-]Cc2ccc(C)o2)c1Cl (3D coordinates assigned)
CCc1[nH+]n(C)c(C(=O)[N-]Cc2ccc(C)o2)c1Cl (optimized conformer: 84.49794975305092 kcal/mol)

>  <smiles>  (31) 
CCc1nn(C)c(C(=O)NCc2ccc(C)o2)c1Cl

>  <score_type>  (31) 
oracle

>  <origin>  (31) 
adg

>  <m_score__min__energy>  (31) 
-6.9900000000000002

>  <m_primary>  (31) 
energy

$$$$
31:0
     RDKit          3D

 58 61  0  0  0  0  0  0  0  0999 V2000
   57.1570   31.6380   52.0100 C   0  0  0  0  0  0  0  0  0  0  0  0
   57.3990   30.5340   51.1520 O   0  0  0  0  0  0  0  0  0  0  0  0
   58.5080   30.4150   50.2990 C   0  0  0  0  0  0  0  0  0  0  0  0
   58.5540   29.3310   49.4120 C   0  0  0  0  0  0  0  0  0  0  0  0
   59.6390   29.1670   48.5450 C   0  0  0  0  0  0  0  0  0  0  0  0
   60.7060   30.0710   48.5770 C   0  0  0  0  0  0  0  0  0  0  0  0
   60.6960   31.1500   49.4820 C   0  0  0  0  0  0  0  0  0  0  0  0
   61.8670   32.1130   49.5420 C   0  0  0  0  0  0  0  0  0  0  0  0
   61.5540   33.4630   49.0170 N   0  0  0  0  0  0  0  0  0  0  0  0
   60.1490   33.9120   49.1880 C   0  0  0  0  0  0  0  0  0  0  0  0
   59.5010   34.3590   47.8730 C   0  0  0  0  0  0  0  0  0  0  0  0
   59.9530   33.4760   46.7980 N   0  0  0  0  0  0  0  0  0  0  0  0
   59.0640   32.5580   46.1180 C   0  0  0  0  0  0  0  0  0  0  0  0
   57.8830   33.0110   45.5040 C   0  0  0  0  0  0  0  0  0  0  0  0
   57.0100   32.1120   44.8870 C   0  0  0  0  0  0  0  0  0  0  0  0
   57.2860   30.7330   44.8730 C   0  0  0  0  0  0  0  0  0  0  0  0
   56.3790   29.8310   44.2070 N   0  0  0  0  0  0  0  0  0  0  0  0
   56.6570   29.3730   43.0820 O   0  0  0  0  0  0  0  0  0  0  0  0
   55.2640   29.3590   44.8460 O   0  0  0  0  0  0  0  0  0  0  0  0
   58.4610   30.2660   45.5070 C   0  0  0  0  0  0  0  0  0  0  0  0
   58.7410   28.8640   45.6270 N   0  0  0  0  0  0  0  0  0  0  0  0
   57.6720   27.9880   46.1090 C   0  0  0  0  0  0  0  0  0  0  0  0
   58.1340   26.5420   46.1990 C   0  0  0  0  0  0  0  0  0  0  0  0
   59.3940   26.4910   46.8400 O   0  0  0  0  0  0  0  0  0  0  0  0
   60.3840   26.9550   45.9440 C   0  0  0  0  0  0  0  0  0  0  0  0
   60.1380   28.4130   45.4690 C   0  0  0  0  0  0  0  0  0  0  0  0
   59.3380   31.1800   46.1080 C   0  0  0  0  0  0  0  0  0  0  0  0
   61.3920   33.4860   46.4990 C   0  0  0  0  0  0  0  0  0  0  0  0
   62.2230   33.8370   47.7490 C   0  0  0  0  0  0  0  0  0  0  0  0
   59.5750   31.3400   50.3110 C   0  0  0  0  0  0  0  0  0  0  0  0
   57.2287   31.3107   53.0577 H   0  0  0  0  0  0  0  0  0  0  0  0
   57.9047   32.4219   51.8187 H   0  0  0  0  0  0  0  0  0  0  0  0
   56.1500   32.0372   51.8187 H   0  0  0  0  0  0  0  0  0  0  0  0
   57.7296   28.6029   49.3976 H   0  0  0  0  0  0  0  0  0  0  0  0
   59.6534   28.3256   47.8366 H   0  0  0  0  0  0  0  0  0  0  0  0
   61.5566   29.9385   47.8923 H   0  0  0  0  0  0  0  0  0  0  0  0
   62.1817   32.2125   50.5913 H   0  0  0  0  0  0  0  0  0  0  0  0
   62.6603   31.6955   48.9045 H   0  0  0  0  0  0  0  0  0  0  0  0
   59.5624   33.0790   49.6029 H   0  0  0  0  0  0  0  0  0  0  0  0
   60.1601   34.7809   49.8624 H   0  0  0  0  0  0  0  0  0  0  0  0
   58.4062   34.3013   47.9625 H   0  0  0  0  0  0  0  0  0  0  0  0
   59.7895   35.3966   47.6492 H   0  0  0  0  0  0  0  0  0  0  0  0
   57.6440   34.0847   45.5096 H   0  0  0  0  0  0  0  0  0  0  0  0
   56.0948   32.4874   44.4058 H   0  0  0  0  0  0  0  0  0  0  0  0
   57.3565   28.3252   47.1074 H   0  0  0  0  0  0  0  0  0  0  0  0
   56.8360   28.0393   45.3959 H   0  0  0  0  0  0  0  0  0  0  0  0
   57.4034   25.9586   46.7785 H   0  0  0  0  0  0  0  0  0  0  0  0
   58.2189   26.1194   45.1870 H   0  0  0  0  0  0  0  0  0  0  0  0
   61.3609   26.9106   46.4476 H   0  0  0  0  0  0  0  0  0  0  0  0
   60.3507   26.3093   45.0541 H   0  0  0  0  0  0  0  0  0  0  0  0
   60.7866   29.0822   46.0535 H   0  0  0  0  0  0  0  0  0  0  0  0
   60.3639   28.4415   44.3928 H   0  0  0  0  0  0  0  0  0  0  0  0
   60.2596   30.8106   46.5815 H   0  0  0  0  0  0  0  0  0  0  0  0
   61.6898   32.4901   46.1391 H   0  0  0  0  0  0  0  0  0  0  0  0
   61.5811   34.2507   45.7312 H   0  0  0  0  0  0  0  0  0  0  0  0
   63.1843   33.3055   47.6906 H   0  0  0  0  0  0  0  0  0  0  0  0
   62.3553   34.9290   47.7582 H   0  0  0  0  0  0  0  0  0  0  0  0
   59.5294   32.2165   50.9741 H   0  0  0  0  0  0  0  0  0  0  0  0
  1  2  1  0
  2  3  1  0
  3  4  2  0
  4  5  1  0
  5  6  2  0
  6  7  1  0
  7  8  1  0
  8  9  1  0
  9 10  1  0
 10 11  1  0
 11 12  1  0
 12 13  1  0
 13 14  2  0
 14 15  1  0
 15 16  2  0
 16 17  1  0
 17 18  2  0
 17 19  1  0
 16 20  1  0
 20 21  1  0
 21 22  1  0
 22 23  1  0
 23 24  1  0
 24 25  1  0
 25 26  1  0
 20 27  2  0
 12 28  1  0
 28 29  1  0
  7 30  2  0
 30  3  1  0
 29  9  1  0
 27 13  1  0
 26 21  1  0
  1 31  1  0
  1 32  1  0
  1 33  1  0
  4 34  1  0
  5 35  1  0
  6 36  1  0
  8 37  1  0
  8 38  1  0
 10 39  1  0
 10 40  1  0
 11 41  1  0
 11 42  1  0
 14 43  1  0
 15 44  1  0
 22 45  1  0
 22 46  1  0
 23 47  1  0
 23 48  1  0
 25 49  1  0
 25 50  1  0
 26 51  1  0
 26 52  1  0
 27 53  1  0
 28 54  1  0
 28 55  1  0
 29 56  1  0
 29 57  1  0
 30 58  1  0
M  CHG  2  17   1  19  -1
M  END
>  <UniqueID>  (32) 
30

>  <SMILES>  (32) 
COc1cccc(CN2CCN(c3ccc([N+](=O)[O-])c(N4CCOCC4)c3)CC2)c1

>  <Energy>  (32) 
85.2253202757652

>  <Genealogy>  (32) 
COc1cccc(CN2CCN(c3ccc([N+](=O)[O-])c(N4CCOCC4)c3)CC2)c1 (3D coordinates assigned)
COc1cccc(CN2CCN(c3ccc([N+](=O)[O-])c(N4CCOCC4)c3)CC2)c1 (nonaromatic ring conformer: 85.2253202757652 kcal/mol)

>  <smiles>  (32) 
COc1cccc(CN2CCN(c3ccc([N+](=O)[O-])c(N4CCOCC4)c3)CC2)c1

>  <score_type>  (32) 
oracle

>  <origin>  (32) 
adg

>  <m_score__min__energy>  (32) 
-9.0199999999999996

>  <m_primary>  (32) 
energy

$$$$
32:0
     RDKit          3D

 32 33  0  0  0  0  0  0  0  0999 V2000
   59.2800   34.8660   45.8670 C   0  0  0  0  0  0  0  0  0  0  0  0
   58.6310   33.5530   45.5450 C   0  0  0  0  0  0  0  0  0  0  0  0
   58.7480   32.4700   46.4310 C   0  0  0  0  0  0  0  0  0  0  0  0
   58.1770   31.2350   46.1120 C   0  0  0  0  0  0  0  0  0  0  0  0
   57.4940   31.0650   44.9000 C   0  0  0  0  0  0  0  0  0  0  0  0
   56.7940   29.5040   44.4720 S   0  0  0  0  0  0  0  0  0  0  0  0
   56.7110   29.4090   42.9760 O   0  0  0  0  0  0  0  0  0  0  0  0
   55.4020   29.3890   45.0310 O   0  0  0  0  0  0  0  0  0  0  0  0
   57.7700   28.1920   45.0700 N   0  0  0  0  0  0  0  0  0  0  0  0
   57.1080   27.4850   46.1690 C   0  0  0  0  0  0  0  0  0  0  0  0
   56.4110   26.2520   45.6730 C   0  0  0  0  0  0  0  0  0  0  0  0
   57.0710   25.3430   44.8330 C   0  0  0  0  0  0  0  0  0  0  0  0
   56.3900   24.2030   44.4060 C   0  0  0  0  0  0  0  0  0  0  0  0
   56.9670   23.3710   43.6560 O   0  0  0  0  0  0  0  0  0  0  0  0
   55.0670   23.9970   44.8180 C   0  0  0  0  0  0  0  0  0  0  0  0
   54.3390   22.8750   44.4200 O   0  0  0  0  0  0  0  0  0  0  0  0
   54.4720   24.9500   45.6490 C   0  0  0  0  0  0  0  0  0  0  0  0
   55.1510   26.0240   46.0400 O   0  0  0  0  0  0  0  0  0  0  0  0
   57.3940   32.1380   44.0060 C   0  0  0  0  0  0  0  0  0  0  0  0
   57.9630   33.3740   44.3230 C   0  0  0  0  0  0  0  0  0  0  0  0
   59.3400   34.9874   46.9586 H   0  0  0  0  0  0  0  0  0  0  0  0
   60.2932   34.8889   45.4393 H   0  0  0  0  0  0  0  0  0  0  0  0
   58.6829   35.6848   45.4393 H   0  0  0  0  0  0  0  0  0  0  0  0
   59.2910   32.5941   47.3795 H   0  0  0  0  0  0  0  0  0  0  0  0
   58.2639   30.3932   46.8147 H   0  0  0  0  0  0  0  0  0  0  0  0
   57.8615   27.1961   46.9165 H   0  0  0  0  0  0  0  0  0  0  0  0
   56.3589   28.1551   46.6159 H   0  0  0  0  0  0  0  0  0  0  0  0
   58.1084   25.5261   44.5163 H   0  0  0  0  0  0  0  0  0  0  0  0
   54.6980   22.2160   43.7410 H   0  0  0  0  0  0  0  0  0  0  0  0
   53.4331   24.8103   45.9824 H   0  0  0  0  0  0  0  0  0  0  0  0
   56.8653   32.0073   43.0503 H   0  0  0  0  0  0  0  0  0  0  0  0
   57.8874   34.2103   43.6124 H   0  0  0  0  0  0  0  0  0  0  0  0
  1  2  1  0
  2  3  2  0
  3  4  1  0
  4  5  2  0
  5  6  1  0
  6  7  2  0
  6  8  2  0
  6  9  1  0
  9 10  1  0
 10 11  1  0
 11 12  2  0
 12 13  1  0
 13 14  2  0
 13 15  1  0
 15 16  1  0
 15 17  2  0
 17 18  1  0
  5 19  1  0
 19 20  2  0
 20  2  1  0
 18 11  1  0
  1 21  1  0
  1 22  1  0
  1 23  1  0
  3 24  1  0
  4 25  1  0
 10 26  1  0
 10 27  1  0
 12 28  1  0
 16 29  1  0
 17 30  1  0
 19 31  1  0
 20 32  1  0
M  CHG  1   9  -1
M  END
>  <UniqueID>  (33) 
31

>  <SMILES>  (33) 
Cc1ccc(S(=O)(=O)[N-]Cc2cc(=O)c(O)co2)cc1

>  <Energy>  (33) 
31.617722992862

>  <Genealogy>  (33) 
Cc1ccc(S(=O)(=O)[N-]Cc2cc(=O)c(O)co2)cc1 (protonated)
Cc1ccc(S(=O)(=O)[N-]Cc2cc(=O)c(O)co2)cc1 (3D coordinates assigned)
Cc1ccc(S(=O)(=O)[N-]Cc2cc(=O)c(O)co2)cc1 (optimized conformer: 31.617722992862 kcal/mol)

>  <smiles>  (33) 
Cc1ccc(S(=O)(=O)NCc2cc(=O)c(O)co2)cc1

>  <score_type>  (33) 
oracle

>  <origin>  (33) 
adg

>  <m_score__min__energy>  (33) 
-9.1300000000000008

>  <m_primary>  (33) 
energy

$$$$
33:0
     RDKit          3D

 44 46  0  0  0  0  0  0  0  0999 V2000
   63.2340   33.8700   46.6380 C   0  0  0  0  0  0  0  0  0  0  0  0
   64.0690   33.1260   47.6730 C   0  0  0  0  0  0  0  0  0  0  0  0
   63.3850   33.3290   49.3110 S   0  0  0  0  0  0  0  0  0  0  0  0
   64.4170   32.9800   50.3470 O   0  0  0  0  0  0  0  0  0  0  0  0
   62.9850   34.7660   49.4930 O   0  0  0  0  0  0  0  0  0  0  0  0
   61.9840   32.3260   49.5160 N   0  0  0  0  0  0  0  0  0  0  0  0
   61.0180   32.1000   48.4770 C   0  0  0  0  0  0  0  0  0  0  0  0
   59.8690   32.9010   48.3520 C   0  0  0  0  0  0  0  0  0  0  0  0
   58.9290   32.6430   47.3500 C   0  0  0  0  0  0  0  0  0  0  0  0
   59.1240   31.5770   46.4560 C   0  0  0  0  0  0  0  0  0  0  0  0
   58.1830   31.2440   45.4680 C   0  0  0  0  0  0  0  0  0  0  0  0
   57.1330   31.9350   45.3420 O   0  0  0  0  0  0  0  0  0  0  0  0
   58.3900   30.1490   44.6650 N   0  0  0  0  0  0  0  0  0  0  0  0
   57.3530   29.6810   43.7310 C   0  0  0  0  0  0  0  0  0  0  0  0
   56.0630   29.3980   44.4550 C   0  0  0  0  0  0  0  0  0  0  0  0
   55.1390   30.2530   44.4420 O   0  0  0  0  0  0  0  0  0  0  0  0
   55.9130   28.2150   45.2480 N   0  0  0  0  0  0  0  0  0  0  0  0
   57.0050   27.4150   45.7170 C   0  0  0  0  0  0  0  0  0  0  0  0
   57.7490   27.7810   46.8540 C   0  0  0  0  0  0  0  0  0  0  0  0
   58.7690   26.9480   47.3250 C   0  0  0  0  0  0  0  0  0  0  0  0
   59.0640   25.7570   46.6560 C   0  0  0  0  0  0  0  0  0  0  0  0
   58.3510   25.4050   45.5070 C   0  0  0  0  0  0  0  0  0  0  0  0
   57.3300   26.2350   45.0340 C   0  0  0  0  0  0  0  0  0  0  0  0
   59.5400   29.4200   44.7870 C   0  0  0  0  0  0  0  0  0  0  0  0
   60.4650   29.7370   45.7270 N   0  0  0  0  0  0  0  0  0  0  0  0
   60.2820   30.7850   46.5680 C   0  0  0  0  0  0  0  0  0  0  0  0
   61.2260   31.0560   47.5630 C   0  0  0  0  0  0  0  0  0  0  0  0
   62.5072   34.5176   47.1501 H   0  0  0  0  0  0  0  0  0  0  0  0
   63.8935   34.4853   46.0084 H   0  0  0  0  0  0  0  0  0  0  0  0
   62.6985   33.1441   46.0084 H   0  0  0  0  0  0  0  0  0  0  0  0
   64.0858   32.0556   47.4200 H   0  0  0  0  0  0  0  0  0  0  0  0
   65.0884   33.5393   47.6645 H   0  0  0  0  0  0  0  0  0  0  0  0
   61.7500   32.0350   50.4930 H   0  0  0  0  0  0  0  0  0  0  0  0
   59.7086   33.7373   49.0483 H   0  0  0  0  0  0  0  0  0  0  0  0
   58.0341   33.2765   47.2613 H   0  0  0  0  0  0  0  0  0  0  0  0
   57.1765   30.4567   42.9713 H   0  0  0  0  0  0  0  0  0  0  0  0
   57.7010   28.7508   43.2581 H   0  0  0  0  0  0  0  0  0  0  0  0
   57.5277   28.7249   47.3738 H   0  0  0  0  0  0  0  0  0  0  0  0
   59.3392   27.2304   48.2223 H   0  0  0  0  0  0  0  0  0  0  0  0
   59.8580   25.0963   47.0342 H   0  0  0  0  0  0  0  0  0  0  0  0
   58.5932   24.4738   44.9739 H   0  0  0  0  0  0  0  0  0  0  0  0
   56.7795   25.9607   44.1220 H   0  0  0  0  0  0  0  0  0  0  0  0
   59.7171   28.5670   44.1155 H   0  0  0  0  0  0  0  0  0  0  0  0
   62.1389   30.4460   47.6298 H   0  0  0  0  0  0  0  0  0  0  0  0
  1  2  1  0
  2  3  1  0
  3  4  2  0
  3  5  2  0
  3  6  1  0
  6  7  1  0
  7  8  2  0
  8  9  1  0
  9 10  2  0
 10 11  1  0
 11 12  2  0
 11 13  1  0
 13 14  1  0
 14 15  1  0
 15 16  2  0
 15 17  1  0
 17 18  1  0
 18 19  2  0
 19 20  1  0
 20 21  2  0
 21 22  1  0
 22 23  2  0
 13 24  1  0
 24 25  2  0
 25 26  1  0
 26 27  2  0
 27  7  1  0
 26 10  1  0
 23 18  1  0
  1 28  1  0
  1 29  1  0
  1 30  1  0
  2 31  1  0
  2 32  1  0
  6 33  1  0
  8 34  1  0
  9 35  1  0
 14 36  1  0
 14 37  1  0
 19 38  1  0
 20 39  1  0
 21 40  1  0
 22 41  1  0
 23 42  1  0
 24 43  1  0
 27 44  1  0
M  CHG  1  17  -1
M  END
>  <UniqueID>  (34) 
32

>  <SMILES>  (34) 
CCS(=O)(=O)Nc1ccc2c(=O)n(CC(=O)[N-]c3ccccc3)cnc2c1

>  <Energy>  (34) 
52.76962361802653

>  <Genealogy>  (34) 
CCS(=O)(=O)Nc1ccc2c(=O)n(CC(=O)[N-]c3ccccc3)cnc2c1 (protonated)
CCS(=O)(=O)Nc1ccc2c(=O)n(CC(=O)[N-]c3ccccc3)cnc2c1 (3D coordinates assigned)
CCS(=O)(=O)Nc1ccc2c(=O)n(CC(=O)[N-]c3ccccc3)cnc2c1 (optimized conformer: 52.76962361802653 kcal/mol)

>  <smiles>  (34) 
CCS(=O)(=O)Nc1ccc2c(=O)n(CC(=O)Nc3ccccc3)cnc2c1

>  <score_type>  (34) 
oracle

>  <origin>  (34) 
adg

>  <m_score__min__energy>  (34) 
-9.8499999999999996

>  <m_primary>  (34) 
energy

$$$$
34:0
     RDKit          3D

 41 43  0  0  0  0  0  0  0  0999 V2000
   56.5932   34.2833   45.1736 H   0  0  0  0  0  0  0  0  0  0  0  0
   57.5400   34.1520   45.7180 C   0  0  0  0  0  0  0  0  0  0  0  0
   57.5390   33.5980   46.9600 N   0  0  0  0  0  0  0  0  0  0  0  0
   58.6880   33.4220   47.6660 C   0  0  0  0  0  0  0  0  0  0  0  0
   58.6509   32.9729   48.6695 H   0  0  0  0  0  0  0  0  0  0  0  0
   59.9180   33.8100   47.1210 C   0  0  0  0  0  0  0  0  0  0  0  0
   61.1100   33.6080   47.8920 N   0  0  0  0  0  0  0  0  0  0  0  0
   62.0500   32.1510   47.9120 S   0  0  0  0  0  0  0  0  0  0  0  0
   62.7470   32.0350   49.2360 O   0  0  0  0  0  0  0  0  0  0  0  0
   63.0830   32.2150   46.8210 O   0  0  0  0  0  0  0  0  0  0  0  0
   60.9970   30.7560   47.6980 C   0  0  0  0  0  0  0  0  0  0  0  0
   60.1090   30.3930   48.7180 C   0  0  0  0  0  0  0  0  0  0  0  0
   60.0743   30.9777   49.6491 H   0  0  0  0  0  0  0  0  0  0  0  0
   59.2670   29.2900   48.5560 C   0  0  0  0  0  0  0  0  0  0  0  0
   58.5730   29.0114   49.3627 H   0  0  0  0  0  0  0  0  0  0  0  0
   59.2980   28.5360   47.3770 C   0  0  0  0  0  0  0  0  0  0  0  0
   58.4300   27.4380   47.2690 O   0  0  0  0  0  0  0  0  0  0  0  0
   57.9560   26.8750   46.0450 C   0  0  0  0  0  0  0  0  0  0  0  0
   58.1751   25.7971   46.0363 H   0  0  0  0  0  0  0  0  0  0  0  0
   58.4630   27.3782   45.2085 H   0  0  0  0  0  0  0  0  0  0  0  0
   56.4700   27.0770   45.8970 C   0  0  0  0  0  0  0  0  0  0  0  0
   55.6980   26.2170   46.3950 O   0  0  0  0  0  0  0  0  0  0  0  0
   55.8880   28.2240   45.2510 N   0  0  0  0  0  0  0  0  0  0  0  0
   56.4800   29.2760   44.7630 C   0  0  0  0  0  0  0  0  0  0  0  0
   57.2760   30.0720   45.5340 N   0  0  0  0  0  0  0  0  0  0  0  0
   57.9080   31.1660   45.0300 C   0  0  0  0  0  0  0  0  0  0  0  0
   58.5377   31.7874   45.6836 H   0  0  0  0  0  0  0  0  0  0  0  0
   57.7570   31.5000   43.6820 C   0  0  0  0  0  0  0  0  0  0  0  0
   58.2645   32.3836   43.2677 H   0  0  0  0  0  0  0  0  0  0  0  0
   56.9550   30.7000   42.8670 C   0  0  0  0  0  0  0  0  0  0  0  0
   56.8265   30.9502   41.8036 H   0  0  0  0  0  0  0  0  0  0  0  0
   56.3160   29.5810   43.4050 C   0  0  0  0  0  0  0  0  0  0  0  0
   55.6876   28.9426   42.7666 H   0  0  0  0  0  0  0  0  0  0  0  0
   60.1880   28.9070   46.3510 C   0  0  0  0  0  0  0  0  0  0  0  0
   60.2170   28.3285   45.4159 H   0  0  0  0  0  0  0  0  0  0  0  0
   61.0350   30.0070   46.5150 C   0  0  0  0  0  0  0  0  0  0  0  0
   61.7337   30.2853   45.7123 H   0  0  0  0  0  0  0  0  0  0  0  0
   59.9360   34.3870   45.8400 C   0  0  0  0  0  0  0  0  0  0  0  0
   60.8891   34.7069   45.3935 H   0  0  0  0  0  0  0  0  0  0  0  0
   58.7420   34.5540   45.1340 C   0  0  0  0  0  0  0  0  0  0  0  0
   58.7493   34.9980   44.1276 H   0  0  0  0  0  0  0  0  0  0  0  0
  1  2  1  0
  2  3  2  0
  3  4  1  0
  4  5  1  0
  4  6  2  0
  6  7  1  0
  7  8  1  0
  8  9  2  0
  8 10  2  0
  8 11  1  0
 11 12  2  0
 12 13  1  0
 12 14  1  0
 14 15  1  0
 14 16  2  0
 16 17  1  0
 17 18  1  0
 18 19  1  0
 18 20  1  0
 18 21  1  0
 21 22  2  0
 21 23  1  0
 23 24  2  0
 24 25  1  0
 25 26  1  0
 26 27  1  0
 26 28  2  0
 28 29  1  0
 28 30  1  0
 30 31  1  0
 30 32  2  0
 32 33  1  0
 16 34  1  0
 34 35  1  0
 34 36  2  0
 36 37  1  0
  6 38  1  0
 38 39  1  0
 38 40  2  0
 40 41  1  0
 40  2  1  0
 36 11  1  0
 32 24  1  0
M  CHG  2   7  -1  25  -1
M  END
>  <UniqueID>  (35) 
33

>  <SMILES>  (35) 
O=C(COc1ccc(S(=O)(=O)[N-]c2cccnc2)cc1)/N=c1/cccc[n-]1

>  <Energy>  (35) 
52.41634811797909

>  <Genealogy>  (35) 
O=C(COc1ccc(S(=O)(=O)[N-]c2cccnc2)cc1)N=c1cccc[n-]1 (protonated)
O=C(COc1ccc(S(=O)(=O)[N-]c2cccnc2)cc1)/N=c1/cccc[n-]1 (cis-trans isomerization)
O=C(COc1ccc(S(=O)(=O)[N-]c2cccnc2)cc1)/N=c1/cccc[n-]1 (3D coordinates assigned)
O=C(COc1ccc(S(=O)(=O)[N-]c2cccnc2)cc1)/N=c1/cccc[n-]1 (optimized conformer: 52.41634811797909 kcal/mol)

>  <smiles>  (35) 
O=C(COc1ccc(S(=O)(=O)Nc2cccnc2)cc1)N=c1cccc[nH]1

>  <score_type>  (35) 
oracle

>  <origin>  (35) 
adg

>  <m_score__min__energy>  (35) 
-10.75

>  <m_primary>  (35) 
energy

$$$$
35:0
     RDKit          3D

 33 34  0  0  0  0  0  0  0  0999 V2000
   55.9980   24.4360   45.9950 C   0  0  0  0  0  0  0  0  0  0  0  0
   56.1810   25.9240   46.0380 C   0  0  0  0  0  0  0  0  0  0  0  0
   55.1530   26.6540   46.0040 O   0  0  0  0  0  0  0  0  0  0  0  0
   57.5280   26.5510   46.1190 C   0  0  0  0  0  0  0  0  0  0  0  0
   58.6520   25.7640   46.4320 C   0  0  0  0  0  0  0  0  0  0  0  0
   59.9200   26.3400   46.5210 C   0  0  0  0  0  0  0  0  0  0  0  0
   60.0900   27.7060   46.2890 C   0  0  0  0  0  0  0  0  0  0  0  0
   58.9880   28.5090   45.9520 C   0  0  0  0  0  0  0  0  0  0  0  0
   59.1320   29.9220   45.7300 N   0  0  0  0  0  0  0  0  0  0  0  0
   59.8500   30.8050   46.6060 C   0  0  0  0  0  0  0  0  0  0  0  0
   60.5520   30.3460   47.5470 O   0  0  0  0  0  0  0  0  0  0  0  0
   59.8300   32.2810   46.3570 C   0  0  0  0  0  0  0  0  0  0  0  0
   58.1230   32.9240   46.4260 S   0  0  0  0  0  0  0  0  0  0  0  0
   57.5530   31.9850   45.0110 C   0  0  0  0  0  0  0  0  0  0  0  0
   56.6500   30.9820   45.1800 N   0  0  0  0  0  0  0  0  0  0  0  0
   56.2040   30.2610   44.1190 C   0  0  0  0  0  0  0  0  0  0  0  0
   55.3660   29.3380   44.2970 O   0  0  0  0  0  0  0  0  0  0  0  0
   56.6750   30.5450   42.8370 C   0  0  0  0  0  0  0  0  0  0  0  0
   57.6050   31.5740   42.6840 C   0  0  0  0  0  0  0  0  0  0  0  0
   58.0260   32.2720   43.7700 N   0  0  0  0  0  0  0  0  0  0  0  0
   57.7110   27.9290   45.8870 C   0  0  0  0  0  0  0  0  0  0  0  0
   55.9496   24.0427   47.0212 H   0  0  0  0  0  0  0  0  0  0  0  0
   55.0636   24.1966   45.4662 H   0  0  0  0  0  0  0  0  0  0  0  0
   56.8465   23.9773   45.4662 H   0  0  0  0  0  0  0  0  0  0  0  0
   58.5299   24.6851   46.6081 H   0  0  0  0  0  0  0  0  0  0  0  0
   60.7889   25.7152   46.7750 H   0  0  0  0  0  0  0  0  0  0  0  0
   61.0908   28.1552   46.3704 H   0  0  0  0  0  0  0  0  0  0  0  0
   58.7780   30.3150   44.8280 H   0  0  0  0  0  0  0  0  0  0  0  0
   60.4369   32.7848   47.1237 H   0  0  0  0  0  0  0  0  0  0  0  0
   60.2412   32.4763   45.3556 H   0  0  0  0  0  0  0  0  0  0  0  0
   56.3217   29.9714   41.9674 H   0  0  0  0  0  0  0  0  0  0  0  0
   57.9963   31.8192   41.6856 H   0  0  0  0  0  0  0  0  0  0  0  0
   56.8408   28.5593   45.6516 H   0  0  0  0  0  0  0  0  0  0  0  0
  1  2  1  0
  2  3  2  0
  2  4  1  0
  4  5  2  0
  5  6  1  0
  6  7  2  0
  7  8  1  0
  8  9  1  0
  9 10  1  0
 10 11  2  0
 10 12  1  0
 12 13  1  0
 13 14  1  0
 14 15  2  0
 15 16  1  0
 16 17  2  0
 16 18  1  0
 18 19  2  0
 19 20  1  0
  8 21  2  0
 21  4  1  0
 20 14  1  0
  1 22  1  0
  1 23  1  0
  1 24  1  0
  5 25  1  0
  6 26  1  0
  7 27  1  0
  9 28  1  0
 12 29  1  0
 12 30  1  0
 18 31  1  0
 19 32  1  0
 21 33  1  0
M  CHG  1  20  -1
M  END
>  <UniqueID>  (36) 
34

>  <SMILES>  (36) 
CC(=O)c1cccc(NC(=O)CSc2nc(=O)cc[n-]2)c1

>  <Energy>  (36) 
33.34371413949139

>  <Genealogy>  (36) 
CC(=O)c1cccc(NC(=O)CSc2nc(=O)cc[n-]2)c1 (protonated)
CC(=O)c1cccc(NC(=O)CSc2nc(=O)cc[n-]2)c1 (3D coordinates assigned)
CC(=O)c1cccc(NC(=O)CSc2nc(=O)cc[n-]2)c1 (optimized conformer: 33.34371413949139 kcal/mol)

>  <smiles>  (36) 
CC(=O)c1cccc(NC(=O)CSc2nc(=O)cc[nH]2)c1

>  <score_type>  (36) 
oracle

>  <origin>  (36) 
adg

>  <m_score__min__energy>  (36) 
-8.9100000000000001

>  <m_primary>  (36) 
energy

$$$$
36:0
     RDKit          3D

 27 28  0  0  0  0  0  0  0  0999 V2000
   56.1740   23.9180   46.5760 C   0  0  0  0  0  0  0  0  0  0  0  0
   57.0510   24.9570   46.9970 O   0  0  0  0  0  0  0  0  0  0  0  0
   57.1730   26.2350   46.4170 C   0  0  0  0  0  0  0  0  0  0  0  0
   56.0680   26.9800   45.9340 C   0  0  0  0  0  0  0  0  0  0  0  0
   54.7690   26.4930   46.0170 O   0  0  0  0  0  0  0  0  0  0  0  0
   56.2710   28.2390   45.3550 C   0  0  0  0  0  0  0  0  0  0  0  0
   55.1860   28.9720   44.8870 O   0  0  0  0  0  0  0  0  0  0  0  0
   57.5560   28.7650   45.2440 C   0  0  0  0  0  0  0  0  0  0  0  0
   58.6600   28.0380   45.7040 C   0  0  0  0  0  0  0  0  0  0  0  0
   58.4690   26.7880   46.3170 C   0  0  0  0  0  0  0  0  0  0  0  0
   59.6650   26.0010   46.7830 C   0  0  0  0  0  0  0  0  0  0  0  0
   60.9200   26.8810   46.9090 C   0  0  2  0  0  0  0  0  0  0  0  0
   60.9610   27.6700   48.2310 C   0  0  0  0  0  0  0  0  0  0  0  0
   61.0840   27.7040   45.7640 O   0  0  0  0  0  0  0  0  0  0  0  0
   60.0380   28.6510   45.6230 C   0  0  0  0  0  0  0  0  0  0  0  0
   55.7502   23.4159   47.4582 H   0  0  0  0  0  0  0  0  0  0  0  0
   55.3607   24.3469   45.9722 H   0  0  0  0  0  0  0  0  0  0  0  0
   56.7333   23.1882   45.9722 H   0  0  0  0  0  0  0  0  0  0  0  0
   57.7039   29.7571   44.7924 H   0  0  0  0  0  0  0  0  0  0  0  0
   59.4397   25.5609   47.7656 H   0  0  0  0  0  0  0  0  0  0  0  0
   59.8707   25.2207   46.0354 H   0  0  0  0  0  0  0  0  0  0  0  0
   61.7904   26.2095   46.9479 H   0  0  0  0  0  0  0  0  0  0  0  0
   60.9246   26.9688   49.0778 H   0  0  0  0  0  0  0  0  0  0  0  0
   61.8908   28.2558   48.2797 H   0  0  0  0  0  0  0  0  0  0  0  0
   60.0969   28.3490   48.2797 H   0  0  0  0  0  0  0  0  0  0  0  0
   60.1346   29.3992   46.4236 H   0  0  0  0  0  0  0  0  0  0  0  0
   60.1367   29.0979   44.6227 H   0  0  0  0  0  0  0  0  0  0  0  0
  1  2  1  0
  2  3  1  0
  3  4  2  0
  4  5  1  0
  4  6  1  0
  6  7  1  0
  6  8  2  0
  8  9  1  0
  9 10  2  0
 10 11  1  0
 11 12  1  0
 12 13  1  0
 12 14  1  0
 14 15  1  0
 10  3  1  0
 15  9  1  0
  1 16  1  0
  1 17  1  0
  1 18  1  0
  8 19  1  0
 11 20  1  0
 11 21  1  0
 12 22  1  1
 13 23  1  0
 13 24  1  0
 13 25  1  0
 15 26  1  0
 15 27  1  0
M  CHG  2   5  -1   7  -1
M  END
>  <UniqueID>  (37) 
35

>  <SMILES>  (37) 
COc1c([O-])c([O-])cc2c1C[C@H](C)OC2

>  <Energy>  (37) 
35.95756593716973

>  <Genealogy>  (37) 
COc1c([O-])c([O-])cc2c1CC(C)OC2 (protonated)
COc1c([O-])c([O-])cc2c1C[C@H](C)OC2 (chirality)
COc1c([O-])c([O-])cc2c1C[C@H](C)OC2 (3D coordinates assigned)
COc1c([O-])c([O-])cc2c1C[C@H](C)OC2 (nonaromatic ring conformer: 35.95756593716973 kcal/mol)

>  <smiles>  (37) 
COc1c(O)c(O)cc2c1CC(C)OC2

>  <score_type>  (37) 
oracle

>  <origin>  (37) 
adg

>  <m_score__min__energy>  (37) 
-13.82

>  <m_primary>  (37) 
energy

$$$$
37:0
     RDKit          3D

 46 48  0  0  0  0  0  0  0  0999 V2000
   60.3670   29.0660   47.6660 C   0  0  0  0  0  0  0  0  0  0  0  0
   59.9220   30.5170   47.8870 C   0  0  0  0  0  0  0  0  0  0  0  0
   59.1430   30.6300   49.2040 C   0  0  0  0  0  0  0  0  0  0  0  0
   61.1440   31.4160   47.9600 C   0  0  0  0  0  0  0  0  0  0  0  0
   61.1590   32.6310   47.3990 C   0  0  0  0  0  0  0  0  0  0  0  0
   60.0270   33.0920   46.5790 C   0  0  0  0  0  0  0  0  0  0  0  0
   59.9870   34.3920   46.0600 C   0  0  0  0  0  0  0  0  0  0  0  0
   58.9130   34.7890   45.2590 C   0  0  0  0  0  0  0  0  0  0  0  0
   57.8850   33.8870   44.9590 C   0  0  0  0  0  0  0  0  0  0  0  0
   57.9250   32.5720   45.4660 C   0  0  0  0  0  0  0  0  0  0  0  0
   56.9310   31.6210   45.1780 O   0  0  0  0  0  0  0  0  0  0  0  0
   56.7250   30.9970   43.9110 C   0  0  0  0  0  0  0  0  0  0  0  0
   55.8920   29.7580   44.0420 C   0  0  0  0  0  0  0  0  0  0  0  0
   55.0670   29.4700   43.1310 O   0  0  0  0  0  0  0  0  0  0  0  0
   55.9660   28.9710   45.2410 N   0  0  0  0  0  0  0  0  0  0  0  0
   56.9090   27.9250   45.5180 C   0  0  0  0  0  0  0  0  0  0  0  0
   58.2330   28.0840   45.0820 C   0  0  0  0  0  0  0  0  0  0  0  0
   59.1760   27.0780   45.3100 C   0  0  0  0  0  0  0  0  0  0  0  0
   58.8000   25.8970   45.9570 C   0  0  0  0  0  0  0  0  0  0  0  0
   57.4730   25.7090   46.3670 C   0  0  0  0  0  0  0  0  0  0  0  0
   56.9950   24.2090   47.1600 S   0  0  0  0  0  0  0  0  0  0  0  0
   57.7630   22.8740   46.3730 N   0  0  0  0  0  0  0  0  0  0  0  0
   57.3990   24.2420   48.6100 O   0  0  0  0  0  0  0  0  0  0  0  0
   55.5000   24.0480   47.0820 O   0  0  0  0  0  0  0  0  0  0  0  0
   56.5280   26.7230   46.1480 C   0  0  0  0  0  0  0  0  0  0  0  0
   58.9950   32.1890   46.2870 C   0  0  0  0  0  0  0  0  0  0  0  0
   59.0530   30.8900   46.8080 O   0  0  0  0  0  0  0  0  0  0  0  0
   60.5172   28.5762   48.6394 H   0  0  0  0  0  0  0  0  0  0  0  0
   59.5928   28.5272   47.1000 H   0  0  0  0  0  0  0  0  0  0  0  0
   61.3102   29.0539   47.1000 H   0  0  0  0  0  0  0  0  0  0  0  0
   59.8378   30.5292   50.0508 H   0  0  0  0  0  0  0  0  0  0  0  0
   58.6453   31.6097   49.2527 H   0  0  0  0  0  0  0  0  0  0  0  0
   58.3874   29.8321   49.2527 H   0  0  0  0  0  0  0  0  0  0  0  0
   62.0405   31.0590   48.4880 H   0  0  0  0  0  0  0  0  0  0  0  0
   62.0254   33.2912   47.5522 H   0  0  0  0  0  0  0  0  0  0  0  0
   60.7995   35.0994   46.2824 H   0  0  0  0  0  0  0  0  0  0  0  0
   58.8750   35.8144   44.8625 H   0  0  0  0  0  0  0  0  0  0  0  0
   57.0437   34.2052   44.3259 H   0  0  0  0  0  0  0  0  0  0  0  0
   56.2122   31.7043   43.2426 H   0  0  0  0  0  0  0  0  0  0  0  0
   57.7054   30.7138   43.5005 H   0  0  0  0  0  0  0  0  0  0  0  0
   58.5302   29.0046   44.5584 H   0  0  0  0  0  0  0  0  0  0  0  0
   60.2162   27.2157   44.9797 H   0  0  0  0  0  0  0  0  0  0  0  0
   59.5481   25.1128   46.1449 H   0  0  0  0  0  0  0  0  0  0  0  0
   58.5630   23.2610   45.8220 H   0  0  0  0  0  0  0  0  0  0  0  0
   58.1730   22.2770   47.1260 H   0  0  0  0  0  0  0  0  0  0  0  0
   55.4858   26.5793   46.4692 H   0  0  0  0  0  0  0  0  0  0  0  0
  1  2  1  0
  2  3  1  0
  2  4  1  0
  4  5  2  0
  5  6  1  0
  6  7  2  0
  7  8  1  0
  8  9  2  0
  9 10  1  0
 10 11  1  0
 11 12  1  0
 12 13  1  0
 13 14  2  0
 13 15  1  0
 15 16  1  0
 16 17  2  0
 17 18  1  0
 18 19  2  0
 19 20  1  0
 20 21  1  0
 21 22  1  0
 21 23  2  0
 21 24  2  0
 20 25  2  0
 10 26  2  0
 26 27  1  0
 27  2  1  0
 26  6  1  0
 25 16  1  0
  1 28  1  0
  1 29  1  0
  1 30  1  0
  3 31  1  0
  3 32  1  0
  3 33  1  0
  4 34  1  0
  5 35  1  0
  7 36  1  0
  8 37  1  0
  9 38  1  0
 12 39  1  0
 12 40  1  0
 17 41  1  0
 18 42  1  0
 19 43  1  0
 22 44  1  0
 22 45  1  0
 25 46  1  0
M  CHG  1  15  -1
M  END
>  <UniqueID>  (38) 
36

>  <SMILES>  (38) 
CC1(C)C=Cc2cccc(OCC(=O)[N-]c3cccc(S(N)(=O)=O)c3)c2O1

>  <Energy>  (38) 
47.26054548539403

>  <Genealogy>  (38) 
CC1(C)C=Cc2cccc(OCC(=O)[N-]c3cccc(S(N)(=O)=O)c3)c2O1 (protonated)
CC1(C)C=Cc2cccc(OCC(=O)[N-]c3cccc(S(N)(=O)=O)c3)c2O1 (3D coordinates assigned)
CC1(C)C=Cc2cccc(OCC(=O)[N-]c3cccc(S(N)(=O)=O)c3)c2O1 (nonaromatic ring conformer: 47.26054548539403 kcal/mol)

>  <smiles>  (38) 
CC1(C)C=Cc2cccc(OCC(=O)Nc3cccc(S(N)(=O)=O)c3)c2O1

>  <score_type>  (38) 
oracle

>  <origin>  (38) 
adg

>  <m_score__min__energy>  (38) 
-11.23

>  <m_primary>  (38) 
energy

$$$$
38:0
     RDKit          3D

 67 70  0  0  0  0  0  0  0  0999 V2000
   57.4020   32.5470   40.8020 C   0  0  0  0  0  0  0  0  0  0  0  0
   57.7440   31.5980   41.8060 O   0  0  0  0  0  0  0  0  0  0  0  0
   57.8990   31.8990   43.1690 C   0  0  0  0  0  0  0  0  0  0  0  0
   58.4050   33.1430   43.6000 C   0  0  0  0  0  0  0  0  0  0  0  0
   58.5140   33.4290   44.9620 C   0  0  0  0  0  0  0  0  0  0  0  0
   58.1220   32.4850   45.9110 C   0  0  0  0  0  0  0  0  0  0  0  0
   57.6270   31.2470   45.4980 C   0  0  0  0  0  0  0  0  0  0  0  0
   57.5300   30.9370   44.1330 C   0  0  0  0  0  0  0  0  0  0  0  0
   56.8950   29.3520   43.6620 S   0  0  0  0  0  0  0  0  0  0  0  0
   55.9720   28.8800   44.7530 O   0  0  0  0  0  0  0  0  0  0  0  0
   56.1250   29.4590   42.3740 O   0  0  0  0  0  0  0  0  0  0  0  0
   58.2220   28.2270   43.4590 N   0  0  0  0  0  0  0  0  0  0  0  0
   57.7680   27.0520   42.6930 C   0  0  0  0  0  0  0  0  0  0  0  0
   58.8860   27.9000   44.7500 C   0  0  1  0  0  0  0  0  0  0  0  0
   59.6930   29.0690   45.3680 C   0  0  0  0  0  0  0  0  0  0  0  0
   60.4600   28.6180   46.6270 C   0  0  0  0  0  0  0  0  0  0  0  0
   59.7200   27.5450   47.4580 C   0  0  1  0  0  0  0  0  0  0  0  0
   60.0160   27.7460   48.8440 O   0  0  0  0  0  0  0  0  0  0  0  0
   60.1150   28.9920   49.4860 C   0  0  0  0  0  0  0  0  0  0  0  0
   58.9980   29.6650   50.0060 C   0  0  0  0  0  0  0  0  0  0  0  0
   59.1610   30.9250   50.5950 C   0  0  0  0  0  0  0  0  0  0  0  0
   57.9830   31.6380   51.2020 C   0  0  0  0  0  0  0  0  0  0  0  0
   56.9400   30.6440   51.6210 C   0  0  0  0  0  0  0  0  0  0  0  0
   55.5550   30.9870   51.5840 N   0  0  0  0  0  0  0  0  0  0  0  0
   57.2930   29.5080   52.0390 O   0  0  0  0  0  0  0  0  0  0  0  0
   60.4420   31.4890   50.6680 C   0  0  0  0  0  0  0  0  0  0  0  0
   61.5500   30.7790   50.1730 C   0  0  0  0  0  0  0  0  0  0  0  0
   62.9330   31.3280   50.2290 C   0  0  0  0  0  0  0  0  0  0  0  0
   63.3240   32.3280   49.3150 C   0  0  0  0  0  0  0  0  0  0  0  0
   64.6200   32.8510   49.3430 C   0  0  0  0  0  0  0  0  0  0  0  0
   65.5460   32.3850   50.2810 C   0  0  0  0  0  0  0  0  0  0  0  0
   67.1730   33.0430   50.3110 Cl  0  0  0  0  0  0  0  0  0  0  0  0
   65.1760   31.3890   51.1880 C   0  0  0  0  0  0  0  0  0  0  0  0
   63.8820   30.8580   51.1610 C   0  0  0  0  0  0  0  0  0  0  0  0
   61.3440   29.5610   49.6010 N   0  0  0  0  0  0  0  0  0  0  0  0
   58.2000   27.6130   47.2250 C   0  0  0  0  0  0  0  0  0  0  0  0
   57.8420   27.3440   45.7520 C   0  0  0  0  0  0  0  0  0  0  0  0
   57.0659   33.4798   41.2784 H   0  0  0  0  0  0  0  0  0  0  0  0
   58.2829   32.7519   40.1758 H   0  0  0  0  0  0  0  0  0  0  0  0
   56.5930   32.1429   40.1758 H   0  0  0  0  0  0  0  0  0  0  0  0
   58.7159   33.8930   42.8578 H   0  0  0  0  0  0  0  0  0  0  0  0
   58.9103   34.4020   45.2879 H   0  0  0  0  0  0  0  0  0  0  0  0
   58.2028   32.7158   46.9835 H   0  0  0  0  0  0  0  0  0  0  0  0
   57.3103   30.5082   46.2489 H   0  0  0  0  0  0  0  0  0  0  0  0
   57.4609   26.2571   43.3886 H   0  0  0  0  0  0  0  0  0  0  0  0
   56.9144   27.3348   42.0594 H   0  0  0  0  0  0  0  0  0  0  0  0
   58.5900   26.6874   42.0594 H   0  0  0  0  0  0  0  0  0  0  0  0
   59.6370   27.1278   44.5270 H   0  0  0  0  0  0  0  0  0  0  0  0
   58.9993   29.8776   45.6418 H   0  0  0  0  0  0  0  0  0  0  0  0
   60.4237   29.4176   44.6233 H   0  0  0  0  0  0  0  0  0  0  0  0
   60.6257   29.4980   47.2659 H   0  0  0  0  0  0  0  0  0  0  0  0
   61.4010   28.1639   46.2831 H   0  0  0  0  0  0  0  0  0  0  0  0
   60.0624   26.5488   47.1414 H   0  0  0  0  0  0  0  0  0  0  0  0
   58.0003   29.2051   49.9511 H   0  0  0  0  0  0  0  0  0  0  0  0
   58.3164   32.2084   52.0815 H   0  0  0  0  0  0  0  0  0  0  0  0
   57.5511   32.3208   50.4555 H   0  0  0  0  0  0  0  0  0  0  0  0
   54.8360   30.2940   51.8940 H   0  0  0  0  0  0  0  0  0  0  0  0
   55.2400   31.9250   51.2490 H   0  0  0  0  0  0  0  0  0  0  0  0
   60.5803   32.4859   51.1120 H   0  0  0  0  0  0  0  0  0  0  0  0
   62.6023   32.7001   48.5729 H   0  0  0  0  0  0  0  0  0  0  0  0
   64.9121   33.6314   48.6250 H   0  0  0  0  0  0  0  0  0  0  0  0
   65.9044   31.0211   51.9257 H   0  0  0  0  0  0  0  0  0  0  0  0
   63.6021   30.0672   51.8726 H   0  0  0  0  0  0  0  0  0  0  0  0
   57.8403   28.6147   47.5030 H   0  0  0  0  0  0  0  0  0  0  0  0
   57.7213   26.8393   47.8432 H   0  0  0  0  0  0  0  0  0  0  0  0
   56.8703   27.8134   45.5386 H   0  0  0  0  0  0  0  0  0  0  0  0
   57.8162   26.2523   45.6196 H   0  0  0  0  0  0  0  0  0  0  0  0
  1  2  1  0
  2  3  1  0
  3  4  2  0
  4  5  1  0
  5  6  2  0
  6  7  1  0
  7  8  2  0
  8  9  1  0
  9 10  2  0
  9 11  2  0
  9 12  1  0
 12 13  1  0
 12 14  1  0
 14 15  1  0
 15 16  1  0
 16 17  1  0
 17 18  1  0
 18 19  1  0
 19 20  2  0
 20 21  1  0
 21 22  1  0
 22 23  1  0
 23 24  1  0
 23 25  2  0
 21 26  2  0
 26 27  1  0
 27 28  1  0
 28 29  2  0
 29 30  1  0
 30 31  2  0
 31 32  1  0
 31 33  1  0
 33 34  2  0
 27 35  2  0
 17 36  1  0
 36 37  1  0
  8  3  1  0
 37 14  1  0
 35 19  1  0
 34 28  1  0
  1 38  1  0
  1 39  1  0
  1 40  1  0
  4 41  1  0
  5 42  1  0
  6 43  1  0
  7 44  1  0
 13 45  1  0
 13 46  1  0
 13 47  1  0
 14 48  1  6
 15 49  1  0
 15 50  1  0
 16 51  1  0
 16 52  1  0
 17 53  1  6
 20 54  1  0
 22 55  1  0
 22 56  1  0
 24 57  1  0
 24 58  1  0
 26 59  1  0
 29 60  1  0
 30 61  1  0
 33 62  1  0
 34 63  1  0
 36 64  1  0
 36 65  1  0
 37 66  1  0
 37 67  1  0
M  END
>  <UniqueID>  (39) 
37

>  <SMILES>  (39) 
COc1ccccc1S(=O)(=O)N(C)C1CCC(Oc2cc(CC(N)=O)cc(-c3ccc(Cl)cc3)n2)CC1

>  <Energy>  (39) 
80.86742624497737

>  <Genealogy>  (39) 
COc1ccccc1S(=O)(=O)N(C)C1CCC(Oc2cc(CC(N)=O)cc(-c3ccc(Cl)cc3)n2)CC1 (3D coordinates assigned)
COc1ccccc1S(=O)(=O)N(C)C1CCC(Oc2cc(CC(N)=O)cc(-c3ccc(Cl)cc3)n2)CC1 (nonaromatic ring conformer: 80.86742624497737 kcal/mol)

>  <smiles>  (39) 
COc1ccccc1S(=O)(=O)N(C)C1CCC(Oc2cc(CC(N)=O)cc(-c3ccc(Cl)cc3)n2)CC1

>  <score_type>  (39) 
oracle

>  <origin>  (39) 
adg

>  <m_score__min__energy>  (39) 
-10.93

>  <m_primary>  (39) 
energy

$$$$
39:0
     RDKit          3D

 41 44  0  0  0  0  0  0  0  0999 V2000
   57.4850   31.0360   44.5690 F   0  0  0  0  0  0  0  0  0  0  0  0
   57.9410   29.7590   44.5130 C   0  0  0  0  0  0  0  0  0  0  0  0
   57.3920   28.8900   43.5620 C   0  0  0  0  0  0  0  0  0  0  0  0
   57.8380   27.5700   43.4750 C   0  0  0  0  0  0  0  0  0  0  0  0
   58.8320   27.1100   44.3400 C   0  0  0  0  0  0  0  0  0  0  0  0
   59.3860   27.9710   45.2930 C   0  0  0  0  0  0  0  0  0  0  0  0
   58.9470   29.3040   45.3910 C   0  0  0  0  0  0  0  0  0  0  0  0
   59.5520   30.1960   46.4040 C   0  0  0  0  0  0  0  0  0  0  0  0
   60.8440   30.5960   46.3900 N   0  0  0  0  0  0  0  0  0  0  0  0
   60.9530   31.3810   47.4800 C   0  0  0  0  0  0  0  0  0  0  0  0
   62.2040   32.0660   47.8500 C   0  0  0  0  0  0  0  0  0  0  0  0
   62.8980   33.0190   47.1100 C   0  0  0  0  0  0  0  0  0  0  0  0
   64.0850   33.4390   47.7230 C   0  0  0  0  0  0  0  0  0  0  0  0
   64.3390   32.8150   48.9380 C   0  0  0  0  0  0  0  0  0  0  0  0
   63.0870   31.7370   49.2430 S   0  0  0  0  0  0  0  0  0  0  0  0
   59.7280   31.4050   48.1250 C   0  0  0  0  0  0  0  0  0  0  0  0
   59.3990   32.0940   49.3480 N   0  0  0  0  0  0  0  0  0  0  0  0
   59.2750   33.5490   49.1560 C   0  0  0  0  0  0  0  0  0  0  0  0
   58.9660   33.9030   47.7180 C   0  0  0  0  0  0  0  0  0  0  0  0
   57.7600   33.4820   47.1310 C   0  0  0  0  0  0  0  0  0  0  0  0
   57.4830   33.7860   45.7950 C   0  0  0  0  0  0  0  0  0  0  0  0
   58.4060   34.5110   45.0360 C   0  0  0  0  0  0  0  0  0  0  0  0
   59.6060   34.9340   45.6120 C   0  0  0  0  0  0  0  0  0  0  0  0
   59.8870   34.6340   46.9490 C   0  0  0  0  0  0  0  0  0  0  0  0
   58.8860   30.6840   47.4280 O   0  0  0  0  0  0  0  0  0  0  0  0
   56.6063   29.2489   42.8809 H   0  0  0  0  0  0  0  0  0  0  0  0
   57.4058   26.8921   42.7243 H   0  0  0  0  0  0  0  0  0  0  0  0
   59.1803   26.0688   44.2722 H   0  0  0  0  0  0  0  0  0  0  0  0
   60.1705   27.6032   45.9707 H   0  0  0  0  0  0  0  0  0  0  0  0
   62.5489   33.4038   46.1404 H   0  0  0  0  0  0  0  0  0  0  0  0
   64.7543   34.1931   47.2832 H   0  0  0  0  0  0  0  0  0  0  0  0
   65.2084   32.9953   49.5873 H   0  0  0  0  0  0  0  0  0  0  0  0
   58.4960   31.7250   49.7280 H   0  0  0  0  0  0  0  0  0  0  0  0
   60.1610   31.9110   50.0390 H   0  0  0  0  0  0  0  0  0  0  0  0
   58.4639   33.9246   49.7971 H   0  0  0  0  0  0  0  0  0  0  0  0
   60.2368   34.0116   49.4223 H   0  0  0  0  0  0  0  0  0  0  0  0
   57.0314   32.9111   47.7253 H   0  0  0  0  0  0  0  0  0  0  0  0
   56.5377   33.4543   45.3406 H   0  0  0  0  0  0  0  0  0  0  0  0
   58.1872   34.7486   43.9845 H   0  0  0  0  0  0  0  0  0  0  0  0
   60.3315   35.5041   45.0131 H   0  0  0  0  0  0  0  0  0  0  0  0
   60.8320   34.9714   47.3997 H   0  0  0  0  0  0  0  0  0  0  0  0
  1  2  1  0
  2  3  2  0
  3  4  1  0
  4  5  2  0
  5  6  1  0
  6  7  2  0
  7  8  1  0
  8  9  2  0
  9 10  1  0
 10 11  1  0
 11 12  2  0
 12 13  1  0
 13 14  2  0
 14 15  1  0
 10 16  2  0
 16 17  1  0
 17 18  1  0
 18 19  1  0
 19 20  2  0
 20 21  1  0
 21 22  2  0
 22 23  1  0
 23 24  2  0
 16 25  1  0
  7  2  1  0
 25  8  1  0
 15 11  1  0
 24 19  1  0
  3 26  1  0
  4 27  1  0
  5 28  1  0
  6 29  1  0
 12 30  1  0
 13 31  1  0
 14 32  1  0
 17 33  1  0
 17 34  1  0
 18 35  1  0
 18 36  1  0
 20 37  1  0
 21 38  1  0
 22 39  1  0
 23 40  1  0
 24 41  1  0
M  CHG  1  17   1
M  END
>  <UniqueID>  (40) 
38

>  <SMILES>  (40) 
Fc1ccccc1-c1nc(-c2cccs2)c([NH2+]Cc2ccccc2)o1

>  <Energy>  (40) 
105.48837270580586

>  <Genealogy>  (40) 
Fc1ccccc1-c1nc(-c2cccs2)c([NH2+]Cc2ccccc2)o1 (protonated)
Fc1ccccc1-c1nc(-c2cccs2)c([NH2+]Cc2ccccc2)o1 (3D coordinates assigned)
Fc1ccccc1-c1nc(-c2cccs2)c([NH2+]Cc2ccccc2)o1 (optimized conformer: 105.48837270580586 kcal/mol)

>  <smiles>  (40) 
Fc1ccccc1-c1nc(-c2cccs2)c(NCc2ccccc2)o1

>  <score_type>  (40) 
oracle

>  <origin>  (40) 
adg

>  <m_score__min__energy>  (40) 
-6.0099999999999998

>  <m_primary>  (40) 
energy

$$$$
40:0
     RDKit          3D

 42 44  0  0  0  0  0  0  0  0999 V2000
   57.9487   30.3838   43.2121 H   0  0  0  0  0  0  0  0  0  0  0  0
   57.5590   30.2750   44.2350 C   0  0  0  0  0  0  0  0  0  0  0  0
   57.1110   31.3410   44.8350 N   0  0  0  0  0  0  0  0  0  0  0  0
   57.8300   32.1840   45.7450 C   0  0  0  0  0  0  0  0  0  0  0  0
   58.1760   33.5060   45.4130 C   0  0  0  0  0  0  0  0  0  0  0  0
   57.8621   33.9292   44.4474 H   0  0  0  0  0  0  0  0  0  0  0  0
   58.9170   34.2830   46.3060 C   0  0  0  0  0  0  0  0  0  0  0  0
   59.2050   35.3083   46.0308 H   0  0  0  0  0  0  0  0  0  0  0  0
   59.2960   33.7620   47.5530 C   0  0  0  0  0  0  0  0  0  0  0  0
   60.2300   34.5340   48.4430 C   0  0  0  0  0  0  0  0  0  0  0  0
   60.2263   35.5936   48.1477 H   0  0  0  0  0  0  0  0  0  0  0  0
   59.8994   34.4443   49.4883 H   0  0  0  0  0  0  0  0  0  0  0  0
   61.6220   33.9800   48.3070 C   0  0  0  0  0  0  0  0  0  0  0  0
   62.4470   33.8510   49.4330 C   0  0  0  0  0  0  0  0  0  0  0  0
   62.0614   34.0986   50.4330 H   0  0  0  0  0  0  0  0  0  0  0  0
   63.7620   33.4060   49.2770 C   0  0  0  0  0  0  0  0  0  0  0  0
   64.4117   33.2947   50.1577 H   0  0  0  0  0  0  0  0  0  0  0  0
   64.2410   33.1100   48.0390 N   0  0  0  0  0  0  0  0  0  0  0  0
   65.2280   32.7820   47.9380 H   0  0  0  0  0  0  0  0  0  0  0  0
   63.4650   33.2390   46.9290 C   0  0  0  0  0  0  0  0  0  0  0  0
   63.8793   32.9956   45.9395 H   0  0  0  0  0  0  0  0  0  0  0  0
   62.1450   33.6790   47.0410 C   0  0  0  0  0  0  0  0  0  0  0  0
   61.5196   33.7888   46.1428 H   0  0  0  0  0  0  0  0  0  0  0  0
   58.8950   32.4640   47.9070 C   0  0  0  0  0  0  0  0  0  0  0  0
   59.1677   32.0556   48.8913 H   0  0  0  0  0  0  0  0  0  0  0  0
   58.1510   31.6890   47.0140 C   0  0  0  0  0  0  0  0  0  0  0  0
   57.8156   30.6841   47.3100 H   0  0  0  0  0  0  0  0  0  0  0  0
   57.5760   28.9260   44.8450 C   0  0  0  0  0  0  0  0  0  0  0  0
   56.3520   28.3360   45.2120 C   0  0  0  0  0  0  0  0  0  0  0  0
   55.1470   28.9640   44.9130 O   0  0  0  0  0  0  0  0  0  0  0  0
   56.3340   27.1080   45.8790 C   0  0  0  0  0  0  0  0  0  0  0  0
   55.3735   26.6383   46.1375 H   0  0  0  0  0  0  0  0  0  0  0  0
   57.5310   26.4760   46.2180 C   0  0  0  0  0  0  0  0  0  0  0  0
   57.5123   25.5118   46.7471 H   0  0  0  0  0  0  0  0  0  0  0  0
   58.7510   27.0650   45.8870 C   0  0  0  0  0  0  0  0  0  0  0  0
   59.6912   26.5730   46.1768 H   0  0  0  0  0  0  0  0  0  0  0  0
   58.7880   28.2790   45.1880 C   0  0  0  0  0  0  0  0  0  0  0  0
   60.3940   29.0230   44.8370 S   0  0  0  0  0  0  0  0  0  0  0  0
   60.6610   29.6490   46.5300 C   0  0  0  0  0  0  0  0  0  0  0  0
   60.3371   28.8897   47.2570 H   0  0  0  0  0  0  0  0  0  0  0  0
   61.7295   29.8650   46.6768 H   0  0  0  0  0  0  0  0  0  0  0  0
   60.0773   30.5697   46.6768 H   0  0  0  0  0  0  0  0  0  0  0  0
  1  2  1  0
  2  3  2  0
  3  4  1  0
  4  5  2  0
  5  6  1  0
  5  7  1  0
  7  8  1  0
  7  9  2  0
  9 10  1  0
 10 11  1  0
 10 12  1  0
 10 13  1  0
 13 14  2  0
 14 15  1  0
 14 16  1  0
 16 17  1  0
 16 18  2  0
 18 19  1  0
 18 20  1  0
 20 21  1  0
 20 22  2  0
 22 23  1  0
  9 24  1  0
 24 25  1  0
 24 26  2  0
 26 27  1  0
  2 28  1  0
 28 29  2  0
 29 30  1  0
 29 31  1  0
 31 32  1  0
 31 33  2  0
 33 34  1  0
 33 35  1  0
 35 36  1  0
 35 37  2  0
 37 38  1  0
 38 39  1  0
 39 40  1  0
 39 41  1  0
 39 42  1  0
 26  4  1  0
 37 28  1  0
 22 13  1  0
M  CHG  2  18   1  30  -1
M  END
>  <UniqueID>  (41) 
39

>  <SMILES>  (41) 
CSc1cccc([O-])c1/C=N\c1ccc(Cc2cc[nH+]cc2)cc1

>  <Energy>  (41) 
52.92761404741627

>  <Genealogy>  (41) 
CSc1cccc([O-])c1C=Nc1ccc(Cc2cc[nH+]cc2)cc1 (protonated)
CSc1cccc([O-])c1/C=N\c1ccc(Cc2cc[nH+]cc2)cc1 (cis-trans isomerization)
CSc1cccc([O-])c1/C=N\c1ccc(Cc2cc[nH+]cc2)cc1 (3D coordinates assigned)
CSc1cccc([O-])c1/C=N\c1ccc(Cc2cc[nH+]cc2)cc1 (optimized conformer: 52.92761404741627 kcal/mol)

>  <smiles>  (41) 
CSc1cccc(O)c1C=Nc1ccc(Cc2ccncc2)cc1

>  <score_type>  (41) 
oracle

>  <origin>  (41) 
adg

>  <m_score__min__energy>  (41) 
-11.359999999999999

>  <m_primary>  (41) 
energy

$$$$
41:0
     RDKit          3D

 56 59  0  0  0  0  0  0  0  0999 V2000
   59.6430   33.7310   48.7570 C   0  0  0  0  0  0  0  0  0  0  0  0
   59.1730   33.5170   47.3530 C   0  0  0  0  0  0  0  0  0  0  0  0
   59.0120   32.2190   46.8510 C   0  0  0  0  0  0  0  0  0  0  0  0
   58.5770   32.0320   45.5280 C   0  0  0  0  0  0  0  0  0  0  0  0
   58.3960   30.6640   44.9760 C   0  0  0  0  0  0  0  0  0  0  0  0
   57.1450   30.2500   44.4890 C   0  0  0  0  0  0  0  0  0  0  0  0
   56.9720   28.9630   43.9740 C   0  0  0  0  0  0  0  0  0  0  0  0
   58.0490   28.0600   43.9300 C   0  0  0  0  0  0  0  0  0  0  0  0
   57.8680   26.6940   43.3870 C   0  0  0  0  0  0  0  0  0  0  0  0
   58.1380   26.4520   42.1790 O   0  0  0  0  0  0  0  0  0  0  0  0
   57.3830   25.6420   44.2300 N   0  0  0  0  0  0  0  0  0  0  0  0
   58.1830   25.0030   45.2690 C   0  0  0  0  0  0  0  0  0  0  0  0
   58.6660   26.0270   46.2590 C   0  0  0  0  0  0  0  0  0  0  0  0
   60.0340   26.1620   46.5380 C   0  0  0  0  0  0  0  0  0  0  0  0
   60.4780   27.1360   47.4360 C   0  0  0  0  0  0  0  0  0  0  0  0
   59.5620   27.9910   48.0750 C   0  0  0  0  0  0  0  0  0  0  0  0
   60.0470   29.0290   49.0160 C   0  0  0  0  0  0  0  0  0  0  0  0
   59.4410   29.2050   50.1090 O   0  0  0  0  0  0  0  0  0  0  0  0
   61.1840   29.8470   48.6960 N   0  0  0  0  0  0  0  0  0  0  0  0
   61.8330   30.7000   49.6900 C   0  0  0  0  0  0  0  0  0  0  0  0
   62.6360   31.7720   49.0070 C   0  0  0  0  0  0  0  0  0  0  0  0
   63.6920   32.4120   49.6720 C   0  0  0  0  0  0  0  0  0  0  0  0
   64.4380   33.3860   49.0040 C   0  0  0  0  0  0  0  0  0  0  0  0
   64.1430   33.7060   47.7160 N   0  0  0  0  0  0  0  0  0  0  0  0
   63.1280   33.0980   47.0450 C   0  0  0  0  0  0  0  0  0  0  0  0
   62.3580   32.1180   47.6770 C   0  0  0  0  0  0  0  0  0  0  0  0
   58.1930   27.8620   47.7800 C   0  0  0  0  0  0  0  0  0  0  0  0
   57.7500   26.8880   46.8800 C   0  0  0  0  0  0  0  0  0  0  0  0
   59.3010   28.4750   44.4160 C   0  0  0  0  0  0  0  0  0  0  0  0
   59.4720   29.7610   44.9340 C   0  0  0  0  0  0  0  0  0  0  0  0
   58.3190   33.1630   44.7350 C   0  0  0  0  0  0  0  0  0  0  0  0
   58.5000   34.4390   45.2710 C   0  0  0  0  0  0  0  0  0  0  0  0
   58.9190   34.5880   46.5530 N   0  0  0  0  0  0  0  0  0  0  0  0
   58.8724   33.3801   49.4591 H   0  0  0  0  0  0  0  0  0  0  0  0
   60.5733   33.1677   48.9221 H   0  0  0  0  0  0  0  0  0  0  0  0
   59.8289   34.8025   48.9221 H   0  0  0  0  0  0  0  0  0  0  0  0
   59.2253   31.3495   47.4901 H   0  0  0  0  0  0  0  0  0  0  0  0
   56.2935   30.9459   44.5134 H   0  0  0  0  0  0  0  0  0  0  0  0
   55.9850   28.6534   43.5998 H   0  0  0  0  0  0  0  0  0  0  0  0
   57.5688   24.2547   45.7913 H   0  0  0  0  0  0  0  0  0  0  0  0
   59.0530   24.5173   44.8030 H   0  0  0  0  0  0  0  0  0  0  0  0
   60.7608   25.4978   46.0474 H   0  0  0  0  0  0  0  0  0  0  0  0
   61.5534   27.2350   47.6451 H   0  0  0  0  0  0  0  0  0  0  0  0
   61.5410   29.8800   47.7170 H   0  0  0  0  0  0  0  0  0  0  0  0
   61.0656   31.1686   50.3237 H   0  0  0  0  0  0  0  0  0  0  0  0
   62.5049   30.0857   50.3073 H   0  0  0  0  0  0  0  0  0  0  0  0
   63.9313   32.1487   50.7129 H   0  0  0  0  0  0  0  0  0  0  0  0
   65.2652   33.8947   49.5208 H   0  0  0  0  0  0  0  0  0  0  0  0
   62.9130   33.3782   46.0032 H   0  0  0  0  0  0  0  0  0  0  0  0
   61.5396   31.6216   47.1349 H   0  0  0  0  0  0  0  0  0  0  0  0
   57.4654   28.5323   48.2609 H   0  0  0  0  0  0  0  0  0  0  0  0
   56.6766   26.7966   46.6578 H   0  0  0  0  0  0  0  0  0  0  0  0
   60.1538   27.7808   44.3882 H   0  0  0  0  0  0  0  0  0  0  0  0
   60.4577   30.0696   45.3124 H   0  0  0  0  0  0  0  0  0  0  0  0
   57.9760   33.0433   43.6967 H   0  0  0  0  0  0  0  0  0  0  0  0
   58.3023   35.3267   44.6522 H   0  0  0  0  0  0  0  0  0  0  0  0
  1  2  1  0
  2  3  2  0
  3  4  1  0
  4  5  1  0
  5  6  2  0
  6  7  1  0
  7  8  2  0
  8  9  1  0
  9 10  2  0
  9 11  1  0
 11 12  1  0
 12 13  1  0
 13 14  2  0
 14 15  1  0
 15 16  2  0
 16 17  1  0
 17 18  2  0
 17 19  1  0
 19 20  1  0
 20 21  1  0
 21 22  2  0
 22 23  1  0
 23 24  2  0
 24 25  1  0
 25 26  2  0
 16 27  1  0
 27 28  2  0
  8 29  1  0
 29 30  2  0
  4 31  2  0
 31 32  1  0
 32 33  2  0
 33  2  1  0
 30  5  1  0
 28 13  1  0
 26 21  1  0
  1 34  1  0
  1 35  1  0
  1 36  1  0
  3 37  1  0
  6 38  1  0
  7 39  1  0
 12 40  1  0
 12 41  1  0
 14 42  1  0
 15 43  1  0
 19 44  1  0
 20 45  1  0
 20 46  1  0
 22 47  1  0
 23 48  1  0
 25 49  1  0
 26 50  1  0
 27 51  1  0
 28 52  1  0
 29 53  1  0
 30 54  1  0
 31 55  1  0
 32 56  1  0
M  CHG  1  11  -1
M  END
>  <UniqueID>  (42) 
40

>  <SMILES>  (42) 
Cc1cc(-c2ccc(C(=O)[N-]Cc3ccc(C(=O)NCc4ccncc4)cc3)cc2)ccn1

>  <Energy>  (42) 
64.60158201570603

>  <Genealogy>  (42) 
Cc1cc(-c2ccc(C(=O)[N-]Cc3ccc(C(=O)NCc4ccncc4)cc3)cc2)ccn1 (protonated)
Cc1cc(-c2ccc(C(=O)[N-]Cc3ccc(C(=O)NCc4ccncc4)cc3)cc2)ccn1 (3D coordinates assigned)
Cc1cc(-c2ccc(C(=O)[N-]Cc3ccc(C(=O)NCc4ccncc4)cc3)cc2)ccn1 (optimized conformer: 64.60158201570603 kcal/mol)

>  <smiles>  (42) 
Cc1cc(-c2ccc(C(=O)NCc3ccc(C(=O)NCc4ccncc4)cc3)cc2)ccn1

>  <score_type>  (42) 
oracle

>  <origin>  (42) 
adg

>  <m_score__min__energy>  (42) 
-10.68

>  <m_primary>  (42) 
energy

$$$$
42:0
     RDKit          3D

 32 33  0  0  0  0  0  0  0  0999 V2000
   55.4530   29.7160   43.4880 C   0  0  0  0  0  0  0  0  0  0  0  0
   55.8000   29.3860   44.8280 O   0  0  0  0  0  0  0  0  0  0  0  0
   56.8920   28.5840   45.1960 C   0  0  0  0  0  0  0  0  0  0  0  0
   56.7200   27.3990   45.9380 C   0  0  0  0  0  0  0  0  0  0  0  0
   57.8260   26.6380   46.3220 C   0  0  0  0  0  0  0  0  0  0  0  0
   57.5760   25.0350   47.3300 Br  0  0  0  0  0  0  0  0  0  0  0  0
   59.1130   27.0470   45.9730 C   0  0  0  0  0  0  0  0  0  0  0  0
   59.3040   28.2170   45.2290 C   0  0  0  0  0  0  0  0  0  0  0  0
   60.6450   28.5920   44.8540 C   0  0  0  0  0  0  0  0  0  0  0  0
   61.7220   28.8920   44.5530 N   0  0  0  0  0  0  0  0  0  0  0  0
   58.1920   28.9860   44.8230 C   0  0  0  0  0  0  0  0  0  0  0  0
   58.3880   30.1680   44.0290 N   0  0  0  0  0  0  0  0  0  0  0  0
   58.0240   31.7500   44.6410 S   0  0  0  0  0  0  0  0  0  0  0  0
   58.0670   32.7400   43.5100 O   0  0  0  0  0  0  0  0  0  0  0  0
   56.6440   31.7490   45.2380 O   0  0  0  0  0  0  0  0  0  0  0  0
   59.1780   32.1930   45.8970 C   0  0  0  0  0  0  0  0  0  0  0  0
   59.6900   31.2020   46.7470 C   0  0  0  0  0  0  0  0  0  0  0  0
   60.6360   31.5330   47.7220 C   0  0  0  0  0  0  0  0  0  0  0  0
   61.0730   32.8530   47.8530 C   0  0  0  0  0  0  0  0  0  0  0  0
   60.5650   33.8450   47.0100 C   0  0  0  0  0  0  0  0  0  0  0  0
   59.6180   33.5180   46.0340 C   0  0  0  0  0  0  0  0  0  0  0  0
   54.6559   30.4740   43.4917 H   0  0  0  0  0  0  0  0  0  0  0  0
   56.3364   30.1154   42.9682 H   0  0  0  0  0  0  0  0  0  0  0  0
   55.0985   28.8137   42.9682 H   0  0  0  0  0  0  0  0  0  0  0  0
   55.7077   27.0710   46.2168 H   0  0  0  0  0  0  0  0  0  0  0  0
   59.9814   26.4476   46.2838 H   0  0  0  0  0  0  0  0  0  0  0  0
   58.4930   30.0750   42.9940 H   0  0  0  0  0  0  0  0  0  0  0  0
   59.3466   30.1618   46.6465 H   0  0  0  0  0  0  0  0  0  0  0  0
   61.0364   30.7531   48.3864 H   0  0  0  0  0  0  0  0  0  0  0  0
   61.8175   33.1119   48.6202 H   0  0  0  0  0  0  0  0  0  0  0  0
   60.9103   34.8842   47.1141 H   0  0  0  0  0  0  0  0  0  0  0  0
   59.2177   34.3008   45.3730 H   0  0  0  0  0  0  0  0  0  0  0  0
  1  2  1  0
  2  3  1  0
  3  4  2  0
  4  5  1  0
  5  6  1  0
  5  7  2  0
  7  8  1  0
  8  9  1  0
  9 10  3  0
  8 11  2  0
 11 12  1  0
 12 13  1  0
 13 14  2  0
 13 15  2  0
 13 16  1  0
 16 17  2  0
 17 18  1  0
 18 19  2  0
 19 20  1  0
 20 21  2  0
 11  3  1  0
 21 16  1  0
  1 22  1  0
  1 23  1  0
  1 24  1  0
  4 25  1  0
  7 26  1  0
 12 27  1  0
 17 28  1  0
 18 29  1  0
 19 30  1  0
 20 31  1  0
 21 32  1  0
M  END
>  <UniqueID>  (43) 
41

>  <SMILES>  (43) 
COc1cc(Br)cc(C#N)c1NS(=O)(=O)c1ccccc1

>  <Energy>  (43) 
36.43915045485972

>  <Genealogy>  (43) 
COc1cc(Br)cc(C#N)c1NS(=O)(=O)c1ccccc1 (3D coordinates assigned)
COc1cc(Br)cc(C#N)c1NS(=O)(=O)c1ccccc1 (optimized conformer: 36.43915045485972 kcal/mol)

>  <smiles>  (43) 
COc1cc(Br)cc(C#N)c1NS(=O)(=O)c1ccccc1

>  <score_type>  (43) 
oracle

>  <origin>  (43) 
adg

>  <m_score__min__energy>  (43) 
-7.7000000000000002

>  <m_primary>  (43) 
energy

$$$$
43:0
     RDKit          3D

 20 21  0  0  0  0  0  0  0  0999 V2000
   56.5682   23.6192   45.6042 H   0  0  0  0  0  0  0  0  0  0  0  0
   56.4640   24.7130   45.6560 C   0  0  0  0  0  0  0  0  0  0  0  0
   55.3290   25.3580   46.0060 N   0  0  0  0  0  0  0  0  0  0  0  0
   55.4450   26.6850   45.9960 N   0  0  0  0  0  0  0  0  0  0  0  0
   56.6800   27.1010   45.6370 C   0  0  0  0  0  0  0  0  0  0  0  0
   57.0440   28.3460   45.5520 N   0  0  0  0  0  0  0  0  0  0  0  0
   56.3500   29.3850   44.8430 C   0  0  0  0  0  0  0  0  0  0  0  0
   55.1420   29.2440   44.5040 O   0  0  0  0  0  0  0  0  0  0  0  0
   57.0580   30.6270   44.5070 C   0  0  0  0  0  0  0  0  0  0  0  0
   57.7540   31.6800   45.6220 S   0  0  0  0  0  0  0  0  0  0  0  0
   58.3270   32.7780   44.4840 C   0  0  0  0  0  0  0  0  0  0  0  0
   59.0140   34.0630   44.8000 C   0  0  0  0  0  0  0  0  0  0  0  0
   59.0793   34.1852   45.8912 H   0  0  0  0  0  0  0  0  0  0  0  0
   60.0268   34.0525   44.3709 H   0  0  0  0  0  0  0  0  0  0  0  0
   58.4427   34.8994   44.3709 H   0  0  0  0  0  0  0  0  0  0  0  0
   57.9580   32.3460   43.2150 C   0  0  0  0  0  0  0  0  0  0  0  0
   58.1948   32.8995   42.2944 H   0  0  0  0  0  0  0  0  0  0  0  0
   57.2550   31.1360   43.2270 C   0  0  0  0  0  0  0  0  0  0  0  0
   56.8942   30.6370   42.3155 H   0  0  0  0  0  0  0  0  0  0  0  0
   57.7000   25.8080   45.3090 S   0  0  0  0  0  0  0  0  0  0  0  0
  1  2  1  0
  2  3  2  0
  3  4  1  0
  4  5  1  0
  5  6  2  0
  6  7  1  0
  7  8  2  0
  7  9  1  0
  9 10  1  0
 10 11  1  0
 11 12  1  0
 12 13  1  0
 12 14  1  0
 12 15  1  0
 11 16  2  0
 16 17  1  0
 16 18  1  0
 18 19  1  0
  5 20  1  0
 20  2  1  0
 18  9  2  0
M  CHG  1   4  -1
M  END
>  <UniqueID>  (44) 
42

>  <SMILES>  (44) 
Cc1ccc(C(=O)/N=c2\[n-]ncs2)s1

>  <Energy>  (44) 
80.28029441301061

>  <Genealogy>  (44) 
Cc1ccc(C(=O)N=c2[n-]ncs2)s1 (protonated)
Cc1ccc(C(=O)/N=c2\[n-]ncs2)s1 (cis-trans isomerization)
Cc1ccc(C(=O)/N=c2\[n-]ncs2)s1 (3D coordinates assigned)
Cc1ccc(C(=O)/N=c2\[n-]ncs2)s1 (optimized conformer: 80.28029441301061 kcal/mol)

>  <smiles>  (44) 
Cc1ccc(C(=O)N=c2[nH]ncs2)s1

>  <score_type>  (44) 
oracle

>  <origin>  (44) 
adg

>  <m_score__min__energy>  (44) 
-8.5899999999999999

>  <m_primary>  (44) 
energy

$$$$
44:0
     RDKit          3D

 54 57  0  0  0  0  0  0  0  0999 V2000
   57.0180   33.8380   44.2670 O   0  0  0  0  0  0  0  0  0  0  0  0
   57.2980   32.9190   45.0850 C   0  0  0  0  0  0  0  0  0  0  0  0
   56.8010   31.5950   44.8600 N   0  0  0  0  0  0  0  0  0  0  0  0
   57.4050   30.6740   43.9040 C   0  0  0  0  0  0  0  0  0  0  0  0
   57.6290   29.3430   44.5690 C   0  0  0  0  0  0  0  0  0  0  0  0
   58.9190   28.9530   44.9660 C   0  0  0  0  0  0  0  0  0  0  0  0
   59.0990   27.8040   45.7430 C   0  0  0  0  0  0  0  0  0  0  0  0
   57.9930   27.0540   46.1490 C   0  0  0  0  0  0  0  0  0  0  0  0
   56.7000   27.4330   45.7520 C   0  0  0  0  0  0  0  0  0  0  0  0
   55.5480   26.7030   46.1900 N   0  0  0  0  0  0  0  0  0  0  0  0
   55.1210   25.4560   45.6240 C   0  0  0  0  0  0  0  0  0  0  0  0
   53.8910   25.1930   45.5990 O   0  0  0  0  0  0  0  0  0  0  0  0
   56.0920   24.4650   45.0970 C   0  0  0  0  0  0  0  0  0  0  0  0
   55.9250   23.9310   43.8070 C   0  0  0  0  0  0  0  0  0  0  0  0
   56.8240   22.9790   43.3130 C   0  0  0  0  0  0  0  0  0  0  0  0
   57.8900   22.5430   44.1050 C   0  0  0  0  0  0  0  0  0  0  0  0
   58.7500   21.6090   43.6310 F   0  0  0  0  0  0  0  0  0  0  0  0
   58.0590   23.0580   45.3920 C   0  0  0  0  0  0  0  0  0  0  0  0
   57.1640   24.0120   45.8900 C   0  0  0  0  0  0  0  0  0  0  0  0
   56.5260   28.5580   44.9420 C   0  0  0  0  0  0  0  0  0  0  0  0
   58.1930   33.1970   46.2300 C   0  0  0  0  0  0  0  0  0  0  0  0
   57.7860   32.9170   47.5440 C   0  0  0  0  0  0  0  0  0  0  0  0
   58.6680   33.1040   48.6100 C   0  0  0  0  0  0  0  0  0  0  0  0
   59.9650   33.5670   48.3810 C   0  0  0  0  0  0  0  0  0  0  0  0
   60.3840   33.8730   47.0750 C   0  0  0  0  0  0  0  0  0  0  0  0
   61.7250   34.2850   46.7650 N   0  0  0  0  0  0  0  0  0  0  0  0
   62.9500   33.5610   46.9400 C   0  0  0  0  0  0  0  0  0  0  0  0
   63.7940   33.5120   46.0070 O   0  0  0  0  0  0  0  0  0  0  0  0
   63.1980   32.8520   48.2270 C   0  0  0  0  0  0  0  0  0  0  0  0
   64.0700   33.4480   49.1630 C   0  0  0  0  0  0  0  0  0  0  0  0
   64.3530   32.8240   50.3800 C   0  0  0  0  0  0  0  0  0  0  0  0
   63.7720   31.5960   50.6880 C   0  0  0  0  0  0  0  0  0  0  0  0
   62.9020   30.9890   49.7820 C   0  0  0  0  0  0  0  0  0  0  0  0
   62.6040   31.6020   48.5560 C   0  0  0  0  0  0  0  0  0  0  0  0
   61.3490   30.6830   47.4270 Br  0  0  0  0  0  0  0  0  0  0  0  0
   59.4940   33.6810   46.0100 C   0  0  0  0  0  0  0  0  0  0  0  0
   56.7332   30.5459   43.0425 H   0  0  0  0  0  0  0  0  0  0  0  0
   58.3673   31.0800   43.5588 H   0  0  0  0  0  0  0  0  0  0  0  0
   59.7902   29.5532   44.6648 H   0  0  0  0  0  0  0  0  0  0  0  0
   60.1124   27.4909   46.0345 H   0  0  0  0  0  0  0  0  0  0  0  0
   58.1347   26.1648   46.7809 H   0  0  0  0  0  0  0  0  0  0  0  0
   55.0828   24.2635   43.1824 H   0  0  0  0  0  0  0  0  0  0  0  0
   56.6914   22.5730   42.2993 H   0  0  0  0  0  0  0  0  0  0  0  0
   58.8971   22.7133   46.0156 H   0  0  0  0  0  0  0  0  0  0  0  0
   57.2987   24.4101   46.9065 H   0  0  0  0  0  0  0  0  0  0  0  0
   55.5186   28.8305   44.5943 H   0  0  0  0  0  0  0  0  0  0  0  0
   56.7673   32.5485   47.7347 H   0  0  0  0  0  0  0  0  0  0  0  0
   58.3390   32.8852   49.6366 H   0  0  0  0  0  0  0  0  0  0  0  0
   60.6601   33.6925   49.2242 H   0  0  0  0  0  0  0  0  0  0  0  0
   64.5335   34.4181   48.9306 H   0  0  0  0  0  0  0  0  0  0  0  0
   65.0361   33.3032   51.0968 H   0  0  0  0  0  0  0  0  0  0  0  0
   63.9992   31.1049   51.6457 H   0  0  0  0  0  0  0  0  0  0  0  0
   62.4451   30.0200   50.0315 H   0  0  0  0  0  0  0  0  0  0  0  0
   59.8188   33.9129   44.9850 H   0  0  0  0  0  0  0  0  0  0  0  0
  1  2  2  0
  2  3  1  0
  3  4  1  0
  4  5  1  0
  5  6  2  0
  6  7  1  0
  7  8  2  0
  8  9  1  0
  9 10  1  0
 10 11  1  0
 11 12  2  0
 11 13  1  0
 13 14  2  0
 14 15  1  0
 15 16  2  0
 16 17  1  0
 16 18  1  0
 18 19  2  0
  9 20  2  0
  2 21  1  0
 21 22  2  0
 22 23  1  0
 23 24  2  0
 24 25  1  0
 25 26  1  0
 26 27  1  0
 27 28  2  0
 27 29  1  0
 29 30  2  0
 30 31  1  0
 31 32  2  0
 32 33  1  0
 33 34  2  0
 34 35  1  0
 25 36  2  0
 20  5  1  0
 36 21  1  0
 19 13  1  0
 34 29  1  0
  4 37  1  0
  4 38  1  0
  6 39  1  0
  7 40  1  0
  8 41  1  0
 14 42  1  0
 15 43  1  0
 18 44  1  0
 19 45  1  0
 20 46  1  0
 22 47  1  0
 23 48  1  0
 24 49  1  0
 30 50  1  0
 31 51  1  0
 32 52  1  0
 33 53  1  0
 36 54  1  0
M  CHG  3   3  -1  10  -1  26  -1
M  END
>  <UniqueID>  (45) 
43

>  <SMILES>  (45) 
O=C([N-]Cc1cccc([N-]C(=O)c2ccc(F)cc2)c1)c1cccc([N-]C(=O)c2ccccc2Br)c1

>  <Energy>  (45) 
73.52530329596664

>  <Genealogy>  (45) 
O=C([N-]Cc1cccc([N-]C(=O)c2ccc(F)cc2)c1)c1cccc([N-]C(=O)c2ccccc2Br)c1 (protonated)
O=C([N-]Cc1cccc([N-]C(=O)c2ccc(F)cc2)c1)c1cccc([N-]C(=O)c2ccccc2Br)c1 (3D coordinates assigned)
O=C([N-]Cc1cccc([N-]C(=O)c2ccc(F)cc2)c1)c1cccc([N-]C(=O)c2ccccc2Br)c1 (optimized conformer: 73.52530329596664 kcal/mol)

>  <smiles>  (45) 
O=C(NCc1cccc(NC(=O)c2ccc(F)cc2)c1)c1cccc(NC(=O)c2ccccc2Br)c1

>  <score_type>  (45) 
oracle

>  <origin>  (45) 
adg

>  <m_score__min__energy>  (45) 
-14.81

>  <m_primary>  (45) 
energy

$$$$
45:0
     RDKit          3D

 58 61  0  0  0  0  0  0  0  0999 V2000
   61.9980   34.8120   49.0430 O   0  0  0  0  0  0  0  0  0  0  0  0
   61.0660   33.9730   48.9670 C   0  0  0  0  0  0  0  0  0  0  0  0
   61.1870   32.7390   49.6890 N   0  0  0  0  0  0  0  0  0  0  0  0
   60.1210   31.9350   50.2080 C   0  0  0  0  0  0  0  0  0  0  0  0
   58.9400   32.5000   50.7260 C   0  0  0  0  0  0  0  0  0  0  0  0
   57.9320   31.6770   51.2370 C   0  0  0  0  0  0  0  0  0  0  0  0
   58.0790   30.2780   51.2140 C   0  0  0  0  0  0  0  0  0  0  0  0
   57.0540   29.4020   51.7010 N   0  0  0  0  0  0  0  0  0  0  0  0
   55.8700   29.8050   52.4010 C   0  0  0  0  0  0  0  0  0  0  0  0
   55.8790   30.8280   53.1370 O   0  0  0  0  0  0  0  0  0  0  0  0
   54.6840   29.0130   52.2800 N   0  0  0  0  0  0  0  0  0  0  0  0
   53.5540   29.1370   53.1980 C   0  0  0  0  0  0  0  0  0  0  0  0
   52.7060   30.3130   52.7950 C   0  0  0  0  0  0  0  0  0  0  0  0
   52.8160   30.8660   51.5030 C   0  0  0  0  0  0  0  0  0  0  0  0
   51.9890   31.9270   51.1190 C   0  0  0  0  0  0  0  0  0  0  0  0
   51.0430   32.4370   52.0150 C   0  0  0  0  0  0  0  0  0  0  0  0
   50.9170   31.8810   53.2950 C   0  0  0  0  0  0  0  0  0  0  0  0
   51.7400   30.8180   53.6810 C   0  0  0  0  0  0  0  0  0  0  0  0
   59.2290   29.7190   50.6440 C   0  0  0  0  0  0  0  0  0  0  0  0
   60.2440   30.5420   50.1500 C   0  0  0  0  0  0  0  0  0  0  0  0
   59.9400   34.2680   48.1270 N   0  0  0  0  0  0  0  0  0  0  0  0
   59.1650   33.3450   47.3470 C   0  0  0  0  0  0  0  0  0  0  0  0
   57.9420   33.7070   46.7530 C   0  0  0  0  0  0  0  0  0  0  0  0
   57.2400   32.7850   45.9680 C   0  0  0  0  0  0  0  0  0  0  0  0
   57.7660   31.5040   45.7430 C   0  0  0  0  0  0  0  0  0  0  0  0
   56.9380   30.3840   44.6640 S   0  0  0  0  0  0  0  0  0  0  0  0
   57.6220   30.3550   43.3230 O   0  0  0  0  0  0  0  0  0  0  0  0
   55.5280   30.8640   44.4560 O   0  0  0  0  0  0  0  0  0  0  0  0
   56.8930   28.7750   45.3110 N   0  0  0  0  0  0  0  0  0  0  0  0
   58.0450   28.1170   45.8510 C   0  0  0  0  0  0  0  0  0  0  0  0
   57.9870   27.4330   47.0760 C   0  0  0  0  0  0  0  0  0  0  0  0
   59.1310   26.8070   47.5850 C   0  0  0  0  0  0  0  0  0  0  0  0
   60.3400   26.8690   46.8790 C   0  0  0  0  0  0  0  0  0  0  0  0
   60.4000   27.5410   45.6550 C   0  0  0  0  0  0  0  0  0  0  0  0
   59.2530   28.1550   45.1360 C   0  0  0  0  0  0  0  0  0  0  0  0
   58.9920   31.1510   46.3230 C   0  0  0  0  0  0  0  0  0  0  0  0
   59.6840   32.0650   47.1200 C   0  0  0  0  0  0  0  0  0  0  0  0
   58.8100   33.5923   50.7287 H   0  0  0  0  0  0  0  0  0  0  0  0
   57.0202   32.1251   51.6588 H   0  0  0  0  0  0  0  0  0  0  0  0
   54.6870   28.2110   51.6100 H   0  0  0  0  0  0  0  0  0  0  0  0
   52.9491   28.2190   53.1608 H   0  0  0  0  0  0  0  0  0  0  0  0
   53.9282   29.2887   54.2212 H   0  0  0  0  0  0  0  0  0  0  0  0
   53.5543   30.4621   50.7947 H   0  0  0  0  0  0  0  0  0  0  0  0
   52.0825   32.3605   50.1123 H   0  0  0  0  0  0  0  0  0  0  0  0
   50.3975   33.2754   51.7142 H   0  0  0  0  0  0  0  0  0  0  0  0
   50.1703   32.2808   53.9968 H   0  0  0  0  0  0  0  0  0  0  0  0
   51.6304   30.3758   54.6822 H   0  0  0  0  0  0  0  0  0  0  0  0
   59.3340   28.6256   50.5848 H   0  0  0  0  0  0  0  0  0  0  0  0
   61.1470   30.0917   49.7120 H   0  0  0  0  0  0  0  0  0  0  0  0
   57.5362   34.7179   46.9060 H   0  0  0  0  0  0  0  0  0  0  0  0
   56.2726   33.0657   45.5260 H   0  0  0  0  0  0  0  0  0  0  0  0
   57.0414   27.3890   47.6364 H   0  0  0  0  0  0  0  0  0  0  0  0
   59.0809   26.2653   48.5411 H   0  0  0  0  0  0  0  0  0  0  0  0
   61.2413   26.3890   47.2880 H   0  0  0  0  0  0  0  0  0  0  0  0
   61.3481   27.5877   45.0992 H   0  0  0  0  0  0  0  0  0  0  0  0
   59.2987   28.6690   44.1645 H   0  0  0  0  0  0  0  0  0  0  0  0
   59.4112   30.1489   46.1495 H   0  0  0  0  0  0  0  0  0  0  0  0
   60.6442   31.7770   47.5729 H   0  0  0  0  0  0  0  0  0  0  0  0
  1  2  2  0
  2  3  1  0
  3  4  1  0
  4  5  2  0
  5  6  1  0
  6  7  2  0
  7  8  1  0
  8  9  1  0
  9 10  2  0
  9 11  1  0
 11 12  1  0
 12 13  1  0
 13 14  2  0
 14 15  1  0
 15 16  2  0
 16 17  1  0
 17 18  2  0
  7 19  1  0
 19 20  2  0
  2 21  1  0
 21 22  1  0
 22 23  2  0
 23 24  1  0
 24 25  2  0
 25 26  1  0
 26 27  2  0
 26 28  2  0
 26 29  1  0
 29 30  1  0
 30 31  2  0
 31 32  1  0
 32 33  2  0
 33 34  1  0
 34 35  2  0
 25 36  1  0
 36 37  2  0
 20  4  1  0
 37 22  1  0
 18 13  1  0
 35 30  1  0
  5 38  1  0
  6 39  1  0
 11 40  1  0
 12 41  1  0
 12 42  1  0
 14 43  1  0
 15 44  1  0
 16 45  1  0
 17 46  1  0
 18 47  1  0
 19 48  1  0
 20 49  1  0
 23 50  1  0
 24 51  1  0
 31 52  1  0
 32 53  1  0
 33 54  1  0
 34 55  1  0
 35 56  1  0
 36 57  1  0
 37 58  1  0
M  CHG  4   3  -1   8  -1  21  -1  29  -1
M  END
>  <UniqueID>  (46) 
44

>  <SMILES>  (46) 
O=C([N-]c1ccc([N-]C(=O)NCc2ccccc2)cc1)[N-]c1ccc(S(=O)(=O)[N-]c2ccccc2)cc1

>  <Energy>  (46) 
74.20887122189735

>  <Genealogy>  (46) 
O=C([N-]c1ccc([N-]C(=O)NCc2ccccc2)cc1)[N-]c1ccc(S(=O)(=O)[N-]c2ccccc2)cc1 (protonated)
O=C([N-]c1ccc([N-]C(=O)NCc2ccccc2)cc1)[N-]c1ccc(S(=O)(=O)[N-]c2ccccc2)cc1 (3D coordinates assigned)
O=C([N-]c1ccc([N-]C(=O)NCc2ccccc2)cc1)[N-]c1ccc(S(=O)(=O)[N-]c2ccccc2)cc1 (optimized conformer: 74.20887122189735 kcal/mol)

>  <smiles>  (46) 
O=C(NCc1ccccc1)Nc1ccc(NC(=O)Nc2ccc(S(=O)(=O)Nc3ccccc3)cc2)cc1

>  <score_type>  (46) 
oracle

>  <origin>  (46) 
adg

>  <m_score__min__energy>  (46) 
-14

>  <m_primary>  (46) 
energy

$$$$
46:0
     RDKit          3D

 56 59  0  0  1  0  0  0  0  0999 V2000
   66.8160   33.0160   49.9600 N   0  0  0  0  0  0  0  0  0  0  0  0
   65.5210   32.6540   50.4180 C   0  0  0  0  0  0  0  0  0  0  0  0
   65.2550   31.4400   50.5900 O   0  0  0  0  0  0  0  0  0  0  0  0
   64.5000   33.7030   50.6890 C   0  0  0  0  0  0  0  0  0  0  0  0
   63.9440   34.1710   49.4580 O   0  0  0  0  0  0  0  0  0  0  0  0
   62.9760   33.4400   48.7850 C   0  0  0  0  0  0  0  0  0  0  0  0
   63.4020   32.5460   47.8280 C   0  0  0  0  0  0  0  0  0  0  0  0
   62.4510   31.8110   47.1490 C   0  0  0  0  0  0  0  0  0  0  0  0
   61.1160   32.0120   47.4650 C   0  0  0  0  0  0  0  0  0  0  0  0
   60.0900   31.2650   46.7800 N   0  0  0  0  0  0  0  0  0  0  0  0
   59.9090   30.0100   47.1100 C   0  0  0  0  0  0  0  0  0  0  0  0
   60.5550   29.4800   48.1690 N   0  0  0  0  0  0  0  0  0  0  0  0
   60.3890   28.1930   48.5330 C   0  0  0  0  0  0  0  0  0  0  0  0
   59.5530   27.3680   47.8380 N   0  0  0  0  0  0  0  0  0  0  0  0
   58.8890   27.8700   46.7720 C   0  0  0  0  0  0  0  0  0  0  0  0
   59.0550   29.2040   46.3860 C   0  0  0  0  0  0  0  0  0  0  0  0
   58.2660   29.4270   45.2820 C   0  0  0  0  0  0  0  0  0  0  0  0
   58.1020   31.0790   44.3350 Br  0  0  0  0  0  0  0  0  0  0  0  0
   57.6380   28.2500   45.0100 C   0  0  0  0  0  0  0  0  0  0  0  0
   58.0180   27.3120   45.9110 N   0  0  0  0  0  0  0  0  0  0  0  0
   57.5140   25.9600   45.8760 C   0  0  2  0  0  0  0  0  0  0  0  0
   57.2970   25.5210   44.5960 O   0  0  0  0  0  0  0  0  0  0  0  0
   56.3080   24.5740   44.5800 C   0  0  1  0  0  0  0  0  0  0  0  0
   56.7600   23.2010   44.1280 C   0  0  0  0  0  0  0  0  0  0  0  0
   58.1570   23.1810   43.9420 O   0  0  0  0  0  0  0  0  0  0  0  0
   58.8900   22.8820   45.4230 S   0  0  0  0  0  0  0  0  0  0  0  0
   60.1870   21.7390   45.2470 N   0  0  0  0  0  0  0  0  0  0  0  0
   59.5150   24.1720   45.9230 O   0  0  0  0  0  0  0  0  0  0  0  0
   57.8580   22.3840   46.3960 O   0  0  0  0  0  0  0  0  0  0  0  0
   55.7550   24.4570   45.9780 C   0  0  2  0  0  0  0  0  0  0  0  0
   54.3670   24.3360   46.0060 O   0  0  0  0  0  0  0  0  0  0  0  0
   56.1540   25.8380   46.5220 C   0  0  2  0  0  0  0  0  0  0  0  0
   55.2310   26.7220   45.9450 O   0  0  0  0  0  0  0  0  0  0  0  0
   60.6970   32.9010   48.4180 C   0  0  0  0  0  0  0  0  0  0  0  0
   61.6440   33.6360   49.0960 C   0  0  0  0  0  0  0  0  0  0  0  0
   67.5020   33.5530   50.5450 H   0  0  0  0  0  0  0  0  0  0  0  0
   67.0500   32.7040   48.9710 H   0  0  0  0  0  0  0  0  0  0  0  0
   63.6992   33.2798   51.3132 H   0  0  0  0  0  0  0  0  0  0  0  0
   64.9759   34.5442   51.2142 H   0  0  0  0  0  0  0  0  0  0  0  0
   64.4729   32.4208   47.6102 H   0  0  0  0  0  0  0  0  0  0  0  0
   62.7448   31.0845   46.3771 H   0  0  0  0  0  0  0  0  0  0  0  0
   61.2040   30.1160   48.7100 H   0  0  0  0  0  0  0  0  0  0  0  0
   60.9357   27.8016   49.4036 H   0  0  0  0  0  0  0  0  0  0  0  0
   56.9299   28.0856   44.1844 H   0  0  0  0  0  0  0  0  0  0  0  0
   58.2857   25.3774   46.4004 H   0  0  0  0  0  0  0  0  0  0  0  0
   55.5594   24.9090   43.8470 H   0  0  0  0  0  0  0  0  0  0  0  0
   56.4853   22.4590   44.8922 H   0  0  0  0  0  0  0  0  0  0  0  0
   56.2691   22.9596   43.1737 H   0  0  0  0  0  0  0  0  0  0  0  0
   60.8250   21.9700   44.4590 H   0  0  0  0  0  0  0  0  0  0  0  0
   59.8270   20.7610   45.2350 H   0  0  0  0  0  0  0  0  0  0  0  0
   56.1212   23.5762   46.5258 H   0  0  0  0  0  0  0  0  0  0  0  0
   54.0060   25.1790   46.3650 H   0  0  0  0  0  0  0  0  0  0  0  0
   56.1699   26.0086   47.6086 H   0  0  0  0  0  0  0  0  0  0  0  0
   55.4750   26.7480   44.9820 H   0  0  0  0  0  0  0  0  0  0  0  0
   59.6264   33.0257   48.6376 H   0  0  0  0  0  0  0  0  0  0  0  0
   61.3470   34.3621   49.8671 H   0  0  0  0  0  0  0  0  0  0  0  0
  1  2  1  0
  2  3  2  0
  2  4  1  0
  4  5  1  0
  5  6  1  0
  6  7  2  0
  7  8  1  0
  8  9  2  0
  9 10  1  0
 10 11  2  0
 11 12  1  0
 12 13  1  0
 13 14  2  0
 14 15  1  0
 15 16  2  0
 16 17  1  0
 17 18  1  0
 17 19  2  0
 19 20  1  0
 20 21  1  0
 21 22  1  0
 22 23  1  0
 23 24  1  0
 24 25  1  0
 25 26  1  0
 26 27  1  0
 26 28  2  0
 26 29  2  0
 23 30  1  0
 30 31  1  0
 30 32  1  0
 32 33  1  0
  9 34  1  0
 34 35  2  0
 35  6  1  0
 16 11  1  0
 32 21  1  0
 20 15  1  0
  1 36  1  0
  1 37  1  0
  4 38  1  0
  4 39  1  0
  7 40  1  0
  8 41  1  0
 12 42  1  0
 13 43  1  0
 19 44  1  0
 21 45  1  1
 23 46  1  6
 24 47  1  0
 24 48  1  0
 27 49  1  0
 27 50  1  0
 30 51  1  1
 31 52  1  0
 32 53  1  1
 33 54  1  0
 34 55  1  0
 35 56  1  0
M  END
>  <smiles>  (47) 
NC(=O)COc1ccc(N=c2[nH]cnc3c2c(Br)cn3C2OC(COS(N)(=O)=O)C(O)C2O)cc1

>  <score_type>  (47) 
oracle

>  <origin>  (47) 
adg

>  <m_score__min__energy>  (47) 
-9.6199999999999992

>  <m_primary>  (47) 
energy

$$$$
47:0
     RDKit          3D

 35 38  0  0  0  0  0  0  0  0999 V2000
   56.9360   26.2170   46.3930 C   0  0  0  0  0  0  0  0  0  0  0  0
   57.0110   27.6590   46.0060 C   0  0  0  0  0  0  0  0  0  0  0  0
   58.1040   28.4460   46.4220 C   0  0  0  0  0  0  0  0  0  0  0  0
   58.1380   29.7890   46.0360 C   0  0  0  0  0  0  0  0  0  0  0  0
   59.1230   30.7360   46.3510 C   0  0  0  0  0  0  0  0  0  0  0  0
   58.8720   31.9740   45.7710 C   0  0  0  0  0  0  0  0  0  0  0  0
   57.4120   31.9360   44.9230 S   0  0  0  0  0  0  0  0  0  0  0  0
   57.1170   30.3110   45.2550 C   0  0  0  0  0  0  0  0  0  0  0  0
   56.0480   29.5150   44.8490 C   0  0  0  0  0  0  0  0  0  0  0  0
   55.1230   29.9850   44.1360 O   0  0  0  0  0  0  0  0  0  0  0  0
   56.0240   28.2090   45.2340 N   0  0  0  0  0  0  0  0  0  0  0  0
   59.7380   33.1720   46.0020 C   0  0  0  0  0  0  0  0  0  0  0  0
   61.1000   32.7480   46.4150 N   0  0  0  0  0  0  0  0  0  0  0  0
   61.9270   33.9220   46.7640 C   0  0  0  0  0  0  0  0  0  0  0  0
   62.7850   33.6260   47.9540 C   0  0  0  0  0  0  0  0  0  0  0  0
   63.8800   32.8370   47.9100 N   0  0  0  0  0  0  0  0  0  0  0  0
   64.4530   32.6980   49.1350 C   0  0  0  0  0  0  0  0  0  0  0  0
   63.8120   33.3760   50.1660 C   0  0  0  0  0  0  0  0  0  0  0  0
   62.4810   34.1710   49.5160 S   0  0  0  0  0  0  0  0  0  0  0  0
   61.0290   31.8130   47.5620 C   0  0  0  0  0  0  0  0  0  0  0  0
   60.3730   30.4850   47.1430 C   0  0  0  0  0  0  0  0  0  0  0  0
   56.9316   26.1314   47.4897 H   0  0  0  0  0  0  0  0  0  0  0  0
   56.0137   25.7759   45.9871 H   0  0  0  0  0  0  0  0  0  0  0  0
   57.8076   25.6826   45.9871 H   0  0  0  0  0  0  0  0  0  0  0  0
   58.9093   28.0144   47.0345 H   0  0  0  0  0  0  0  0  0  0  0  0
   59.8055   33.7563   45.0724 H   0  0  0  0  0  0  0  0  0  0  0  0
   59.2957   33.7862   46.8002 H   0  0  0  0  0  0  0  0  0  0  0  0
   62.5701   34.1783   45.9092 H   0  0  0  0  0  0  0  0  0  0  0  0
   61.2628   34.7647   47.0061 H   0  0  0  0  0  0  0  0  0  0  0  0
   65.3574   32.0935   49.2986 H   0  0  0  0  0  0  0  0  0  0  0  0
   64.1215   33.3897   51.2215 H   0  0  0  0  0  0  0  0  0  0  0  0
   62.0468   31.6130   47.9281 H   0  0  0  0  0  0  0  0  0  0  0  0
   60.4209   32.2725   48.3552 H   0  0  0  0  0  0  0  0  0  0  0  0
   61.0812   29.9112   46.5273 H   0  0  0  0  0  0  0  0  0  0  0  0
   60.1094   29.9200   48.0492 H   0  0  0  0  0  0  0  0  0  0  0  0
  1  2  1  0
  2  3  2  0
  3  4  1  0
  4  5  1  0
  5  6  2  0
  6  7  1  0
  7  8  1  0
  8  9  1  0
  9 10  2  0
  9 11  1  0
  6 12  1  0
 12 13  1  0
 13 14  1  0
 14 15  1  0
 15 16  2  0
 16 17  1  0
 17 18  2  0
 18 19  1  0
 13 20  1  0
 20 21  1  0
 11  2  1  0
 19 15  1  0
  8  4  2  0
 21  5  1  0
  1 22  1  0
  1 23  1  0
  1 24  1  0
  3 25  1  0
 12 26  1  0
 12 27  1  0
 14 28  1  0
 14 29  1  0
 17 30  1  0
 18 31  1  0
 20 32  1  0
 20 33  1  0
 21 34  1  0
 21 35  1  0
M  CHG  1  11  -1
M  END
>  <UniqueID>  (48) 
45

>  <SMILES>  (48) 
Cc1cc2c3c(sc2c(=O)[n-]1)CN(Cc1nccs1)CC3

>  <Energy>  (48) 
101.9652704948648

>  <Genealogy>  (48) 
Cc1cc2c3c(sc2c(=O)[n-]1)CN(Cc1nccs1)CC3 (protonated)
Cc1cc2c3c(sc2c(=O)[n-]1)CN(Cc1nccs1)CC3 (3D coordinates assigned)
Cc1cc2c3c(sc2c(=O)[n-]1)CN(Cc1nccs1)CC3 (nonaromatic ring conformer: 101.9652704948648 kcal/mol)

>  <smiles>  (48) 
Cc1cc2c3c(sc2c(=O)[nH]1)CN(Cc1nccs1)CC3

>  <score_type>  (48) 
oracle

>  <origin>  (48) 
adg

>  <m_score__min__energy>  (48) 
-9.0999999999999996

>  <m_primary>  (48) 
energy

$$$$
48:0
     RDKit          3D

 59 62  0  0  0  0  0  0  0  0999 V2000
   60.1230   33.8120   49.7390 C   0  0  0  0  0  0  0  0  0  0  0  0
   61.2470   34.3310   48.9480 N   0  0  0  0  0  0  0  0  0  0  0  0
   62.4780   34.5780   49.7310 C   0  0  0  0  0  0  0  0  0  0  0  0
   63.2270   33.3240   50.1380 C   0  0  0  0  0  0  0  0  0  0  0  0
   64.5480   33.0960   49.6990 C   0  0  0  0  0  0  0  0  0  0  0  0
   65.2340   31.9420   50.0900 C   0  0  0  0  0  0  0  0  0  0  0  0
   64.5990   30.9870   50.8910 C   0  0  0  0  0  0  0  0  0  0  0  0
   63.2670   31.1690   51.2750 C   0  0  0  0  0  0  0  0  0  0  0  0
   62.5800   32.3290   50.8940 C   0  0  0  0  0  0  0  0  0  0  0  0
   61.5010   33.4230   47.4700 S   0  0  0  0  0  0  0  0  0  0  0  0
   62.0460   32.0640   47.8200 O   0  0  0  0  0  0  0  0  0  0  0  0
   62.5340   34.1320   46.6380 O   0  0  0  0  0  0  0  0  0  0  0  0
   60.0420   33.2340   46.4860 C   0  0  0  0  0  0  0  0  0  0  0  0
   59.3030   34.3580   46.0850 C   0  0  0  0  0  0  0  0  0  0  0  0
   58.1570   34.2050   45.3060 C   0  0  0  0  0  0  0  0  0  0  0  0
   57.7220   32.9300   44.9360 C   0  0  0  0  0  0  0  0  0  0  0  0
   58.4210   31.7900   45.3700 C   0  0  0  0  0  0  0  0  0  0  0  0
   57.9800   30.4240   45.0090 C   0  0  0  0  0  0  0  0  0  0  0  0
   58.3630   29.7440   43.9000 N   0  0  0  0  0  0  0  0  0  0  0  0
   57.7250   28.5650   43.9910 C   0  0  0  0  0  0  0  0  0  0  0  0
   57.8250   27.5050   43.0230 C   0  0  0  0  0  0  0  0  0  0  0  0
   57.9050   26.6510   42.2440 N   0  0  0  0  0  0  0  0  0  0  0  0
   56.9780   28.5680   45.1470 C   0  0  0  0  0  0  0  0  0  0  0  0
   56.1440   27.5110   45.6350 N   0  0  0  0  0  0  0  0  0  0  0  0
   56.6560   26.4970   46.5520 C   0  0  0  0  0  0  0  0  0  0  0  0
   58.0760   26.8160   46.9390 C   0  0  0  0  0  0  0  0  0  0  0  0
   59.1400   26.0310   46.4660 C   0  0  0  0  0  0  0  0  0  0  0  0
   60.4500   26.3060   46.8680 C   0  0  0  0  0  0  0  0  0  0  0  0
   60.7120   27.3690   47.7360 C   0  0  0  0  0  0  0  0  0  0  0  0
   59.6620   28.1780   48.2040 C   0  0  0  0  0  0  0  0  0  0  0  0
   59.9420   29.2910   49.1850 C   0  0  0  0  0  0  0  0  0  0  0  0
   59.0820   30.3600   48.9740 F   0  0  0  0  0  0  0  0  0  0  0  0
   59.7670   28.8130   50.4760 F   0  0  0  0  0  0  0  0  0  0  0  0
   61.2480   29.7500   49.0440 F   0  0  0  0  0  0  0  0  0  0  0  0
   58.3410   27.8750   47.8240 C   0  0  0  0  0  0  0  0  0  0  0  0
   57.1500   29.7180   45.7520 O   0  0  0  0  0  0  0  0  0  0  0  0
   59.5730   31.9550   46.1600 C   0  0  0  0  0  0  0  0  0  0  0  0
   60.3494   33.9165   50.8104 H   0  0  0  0  0  0  0  0  0  0  0  0
   59.2125   34.3808   49.4994 H   0  0  0  0  0  0  0  0  0  0  0  0
   59.9655   32.7500   49.4994 H   0  0  0  0  0  0  0  0  0  0  0  0
   63.1527   35.1991   49.1235 H   0  0  0  0  0  0  0  0  0  0  0  0
   62.1624   35.0700   50.6628 H   0  0  0  0  0  0  0  0  0  0  0  0
   65.0414   33.8303   49.0453 H   0  0  0  0  0  0  0  0  0  0  0  0
   66.2739   31.7850   49.7675 H   0  0  0  0  0  0  0  0  0  0  0  0
   65.1481   30.0921   51.2190 H   0  0  0  0  0  0  0  0  0  0  0  0
   62.7583   30.4012   51.8764 H   0  0  0  0  0  0  0  0  0  0  0  0
   61.5284   32.4628   51.1876 H   0  0  0  0  0  0  0  0  0  0  0  0
   59.6296   35.3641   46.3868 H   0  0  0  0  0  0  0  0  0  0  0  0
   57.5930   35.0918   44.9813 H   0  0  0  0  0  0  0  0  0  0  0  0
   56.8295   32.8177   44.3029 H   0  0  0  0  0  0  0  0  0  0  0  0
   59.0000   30.0520   43.1320 H   0  0  0  0  0  0  0  0  0  0  0  0
   55.1420   27.4650   45.3350 H   0  0  0  0  0  0  0  0  0  0  0  0
   56.0293   26.4746   47.4557 H   0  0  0  0  0  0  0  0  0  0  0  0
   56.6311   25.5167   46.0536 H   0  0  0  0  0  0  0  0  0  0  0  0
   58.9417   25.1969   45.7768 H   0  0  0  0  0  0  0  0  0  0  0  0
   61.2782   25.6829   46.4995 H   0  0  0  0  0  0  0  0  0  0  0  0
   61.7447   27.5738   48.0546 H   0  0  0  0  0  0  0  0  0  0  0  0
   57.5084   28.4727   48.2235 H   0  0  0  0  0  0  0  0  0  0  0  0
   60.1122   31.0689   46.5262 H   0  0  0  0  0  0  0  0  0  0  0  0
  1  2  1  0
  2  3  1  0
  3  4  1  0
  4  5  2  0
  5  6  1  0
  6  7  2  0
  7  8  1  0
  8  9  2  0
  2 10  1  0
 10 11  2  0
 10 12  2  0
 10 13  1  0
 13 14  2  0
 14 15  1  0
 15 16  2  0
 16 17  1  0
 17 18  1  0
 18 19  2  0
 19 20  1  0
 20 21  1  0
 21 22  3  0
 20 23  2  0
 23 24  1  0
 24 25  1  0
 25 26  1  0
 26 27  2  0
 27 28  1  0
 28 29  2  0
 29 30  1  0
 30 31  1  0
 31 32  1  0
 31 33  1  0
 31 34  1  0
 30 35  2  0
 23 36  1  0
 17 37  2  0
  9  4  1  0
 37 13  1  0
 36 18  1  0
 35 26  1  0
  1 38  1  0
  1 39  1  0
  1 40  1  0
  3 41  1  0
  3 42  1  0
  5 43  1  0
  6 44  1  0
  7 45  1  0
  8 46  1  0
  9 47  1  0
 14 48  1  0
 15 49  1  0
 16 50  1  0
 19 51  1  0
 24 52  1  0
 25 53  1  0
 25 54  1  0
 27 55  1  0
 28 56  1  0
 29 57  1  0
 35 58  1  0
 37 59  1  0
M  CHG  1  19   1
M  END
>  <UniqueID>  (49) 
46

>  <SMILES>  (49) 
CN(Cc1ccccc1)S(=O)(=O)c1cccc(-c2[nH+]c(C#N)c(NCc3cccc(C(F)(F)F)c3)o2)c1

>  <Energy>  (49) 
92.72776978618829

>  <Genealogy>  (49) 
CN(Cc1ccccc1)S(=O)(=O)c1cccc(-c2[nH+]c(C#N)c(NCc3cccc(C(F)(F)F)c3)o2)c1 (protonated)
CN(Cc1ccccc1)S(=O)(=O)c1cccc(-c2[nH+]c(C#N)c(NCc3cccc(C(F)(F)F)c3)o2)c1 (3D coordinates assigned)
CN(Cc1ccccc1)S(=O)(=O)c1cccc(-c2[nH+]c(C#N)c(NCc3cccc(C(F)(F)F)c3)o2)c1 (optimized conformer: 92.72776978618829 kcal/mol)

>  <smiles>  (49) 
CN(Cc1ccccc1)S(=O)(=O)c1cccc(-c2nc(C#N)c(NCc3cccc(C(F)(F)F)c3)o2)c1

>  <score_type>  (49) 
oracle

>  <origin>  (49) 
adg

>  <m_score__min__energy>  (49) 
-9.1699999999999999

>  <m_primary>  (49) 
energy

$$$$
49:0
     RDKit          3D

 40 42  0  0  0  0  0  0  0  0999 V2000
   55.0750   29.3620   44.6350 O   0  0  0  0  0  0  0  0  0  0  0  0
   56.3070   29.4920   44.8610 C   0  0  0  0  0  0  0  0  0  0  0  0
   57.1680   28.3590   44.6870 N   0  0  0  0  0  0  0  0  0  0  0  0
   57.7850   27.6870   45.6150 C   0  0  0  0  0  0  0  0  0  0  0  0
   57.5220   26.2630   45.9410 C   0  0  0  0  0  0  0  0  0  0  0  0
   56.2100   25.7710   46.0830 C   0  0  0  0  0  0  0  0  0  0  0  0
   55.1400   26.6630   45.9450 O   0  0  0  0  0  0  0  0  0  0  0  0
   56.0150   24.3890   46.3160 C   0  0  0  0  0  0  0  0  0  0  0  0
   54.7480   23.8140   46.5490 C   0  0  0  0  0  0  0  0  0  0  0  0
   54.6220   22.4330   46.7350 C   0  0  0  0  0  0  0  0  0  0  0  0
   55.7480   21.6100   46.6860 C   0  0  0  0  0  0  0  0  0  0  0  0
   57.0100   22.1650   46.4700 C   0  0  0  0  0  0  0  0  0  0  0  0
   57.1530   23.5470   46.3020 C   0  0  0  0  0  0  0  0  0  0  0  0
   58.3670   24.0540   46.1290 O   0  0  0  0  0  0  0  0  0  0  0  0
   58.5900   25.3490   45.9570 C   0  0  0  0  0  0  0  0  0  0  0  0
   59.7750   25.7500   45.8020 O   0  0  0  0  0  0  0  0  0  0  0  0
   56.8430   30.7730   45.2120 N   0  0  0  0  0  0  0  0  0  0  0  0
   57.6470   31.5650   44.2860 C   0  0  0  0  0  0  0  0  0  0  0  0
   57.4370   33.0570   44.5360 C   0  0  0  0  0  0  0  0  0  0  0  0
   58.2780   33.5670   45.6780 C   0  0  0  0  0  0  0  0  0  0  0  0
   59.1110   34.6850   45.5060 C   0  0  0  0  0  0  0  0  0  0  0  0
   59.8330   35.1960   46.5880 C   0  0  0  0  0  0  0  0  0  0  0  0
   59.7400   34.5880   47.8420 C   0  0  0  0  0  0  0  0  0  0  0  0
   58.9450   33.4530   48.0120 C   0  0  0  0  0  0  0  0  0  0  0  0
   58.2140   32.9420   46.9350 C   0  0  0  0  0  0  0  0  0  0  0  0
   58.5558   28.2112   46.1990 H   0  0  0  0  0  0  0  0  0  0  0  0
   55.1550   27.4890   45.3640 H   0  0  0  0  0  0  0  0  0  0  0  0
   53.8545   24.4547   46.5846 H   0  0  0  0  0  0  0  0  0  0  0  0
   53.6307   21.9939   46.9207 H   0  0  0  0  0  0  0  0  0  0  0  0
   55.6407   20.5232   46.8177 H   0  0  0  0  0  0  0  0  0  0  0  0
   57.8957   21.5138   46.4316 H   0  0  0  0  0  0  0  0  0  0  0  0
   58.7099   31.3202   44.4288 H   0  0  0  0  0  0  0  0  0  0  0  0
   57.3386   31.3300   43.2566 H   0  0  0  0  0  0  0  0  0  0  0  0
   57.7053   33.6102   43.6239 H   0  0  0  0  0  0  0  0  0  0  0  0
   56.3802   33.2095   44.8005 H   0  0  0  0  0  0  0  0  0  0  0  0
   59.1952   35.1594   44.5172 H   0  0  0  0  0  0  0  0  0  0  0  0
   60.4755   36.0784   46.4518 H   0  0  0  0  0  0  0  0  0  0  0  0
   60.2938   35.0039   48.6966 H   0  0  0  0  0  0  0  0  0  0  0  0
   58.8936   32.9602   48.9941 H   0  0  0  0  0  0  0  0  0  0  0  0
   57.5872   32.0485   47.0721 H   0  0  0  0  0  0  0  0  0  0  0  0
  1  2  2  0
  2  3  1  0
  3  4  2  3
  4  5  1  0
  5  6  2  0
  6  7  1  0
  6  8  1  0
  8  9  2  0
  9 10  1  0
 10 11  2  0
 11 12  1  0
 12 13  2  0
 13 14  1  0
 14 15  1  0
 15 16  2  0
  2 17  1  0
 17 18  1  0
 18 19  1  0
 19 20  1  0
 20 21  2  0
 21 22  1  0
 22 23  2  0
 23 24  1  0
 24 25  2  0
 15  5  1  0
 25 20  1  0
 13  8  1  0
  4 26  1  0
  7 27  1  0
  9 28  1  0
 10 29  1  0
 11 30  1  0
 12 31  1  0
 18 32  1  0
 18 33  1  0
 19 34  1  0
 19 35  1  0
 21 36  1  0
 22 37  1  0
 23 38  1  0
 24 39  1  0
 25 40  1  0
M  CHG  1  17  -1
M  END
>  <UniqueID>  (50) 
47

>  <SMILES>  (50) 
O=C(N=Cc1c(O)c2ccccc2oc1=O)[N-]CCc1ccccc1

>  <Energy>  (50) 
51.39640021011373

>  <Genealogy>  (50) 
O=C(N=Cc1c(O)c2ccccc2oc1=O)[N-]CCc1ccccc1 (protonated)
O=C(N=Cc1c(O)c2ccccc2oc1=O)[N-]CCc1ccccc1 (3D coordinates assigned)
O=C(N=Cc1c(O)c2ccccc2oc1=O)[N-]CCc1ccccc1 (optimized conformer: 51.39640021011373 kcal/mol)

>  <smiles>  (50) 
O=C(N=Cc1c(O)c2ccccc2oc1=O)NCCc1ccccc1

>  <score_type>  (50) 
oracle

>  <origin>  (50) 
adg

>  <m_score__min__energy>  (50) 
-10.720000000000001

>  <m_primary>  (50) 
energy

$$$$
50:0
     RDKit          3D

 32 34  0  0  0  0  0  0  0  0999 V2000
   57.4640   28.0128   42.2960 H   0  0  0  0  0  0  0  0  0  0  0  0
   57.7190   28.0130   43.3660 C   0  0  0  0  0  0  0  0  0  0  0  0
   58.1330   26.8960   43.8940 N   0  0  0  0  0  0  0  0  0  0  0  0
   58.5930   26.6870   45.2380 C   0  0  0  0  0  0  0  0  0  0  0  0
   59.8930   27.0570   45.6320 C   0  0  0  0  0  0  0  0  0  0  0  0
   60.5849   27.4934   44.8966 H   0  0  0  0  0  0  0  0  0  0  0  0
   60.3080   26.8720   46.9540 C   0  0  0  0  0  0  0  0  0  0  0  0
   61.3311   27.1446   47.2522 H   0  0  0  0  0  0  0  0  0  0  0  0
   59.4240   26.3410   47.8970 C   0  0  0  0  0  0  0  0  0  0  0  0
   59.7539   26.1881   48.9352 H   0  0  0  0  0  0  0  0  0  0  0  0
   58.1200   26.0040   47.5210 C   0  0  0  0  0  0  0  0  0  0  0  0
   57.4224   25.5937   48.2659 H   0  0  0  0  0  0  0  0  0  0  0  0
   57.7010   26.1880   46.1980 C   0  0  0  0  0  0  0  0  0  0  0  0
   56.4330   25.8610   45.8460 F   0  0  0  0  0  0  0  0  0  0  0  0
   57.5700   29.2790   44.1110 C   0  0  0  0  0  0  0  0  0  0  0  0
   56.4320   29.7160   44.7480 C   0  0  0  0  0  0  0  0  0  0  0  0
   55.2370   29.0180   44.8680 O   0  0  0  0  0  0  0  0  0  0  0  0
   56.6460   30.9130   45.2330 O   0  0  0  0  0  0  0  0  0  0  0  0
   57.8800   31.2420   44.9030 C   0  0  0  0  0  0  0  0  0  0  0  0
   58.5020   32.5360   45.2670 C   0  0  0  0  0  0  0  0  0  0  0  0
   58.2410   33.7090   44.5320 C   0  0  0  0  0  0  0  0  0  0  0  0
   57.5582   33.6746   43.6702 H   0  0  0  0  0  0  0  0  0  0  0  0
   58.8460   34.9170   44.8930 C   0  0  0  0  0  0  0  0  0  0  0  0
   58.6358   35.8294   44.3156 H   0  0  0  0  0  0  0  0  0  0  0  0
   59.7160   34.9690   45.9840 C   0  0  0  0  0  0  0  0  0  0  0  0
   60.1874   35.9217   46.2672 H   0  0  0  0  0  0  0  0  0  0  0  0
   59.9870   33.8110   46.7150 C   0  0  0  0  0  0  0  0  0  0  0  0
   60.6745   33.8517   47.5727 H   0  0  0  0  0  0  0  0  0  0  0  0
   59.3860   32.5990   46.3590 C   0  0  0  0  0  0  0  0  0  0  0  0
   59.6063   31.6893   46.9369 H   0  0  0  0  0  0  0  0  0  0  0  0
   58.4870   30.2620   44.1930 N   0  0  0  0  0  0  0  0  0  0  0  0
   59.4310   30.2820   43.7500 H   0  0  0  0  0  0  0  0  0  0  0  0
  1  2  1  0
  2  3  2  0
  3  4  1  0
  4  5  2  0
  5  6  1  0
  5  7  1  0
  7  8  1  0
  7  9  2  0
  9 10  1  0
  9 11  1  0
 11 12  1  0
 11 13  2  0
 13 14  1  0
  2 15  1  0
 15 16  2  0
 16 17  1  0
 16 18  1  0
 18 19  1  0
 19 20  1  0
 20 21  2  0
 21 22  1  0
 21 23  1  0
 23 24  1  0
 23 25  2  0
 25 26  1  0
 25 27  1  0
 27 28  1  0
 27 29  2  0
 29 30  1  0
 19 31  2  0
 31 32  1  0
 13  4  1  0
 31 15  1  0
 29 20  1  0
M  CHG  2  17  -1  31   1
M  END
>  <UniqueID>  (51) 
48

>  <SMILES>  (51) 
[O-]c1oc(-c2ccccc2)[nH+]c1/C=N\c1ccccc1F

>  <Energy>  (51) 
77.80757005174455

>  <Genealogy>  (51) 
[O-]c1oc(-c2ccccc2)[nH+]c1C=Nc1ccccc1F (protonated)
[O-]c1oc(-c2ccccc2)[nH+]c1/C=N\c1ccccc1F (cis-trans isomerization)
[O-]c1oc(-c2ccccc2)[nH+]c1/C=N\c1ccccc1F (3D coordinates assigned)
[O-]c1oc(-c2ccccc2)[nH+]c1/C=N\c1ccccc1F (optimized conformer: 77.80757005174455 kcal/mol)

>  <smiles>  (51) 
Oc1oc(-c2ccccc2)nc1C=Nc1ccccc1F

>  <score_type>  (51) 
oracle

>  <origin>  (51) 
adg

>  <m_score__min__energy>  (51) 
-8.3800000000000008

>  <m_primary>  (51) 
energy

$$$$
51:0
     RDKit          3D

 33 34  0  0  0  0  0  0  0  0999 V2000
   54.8460   26.3440   46.0110 N   0  0  0  0  0  0  0  0  0  0  0  0
   56.2360   25.3380   46.2140 S   0  0  0  0  0  0  0  0  0  0  0  0
   56.4840   24.5540   44.9570 O   0  0  0  0  0  0  0  0  0  0  0  0
   55.9810   24.3730   47.3390 O   0  0  0  0  0  0  0  0  0  0  0  0
   57.6440   26.3410   46.5810 C   0  0  0  0  0  0  0  0  0  0  0  0
   58.5340   25.9460   47.5940 C   0  0  0  0  0  0  0  0  0  0  0  0
   59.6460   26.7340   47.9030 C   0  0  0  0  0  0  0  0  0  0  0  0
   59.8830   27.9160   47.2010 C   0  0  0  0  0  0  0  0  0  0  0  0
   59.0020   28.3220   46.1970 C   0  0  0  0  0  0  0  0  0  0  0  0
   57.8640   27.5540   45.8970 C   0  0  0  0  0  0  0  0  0  0  0  0
   56.9790   27.9550   44.8440 N   0  0  0  0  0  0  0  0  0  0  0  0
   56.3840   29.2520   44.7020 C   0  0  0  0  0  0  0  0  0  0  0  0
   55.1420   29.3690   44.8740 O   0  0  0  0  0  0  0  0  0  0  0  0
   57.2290   30.4830   44.4940 C   0  0  0  0  0  0  0  0  0  0  0  0
   57.0750   31.4110   45.5690 O   0  0  0  0  0  0  0  0  0  0  0  0
   57.8290   32.5850   45.7390 C   0  0  0  0  0  0  0  0  0  0  0  0
   58.2350   33.3900   44.6560 C   0  0  0  0  0  0  0  0  0  0  0  0
   58.9830   34.5500   44.8840 C   0  0  0  0  0  0  0  0  0  0  0  0
   59.3330   34.9150   46.1860 C   0  0  0  0  0  0  0  0  0  0  0  0
   58.9330   34.1210   47.2650 C   0  0  0  0  0  0  0  0  0  0  0  0
   59.2720   34.4760   48.5290 F   0  0  0  0  0  0  0  0  0  0  0  0
   58.1850   32.9610   47.0410 C   0  0  0  0  0  0  0  0  0  0  0  0
   55.1810   27.3320   45.9750 H   0  0  0  0  0  0  0  0  0  0  0  0
   58.3546   25.0119   48.1465 H   0  0  0  0  0  0  0  0  0  0  0  0
   60.3356   26.4217   48.7011 H   0  0  0  0  0  0  0  0  0  0  0  0
   60.7650   28.5288   47.4388 H   0  0  0  0  0  0  0  0  0  0  0  0
   59.1997   29.2483   45.6376 H   0  0  0  0  0  0  0  0  0  0  0  0
   58.2856   30.1844   44.4281 H   0  0  0  0  0  0  0  0  0  0  0  0
   56.9022   30.9733   43.5651 H   0  0  0  0  0  0  0  0  0  0  0  0
   57.9631   33.1056   43.6288 H   0  0  0  0  0  0  0  0  0  0  0  0
   59.2963   35.1763   44.0357 H   0  0  0  0  0  0  0  0  0  0  0  0
   59.9229   35.8265   46.3623 H   0  0  0  0  0  0  0  0  0  0  0  0
   57.8738   32.3390   47.8932 H   0  0  0  0  0  0  0  0  0  0  0  0
  1  2  1  0
  2  3  2  0
  2  4  2  0
  2  5  1  0
  5  6  2  0
  6  7  1  0
  7  8  2  0
  8  9  1  0
  9 10  2  0
 10 11  1  0
 11 12  1  0
 12 13  2  0
 12 14  1  0
 14 15  1  0
 15 16  1  0
 16 17  2  0
 17 18  1  0
 18 19  2  0
 19 20  1  0
 20 21  1  0
 20 22  2  0
 10  5  1  0
 22 16  1  0
  1 23  1  0
  6 24  1  0
  7 25  1  0
  8 26  1  0
  9 27  1  0
 14 28  1  0
 14 29  1  0
 17 30  1  0
 18 31  1  0
 19 32  1  0
 22 33  1  0
M  CHG  2   1  -1  11  -1
M  END
>  <UniqueID>  (52) 
49

>  <SMILES>  (52) 
[NH-]S(=O)(=O)c1ccccc1[N-]C(=O)COc1cccc(F)c1

>  <Energy>  (52) 
39.99483204005643

>  <Genealogy>  (52) 
[NH-]S(=O)(=O)c1ccccc1[N-]C(=O)COc1cccc(F)c1 (protonated)
[NH-]S(=O)(=O)c1ccccc1[N-]C(=O)COc1cccc(F)c1 (3D coordinates assigned)
[NH-]S(=O)(=O)c1ccccc1[N-]C(=O)COc1cccc(F)c1 (optimized conformer: 39.99483204005643 kcal/mol)

>  <smiles>  (52) 
NS(=O)(=O)c1ccccc1NC(=O)COc1cccc(F)c1

>  <score_type>  (52) 
oracle

>  <origin>  (52) 
adg

>  <m_score__min__energy>  (52) 
-13.279999999999999

>  <m_primary>  (52) 
energy

$$$$
52:0
     RDKit          3D

 59 62  0  0  0  0  0  0  0  0999 V2000
   51.6890   22.5910   46.4640 C   0  0  0  0  0  0  0  0  0  0  0  0
   52.8820   22.6060   45.6870 O   0  0  0  0  0  0  0  0  0  0  0  0
   54.1110   23.1170   46.1310 C   0  0  0  0  0  0  0  0  0  0  0  0
   54.6160   24.2630   45.5090 C   0  0  0  0  0  0  0  0  0  0  0  0
   55.8270   24.8320   45.9240 C   0  0  0  0  0  0  0  0  0  0  0  0
   56.3260   25.9970   45.2480 N   0  0  0  0  0  0  0  0  0  0  0  0
   57.4350   25.9770   44.3330 C   0  0  0  0  0  0  0  0  0  0  0  0
   58.1170   24.9270   44.1730 O   0  0  0  0  0  0  0  0  0  0  0  0
   57.8350   27.2310   43.6140 C   0  0  0  0  0  0  0  0  0  0  0  0
   57.9890   28.3820   44.5750 C   0  0  0  0  0  0  0  0  0  0  0  0
   59.2290   28.7140   45.0310 N   0  0  0  0  0  0  0  0  0  0  0  0
   59.4200   29.7570   45.8790 C   0  0  0  0  0  0  0  0  0  0  0  0
   60.6990   30.0670   46.3510 C   0  0  0  0  0  0  0  0  0  0  0  0
   60.8760   31.1360   47.2340 C   0  0  0  0  0  0  0  0  0  0  0  0
   59.7760   31.9010   47.6540 C   0  0  0  0  0  0  0  0  0  0  0  0
   59.9970   33.2130   48.8130 S   0  0  0  0  0  0  0  0  0  0  0  0
   58.8920   34.2200   48.6420 O   0  0  0  0  0  0  0  0  0  0  0  0
   59.9120   32.6620   50.2090 O   0  0  0  0  0  0  0  0  0  0  0  0
   61.5430   34.0030   48.5970 N   0  0  0  0  0  0  0  0  0  0  0  0
   62.5190   33.5830   49.6340 C   0  0  0  0  0  0  0  0  0  0  0  0
   63.5560   32.5780   49.1090 C   0  0  0  0  0  0  0  0  0  0  0  0
   64.3450   33.1660   47.9260 C   0  0  0  0  0  0  0  0  0  0  0  0
   63.5090   34.1420   47.0780 C   0  0  0  0  0  0  0  0  0  0  0  0
   62.0110   33.8420   47.2040 C   0  0  0  0  0  0  0  0  0  0  0  0
   58.4940   31.5990   47.1650 C   0  0  0  0  0  0  0  0  0  0  0  0
   58.3150   30.5270   46.2850 C   0  0  0  0  0  0  0  0  0  0  0  0
   57.0800   30.2160   45.8150 N   0  0  0  0  0  0  0  0  0  0  0  0
   56.8880   29.1700   44.9680 C   0  0  0  0  0  0  0  0  0  0  0  0
   55.7270   28.9200   44.5470 O   0  0  0  0  0  0  0  0  0  0  0  0
   56.5590   24.2170   46.9540 C   0  0  0  0  0  0  0  0  0  0  0  0
   56.0680   23.0590   47.5850 C   0  0  0  0  0  0  0  0  0  0  0  0
   56.7640   22.4120   48.6160 O   0  0  0  0  0  0  0  0  0  0  0  0
   56.1460   21.8090   49.7490 C   0  0  0  0  0  0  0  0  0  0  0  0
   54.8440   22.5200   47.1720 C   0  0  0  0  0  0  0  0  0  0  0  0
   51.9477   22.5943   47.5331 H   0  0  0  0  0  0  0  0  0  0  0  0
   51.0875   23.4817   46.2296 H   0  0  0  0  0  0  0  0  0  0  0  0
   51.1101   21.6855   46.2296 H   0  0  0  0  0  0  0  0  0  0  0  0
   54.0549   24.7239   44.6828 H   0  0  0  0  0  0  0  0  0  0  0  0
   55.9420   26.9290   45.5270 H   0  0  0  0  0  0  0  0  0  0  0  0
   58.7930   27.0609   43.1008 H   0  0  0  0  0  0  0  0  0  0  0  0
   57.0475   27.4843   42.8889 H   0  0  0  0  0  0  0  0  0  0  0  0
   61.5649   29.4704   46.0279 H   0  0  0  0  0  0  0  0  0  0  0  0
   61.8835   31.3795   47.6022 H   0  0  0  0  0  0  0  0  0  0  0  0
   63.0488   34.4753   49.9989 H   0  0  0  0  0  0  0  0  0  0  0  0
   61.9541   33.0850   50.4358 H   0  0  0  0  0  0  0  0  0  0  0  0
   64.2564   32.3276   49.9194 H   0  0  0  0  0  0  0  0  0  0  0  0
   63.0272   31.6772   48.7641 H   0  0  0  0  0  0  0  0  0  0  0  0
   65.2204   33.7033   48.3197 H   0  0  0  0  0  0  0  0  0  0  0  0
   64.6388   32.3293   47.2751 H   0  0  0  0  0  0  0  0  0  0  0  0
   63.6994   35.1696   47.4213 H   0  0  0  0  0  0  0  0  0  0  0  0
   63.8004   34.0254   46.0237 H   0  0  0  0  0  0  0  0  0  0  0  0
   61.4520   34.5337   46.5566 H   0  0  0  0  0  0  0  0  0  0  0  0
   61.8406   32.7985   46.9004 H   0  0  0  0  0  0  0  0  0  0  0  0
   57.6305   32.2061   47.4745 H   0  0  0  0  0  0  0  0  0  0  0  0
   57.5226   24.6438   47.2692 H   0  0  0  0  0  0  0  0  0  0  0  0
   56.5773   22.2298   50.6692 H   0  0  0  0  0  0  0  0  0  0  0  0
   55.0645   22.0086   49.7263 H   0  0  0  0  0  0  0  0  0  0  0  0
   56.3190   20.7229   49.7263 H   0  0  0  0  0  0  0  0  0  0  0  0
   54.4512   21.6197   47.6671 H   0  0  0  0  0  0  0  0  0  0  0  0
  1  2  1  0
  2  3  1  0
  3  4  2  0
  4  5  1  0
  5  6  1  0
  6  7  1  0
  7  8  2  0
  7  9  1  0
  9 10  1  0
 10 11  2  0
 11 12  1  0
 12 13  2  0
 13 14  1  0
 14 15  2  0
 15 16  1  0
 16 17  2  0
 16 18  2  0
 16 19  1  0
 19 20  1  0
 20 21  1  0
 21 22  1  0
 22 23  1  0
 23 24  1  0
 15 25  1  0
 25 26  2  0
 26 27  1  0
 27 28  1  0
 28 29  2  0
  5 30  2  0
 30 31  1  0
 31 32  1  0
 32 33  1  0
 31 34  2  0
 34  3  1  0
 28 10  1  0
 26 12  1  0
 24 19  1  0
  1 35  1  0
  1 36  1  0
  1 37  1  0
  4 38  1  0
  6 39  1  0
  9 40  1  0
  9 41  1  0
 13 42  1  0
 14 43  1  0
 20 44  1  0
 20 45  1  0
 21 46  1  0
 21 47  1  0
 22 48  1  0
 22 49  1  0
 23 50  1  0
 23 51  1  0
 24 52  1  0
 24 53  1  0
 25 54  1  0
 30 55  1  0
 33 56  1  0
 33 57  1  0
 33 58  1  0
 34 59  1  0
M  CHG  1  27  -1
M  END
>  <UniqueID>  (53) 
50

>  <SMILES>  (53) 
COc1cc(NC(=O)Cc2nc3ccc(S(=O)(=O)N4CCCCC4)cc3[n-]c2=O)cc(OC)c1

>  <Energy>  (53) 
71.85179698570721

>  <Genealogy>  (53) 
COc1cc(NC(=O)Cc2nc3ccc(S(=O)(=O)N4CCCCC4)cc3[n-]c2=O)cc(OC)c1 (protonated)
COc1cc(NC(=O)Cc2nc3ccc(S(=O)(=O)N4CCCCC4)cc3[n-]c2=O)cc(OC)c1 (3D coordinates assigned)
COc1cc(NC(=O)Cc2nc3ccc(S(=O)(=O)N4CCCCC4)cc3[n-]c2=O)cc(OC)c1 (nonaromatic ring conformer: 71.85179698570721 kcal/mol)

>  <smiles>  (53) 
COc1cc(NC(=O)Cc2nc3ccc(S(=O)(=O)N4CCCCC4)cc3[nH]c2=O)cc(OC)c1

>  <score_type>  (53) 
oracle

>  <origin>  (53) 
adg

>  <m_score__min__energy>  (53) 
-11.15

>  <m_primary>  (53) 
energy

$$$$
53:0
     RDKit          3D

 35 36  0  0  0  0  0  0  0  0999 V2000
   58.1040   27.1880   43.2400 C   0  0  0  0  0  0  0  0  0  0  0  0
   58.2240   27.2230   44.5700 C   0  0  0  0  0  0  0  0  0  0  0  0
   57.0370   27.0180   45.4680 C   0  0  0  0  0  0  0  0  0  0  0  0
   56.0540   28.0250   45.2450 O   0  0  0  0  0  0  0  0  0  0  0  0
   56.3550   29.3900   45.1640 C   0  0  0  0  0  0  0  0  0  0  0  0
   55.6340   30.1580   44.4680 O   0  0  0  0  0  0  0  0  0  0  0  0
   57.4900   29.8950   45.8780 N   0  0  0  0  0  0  0  0  0  0  0  0
   57.9040   31.2750   45.8900 C   0  0  0  0  0  0  0  0  0  0  0  0
   57.0900   32.2470   45.3660 N   0  0  0  0  0  0  0  0  0  0  0  0
   57.4390   33.5640   45.3550 C   0  0  0  0  0  0  0  0  0  0  0  0
   56.6640   34.4250   44.8640 O   0  0  0  0  0  0  0  0  0  0  0  0
   58.6650   33.9250   45.8990 C   0  0  0  0  0  0  0  0  0  0  0  0
   59.1890   35.1590   45.9840 N   0  0  0  0  0  0  0  0  0  0  0  0
   60.3800   34.9400   46.5890 C   0  0  0  0  0  0  0  0  0  0  0  0
   60.6160   33.6340   46.8800 N   0  0  0  0  0  0  0  0  0  0  0  0
   61.8410   33.1480   47.5390 C   0  0  0  0  0  0  0  0  0  0  0  0
   63.1000   33.5180   46.7500 C   0  0  0  0  0  0  0  0  0  0  0  0
   61.9040   33.5680   49.0110 C   0  0  0  0  0  0  0  0  0  0  0  0
   59.5090   32.9930   46.4330 C   0  0  0  0  0  0  0  0  0  0  0  0
   59.1550   31.6340   46.4460 C   0  0  0  0  0  0  0  0  0  0  0  0
   59.9580   30.6760   46.9640 F   0  0  0  0  0  0  0  0  0  0  0  0
   58.9882   27.3410   42.6038 H   0  0  0  0  0  0  0  0  0  0  0  0
   57.1210   27.0061   42.7811 H   0  0  0  0  0  0  0  0  0  0  0  0
   59.2123   27.4057   45.0170 H   0  0  0  0  0  0  0  0  0  0  0  0
   56.5957   26.0315   45.2628 H   0  0  0  0  0  0  0  0  0  0  0  0
   57.3718   27.0776   46.5141 H   0  0  0  0  0  0  0  0  0  0  0  0
   58.0460   29.2000   46.4270 H   0  0  0  0  0  0  0  0  0  0  0  0
   61.0915   35.7455   46.8235 H   0  0  0  0  0  0  0  0  0  0  0  0
   61.7994   32.0488   47.5412 H   0  0  0  0  0  0  0  0  0  0  0  0
   63.9142   33.7573   47.4499 H   0  0  0  0  0  0  0  0  0  0  0  0
   63.3984   32.6696   46.1167 H   0  0  0  0  0  0  0  0  0  0  0  0
   62.8919   34.3930   46.1167 H   0  0  0  0  0  0  0  0  0  0  0  0
   61.7713   32.6831   49.6508 H   0  0  0  0  0  0  0  0  0  0  0  0
   62.8812   34.0280   49.2196 H   0  0  0  0  0  0  0  0  0  0  0  0
   61.1048   34.2945   49.2196 H   0  0  0  0  0  0  0  0  0  0  0  0
  1  2  2  0
  2  3  1  0
  3  4  1  0
  4  5  1  0
  5  6  2  0
  5  7  1  0
  7  8  1  0
  8  9  1  0
  9 10  1  0
 10 11  2  0
 10 12  1  0
 12 13  1  0
 13 14  2  0
 14 15  1  0
 15 16  1  0
 16 17  1  0
 16 18  1  0
 15 19  1  0
 19 20  1  0
 20 21  1  0
 20  8  2  0
 19 12  2  0
  1 22  1  0
  1 23  1  0
  2 24  1  0
  3 25  1  0
  3 26  1  0
  7 27  1  0
 14 28  1  0
 16 29  1  0
 17 30  1  0
 17 31  1  0
 17 32  1  0
 18 33  1  0
 18 34  1  0
 18 35  1  0
M  CHG  1   9  -1
M  END
>  <UniqueID>  (54) 
51

>  <SMILES>  (54) 
C=CCOC(=O)Nc1[n-]c(=O)c2ncn(C(C)C)c2c1F

>  <Energy>  (54) 
70.89506530690021

>  <Genealogy>  (54) 
C=CCOC(=O)Nc1[n-]c(=O)c2ncn(C(C)C)c2c1F (protonated)
C=CCOC(=O)Nc1[n-]c(=O)c2ncn(C(C)C)c2c1F (3D coordinates assigned)
C=CCOC(=O)Nc1[n-]c(=O)c2ncn(C(C)C)c2c1F (optimized conformer: 70.89506530690021 kcal/mol)

>  <smiles>  (54) 
C=CCOC(=O)Nc1[nH]c(=O)c2ncn(C(C)C)c2c1F

>  <score_type>  (54) 
oracle

>  <origin>  (54) 
adg

>  <m_score__min__energy>  (54) 
-7.8499999999999996

>  <m_primary>  (54) 
energy

$$$$
54:0
     RDKit          3D

 59 61  0  0  0  0  0  0  0  0999 V2000
   62.1690   28.2620   51.2470 C   0  0  0  0  0  0  0  0  0  0  0  0
   61.1610   29.3460   50.8450 C   0  0  0  0  0  0  0  0  0  0  0  0
   59.8400   29.1490   51.4960 N   0  0  1  0  0  0  0  0  0  0  0  0
   59.7900   29.8180   52.8230 C   0  0  0  0  0  0  0  0  0  0  0  0
   60.9860   30.7150   53.0660 C   0  0  0  0  0  0  0  0  0  0  0  0
   62.0540   30.2280   53.5210 O   0  0  0  0  0  0  0  0  0  0  0  0
   60.9270   32.1280   52.8230 N   0  0  0  0  0  0  0  0  0  0  0  0
   60.8260   32.7710   51.5450 C   0  0  0  0  0  0  0  0  0  0  0  0
   59.7240   33.5770   51.2110 C   0  0  0  0  0  0  0  0  0  0  0  0
   59.6420   34.1670   49.9460 C   0  0  0  0  0  0  0  0  0  0  0  0
   60.6330   33.9330   48.9870 C   0  0  0  0  0  0  0  0  0  0  0  0
   60.5200   34.5550   47.7360 O   0  0  0  0  0  0  0  0  0  0  0  0
   59.4860   34.3420   46.8100 C   0  0  0  0  0  0  0  0  0  0  0  0
   59.6660   34.5470   45.4290 C   0  0  0  0  0  0  0  0  0  0  0  0
   58.6150   34.3030   44.5390 C   0  0  0  0  0  0  0  0  0  0  0  0
   57.3830   33.8460   45.0180 C   0  0  0  0  0  0  0  0  0  0  0  0
   57.2040   33.6230   46.3860 C   0  0  0  0  0  0  0  0  0  0  0  0
   58.2540   33.8640   47.2780 C   0  0  0  0  0  0  0  0  0  0  0  0
   61.7320   33.1180   49.3190 C   0  0  0  0  0  0  0  0  0  0  0  0
   61.8150   32.5310   50.5850 C   0  0  0  0  0  0  0  0  0  0  0  0
   58.7760   29.6680   50.6540 C   0  0  0  0  0  0  0  0  0  0  0  0
   57.7180   30.1130   51.1830 O   0  0  0  0  0  0  0  0  0  0  0  0
   58.8870   29.6620   49.1730 C   0  0  0  0  0  0  0  0  0  0  0  0
   58.9010   28.4560   48.4490 C   0  0  0  0  0  0  0  0  0  0  0  0
   59.0200   28.4690   47.0550 C   0  0  0  0  0  0  0  0  0  0  0  0
   59.1250   29.6840   46.3630 C   0  0  0  0  0  0  0  0  0  0  0  0
   59.2360   29.6950   44.8630 C   0  0  0  0  0  0  0  0  0  0  0  0
   57.6660   30.1020   44.1140 S   0  0  0  0  0  0  0  0  0  0  0  0
   57.8540   31.4570   42.9770 C   0  0  0  0  0  0  0  0  0  0  0  0
   56.6760   30.4790   45.1810 O   0  0  0  0  0  0  0  0  0  0  0  0
   57.1540   28.9020   43.3690 O   0  0  0  0  0  0  0  0  0  0  0  0
   59.0830   30.8890   47.0800 C   0  0  0  0  0  0  0  0  0  0  0  0
   58.9630   30.8780   48.4730 C   0  0  0  0  0  0  0  0  0  0  0  0
   62.2249   28.2019   52.3439 H   0  0  0  0  0  0  0  0  0  0  0  0
   61.8448   27.2917   50.8427 H   0  0  0  0  0  0  0  0  0  0  0  0
   63.1602   28.5150   50.8427 H   0  0  0  0  0  0  0  0  0  0  0  0
   61.5592   30.3279   51.1404 H   0  0  0  0  0  0  0  0  0  0  0  0
   61.0148   29.2861   49.7564 H   0  0  0  0  0  0  0  0  0  0  0  0
   59.7030   28.1170   51.6200 H   0  0  0  0  0  0  0  0  0  0  0  0
   58.8756   30.4271   52.8767 H   0  0  0  0  0  0  0  0  0  0  0  0
   59.7990   29.0330   53.5935 H   0  0  0  0  0  0  0  0  0  0  0  0
   58.9237   33.7441   51.9470 H   0  0  0  0  0  0  0  0  0  0  0  0
   58.7912   34.8205   49.7030 H   0  0  0  0  0  0  0  0  0  0  0  0
   60.6359   34.9001   45.0488 H   0  0  0  0  0  0  0  0  0  0  0  0
   58.7575   34.4707   43.4612 H   0  0  0  0  0  0  0  0  0  0  0  0
   56.5548   33.6621   44.3179 H   0  0  0  0  0  0  0  0  0  0  0  0
   56.2367   33.2577   46.7614 H   0  0  0  0  0  0  0  0  0  0  0  0
   58.1123   33.6774   48.3528 H   0  0  0  0  0  0  0  0  0  0  0  0
   62.5277   32.9426   48.5800 H   0  0  0  0  0  0  0  0  0  0  0  0
   62.6642   31.8755   50.8282 H   0  0  0  0  0  0  0  0  0  0  0  0
   58.8179   27.4973   48.9819 H   0  0  0  0  0  0  0  0  0  0  0  0
   59.0313   27.5202   46.4985 H   0  0  0  0  0  0  0  0  0  0  0  0
   59.9839   30.4434   44.5622 H   0  0  0  0  0  0  0  0  0  0  0  0
   59.5392   28.6933   44.5244 H   0  0  0  0  0  0  0  0  0  0  0  0
   57.9839   32.3929   43.5402 H   0  0  0  0  0  0  0  0  0  0  0  0
   58.7368   31.2846   42.3438 H   0  0  0  0  0  0  0  0  0  0  0  0
   56.9576   31.5314   42.3438 H   0  0  0  0  0  0  0  0  0  0  0  0
   59.1448   31.8474   46.5436 H   0  0  0  0  0  0  0  0  0  0  0  0
   58.9278   31.8287   49.0252 H   0  0  0  0  0  0  0  0  0  0  0  0
  1  2  1  0
  2  3  1  0
  3  4  1  0
  4  5  1  0
  5  6  2  0
  5  7  1  0
  7  8  1  0
  8  9  2  0
  9 10  1  0
 10 11  2  0
 11 12  1  0
 12 13  1  0
 13 14  2  0
 14 15  1  0
 15 16  2  0
 16 17  1  0
 17 18  2  0
 11 19  1  0
 19 20  2  0
  3 21  1  0
 21 22  2  0
 21 23  1  0
 23 24  2  0
 24 25  1  0
 25 26  2  0
 26 27  1  0
 27 28  1  0
 28 29  1  0
 28 30  2  0
 28 31  2  0
 26 32  1  0
 32 33  2  0
 20  8  1  0
 33 23  1  0
 18 13  1  0
  1 34  1  0
  1 35  1  0
  1 36  1  0
  2 37  1  0
  2 38  1  0
  3 39  1  1
  4 40  1  0
  4 41  1  0
  9 42  1  0
 10 43  1  0
 14 44  1  0
 15 45  1  0
 16 46  1  0
 17 47  1  0
 18 48  1  0
 19 49  1  0
 20 50  1  0
 24 51  1  0
 25 52  1  0
 27 53  1  0
 27 54  1  0
 29 55  1  0
 29 56  1  0
 29 57  1  0
 32 58  1  0
 33 59  1  0
M  CHG  2   3   1   7  -1
M  END
>  <UniqueID>  (55) 
52

>  <SMILES>  (55) 
CC[N@@H+](CC(=O)[N-]c1ccc(Oc2ccccc2)cc1)C(=O)c1ccc(CS(C)(=O)=O)cc1

>  <Energy>  (55) 
70.02807509289246

>  <Genealogy>  (55) 
CC[NH+](CC(=O)[N-]c1ccc(Oc2ccccc2)cc1)C(=O)c1ccc(CS(C)(=O)=O)cc1 (protonated)
CC[N@@H+](CC(=O)[N-]c1ccc(Oc2ccccc2)cc1)C(=O)c1ccc(CS(C)(=O)=O)cc1 (chirality)
CC[N@@H+](CC(=O)[N-]c1ccc(Oc2ccccc2)cc1)C(=O)c1ccc(CS(C)(=O)=O)cc1 (3D coordinates assigned)
CC[N@@H+](CC(=O)[N-]c1ccc(Oc2ccccc2)cc1)C(=O)c1ccc(CS(C)(=O)=O)cc1 (optimized conformer: 70.02807509289246 kcal/mol)

>  <smiles>  (55) 
CCN(CC(=O)Nc1ccc(Oc2ccccc2)cc1)C(=O)c1ccc(CS(C)(=O)=O)cc1

>  <score_type>  (55) 
oracle

>  <origin>  (55) 
adg

>  <m_score__min__energy>  (55) 
-9.3699999999999992

>  <m_primary>  (55) 
energy

$$$$
55:0
     RDKit          3D

 48 50  0  0  0  0  0  0  0  0999 V2000
   54.4330   27.1000   46.7160 H   0  0  0  0  0  0  0  0  0  0  0  0
   55.1330   26.7140   46.0440 N   0  0  0  0  0  0  0  0  0  0  0  0
   56.2920   26.0330   46.5080 C   0  0  0  0  0  0  0  0  0  0  0  0
   56.1820   24.8390   46.9010 O   0  0  0  0  0  0  0  0  0  0  0  0
   57.6150   26.7100   46.5280 C   0  0  0  0  0  0  0  0  0  0  0  0
   58.6560   26.2180   47.3420 C   0  0  0  0  0  0  0  0  0  0  0  0
   58.4917   25.3245   47.9622 H   0  0  0  0  0  0  0  0  0  0  0  0
   59.8970   26.8630   47.3630 C   0  0  0  0  0  0  0  0  0  0  0  0
   60.7073   26.4705   47.9949 H   0  0  0  0  0  0  0  0  0  0  0  0
   60.1130   28.0080   46.5820 C   0  0  0  0  0  0  0  0  0  0  0  0
   61.0976   28.4983   46.5935 H   0  0  0  0  0  0  0  0  0  0  0  0
   59.0860   28.5320   45.7880 C   0  0  0  0  0  0  0  0  0  0  0  0
   59.3060   29.7420   45.1150 O   0  0  0  0  0  0  0  0  0  0  0  0
   58.6690   30.9550   45.4120 C   0  0  0  0  0  0  0  0  0  0  0  0
   59.1780   31.7850   46.3690 N   0  0  0  0  0  0  0  0  0  0  0  0
   58.5800   32.9700   46.6680 C   0  0  0  0  0  0  0  0  0  0  0  0
   59.0370   33.7480   47.6100 N   0  0  0  0  0  0  0  0  0  0  0  0
   60.3140   33.6960   48.2800 C   0  0  0  0  0  0  0  0  0  0  0  0
   60.4180   33.4800   49.6680 C   0  0  0  0  0  0  0  0  0  0  0  0
   59.5053   33.3532   50.2688 H   0  0  0  0  0  0  0  0  0  0  0  0
   61.6680   33.4250   50.2900 C   0  0  0  0  0  0  0  0  0  0  0  0
   61.7315   33.2650   51.3765 H   0  0  0  0  0  0  0  0  0  0  0  0
   62.8460   33.5730   49.5350 C   0  0  0  0  0  0  0  0  0  0  0  0
   64.1680   33.5290   50.2050 C   0  0  0  0  0  0  0  0  0  0  0  0
   64.2920   34.0000   51.3700 O   0  0  0  0  0  0  0  0  0  0  0  0
   65.3150   32.9820   49.5370 N   0  0  0  0  0  0  0  0  0  0  0  0
   65.2610   32.7180   48.5290 H   0  0  0  0  0  0  0  0  0  0  0  0
   66.5930   32.8220   50.2160 C   0  0  0  0  0  0  0  0  0  0  0  0
   66.4349   32.8418   51.3044 H   0  0  0  0  0  0  0  0  0  0  0  0
   67.0432   31.8605   49.9283 H   0  0  0  0  0  0  0  0  0  0  0  0
   67.2664   33.6429   49.9283 H   0  0  0  0  0  0  0  0  0  0  0  0
   62.7480   33.7290   48.1380 C   0  0  0  0  0  0  0  0  0  0  0  0
   63.6640   33.8015   47.5333 H   0  0  0  0  0  0  0  0  0  0  0  0
   61.4940   33.7930   47.5090 C   0  0  0  0  0  0  0  0  0  0  0  0
   61.4260   33.8970   46.0060 C   0  0  0  0  0  0  0  0  0  0  0  0
   60.8438   34.7873   45.7260 H   0  0  0  0  0  0  0  0  0  0  0  0
   62.4440   33.9813   45.5979 H   0  0  0  0  0  0  0  0  0  0  0  0
   60.9406   32.9982   45.5979 H   0  0  0  0  0  0  0  0  0  0  0  0
   57.4390   33.3260   46.0160 N   0  0  0  0  0  0  0  0  0  0  0  0
   56.8800   32.5270   45.0670 C   0  0  0  0  0  0  0  0  0  0  0  0
   55.9567   32.8407   44.5581 H   0  0  0  0  0  0  0  0  0  0  0  0
   57.4810   31.3040   44.7380 C   0  0  0  0  0  0  0  0  0  0  0  0
   56.8800   30.3850   43.6920 C   0  0  0  0  0  0  0  0  0  0  0  0
   55.6940   29.8470   44.1680 F   0  0  0  0  0  0  0  0  0  0  0  0
   57.7340   29.3450   43.3730 F   0  0  0  0  0  0  0  0  0  0  0  0
   56.6220   31.1050   42.5410 F   0  0  0  0  0  0  0  0  0  0  0  0
   57.8390   27.8800   45.7560 C   0  0  0  0  0  0  0  0  0  0  0  0
   57.0305   28.2808   45.1269 H   0  0  0  0  0  0  0  0  0  0  0  0
  1  2  1  0
  2  3  1  0
  3  4  2  0
  3  5  1  0
  5  6  2  0
  6  7  1  0
  6  8  1  0
  8  9  1  0
  8 10  2  0
 10 11  1  0
 10 12  1  0
 12 13  1  0
 13 14  1  0
 14 15  2  0
 15 16  1  0
 16 17  2  0
 17 18  1  0
 18 19  2  0
 19 20  1  0
 19 21  1  0
 21 22  1  0
 21 23  2  0
 23 24  1  0
 24 25  2  0
 24 26  1  0
 26 27  1  0
 26 28  1  0
 28 29  1  0
 28 30  1  0
 28 31  1  0
 23 32  1  0
 32 33  1  0
 32 34  2  0
 34 35  1  0
 35 36  1  0
 35 37  1  0
 35 38  1  0
 16 39  1  0
 39 40  1  0
 40 41  1  0
 40 42  2  0
 42 43  1  0
 43 44  1  0
 43 45  1  0
 43 46  1  0
 12 47  2  0
 47 48  1  0
 47  5  1  0
 42 14  1  0
 34 18  1  0
M  CHG  2   2  -1  39  -1
M  END
>  <UniqueID>  (56) 
53

>  <SMILES>  (56) 
CNC(=O)c1ccc(/N=c2\nc(Oc3cccc(C([NH-])=O)c3)c(C(F)(F)F)c[n-]2)c(C)c1

>  <Energy>  (56) 
63.32223342026873

>  <Genealogy>  (56) 
CNC(=O)c1ccc(N=c2nc(Oc3cccc(C([NH-])=O)c3)c(C(F)(F)F)c[n-]2)c(C)c1 (protonated)
CNC(=O)c1ccc(/N=c2\nc(Oc3cccc(C([NH-])=O)c3)c(C(F)(F)F)c[n-]2)c(C)c1 (cis-trans isomerization)
CNC(=O)c1ccc(/N=c2\nc(Oc3cccc(C([NH-])=O)c3)c(C(F)(F)F)c[n-]2)c(C)c1 (3D coordinates assigned)
CNC(=O)c1ccc(/N=c2\nc(Oc3cccc(C([NH-])=O)c3)c(C(F)(F)F)c[n-]2)c(C)c1 (optimized conformer: 63.32223342026873 kcal/mol)

>  <smiles>  (56) 
CNC(=O)c1ccc(N=c2nc(Oc3cccc(C(N)=O)c3)c(C(F)(F)F)c[nH]2)c(C)c1

>  <score_type>  (56) 
oracle

>  <origin>  (56) 
adg

>  <m_score__min__energy>  (56) 
-13.029999999999999

>  <m_primary>  (56) 
energy

$$$$
56:0
     RDKit          3D

 29 30  0  0  0  0  0  0  0  0999 V2000
   57.8898   25.8573   45.6029 H   0  0  0  0  0  0  0  0  0  0  0  0
   57.5930   26.8880   45.3590 C   0  0  0  0  0  0  0  0  0  0  0  0
   56.2690   27.3040   45.5410 C   0  0  0  0  0  0  0  0  0  0  0  0
   55.2880   26.3880   46.0480 N   0  0  0  0  0  0  0  0  0  0  0  0
   54.5840   26.7190   46.7460 H   0  0  0  0  0  0  0  0  0  0  0  0
   55.2410   24.9960   45.6160 C   0  0  0  0  0  0  0  0  0  0  0  0
   55.2188   24.3389   46.4979 H   0  0  0  0  0  0  0  0  0  0  0  0
   54.3367   24.8298   45.0121 H   0  0  0  0  0  0  0  0  0  0  0  0
   56.1320   24.7692   45.0121 H   0  0  0  0  0  0  0  0  0  0  0  0
   55.9190   28.5840   45.2350 N   0  0  0  0  0  0  0  0  0  0  0  0
   56.8160   29.4890   44.7520 C   0  0  0  0  0  0  0  0  0  0  0  0
   56.4630   30.7090   44.4640 N   0  0  0  0  0  0  0  0  0  0  0  0
   57.3330   31.8210   44.1870 C   0  0  0  0  0  0  0  0  0  0  0  0
   57.4970   32.2290   43.0040 O   0  0  0  0  0  0  0  0  0  0  0  0
   58.0460   32.4940   45.3000 C   0  0  0  0  0  0  0  0  0  0  0  0
   58.1340   31.8820   46.5650 C   0  0  0  0  0  0  0  0  0  0  0  0
   57.6713   30.8975   46.7284 H   0  0  0  0  0  0  0  0  0  0  0  0
   58.8050   32.5160   47.6150 C   0  0  0  0  0  0  0  0  0  0  0  0
   58.8670   32.0302   48.6000 H   0  0  0  0  0  0  0  0  0  0  0  0
   59.3970   33.7660   47.4150 C   0  0  0  0  0  0  0  0  0  0  0  0
   60.2410   34.5590   48.7330 Cl  0  0  0  0  0  0  0  0  0  0  0  0
   59.3170   34.3830   46.1640 C   0  0  0  0  0  0  0  0  0  0  0  0
   59.7830   35.3669   46.0069 H   0  0  0  0  0  0  0  0  0  0  0  0
   58.6460   33.7530   45.1110 C   0  0  0  0  0  0  0  0  0  0  0  0
   58.5868   34.2446   44.1288 H   0  0  0  0  0  0  0  0  0  0  0  0
   58.1470   29.1010   44.5590 C   0  0  0  0  0  0  0  0  0  0  0  0
   58.8831   29.8197   44.1695 H   0  0  0  0  0  0  0  0  0  0  0  0
   58.5330   27.7940   44.8650 C   0  0  0  0  0  0  0  0  0  0  0  0
   59.5765   27.4790   44.7169 H   0  0  0  0  0  0  0  0  0  0  0  0
  1  2  1  0
  2  3  2  0
  3  4  1  0
  4  5  1  0
  4  6  1  0
  6  7  1  0
  6  8  1  0
  6  9  1  0
  3 10  1  0
 10 11  1  0
 11 12  2  0
 12 13  1  0
 13 14  2  0
 13 15  1  0
 15 16  2  0
 16 17  1  0
 16 18  1  0
 18 19  1  0
 18 20  2  0
 20 21  1  0
 20 22  1  0
 22 23  1  0
 22 24  2  0
 24 25  1  0
 11 26  1  0
 26 27  1  0
 26 28  2  0
 28 29  1  0
 28  2  1  0
 24 15  1  0
M  CHG  1  10  -1
M  END
>  <UniqueID>  (57) 
54

>  <SMILES>  (57) 
CNc1ccc/c(=N/C(=O)c2ccc(Cl)cc2)[n-]1

>  <Energy>  (57) 
30.37200020996183

>  <Genealogy>  (57) 
CNc1cccc(=NC(=O)c2ccc(Cl)cc2)[n-]1 (protonated)
CNc1ccc/c(=N/C(=O)c2ccc(Cl)cc2)[n-]1 (cis-trans isomerization)
CNc1ccc/c(=N/C(=O)c2ccc(Cl)cc2)[n-]1 (3D coordinates assigned)
CNc1ccc/c(=N/C(=O)c2ccc(Cl)cc2)[n-]1 (optimized conformer: 30.37200020996183 kcal/mol)

>  <smiles>  (57) 
CNc1cccc(=NC(=O)c2ccc(Cl)cc2)[nH]1

>  <score_type>  (57) 
oracle

>  <origin>  (57) 
adg

>  <m_score__min__energy>  (57) 
-9.4399999999999995

>  <m_primary>  (57) 
energy

$$$$
57:0
     RDKit          3D

 34 35  0  0  0  0  0  0  0  0999 V2000
   56.2180   24.8950   47.4730 N   0  0  0  0  0  0  0  0  0  0  0  0
   56.3570   25.6010   46.3980 C   0  0  0  0  0  0  0  0  0  0  0  0
   55.2440   26.3230   45.8730 N   0  0  0  0  0  0  0  0  0  0  0  0
   57.9350   25.6320   45.5370 S   0  0  0  0  0  0  0  0  0  0  0  0
   58.5280   27.1920   46.3000 C   0  0  0  0  0  0  0  0  0  0  0  0
   57.7560   28.4240   45.8070 C   0  0  1  0  0  0  0  0  0  0  0  0
   58.6630   29.5980   45.3630 C   0  0  0  0  0  0  0  0  0  0  0  0
   58.1730   30.0550   44.0440 N   0  0  2  0  0  0  0  0  0  0  0  0
   57.3830   31.6060   44.1520 S   0  0  0  0  0  0  0  0  0  0  0  0
   55.9420   31.4210   44.5460 O   0  0  0  0  0  0  0  0  0  0  0  0
   57.4330   32.2980   42.8180 O   0  0  0  0  0  0  0  0  0  0  0  0
   58.2120   32.6080   45.3410 C   0  0  0  0  0  0  0  0  0  0  0  0
   58.1430   32.3050   46.7090 C   0  0  0  0  0  0  0  0  0  0  0  0
   58.8190   33.1010   47.6390 C   0  0  0  0  0  0  0  0  0  0  0  0
   59.5680   34.1990   47.2090 C   0  0  0  0  0  0  0  0  0  0  0  0
   60.2240   34.9680   48.1120 F   0  0  0  0  0  0  0  0  0  0  0  0
   59.6450   34.5020   45.8450 C   0  0  0  0  0  0  0  0  0  0  0  0
   58.9690   33.7080   44.9130 C   0  0  0  0  0  0  0  0  0  0  0  0
   57.2200   29.0560   43.6920 C   0  0  0  0  0  0  0  0  0  0  0  0
   56.6680   29.0060   42.5610 O   0  0  0  0  0  0  0  0  0  0  0  0
   56.9780   28.1220   44.6700 O   0  0  0  0  0  0  0  0  0  0  0  0
   56.9700   24.8550   48.1970 H   0  0  0  0  0  0  0  0  0  0  0  0
   54.3280   26.3210   46.3730 H   0  0  0  0  0  0  0  0  0  0  0  0
   55.3260   26.8310   44.9660 H   0  0  0  0  0  0  0  0  0  0  0  0
   58.4108   27.1167   47.3911 H   0  0  0  0  0  0  0  0  0  0  0  0
   59.5815   27.3231   46.0119 H   0  0  0  0  0  0  0  0  0  0  0  0
   57.1502   28.7156   46.6776 H   0  0  0  0  0  0  0  0  0  0  0  0
   58.6014   30.4187   46.0929 H   0  0  0  0  0  0  0  0  0  0  0  0
   59.7134   29.2775   45.2996 H   0  0  0  0  0  0  0  0  0  0  0  0
   58.9450   30.0840   43.3400 H   0  0  0  0  0  0  0  0  0  0  0  0
   57.5561   31.4397   47.0507 H   0  0  0  0  0  0  0  0  0  0  0  0
   58.7609   32.8621   48.7112 H   0  0  0  0  0  0  0  0  0  0  0  0
   60.2372   35.3647   45.5058 H   0  0  0  0  0  0  0  0  0  0  0  0
   59.0313   33.9471   43.8411 H   0  0  0  0  0  0  0  0  0  0  0  0
  1  2  2  3
  2  3  1  0
  2  4  1  0
  4  5  1  0
  5  6  1  0
  6  7  1  0
  7  8  1  0
  8  9  1  0
  9 10  2  0
  9 11  2  0
  9 12  1  0
 12 13  2  0
 13 14  1  0
 14 15  2  0
 15 16  1  0
 15 17  1  0
 17 18  2  0
  8 19  1  0
 19 20  2  0
 19 21  1  0
 21  6  1  0
 18 12  1  0
  1 22  1  0
  3 23  1  0
  3 24  1  0
  5 25  1  0
  5 26  1  0
  6 27  1  1
  7 28  1  0
  7 29  1  0
  8 30  1  6
 13 31  1  0
 14 32  1  0
 17 33  1  0
 18 34  1  0
M  CHG  1   8   1
M  END
>  <UniqueID>  (58) 
55

>  <SMILES>  (58) 
N=C(N)SC[C@H]1C[N@H+](S(=O)(=O)c2ccc(F)cc2)C(=O)O1

>  <Energy>  (58) 
37.22432170959624

>  <Genealogy>  (58) 
N=C(N)SCC1C[NH+](S(=O)(=O)c2ccc(F)cc2)C(=O)O1 (protonated)
N=C(N)SC[C@H]1C[N@H+](S(=O)(=O)c2ccc(F)cc2)C(=O)O1 (chirality)
N=C(N)SC[C@H]1C[N@H+](S(=O)(=O)c2ccc(F)cc2)C(=O)O1 (3D coordinates assigned)
N=C(N)SC[C@H]1C[N@H+](S(=O)(=O)c2ccc(F)cc2)C(=O)O1 (nonaromatic ring conformer: 37.22432170959624 kcal/mol)

>  <smiles>  (58) 
N=C(N)SCC1CN(S(=O)(=O)c2ccc(F)cc2)C(=O)O1

>  <score_type>  (58) 
oracle

>  <origin>  (58) 
adg

>  <m_score__min__energy>  (58) 
-6.9800000000000004

>  <m_primary>  (58) 
energy

$$$$
58:0
     RDKit          3D

 34 35  0  0  0  0  0  0  0  0999 V2000
   61.8564   34.1958   49.2766 H   0  0  0  0  0  0  0  0  0  0  0  0
   61.1730   34.1720   48.4150 C   0  0  0  0  0  0  0  0  0  0  0  0
   61.6480   33.7880   47.1580 C   0  0  0  0  0  0  0  0  0  0  0  0
   62.7054   33.5133   47.0299 H   0  0  0  0  0  0  0  0  0  0  0  0
   60.7780   33.7530   46.0620 C   0  0  0  0  0  0  0  0  0  0  0  0
   61.1553   33.4574   45.0719 H   0  0  0  0  0  0  0  0  0  0  0  0
   59.4250   34.0940   46.2220 C   0  0  0  0  0  0  0  0  0  0  0  0
   58.4950   34.0900   45.0400 C   0  0  0  0  0  0  0  0  0  0  0  0
   59.0607   33.8338   44.1321 H   0  0  0  0  0  0  0  0  0  0  0  0
   58.0459   35.0881   44.9300 H   0  0  0  0  0  0  0  0  0  0  0  0
   57.4040   33.0780   45.2490 C   0  0  0  0  0  0  0  0  0  0  0  0
   56.7200   33.1160   46.3050 O   0  0  0  0  0  0  0  0  0  0  0  0
   57.2400   31.9760   44.3500 N   0  0  0  0  0  0  0  0  0  0  0  0
   57.0420   30.7250   44.6560 C   0  0  0  0  0  0  0  0  0  0  0  0
   55.8430   30.1390   44.4790 N   0  0  0  0  0  0  0  0  0  0  0  0
   55.9290   28.8970   44.9260 N   0  0  0  0  0  0  0  0  0  0  0  0
   55.1430   28.2110   44.8990 H   0  0  0  0  0  0  0  0  0  0  0  0
   57.1740   28.6650   45.3800 C   0  0  0  0  0  0  0  0  0  0  0  0
   57.6480   27.3340   45.8750 C   0  0  0  0  0  0  0  0  0  0  0  0
   57.6491   27.3310   46.9750 H   0  0  0  0  0  0  0  0  0  0  0  0
   56.9755   26.5452   45.5069 H   0  0  0  0  0  0  0  0  0  0  0  0
   58.6677   27.1478   45.5069 H   0  0  0  0  0  0  0  0  0  0  0  0
   57.9410   29.8100   45.2140 C   0  0  0  0  0  0  0  0  0  0  0  0
   59.4050   29.8940   45.3700 C   0  0  0  0  0  0  0  0  0  0  0  0
   60.1550   29.3270   44.5280 O   0  0  0  0  0  0  0  0  0  0  0  0
   59.9560   30.6420   46.4130 O   0  0  0  0  0  0  0  0  0  0  0  0
   59.2710   30.8710   47.6380 C   0  0  0  0  0  0  0  0  0  0  0  0
   59.9417   30.6468   48.4806 H   0  0  0  0  0  0  0  0  0  0  0  0
   58.9555   31.9235   47.6905 H   0  0  0  0  0  0  0  0  0  0  0  0
   58.3860   30.2199   47.6905 H   0  0  0  0  0  0  0  0  0  0  0  0
   58.9590   34.4910   47.4860 C   0  0  0  0  0  0  0  0  0  0  0  0
   57.9045   34.7755   47.6165 H   0  0  0  0  0  0  0  0  0  0  0  0
   59.8300   34.5260   48.5790 C   0  0  0  0  0  0  0  0  0  0  0  0
   59.4589   34.8321   49.5682 H   0  0  0  0  0  0  0  0  0  0  0  0
  1  2  1  0
  2  3  2  0
  3  4  1  0
  3  5  1  0
  5  6  1  0
  5  7  2  0
  7  8  1  0
  8  9  1  0
  8 10  1  0
  8 11  1  0
 11 12  2  0
 11 13  1  0
 13 14  2  0
 14 15  1  0
 15 16  1  0
 16 17  1  0
 16 18  1  0
 18 19  1  0
 19 20  1  0
 19 21  1  0
 19 22  1  0
 18 23  2  0
 23 24  1  0
 24 25  2  0
 24 26  1  0
 26 27  1  0
 27 28  1  0
 27 29  1  0
 27 30  1  0
  7 31  1  0
 31 32  1  0
 31 33  2  0
 33 34  1  0
 33  2  1  0
 23 14  1  0
M  CHG  1  15  -1
M  END
>  <UniqueID>  (59) 
56

>  <SMILES>  (59) 
COC(=O)c1c(C)[nH][n-]/c1=N/C(=O)Cc1ccccc1

>  <Energy>  (59) 
74.17419811325854

>  <Genealogy>  (59) 
COC(=O)c1c(C)[nH][n-]c1=NC(=O)Cc1ccccc1 (protonated)
COC(=O)c1c(C)[nH][n-]/c1=N/C(=O)Cc1ccccc1 (cis-trans isomerization)
COC(=O)c1c(C)[nH][n-]/c1=N/C(=O)Cc1ccccc1 (3D coordinates assigned)
COC(=O)c1c(C)[nH][n-]/c1=N/C(=O)Cc1ccccc1 (optimized conformer: 74.17419811325854 kcal/mol)

>  <smiles>  (59) 
COC(=O)c1c(C)[nH][nH]c1=NC(=O)Cc1ccccc1

>  <score_type>  (59) 
oracle

>  <origin>  (59) 
adg

>  <m_score__min__energy>  (59) 
-8.8200000000000003

>  <m_primary>  (59) 
energy

$$$$
59:0
     RDKit          3D

 30 32  0  0  0  0  0  0  0  0999 V2000
   57.7728   31.8456   42.8994 H   0  0  0  0  0  0  0  0  0  0  0  0
   57.8040   31.5630   43.9620 C   0  0  0  0  0  0  0  0  0  0  0  0
   57.5190   30.2780   44.2700 C   0  0  0  0  0  0  0  0  0  0  0  0
   56.1460   29.8130   44.5870 C   0  0  0  0  0  0  0  0  0  0  0  0
   55.1240   30.4650   44.2490 O   0  0  0  0  0  0  0  0  0  0  0  0
   55.9930   28.5610   45.2460 N   0  0  0  0  0  0  0  0  0  0  0  0
   57.1480   27.7820   45.5570 C   0  0  0  0  0  0  0  0  0  0  0  0
   57.0210   26.6480   46.3660 C   0  0  0  0  0  0  0  0  0  0  0  0
   56.0316   26.3514   46.7444 H   0  0  0  0  0  0  0  0  0  0  0  0
   58.1480   25.8920   46.6940 C   0  0  0  0  0  0  0  0  0  0  0  0
   58.0464   25.0046   47.3360 H   0  0  0  0  0  0  0  0  0  0  0  0
   59.4040   26.2610   46.2080 C   0  0  0  0  0  0  0  0  0  0  0  0
   60.2901   25.6633   46.4679 H   0  0  0  0  0  0  0  0  0  0  0  0
   59.5380   27.3880   45.3920 C   0  0  0  0  0  0  0  0  0  0  0  0
   60.5282   27.6634   45.0001 H   0  0  0  0  0  0  0  0  0  0  0  0
   58.4160   28.1730   45.0680 C   0  0  0  0  0  0  0  0  0  0  0  0
   58.5590   29.2760   44.1370 N   0  0  0  0  0  0  0  0  0  0  0  0
   59.4970   29.7170   44.2870 H   0  0  0  0  0  0  0  0  0  0  0  0
   58.5230   28.8920   43.1650 H   0  0  0  0  0  0  0  0  0  0  0  0
   58.1540   32.6200   44.9340 C   0  0  0  0  0  0  0  0  0  0  0  0
   58.8780   33.7420   44.4990 C   0  0  0  0  0  0  0  0  0  0  0  0
   59.1454   33.8437   43.4369 H   0  0  0  0  0  0  0  0  0  0  0  0
   59.2600   34.7300   45.4110 C   0  0  0  0  0  0  0  0  0  0  0  0
   59.8122   35.6150   45.0620 H   0  0  0  0  0  0  0  0  0  0  0  0
   58.9420   34.5960   46.7650 C   0  0  0  0  0  0  0  0  0  0  0  0
   59.2388   35.3777   47.4797 H   0  0  0  0  0  0  0  0  0  0  0  0
   58.2470   33.4690   47.2110 C   0  0  0  0  0  0  0  0  0  0  0  0
   58.0017   33.3614   48.2779 H   0  0  0  0  0  0  0  0  0  0  0  0
   57.8630   32.4780   46.3030 C   0  0  0  0  0  0  0  0  0  0  0  0
   57.3313   31.5838   46.6603 H   0  0  0  0  0  0  0  0  0  0  0  0
  1  2  1  0
  2  3  2  0
  3  4  1  0
  4  5  2  0
  4  6  1  0
  6  7  1  0
  7  8  2  0
  8  9  1  0
  8 10  1  0
 10 11  1  0
 10 12  2  0
 12 13  1  0
 12 14  1  0
 14 15  1  0
 14 16  2  0
 16 17  1  0
 17 18  1  0
 17 19  1  0
  2 20  1  0
 20 21  2  0
 21 22  1  0
 21 23  1  0
 23 24  1  0
 23 25  2  0
 25 26  1  0
 25 27  1  0
 27 28  1  0
 27 29  2  0
 29 30  1  0
 17  3  1  0
 29 20  1  0
 16  7  1  0
M  CHG  2   6  -1  17   1
M  END
>  <UniqueID>  (60) 
57

>  <SMILES>  (60) 
O=C1[N-]c2ccccc2[NH2+]/C1=C/c1ccccc1

>  <Energy>  (60) 
47.81638251956645

>  <Genealogy>  (60) 
O=C1[N-]c2ccccc2[NH2+]C1=Cc1ccccc1 (protonated)
O=C1[N-]c2ccccc2[NH2+]/C1=C/c1ccccc1 (cis-trans isomerization)
O=C1[N-]c2ccccc2[NH2+]/C1=C/c1ccccc1 (3D coordinates assigned)
O=C1[N-]c2ccccc2[NH2+]/C1=C/c1ccccc1 (nonaromatic ring conformer: 47.81638251956645 kcal/mol)

>  <smiles>  (60) 
O=C1Nc2ccccc2NC1=Cc1ccccc1

>  <score_type>  (60) 
oracle

>  <origin>  (60) 
adg

>  <m_score__min__energy>  (60) 
-8.5500000000000007

>  <m_primary>  (60) 
energy

$$$$
60:0
     RDKit          3D

 36 39  0  0  0  0  0  0  0  0999 V2000
   59.7691   35.0034   43.7531 H   0  0  0  0  0  0  0  0  0  0  0  0
   59.2060   34.4670   44.5310 C   0  0  0  0  0  0  0  0  0  0  0  0
   58.4870   33.3140   44.2030 C   0  0  0  0  0  0  0  0  0  0  0  0
   58.5033   32.9332   43.1711 H   0  0  0  0  0  0  0  0  0  0  0  0
   57.7430   32.6390   45.1870 C   0  0  0  0  0  0  0  0  0  0  0  0
   54.9280   24.8740   46.0240 N   0  0  0  0  0  0  0  0  0  0  0  0
   55.8850   25.7570   46.0140 C   0  0  0  0  0  0  0  0  0  0  0  0
   55.6540   27.0520   45.6520 N   0  0  0  0  0  0  0  0  0  0  0  0
   56.6460   27.9800   45.6360 C   0  0  0  0  0  0  0  0  0  0  0  0
   56.3860   29.2620   45.2740 N   0  0  0  0  0  0  0  0  0  0  0  0
   57.3600   30.2110   45.2590 C   0  0  0  0  0  0  0  0  0  0  0  0
   57.0440   31.4210   44.8880 N   0  0  0  0  0  0  0  0  0  0  0  0
   54.7380   23.7970   45.0910 C   0  0  0  0  0  0  0  0  0  0  0  0
   53.5920   23.3240   44.8620 O   0  0  0  0  0  0  0  0  0  0  0  0
   55.9320   23.1900   44.4230 C   0  0  0  0  0  0  0  0  0  0  0  0
   56.2446   22.5711   45.2770 H   0  0  0  0  0  0  0  0  0  0  0  0
   55.7760   22.9650   42.9270 C   0  0  0  0  0  0  0  0  0  0  0  0
   56.2434   22.0906   42.4507 H   0  0  0  0  0  0  0  0  0  0  0  0
   54.9227   22.8846   42.2375 H   0  0  0  0  0  0  0  0  0  0  0  0
   56.6410   24.1050   43.4370 C   0  0  0  0  0  0  0  0  0  0  0  0
   57.7347   24.0559   43.3298 H   0  0  0  0  0  0  0  0  0  0  0  0
   56.6732   25.1917   43.2695 H   0  0  0  0  0  0  0  0  0  0  0  0
   58.6770   29.8360   45.6060 C   0  0  0  0  0  0  0  0  0  0  0  0
   59.4874   30.5794   45.5834 H   0  0  0  0  0  0  0  0  0  0  0  0
   58.2190   26.2990   46.3720 C   0  0  0  0  0  0  0  0  0  0  0  0
   59.2378   25.9993   46.6588 H   0  0  0  0  0  0  0  0  0  0  0  0
   57.9540   27.6170   45.9980 C   0  0  0  0  0  0  0  0  0  0  0  0
   58.9380   28.5520   45.9680 N   0  0  0  0  0  0  0  0  0  0  0  0
   57.1820   25.3620   46.3800 C   0  0  0  0  0  0  0  0  0  0  0  0
   57.3808   24.3201   46.6716 H   0  0  0  0  0  0  0  0  0  0  0  0
   57.7800   33.0990   46.5100 C   0  0  0  0  0  0  0  0  0  0  0  0
   57.2398   32.5501   47.2954 H   0  0  0  0  0  0  0  0  0  0  0  0
   58.5000   34.2520   46.8370 C   0  0  0  0  0  0  0  0  0  0  0  0
   58.5081   34.6192   47.8739 H   0  0  0  0  0  0  0  0  0  0  0  0
   59.2100   34.9390   45.8470 C   0  0  0  0  0  0  0  0  0  0  0  0
   59.9100   36.0550   46.1660 F   0  0  0  0  0  0  0  0  0  0  0  0
  1  2  1  0
  2  3  2  0
  3  4  1  0
  3  5  1  0
  5  6  1  0
  6  7  2  0
  7  8  1  0
  8  9  1  0
  9 10  1  0
 10 11  1  0
 11 12  2  0
 12 13  1  0
 13 14  2  0
 13 15  1  0
 15 16  1  0
 15 17  1  0
 17 18  1  0
 17 19  1  0
 17 20  1  0
 20 21  1  0
 20 22  1  0
 11 23  1  0
 23 24  1  0
 23 25  2  0
 25 26  1  0
 25 27  1  0
 27 28  1  0
 28 29  2  0
 29 30  1  0
  5 31  2  0
 31 32  1  0
 31 33  1  0
 33 34  1  0
 33 35  2  0
 35 36  1  0
 35  2  1  0
 29  7  1  0
 27  9  2  0
 20 15  1  0
M  CHG  2   8  -1  10  -1
M  END
>  <UniqueID>  (61) 
58

>  <SMILES>  (61) 
O=C(/N=c1/ccc2nc/c(=N\c3ccc(F)cc3)[n-]c2[n-]1)C1CC1

>  <Energy>  (61) 
319.18943084371995

>  <Genealogy>  (61) 
O=C(N=c1ccc2ncc(=Nc3ccc(F)cc3)[n-]c2[n-]1)C1CC1 (protonated)
O=C(/N=c1/ccc2nc/c(=N\c3ccc(F)cc3)[n-]c2[n-]1)C1CC1 (cis-trans isomerization)
O=C(/N=c1/ccc2nc/c(=N\c3ccc(F)cc3)[n-]c2[n-]1)C1CC1 (3D coordinates assigned)
O=C(/N=c1/ccc2nc/c(=N\c3ccc(F)cc3)[n-]c2[n-]1)C1CC1 (nonaromatic ring conformer: 319.18943084371995 kcal/mol)

>  <smiles>  (61) 
O=C(N=c1ccc2ncc(=Nc3ccc(F)cc3)[nH]c2[nH]1)C1CC1

>  <score_type>  (61) 
oracle

>  <origin>  (61) 
adg

>  <m_score__min__energy>  (61) 
-11.960000000000001

>  <m_primary>  (61) 
energy

$$$$
61:0
     RDKit          3D

 43 46  0  0  0  0  0  0  0  0999 V2000
   56.3210   24.0260   47.7830 C   0  0  0  0  0  0  0  0  0  0  0  0
   56.5370   23.7140   46.3250 C   0  0  0  0  0  0  0  0  0  0  0  0
   57.4710   22.7260   45.9670 C   0  0  0  0  0  0  0  0  0  0  0  0
   57.6960   22.4140   44.6240 C   0  0  0  0  0  0  0  0  0  0  0  0
   56.9920   23.0840   43.6240 C   0  0  0  0  0  0  0  0  0  0  0  0
   56.0690   24.0750   43.9600 C   0  0  0  0  0  0  0  0  0  0  0  0
   55.8420   24.4150   45.3050 C   0  0  0  0  0  0  0  0  0  0  0  0
   54.8210   25.4770   45.6250 C   0  0  0  0  0  0  0  0  0  0  0  0
   55.5020   26.6710   46.1120 N   0  0  0  0  0  0  0  0  0  0  0  0
   56.8050   27.0930   45.6930 C   0  0  0  0  0  0  0  0  0  0  0  0
   57.7420   26.2510   45.6820 O   0  0  0  0  0  0  0  0  0  0  0  0
   57.0910   28.4880   45.3050 C   0  0  0  0  0  0  0  0  0  0  0  0
   56.7580   28.9550   44.0230 C   0  0  0  0  0  0  0  0  0  0  0  0
   57.0410   30.2710   43.6510 C   0  0  0  0  0  0  0  0  0  0  0  0
   57.6760   31.1390   44.5570 C   0  0  0  0  0  0  0  0  0  0  0  0
   57.9820   32.4750   44.2340 C   0  0  0  0  0  0  0  0  0  0  0  0
   57.6910   32.9540   43.1030 O   0  0  0  0  0  0  0  0  0  0  0  0
   58.6010   33.2480   45.1680 N   0  0  0  0  0  0  0  0  0  0  0  0
   58.9260   32.7720   46.3800 C   0  0  0  0  0  0  0  0  0  0  0  0
   58.6510   31.4910   46.7290 N   0  0  0  0  0  0  0  0  0  0  0  0
   58.0310   30.6630   45.8440 C   0  0  0  0  0  0  0  0  0  0  0  0
   57.7450   29.3430   46.2050 C   0  0  0  0  0  0  0  0  0  0  0  0
   59.5910   33.7600   47.2520 C   0  0  0  0  0  0  0  0  0  0  0  0
   59.6430   35.0170   46.3670 C   0  0  0  0  0  0  0  0  0  0  0  0
   58.9950   34.6370   45.0210 C   0  0  0  0  0  0  0  0  0  0  0  0
   56.8397   23.2767   48.3991 H   0  0  0  0  0  0  0  0  0  0  0  0
   56.7212   25.0258   48.0072 H   0  0  0  0  0  0  0  0  0  0  0  0
   55.2443   24.0033   48.0072 H   0  0  0  0  0  0  0  0  0  0  0  0
   58.0295   22.1940   46.7513 H   0  0  0  0  0  0  0  0  0  0  0  0
   58.4291   21.6392   44.3551 H   0  0  0  0  0  0  0  0  0  0  0  0
   57.1647   22.8306   42.5676 H   0  0  0  0  0  0  0  0  0  0  0  0
   55.5140   24.5949   43.1652 H   0  0  0  0  0  0  0  0  0  0  0  0
   54.2511   25.7239   44.7171 H   0  0  0  0  0  0  0  0  0  0  0  0
   54.1329   25.1047   46.3983 H   0  0  0  0  0  0  0  0  0  0  0  0
   56.2701   28.2785   43.3058 H   0  0  0  0  0  0  0  0  0  0  0  0
   56.7668   30.6291   42.6477 H   0  0  0  0  0  0  0  0  0  0  0  0
   58.0342   28.9728   47.1997 H   0  0  0  0  0  0  0  0  0  0  0  0
   59.0037   33.9419   48.1641 H   0  0  0  0  0  0  0  0  0  0  0  0
   60.5812   33.4338   47.6029 H   0  0  0  0  0  0  0  0  0  0  0  0
   59.0825   35.8371   46.8396 H   0  0  0  0  0  0  0  0  0  0  0  0
   60.6788   35.3590   46.2253 H   0  0  0  0  0  0  0  0  0  0  0  0
   58.1162   35.2686   44.8238 H   0  0  0  0  0  0  0  0  0  0  0  0
   59.6851   34.7818   44.1767 H   0  0  0  0  0  0  0  0  0  0  0  0
  1  2  1  0
  2  3  2  0
  3  4  1  0
  4  5  2  0
  5  6  1  0
  6  7  2  0
  7  8  1  0
  8  9  1  0
  9 10  1  0
 10 11  2  0
 10 12  1  0
 12 13  2  0
 13 14  1  0
 14 15  2  0
 15 16  1  0
 16 17  2  0
 16 18  1  0
 18 19  1  0
 19 20  2  0
 20 21  1  0
 21 22  2  0
 19 23  1  0
 23 24  1  0
 24 25  1  0
  7  2  1  0
 22 12  1  0
 21 15  1  0
 25 18  1  0
  1 26  1  0
  1 27  1  0
  1 28  1  0
  3 29  1  0
  4 30  1  0
  5 31  1  0
  6 32  1  0
  8 33  1  0
  8 34  1  0
 13 35  1  0
 14 36  1  0
 22 37  1  0
 23 38  1  0
 23 39  1  0
 24 40  1  0
 24 41  1  0
 25 42  1  0
 25 43  1  0
M  CHG  1   9  -1
M  END
>  <UniqueID>  (62) 
59

>  <SMILES>  (62) 
Cc1ccccc1C[N-]C(=O)c1ccc2c(=O)n3c(nc2c1)CCC3

>  <Energy>  (62) 
63.15794177004204

>  <Genealogy>  (62) 
Cc1ccccc1C[N-]C(=O)c1ccc2c(=O)n3c(nc2c1)CCC3 (protonated)
Cc1ccccc1C[N-]C(=O)c1ccc2c(=O)n3c(nc2c1)CCC3 (3D coordinates assigned)
Cc1ccccc1C[N-]C(=O)c1ccc2c(=O)n3c(nc2c1)CCC3 (nonaromatic ring conformer: 63.15794177004204 kcal/mol)

>  <smiles>  (62) 
Cc1ccccc1CNC(=O)c1ccc2c(=O)n3c(nc2c1)CCC3

>  <score_type>  (62) 
oracle

>  <origin>  (62) 
adg

>  <m_score__min__energy>  (62) 
-9.9499999999999993

>  <m_primary>  (62) 
energy

$$$$
62:0
     RDKit          3D

 53 56  0  0  0  0  0  0  0  0999 V2000
   58.9510   34.0250   53.9910 C   0  0  0  0  0  0  0  0  0  0  0  0
   59.7600   33.7170   52.7640 C   0  0  0  0  0  0  0  0  0  0  0  0
   61.1590   33.7200   52.8210 C   0  0  0  0  0  0  0  0  0  0  0  0
   61.9100   33.4640   51.6740 C   0  0  0  0  0  0  0  0  0  0  0  0
   61.2780   33.2180   50.4470 C   0  0  0  0  0  0  0  0  0  0  0  0
   62.1250   33.0040   49.2550 C   0  0  0  0  0  0  0  0  0  0  0  0
   62.6170   34.0970   48.6090 N   0  0  0  0  0  0  0  0  0  0  0  0
   63.4170   33.9920   47.5160 C   0  0  0  0  0  0  0  0  0  0  0  0
   63.7590   32.7350   47.0200 C   0  0  0  0  0  0  0  0  0  0  0  0
   63.2600   31.5930   47.6470 C   0  0  0  0  0  0  0  0  0  0  0  0
   62.4180   31.7100   48.7630 C   0  0  0  0  0  0  0  0  0  0  0  0
   61.8840   30.4640   49.4190 C   0  0  0  0  0  0  0  0  0  0  0  0
   59.8610   33.2100   50.3770 C   0  0  0  0  0  0  0  0  0  0  0  0
   59.1400   32.8940   49.1220 C   0  0  0  0  0  0  0  0  0  0  0  0
   58.0890   32.1970   49.1610 O   0  0  0  0  0  0  0  0  0  0  0  0
   59.6480   33.3560   47.8600 N   0  0  0  0  0  0  0  0  0  0  0  0
   58.9140   33.2200   46.6310 C   0  0  0  0  0  0  0  0  0  0  0  0
   58.2020   34.3190   46.1260 C   0  0  0  0  0  0  0  0  0  0  0  0
   57.4820   34.2120   44.9380 C   0  0  0  0  0  0  0  0  0  0  0  0
   57.4560   33.0060   44.2420 C   0  0  0  0  0  0  0  0  0  0  0  0
   58.1490   31.8890   44.7300 C   0  0  0  0  0  0  0  0  0  0  0  0
   58.9170   31.9980   45.9140 C   0  0  0  0  0  0  0  0  0  0  0  0
   59.6180   30.7820   46.4820 C   0  0  0  0  0  0  0  0  0  0  0  0
   59.6920   29.6080   45.4920 C   0  0  0  0  0  0  0  0  0  0  0  0
   58.4370   29.4170   44.7430 N   0  0  0  0  0  0  0  0  0  0  0  0
   57.3130   29.0210   45.6070 C   0  0  0  0  0  0  0  0  0  0  0  0
   58.1220   30.6070   43.9300 C   0  0  0  0  0  0  0  0  0  0  0  0
   59.1190   33.4760   51.5410 C   0  0  0  0  0  0  0  0  0  0  0  0
   59.5454   33.7987   54.8885 H   0  0  0  0  0  0  0  0  0  0  0  0
   58.6770   35.0903   53.9917 H   0  0  0  0  0  0  0  0  0  0  0  0
   58.0379   33.4116   53.9917 H   0  0  0  0  0  0  0  0  0  0  0  0
   61.6679   33.9251   53.7744 H   0  0  0  0  0  0  0  0  0  0  0  0
   63.0084   33.4550   51.7326 H   0  0  0  0  0  0  0  0  0  0  0  0
   63.7950   34.8993   47.0222 H   0  0  0  0  0  0  0  0  0  0  0  0
   64.4161   32.6444   46.1425 H   0  0  0  0  0  0  0  0  0  0  0  0
   63.5278   30.5969   47.2648 H   0  0  0  0  0  0  0  0  0  0  0  0
   61.9319   30.5759   50.5122 H   0  0  0  0  0  0  0  0  0  0  0  0
   60.8395   30.3068   49.1120 H   0  0  0  0  0  0  0  0  0  0  0  0
   62.4905   29.5992   49.1120 H   0  0  0  0  0  0  0  0  0  0  0  0
   60.6180   33.7400   47.8280 H   0  0  0  0  0  0  0  0  0  0  0  0
   58.2125   35.2733   46.6730 H   0  0  0  0  0  0  0  0  0  0  0  0
   56.9328   35.0821   44.5489 H   0  0  0  0  0  0  0  0  0  0  0  0
   56.8880   32.9292   43.3031 H   0  0  0  0  0  0  0  0  0  0  0  0
   60.6425   31.0682   46.7622 H   0  0  0  0  0  0  0  0  0  0  0  0
   59.0322   30.4422   47.3488 H   0  0  0  0  0  0  0  0  0  0  0  0
   60.5036   29.8023   44.7754 H   0  0  0  0  0  0  0  0  0  0  0  0
   59.8746   28.6928   46.0742 H   0  0  0  0  0  0  0  0  0  0  0  0
   57.6072   29.1246   46.6619 H   0  0  0  0  0  0  0  0  0  0  0  0
   56.4475   29.6683   45.4024 H   0  0  0  0  0  0  0  0  0  0  0  0
   57.0444   27.9741   45.4024 H   0  0  0  0  0  0  0  0  0  0  0  0
   58.8610   30.6837   43.1188 H   0  0  0  0  0  0  0  0  0  0  0  0
   57.1004   30.4811   43.5420 H   0  0  0  0  0  0  0  0  0  0  0  0
   58.0203   33.4953   51.4913 H   0  0  0  0  0  0  0  0  0  0  0  0
  1  2  1  0
  2  3  2  0
  3  4  1  0
  4  5  2  0
  5  6  1  0
  6  7  2  0
  7  8  1  0
  8  9  2  0
  9 10  1  0
 10 11  2  0
 11 12  1  0
  5 13  1  0
 13 14  1  0
 14 15  2  0
 14 16  1  0
 16 17  1  0
 17 18  2  0
 18 19  1  0
 19 20  2  0
 20 21  1  0
 21 22  2  0
 22 23  1  0
 23 24  1  0
 24 25  1  0
 25 26  1  0
 25 27  1  0
 13 28  2  0
 28  2  1  0
 11  6  1  0
 22 17  1  0
 27 21  1  0
  1 29  1  0
  1 30  1  0
  1 31  1  0
  3 32  1  0
  4 33  1  0
  8 34  1  0
  9 35  1  0
 10 36  1  0
 12 37  1  0
 12 38  1  0
 12 39  1  0
 16 40  1  0
 18 41  1  0
 19 42  1  0
 20 43  1  0
 23 44  1  0
 23 45  1  0
 24 46  1  0
 24 47  1  0
 26 48  1  0
 26 49  1  0
 26 50  1  0
 27 51  1  0
 27 52  1  0
 28 53  1  0
M  END
>  <UniqueID>  (63) 
60

>  <SMILES>  (63) 
Cc1ccc(-c2ncccc2C)c(C(=O)Nc2cccc3c2CCN(C)C3)c1

>  <Energy>  (63) 
77.95725525568291

>  <Genealogy>  (63) 
Cc1ccc(-c2ncccc2C)c(C(=O)Nc2cccc3c2CCN(C)C3)c1 (3D coordinates assigned)
Cc1ccc(-c2ncccc2C)c(C(=O)Nc2cccc3c2CCN(C)C3)c1 (nonaromatic ring conformer: 77.95725525568291 kcal/mol)

>  <smiles>  (63) 
Cc1ccc(-c2ncccc2C)c(C(=O)Nc2cccc3c2CCN(C)C3)c1

>  <score_type>  (63) 
oracle

>  <origin>  (63) 
adg

>  <m_score__min__energy>  (63) 
-8.8200000000000003

>  <m_primary>  (63) 
energy

$$$$
63:0
     RDKit          3D

 57 61  0  0  0  0  0  0  0  0999 V2000
   61.6900   34.2340   50.4930 O   0  0  0  0  0  0  0  0  0  0  0  0
   60.5150   33.6310   50.0430 C   0  0  0  0  0  0  0  0  0  0  0  0
   59.7110   32.9560   50.9660 C   0  0  0  0  0  0  0  0  0  0  0  0
   58.5370   32.3060   50.5590 C   0  0  0  0  0  0  0  0  0  0  0  0
   57.7060   31.6020   51.5640 C   0  0  0  0  0  0  0  0  0  0  0  0
   57.8410   31.6680   52.9550 C   0  0  0  0  0  0  0  0  0  0  0  0
   56.8480   30.8470   53.4350 C   0  0  0  0  0  0  0  0  0  0  0  0
   56.4900   30.5160   54.7410 C   0  0  0  0  0  0  0  0  0  0  0  0
   55.4090   29.6330   54.9180 C   0  0  0  0  0  0  0  0  0  0  0  0
   54.7220   29.1090   53.7990 C   0  0  0  0  0  0  0  0  0  0  0  0
   55.1100   29.4660   52.4940 C   0  0  0  0  0  0  0  0  0  0  0  0
   56.1830   30.3420   52.3520 C   0  0  0  0  0  0  0  0  0  0  0  0
   56.7050   30.7990   51.2410 O   0  0  0  0  0  0  0  0  0  0  0  0
   58.1810   32.3310   49.1990 C   0  0  0  0  0  0  0  0  0  0  0  0
   58.9780   33.0040   48.2580 C   0  0  0  0  0  0  0  0  0  0  0  0
   58.5690   33.0230   46.8330 C   0  0  0  0  0  0  0  0  0  0  0  0
   58.5480   31.8320   46.0860 C   0  0  0  0  0  0  0  0  0  0  0  0
   58.1360   31.8460   44.7490 C   0  0  0  0  0  0  0  0  0  0  0  0
   57.7500   33.0450   44.1470 C   0  0  0  0  0  0  0  0  0  0  0  0
   57.7760   34.2350   44.8780 C   0  0  0  0  0  0  0  0  0  0  0  0
   58.1850   34.2270   46.2150 C   0  0  0  0  0  0  0  0  0  0  0  0
   60.1380   33.6810   48.6890 C   0  0  0  0  0  0  0  0  0  0  0  0
   60.9050   34.4080   47.7710 O   0  0  0  0  0  0  0  0  0  0  0  0
   61.5910   33.7850   46.6870 C   0  0  0  0  0  0  0  0  0  0  0  0
   63.0530   33.5210   47.0580 C   0  0  0  0  0  0  0  0  0  0  0  0
   63.1540   33.0070   48.4390 N   0  0  0  0  0  0  0  0  0  0  0  0
   64.5290   33.1750   48.9580 C   0  0  0  0  0  0  0  0  0  0  0  0
   64.7560   32.3850   50.2660 C   0  0  0  0  0  0  0  0  0  0  0  0
   63.4830   31.9970   50.8870 N   0  0  0  0  0  0  0  0  0  0  0  0
   62.6940   31.1350   49.9910 C   0  0  0  0  0  0  0  0  0  0  0  0
   62.7590   31.5880   48.5180 C   0  0  0  0  0  0  0  0  0  0  0  0
   62.6070   33.8930   50.2320 H   0  0  0  0  0  0  0  0  0  0  0  0
   60.0033   32.9344   52.0262 H   0  0  0  0  0  0  0  0  0  0  0  0
   58.5759   32.2464   53.5341 H   0  0  0  0  0  0  0  0  0  0  0  0
   57.0335   30.9306   55.6028 H   0  0  0  0  0  0  0  0  0  0  0  0
   55.0964   29.3485   55.9336 H   0  0  0  0  0  0  0  0  0  0  0  0
   53.8792   28.4182   53.9491 H   0  0  0  0  0  0  0  0  0  0  0  0
   54.5829   29.0661   51.6152 H   0  0  0  0  0  0  0  0  0  0  0  0
   57.2667   31.8170   48.8676 H   0  0  0  0  0  0  0  0  0  0  0  0
   58.8566   30.8858   46.5545 H   0  0  0  0  0  0  0  0  0  0  0  0
   58.1162   30.9103   44.1710 H   0  0  0  0  0  0  0  0  0  0  0  0
   57.4251   33.0526   43.0961 H   0  0  0  0  0  0  0  0  0  0  0  0
   57.4744   35.1794   44.4013 H   0  0  0  0  0  0  0  0  0  0  0  0
   58.2066   35.1667   46.7864 H   0  0  0  0  0  0  0  0  0  0  0  0
   61.0999   32.8300   46.4489 H   0  0  0  0  0  0  0  0  0  0  0  0
   61.5608   34.4549   45.8150 H   0  0  0  0  0  0  0  0  0  0  0  0
   63.4736   32.7783   46.3641 H   0  0  0  0  0  0  0  0  0  0  0  0
   63.6125   34.4656   46.9893 H   0  0  0  0  0  0  0  0  0  0  0  0
   65.2408   32.8174   48.1994 H   0  0  0  0  0  0  0  0  0  0  0  0
   64.6812   34.2424   49.1758 H   0  0  0  0  0  0  0  0  0  0  0  0
   65.3348   31.4774   50.0398 H   0  0  0  0  0  0  0  0  0  0  0  0
   65.3011   33.0311   50.9698 H   0  0  0  0  0  0  0  0  0  0  0  0
   62.9340   32.8670   51.0920 H   0  0  0  0  0  0  0  0  0  0  0  0
   63.0811   30.1077   50.0605 H   0  0  0  0  0  0  0  0  0  0  0  0
   61.6434   31.1970   50.3112 H   0  0  0  0  0  0  0  0  0  0  0  0
   63.4978   30.9746   47.9814 H   0  0  0  0  0  0  0  0  0  0  0  0
   61.7662   31.4655   48.0604 H   0  0  0  0  0  0  0  0  0  0  0  0
  1  2  1  0
  2  3  2  0
  3  4  1  0
  4  5  1  0
  5  6  2  0
  6  7  1  0
  7  8  2  0
  8  9  1  0
  9 10  2  0
 10 11  1  0
 11 12  2  0
 12 13  1  0
  4 14  2  0
 14 15  1  0
 15 16  1  0
 16 17  2  0
 17 18  1  0
 18 19  2  0
 19 20  1  0
 20 21  2  0
 15 22  2  0
 22 23  1  0
 23 24  1  0
 24 25  1  0
 25 26  1  0
 26 27  1  0
 27 28  1  0
 28 29  1  0
 29 30  1  0
 30 31  1  0
 22  2  1  0
 31 26  1  0
 13  5  1  0
 21 16  1  0
 12  7  1  0
  1 32  1  0
  3 33  1  0
  6 34  1  0
  8 35  1  0
  9 36  1  0
 10 37  1  0
 11 38  1  0
 14 39  1  0
 17 40  1  0
 18 41  1  0
 19 42  1  0
 20 43  1  0
 21 44  1  0
 24 45  1  0
 24 46  1  0
 25 47  1  0
 25 48  1  0
 27 49  1  0
 27 50  1  0
 28 51  1  0
 28 52  1  0
 29 53  1  0
 30 54  1  0
 30 55  1  0
 31 56  1  0
 31 57  1  0
M  END
>  <UniqueID>  (64) 
61

>  <SMILES>  (64) 
Oc1cc(-c2cc3ccccc3o2)cc(-c2ccccc2)c1OCCN1CCNCC1

>  <Energy>  (64) 
114.54964011897384

>  <Genealogy>  (64) 
Oc1cc(-c2cc3ccccc3o2)cc(-c2ccccc2)c1OCCN1CCNCC1 (3D coordinates assigned)
Oc1cc(-c2cc3ccccc3o2)cc(-c2ccccc2)c1OCCN1CCNCC1 (nonaromatic ring conformer: 114.54964011897384 kcal/mol)

>  <smiles>  (64) 
Oc1cc(-c2cc3ccccc3o2)cc(-c2ccccc2)c1OCCN1CCNCC1

>  <score_type>  (64) 
oracle

>  <origin>  (64) 
adg

>  <m_score__min__energy>  (64) 
-7.3399999999999999

>  <m_primary>  (64) 
energy

$$$$
64:0
     RDKit          3D

 32 33  0  0  0  0  0  0  0  0999 V2000
   63.8170   31.9190   47.1550 N   0  0  0  0  0  0  0  0  0  0  0  0
   63.1530   33.5000   47.3730 S   0  0  0  0  0  0  0  0  0  0  0  0
   63.4680   33.9900   48.7580 O   0  0  0  0  0  0  0  0  0  0  0  0
   63.7680   34.4430   46.3780 O   0  0  0  0  0  0  0  0  0  0  0  0
   61.4080   33.4450   47.1430 C   0  0  0  0  0  0  0  0  0  0  0  0
   60.6460   32.4520   47.7730 C   0  0  0  0  0  0  0  0  0  0  0  0
   59.2620   32.3960   47.5770 C   0  0  0  0  0  0  0  0  0  0  0  0
   58.6270   33.3330   46.7460 C   0  0  0  0  0  0  0  0  0  0  0  0
   57.1410   33.2640   46.5090 C   0  0  0  0  0  0  0  0  0  0  0  0
   56.8570   32.6800   45.1980 N   0  0  0  0  0  0  0  0  0  0  0  0
   57.1000   31.4460   44.8640 C   0  0  0  0  0  0  0  0  0  0  0  0
   58.4010   31.0700   44.5170 C   0  0  0  0  0  0  0  0  0  0  0  0
   58.6620   29.7460   44.1620 C   0  0  0  0  0  0  0  0  0  0  0  0
   57.6260   28.7980   44.1520 C   0  0  0  0  0  0  0  0  0  0  0  0
   57.8770   27.4280   43.7910 N   0  0  0  0  0  0  0  0  0  0  0  0
   57.8340   26.5240   44.6510 O   0  0  0  0  0  0  0  0  0  0  0  0
   58.1700   27.0910   42.4880 O   0  0  0  0  0  0  0  0  0  0  0  0
   56.3330   29.2200   44.5050 C   0  0  0  0  0  0  0  0  0  0  0  0
   56.1050   30.5160   44.8470 N   0  0  0  0  0  0  0  0  0  0  0  0
   59.3940   34.3200   46.1080 C   0  0  0  0  0  0  0  0  0  0  0  0
   60.7770   34.3730   46.3050 C   0  0  0  0  0  0  0  0  0  0  0  0
   64.5190   31.9870   46.3850 H   0  0  0  0  0  0  0  0  0  0  0  0
   64.3460   31.6880   48.0250 H   0  0  0  0  0  0  0  0  0  0  0  0
   61.1377   31.7140   48.4239 H   0  0  0  0  0  0  0  0  0  0  0  0
   58.6690   31.6151   48.0757 H   0  0  0  0  0  0  0  0  0  0  0  0
   56.6785   32.6424   47.2899 H   0  0  0  0  0  0  0  0  0  0  0  0
   56.7283   34.2831   46.5410 H   0  0  0  0  0  0  0  0  0  0  0  0
   59.2128   31.8123   44.5238 H   0  0  0  0  0  0  0  0  0  0  0  0
   59.6837   29.4435   43.8888 H   0  0  0  0  0  0  0  0  0  0  0  0
   55.5022   28.4991   44.5046 H   0  0  0  0  0  0  0  0  0  0  0  0
   58.9054   35.0543   45.4508 H   0  0  0  0  0  0  0  0  0  0  0  0
   61.3726   35.1474   45.7994 H   0  0  0  0  0  0  0  0  0  0  0  0
  1  2  1  0
  2  3  2  0
  2  4  2  0
  2  5  1  0
  5  6  2  0
  6  7  1  0
  7  8  2  0
  8  9  1  0
  9 10  1  0
 10 11  2  3
 11 12  1  0
 12 13  2  0
 13 14  1  0
 14 15  1  0
 15 16  2  0
 15 17  1  0
 14 18  2  0
 18 19  1  0
  8 20  1  0
 20 21  2  0
 21  5  1  0
 19 11  1  0
  1 22  1  0
  1 23  1  0
  6 24  1  0
  7 25  1  0
  9 26  1  0
  9 27  1  0
 12 28  1  0
 13 29  1  0
 18 30  1  0
 20 31  1  0
 21 32  1  0
M  CHG  3  15   1  17  -1  19  -1
M  END
>  <UniqueID>  (65) 
62

>  <SMILES>  (65) 
NS(=O)(=O)c1ccc(CN=c2ccc([N+](=O)[O-])c[n-]2)cc1

>  <Energy>  (65) 
32.06312205811296

>  <Genealogy>  (65) 
NS(=O)(=O)c1ccc(CN=c2ccc([N+](=O)[O-])c[n-]2)cc1 (protonated)
NS(=O)(=O)c1ccc(CN=c2ccc([N+](=O)[O-])c[n-]2)cc1 (3D coordinates assigned)
NS(=O)(=O)c1ccc(CN=c2ccc([N+](=O)[O-])c[n-]2)cc1 (optimized conformer: 32.06312205811296 kcal/mol)

>  <smiles>  (65) 
NS(=O)(=O)c1ccc(CN=c2ccc([N+](=O)[O-])c[nH]2)cc1

>  <score_type>  (65) 
oracle

>  <origin>  (65) 
adg

>  <m_score__min__energy>  (65) 
-9.3100000000000005

>  <m_primary>  (65) 
energy

$$$$
65:0
     RDKit          3D

 82 89  0  0  0  0  0  0  0  0999 V2000
   65.6210   30.9370   53.7450 O   0  0  0  0  0  0  0  0  0  0  0  0
   66.7780   31.0720   53.2540 C   0  0  0  0  0  0  0  0  0  0  0  0
   67.9840   30.5830   54.0110 C   0  0  0  0  0  0  0  0  0  0  0  0
   68.2890   29.1660   53.7130 N   0  0  0  0  0  0  0  0  0  0  0  0
   68.6820   28.9850   52.2860 C   0  0  0  0  0  0  0  0  0  0  0  0
   67.4900   28.7630   51.3440 C   0  0  0  0  0  0  0  0  0  0  0  0
   66.7140   27.2180   51.7700 S   0  0  0  0  0  0  0  0  0  0  0  0
   65.2230   27.3350   51.6190 O   0  0  0  0  0  0  0  0  0  0  0  0
   67.2320   26.1080   50.9000 O   0  0  0  0  0  0  0  0  0  0  0  0
   67.1440   26.9130   53.4680 C   0  0  0  0  0  0  0  0  0  0  0  0
   67.2080   28.2600   54.2030 C   0  0  0  0  0  0  0  0  0  0  0  0
   66.9200   31.7070   51.9770 N   0  0  0  0  0  0  0  0  0  0  0  0
   65.8230   31.9830   51.1010 C   0  0  0  0  0  0  0  0  0  0  0  0
   65.8320   33.1400   50.2980 C   0  0  0  0  0  0  0  0  0  0  0  0
   64.7290   33.4440   49.4720 C   0  0  0  0  0  0  0  0  0  0  0  0
   63.6020   32.5950   49.4360 C   0  0  0  0  0  0  0  0  0  0  0  0
   62.4000   32.9560   48.6530 C   0  0  0  0  0  0  0  0  0  0  0  0
   62.5400   33.5310   47.3860 C   0  0  0  0  0  0  0  0  0  0  0  0
   61.4170   33.8190   46.6120 C   0  0  0  0  0  0  0  0  0  0  0  0
   60.1260   33.5530   47.0930 C   0  0  0  0  0  0  0  0  0  0  0  0
   59.0050   33.8450   46.2470 N   0  0  0  0  0  0  0  0  0  0  0  0
   59.0140   33.5300   44.8210 C   0  0  0  0  0  0  0  0  0  0  0  0
   58.2780   32.2460   44.5670 C   0  0  0  0  0  0  0  0  0  0  0  0
   57.7130   31.9760   43.3100 C   0  0  0  0  0  0  0  0  0  0  0  0
   57.0960   30.7430   43.0850 C   0  0  0  0  0  0  0  0  0  0  0  0
   57.0500   29.7930   44.1040 C   0  0  0  0  0  0  0  0  0  0  0  0
   57.6380   30.0870   45.3380 C   0  0  0  0  0  0  0  0  0  0  0  0
   58.2400   31.2930   45.5390 N   0  0  0  0  0  0  0  0  0  0  0  0
   59.9580   32.9960   48.3910 C   0  0  0  0  0  0  0  0  0  0  0  0
   58.6970   32.6690   48.9510 C   0  0  0  0  0  0  0  0  0  0  0  0
   57.6310   32.8620   48.3030 O   0  0  0  0  0  0  0  0  0  0  0  0
   58.6310   32.1060   50.2400 C   0  0  0  0  0  0  0  0  0  0  0  0
   57.4060   31.7520   50.8400 C   0  0  0  0  0  0  0  0  0  0  0  0
   57.3780   31.1780   52.1260 C   0  0  0  0  0  0  0  0  0  0  0  0
   56.0880   30.7740   52.7450 C   0  0  0  0  0  0  0  0  0  0  0  0
   54.8800   30.8690   52.0280 C   0  0  0  0  0  0  0  0  0  0  0  0
   53.6700   30.5010   52.6240 C   0  0  0  0  0  0  0  0  0  0  0  0
   53.6520   30.0310   53.9390 C   0  0  0  0  0  0  0  0  0  0  0  0
   54.8430   29.9280   54.6580 C   0  0  0  0  0  0  0  0  0  0  0  0
   56.0540   30.3000   54.0710 C   0  0  0  0  0  0  0  0  0  0  0  0
   58.5880   30.9760   52.8090 C   0  0  0  0  0  0  0  0  0  0  0  0
   59.8050   31.3230   52.2200 C   0  0  0  0  0  0  0  0  0  0  0  0
   59.8310   31.8810   50.9400 C   0  0  0  0  0  0  0  0  0  0  0  0
   60.9950   32.1880   50.3870 O   0  0  0  0  0  0  0  0  0  0  0  0
   61.1130   32.7080   49.1670 C   0  0  0  0  0  0  0  0  0  0  0  0
   63.6520   31.4220   50.2000 C   0  0  0  0  0  0  0  0  0  0  0  0
   62.7560   30.3790   50.3110 C   0  0  0  0  0  0  0  0  0  0  0  0
   63.3470   29.4750   51.1800 C   0  0  0  0  0  0  0  0  0  0  0  0
   64.5530   29.9270   51.5880 N   0  0  0  0  0  0  0  0  0  0  0  0
   64.7240   31.1220   50.9950 C   0  0  0  0  0  0  0  0  0  0  0  0
   68.8517   31.1991   53.7327 H   0  0  0  0  0  0  0  0  0  0  0  0
   67.7662   30.6646   55.0861 H   0  0  0  0  0  0  0  0  0  0  0  0
   69.2223   29.8850   51.9572 H   0  0  0  0  0  0  0  0  0  0  0  0
   69.3062   28.0807   52.2353 H   0  0  0  0  0  0  0  0  0  0  0  0
   66.7681   29.5850   51.4588 H   0  0  0  0  0  0  0  0  0  0  0  0
   67.8345   28.7366   50.2997 H   0  0  0  0  0  0  0  0  0  0  0  0
   66.3819   26.2714   53.9345 H   0  0  0  0  0  0  0  0  0  0  0  0
   68.1182   26.4053   53.5252 H   0  0  0  0  0  0  0  0  0  0  0  0
   66.2426   28.7712   54.0738 H   0  0  0  0  0  0  0  0  0  0  0  0
   67.4308   28.0382   55.2571 H   0  0  0  0  0  0  0  0  0  0  0  0
   66.7038   33.8105   50.3148 H   0  0  0  0  0  0  0  0  0  0  0  0
   64.7477   34.3513   48.8503 H   0  0  0  0  0  0  0  0  0  0  0  0
   63.5437   33.7577   46.9973 H   0  0  0  0  0  0  0  0  0  0  0  0
   61.5444   34.2600   45.6124 H   0  0  0  0  0  0  0  0  0  0  0  0
   58.1610   34.3050   46.6560 H   0  0  0  0  0  0  0  0  0  0  0  0
   58.5252   34.3444   44.2662 H   0  0  0  0  0  0  0  0  0  0  0  0
   60.0556   33.4181   44.4855 H   0  0  0  0  0  0  0  0  0  0  0  0
   57.7559   32.7290   42.5093 H   0  0  0  0  0  0  0  0  0  0  0  0
   56.6472   30.5222   42.1053 H   0  0  0  0  0  0  0  0  0  0  0  0
   56.5570   28.8236   43.9393 H   0  0  0  0  0  0  0  0  0  0  0  0
   57.6146   29.3434   46.1482 H   0  0  0  0  0  0  0  0  0  0  0  0
   56.4638   31.9254   50.2995 H   0  0  0  0  0  0  0  0  0  0  0  0
   54.8883   31.2356   50.9909 H   0  0  0  0  0  0  0  0  0  0  0  0
   52.7311   30.5817   52.0565 H   0  0  0  0  0  0  0  0  0  0  0  0
   52.6995   29.7423   54.4074 H   0  0  0  0  0  0  0  0  0  0  0  0
   54.8280   29.5522   55.6917 H   0  0  0  0  0  0  0  0  0  0  0  0
   56.9875   30.2224   54.6477 H   0  0  0  0  0  0  0  0  0  0  0  0
   58.5768   30.5398   53.8187 H   0  0  0  0  0  0  0  0  0  0  0  0
   60.7457   31.1566   52.7653 H   0  0  0  0  0  0  0  0  0  0  0  0
   61.7789   30.2846   49.8147 H   0  0  0  0  0  0  0  0  0  0  0  0
   62.8965   28.5218   51.4938 H   0  0  0  0  0  0  0  0  0  0  0  0
   65.2130   29.4260   52.2210 H   0  0  0  0  0  0  0  0  0  0  0  0
  1  2  2  0
  2  3  1  0
  3  4  1  0
  4  5  1  0
  5  6  1  0
  6  7  1  0
  7  8  2  0
  7  9  2  0
  7 10  1  0
 10 11  1  0
  2 12  1  0
 12 13  1  0
 13 14  2  0
 14 15  1  0
 15 16  2  0
 16 17  1  0
 17 18  2  0
 18 19  1  0
 19 20  2  0
 20 21  1  0
 21 22  1  0
 22 23  1  0
 23 24  2  0
 24 25  1  0
 25 26  2  0
 26 27  1  0
 27 28  2  0
 20 29  1  0
 29 30  1  0
 30 31  2  0
 30 32  1  0
 32 33  2  0
 33 34  1  0
 34 35  1  0
 35 36  2  0
 36 37  1  0
 37 38  2  0
 38 39  1  0
 39 40  2  0
 34 41  2  0
 41 42  1  0
 42 43  2  0
 43 44  1  0
 44 45  1  0
 16 46  1  0
 46 47  1  0
 47 48  2  0
 48 49  1  0
 49 50  1  0
 11  4  1  0
 50 13  1  0
 45 17  1  0
 50 46  2  0
 28 23  1  0
 45 29  2  0
 43 32  1  0
 40 35  1  0
  3 51  1  0
  3 52  1  0
  5 53  1  0
  5 54  1  0
  6 55  1  0
  6 56  1  0
 10 57  1  0
 10 58  1  0
 11 59  1  0
 11 60  1  0
 14 61  1  0
 15 62  1  0
 18 63  1  0
 19 64  1  0
 21 65  1  0
 22 66  1  0
 22 67  1  0
 24 68  1  0
 25 69  1  0
 26 70  1  0
 27 71  1  0
 33 72  1  0
 36 73  1  0
 37 74  1  0
 38 75  1  0
 39 76  1  0
 40 77  1  0
 41 78  1  0
 42 79  1  0
 47 80  1  0
 48 81  1  0
 49 82  1  0
M  CHG  1  12  -1
M  END
>  <UniqueID>  (66) 
63

>  <SMILES>  (66) 
O=C(CN1CCS(=O)(=O)CC1)[N-]c1ccc(-c2ccc(NCc3ccccn3)c3c(=O)c4cc(-c5ccccc5)ccc4oc23)c2cc[nH]c12

>  <Energy>  (66) 
161.62443322874637

>  <Genealogy>  (66) 
O=C(CN1CCS(=O)(=O)CC1)[N-]c1ccc(-c2ccc(NCc3ccccn3)c3c(=O)c4cc(-c5ccccc5)ccc4oc23)c2cc[nH]c12 (protonated)
O=C(CN1CCS(=O)(=O)CC1)[N-]c1ccc(-c2ccc(NCc3ccccn3)c3c(=O)c4cc(-c5ccccc5)ccc4oc23)c2cc[nH]c12 (3D coordinates assigned)
O=C(CN1CCS(=O)(=O)CC1)[N-]c1ccc(-c2ccc(NCc3ccccn3)c3c(=O)c4cc(-c5ccccc5)ccc4oc23)c2cc[nH]c12 (nonaromatic ring conformer: 161.62443322874637 kcal/mol)

>  <smiles>  (66) 
O=C(CN1CCS(=O)(=O)CC1)Nc1ccc(-c2ccc(NCc3ccccn3)c3c(=O)c4cc(-c5ccccc5)ccc4oc23)c2cc[nH]c12

>  <score_type>  (66) 
oracle

>  <origin>  (66) 
adg

>  <m_score__min__energy>  (66) 
-11.85

>  <m_primary>  (66) 
energy

$$$$
66:0
     RDKit          3D

 40 41  0  0  0  0  0  0  0  0999 V2000
   56.6290   33.4890   45.2550 O   0  0  0  0  0  0  0  0  0  0  0  0
   57.8490   33.3990   44.9510 C   0  0  0  0  0  0  0  0  0  0  0  0
   58.6860   34.5590   44.9820 N   0  0  0  0  0  0  0  0  0  0  0  0
   59.8590   34.6920   45.8400 C   0  0  0  0  0  0  0  0  0  0  0  0
   59.4630   34.9450   47.3040 C   0  0  0  0  0  0  0  0  0  0  0  0
   58.9510   33.6880   48.0310 C   0  0  0  0  0  0  0  0  0  0  0  0
   59.8630   32.4700   47.8410 C   0  0  0  0  0  0  0  0  0  0  0  0
   61.3010   32.8440   48.0840 C   0  0  0  0  0  0  0  0  0  0  0  0
   61.6810   33.4490   49.2940 C   0  0  0  0  0  0  0  0  0  0  0  0
   63.0220   33.7670   49.5310 C   0  0  0  0  0  0  0  0  0  0  0  0
   63.9920   33.4760   48.5680 C   0  0  0  0  0  0  0  0  0  0  0  0
   63.6240   32.8630   47.3670 C   0  0  0  0  0  0  0  0  0  0  0  0
   62.2840   32.5430   47.1260 C   0  0  0  0  0  0  0  0  0  0  0  0
   58.3980   32.1810   44.5310 O   0  0  0  0  0  0  0  0  0  0  0  0
   57.9060   30.9100   44.8620 C   0  0  0  0  0  0  0  0  0  0  0  0
   56.6490   30.4530   44.4270 C   0  0  0  0  0  0  0  0  0  0  0  0
   56.1950   29.1830   44.7930 C   0  0  0  0  0  0  0  0  0  0  0  0
   56.9810   28.3510   45.6080 C   0  0  0  0  0  0  0  0  0  0  0  0
   56.5050   27.0050   45.9980 C   0  0  0  0  0  0  0  0  0  0  0  0
   57.3250   26.1050   46.3220 O   0  0  0  0  0  0  0  0  0  0  0  0
   55.1450   26.7160   46.0130 O   0  0  0  0  0  0  0  0  0  0  0  0
   58.2280   28.8200   46.0570 C   0  0  0  0  0  0  0  0  0  0  0  0
   58.6790   30.0920   45.6910 C   0  0  0  0  0  0  0  0  0  0  0  0
   60.4488   33.7651   45.7847 H   0  0  0  0  0  0  0  0  0  0  0  0
   60.4467   35.5529   45.4886 H   0  0  0  0  0  0  0  0  0  0  0  0
   60.3447   35.3229   47.8423 H   0  0  0  0  0  0  0  0  0  0  0  0
   58.6361   35.6703   47.2934 H   0  0  0  0  0  0  0  0  0  0  0  0
   58.8818   33.9092   49.1063 H   0  0  0  0  0  0  0  0  0  0  0  0
   57.9716   33.4351   47.5988 H   0  0  0  0  0  0  0  0  0  0  0  0
   59.5687   31.6833   48.5513 H   0  0  0  0  0  0  0  0  0  0  0  0
   59.7600   32.1066   46.8079 H   0  0  0  0  0  0  0  0  0  0  0  0
   60.9212   33.6732   50.0572 H   0  0  0  0  0  0  0  0  0  0  0  0
   63.3137   34.2469   50.4768 H   0  0  0  0  0  0  0  0  0  0  0  0
   65.0459   33.7296   48.7553 H   0  0  0  0  0  0  0  0  0  0  0  0
   64.3888   32.6321   46.6109 H   0  0  0  0  0  0  0  0  0  0  0  0
   61.9985   32.0539   46.1830 H   0  0  0  0  0  0  0  0  0  0  0  0
   56.0203   31.0982   43.7958 H   0  0  0  0  0  0  0  0  0  0  0  0
   55.2141   28.8318   44.4401 H   0  0  0  0  0  0  0  0  0  0  0  0
   58.8526   28.1825   46.7000 H   0  0  0  0  0  0  0  0  0  0  0  0
   59.6511   30.4522   46.0589 H   0  0  0  0  0  0  0  0  0  0  0  0
  1  2  2  0
  2  3  1  0
  3  4  1  0
  4  5  1  0
  5  6  1  0
  6  7  1  0
  7  8  1  0
  8  9  2  0
  9 10  1  0
 10 11  2  0
 11 12  1  0
 12 13  2  0
  2 14  1  0
 14 15  1  0
 15 16  2  0
 16 17  1  0
 17 18  2  0
 18 19  1  0
 19 20  2  0
 19 21  1  0
 18 22  1  0
 22 23  2  0
 13  8  1  0
 23 15  1  0
  4 24  1  0
  4 25  1  0
  5 26  1  0
  5 27  1  0
  6 28  1  0
  6 29  1  0
  7 30  1  0
  7 31  1  0
  9 32  1  0
 10 33  1  0
 11 34  1  0
 12 35  1  0
 13 36  1  0
 16 37  1  0
 17 38  1  0
 22 39  1  0
 23 40  1  0
M  CHG  2   3  -1  21  -1
M  END
>  <UniqueID>  (67) 
64

>  <SMILES>  (67) 
O=C([N-]CCCCc1ccccc1)Oc1ccc(C(=O)[O-])cc1

>  <Energy>  (67) 
38.84967374594031

>  <Genealogy>  (67) 
O=C([N-]CCCCc1ccccc1)Oc1ccc(C(=O)[O-])cc1 (protonated)
O=C([N-]CCCCc1ccccc1)Oc1ccc(C(=O)[O-])cc1 (3D coordinates assigned)
O=C([N-]CCCCc1ccccc1)Oc1ccc(C(=O)[O-])cc1 (optimized conformer: 38.84967374594031 kcal/mol)

>  <smiles>  (67) 
O=C(NCCCCc1ccccc1)Oc1ccc(C(=O)O)cc1

>  <score_type>  (67) 
oracle

>  <origin>  (67) 
adg

>  <m_score__min__energy>  (67) 
-11.789999999999999

>  <m_primary>  (67) 
energy

$$$$
67:0
     RDKit          3D

 43 45  0  0  0  0  0  0  0  0999 V2000
   55.1240   29.6210   44.2160 O   0  0  0  0  0  0  0  0  0  0  0  0
   56.4890   30.2170   44.0160 S   0  0  0  0  0  0  0  0  0  0  0  0
   56.7200   30.4280   42.5450 O   0  0  0  0  0  0  0  0  0  0  0  0
   56.5720   31.7500   44.8280 N   0  0  0  0  0  0  0  0  0  0  0  0
   57.7030   32.1810   45.6040 C   0  0  0  0  0  0  0  0  0  0  0  0
   58.2510   33.4690   45.4660 C   0  0  0  0  0  0  0  0  0  0  0  0
   59.3620   33.8550   46.2230 C   0  0  0  0  0  0  0  0  0  0  0  0
   60.0170   35.4730   46.0050 Cl  0  0  0  0  0  0  0  0  0  0  0  0
   59.9350   32.9570   47.1390 C   0  0  0  0  0  0  0  0  0  0  0  0
   61.0770   33.3390   47.9190 N   0  0  0  0  0  0  0  0  0  0  0  0
   62.4100   33.3260   47.3100 C   0  0  0  0  0  0  0  0  0  0  0  0
   63.4440   32.7950   48.3070 C   0  0  0  0  0  0  0  0  0  0  0  0
   63.2790   33.4680   49.6530 C   0  0  0  0  0  0  0  0  0  0  0  0
   64.3510   33.8380   50.3800 C   0  0  0  0  0  0  0  0  0  0  0  0
   64.2240   34.7050   51.4200 F   0  0  0  0  0  0  0  0  0  0  0  0
   65.5900   33.3580   50.0920 F   0  0  0  0  0  0  0  0  0  0  0  0
   61.8820   33.5350   50.2330 C   0  0  0  0  0  0  0  0  0  0  0  0
   60.8890   34.0470   49.1880 C   0  0  0  0  0  0  0  0  0  0  0  0
   59.3830   31.6750   47.2920 C   0  0  0  0  0  0  0  0  0  0  0  0
   60.0740   30.5290   48.4320 Cl  0  0  0  0  0  0  0  0  0  0  0  0
   58.2740   31.2960   46.5300 C   0  0  0  0  0  0  0  0  0  0  0  0
   57.6900   29.1170   44.6850 C   0  0  0  0  0  0  0  0  0  0  0  0
   57.2950   28.1150   45.5820 C   0  0  0  0  0  0  0  0  0  0  0  0
   58.2450   27.2500   46.1340 C   0  0  0  0  0  0  0  0  0  0  0  0
   59.5950   27.3820   45.7900 C   0  0  0  0  0  0  0  0  0  0  0  0
   60.7880   26.2990   46.4840 Cl  0  0  0  0  0  0  0  0  0  0  0  0
   59.9920   28.3770   44.8900 C   0  0  0  0  0  0  0  0  0  0  0  0
   59.0430   29.2420   44.3380 C   0  0  0  0  0  0  0  0  0  0  0  0
   55.7060   32.3330   44.8240 H   0  0  0  0  0  0  0  0  0  0  0  0
   57.8017   34.1792   44.7563 H   0  0  0  0  0  0  0  0  0  0  0  0
   62.3967   32.6781   46.4212 H   0  0  0  0  0  0  0  0  0  0  0  0
   62.6829   34.3524   47.0237 H   0  0  0  0  0  0  0  0  0  0  0  0
   63.3078   31.7100   48.4260 H   0  0  0  0  0  0  0  0  0  0  0  0
   64.4517   33.0115   47.9228 H   0  0  0  0  0  0  0  0  0  0  0  0
   61.5774   32.5296   50.5590 H   0  0  0  0  0  0  0  0  0  0  0  0
   61.8858   34.2274   51.0877 H   0  0  0  0  0  0  0  0  0  0  0  0
   59.8635   33.8792   49.5488 H   0  0  0  0  0  0  0  0  0  0  0  0
   61.0605   35.1216   49.0273 H   0  0  0  0  0  0  0  0  0  0  0  0
   57.8441   30.2916   46.6582 H   0  0  0  0  0  0  0  0  0  0  0  0
   56.2341   28.0087   45.8526 H   0  0  0  0  0  0  0  0  0  0  0  0
   57.9311   26.4658   46.8386 H   0  0  0  0  0  0  0  0  0  0  0  0
   61.0526   28.4786   44.6164 H   0  0  0  0  0  0  0  0  0  0  0  0
   59.3581   30.0225   43.6298 H   0  0  0  0  0  0  0  0  0  0  0  0
  1  2  2  0
  2  3  2  0
  2  4  1  0
  4  5  1  0
  5  6  2  0
  6  7  1  0
  7  8  1  0
  7  9  2  0
  9 10  1  0
 10 11  1  0
 11 12  1  0
 12 13  1  0
 13 14  2  3
 14 15  1  0
 14 16  1  0
 13 17  1  0
 17 18  1  0
  9 19  1  0
 19 20  1  0
 19 21  2  0
  2 22  1  0
 22 23  2  0
 23 24  1  0
 24 25  2  0
 25 26  1  0
 25 27  1  0
 27 28  2  0
 21  5  1  0
 28 22  1  0
 18 10  1  0
  4 29  1  0
  6 30  1  0
 11 31  1  0
 11 32  1  0
 12 33  1  0
 12 34  1  0
 17 35  1  0
 17 36  1  0
 18 37  1  0
 18 38  1  0
 21 39  1  0
 23 40  1  0
 24 41  1  0
 27 42  1  0
 28 43  1  0
M  END
>  <UniqueID>  (68) 
65

>  <SMILES>  (68) 
O=S(=O)(Nc1cc(Cl)c(N2CCC(=C(F)F)CC2)c(Cl)c1)c1ccc(Cl)cc1

>  <Energy>  (68) 
51.91163635441476

>  <Genealogy>  (68) 
O=S(=O)(Nc1cc(Cl)c(N2CCC(=C(F)F)CC2)c(Cl)c1)c1ccc(Cl)cc1 (3D coordinates assigned)
O=S(=O)(Nc1cc(Cl)c(N2CCC(=C(F)F)CC2)c(Cl)c1)c1ccc(Cl)cc1 (nonaromatic ring conformer: 51.91163635441476 kcal/mol)

>  <smiles>  (68) 
O=S(=O)(Nc1cc(Cl)c(N2CCC(=C(F)F)CC2)c(Cl)c1)c1ccc(Cl)cc1

>  <score_type>  (68) 
oracle

>  <origin>  (68) 
adg

>  <m_score__min__energy>  (68) 
-8.8699999999999992

>  <m_primary>  (68) 
energy

$$$$
68:0
     RDKit          3D

 44 46  0  0  0  0  0  0  0  0999 V2000
   58.5110   25.6230   45.3130 C   0  0  0  0  0  0  0  0  0  0  0  0
   57.8060   26.8870   44.9530 C   0  0  0  0  0  0  0  0  0  0  0  0
   56.9820   27.6280   45.7930 C   0  0  0  0  0  0  0  0  0  0  0  0
   56.5110   28.7810   45.2500 N   0  0  0  0  0  0  0  0  0  0  0  0
   56.9770   28.9770   43.9960 C   0  0  0  0  0  0  0  0  0  0  0  0
   56.5740   30.1290   43.1410 C   0  0  0  0  0  0  0  0  0  0  0  0
   57.6990   31.0520   43.0240 N   0  0  0  0  0  0  0  0  0  0  0  0
   57.8730   31.9590   44.4950 S   0  0  0  0  0  0  0  0  0  0  0  0
   58.4490   33.3110   44.1780 O   0  0  0  0  0  0  0  0  0  0  0  0
   56.5190   32.1640   45.1160 O   0  0  0  0  0  0  0  0  0  0  0  0
   58.9200   31.1010   45.6430 C   0  0  0  0  0  0  0  0  0  0  0  0
   59.6130   29.9680   45.1870 C   0  0  0  0  0  0  0  0  0  0  0  0
   60.4950   29.2850   46.0240 C   0  0  0  0  0  0  0  0  0  0  0  0
   60.7010   29.7250   47.3290 C   0  0  0  0  0  0  0  0  0  0  0  0
   60.0150   30.8420   47.8060 C   0  0  0  0  0  0  0  0  0  0  0  0
   59.1090   31.5390   46.9850 C   0  0  0  0  0  0  0  0  0  0  0  0
   58.3820   32.6890   47.5720 C   0  0  0  0  0  0  0  0  0  0  0  0
   57.8140   32.5840   48.6920 O   0  0  0  0  0  0  0  0  0  0  0  0
   58.3680   33.9440   46.8840 N   0  0  0  0  0  0  0  0  0  0  0  0
   59.4250   34.9430   47.0030 C   0  0  0  0  0  0  0  0  0  0  0  0
   60.7230   34.2850   47.3870 C   0  0  0  0  0  0  0  0  0  0  0  0
   61.6230   33.8570   46.3960 C   0  0  0  0  0  0  0  0  0  0  0  0
   62.8410   33.2700   46.7540 C   0  0  0  0  0  0  0  0  0  0  0  0
   63.1720   33.1100   48.1020 C   0  0  0  0  0  0  0  0  0  0  0  0
   62.2860   33.5370   49.0940 C   0  0  0  0  0  0  0  0  0  0  0  0
   61.0660   34.1250   48.7420 C   0  0  0  0  0  0  0  0  0  0  0  0
   60.2230   34.5420   49.7200 F   0  0  0  0  0  0  0  0  0  0  0  0
   57.9740   27.7150   43.4990 S   0  0  0  0  0  0  0  0  0  0  0  0
   58.5624   25.5309   46.4079 H   0  0  0  0  0  0  0  0  0  0  0  0
   57.9609   24.7654   44.8983 H   0  0  0  0  0  0  0  0  0  0  0  0
   59.5297   25.6404   44.8983 H   0  0  0  0  0  0  0  0  0  0  0  0
   56.7317   27.3066   46.8148 H   0  0  0  0  0  0  0  0  0  0  0  0
   56.2902   29.7653   42.1424 H   0  0  0  0  0  0  0  0  0  0  0  0
   55.7156   30.6458   43.5950 H   0  0  0  0  0  0  0  0  0  0  0  0
   59.4583   29.6148   44.1568 H   0  0  0  0  0  0  0  0  0  0  0  0
   61.0286   28.3976   45.6528 H   0  0  0  0  0  0  0  0  0  0  0  0
   61.4052   29.1913   47.9842 H   0  0  0  0  0  0  0  0  0  0  0  0
   60.1845   31.1828   48.8381 H   0  0  0  0  0  0  0  0  0  0  0  0
   59.5497   35.4564   46.0382 H   0  0  0  0  0  0  0  0  0  0  0  0
   59.1467   35.6682   47.7819 H   0  0  0  0  0  0  0  0  0  0  0  0
   61.3682   33.9843   45.3335 H   0  0  0  0  0  0  0  0  0  0  0  0
   63.5392   32.9339   45.9733 H   0  0  0  0  0  0  0  0  0  0  0  0
   64.1301   32.6479   48.3821 H   0  0  0  0  0  0  0  0  0  0  0  0
   62.5481   33.4107   50.1548 H   0  0  0  0  0  0  0  0  0  0  0  0
  1  2  1  0
  2  3  2  0
  3  4  1  0
  4  5  2  0
  5  6  1  0
  6  7  1  0
  7  8  1  0
  8  9  2  0
  8 10  2  0
  8 11  1  0
 11 12  2  0
 12 13  1  0
 13 14  2  0
 14 15  1  0
 15 16  2  0
 16 17  1  0
 17 18  2  0
 17 19  1  0
 19 20  1  0
 20 21  1  0
 21 22  2  0
 22 23  1  0
 23 24  2  0
 24 25  1  0
 25 26  2  0
 26 27  1  0
  5 28  1  0
 28  2  1  0
 16 11  1  0
 26 21  1  0
  1 29  1  0
  1 30  1  0
  1 31  1  0
  3 32  1  0
  6 33  1  0
  6 34  1  0
 12 35  1  0
 13 36  1  0
 14 37  1  0
 15 38  1  0
 20 39  1  0
 20 40  1  0
 22 41  1  0
 23 42  1  0
 24 43  1  0
 25 44  1  0
M  CHG  2   7  -1  19  -1
M  END
>  <UniqueID>  (69) 
66

>  <SMILES>  (69) 
Cc1cnc(C[N-]S(=O)(=O)c2ccccc2C(=O)[N-]Cc2ccccc2F)s1

>  <Energy>  (69) 
75.32683706188767

>  <Genealogy>  (69) 
Cc1cnc(C[N-]S(=O)(=O)c2ccccc2C(=O)[N-]Cc2ccccc2F)s1 (protonated)
Cc1cnc(C[N-]S(=O)(=O)c2ccccc2C(=O)[N-]Cc2ccccc2F)s1 (3D coordinates assigned)
Cc1cnc(C[N-]S(=O)(=O)c2ccccc2C(=O)[N-]Cc2ccccc2F)s1 (optimized conformer: 75.32683706188767 kcal/mol)

>  <smiles>  (69) 
Cc1cnc(CNS(=O)(=O)c2ccccc2C(=O)NCc2ccccc2F)s1

>  <score_type>  (69) 
oracle

>  <origin>  (69) 
adg

>  <m_score__min__energy>  (69) 
-12.26

>  <m_primary>  (69) 
energy

$$$$
69:0
     RDKit          3D

 35 36  0  0  0  0  0  0  0  0999 V2000
   56.5860   34.6010   44.8730 O   0  0  0  0  0  0  0  0  0  0  0  0
   57.7570   34.1650   44.8400 N   0  0  0  0  0  0  0  0  0  0  0  0
   58.7980   35.0620   44.8750 O   0  0  0  0  0  0  0  0  0  0  0  0
   58.0120   32.7530   44.9580 C   0  0  0  0  0  0  0  0  0  0  0  0
   57.1620   31.8400   44.3120 C   0  0  0  0  0  0  0  0  0  0  0  0
   57.3460   30.4580   44.4520 C   0  0  0  0  0  0  0  0  0  0  0  0
   56.4000   29.4910   43.7840 C   0  0  0  0  0  0  0  0  0  0  0  0
   57.0730   28.3230   43.4890 F   0  0  0  0  0  0  0  0  0  0  0  0
   55.8960   30.0300   42.6120 F   0  0  0  0  0  0  0  0  0  0  0  0
   55.3330   29.1980   44.6150 F   0  0  0  0  0  0  0  0  0  0  0  0
   58.3520   29.9860   45.3060 C   0  0  0  0  0  0  0  0  0  0  0  0
   59.2370   30.8740   45.9450 C   0  0  0  0  0  0  0  0  0  0  0  0
   60.3230   30.3400   46.8600 C   0  0  0  0  0  0  0  0  0  0  0  0
   60.6150   29.0360   46.5080 F   0  0  0  0  0  0  0  0  0  0  0  0
   61.4870   31.0860   46.7720 F   0  0  0  0  0  0  0  0  0  0  0  0
   59.8960   30.3700   48.1750 F   0  0  0  0  0  0  0  0  0  0  0  0
   59.0870   32.2670   45.7390 C   0  0  0  0  0  0  0  0  0  0  0  0
   60.0670   33.1790   46.2540 N   0  0  0  0  0  0  0  0  0  0  0  0
   60.1040   33.5690   47.9450 S   0  0  0  0  0  0  0  0  0  0  0  0
   59.6080   34.9720   48.1520 O   0  0  0  0  0  0  0  0  0  0  0  0
   59.2090   32.6230   48.6950 O   0  0  0  0  0  0  0  0  0  0  0  0
   61.7470   33.4140   48.5650 C   0  0  0  0  0  0  0  0  0  0  0  0
   61.9620   33.2190   49.9370 C   0  0  0  0  0  0  0  0  0  0  0  0
   63.2570   33.0140   50.4240 C   0  0  0  0  0  0  0  0  0  0  0  0
   64.3430   33.0000   49.5420 C   0  0  0  0  0  0  0  0  0  0  0  0
   65.9650   32.7250   50.1480 Cl  0  0  0  0  0  0  0  0  0  0  0  0
   64.1330   33.2020   48.1710 C   0  0  0  0  0  0  0  0  0  0  0  0
   62.8400   33.4100   47.6840 C   0  0  0  0  0  0  0  0  0  0  0  0
   56.3390   32.2159   43.6864 H   0  0  0  0  0  0  0  0  0  0  0  0
   58.4513   28.9043   45.4795 H   0  0  0  0  0  0  0  0  0  0  0  0
   60.5650   33.8200   45.5990 H   0  0  0  0  0  0  0  0  0  0  0  0
   61.1096   33.2273   50.6322 H   0  0  0  0  0  0  0  0  0  0  0  0
   63.4218   32.8637   51.5012 H   0  0  0  0  0  0  0  0  0  0  0  0
   64.9870   33.1968   47.4777 H   0  0  0  0  0  0  0  0  0  0  0  0
   62.6781   33.5710   46.6079 H   0  0  0  0  0  0  0  0  0  0  0  0
  1  2  2  0
  2  3  1  0
  2  4  1  0
  4  5  2  0
  5  6  1  0
  6  7  1  0
  7  8  1  0
  7  9  1  0
  7 10  1  0
  6 11  2  0
 11 12  1  0
 12 13  1  0
 13 14  1  0
 13 15  1  0
 13 16  1  0
 12 17  2  0
 17 18  1  0
 18 19  1  0
 19 20  2  0
 19 21  2  0
 19 22  1  0
 22 23  2  0
 23 24  1  0
 24 25  2  0
 25 26  1  0
 25 27  1  0
 27 28  2  0
 17  4  1  0
 28 22  1  0
  5 29  1  0
 11 30  1  0
 18 31  1  0
 23 32  1  0
 24 33  1  0
 27 34  1  0
 28 35  1  0
M  CHG  2   2   1   3  -1
M  END
>  <UniqueID>  (70) 
67

>  <SMILES>  (70) 
O=[N+]([O-])c1cc(C(F)(F)F)cc(C(F)(F)F)c1NS(=O)(=O)c1ccc(Cl)cc1

>  <Energy>  (70) 
47.942069513171504

>  <Genealogy>  (70) 
O=[N+]([O-])c1cc(C(F)(F)F)cc(C(F)(F)F)c1NS(=O)(=O)c1ccc(Cl)cc1 (3D coordinates assigned)
O=[N+]([O-])c1cc(C(F)(F)F)cc(C(F)(F)F)c1NS(=O)(=O)c1ccc(Cl)cc1 (optimized conformer: 47.942069513171504 kcal/mol)

>  <smiles>  (70) 
O=[N+]([O-])c1cc(C(F)(F)F)cc(C(F)(F)F)c1NS(=O)(=O)c1ccc(Cl)cc1

>  <score_type>  (70) 
oracle

>  <origin>  (70) 
adg

>  <m_score__min__energy>  (70) 
-7.7599999999999998

>  <m_primary>  (70) 
energy

$$$$
70:0
     RDKit          3D

 45 47  0  0  0  0  0  0  0  0999 V2000
   56.6510   30.2580   42.9890 C   0  0  0  0  0  0  0  0  0  0  0  0
   56.4310   30.1820   44.4970 C   0  0  0  0  0  0  0  0  0  0  0  0
   56.9820   28.8950   45.0600 C   0  0  0  0  0  0  0  0  0  0  0  0
   56.0950   27.8870   45.2730 N   0  0  0  0  0  0  0  0  0  0  0  0
   56.4600   26.6780   45.7660 C   0  0  0  0  0  0  0  0  0  0  0  0
   55.4860   25.6990   45.9970 C   0  0  0  0  0  0  0  0  0  0  0  0
   55.8550   24.4530   46.5100 C   0  0  0  0  0  0  0  0  0  0  0  0
   54.9090   23.5090   46.7390 F   0  0  0  0  0  0  0  0  0  0  0  0
   57.1960   24.1790   46.7890 C   0  0  0  0  0  0  0  0  0  0  0  0
   58.1750   25.1490   46.5570 C   0  0  0  0  0  0  0  0  0  0  0  0
   57.8150   26.4110   46.0440 C   0  0  0  0  0  0  0  0  0  0  0  0
   58.7670   27.4190   45.8110 C   0  0  0  0  0  0  0  0  0  0  0  0
   59.9910   27.1840   46.0130 O   0  0  0  0  0  0  0  0  0  0  0  0
   58.3590   28.6930   45.3520 C   0  0  0  0  0  0  0  0  0  0  0  0
   59.3940   29.8030   45.2140 C   0  0  0  0  0  0  0  0  0  0  0  0
   60.2120   29.9910   46.4300 N   0  0  0  0  0  0  0  0  0  0  0  0
   59.6750   30.9960   47.3740 C   0  0  0  0  0  0  0  0  0  0  0  0
   59.5640   32.3750   46.7600 C   0  0  0  0  0  0  0  0  0  0  0  0
   60.6160   33.2980   46.8790 C   0  0  0  0  0  0  0  0  0  0  0  0
   60.4820   34.5930   46.3700 C   0  0  0  0  0  0  0  0  0  0  0  0
   59.3080   34.9710   45.7140 C   0  0  0  0  0  0  0  0  0  0  0  0
   58.2730   34.0430   45.5320 C   0  0  0  0  0  0  0  0  0  0  0  0
   56.9980   34.4590   44.8590 C   0  0  0  0  0  0  0  0  0  0  0  0
   58.4050   32.7470   46.0560 C   0  0  0  0  0  0  0  0  0  0  0  0
   57.6726   30.6109   42.7848 H   0  0  0  0  0  0  0  0  0  0  0  0
   56.5127   29.2600   42.5475 H   0  0  0  0  0  0  0  0  0  0  0  0
   55.9262   30.9578   42.5475 H   0  0  0  0  0  0  0  0  0  0  0  0
   56.9385   31.0313   44.9778 H   0  0  0  0  0  0  0  0  0  0  0  0
   55.3496   30.2166   44.6954 H   0  0  0  0  0  0  0  0  0  0  0  0
   54.4298   25.9110   45.7745 H   0  0  0  0  0  0  0  0  0  0  0  0
   57.4824   23.1966   47.1926 H   0  0  0  0  0  0  0  0  0  0  0  0
   59.2299   24.9266   46.7756 H   0  0  0  0  0  0  0  0  0  0  0  0
   60.0635   29.5546   44.3773 H   0  0  0  0  0  0  0  0  0  0  0  0
   58.8461   30.7409   45.0406 H   0  0  0  0  0  0  0  0  0  0  0  0
   60.3830   29.0790   46.9070 H   0  0  0  0  0  0  0  0  0  0  0  0
   61.1510   30.3330   46.1150 H   0  0  0  0  0  0  0  0  0  0  0  0
   58.6746   30.6741   47.6989 H   0  0  0  0  0  0  0  0  0  0  0  0
   60.3754   31.0646   48.2194 H   0  0  0  0  0  0  0  0  0  0  0  0
   61.5511   33.0000   47.3758 H   0  0  0  0  0  0  0  0  0  0  0  0
   61.3028   35.3160   46.4863 H   0  0  0  0  0  0  0  0  0  0  0  0
   59.1954   35.9991   45.3394 H   0  0  0  0  0  0  0  0  0  0  0  0
   56.2442   34.7049   45.6215 H   0  0  0  0  0  0  0  0  0  0  0  0
   57.1861   35.3424   44.2311 H   0  0  0  0  0  0  0  0  0  0  0  0
   56.6290   33.6347   44.2311 H   0  0  0  0  0  0  0  0  0  0  0  0
   57.5948   32.0165   45.9146 H   0  0  0  0  0  0  0  0  0  0  0  0
  1  2  1  0
  2  3  1  0
  3  4  1  0
  4  5  1  0
  5  6  2  0
  6  7  1  0
  7  8  1  0
  7  9  2  0
  9 10  1  0
 10 11  2  0
 11 12  1  0
 12 13  2  0
 12 14  1  0
 14 15  1  0
 15 16  1  0
 16 17  1  0
 17 18  1  0
 18 19  2  0
 19 20  1  0
 20 21  2  0
 21 22  1  0
 22 23  1  0
 22 24  2  0
 14  3  2  0
 24 18  1  0
 11  5  1  0
  1 25  1  0
  1 26  1  0
  1 27  1  0
  2 28  1  0
  2 29  1  0
  6 30  1  0
  9 31  1  0
 10 32  1  0
 15 33  1  0
 15 34  1  0
 16 35  1  0
 16 36  1  0
 17 37  1  0
 17 38  1  0
 19 39  1  0
 20 40  1  0
 21 41  1  0
 23 42  1  0
 23 43  1  0
 23 44  1  0
 24 45  1  0
M  CHG  2   4  -1  16   1
M  END
>  <UniqueID>  (71) 
68

>  <SMILES>  (71) 
CCc1[n-]c2cc(F)ccc2c(=O)c1C[NH2+]Cc1cccc(C)c1

>  <Energy>  (71) 
48.77163566359741

>  <Genealogy>  (71) 
CCc1[n-]c2cc(F)ccc2c(=O)c1C[NH2+]Cc1cccc(C)c1 (protonated)
CCc1[n-]c2cc(F)ccc2c(=O)c1C[NH2+]Cc1cccc(C)c1 (3D coordinates assigned)
CCc1[n-]c2cc(F)ccc2c(=O)c1C[NH2+]Cc1cccc(C)c1 (optimized conformer: 48.77163566359741 kcal/mol)

>  <smiles>  (71) 
CCc1[nH]c2cc(F)ccc2c(=O)c1CNCc1cccc(C)c1

>  <score_type>  (71) 
oracle

>  <origin>  (71) 
adg

>  <m_score__min__energy>  (71) 
-7.4299999999999997

>  <m_primary>  (71) 
energy

$$$$
71:0
     RDKit          3D

 52 54  0  0  0  0  0  0  0  0999 V2000
   63.3620   33.9370   46.0210 C   0  0  0  0  0  0  0  0  0  0  0  0
   62.9800   32.9510   46.9740 O   0  0  0  0  0  0  0  0  0  0  0  0
   63.1610   33.0710   48.3610 C   0  0  0  0  0  0  0  0  0  0  0  0
   64.3350   32.6210   48.9970 C   0  0  0  0  0  0  0  0  0  0  0  0
   64.4930   32.7650   50.3760 C   0  0  0  0  0  0  0  0  0  0  0  0
   63.4900   33.3640   51.1370 C   0  0  0  0  0  0  0  0  0  0  0  0
   63.6540   33.5170   52.4730 F   0  0  0  0  0  0  0  0  0  0  0  0
   62.3190   33.8100   50.5220 C   0  0  0  0  0  0  0  0  0  0  0  0
   62.1350   33.6540   49.1380 C   0  0  0  0  0  0  0  0  0  0  0  0
   60.8560   34.1360   48.4890 C   0  0  0  0  0  0  0  0  0  0  0  0
   60.3030   33.1980   47.4730 N   0  0  1  0  0  0  0  0  0  0  0  0
   59.7510   31.8920   47.9600 C   0  0  0  0  0  0  0  0  0  0  0  0
   59.3880   31.8140   49.4500 C   0  0  0  0  0  0  0  0  0  0  0  0
   59.5250   30.3450   49.8020 C   0  0  0  0  0  0  0  0  0  0  0  0
   60.6580   29.8260   48.9300 C   0  0  0  0  0  0  0  0  0  0  0  0
   60.6480   30.6760   47.6640 C   0  0  0  0  0  0  0  0  0  0  0  0
   59.0790   34.0470   46.5480 S   0  0  0  0  0  0  0  0  0  0  0  0
   59.6570   35.3120   45.9750 O   0  0  0  0  0  0  0  0  0  0  0  0
   57.9150   34.4050   47.4290 O   0  0  0  0  0  0  0  0  0  0  0  0
   58.4790   33.0170   45.2490 C   0  0  0  0  0  0  0  0  0  0  0  0
   58.5380   33.4410   43.9130 C   0  0  0  0  0  0  0  0  0  0  0  0
   58.0920   32.5990   42.8900 C   0  0  0  0  0  0  0  0  0  0  0  0
   57.5810   31.3330   43.1960 C   0  0  0  0  0  0  0  0  0  0  0  0
   57.5160   30.9030   44.5280 C   0  0  0  0  0  0  0  0  0  0  0  0
   56.8760   29.3080   44.9130 S   0  0  0  0  0  0  0  0  0  0  0  0
   55.1500   29.3450   44.8550 N   0  0  0  0  0  0  0  0  0  0  0  0
   57.3860   28.2990   43.9210 O   0  0  0  0  0  0  0  0  0  0  0  0
   57.3240   28.8990   46.2880 O   0  0  0  0  0  0  0  0  0  0  0  0
   57.9730   31.7450   45.5520 C   0  0  0  0  0  0  0  0  0  0  0  0
   63.7112   34.8384   46.5459 H   0  0  0  0  0  0  0  0  0  0  0  0
   64.1725   33.5428   45.3903 H   0  0  0  0  0  0  0  0  0  0  0  0
   62.4975   34.1917   45.3903 H   0  0  0  0  0  0  0  0  0  0  0  0
   65.1330   32.1527   48.4021 H   0  0  0  0  0  0  0  0  0  0  0  0
   65.4109   32.4051   50.8637 H   0  0  0  0  0  0  0  0  0  0  0  0
   61.5336   34.2877   51.1261 H   0  0  0  0  0  0  0  0  0  0  0  0
   60.1008   34.2783   49.2760 H   0  0  0  0  0  0  0  0  0  0  0  0
   61.0985   35.0704   47.9617 H   0  0  0  0  0  0  0  0  0  0  0  0
   61.0580   32.9810   46.7810 H   0  0  0  0  0  0  0  0  0  0  0  0
   58.8228   31.8522   47.3711 H   0  0  0  0  0  0  0  0  0  0  0  0
   60.0797   32.4231   50.0504 H   0  0  0  0  0  0  0  0  0  0  0  0
   58.3778   32.1988   49.6535 H   0  0  0  0  0  0  0  0  0  0  0  0
   59.7731   30.2257   50.8670 H   0  0  0  0  0  0  0  0  0  0  0  0
   58.5892   29.7933   49.6289 H   0  0  0  0  0  0  0  0  0  0  0  0
   61.6201   29.9324   49.4525 H   0  0  0  0  0  0  0  0  0  0  0  0
   60.5260   28.7593   48.6962 H   0  0  0  0  0  0  0  0  0  0  0  0
   61.6684   31.0069   47.4206 H   0  0  0  0  0  0  0  0  0  0  0  0
   60.2705   30.1036   46.8039 H   0  0  0  0  0  0  0  0  0  0  0  0
   58.9357   34.4374   43.6701 H   0  0  0  0  0  0  0  0  0  0  0  0
   58.1429   32.9323   41.8430 H   0  0  0  0  0  0  0  0  0  0  0  0
   57.2294   30.6735   42.3889 H   0  0  0  0  0  0  0  0  0  0  0  0
   54.8090   29.3690   45.8430 H   0  0  0  0  0  0  0  0  0  0  0  0
   57.9343   31.4060   46.5977 H   0  0  0  0  0  0  0  0  0  0  0  0
  1  2  1  0
  2  3  1  0
  3  4  2  0
  4  5  1  0
  5  6  2  0
  6  7  1  0
  6  8  1  0
  8  9  2  0
  9 10  1  0
 10 11  1  0
 11 12  1  0
 12 13  1  0
 13 14  1  0
 14 15  1  0
 15 16  1  0
 11 17  1  0
 17 18  2  0
 17 19  2  0
 17 20  1  0
 20 21  2  0
 21 22  1  0
 22 23  2  0
 23 24  1  0
 24 25  1  0
 25 26  1  0
 25 27  2  0
 25 28  2  0
 24 29  2  0
  9  3  1  0
 16 12  1  0
 29 20  1  0
  1 30  1  0
  1 31  1  0
  1 32  1  0
  4 33  1  0
  5 34  1  0
  8 35  1  0
 10 36  1  0
 10 37  1  0
 11 38  1  6
 12 39  1  0
 13 40  1  0
 13 41  1  0
 14 42  1  0
 14 43  1  0
 15 44  1  0
 15 45  1  0
 16 46  1  0
 16 47  1  0
 21 48  1  0
 22 49  1  0
 23 50  1  0
 26 51  1  0
 29 52  1  0
M  CHG  2  11   1  26  -1
M  END
>  <UniqueID>  (72) 
69

>  <SMILES>  (72) 
COc1ccc(F)cc1C[N@@H+](C1CCCC1)S(=O)(=O)c1cccc(S([NH-])(=O)=O)c1

>  <Energy>  (72) 
60.54107398098046

>  <Genealogy>  (72) 
COc1ccc(F)cc1C[NH+](C1CCCC1)S(=O)(=O)c1cccc(S([NH-])(=O)=O)c1 (protonated)
COc1ccc(F)cc1C[N@@H+](C1CCCC1)S(=O)(=O)c1cccc(S([NH-])(=O)=O)c1 (chirality)
COc1ccc(F)cc1C[N@@H+](C1CCCC1)S(=O)(=O)c1cccc(S([NH-])(=O)=O)c1 (3D coordinates assigned)
COc1ccc(F)cc1C[N@@H+](C1CCCC1)S(=O)(=O)c1cccc(S([NH-])(=O)=O)c1 (nonaromatic ring conformer: 60.54107398098046 kcal/mol)

>  <smiles>  (72) 
COc1ccc(F)cc1CN(C1CCCC1)S(=O)(=O)c1cccc(S(N)(=O)=O)c1

>  <score_type>  (72) 
oracle

>  <origin>  (72) 
adg

>  <m_score__min__energy>  (72) 
-10.859999999999999

>  <m_primary>  (72) 
energy

$$$$
72:0
     RDKit          3D

 43 46  0  0  0  0  0  0  0  0999 V2000
   65.7600   32.5290   50.6850 C   0  0  0  0  0  0  0  0  0  0  0  0
   64.6230   32.5370   49.7210 C   0  0  0  0  0  0  0  0  0  0  0  0
   63.5770   31.6350   49.7030 C   0  0  0  0  0  0  0  0  0  0  0  0
   62.8050   31.9460   48.6480 N   0  0  0  0  0  0  0  0  0  0  0  0
   63.3880   33.0060   48.0640 C   0  0  0  0  0  0  0  0  0  0  0  0
   64.5270   33.3910   48.6770 N   0  0  0  0  0  0  0  0  0  0  0  0
   62.8730   33.5760   46.7770 C   0  0  0  0  0  0  0  0  0  0  0  0
   61.3480   33.3630   46.6590 C   0  0  0  0  0  0  0  0  0  0  0  0
   60.9030   31.9870   47.1230 C   0  0  0  0  0  0  0  0  0  0  0  0
   59.7260   31.4160   46.6160 C   0  0  0  0  0  0  0  0  0  0  0  0
   59.2540   30.1920   47.1130 C   0  0  0  0  0  0  0  0  0  0  0  0
   58.0600   29.6200   46.5540 N   0  0  0  0  0  0  0  0  0  0  0  0
   57.8690   28.2140   46.3290 C   0  0  0  0  0  0  0  0  0  0  0  0
   58.7140   27.3750   46.7420 O   0  0  0  0  0  0  0  0  0  0  0  0
   56.6430   27.7300   45.6110 C   0  0  0  0  0  0  0  0  0  0  0  0
   55.7910   28.8520   45.2300 N   0  0  0  0  0  0  0  0  0  0  0  0
   55.9790   29.7350   44.1140 C   0  0  0  0  0  0  0  0  0  0  0  0
   55.4790   29.4100   43.0050 O   0  0  0  0  0  0  0  0  0  0  0  0
   56.7220   31.0080   44.2130 C   0  0  0  0  0  0  0  0  0  0  0  0
   57.5900   31.5030   43.2570 C   0  0  0  0  0  0  0  0  0  0  0  0
   58.0460   32.7060   43.7510 C   0  0  0  0  0  0  0  0  0  0  0  0
   57.4300   32.8750   44.9720 C   0  0  0  0  0  0  0  0  0  0  0  0
   56.6480   31.8500   45.2180 O   0  0  0  0  0  0  0  0  0  0  0  0
   59.9860   29.5280   48.1140 C   0  0  0  0  0  0  0  0  0  0  0  0
   61.1480   30.1000   48.6380 C   0  0  0  0  0  0  0  0  0  0  0  0
   61.6060   31.3340   48.1550 C   0  0  0  0  0  0  0  0  0  0  0  0
   65.3690   32.5318   51.7132 H   0  0  0  0  0  0  0  0  0  0  0  0
   66.3687   31.6265   50.5266 H   0  0  0  0  0  0  0  0  0  0  0  0
   66.3813   33.4228   50.5266 H   0  0  0  0  0  0  0  0  0  0  0  0
   63.4078   30.8162   50.4178 H   0  0  0  0  0  0  0  0  0  0  0  0
   63.0908   34.6538   46.7463 H   0  0  0  0  0  0  0  0  0  0  0  0
   63.3682   33.0634   45.9392 H   0  0  0  0  0  0  0  0  0  0  0  0
   60.8397   34.1212   47.2728 H   0  0  0  0  0  0  0  0  0  0  0  0
   61.0848   33.4522   45.5947 H   0  0  0  0  0  0  0  0  0  0  0  0
   59.1681   31.9329   45.8213 H   0  0  0  0  0  0  0  0  0  0  0  0
   57.2440   30.2540   46.3950 H   0  0  0  0  0  0  0  0  0  0  0  0
   56.9468   27.1838   44.7058 H   0  0  0  0  0  0  0  0  0  0  0  0
   56.0771   27.0691   46.2840 H   0  0  0  0  0  0  0  0  0  0  0  0
   57.8606   31.0334   42.2998 H   0  0  0  0  0  0  0  0  0  0  0  0
   58.7575   33.3922   43.2684 H   0  0  0  0  0  0  0  0  0  0  0  0
   57.5721   33.7379   45.6392 H   0  0  0  0  0  0  0  0  0  0  0  0
   59.6413   28.5521   48.4866 H   0  0  0  0  0  0  0  0  0  0  0  0
   61.7051   29.5808   49.4317 H   0  0  0  0  0  0  0  0  0  0  0  0
  1  2  1  0
  2  3  2  0
  3  4  1  0
  4  5  1  0
  5  6  2  0
  5  7  1  0
  7  8  1  0
  8  9  1  0
  9 10  2  0
 10 11  1  0
 11 12  1  0
 12 13  1  0
 13 14  2  0
 13 15  1  0
 15 16  1  0
 16 17  1  0
 17 18  2  0
 17 19  1  0
 19 20  2  0
 20 21  1  0
 21 22  2  0
 22 23  1  0
 11 24  2  0
 24 25  1  0
 25 26  2  0
  6  2  1  0
 26  9  1  0
 26  4  1  0
 23 19  1  0
  1 27  1  0
  1 28  1  0
  1 29  1  0
  3 30  1  0
  7 31  1  0
  7 32  1  0
  8 33  1  0
  8 34  1  0
 10 35  1  0
 12 36  1  0
 15 37  1  0
 15 38  1  0
 20 39  1  0
 21 40  1  0
 22 41  1  0
 24 42  1  0
 25 43  1  0
M  CHG  1  16  -1
M  END
>  <UniqueID>  (73) 
70

>  <SMILES>  (73) 
Cc1cn2c(n1)CCc1cc(NC(=O)C[N-]C(=O)c3ccco3)ccc1-2

>  <Energy>  (73) 
106.5713847783264

>  <Genealogy>  (73) 
Cc1cn2c(n1)CCc1cc(NC(=O)C[N-]C(=O)c3ccco3)ccc1-2 (protonated)
Cc1cn2c(n1)CCc1cc(NC(=O)C[N-]C(=O)c3ccco3)ccc1-2 (3D coordinates assigned)
Cc1cn2c(n1)CCc1cc(NC(=O)C[N-]C(=O)c3ccco3)ccc1-2 (nonaromatic ring conformer: 106.5713847783264 kcal/mol)

>  <smiles>  (73) 
Cc1cn2c(n1)CCc1cc(NC(=O)CNC(=O)c3ccco3)ccc1-2

>  <score_type>  (73) 
oracle

>  <origin>  (73) 
adg

>  <m_score__min__energy>  (73) 
-9.8800000000000008

>  <m_primary>  (73) 
energy

$$$$
73:0
     RDKit          3D

 34 35  0  0  0  0  0  0  0  0999 V2000
   54.7374   29.5298   43.2976 H   0  0  0  0  0  0  0  0  0  0  0  0
   55.5730   29.6800   43.9970 C   0  0  0  0  0  0  0  0  0  0  0  0
   55.8920   28.7070   44.8870 N   0  0  0  0  0  0  0  0  0  0  0  0
   56.9140   28.8540   45.7670 C   0  0  0  0  0  0  0  0  0  0  0  0
   57.1468   28.0425   46.4722 H   0  0  0  0  0  0  0  0  0  0  0  0
   57.6790   30.0350   45.7860 C   0  0  0  0  0  0  0  0  0  0  0  0
   58.7780   30.1630   46.7180 N   0  0  0  0  0  0  0  0  0  0  0  0
   58.4300   30.4930   47.6480 H   0  0  0  0  0  0  0  0  0  0  0  0
   59.4530   30.8900   46.3840 H   0  0  0  0  0  0  0  0  0  0  0  0
   59.4360   28.8890   46.8810 C   0  0  0  0  0  0  0  0  0  0  0  0
   60.1170   28.2970   45.8010 C   0  0  0  0  0  0  0  0  0  0  0  0
   60.1339   28.8000   44.8229 H   0  0  0  0  0  0  0  0  0  0  0  0
   60.7720   27.0730   45.9650 C   0  0  0  0  0  0  0  0  0  0  0  0
   61.3014   26.6160   45.1159 H   0  0  0  0  0  0  0  0  0  0  0  0
   60.7560   26.4290   47.2040 C   0  0  0  0  0  0  0  0  0  0  0  0
   61.2743   25.4670   47.3304 H   0  0  0  0  0  0  0  0  0  0  0  0
   60.0820   27.0060   48.2830 C   0  0  0  0  0  0  0  0  0  0  0  0
   60.0688   26.4971   49.2581 H   0  0  0  0  0  0  0  0  0  0  0  0
   59.4240   28.2300   48.1250 C   0  0  0  0  0  0  0  0  0  0  0  0
   58.8942   28.6802   48.9774 H   0  0  0  0  0  0  0  0  0  0  0  0
   57.3690   31.0630   44.8620 C   0  0  0  0  0  0  0  0  0  0  0  0
   58.0820   32.1550   44.8720 N   0  0  0  0  0  0  0  0  0  0  0  0
   58.3430   33.2550   46.1940 S   0  0  0  0  0  0  0  0  0  0  0  0
   58.3940   32.5030   47.4930 O   0  0  0  0  0  0  0  0  0  0  0  0
   57.1780   34.2040   46.2500 O   0  0  0  0  0  0  0  0  0  0  0  0
   59.8480   34.2040   45.9620 C   0  0  0  0  0  0  0  0  0  0  0  0
   59.6590   35.4930   46.4230 F   0  0  0  0  0  0  0  0  0  0  0  0
   60.1330   34.2600   44.6090 F   0  0  0  0  0  0  0  0  0  0  0  0
   61.0340   33.5770   46.6990 C   0  0  0  0  0  0  0  0  0  0  0  0
   61.0420   33.9735   47.7250 H   0  0  0  0  0  0  0  0  0  0  0  0
   60.9060   32.2010   46.7480 F   0  0  0  0  0  0  0  0  0  0  0  0
   62.2250   33.9080   46.0760 F   0  0  0  0  0  0  0  0  0  0  0  0
   56.3000   30.8700   43.9650 C   0  0  0  0  0  0  0  0  0  0  0  0
   56.0392   31.6560   43.2410 H   0  0  0  0  0  0  0  0  0  0  0  0
  1  2  1  0
  2  3  1  0
  3  4  1  0
  4  5  1  0
  4  6  2  0
  6  7  1  0
  7  8  1  0
  7  9  1  0
  7 10  1  0
 10 11  2  0
 11 12  1  0
 11 13  1  0
 13 14  1  0
 13 15  2  0
 15 16  1  0
 15 17  1  0
 17 18  1  0
 17 19  2  0
 19 20  1  0
  6 21  1  0
 21 22  2  0
 22 23  1  0
 23 24  2  0
 23 25  2  0
 23 26  1  0
 26 27  1  0
 26 28  1  0
 26 29  1  0
 29 30  1  0
 29 31  1  0
 29 32  1  0
 21 33  1  0
 33 34  1  0
 33  2  2  0
 19 10  1  0
M  CHG  2   3  -1   7   1
M  END
>  <UniqueID>  (74) 
71

>  <SMILES>  (74) 
O=S(=O)(/N=c1\cc[n-]cc1[NH2+]c1ccccc1)C(F)(F)C(F)F

>  <Energy>  (74) 
38.52363026114209

>  <Genealogy>  (74) 
O=S(=O)(N=c1cc[n-]cc1[NH2+]c1ccccc1)C(F)(F)C(F)F (protonated)
O=S(=O)(/N=c1\cc[n-]cc1[NH2+]c1ccccc1)C(F)(F)C(F)F (cis-trans isomerization)
O=S(=O)(/N=c1\cc[n-]cc1[NH2+]c1ccccc1)C(F)(F)C(F)F (3D coordinates assigned)
O=S(=O)(/N=c1\cc[n-]cc1[NH2+]c1ccccc1)C(F)(F)C(F)F (optimized conformer: 38.52363026114209 kcal/mol)

>  <smiles>  (74) 
O=S(=O)(N=c1cc[nH]cc1Nc1ccccc1)C(F)(F)C(F)F

>  <score_type>  (74) 
oracle

>  <origin>  (74) 
adg

>  <m_score__min__energy>  (74) 
-5.4800000000000004

>  <m_primary>  (74) 
energy

$$$$
74:0
     RDKit          3D

 39 41  0  0  0  0  0  0  0  0999 V2000
   54.0370   22.5980   47.7410 C   0  0  0  0  0  0  0  0  0  0  0  0
   53.0620   22.7940   46.8500 C   0  0  0  0  0  0  0  0  0  0  0  0
   53.3400   23.3660   45.4890 C   0  0  0  0  0  0  0  0  0  0  0  0
   54.7270   23.8340   45.4010 N   0  0  0  0  0  0  0  0  0  0  0  0
   55.1980   25.0890   45.6280 C   0  0  0  0  0  0  0  0  0  0  0  0
   54.4160   26.1940   45.9620 O   0  0  0  0  0  0  0  0  0  0  0  0
   56.5740   25.1280   45.4910 C   0  0  0  0  0  0  0  0  0  0  0  0
   57.3810   26.2970   45.6620 N   0  0  0  0  0  0  0  0  0  0  0  0
   56.9300   27.3590   46.1930 N   0  0  0  0  0  0  0  0  0  0  0  0
   57.3560   28.6740   45.8060 C   0  0  0  0  0  0  0  0  0  0  0  0
   58.6550   29.1920   46.0640 C   0  0  0  0  0  0  0  0  0  0  0  0
   59.8700   28.3280   47.0230 S   0  0  0  0  0  0  0  0  0  0  0  0
   59.0980   27.2120   48.0940 N   0  0  0  0  0  0  0  0  0  0  0  0
   60.6630   29.3010   47.8510 O   0  0  0  0  0  0  0  0  0  0  0  0
   60.8110   27.5940   46.1100 O   0  0  0  0  0  0  0  0  0  0  0  0
   58.9740   30.4780   45.5980 C   0  0  0  0  0  0  0  0  0  0  0  0
   58.0160   31.2360   44.9260 C   0  0  0  0  0  0  0  0  0  0  0  0
   58.2990   32.3900   44.5120 O   0  0  0  0  0  0  0  0  0  0  0  0
   56.7720   30.7340   44.7250 N   0  0  0  0  0  0  0  0  0  0  0  0
   56.4240   29.4910   45.1480 C   0  0  0  0  0  0  0  0  0  0  0  0
   55.1360   29.0290   44.9080 O   0  0  0  0  0  0  0  0  0  0  0  0
   56.9700   23.8380   45.1780 C   0  0  0  0  0  0  0  0  0  0  0  0
   58.2280   23.2760   44.9440 C   0  0  0  0  0  0  0  0  0  0  0  0
   58.2940   21.9000   44.6660 C   0  0  0  0  0  0  0  0  0  0  0  0
   57.1200   21.1200   44.6290 C   0  0  0  0  0  0  0  0  0  0  0  0
   55.8660   21.7070   44.8690 C   0  0  0  0  0  0  0  0  0  0  0  0
   55.8200   23.0790   45.1380 C   0  0  0  0  0  0  0  0  0  0  0  0
   53.8020   22.1773   48.7298 H   0  0  0  0  0  0  0  0  0  0  0  0
   55.0752   22.8572   47.4862 H   0  0  0  0  0  0  0  0  0  0  0  0
   52.0287   22.5299   47.1195 H   0  0  0  0  0  0  0  0  0  0  0  0
   53.1714   22.5891   44.7287 H   0  0  0  0  0  0  0  0  0  0  0  0
   52.6659   24.2181   45.3172 H   0  0  0  0  0  0  0  0  0  0  0  0
   54.7870   27.1340   45.9950 H   0  0  0  0  0  0  0  0  0  0  0  0
   58.4580   26.6240   47.5130 H   0  0  0  0  0  0  0  0  0  0  0  0
   59.9813   30.8878   45.7635 H   0  0  0  0  0  0  0  0  0  0  0  0
   59.1388   23.8919   44.9764 H   0  0  0  0  0  0  0  0  0  0  0  0
   59.2691   21.4278   44.4758 H   0  0  0  0  0  0  0  0  0  0  0  0
   57.1862   20.0439   44.4106 H   0  0  0  0  0  0  0  0  0  0  0  0
   54.9461   21.1043   44.8460 H   0  0  0  0  0  0  0  0  0  0  0  0
  1  2  2  0
  2  3  1  0
  3  4  1  0
  4  5  1  0
  5  6  1  0
  5  7  2  0
  7  8  1  0
  8  9  2  3
  9 10  1  0
 10 11  1  0
 11 12  1  0
 12 13  1  0
 12 14  2  0
 12 15  2  0
 11 16  2  0
 16 17  1  0
 17 18  2  0
 17 19  1  0
 19 20  1  0
 20 21  1  0
  7 22  1  0
 22 23  2  0
 23 24  1  0
 24 25  2  0
 25 26  1  0
 26 27  2  0
 27  4  1  0
 20 10  2  0
 27 22  1  0
  1 28  1  0
  1 29  1  0
  2 30  1  0
  3 31  1  0
  3 32  1  0
  6 33  1  0
 13 34  1  0
 16 35  1  0
 23 36  1  0
 24 37  1  0
 25 38  1  0
 26 39  1  0
M  CHG  3  13  -1  19  -1  21  -1
M  END
>  <UniqueID>  (75) 
72

>  <SMILES>  (75) 
C=CCn1c(O)c(N=Nc2c(S([NH-])(=O)=O)cc(=O)[n-]c2[O-])c2ccccc21

>  <Energy>  (75) 
81.41592238751277

>  <Genealogy>  (75) 
C=CCn1c(O)c(N=Nc2c(S([NH-])(=O)=O)cc(=O)[n-]c2[O-])c2ccccc21 (protonated)
C=CCn1c(O)c(N=Nc2c(S([NH-])(=O)=O)cc(=O)[n-]c2[O-])c2ccccc21 (3D coordinates assigned)
C=CCn1c(O)c(N=Nc2c(S([NH-])(=O)=O)cc(=O)[n-]c2[O-])c2ccccc21 (optimized conformer: 81.41592238751277 kcal/mol)

>  <smiles>  (75) 
C=CCn1c(O)c(N=Nc2c(S(N)(=O)=O)cc(=O)[nH]c2O)c2ccccc21

>  <score_type>  (75) 
oracle

>  <origin>  (75) 
adg

>  <m_score__min__energy>  (75) 
-13.9

>  <m_primary>  (75) 
energy

$$$$
75:0
     RDKit          3D

 57 59  0  0  0  0  0  0  0  0999 V2000
   65.1930   32.3650   49.7920 C   0  0  0  0  0  0  0  0  0  0  0  0
   63.8290   31.9640   49.7600 O   0  0  0  0  0  0  0  0  0  0  0  0
   62.8660   32.5100   48.8960 C   0  0  0  0  0  0  0  0  0  0  0  0
   62.1450   33.6250   49.3300 C   0  0  0  0  0  0  0  0  0  0  0  0
   61.1800   34.2100   48.5050 C   0  0  0  0  0  0  0  0  0  0  0  0
   60.9370   33.6920   47.2230 C   0  0  0  0  0  0  0  0  0  0  0  0
   59.8730   34.2910   46.3490 C   0  0  0  0  0  0  0  0  0  0  0  0
   58.6280   33.4690   46.4190 C   0  0  0  0  0  0  0  0  0  0  0  0
   57.7580   33.7220   47.2940 O   0  0  0  0  0  0  0  0  0  0  0  0
   58.4340   32.4040   45.4830 N   0  0  0  0  0  0  0  0  0  0  0  0
   57.2860   32.3250   44.5860 C   0  0  0  0  0  0  0  0  0  0  0  0
   57.3890   31.0850   43.6970 C   0  0  0  0  0  0  0  0  0  0  0  0
   57.9100   29.9140   44.4860 C   0  0  0  0  0  0  0  0  0  0  0  0
   59.2870   29.6510   44.5260 C   0  0  0  0  0  0  0  0  0  0  0  0
   59.7780   28.5900   45.2880 C   0  0  0  0  0  0  0  0  0  0  0  0
   58.9030   27.7830   46.0240 C   0  0  0  0  0  0  0  0  0  0  0  0
   59.5490   26.4300   46.9420 S   0  0  0  0  0  0  0  0  0  0  0  0
   60.3880   25.6000   46.0160 O   0  0  0  0  0  0  0  0  0  0  0  0
   58.4350   25.5780   47.4850 O   0  0  0  0  0  0  0  0  0  0  0  0
   60.4810   27.0550   48.2660 N   0  0  0  0  0  0  0  0  0  0  0  0
   60.2460   28.2810   48.9670 C   0  0  0  0  0  0  0  0  0  0  0  0
   60.7800   28.4300   50.2500 C   0  0  0  0  0  0  0  0  0  0  0  0
   60.5460   29.5930   50.9840 C   0  0  0  0  0  0  0  0  0  0  0  0
   59.7870   30.6410   50.4480 C   0  0  0  0  0  0  0  0  0  0  0  0
   59.5710   31.7580   51.2760 O   0  0  0  0  0  0  0  0  0  0  0  0
   59.2400   33.0690   50.8400 C   0  0  0  0  0  0  0  0  0  0  0  0
   59.2870   30.5190   49.1270 C   0  0  0  0  0  0  0  0  0  0  0  0
   58.5600   31.5480   48.5330 O   0  0  0  0  0  0  0  0  0  0  0  0
   59.5320   29.3450   48.3970 C   0  0  0  0  0  0  0  0  0  0  0  0
   57.5310   28.0520   46.0020 C   0  0  0  0  0  0  0  0  0  0  0  0
   57.0390   29.1160   45.2410 C   0  0  0  0  0  0  0  0  0  0  0  0
   61.6580   32.5710   46.7870 C   0  0  0  0  0  0  0  0  0  0  0  0
   62.6120   31.9800   47.6180 C   0  0  0  0  0  0  0  0  0  0  0  0
   65.5223   32.4618   50.8371 H   0  0  0  0  0  0  0  0  0  0  0  0
   65.8092   31.6100   49.2818 H   0  0  0  0  0  0  0  0  0  0  0  0
   65.3026   33.3334   49.2818 H   0  0  0  0  0  0  0  0  0  0  0  0
   62.3380   34.0456   50.3279 H   0  0  0  0  0  0  0  0  0  0  0  0
   60.6087   35.0797   48.8617 H   0  0  0  0  0  0  0  0  0  0  0  0
   59.6538   35.3131   46.6914 H   0  0  0  0  0  0  0  0  0  0  0  0
   60.2316   34.3132   45.3093 H   0  0  0  0  0  0  0  0  0  0  0  0
   56.3633   32.2680   45.1822 H   0  0  0  0  0  0  0  0  0  0  0  0
   57.2689   33.2211   43.9482 H   0  0  0  0  0  0  0  0  0  0  0  0
   56.3927   30.8400   43.3003 H   0  0  0  0  0  0  0  0  0  0  0  0
   58.0842   31.2956   42.8709 H   0  0  0  0  0  0  0  0  0  0  0  0
   59.9825   30.2833   43.9547 H   0  0  0  0  0  0  0  0  0  0  0  0
   60.8588   28.3868   45.3103 H   0  0  0  0  0  0  0  0  0  0  0  0
   61.3895   27.6239   50.6844 H   0  0  0  0  0  0  0  0  0  0  0  0
   60.9632   29.6883   51.9973 H   0  0  0  0  0  0  0  0  0  0  0  0
   59.0767   33.7159   51.7145 H   0  0  0  0  0  0  0  0  0  0  0  0
   60.0643   33.4729   50.2339 H   0  0  0  0  0  0  0  0  0  0  0  0
   58.3227   33.0332   50.2339 H   0  0  0  0  0  0  0  0  0  0  0  0
   58.6060   31.7290   47.5350 H   0  0  0  0  0  0  0  0  0  0  0  0
   59.1595   29.2587   47.3656 H   0  0  0  0  0  0  0  0  0  0  0  0
   56.8386   27.4259   46.5839 H   0  0  0  0  0  0  0  0  0  0  0  0
   55.9598   29.3290   45.2344 H   0  0  0  0  0  0  0  0  0  0  0  0
   61.4712   32.1553   45.7858 H   0  0  0  0  0  0  0  0  0  0  0  0
   63.1674   31.0959   47.2716 H   0  0  0  0  0  0  0  0  0  0  0  0
  1  2  1  0
  2  3  1  0
  3  4  2  0
  4  5  1  0
  5  6  2  0
  6  7  1  0
  7  8  1  0
  8  9  2  0
  8 10  1  0
 10 11  1  0
 11 12  1  0
 12 13  1  0
 13 14  2  0
 14 15  1  0
 15 16  2  0
 16 17  1  0
 17 18  2  0
 17 19  2  0
 17 20  1  0
 20 21  1  0
 21 22  2  0
 22 23  1  0
 23 24  2  0
 24 25  1  0
 25 26  1  0
 24 27  1  0
 27 28  1  0
 27 29  2  0
 16 30  1  0
 30 31  2  0
  6 32  1  0
 32 33  2  0
 33  3  1  0
 31 13  1  0
 29 21  1  0
  1 34  1  0
  1 35  1  0
  1 36  1  0
  4 37  1  0
  5 38  1  0
  7 39  1  0
  7 40  1  0
 11 41  1  0
 11 42  1  0
 12 43  1  0
 12 44  1  0
 14 45  1  0
 15 46  1  0
 22 47  1  0
 23 48  1  0
 26 49  1  0
 26 50  1  0
 26 51  1  0
 28 52  1  0
 29 53  1  0
 30 54  1  0
 31 55  1  0
 32 56  1  0
 33 57  1  0
M  CHG  2  10  -1  20  -1
M  END
>  <UniqueID>  (76) 
73

>  <SMILES>  (76) 
COc1ccc(CC(=O)[N-]CCc2ccc(S(=O)(=O)[N-]c3ccc(OC)c(O)c3)cc2)cc1

>  <Energy>  (76) 
61.72503413722975

>  <Genealogy>  (76) 
COc1ccc(CC(=O)[N-]CCc2ccc(S(=O)(=O)[N-]c3ccc(OC)c(O)c3)cc2)cc1 (protonated)
COc1ccc(CC(=O)[N-]CCc2ccc(S(=O)(=O)[N-]c3ccc(OC)c(O)c3)cc2)cc1 (3D coordinates assigned)
COc1ccc(CC(=O)[N-]CCc2ccc(S(=O)(=O)[N-]c3ccc(OC)c(O)c3)cc2)cc1 (optimized conformer: 61.72503413722975 kcal/mol)

>  <smiles>  (76) 
COc1ccc(CC(=O)NCCc2ccc(S(=O)(=O)Nc3ccc(OC)c(O)c3)cc2)cc1

>  <score_type>  (76) 
oracle

>  <origin>  (76) 
adg

>  <m_score__min__energy>  (76) 
-11.18

>  <m_primary>  (76) 
energy

$$$$
76:0
     RDKit          3D

 45 47  0  0  0  0  0  0  0  0999 V2000
   55.5570   28.7820   43.7920 H   0  0  0  0  0  0  0  0  0  0  0  0
   55.4360   29.7540   43.5350 O   0  0  0  0  0  0  0  0  0  0  0  0
   56.5300   30.5390   43.2420 N   0  0  0  0  0  0  0  0  0  0  0  0
   56.4600   31.1770   42.4210 H   0  0  0  0  0  0  0  0  0  0  0  0
   57.5980   30.5190   43.9940 C   0  0  0  0  0  0  0  0  0  0  0  0
   58.0400   31.7440   44.7010 C   0  0  0  0  0  0  0  0  0  0  0  0
   59.0680   31.6960   45.6590 C   0  0  0  0  0  0  0  0  0  0  0  0
   59.6990   30.4760   45.9430 O   0  0  0  0  0  0  0  0  0  0  0  0
   59.7610   29.8680   47.2040 C   0  0  0  0  0  0  0  0  0  0  0  0
   59.5100   30.5780   48.3940 C   0  0  0  0  0  0  0  0  0  0  0  0
   59.2455   31.6448   48.3505 H   0  0  0  0  0  0  0  0  0  0  0  0
   59.5960   29.9310   49.6310 C   0  0  0  0  0  0  0  0  0  0  0  0
   59.3901   30.4874   50.5573 H   0  0  0  0  0  0  0  0  0  0  0  0
   59.9430   28.5790   49.6920 C   0  0  0  0  0  0  0  0  0  0  0  0
   60.0037   28.0701   50.6653 H   0  0  0  0  0  0  0  0  0  0  0  0
   60.2130   27.8730   48.5160 C   0  0  0  0  0  0  0  0  0  0  0  0
   60.5600   26.5640   48.5770 F   0  0  0  0  0  0  0  0  0  0  0  0
   60.1280   28.5180   47.2780 C   0  0  0  0  0  0  0  0  0  0  0  0
   60.3509   27.9614   46.3558 H   0  0  0  0  0  0  0  0  0  0  0  0
   59.4250   32.8330   46.3210 N   0  0  0  0  0  0  0  0  0  0  0  0
   58.8340   34.0330   46.0750 C   0  0  0  0  0  0  0  0  0  0  0  0
   59.2630   35.2440   46.8400 C   0  0  0  0  0  0  0  0  0  0  0  0
   59.1910   35.0408   47.9187 H   0  0  0  0  0  0  0  0  0  0  0  0
   60.3034   35.4911   46.5821 H   0  0  0  0  0  0  0  0  0  0  0  0
   58.6102   36.0909   46.5821 H   0  0  0  0  0  0  0  0  0  0  0  0
   57.8110   34.1200   45.1260 C   0  0  0  0  0  0  0  0  0  0  0  0
   57.3236   35.0848   44.9221 H   0  0  0  0  0  0  0  0  0  0  0  0
   57.4140   32.9720   44.4400 C   0  0  0  0  0  0  0  0  0  0  0  0
   56.6086   33.0298   43.6930 H   0  0  0  0  0  0  0  0  0  0  0  0
   58.3800   29.3170   44.1490 N   0  0  0  0  0  0  0  0  0  0  0  0
   59.2700   29.3760   44.6950 H   0  0  0  0  0  0  0  0  0  0  0  0
   57.9710   27.9860   43.6980 C   0  0  0  0  0  0  0  0  0  0  0  0
   57.0478   28.0739   43.1065 H   0  0  0  0  0  0  0  0  0  0  0  0
   58.7791   27.5579   43.0867 H   0  0  0  0  0  0  0  0  0  0  0  0
   57.7200   27.0740   44.8730 C   0  0  0  0  0  0  0  0  0  0  0  0
   58.7000   26.1480   45.2700 C   0  0  0  0  0  0  0  0  0  0  0  0
   59.6516   26.0896   44.7214 H   0  0  0  0  0  0  0  0  0  0  0  0
   58.4720   25.3010   46.3580 C   0  0  0  0  0  0  0  0  0  0  0  0
   59.2417   24.5750   46.6588 H   0  0  0  0  0  0  0  0  0  0  0  0
   57.2700   25.3740   47.0640 C   0  0  0  0  0  0  0  0  0  0  0  0
   57.0916   24.7026   47.9169 H   0  0  0  0  0  0  0  0  0  0  0  0
   56.2940   26.2990   46.6880 C   0  0  0  0  0  0  0  0  0  0  0  0
   55.3495   26.3580   47.2487 H   0  0  0  0  0  0  0  0  0  0  0  0
   56.5140   27.1520   45.5990 C   0  0  0  0  0  0  0  0  0  0  0  0
   55.5320   28.0730   45.2490 O   0  0  0  0  0  0  0  0  0  0  0  0
  1  2  1  0
  2  3  1  0
  3  4  1  0
  3  5  2  0
  5  6  1  0
  6  7  1  0
  7  8  1  0
  8  9  1  0
  9 10  2  0
 10 11  1  0
 10 12  1  0
 12 13  1  0
 12 14  2  0
 14 15  1  0
 14 16  1  0
 16 17  1  0
 16 18  2  0
 18 19  1  0
  7 20  2  0
 20 21  1  0
 21 22  1  0
 22 23  1  0
 22 24  1  0
 22 25  1  0
 21 26  2  0
 26 27  1  0
 26 28  1  0
 28 29  1  0
  5 30  1  0
 30 31  1  0
 30 32  1  0
 32 33  1  0
 32 34  1  0
 32 35  1  0
 35 36  2  0
 36 37  1  0
 36 38  1  0
 38 39  1  0
 38 40  2  0
 40 41  1  0
 40 42  1  0
 42 43  1  0
 42 44  2  0
 44 45  1  0
 28  6  2  0
 44 35  1  0
 18  9  1  0
M  CHG  2   3   1  45  -1
M  END
>  <UniqueID>  (77) 
74

>  <SMILES>  (77) 
Cc1ccc(/C(NCc2ccccc2[O-])=[NH+]\O)c(Oc2cccc(F)c2)n1

>  <Energy>  (77) 
56.5250027676238

>  <Genealogy>  (77) 
Cc1ccc(C(NCc2ccccc2[O-])=[NH+]O)c(Oc2cccc(F)c2)n1 (protonated)
Cc1ccc(/C(NCc2ccccc2[O-])=[NH+]\O)c(Oc2cccc(F)c2)n1 (cis-trans isomerization)
Cc1ccc(/C(NCc2ccccc2[O-])=[NH+]\O)c(Oc2cccc(F)c2)n1 (3D coordinates assigned)
Cc1ccc(/C(NCc2ccccc2[O-])=[NH+]\O)c(Oc2cccc(F)c2)n1 (optimized conformer: 56.5250027676238 kcal/mol)

>  <smiles>  (77) 
Cc1ccc(C(=NO)NCc2ccccc2O)c(Oc2cccc(F)c2)n1

>  <score_type>  (77) 
oracle

>  <origin>  (77) 
adg

>  <m_score__min__energy>  (77) 
-9.9299999999999997

>  <m_primary>  (77) 
energy

$$$$
77:0
     RDKit          3D

 42 43  0  0  0  0  0  0  0  0999 V2000
   55.2330   29.1900   44.8510 N   0  0  0  0  0  0  0  0  0  0  0  0
   56.6570   30.0990   44.4880 S   0  0  0  0  0  0  0  0  0  0  0  0
   57.1460   29.7230   43.1180 O   0  0  0  0  0  0  0  0  0  0  0  0
   56.3350   31.5680   44.5000 O   0  0  0  0  0  0  0  0  0  0  0  0
   57.8970   29.7640   45.6930 C   0  0  0  0  0  0  0  0  0  0  0  0
   59.0280   30.5840   45.8080 C   0  0  0  0  0  0  0  0  0  0  0  0
   59.9940   30.3140   46.7820 C   0  0  0  0  0  0  0  0  0  0  0  0
   59.8580   29.2050   47.6260 C   0  0  0  0  0  0  0  0  0  0  0  0
   60.8710   28.9430   48.6070 N   0  0  0  0  0  0  0  0  0  0  0  0
   60.7000   28.1960   49.8210 C   0  0  0  0  0  0  0  0  0  0  0  0
   61.1460   27.0200   49.8750 O   0  0  0  0  0  0  0  0  0  0  0  0
   59.9710   28.7530   51.0180 C   0  0  0  0  0  0  0  0  0  0  0  0
   59.4760   30.1010   50.7510 N   0  0  0  0  0  0  0  0  0  0  0  0
   58.6510   30.8130   51.6830 C   0  0  0  0  0  0  0  0  0  0  0  0
   58.6200   30.4710   52.8960 O   0  0  0  0  0  0  0  0  0  0  0  0
   57.7780   31.9260   51.2020 C   0  0  0  0  0  0  0  0  0  0  0  0
   57.9230   32.0810   49.7600 N   0  0  0  0  0  0  0  0  0  0  0  0
   59.0450   32.6870   49.1020 C   0  0  0  0  0  0  0  0  0  0  0  0
   60.1740   32.6200   49.6560 O   0  0  0  0  0  0  0  0  0  0  0  0
   58.9340   33.3320   47.7770 C   0  0  0  0  0  0  0  0  0  0  0  0
   57.7180   33.2780   47.0760 C   0  0  0  0  0  0  0  0  0  0  0  0
   57.5960   33.8870   45.8240 C   0  0  0  0  0  0  0  0  0  0  0  0
   58.6910   34.5440   45.2550 C   0  0  0  0  0  0  0  0  0  0  0  0
   59.9120   34.5800   45.9330 C   0  0  0  0  0  0  0  0  0  0  0  0
   60.0380   33.9710   47.1850 C   0  0  0  0  0  0  0  0  0  0  0  0
   58.7150   28.3970   47.5250 C   0  0  0  0  0  0  0  0  0  0  0  0
   57.7430   28.6720   46.5580 C   0  0  0  0  0  0  0  0  0  0  0  0
   55.5220   28.1910   44.9380 H   0  0  0  0  0  0  0  0  0  0  0  0
   59.1558   31.4414   45.1308 H   0  0  0  0  0  0  0  0  0  0  0  0
   60.8659   30.9766   46.8859 H   0  0  0  0  0  0  0  0  0  0  0  0
   59.1199   28.0984   51.2571 H   0  0  0  0  0  0  0  0  0  0  0  0
   60.6723   28.7993   51.8642 H   0  0  0  0  0  0  0  0  0  0  0  0
   59.6480   30.5160   49.8080 H   0  0  0  0  0  0  0  0  0  0  0  0
   56.7291   31.6963   51.4407 H   0  0  0  0  0  0  0  0  0  0  0  0
   58.0757   32.8611   51.6990 H   0  0  0  0  0  0  0  0  0  0  0  0
   56.8566   32.7533   47.5150 H   0  0  0  0  0  0  0  0  0  0  0  0
   56.6374   33.8493   45.2858 H   0  0  0  0  0  0  0  0  0  0  0  0
   58.5913   35.0322   44.2743 H   0  0  0  0  0  0  0  0  0  0  0  0
   60.7761   35.0887   45.4807 H   0  0  0  0  0  0  0  0  0  0  0  0
   61.0048   33.9917   47.7093 H   0  0  0  0  0  0  0  0  0  0  0  0
   58.5833   27.5451   48.2083 H   0  0  0  0  0  0  0  0  0  0  0  0
   56.8543   28.0290   46.4759 H   0  0  0  0  0  0  0  0  0  0  0  0
  1  2  1  0
  2  3  2  0
  2  4  2  0
  2  5  1  0
  5  6  2  0
  6  7  1  0
  7  8  2  0
  8  9  1  0
  9 10  1  0
 10 11  2  0
 10 12  1  0
 12 13  1  0
 13 14  1  0
 14 15  2  0
 14 16  1  0
 16 17  1  0
 17 18  1  0
 18 19  2  0
 18 20  1  0
 20 21  2  0
 21 22  1  0
 22 23  2  0
 23 24  1  0
 24 25  2  0
  8 26  1  0
 26 27  2  0
 27  5  1  0
 25 20  1  0
  1 28  1  0
  6 29  1  0
  7 30  1  0
 12 31  1  0
 12 32  1  0
 13 33  1  0
 16 34  1  0
 16 35  1  0
 21 36  1  0
 22 37  1  0
 23 38  1  0
 24 39  1  0
 25 40  1  0
 26 41  1  0
 27 42  1  0
M  CHG  3   1  -1   9  -1  17  -1
M  END
>  <UniqueID>  (78) 
75

>  <SMILES>  (78) 
[NH-]S(=O)(=O)c1ccc([N-]C(=O)CNC(=O)C[N-]C(=O)c2ccccc2)cc1

>  <Energy>  (78) 
43.81409170184492

>  <Genealogy>  (78) 
[NH-]S(=O)(=O)c1ccc([N-]C(=O)CNC(=O)C[N-]C(=O)c2ccccc2)cc1 (protonated)
[NH-]S(=O)(=O)c1ccc([N-]C(=O)CNC(=O)C[N-]C(=O)c2ccccc2)cc1 (3D coordinates assigned)
[NH-]S(=O)(=O)c1ccc([N-]C(=O)CNC(=O)C[N-]C(=O)c2ccccc2)cc1 (optimized conformer: 43.81409170184492 kcal/mol)

>  <smiles>  (78) 
NS(=O)(=O)c1ccc(NC(=O)CNC(=O)CNC(=O)c2ccccc2)cc1

>  <score_type>  (78) 
oracle

>  <origin>  (78) 
adg

>  <m_score__min__energy>  (78) 
-12.18

>  <m_primary>  (78) 
energy

$$$$
78:0
     RDKit          3D

 74 77  0  0  0  0  0  0  0  0999 V2000
   67.5700   33.4780   50.5140 C   0  0  0  0  0  0  0  0  0  0  0  0
   66.4400   32.9560   49.8230 O   0  0  0  0  0  0  0  0  0  0  0  0
   65.5780   31.9730   50.3330 C   0  0  0  0  0  0  0  0  0  0  0  0
   66.0350   30.9640   51.2050 C   0  0  0  0  0  0  0  0  0  0  0  0
   65.1430   30.0150   51.7160 C   0  0  0  0  0  0  0  0  0  0  0  0
   63.7930   30.0610   51.3670 C   0  0  0  0  0  0  0  0  0  0  0  0
   63.3300   31.0510   50.4990 C   0  0  0  0  0  0  0  0  0  0  0  0
   64.2150   32.0070   49.9730 C   0  0  0  0  0  0  0  0  0  0  0  0
   63.7210   33.0070   49.0640 N   0  0  0  0  0  0  0  0  0  0  0  0
   63.7180   32.7310   47.6200 C   0  0  0  0  0  0  0  0  0  0  0  0
   62.8430   33.7320   46.8520 C   0  0  0  0  0  0  0  0  0  0  0  0
   61.5800   33.9620   47.5710 N   0  0  0  0  0  0  0  0  0  0  0  0
   60.3400   34.0440   46.8360 C   0  0  0  0  0  0  0  0  0  0  0  0
   60.3550   34.3370   45.6100 O   0  0  0  0  0  0  0  0  0  0  0  0
   59.0170   33.7720   47.4980 C   0  0  0  0  0  0  0  0  0  0  0  0
   58.1400   33.0210   46.6090 N   0  0  0  0  0  0  0  0  0  0  0  0
   57.4880   33.5820   45.4680 C   0  0  0  0  0  0  0  0  0  0  0  0
   56.6510   34.5180   45.6070 O   0  0  0  0  0  0  0  0  0  0  0  0
   57.8630   33.0930   44.1010 C   0  0  0  0  0  0  0  0  0  0  0  0
   57.8280   31.5880   44.0020 C   0  0  0  0  0  0  0  0  0  0  0  0
   58.7270   30.8060   44.7460 C   0  0  0  0  0  0  0  0  0  0  0  0
   58.7150   29.4120   44.6280 C   0  0  0  0  0  0  0  0  0  0  0  0
   57.8060   28.7820   43.7610 C   0  0  0  0  0  0  0  0  0  0  0  0
   57.7870   27.3910   43.5830 O   0  0  0  0  0  0  0  0  0  0  0  0
   57.7980   26.4330   44.6090 C   0  0  0  0  0  0  0  0  0  0  0  0
   57.9930   26.7860   45.9570 C   0  0  0  0  0  0  0  0  0  0  0  0
   57.9710   25.8050   46.9520 C   0  0  0  0  0  0  0  0  0  0  0  0
   57.7260   24.4620   46.6160 C   0  0  0  0  0  0  0  0  0  0  0  0
   57.7150   23.4310   47.6120 N   0  0  0  0  0  0  0  0  0  0  0  0
   56.5910   22.6060   47.9310 C   0  0  0  0  0  0  0  0  0  0  0  0
   56.7850   21.4960   48.4910 O   0  0  0  0  0  0  0  0  0  0  0  0
   55.2550   22.9820   47.5780 N   0  0  0  0  0  0  0  0  0  0  0  0
   54.6740   22.8120   46.2510 C   0  0  0  0  0  0  0  0  0  0  0  0
   54.0860   24.1060   45.7590 C   0  0  0  0  0  0  0  0  0  0  0  0
   52.8340   24.0860   44.9350 C   0  0  0  0  0  0  0  0  0  0  0  0
   54.6530   25.1680   45.9720 O   0  0  0  0  0  0  0  0  0  0  0  0
   57.5360   24.1130   45.2740 C   0  0  0  0  0  0  0  0  0  0  0  0
   57.5590   25.0940   44.2790 C   0  0  0  0  0  0  0  0  0  0  0  0
   56.9260   29.5640   43.0060 C   0  0  0  0  0  0  0  0  0  0  0  0
   56.9310   30.9550   43.1270 C   0  0  0  0  0  0  0  0  0  0  0  0
   61.6000   34.2270   49.0200 C   0  0  0  0  0  0  0  0  0  0  0  0
   63.0220   34.1890   49.5810 C   0  0  0  0  0  0  0  0  0  0  0  0
   67.4041   33.4013   51.5987 H   0  0  0  0  0  0  0  0  0  0  0  0
   68.4662   32.9026   50.2386 H   0  0  0  0  0  0  0  0  0  0  0  0
   67.7129   34.5333   50.2386 H   0  0  0  0  0  0  0  0  0  0  0  0
   67.0980   30.9226   51.4850 H   0  0  0  0  0  0  0  0  0  0  0  0
   65.5073   29.2301   52.3951 H   0  0  0  0  0  0  0  0  0  0  0  0
   63.0935   29.3170   51.7759 H   0  0  0  0  0  0  0  0  0  0  0  0
   62.2652   31.0830   50.2249 H   0  0  0  0  0  0  0  0  0  0  0  0
   64.7492   32.7961   47.2425 H   0  0  0  0  0  0  0  0  0  0  0  0
   63.3039   31.7239   47.4644 H   0  0  0  0  0  0  0  0  0  0  0  0
   63.3832   34.6851   46.7532 H   0  0  0  0  0  0  0  0  0  0  0  0
   62.6187   33.3213   45.8565 H   0  0  0  0  0  0  0  0  0  0  0  0
   59.1856   33.1892   48.4156 H   0  0  0  0  0  0  0  0  0  0  0  0
   58.5380   34.7327   47.7381 H   0  0  0  0  0  0  0  0  0  0  0  0
   57.1568   33.5122   43.3692 H   0  0  0  0  0  0  0  0  0  0  0  0
   58.8934   33.4199   43.8975 H   0  0  0  0  0  0  0  0  0  0  0  0
   59.4437   31.2919   45.4245 H   0  0  0  0  0  0  0  0  0  0  0  0
   59.4201   28.8065   45.2164 H   0  0  0  0  0  0  0  0  0  0  0  0
   58.1634   27.8382   46.2287 H   0  0  0  0  0  0  0  0  0  0  0  0
   58.1459   26.0845   48.0014 H   0  0  0  0  0  0  0  0  0  0  0  0
   55.4579   22.4829   45.5529 H   0  0  0  0  0  0  0  0  0  0  0  0
   53.8741   22.0591   46.3087 H   0  0  0  0  0  0  0  0  0  0  0  0
   51.9577   24.0720   45.5998 H   0  0  0  0  0  0  0  0  0  0  0  0
   52.7984   24.9837   44.3003 H   0  0  0  0  0  0  0  0  0  0  0  0
   52.8271   23.1876   44.3003 H   0  0  0  0  0  0  0  0  0  0  0  0
   57.3676   23.0608   45.0010 H   0  0  0  0  0  0  0  0  0  0  0  0
   57.3881   24.8120   43.2296 H   0  0  0  0  0  0  0  0  0  0  0  0
   56.2243   29.0793   42.3113 H   0  0  0  0  0  0  0  0  0  0  0  0
   56.2282   31.5582   42.5335 H   0  0  0  0  0  0  0  0  0  0  0  0
   61.1693   35.2218   49.2067 H   0  0  0  0  0  0  0  0  0  0  0  0
   61.0122   33.4435   49.5206 H   0  0  0  0  0  0  0  0  0  0  0  0
   63.5615   35.0972   49.2742 H   0  0  0  0  0  0  0  0  0  0  0  0
   62.9814   34.1395   50.6791 H   0  0  0  0  0  0  0  0  0  0  0  0
  1  2  1  0
  2  3  1  0
  3  4  2  0
  4  5  1  0
  5  6  2  0
  6  7  1  0
  7  8  2  0
  8  9  1  0
  9 10  1  0
 10 11  1  0
 11 12  1  0
 12 13  1  0
 13 14  2  0
 13 15  1  0
 15 16  1  0
 16 17  1  0
 17 18  2  0
 17 19  1  0
 19 20  1  0
 20 21  2  0
 21 22  1  0
 22 23  2  0
 23 24  1  0
 24 25  1  0
 25 26  2  0
 26 27  1  0
 27 28  2  0
 28 29  1  0
 29 30  1  0
 30 31  2  0
 30 32  1  0
 32 33  1  0
 33 34  1  0
 34 35  1  0
 34 36  2  0
 28 37  1  0
 37 38  2  0
 23 39  1  0
 39 40  2  0
 12 41  1  0
 41 42  1  0
  8  3  1  0
 42  9  1  0
 40 20  1  0
 38 25  1  0
  1 43  1  0
  1 44  1  0
  1 45  1  0
  4 46  1  0
  5 47  1  0
  6 48  1  0
  7 49  1  0
 10 50  1  0
 10 51  1  0
 11 52  1  0
 11 53  1  0
 15 54  1  0
 15 55  1  0
 19 56  1  0
 19 57  1  0
 21 58  1  0
 22 59  1  0
 26 60  1  0
 27 61  1  0
 33 62  1  0
 33 63  1  0
 35 64  1  0
 35 65  1  0
 35 66  1  0
 37 67  1  0
 38 68  1  0
 39 69  1  0
 40 70  1  0
 41 71  1  0
 41 72  1  0
 42 73  1  0
 42 74  1  0
M  CHG  3  16  -1  29  -1  32  -1
M  END
>  <UniqueID>  (79) 
76

>  <SMILES>  (79) 
COc1ccccc1N1CCN(C(=O)C[N-]C(=O)Cc2ccc(Oc3ccc([N-]C(=O)[N-]CC(C)=O)cc3)cc2)CC1

>  <Energy>  (79) 
88.82361969690243

>  <Genealogy>  (79) 
COc1ccccc1N1CCN(C(=O)C[N-]C(=O)Cc2ccc(Oc3ccc([N-]C(=O)[N-]CC(C)=O)cc3)cc2)CC1 (protonated)
COc1ccccc1N1CCN(C(=O)C[N-]C(=O)Cc2ccc(Oc3ccc([N-]C(=O)[N-]CC(C)=O)cc3)cc2)CC1 (3D coordinates assigned)
COc1ccccc1N1CCN(C(=O)C[N-]C(=O)Cc2ccc(Oc3ccc([N-]C(=O)[N-]CC(C)=O)cc3)cc2)CC1 (nonaromatic ring conformer: 88.82361969690243 kcal/mol)

>  <smiles>  (79) 
COc1ccccc1N1CCN(C(=O)CNC(=O)Cc2ccc(Oc3ccc(NC(=O)NCC(C)=O)cc3)cc2)CC1

>  <score_type>  (79) 
oracle

>  <origin>  (79) 
adg

>  <m_score__min__energy>  (79) 
-13.24

>  <m_primary>  (79) 
energy

$$$$
79:0
     RDKit          3D

 49 51  0  0  0  0  0  0  0  0999 V2000
   60.2510   27.7290   49.6870 N   0  0  0  0  0  0  0  0  0  0  0  0
   59.8670   28.6360   48.2680 S   0  0  0  0  0  0  0  0  0  0  0  0
   58.8920   29.7140   48.6500 O   0  0  0  0  0  0  0  0  0  0  0  0
   61.1060   29.2810   47.7170 O   0  0  0  0  0  0  0  0  0  0  0  0
   59.1470   27.5840   47.0370 C   0  0  0  0  0  0  0  0  0  0  0  0
   58.3190   26.5300   47.4540 C   0  0  0  0  0  0  0  0  0  0  0  0
   57.7660   25.6440   46.5270 C   0  0  0  0  0  0  0  0  0  0  0  0
   58.0590   25.7710   45.1600 C   0  0  0  0  0  0  0  0  0  0  0  0
   57.5090   24.8140   44.1710 C   0  0  0  0  0  0  0  0  0  0  0  0
   57.3120   25.1920   42.9840 O   0  0  0  0  0  0  0  0  0  0  0  0
   57.1340   23.4900   44.5860 N   0  0  0  0  0  0  0  0  0  0  0  0
   57.0080   22.4210   43.8470 C   0  0  0  0  0  0  0  0  0  0  0  0
   56.5560   22.5650   42.4980 N   0  0  0  0  0  0  0  0  0  0  0  0
   57.2940   21.1090   44.3460 N   0  0  0  0  0  0  0  0  0  0  0  0
   58.8890   26.8240   44.7420 C   0  0  0  0  0  0  0  0  0  0  0  0
   59.3960   27.7530   45.6560 C   0  0  0  0  0  0  0  0  0  0  0  0
   60.3760   29.1130   44.9960 S   0  0  0  0  0  0  0  0  0  0  0  0
   58.9880   30.2530   44.9430 C   0  0  0  0  0  0  0  0  0  0  0  0
   58.0110   30.0520   44.0170 N   0  0  0  0  0  0  0  0  0  0  0  0
   56.9340   30.8750   43.9070 C   0  0  0  0  0  0  0  0  0  0  0  0
   56.8110   31.9760   44.7550 C   0  0  0  0  0  0  0  0  0  0  0  0
   57.7840   32.1980   45.7270 C   0  0  0  0  0  0  0  0  0  0  0  0
   58.8820   31.3380   45.8350 C   0  0  0  0  0  0  0  0  0  0  0  0
   59.9040   31.6220   46.8020 N   0  0  0  0  0  0  0  0  0  0  0  0
   60.6850   32.8270   46.7410 C   0  0  0  0  0  0  0  0  0  0  0  0
   60.4550   33.6770   45.8340 O   0  0  0  0  0  0  0  0  0  0  0  0
   61.7790   33.0760   47.7100 C   0  0  0  0  0  0  0  0  0  0  0  0
   63.0450   32.4960   47.5050 C   0  0  0  0  0  0  0  0  0  0  0  0
   64.0820   32.7210   48.4150 C   0  0  0  0  0  0  0  0  0  0  0  0
   63.8720   33.5360   49.5310 C   0  0  0  0  0  0  0  0  0  0  0  0
   62.6240   34.1280   49.7370 C   0  0  0  0  0  0  0  0  0  0  0  0
   61.5810   33.8990   48.8330 C   0  0  0  0  0  0  0  0  0  0  0  0
   60.1980   26.7170   49.4370 H   0  0  0  0  0  0  0  0  0  0  0  0
   58.1030   26.4003   48.5247 H   0  0  0  0  0  0  0  0  0  0  0  0
   57.0965   24.8415   46.8702 H   0  0  0  0  0  0  0  0  0  0  0  0
   56.4800   21.7330   41.8720 H   0  0  0  0  0  0  0  0  0  0  0  0
   56.3350   23.5080   42.1050 H   0  0  0  0  0  0  0  0  0  0  0  0
   57.1520   20.8610   45.3490 H   0  0  0  0  0  0  0  0  0  0  0  0
   57.4020   20.3160   43.6740 H   0  0  0  0  0  0  0  0  0  0  0  0
   59.1449   26.9197   43.6765 H   0  0  0  0  0  0  0  0  0  0  0  0
   56.1612   30.6730   43.1507 H   0  0  0  0  0  0  0  0  0  0  0  0
   55.9557   32.6608   44.6573 H   0  0  0  0  0  0  0  0  0  0  0  0
   57.6885   33.0531   46.4124 H   0  0  0  0  0  0  0  0  0  0  0  0
   60.2620   30.8190   47.3700 H   0  0  0  0  0  0  0  0  0  0  0  0
   63.2194   31.8618   46.6233 H   0  0  0  0  0  0  0  0  0  0  0  0
   65.0654   32.2557   48.2525 H   0  0  0  0  0  0  0  0  0  0  0  0
   64.6891   33.7109   50.2464 H   0  0  0  0  0  0  0  0  0  0  0  0
   62.4608   34.7753   50.6113 H   0  0  0  0  0  0  0  0  0  0  0  0
   60.5994   34.3659   49.0018 H   0  0  0  0  0  0  0  0  0  0  0  0
  1  2  1  0
  2  3  2  0
  2  4  2  0
  2  5  1  0
  5  6  2  0
  6  7  1  0
  7  8  2  0
  8  9  1  0
  9 10  2  0
  9 11  1  0
 11 12  2  3
 12 13  1  0
 12 14  1  0
  8 15  1  0
 15 16  2  0
 16 17  1  0
 17 18  1  0
 18 19  2  0
 19 20  1  0
 20 21  2  0
 21 22  1  0
 22 23  2  0
 23 24  1  0
 24 25  1  0
 25 26  2  0
 25 27  1  0
 27 28  2  0
 28 29  1  0
 29 30  2  0
 30 31  1  0
 31 32  2  0
 16  5  1  0
 23 18  1  0
 32 27  1  0
  1 33  1  0
  6 34  1  0
  7 35  1  0
 13 36  1  0
 13 37  1  0
 14 38  1  0
 14 39  1  0
 15 40  1  0
 20 41  1  0
 21 42  1  0
 22 43  1  0
 24 44  1  0
 28 45  1  0
 29 46  1  0
 30 47  1  0
 31 48  1  0
 32 49  1  0
M  CHG  1   1  -1
M  END
>  <UniqueID>  (80) 
77

>  <SMILES>  (80) 
[NH-]S(=O)(=O)c1ccc(C(=O)N=C(N)N)cc1Sc1ncccc1NC(=O)c1ccccc1

>  <Energy>  (80) 
63.00723123203728

>  <Genealogy>  (80) 
[NH-]S(=O)(=O)c1ccc(C(=O)N=C(N)N)cc1Sc1ncccc1NC(=O)c1ccccc1 (protonated)
[NH-]S(=O)(=O)c1ccc(C(=O)N=C(N)N)cc1Sc1ncccc1NC(=O)c1ccccc1 (3D coordinates assigned)
[NH-]S(=O)(=O)c1ccc(C(=O)N=C(N)N)cc1Sc1ncccc1NC(=O)c1ccccc1 (optimized conformer: 63.00723123203728 kcal/mol)

>  <smiles>  (80) 
NC(N)=NC(=O)c1ccc(S(N)(=O)=O)c(Sc2ncccc2NC(=O)c2ccccc2)c1

>  <score_type>  (80) 
oracle

>  <origin>  (80) 
adg

>  <m_score__min__energy>  (80) 
-11.300000000000001

>  <m_primary>  (80) 
energy

$$$$
80:0
     RDKit          3D

 39 41  0  0  0  0  0  0  0  0999 V2000
   55.4450   26.7820   45.8360 O   0  0  0  0  0  0  0  0  0  0  0  0
   56.6780   26.9560   45.6320 C   0  0  0  0  0  0  0  0  0  0  0  0
   57.6720   26.0220   46.2590 C   0  0  0  0  0  0  0  0  0  0  0  0
   58.2590   26.6110   47.5530 C   0  0  0  0  0  0  0  0  0  0  0  0
   58.9560   27.9210   47.3080 C   0  0  0  0  0  0  0  0  0  0  0  0
   59.6850   28.0840   46.1710 N   0  0  0  0  0  0  0  0  0  0  0  0
   60.4120   29.2080   45.9460 C   0  0  0  0  0  0  0  0  0  0  0  0
   61.0760   29.3130   44.8790 O   0  0  0  0  0  0  0  0  0  0  0  0
   60.4340   30.2270   46.9110 C   0  0  0  0  0  0  0  0  0  0  0  0
   61.1920   31.4000   46.7480 C   0  0  0  0  0  0  0  0  0  0  0  0
   61.2060   32.3710   47.7530 C   0  0  0  0  0  0  0  0  0  0  0  0
   60.4600   32.1860   48.9200 C   0  0  0  0  0  0  0  0  0  0  0  0
   59.6960   31.0280   49.0890 C   0  0  0  0  0  0  0  0  0  0  0  0
   59.6760   30.0420   48.0890 C   0  0  0  0  0  0  0  0  0  0  0  0
   58.9480   28.9000   48.2570 N   0  0  0  0  0  0  0  0  0  0  0  0
   57.1460   28.0850   44.8790 N   0  0  0  0  0  0  0  0  0  0  0  0
   56.4190   29.3210   44.7920 C   0  0  0  0  0  0  0  0  0  0  0  0
   55.1910   29.3480   45.0790 O   0  0  0  0  0  0  0  0  0  0  0  0
   57.1060   30.5870   44.4430 C   0  0  0  0  0  0  0  0  0  0  0  0
   57.7060   31.3560   45.4580 C   0  0  0  0  0  0  0  0  0  0  0  0
   58.4190   32.5180   45.1410 C   0  0  0  0  0  0  0  0  0  0  0  0
   58.5240   32.9350   43.8140 C   0  0  0  0  0  0  0  0  0  0  0  0
   57.9100   32.1940   42.8020 C   0  0  0  0  0  0  0  0  0  0  0  0
   57.2060   31.0290   43.1080 C   0  0  0  0  0  0  0  0  0  0  0  0
   57.1707   25.0715   46.4940 H   0  0  0  0  0  0  0  0  0  0  0  0
   58.4952   25.8644   45.5466 H   0  0  0  0  0  0  0  0  0  0  0  0
   57.4428   26.7718   48.2727 H   0  0  0  0  0  0  0  0  0  0  0  0
   59.0000   25.8992   47.9457 H   0  0  0  0  0  0  0  0  0  0  0  0
   61.7750   31.5536   45.8279 H   0  0  0  0  0  0  0  0  0  0  0  0
   61.8062   33.2839   47.6250 H   0  0  0  0  0  0  0  0  0  0  0  0
   60.4741   32.9537   49.7076 H   0  0  0  0  0  0  0  0  0  0  0  0
   59.1084   30.8883   50.0083 H   0  0  0  0  0  0  0  0  0  0  0  0
   58.3940   28.7570   49.1320 H   0  0  0  0  0  0  0  0  0  0  0  0
   58.1510   28.0740   44.6010 H   0  0  0  0  0  0  0  0  0  0  0  0
   57.6138   31.0414   46.5080 H   0  0  0  0  0  0  0  0  0  0  0  0
   58.8975   33.1035   45.9399 H   0  0  0  0  0  0  0  0  0  0  0  0
   59.0891   33.8454   43.5653 H   0  0  0  0  0  0  0  0  0  0  0  0
   57.9819   32.5309   41.7573 H   0  0  0  0  0  0  0  0  0  0  0  0
   56.7264   30.4523   42.3034 H   0  0  0  0  0  0  0  0  0  0  0  0
  1  2  2  0
  2  3  1  0
  3  4  1  0
  4  5  1  0
  5  6  2  0
  6  7  1  0
  7  8  2  0
  7  9  1  0
  9 10  2  0
 10 11  1  0
 11 12  2  0
 12 13  1  0
 13 14  2  0
 14 15  1  0
  2 16  1  0
 16 17  1  0
 17 18  2  0
 17 19  1  0
 19 20  2  0
 20 21  1  0
 21 22  2  0
 22 23  1  0
 23 24  2  0
 15  5  1  0
 24 19  1  0
 14  9  1  0
  3 25  1  0
  3 26  1  0
  4 27  1  0
  4 28  1  0
 10 29  1  0
 11 30  1  0
 12 31  1  0
 13 32  1  0
 15 33  1  0
 16 34  1  0
 20 35  1  0
 21 36  1  0
 22 37  1  0
 23 38  1  0
 24 39  1  0
M  END
>  <UniqueID>  (81) 
78

>  <SMILES>  (81) 
O=C(CCc1nc(=O)c2ccccc2[nH]1)NC(=O)c1ccccc1

>  <Energy>  (81) 
41.47618411282723

>  <Genealogy>  (81) 
O=C(CCc1nc(=O)c2ccccc2[nH]1)NC(=O)c1ccccc1 (3D coordinates assigned)
O=C(CCc1nc(=O)c2ccccc2[nH]1)NC(=O)c1ccccc1 (optimized conformer: 41.47618411282723 kcal/mol)

>  <smiles>  (81) 
O=C(CCc1nc(=O)c2ccccc2[nH]1)NC(=O)c1ccccc1

>  <score_type>  (81) 
oracle

>  <origin>  (81) 
adg

>  <m_score__min__energy>  (81) 
-8.5399999999999991

>  <m_primary>  (81) 
energy

$$$$
81:0
     RDKit          3D

 65 69  0  0  0  0  0  0  0  0999 V2000
   57.5730   31.9710   42.3730 C   0  0  0  0  0  0  0  0  0  0  0  0
   57.8730   32.2110   43.8250 C   0  0  0  0  0  0  0  0  0  0  0  0
   58.5530   33.3760   44.2170 C   0  0  0  0  0  0  0  0  0  0  0  0
   58.8830   33.5810   45.5630 C   0  0  0  0  0  0  0  0  0  0  0  0
   58.5490   32.6170   46.5250 C   0  0  0  0  0  0  0  0  0  0  0  0
   59.0030   32.8790   48.2070 S   0  0  0  0  0  0  0  0  0  0  0  0
   57.9150   32.3100   49.0770 O   0  0  0  0  0  0  0  0  0  0  0  0
   59.1390   34.3490   48.5010 O   0  0  0  0  0  0  0  0  0  0  0  0
   60.5130   32.0820   48.5430 N   0  0  0  0  0  0  0  0  0  0  0  0
   60.5050   30.7330   49.1170 C   0  0  0  0  0  0  0  0  0  0  0  0
   59.7780   29.7890   48.1980 C   0  0  0  0  0  0  0  0  0  0  0  0
   58.7360   28.9920   48.6810 C   0  0  0  0  0  0  0  0  0  0  0  0
   58.1400   28.0790   47.8720 N   0  0  0  0  0  0  0  0  0  0  0  0
   58.5150   27.8920   46.5770 C   0  0  0  0  0  0  0  0  0  0  0  0
   59.5420   28.6990   46.0420 C   0  0  0  0  0  0  0  0  0  0  0  0
   60.1830   29.6310   46.8670 C   0  0  0  0  0  0  0  0  0  0  0  0
   60.0130   28.5060   44.6270 C   0  0  0  0  0  0  0  0  0  0  0  0
   58.8970   27.9340   43.7570 C   0  0  0  0  0  0  0  0  0  0  0  0
   58.3460   26.6500   44.3810 C   0  0  0  0  0  0  0  0  0  0  0  0
   57.8720   26.8790   45.7570 N   0  0  0  0  0  0  0  0  0  0  0  0
   56.8410   25.9570   46.2880 C   0  0  0  0  0  0  0  0  0  0  0  0
   56.0940   25.1930   45.1670 C   0  0  0  0  0  0  0  0  0  0  0  0
   55.5270   23.8630   45.6900 C   0  0  0  0  0  0  0  0  0  0  0  0
   55.1520   23.9910   47.0460 O   0  0  0  0  0  0  0  0  0  0  0  0
   56.3010   24.0650   47.8820 C   0  0  0  0  0  0  0  0  0  0  0  0
   57.4170   24.9880   47.3340 C   0  0  0  0  0  0  0  0  0  0  0  0
   61.7410   32.6540   48.0650 C   0  0  0  0  0  0  0  0  0  0  0  0
   61.7870   33.2730   46.8060 C   0  0  0  0  0  0  0  0  0  0  0  0
   62.9830   33.8320   46.3410 C   0  0  0  0  0  0  0  0  0  0  0  0
   64.1350   33.7770   47.1290 C   0  0  0  0  0  0  0  0  0  0  0  0
   64.0940   33.1620   48.3840 C   0  0  0  0  0  0  0  0  0  0  0  0
   62.9020   32.5990   48.8520 C   0  0  0  0  0  0  0  0  0  0  0  0
   57.8690   31.4530   46.1360 C   0  0  0  0  0  0  0  0  0  0  0  0
   57.5400   31.2470   44.7930 C   0  0  0  0  0  0  0  0  0  0  0  0
   56.7169   31.2861   42.2838 H   0  0  0  0  0  0  0  0  0  0  0  0
   57.3301   32.9269   41.8859 H   0  0  0  0  0  0  0  0  0  0  0  0
   58.4523   31.5242   41.8859 H   0  0  0  0  0  0  0  0  0  0  0  0
   58.8273   34.1299   43.4645 H   0  0  0  0  0  0  0  0  0  0  0  0
   59.4054   34.5004   45.8660 H   0  0  0  0  0  0  0  0  0  0  0  0
   61.5407   30.3872   49.2499 H   0  0  0  0  0  0  0  0  0  0  0  0
   59.9928   30.7569   50.0902 H   0  0  0  0  0  0  0  0  0  0  0  0
   58.3974   29.1051   49.7214 H   0  0  0  0  0  0  0  0  0  0  0  0
   61.0071   30.2409   46.4684 H   0  0  0  0  0  0  0  0  0  0  0  0
   60.3286   29.4765   44.2165 H   0  0  0  0  0  0  0  0  0  0  0  0
   60.8555   27.7988   44.6294 H   0  0  0  0  0  0  0  0  0  0  0  0
   58.0870   28.6735   43.6723 H   0  0  0  0  0  0  0  0  0  0  0  0
   59.3011   27.7039   42.7601 H   0  0  0  0  0  0  0  0  0  0  0  0
   57.5068   26.2869   43.7696 H   0  0  0  0  0  0  0  0  0  0  0  0
   59.1564   25.9069   44.4142 H   0  0  0  0  0  0  0  0  0  0  0  0
   56.0983   26.5899   46.7958 H   0  0  0  0  0  0  0  0  0  0  0  0
   55.2665   25.8161   44.7969 H   0  0  0  0  0  0  0  0  0  0  0  0
   56.8055   24.9761   44.3566 H   0  0  0  0  0  0  0  0  0  0  0  0
   54.6453   23.5847   45.0941 H   0  0  0  0  0  0  0  0  0  0  0  0
   56.3000   23.0851   45.6037 H   0  0  0  0  0  0  0  0  0  0  0  0
   55.9894   24.4449   48.8662 H   0  0  0  0  0  0  0  0  0  0  0  0
   56.7230   23.0506   47.9353 H   0  0  0  0  0  0  0  0  0  0  0  0
   57.8507   25.5654   48.1638 H   0  0  0  0  0  0  0  0  0  0  0  0
   58.1932   24.3692   46.8600 H   0  0  0  0  0  0  0  0  0  0  0  0
   60.8812   33.3189   46.1835 H   0  0  0  0  0  0  0  0  0  0  0  0
   63.0158   34.3154   45.3534 H   0  0  0  0  0  0  0  0  0  0  0  0
   65.0740   34.2173   46.7624 H   0  0  0  0  0  0  0  0  0  0  0  0
   65.0012   33.1208   49.0048 H   0  0  0  0  0  0  0  0  0  0  0  0
   62.8745   32.1125   49.8382 H   0  0  0  0  0  0  0  0  0  0  0  0
   57.5940   30.7005   46.8898 H   0  0  0  0  0  0  0  0  0  0  0  0
   57.0182   30.3266   44.4921 H   0  0  0  0  0  0  0  0  0  0  0  0
  1  2  1  0
  2  3  2  0
  3  4  1  0
  4  5  2  0
  5  6  1  0
  6  7  2  0
  6  8  2  0
  6  9  1  0
  9 10  1  0
 10 11  1  0
 11 12  2  0
 12 13  1  0
 13 14  2  0
 14 15  1  0
 15 16  2  0
 15 17  1  0
 17 18  1  0
 18 19  1  0
 19 20  1  0
 20 21  1  0
 21 22  1  0
 22 23  1  0
 23 24  1  0
 24 25  1  0
 25 26  1  0
  9 27  1  0
 27 28  2  0
 28 29  1  0
 29 30  2  0
 30 31  1  0
 31 32  2  0
  5 33  1  0
 33 34  2  0
 34  2  1  0
 16 11  1  0
 26 21  1  0
 32 27  1  0
 20 14  1  0
  1 35  1  0
  1 36  1  0
  1 37  1  0
  3 38  1  0
  4 39  1  0
 10 40  1  0
 10 41  1  0
 12 42  1  0
 16 43  1  0
 17 44  1  0
 17 45  1  0
 18 46  1  0
 18 47  1  0
 19 48  1  0
 19 49  1  0
 21 50  1  0
 22 51  1  0
 22 52  1  0
 23 53  1  0
 23 54  1  0
 25 55  1  0
 25 56  1  0
 26 57  1  0
 26 58  1  0
 28 59  1  0
 29 60  1  0
 30 61  1  0
 31 62  1  0
 32 63  1  0
 33 64  1  0
 34 65  1  0
M  END
>  <UniqueID>  (82) 
79

>  <SMILES>  (82) 
Cc1ccc(S(=O)(=O)N(Cc2cnc3c(c2)CCCN3C2CCOCC2)c2ccccc2)cc1

>  <Energy>  (82) 
80.29742045339032

>  <Genealogy>  (82) 
Cc1ccc(S(=O)(=O)N(Cc2cnc3c(c2)CCCN3C2CCOCC2)c2ccccc2)cc1 (3D coordinates assigned)
Cc1ccc(S(=O)(=O)N(Cc2cnc3c(c2)CCCN3C2CCOCC2)c2ccccc2)cc1 (nonaromatic ring conformer: 80.29742045339032 kcal/mol)

>  <smiles>  (82) 
Cc1ccc(S(=O)(=O)N(Cc2cnc3c(c2)CCCN3C2CCOCC2)c2ccccc2)cc1

>  <score_type>  (82) 
oracle

>  <origin>  (82) 
adg

>  <m_score__min__energy>  (82) 
-9.8499999999999996

>  <m_primary>  (82) 
energy

$$$$
82:0
     RDKit          3D

 36 38  0  0  1  0  0  0  0  0999 V2000
   63.6430   33.3880   47.6060 O   0  0  0  0  0  0  0  0  0  0  0  0
   62.6580   33.8800   48.2290 N   0  0  0  0  0  0  0  0  0  0  0  0
   62.9590   34.5500   49.3940 O   0  0  0  0  0  0  0  0  0  0  0  0
   61.3290   33.7390   47.7370 C   0  0  0  0  0  0  0  0  0  0  0  0
   61.1490   33.9120   46.3770 C   0  0  0  0  0  0  0  0  0  0  0  0
   59.8840   33.7850   45.8620 C   0  0  0  0  0  0  0  0  0  0  0  0
   58.7800   33.4870   46.6690 C   0  0  0  0  0  0  0  0  0  0  0  0
   57.5340   33.3820   46.0140 N   0  0  0  0  0  0  0  0  0  0  0  0
   57.4340   32.6040   44.9940 C   0  0  0  0  0  0  0  0  0  0  0  0
   56.9890   31.3400   44.8960 N   0  0  0  0  0  0  0  0  0  0  0  0
   57.0720   30.9330   43.6190 C   0  0  0  0  0  0  0  0  0  0  0  0
   56.6290   29.3620   42.8950 S   0  0  0  0  0  0  0  0  0  0  0  0
   57.7910   28.1110   43.4790 C   0  0  0  0  0  0  0  0  0  0  0  0
   58.5180   28.4940   44.6960 C   0  0  0  0  0  0  0  0  0  0  0  0
   59.7720   29.0690   44.7070 C   0  0  0  0  0  0  0  0  0  0  0  0
   60.4020   29.4070   45.9100 C   0  0  0  0  0  0  0  0  0  0  0  0
   59.7720   29.1670   47.1200 C   0  0  0  0  0  0  0  0  0  0  0  0
   58.5140   28.5900   47.0980 C   0  0  0  0  0  0  0  0  0  0  0  0
   57.8780   28.2500   45.9150 C   0  0  0  0  0  0  0  0  0  0  0  0
   56.6350   27.6820   45.9580 F   0  0  0  0  0  0  0  0  0  0  0  0
   57.5770   31.9510   42.9010 N   0  0  0  0  0  0  0  0  0  0  0  0
   57.7920   32.9610   43.7480 N   0  0  0  0  0  0  0  0  0  0  0  0
   58.9900   33.3210   48.0040 C   0  0  0  0  0  0  0  0  0  0  0  0
   60.2630   33.4440   48.5600 C   0  0  0  0  0  0  0  0  0  0  0  0
   62.0015   34.1463   45.7225 H   0  0  0  0  0  0  0  0  0  0  0  0
   59.7325   33.9216   44.7811 H   0  0  0  0  0  0  0  0  0  0  0  0
   57.2301   27.1879   43.6870 H   0  0  0  0  0  0  0  0  0  0  0  0
   58.5428   27.9799   42.6868 H   0  0  0  0  0  0  0  0  0  0  0  0
   60.2853   29.2651   43.7541 H   0  0  0  0  0  0  0  0  0  0  0  0
   61.4019   29.8653   45.8946 H   0  0  0  0  0  0  0  0  0  0  0  0
   60.2578   29.4277   48.0718 H   0  0  0  0  0  0  0  0  0  0  0  0
   58.0020   28.3948   48.0518 H   0  0  0  0  0  0  0  0  0  0  0  0
   57.7820   32.0030   41.8810 H   0  0  0  0  0  0  0  0  0  0  0  0
   58.1830   33.8980   43.4810 H   0  0  0  0  0  0  0  0  0  0  0  0
   58.1375   33.0849   48.6578 H   0  0  0  0  0  0  0  0  0  0  0  0
   60.4146   33.3075   49.6409 H   0  0  0  0  0  0  0  0  0  0  0  0
  1  2  2  0
  2  3  1  0
  2  4  1  0
  4  5  2  0
  5  6  1  0
  6  7  2  0
  7  8  1  0
  8  9  2  0
  9 10  1  0
 10 11  2  0
 11 12  1  0
 12 13  1  0
 13 14  1  0
 14 15  2  0
 15 16  1  0
 16 17  2  0
 17 18  1  0
 18 19  2  0
 19 20  1  0
 11 21  1  0
 21 22  1  0
  7 23  1  0
 23 24  2  0
 24  4  1  0
 22  9  1  0
 19 14  1  0
  5 25  1  0
  6 26  1  0
 13 27  1  0
 13 28  1  0
 15 29  1  0
 16 30  1  0
 17 31  1  0
 18 32  1  0
 21 33  1  0
 22 34  1  0
 23 35  1  0
 24 36  1  0
M  CHG  2   2   1   3  -1
M  END
>  <smiles>  (83) 
O=[N+]([O-])c1ccc(N=c2nc(SCc3ccccc3F)[nH][nH]2)cc1

>  <score_type>  (83) 
oracle

>  <origin>  (83) 
adg

>  <m_score__min__energy>  (83) 
-8.2400000000000002

>  <m_primary>  (83) 
energy

$$$$
83:0
     RDKit          3D

 38 39  0  0  0  0  0  0  0  0999 V2000
   56.7952   34.5530   45.6547 H   0  0  0  0  0  0  0  0  0  0  0  0
   57.6510   33.8630   45.6930 C   0  0  0  0  0  0  0  0  0  0  0  0
   57.6030   32.6770   44.8130 C   0  0  0  0  0  0  0  0  0  0  0  0
   58.5210   32.5090   43.9670 O   0  0  0  0  0  0  0  0  0  0  0  0
   56.5120   31.7540   44.8730 N   0  0  0  0  0  0  0  0  0  0  0  0
   56.6740   30.0850   44.4470 S   0  0  0  0  0  0  0  0  0  0  0  0
   56.7010   29.9560   42.9510 O   0  0  0  0  0  0  0  0  0  0  0  0
   55.4970   29.3230   44.9880 O   0  0  0  0  0  0  0  0  0  0  0  0
   58.1650   29.4470   45.1110 C   0  0  0  0  0  0  0  0  0  0  0  0
   59.0730   28.2060   44.4370 S   0  0  0  0  0  0  0  0  0  0  0  0
   60.2680   28.2020   45.6230 C   0  0  0  0  0  0  0  0  0  0  0  0
   61.1449   27.5384   45.6509 H   0  0  0  0  0  0  0  0  0  0  0  0
   59.9580   29.1800   46.5610 C   0  0  0  0  0  0  0  0  0  0  0  0
   60.5809   29.3851   47.4442 H   0  0  0  0  0  0  0  0  0  0  0  0
   58.7800   29.8790   46.2770 C   0  0  0  0  0  0  0  0  0  0  0  0
   58.3834   30.6857   46.9110 H   0  0  0  0  0  0  0  0  0  0  0  0
   58.6500   34.1700   46.5350 C   0  0  0  0  0  0  0  0  0  0  0  0
   59.0169   35.2070   46.5302 H   0  0  0  0  0  0  0  0  0  0  0  0
   59.2960   33.2220   47.4690 C   0  0  0  0  0  0  0  0  0  0  0  0
   58.5270   32.6700   48.5030 C   0  0  0  0  0  0  0  0  0  0  0  0
   57.4663   32.9462   48.5964 H   0  0  0  0  0  0  0  0  0  0  0  0
   59.0920   31.7680   49.4230 C   0  0  0  0  0  0  0  0  0  0  0  0
   58.2520   31.1790   50.5010 C   0  0  0  0  0  0  0  0  0  0  0  0
   58.1130   29.9260   50.5730 O   0  0  0  0  0  0  0  0  0  0  0  0
   57.5600   32.0310   51.5220 C   0  0  0  0  0  0  0  0  0  0  0  0
   57.8361   31.6911   52.5311 H   0  0  0  0  0  0  0  0  0  0  0  0
   57.8652   33.0798   51.3921 H   0  0  0  0  0  0  0  0  0  0  0  0
   56.4709   31.9473   51.3921 H   0  0  0  0  0  0  0  0  0  0  0  0
   60.4540   31.4410   49.2970 C   0  0  0  0  0  0  0  0  0  0  0  0
   60.9103   30.7290   50.0004 H   0  0  0  0  0  0  0  0  0  0  0  0
   61.2330   32.0110   48.2880 C   0  0  0  0  0  0  0  0  0  0  0  0
   62.2986   31.7496   48.2090 H   0  0  0  0  0  0  0  0  0  0  0  0
   60.6680   32.9160   47.3720 C   0  0  0  0  0  0  0  0  0  0  0  0
   61.4350   33.5280   46.3660 O   0  0  0  0  0  0  0  0  0  0  0  0
   62.8260   33.8050   46.4690 C   0  0  0  0  0  0  0  0  0  0  0  0
   63.1110   33.8618   47.5299 H   0  0  0  0  0  0  0  0  0  0  0  0
   63.3969   33.0029   45.9784 H   0  0  0  0  0  0  0  0  0  0  0  0
   63.0461   34.7646   45.9784 H   0  0  0  0  0  0  0  0  0  0  0  0
  1  2  1  0
  2  3  1  0
  3  4  2  0
  3  5  1  0
  5  6  1  0
  6  7  2  0
  6  8  2  0
  6  9  1  0
  9 10  1  0
 10 11  1  0
 11 12  1  0
 11 13  2  0
 13 14  1  0
 13 15  1  0
 15 16  1  0
  2 17  2  0
 17 18  1  0
 17 19  1  0
 19 20  2  0
 20 21  1  0
 20 22  1  0
 22 23  1  0
 23 24  2  0
 23 25  1  0
 25 26  1  0
 25 27  1  0
 25 28  1  0
 22 29  2  0
 29 30  1  0
 29 31  1  0
 31 32  1  0
 31 33  2  0
 33 34  1  0
 34 35  1  0
 35 36  1  0
 35 37  1  0
 35 38  1  0
 15  9  2  0
 33 19  1  0
M  CHG  1   5  -1
M  END
>  <UniqueID>  (84) 
80

>  <SMILES>  (84) 
COc1ccc(C(C)=O)cc1/C=C\C(=O)[N-]S(=O)(=O)c1cccs1

>  <Energy>  (84) 
72.99390414437983

>  <Genealogy>  (84) 
COc1ccc(C(C)=O)cc1C=CC(=O)[N-]S(=O)(=O)c1cccs1 (protonated)
COc1ccc(C(C)=O)cc1/C=C\C(=O)[N-]S(=O)(=O)c1cccs1 (cis-trans isomerization)
COc1ccc(C(C)=O)cc1/C=C\C(=O)[N-]S(=O)(=O)c1cccs1 (3D coordinates assigned)
COc1ccc(C(C)=O)cc1/C=C\C(=O)[N-]S(=O)(=O)c1cccs1 (optimized conformer: 72.99390414437983 kcal/mol)

>  <smiles>  (84) 
COc1ccc(C(C)=O)cc1C=CC(=O)NS(=O)(=O)c1cccs1

>  <score_type>  (84) 
oracle

>  <origin>  (84) 
adg

>  <m_score__min__energy>  (84) 
-10.529999999999999

>  <m_primary>  (84) 
energy

$$$$
84:0
     RDKit          3D

 40 42  0  0  0  0  0  0  0  0999 V2000
   56.8500   31.2890   45.0250 O   0  0  0  0  0  0  0  0  0  0  0  0
   57.7120   31.9640   44.4290 N   0  0  0  0  0  0  0  0  0  0  0  0
   58.0220   31.6400   43.1300 O   0  0  0  0  0  0  0  0  0  0  0  0
   58.5260   32.8980   45.1590 C   0  0  0  0  0  0  0  0  0  0  0  0
   58.5240   34.2500   44.7730 C   0  0  0  0  0  0  0  0  0  0  0  0
   59.2730   35.1930   45.4770 C   0  0  0  0  0  0  0  0  0  0  0  0
   60.0370   34.8010   46.5740 C   0  0  0  0  0  0  0  0  0  0  0  0
   60.0660   33.4610   46.9630 C   0  0  0  0  0  0  0  0  0  0  0  0
   59.3240   32.4940   46.2620 C   0  0  0  0  0  0  0  0  0  0  0  0
   59.4700   30.7970   46.7440 S   0  0  0  0  0  0  0  0  0  0  0  0
   60.9000   30.4660   47.0640 O   0  0  0  0  0  0  0  0  0  0  0  0
   58.6220   30.5740   47.9660 O   0  0  0  0  0  0  0  0  0  0  0  0
   58.9450   29.7830   45.4330 N   0  0  0  0  0  0  0  0  0  0  0  0
   58.6390   28.3880   45.5740 C   0  0  0  0  0  0  0  0  0  0  0  0
   57.3170   27.9100   45.4970 C   0  0  0  0  0  0  0  0  0  0  0  0
   57.0530   26.5420   45.6230 C   0  0  0  0  0  0  0  0  0  0  0  0
   58.0980   25.6330   45.8240 C   0  0  0  0  0  0  0  0  0  0  0  0
   57.8000   24.2680   45.9350 O   0  0  0  0  0  0  0  0  0  0  0  0
   57.4280   23.4340   44.8710 C   0  0  0  0  0  0  0  0  0  0  0  0
   58.1420   22.2620   44.5580 C   0  0  0  0  0  0  0  0  0  0  0  0
   57.7440   21.4630   43.4850 C   0  0  0  0  0  0  0  0  0  0  0  0
   56.6480   21.8330   42.7030 C   0  0  0  0  0  0  0  0  0  0  0  0
   55.9520   23.0100   42.9910 C   0  0  0  0  0  0  0  0  0  0  0  0
   56.3450   23.8100   44.0670 C   0  0  0  0  0  0  0  0  0  0  0  0
   59.4130   26.1140   45.9500 C   0  0  0  0  0  0  0  0  0  0  0  0
   59.6800   27.4810   45.8230 C   0  0  0  0  0  0  0  0  0  0  0  0
   57.9253   34.5675   43.9065 H   0  0  0  0  0  0  0  0  0  0  0  0
   59.2604   36.2479   45.1654 H   0  0  0  0  0  0  0  0  0  0  0  0
   60.6180   35.5484   47.1342 H   0  0  0  0  0  0  0  0  0  0  0  0
   60.6757   33.1582   47.8270 H   0  0  0  0  0  0  0  0  0  0  0  0
   58.7210   30.2590   44.5270 H   0  0  0  0  0  0  0  0  0  0  0  0
   56.4881   28.6152   45.3371 H   0  0  0  0  0  0  0  0  0  0  0  0
   56.0166   26.1782   45.5637 H   0  0  0  0  0  0  0  0  0  0  0  0
   59.0162   21.9750   45.1608 H   0  0  0  0  0  0  0  0  0  0  0  0
   58.2952   20.5393   43.2548 H   0  0  0  0  0  0  0  0  0  0  0  0
   56.3329   21.1988   41.8613 H   0  0  0  0  0  0  0  0  0  0  0  0
   55.0940   23.3070   42.3701 H   0  0  0  0  0  0  0  0  0  0  0  0
   55.8004   24.7408   44.2838 H   0  0  0  0  0  0  0  0  0  0  0  0
   60.2359   25.4118   46.1494 H   0  0  0  0  0  0  0  0  0  0  0  0
   60.7128   27.8473   45.9190 H   0  0  0  0  0  0  0  0  0  0  0  0
  1  2  2  0
  2  3  1  0
  2  4  1  0
  4  5  2  0
  5  6  1  0
  6  7  2  0
  7  8  1  0
  8  9  2  0
  9 10  1  0
 10 11  2  0
 10 12  2  0
 10 13  1  0
 13 14  1  0
 14 15  2  0
 15 16  1  0
 16 17  2  0
 17 18  1  0
 18 19  1  0
 19 20  2  0
 20 21  1  0
 21 22  2  0
 22 23  1  0
 23 24  2  0
 17 25  1  0
 25 26  2  0
  9  4  1  0
 26 14  1  0
 24 19  1  0
  5 27  1  0
  6 28  1  0
  7 29  1  0
  8 30  1  0
 13 31  1  0
 15 32  1  0
 16 33  1  0
 20 34  1  0
 21 35  1  0
 22 36  1  0
 23 37  1  0
 24 38  1  0
 25 39  1  0
 26 40  1  0
M  CHG  2   2   1   3  -1
M  END
>  <UniqueID>  (85) 
81

>  <SMILES>  (85) 
O=[N+]([O-])c1ccccc1S(=O)(=O)Nc1ccc(Oc2ccccc2)cc1

>  <Energy>  (85) 
59.841013453352396

>  <Genealogy>  (85) 
O=[N+]([O-])c1ccccc1S(=O)(=O)Nc1ccc(Oc2ccccc2)cc1 (3D coordinates assigned)
O=[N+]([O-])c1ccccc1S(=O)(=O)Nc1ccc(Oc2ccccc2)cc1 (optimized conformer: 59.841013453352396 kcal/mol)

>  <smiles>  (85) 
O=[N+]([O-])c1ccccc1S(=O)(=O)Nc1ccc(Oc2ccccc2)cc1

>  <score_type>  (85) 
oracle

>  <origin>  (85) 
adg

>  <m_score__min__energy>  (85) 
-9.0299999999999994

>  <m_primary>  (85) 
energy

$$$$
85:0
     RDKit          3D

 49 52  0  0  0  0  0  0  0  0999 V2000
   61.9410   34.2110   48.9240 C   0  0  0  0  0  0  0  0  0  0  0  0
   61.3110   33.1980   48.0770 N   0  0  0  0  0  0  0  0  0  0  0  0
   60.1720   33.5390   47.2550 C   0  0  0  0  0  0  0  0  0  0  0  0
   58.8700   33.1680   47.6440 C   0  0  0  0  0  0  0  0  0  0  0  0
   57.7690   33.5010   46.8480 C   0  0  0  0  0  0  0  0  0  0  0  0
   57.9520   34.2120   45.6610 C   0  0  0  0  0  0  0  0  0  0  0  0
   59.2360   34.5920   45.2670 C   0  0  0  0  0  0  0  0  0  0  0  0
   60.3400   34.2600   46.0570 C   0  0  0  0  0  0  0  0  0  0  0  0
   61.9560   31.5790   48.0780 S   0  0  0  0  0  0  0  0  0  0  0  0
   62.4770   31.2540   49.4510 O   0  0  0  0  0  0  0  0  0  0  0  0
   63.1030   31.4840   47.1110 O   0  0  0  0  0  0  0  0  0  0  0  0
   60.7050   30.4310   47.6080 C   0  0  0  0  0  0  0  0  0  0  0  0
   59.9250   29.8110   48.5920 C   0  0  0  0  0  0  0  0  0  0  0  0
   58.9400   28.8870   48.2340 C   0  0  0  0  0  0  0  0  0  0  0  0
   58.7100   28.5800   46.8840 C   0  0  0  0  0  0  0  0  0  0  0  0
   57.7090   27.6040   46.5440 N   0  0  0  0  0  0  0  0  0  0  0  0
   57.9800   26.4060   45.7980 C   0  0  0  0  0  0  0  0  0  0  0  0
   59.0010   26.3490   45.0580 O   0  0  0  0  0  0  0  0  0  0  0  0
   57.0460   25.2480   45.8580 C   0  0  0  0  0  0  0  0  0  0  0  0
   57.5450   23.9370   45.8040 C   0  0  0  0  0  0  0  0  0  0  0  0
   56.6640   22.8530   45.8540 C   0  0  0  0  0  0  0  0  0  0  0  0
   57.1250   21.5290   45.8050 C   0  0  0  0  0  0  0  0  0  0  0  0
   56.2120   20.4710   45.8530 C   0  0  0  0  0  0  0  0  0  0  0  0
   54.8410   20.7280   45.9470 C   0  0  0  0  0  0  0  0  0  0  0  0
   54.3750   22.0470   45.9960 C   0  0  0  0  0  0  0  0  0  0  0  0
   55.2820   23.1130   45.9490 C   0  0  0  0  0  0  0  0  0  0  0  0
   54.8370   24.3640   45.9920 O   0  0  0  0  0  0  0  0  0  0  0  0
   55.6460   25.4190   45.9510 C   0  0  0  0  0  0  0  0  0  0  0  0
   55.1400   26.5710   46.0060 O   0  0  0  0  0  0  0  0  0  0  0  0
   59.5070   29.1900   45.9000 C   0  0  0  0  0  0  0  0  0  0  0  0
   60.4900   30.1160   46.2590 C   0  0  0  0  0  0  0  0  0  0  0  0
   61.7818   33.9550   49.9819 H   0  0  0  0  0  0  0  0  0  0  0  0
   63.0201   34.2455   48.7135 H   0  0  0  0  0  0  0  0  0  0  0  0
   61.4948   35.1941   48.7135 H   0  0  0  0  0  0  0  0  0  0  0  0
   58.7179   32.6121   48.5809 H   0  0  0  0  0  0  0  0  0  0  0  0
   56.7569   33.2019   47.1582 H   0  0  0  0  0  0  0  0  0  0  0  0
   57.0849   34.4727   45.0364 H   0  0  0  0  0  0  0  0  0  0  0  0
   59.3793   35.1542   44.3324 H   0  0  0  0  0  0  0  0  0  0  0  0
   61.3485   34.5644   45.7404 H   0  0  0  0  0  0  0  0  0  0  0  0
   60.0887   30.0528   49.6525 H   0  0  0  0  0  0  0  0  0  0  0  0
   58.3408   28.3969   49.0155 H   0  0  0  0  0  0  0  0  0  0  0  0
   56.7130   27.8300   46.7620 H   0  0  0  0  0  0  0  0  0  0  0  0
   58.6281   23.7630   45.7224 H   0  0  0  0  0  0  0  0  0  0  0  0
   58.2029   21.3234   45.7289 H   0  0  0  0  0  0  0  0  0  0  0  0
   56.5738   19.4328   45.8167 H   0  0  0  0  0  0  0  0  0  0  0  0
   54.1270   19.8920   45.9825 H   0  0  0  0  0  0  0  0  0  0  0  0
   53.2958   22.2463   46.0715 H   0  0  0  0  0  0  0  0  0  0  0  0
   59.3559   28.9368   44.8403 H   0  0  0  0  0  0  0  0  0  0  0  0
   61.0976   30.5997   45.4800 H   0  0  0  0  0  0  0  0  0  0  0  0
  1  2  1  0
  2  3  1  0
  3  4  2  0
  4  5  1  0
  5  6  2  0
  6  7  1  0
  7  8  2  0
  2  9  1  0
  9 10  2  0
  9 11  2  0
  9 12  1  0
 12 13  2  0
 13 14  1  0
 14 15  2  0
 15 16  1  0
 16 17  1  0
 17 18  2  0
 17 19  1  0
 19 20  2  0
 20 21  1  0
 21 22  2  0
 22 23  1  0
 23 24  2  0
 24 25  1  0
 25 26  2  0
 26 27  1  0
 27 28  1  0
 28 29  2  0
 15 30  1  0
 30 31  2  0
  8  3  1  0
 31 12  1  0
 28 19  1  0
 26 21  1  0
  1 32  1  0
  1 33  1  0
  1 34  1  0
  4 35  1  0
  5 36  1  0
  6 37  1  0
  7 38  1  0
  8 39  1  0
 13 40  1  0
 14 41  1  0
 16 42  1  0
 20 43  1  0
 22 44  1  0
 23 45  1  0
 24 46  1  0
 25 47  1  0
 30 48  1  0
 31 49  1  0
M  END
>  <UniqueID>  (86) 
82

>  <SMILES>  (86) 
CN(c1ccccc1)S(=O)(=O)c1ccc(NC(=O)c2cc3ccccc3oc2=O)cc1

>  <Energy>  (86) 
69.31780743822806

>  <Genealogy>  (86) 
CN(c1ccccc1)S(=O)(=O)c1ccc(NC(=O)c2cc3ccccc3oc2=O)cc1 (3D coordinates assigned)
CN(c1ccccc1)S(=O)(=O)c1ccc(NC(=O)c2cc3ccccc3oc2=O)cc1 (optimized conformer: 69.31780743822806 kcal/mol)

>  <smiles>  (86) 
CN(c1ccccc1)S(=O)(=O)c1ccc(NC(=O)c2cc3ccccc3oc2=O)cc1

>  <score_type>  (86) 
oracle

>  <origin>  (86) 
adg

>  <m_score__min__energy>  (86) 
-9.8100000000000005

>  <m_primary>  (86) 
energy

$$$$
86:0
     RDKit          3D

 32 34  0  0  0  0  0  0  0  0999 V2000
   58.3060   25.4893   47.3620 H   0  0  0  0  0  0  0  0  0  0  0  0
   58.3770   26.5300   47.0130 C   0  0  0  0  0  0  0  0  0  0  0  0
   57.8030   26.8330   45.8840 N   0  0  0  0  0  0  0  0  0  0  0  0
   57.1900   28.0820   45.5370 C   0  0  0  0  0  0  0  0  0  0  0  0
   57.8260   29.2810   45.2710 C   0  0  0  0  0  0  0  0  0  0  0  0
   59.2380   29.5690   45.2880 C   0  0  0  0  0  0  0  0  0  0  0  0
   60.3720   29.7990   45.3020 N   0  0  0  0  0  0  0  0  0  0  0  0
   56.8070   30.1100   44.8500 C   0  0  0  0  0  0  0  0  0  0  0  0
   56.9560   31.3600   44.5190 N   0  0  0  0  0  0  0  0  0  0  0  0
   57.7190   32.3510   45.2280 C   0  0  0  0  0  0  0  0  0  0  0  0
   57.7830   32.2720   46.6260 C   0  0  0  0  0  0  0  0  0  0  0  0
   57.2362   31.4769   47.1541 H   0  0  0  0  0  0  0  0  0  0  0  0
   58.5380   33.1980   47.3540 C   0  0  0  0  0  0  0  0  0  0  0  0
   58.5717   33.1377   48.4518 H   0  0  0  0  0  0  0  0  0  0  0  0
   59.2490   34.1990   46.6880 C   0  0  0  0  0  0  0  0  0  0  0  0
   59.8348   34.9322   47.2618 H   0  0  0  0  0  0  0  0  0  0  0  0
   59.2160   34.2690   45.2920 C   0  0  0  0  0  0  0  0  0  0  0  0
   59.7828   35.0523   44.7675 H   0  0  0  0  0  0  0  0  0  0  0  0
   58.4630   33.3440   44.5620 C   0  0  0  0  0  0  0  0  0  0  0  0
   58.4518   33.3922   43.4631 H   0  0  0  0  0  0  0  0  0  0  0  0
   55.6300   29.4480   44.8600 N   0  0  0  0  0  0  0  0  0  0  0  0
   55.8790   28.2100   45.2610 N   0  0  0  0  0  0  0  0  0  0  0  0
   55.1540   27.4620   45.3400 H   0  0  0  0  0  0  0  0  0  0  0  0
   59.1170   27.4910   47.8560 C   0  0  0  0  0  0  0  0  0  0  0  0
   60.3300   27.2270   48.4590 C   0  0  0  0  0  0  0  0  0  0  0  0
   60.9278   26.3086   48.3632 H   0  0  0  0  0  0  0  0  0  0  0  0
   60.6440   28.3440   49.2060 C   0  0  0  0  0  0  0  0  0  0  0  0
   61.5492   28.4967   49.8120 H   0  0  0  0  0  0  0  0  0  0  0  0
   59.6000   29.2320   49.0440 C   0  0  0  0  0  0  0  0  0  0  0  0
   59.5388   30.2248   49.5138 H   0  0  0  0  0  0  0  0  0  0  0  0
   58.6680   28.7070   48.2280 N   0  0  0  0  0  0  0  0  0  0  0  0
   57.7570   29.1520   47.9820 H   0  0  0  0  0  0  0  0  0  0  0  0
  1  2  1  0
  2  3  2  0
  3  4  1  0
  4  5  2  0
  5  6  1  0
  6  7  3  0
  5  8  1  0
  8  9  2  0
  9 10  1  0
 10 11  2  0
 11 12  1  0
 11 13  1  0
 13 14  1  0
 13 15  2  0
 15 16  1  0
 15 17  1  0
 17 18  1  0
 17 19  2  0
 19 20  1  0
  8 21  1  0
 21 22  1  0
 22 23  1  0
  2 24  1  0
 24 25  2  0
 25 26  1  0
 25 27  1  0
 27 28  1  0
 27 29  2  0
 29 30  1  0
 29 31  1  0
 31 32  1  0
 22  4  1  0
 31 24  1  0
 19 10  1  0
M  CHG  1  21  -1
M  END
>  <UniqueID>  (87) 
83

>  <SMILES>  (87) 
N#Cc1c(/N=C\c2ccc[nH]2)[nH][n-]/c1=N\c1ccccc1

>  <Energy>  (87) 
106.89365109483998

>  <Genealogy>  (87) 
N#Cc1c(N=Cc2ccc[nH]2)[nH][n-]c1=Nc1ccccc1 (protonated)
N#Cc1c(/N=C\c2ccc[nH]2)[nH][n-]/c1=N\c1ccccc1 (cis-trans isomerization)
N#Cc1c(/N=C\c2ccc[nH]2)[nH][n-]/c1=N\c1ccccc1 (3D coordinates assigned)
N#Cc1c(/N=C\c2ccc[nH]2)[nH][n-]/c1=N\c1ccccc1 (optimized conformer: 106.89365109483998 kcal/mol)

>  <smiles>  (87) 
N#Cc1c(N=Cc2ccc[nH]2)[nH][nH]c1=Nc1ccccc1

>  <score_type>  (87) 
oracle

>  <origin>  (87) 
adg

>  <m_score__min__energy>  (87) 
-9.2100000000000009

>  <m_primary>  (87) 
energy

$$$$
87:0
     RDKit          3D

 43 46  0  0  0  0  0  0  0  0999 V2000
   59.5930   35.0690   45.4670 C   0  0  0  0  0  0  0  0  0  0  0  0
   59.4960   33.8390   46.4040 C   0  0  0  0  0  0  0  0  0  0  0  0
   60.8630   33.1320   46.3870 C   0  0  0  0  0  0  0  0  0  0  0  0
   59.1680   34.2060   47.8890 C   0  0  0  0  0  0  0  0  0  0  0  0
   59.2780   33.1750   49.0130 C   0  0  0  0  0  0  0  0  0  0  0  0
   60.3700   34.2140   48.8300 C   0  0  0  0  0  0  0  0  0  0  0  0
   58.4780   32.8950   45.9020 N   0  0  0  0  0  0  0  0  0  0  0  0
   58.5120   31.5520   45.9990 C   0  0  0  0  0  0  0  0  0  0  0  0
   57.3950   31.0860   45.3390 C   0  0  0  0  0  0  0  0  0  0  0  0
   56.9730   29.6840   45.1690 C   0  0  0  0  0  0  0  0  0  0  0  0
   55.8040   29.4430   44.7690 O   0  0  0  0  0  0  0  0  0  0  0  0
   57.8310   28.5850   45.5010 N   0  0  0  0  0  0  0  0  0  0  0  0
   57.6450   27.2200   45.0980 C   0  0  0  0  0  0  0  0  0  0  0  0
   57.8840   26.8670   43.7670 C   0  0  0  0  0  0  0  0  0  0  0  0
   57.7100   25.5460   43.3430 C   0  0  0  0  0  0  0  0  0  0  0  0
   57.3090   24.5490   44.2500 C   0  0  0  0  0  0  0  0  0  0  0  0
   57.1270   23.1930   43.7960 N   0  0  0  0  0  0  0  0  0  0  0  0
   57.8570   22.0970   44.0880 C   0  0  0  0  0  0  0  0  0  0  0  0
   57.3280   21.0400   43.4520 N   0  0  0  0  0  0  0  0  0  0  0  0
   56.2810   21.4880   42.7790 N   0  0  0  0  0  0  0  0  0  0  0  0
   56.1580   22.7900   42.9860 N   0  0  0  0  0  0  0  0  0  0  0  0
   57.1010   24.9040   45.5960 C   0  0  0  0  0  0  0  0  0  0  0  0
   57.2770   26.2240   46.0180 C   0  0  0  0  0  0  0  0  0  0  0  0
   56.7090   32.1470   44.8710 N   0  0  0  0  0  0  0  0  0  0  0  0
   57.3920   33.2280   45.2190 N   0  0  0  0  0  0  0  0  0  0  0  0
   59.6653   35.9854   46.0712 H   0  0  0  0  0  0  0  0  0  0  0  0
   60.4867   34.9769   44.8323 H   0  0  0  0  0  0  0  0  0  0  0  0
   58.6959   35.1181   44.8323 H   0  0  0  0  0  0  0  0  0  0  0  0
   61.1988   32.9583   47.4200 H   0  0  0  0  0  0  0  0  0  0  0  0
   60.7710   32.1684   45.8644 H   0  0  0  0  0  0  0  0  0  0  0  0
   61.5962   33.7640   45.8644 H   0  0  0  0  0  0  0  0  0  0  0  0
   58.3606   34.8885   47.5852 H   0  0  0  0  0  0  0  0  0  0  0  0
   58.6037   33.2331   49.8801 H   0  0  0  0  0  0  0  0  0  0  0  0
   59.2513   32.0766   49.0653 H   0  0  0  0  0  0  0  0  0  0  0  0
   60.4864   35.0238   49.5654 H   0  0  0  0  0  0  0  0  0  0  0  0
   61.4611   34.1777   48.6955 H   0  0  0  0  0  0  0  0  0  0  0  0
   59.2790   30.9470   46.5046 H   0  0  0  0  0  0  0  0  0  0  0  0
   58.2110   27.6331   43.0486 H   0  0  0  0  0  0  0  0  0  0  0  0
   57.8885   25.2841   42.2897 H   0  0  0  0  0  0  0  0  0  0  0  0
   58.7418   22.0733   44.7411 H   0  0  0  0  0  0  0  0  0  0  0  0
   57.6580   20.0500   43.4730 H   0  0  0  0  0  0  0  0  0  0  0  0
   56.7972   24.1354   46.3219 H   0  0  0  0  0  0  0  0  0  0  0  0
   57.1267   26.4849   47.0760 H   0  0  0  0  0  0  0  0  0  0  0  0
  1  2  1  0
  2  3  1  0
  2  4  1  0
  4  5  1  0
  5  6  1  0
  2  7  1  0
  7  8  1  0
  8  9  2  0
  9 10  1  0
 10 11  2  0
 10 12  1  0
 12 13  1  0
 13 14  2  0
 14 15  1  0
 15 16  2  0
 16 17  1  0
 17 18  1  0
 18 19  2  0
 19 20  1  0
 20 21  2  0
 16 22  1  0
 22 23  2  0
  9 24  1  0
 24 25  2  0
  6  4  1  0
 25  7  1  0
 23 13  1  0
 21 17  1  0
  1 26  1  0
  1 27  1  0
  1 28  1  0
  3 29  1  0
  3 30  1  0
  3 31  1  0
  4 32  1  0
  5 33  1  0
  5 34  1  0
  6 35  1  0
  6 36  1  0
  8 37  1  0
 14 38  1  0
 15 39  1  0
 18 40  1  0
 19 41  1  0
 22 42  1  0
 23 43  1  0
M  CHG  2  12  -1  19   1
M  END
>  <UniqueID>  (88) 
84

>  <SMILES>  (88) 
CC(C)(C1CC1)n1cc(C(=O)[N-]c2ccc(-n3c[nH+]nn3)cc2)nn1

>  <Energy>  (88) 
395.0847818353661

>  <Genealogy>  (88) 
CC(C)(C1CC1)n1cc(C(=O)[N-]c2ccc(-n3c[nH+]nn3)cc2)nn1 (protonated)
CC(C)(C1CC1)n1cc(C(=O)[N-]c2ccc(-n3c[nH+]nn3)cc2)nn1 (3D coordinates assigned)
CC(C)(C1CC1)n1cc(C(=O)[N-]c2ccc(-n3c[nH+]nn3)cc2)nn1 (nonaromatic ring conformer: 395.0847818353661 kcal/mol)

>  <smiles>  (88) 
CC(C)(C1CC1)n1cc(C(=O)Nc2ccc(-n3cnnn3)cc2)nn1

>  <score_type>  (88) 
oracle

>  <origin>  (88) 
adg

>  <m_score__min__energy>  (88) 
-9.6999999999999993

>  <m_primary>  (88) 
energy

$$$$
88:0
     RDKit          3D

 35 36  0  0  0  0  0  0  0  0999 V2000
   55.1100   26.2810   46.0320 N   0  0  0  0  0  0  0  0  0  0  0  0
   56.8360   26.3520   45.9980 S   0  0  0  0  0  0  0  0  0  0  0  0
   57.3810   25.8890   47.3190 O   0  0  0  0  0  0  0  0  0  0  0  0
   57.3560   25.4480   44.9170 O   0  0  0  0  0  0  0  0  0  0  0  0
   57.3500   28.0080   45.6880 C   0  0  0  0  0  0  0  0  0  0  0  0
   56.5820   28.8420   44.8660 C   0  0  0  0  0  0  0  0  0  0  0  0
   56.9850   30.1580   44.6250 C   0  0  0  0  0  0  0  0  0  0  0  0
   58.1650   30.6570   45.1970 C   0  0  0  0  0  0  0  0  0  0  0  0
   58.5620   32.0130   44.9300 N   0  0  0  0  0  0  0  0  0  0  0  0
   58.0990   33.1490   45.6780 C   0  0  0  0  0  0  0  0  0  0  0  0
   57.7340   34.5320   44.8880 S   0  0  0  0  0  0  0  0  0  0  0  0
   57.9800   33.1220   47.1070 N   0  0  0  0  0  0  0  0  0  0  0  0
   58.8960   33.5390   47.9280 C   0  0  0  0  0  0  0  0  0  0  0  0
   60.3120   33.1560   47.7460 C   0  0  0  0  0  0  0  0  0  0  0  0
   61.1460   34.0830   47.0960 C   0  0  0  0  0  0  0  0  0  0  0  0
   62.4670   33.7580   46.7860 C   0  0  0  0  0  0  0  0  0  0  0  0
   62.9750   32.5050   47.1230 C   0  0  0  0  0  0  0  0  0  0  0  0
   62.1710   31.5800   47.7900 C   0  0  0  0  0  0  0  0  0  0  0  0
   60.8430   31.8940   48.1330 C   0  0  0  0  0  0  0  0  0  0  0  0
   60.0870   30.9150   48.9460 C   0  0  0  0  0  0  0  0  0  0  0  0
   60.3070   29.6790   48.8370 O   0  0  0  0  0  0  0  0  0  0  0  0
   59.0740   31.3470   49.7930 O   0  0  0  0  0  0  0  0  0  0  0  0
   58.9170   29.8250   46.0470 C   0  0  0  0  0  0  0  0  0  0  0  0
   58.5140   28.5080   46.2870 C   0  0  0  0  0  0  0  0  0  0  0  0
   54.7830   27.0890   46.6070 H   0  0  0  0  0  0  0  0  0  0  0  0
   55.6578   28.4596   44.4082 H   0  0  0  0  0  0  0  0  0  0  0  0
   56.3727   30.8075   43.9822 H   0  0  0  0  0  0  0  0  0  0  0  0
   59.1670   32.1940   44.0960 H   0  0  0  0  0  0  0  0  0  0  0  0
   58.6139   34.1867   48.7711 H   0  0  0  0  0  0  0  0  0  0  0  0
   60.7527   35.0750   46.8291 H   0  0  0  0  0  0  0  0  0  0  0  0
   63.1080   34.4916   46.2751 H   0  0  0  0  0  0  0  0  0  0  0  0
   64.0116   32.2446   46.8628 H   0  0  0  0  0  0  0  0  0  0  0  0
   62.5805   30.5930   48.0509 H   0  0  0  0  0  0  0  0  0  0  0  0
   59.8280   30.2135   46.5258 H   0  0  0  0  0  0  0  0  0  0  0  0
   59.1119   27.8628   46.9475 H   0  0  0  0  0  0  0  0  0  0  0  0
  1  2  1  0
  2  3  2  0
  2  4  2  0
  2  5  1  0
  5  6  2  0
  6  7  1  0
  7  8  2  0
  8  9  1  0
  9 10  1  0
 10 11  2  0
 10 12  1  0
 12 13  2  3
 13 14  1  0
 14 15  2  0
 15 16  1  0
 16 17  2  0
 17 18  1  0
 18 19  2  0
 19 20  1  0
 20 21  2  0
 20 22  1  0
  8 23  1  0
 23 24  2  0
 24  5  1  0
 19 14  1  0
  1 25  1  0
  6 26  1  0
  7 27  1  0
  9 28  1  0
 13 29  1  0
 15 30  1  0
 16 31  1  0
 17 32  1  0
 18 33  1  0
 23 34  1  0
 24 35  1  0
M  CHG  2   1  -1  22  -1
M  END
>  <UniqueID>  (89) 
85

>  <SMILES>  (89) 
[NH-]S(=O)(=O)c1ccc(NC(=S)N=Cc2ccccc2C(=O)[O-])cc1

>  <Energy>  (89) 
48.69437081557426

>  <Genealogy>  (89) 
[NH-]S(=O)(=O)c1ccc(NC(=S)N=Cc2ccccc2C(=O)[O-])cc1 (protonated)
[NH-]S(=O)(=O)c1ccc(NC(=S)N=Cc2ccccc2C(=O)[O-])cc1 (3D coordinates assigned)
[NH-]S(=O)(=O)c1ccc(NC(=S)N=Cc2ccccc2C(=O)[O-])cc1 (optimized conformer: 48.69437081557426 kcal/mol)

>  <smiles>  (89) 
NS(=O)(=O)c1ccc(NC(=S)N=Cc2ccccc2C(=O)O)cc1

>  <score_type>  (89) 
oracle

>  <origin>  (89) 
adg

>  <m_score__min__energy>  (89) 
-12.01

>  <m_primary>  (89) 
energy

$$$$
89:0
     RDKit          3D

 79 81  0  0  0  0  0  0  0  0999 V2000
   62.8870   33.5570   51.5650 C   0  0  0  0  0  0  0  0  0  0  0  0
   61.4530   33.4180   51.0520 C   0  0  0  0  0  0  0  0  0  0  0  0
   61.2210   34.1960   49.7490 C   0  0  0  0  0  0  0  0  0  0  0  0
   59.8840   33.8370   49.0840 C   0  0  0  0  0  0  0  0  0  0  0  0
   60.0180   33.9170   47.6050 N   0  0  0  0  0  0  0  0  0  0  0  0
   59.0690   34.8800   47.0050 C   0  0  0  0  0  0  0  0  0  0  0  0
   59.0960   34.8050   45.4650 C   0  0  0  0  0  0  0  0  0  0  0  0
   57.8370   34.1600   44.8670 C   0  0  0  0  0  0  0  0  0  0  0  0
   56.9660   33.4640   45.9140 C   0  0  0  0  0  0  0  0  0  0  0  0
   61.4150   34.2160   47.2020 C   0  0  0  0  0  0  0  0  0  0  0  0
   62.1310   32.9200   46.7680 C   0  0  0  0  0  0  0  0  0  0  0  0
   63.3980   32.6050   47.5800 C   0  0  0  0  0  0  0  0  0  0  0  0
   63.1680   31.6220   48.7300 C   0  0  0  0  0  0  0  0  0  0  0  0
   62.1640   30.6660   48.3830 O   0  0  0  0  0  0  0  0  0  0  0  0
   60.9640   30.4590   49.0840 C   0  0  0  0  0  0  0  0  0  0  0  0
   61.0630   30.0190   50.4100 C   0  0  0  0  0  0  0  0  0  0  0  0
   59.9220   29.8300   51.1900 C   0  0  0  0  0  0  0  0  0  0  0  0
   58.6480   30.0530   50.6440 C   0  0  0  0  0  0  0  0  0  0  0  0
   57.4680   29.8850   51.3810 O   0  0  0  0  0  0  0  0  0  0  0  0
   57.2780   30.3250   52.7220 C   0  0  0  0  0  0  0  0  0  0  0  0
   57.9530   31.6550   52.8940 C   0  0  0  0  0  0  0  0  0  0  0  0
   57.5510   32.7530   52.1160 C   0  0  0  0  0  0  0  0  0  0  0  0
   58.1350   34.0090   52.3140 C   0  0  0  0  0  0  0  0  0  0  0  0
   59.1150   34.1790   53.2970 C   0  0  0  0  0  0  0  0  0  0  0  0
   59.5070   33.0940   54.0870 C   0  0  0  0  0  0  0  0  0  0  0  0
   58.9260   31.8360   53.8900 C   0  0  0  0  0  0  0  0  0  0  0  0
   58.5390   30.4610   49.3140 C   0  0  0  0  0  0  0  0  0  0  0  0
   59.6830   30.6610   48.5160 C   0  0  0  0  0  0  0  0  0  0  0  0
   59.5710   31.0260   47.1680 O   0  0  0  0  0  0  0  0  0  0  0  0
   59.8010   30.1560   46.0620 C   0  0  0  0  0  0  0  0  0  0  0  0
   58.5640   30.1130   45.2200 C   0  0  0  0  0  0  0  0  0  0  0  0
   57.5090   29.2490   45.5600 C   0  0  0  0  0  0  0  0  0  0  0  0
   56.3320   29.2440   44.8050 C   0  0  0  0  0  0  0  0  0  0  0  0
   56.1950   30.1080   43.7140 C   0  0  0  0  0  0  0  0  0  0  0  0
   57.2310   30.9880   43.3850 C   0  0  0  0  0  0  0  0  0  0  0  0
   58.4090   30.9980   44.1390 C   0  0  0  0  0  0  0  0  0  0  0  0
   62.8845   33.5568   52.6650 H   0  0  0  0  0  0  0  0  0  0  0  0
   63.4906   32.7132   51.1995 H   0  0  0  0  0  0  0  0  0  0  0  0
   63.3173   34.5011   51.1995 H   0  0  0  0  0  0  0  0  0  0  0  0
   61.2443   32.3534   50.8700 H   0  0  0  0  0  0  0  0  0  0  0  0
   60.7808   33.8349   51.8164 H   0  0  0  0  0  0  0  0  0  0  0  0
   61.2257   35.2726   49.9746 H   0  0  0  0  0  0  0  0  0  0  0  0
   62.0266   33.9277   49.0497 H   0  0  0  0  0  0  0  0  0  0  0  0
   59.5974   32.8142   49.3697 H   0  0  0  0  0  0  0  0  0  0  0  0
   59.1115   34.5458   49.4170 H   0  0  0  0  0  0  0  0  0  0  0  0
   58.0529   34.6492   47.3576 H   0  0  0  0  0  0  0  0  0  0  0  0
   59.3643   35.8950   47.3092 H   0  0  0  0  0  0  0  0  0  0  0  0
   59.1879   35.8264   45.0671 H   0  0  0  0  0  0  0  0  0  0  0  0
   59.9512   34.1728   45.1841 H   0  0  0  0  0  0  0  0  0  0  0  0
   57.2394   34.9443   44.3795 H   0  0  0  0  0  0  0  0  0  0  0  0
   58.1689   33.3922   44.1527 H   0  0  0  0  0  0  0  0  0  0  0  0
   57.3118   33.7403   46.9210 H   0  0  0  0  0  0  0  0  0  0  0  0
   55.9192   33.7772   45.7870 H   0  0  0  0  0  0  0  0  0  0  0  0
   57.0406   32.3739   45.7870 H   0  0  0  0  0  0  0  0  0  0  0  0
   61.4072   34.9261   46.3619 H   0  0  0  0  0  0  0  0  0  0  0  0
   61.9504   34.6538   48.0574 H   0  0  0  0  0  0  0  0  0  0  0  0
   61.4286   32.0813   46.8832 H   0  0  0  0  0  0  0  0  0  0  0  0
   62.4488   33.0653   45.7250 H   0  0  0  0  0  0  0  0  0  0  0  0
   64.1471   32.1734   46.8998 H   0  0  0  0  0  0  0  0  0  0  0  0
   63.7325   33.5512   48.0303 H   0  0  0  0  0  0  0  0  0  0  0  0
   64.1085   31.0950   48.9484 H   0  0  0  0  0  0  0  0  0  0  0  0
   62.8316   32.1837   49.6140 H   0  0  0  0  0  0  0  0  0  0  0  0
   62.0546   29.8196   50.8425 H   0  0  0  0  0  0  0  0  0  0  0  0
   60.0208   29.5052   52.2363 H   0  0  0  0  0  0  0  0  0  0  0  0
   56.2025   30.4265   52.9291 H   0  0  0  0  0  0  0  0  0  0  0  0
   57.7097   29.5932   53.4206 H   0  0  0  0  0  0  0  0  0  0  0  0
   56.7740   32.6251   51.3480 H   0  0  0  0  0  0  0  0  0  0  0  0
   57.8229   34.8636   51.6958 H   0  0  0  0  0  0  0  0  0  0  0  0
   59.5772   35.1656   53.4486 H   0  0  0  0  0  0  0  0  0  0  0  0
   60.2732   33.2293   54.8646 H   0  0  0  0  0  0  0  0  0  0  0  0
   59.2327   30.9862   54.5176 H   0  0  0  0  0  0  0  0  0  0  0  0
   57.5421   30.6295   48.8807 H   0  0  0  0  0  0  0  0  0  0  0  0
   60.6433   30.5330   45.4634 H   0  0  0  0  0  0  0  0  0  0  0  0
   60.0435   29.1459   46.4238 H   0  0  0  0  0  0  0  0  0  0  0  0
   57.6095   28.5744   46.4230 H   0  0  0  0  0  0  0  0  0  0  0  0
   55.5127   28.5594   45.0697 H   0  0  0  0  0  0  0  0  0  0  0  0
   55.2726   30.0955   43.1147 H   0  0  0  0  0  0  0  0  0  0  0  0
   57.1192   31.6734   42.5319 H   0  0  0  0  0  0  0  0  0  0  0  0
   59.2165   31.7005   43.8853 H   0  0  0  0  0  0  0  0  0  0  0  0
  1  2  1  0
  2  3  1  0
  3  4  1  0
  4  5  1  0
  5  6  1  0
  6  7  1  0
  7  8  1  0
  8  9  1  0
  5 10  1  0
 10 11  1  0
 11 12  1  0
 12 13  1  0
 13 14  1  0
 14 15  1  0
 15 16  2  0
 16 17  1  0
 17 18  2  0
 18 19  1  0
 19 20  1  0
 20 21  1  0
 21 22  2  0
 22 23  1  0
 23 24  2  0
 24 25  1  0
 25 26  2  0
 18 27  1  0
 27 28  2  0
 28 29  1  0
 29 30  1  0
 30 31  1  0
 31 32  2  0
 32 33  1  0
 33 34  2  0
 34 35  1  0
 35 36  2  0
 28 15  1  0
 36 31  1  0
 26 21  1  0
  1 37  1  0
  1 38  1  0
  1 39  1  0
  2 40  1  0
  2 41  1  0
  3 42  1  0
  3 43  1  0
  4 44  1  0
  4 45  1  0
  6 46  1  0
  6 47  1  0
  7 48  1  0
  7 49  1  0
  8 50  1  0
  8 51  1  0
  9 52  1  0
  9 53  1  0
  9 54  1  0
 10 55  1  0
 10 56  1  0
 11 57  1  0
 11 58  1  0
 12 59  1  0
 12 60  1  0
 13 61  1  0
 13 62  1  0
 16 63  1  0
 17 64  1  0
 20 65  1  0
 20 66  1  0
 22 67  1  0
 23 68  1  0
 24 69  1  0
 25 70  1  0
 26 71  1  0
 27 72  1  0
 30 73  1  0
 30 74  1  0
 32 75  1  0
 33 76  1  0
 34 77  1  0
 35 78  1  0
 36 79  1  0
M  END
>  <UniqueID>  (90) 
86

>  <SMILES>  (90) 
CCCCN(CCCC)CCCCOc1ccc(OCc2ccccc2)cc1OCc1ccccc1

>  <Energy>  (90) 
74.06986548687331

>  <Genealogy>  (90) 
CCCCN(CCCC)CCCCOc1ccc(OCc2ccccc2)cc1OCc1ccccc1 (3D coordinates assigned)
CCCCN(CCCC)CCCCOc1ccc(OCc2ccccc2)cc1OCc1ccccc1 (optimized conformer: 74.06986548687331 kcal/mol)

>  <smiles>  (90) 
CCCCN(CCCC)CCCCOc1ccc(OCc2ccccc2)cc1OCc1ccccc1

>  <score_type>  (90) 
oracle

>  <origin>  (90) 
adg

>  <m_score__min__energy>  (90) 
-7.9500000000000002

>  <m_primary>  (90) 
energy

$$$$
90:0
     RDKit          3D

 45 47  0  0  0  0  0  0  0  0999 V2000
   55.0260   23.7100   46.1770 C   0  0  0  0  0  0  0  0  0  0  0  0
   55.8860   24.3780   47.0930 O   0  0  0  0  0  0  0  0  0  0  0  0
   56.7290   25.4270   46.7110 C   0  0  0  0  0  0  0  0  0  0  0  0
   58.0780   25.3270   46.8700 N   0  0  0  0  0  0  0  0  0  0  0  0
   58.9220   26.3300   46.5070 C   0  0  0  0  0  0  0  0  0  0  0  0
   58.4160   27.5100   45.9420 C   0  0  0  0  0  0  0  0  0  0  0  0
   59.3260   28.6110   45.5570 C   0  0  0  0  0  0  0  0  0  0  0  0
   60.2210   28.4060   44.6930 O   0  0  0  0  0  0  0  0  0  0  0  0
   59.2180   29.9120   46.1620 N   0  0  0  0  0  0  0  0  0  0  0  0
   57.9530   30.6530   46.0880 C   0  0  0  0  0  0  0  0  0  0  0  0
   57.6450   31.0040   44.6580 C   0  0  0  0  0  0  0  0  0  0  0  0
   58.1780   32.1710   44.0870 C   0  0  0  0  0  0  0  0  0  0  0  0
   57.9260   32.4770   42.7460 C   0  0  0  0  0  0  0  0  0  0  0  0
   57.1510   31.6130   41.9650 C   0  0  0  0  0  0  0  0  0  0  0  0
   56.6310   30.4430   42.5230 C   0  0  0  0  0  0  0  0  0  0  0  0
   56.8800   30.1340   43.8640 C   0  0  0  0  0  0  0  0  0  0  0  0
   60.4060   30.5220   46.7670 C   0  0  0  0  0  0  0  0  0  0  0  0
   60.0900   31.9310   47.1840 C   0  0  0  0  0  0  0  0  0  0  0  0
   59.5440   32.1860   48.4530 C   0  0  0  0  0  0  0  0  0  0  0  0
   59.3100   33.5000   48.8680 C   0  0  0  0  0  0  0  0  0  0  0  0
   59.6300   34.5680   48.0260 C   0  0  0  0  0  0  0  0  0  0  0  0
   60.1880   34.3240   46.7670 C   0  0  0  0  0  0  0  0  0  0  0  0
   60.4230   33.0110   46.3480 C   0  0  0  0  0  0  0  0  0  0  0  0
   57.0280   27.6340   45.7820 C   0  0  0  0  0  0  0  0  0  0  0  0
   56.1810   26.5910   46.1640 C   0  0  0  0  0  0  0  0  0  0  0  0
   54.8070   26.7140   46.0030 O   0  0  0  0  0  0  0  0  0  0  0  0
   54.2772   23.1284   46.7346 H   0  0  0  0  0  0  0  0  0  0  0  0
   54.5171   24.4519   45.5441 H   0  0  0  0  0  0  0  0  0  0  0  0
   55.6190   23.0333   45.5441 H   0  0  0  0  0  0  0  0  0  0  0  0
   60.0057   26.2153   46.6571 H   0  0  0  0  0  0  0  0  0  0  0  0
   57.1418   30.0302   46.4930 H   0  0  0  0  0  0  0  0  0  0  0  0
   58.0419   31.5785   46.6758 H   0  0  0  0  0  0  0  0  0  0  0  0
   58.7958   32.8467   44.6967 H   0  0  0  0  0  0  0  0  0  0  0  0
   58.3372   33.3971   42.3052 H   0  0  0  0  0  0  0  0  0  0  0  0
   56.9511   31.8553   40.9108 H   0  0  0  0  0  0  0  0  0  0  0  0
   56.0244   29.7633   41.9065 H   0  0  0  0  0  0  0  0  0  0  0  0
   56.4758   29.2075   44.2979 H   0  0  0  0  0  0  0  0  0  0  0  0
   60.7090   29.9381   47.6486 H   0  0  0  0  0  0  0  0  0  0  0  0
   61.2259   30.5323   46.0338 H   0  0  0  0  0  0  0  0  0  0  0  0
   59.2997   31.3483   49.1227 H   0  0  0  0  0  0  0  0  0  0  0  0
   58.8733   33.6935   49.8589 H   0  0  0  0  0  0  0  0  0  0  0  0
   59.4430   35.6013   48.3535 H   0  0  0  0  0  0  0  0  0  0  0  0
   60.4422   35.1657   46.1060 H   0  0  0  0  0  0  0  0  0  0  0  0
   60.8700   32.8224   45.3608 H   0  0  0  0  0  0  0  0  0  0  0  0
   56.6053   28.5552   45.3545 H   0  0  0  0  0  0  0  0  0  0  0  0
  1  2  1  0
  2  3  1  0
  3  4  2  0
  4  5  1  0
  5  6  2  0
  6  7  1  0
  7  8  2  0
  7  9  1  0
  9 10  1  0
 10 11  1  0
 11 12  2  0
 12 13  1  0
 13 14  2  0
 14 15  1  0
 15 16  2  0
  9 17  1  0
 17 18  1  0
 18 19  2  0
 19 20  1  0
 20 21  2  0
 21 22  1  0
 22 23  2  0
  6 24  1  0
 24 25  2  0
 25 26  1  0
 25  3  1  0
 16 11  1  0
 23 18  1  0
  1 27  1  0
  1 28  1  0
  1 29  1  0
  5 30  1  0
 10 31  1  0
 10 32  1  0
 12 33  1  0
 13 34  1  0
 14 35  1  0
 15 36  1  0
 16 37  1  0
 17 38  1  0
 17 39  1  0
 19 40  1  0
 20 41  1  0
 21 42  1  0
 22 43  1  0
 23 44  1  0
 24 45  1  0
M  CHG  1  26  -1
M  END
>  <UniqueID>  (91) 
87

>  <SMILES>  (91) 
COc1ncc(C(=O)N(Cc2ccccc2)Cc2ccccc2)cc1[O-]

>  <Energy>  (91) 
47.20184005532418

>  <Genealogy>  (91) 
COc1ncc(C(=O)N(Cc2ccccc2)Cc2ccccc2)cc1[O-] (protonated)
COc1ncc(C(=O)N(Cc2ccccc2)Cc2ccccc2)cc1[O-] (3D coordinates assigned)
COc1ncc(C(=O)N(Cc2ccccc2)Cc2ccccc2)cc1[O-] (optimized conformer: 47.20184005532418 kcal/mol)

>  <smiles>  (91) 
COc1ncc(C(=O)N(Cc2ccccc2)Cc2ccccc2)cc1O

>  <score_type>  (91) 
oracle

>  <origin>  (91) 
adg

>  <m_score__min__energy>  (91) 
-11.94

>  <m_primary>  (91) 
energy

$$$$
91:0
     RDKit          3D

 26 27  0  0  0  0  0  0  0  0999 V2000
   55.0930   26.2150   45.9820 N   0  0  0  0  0  0  0  0  0  0  0  0
   56.8130   26.3180   45.8520 S   0  0  0  0  0  0  0  0  0  0  0  0
   57.2610   25.6740   44.5700 O   0  0  0  0  0  0  0  0  0  0  0  0
   57.4460   25.5880   47.0040 O   0  0  0  0  0  0  0  0  0  0  0  0
   57.3040   28.0080   45.8750 C   0  0  0  0  0  0  0  0  0  0  0  0
   58.1320   28.4860   46.8980 C   0  0  0  0  0  0  0  0  0  0  0  0
   58.5330   29.8250   46.9120 C   0  0  0  0  0  0  0  0  0  0  0  0
   58.1140   30.7060   45.8980 C   0  0  0  0  0  0  0  0  0  0  0  0
   58.5270   32.0870   45.9120 N   0  0  0  0  0  0  0  0  0  0  0  0
   58.1860   32.9110   44.8730 C   0  0  0  0  0  0  0  0  0  0  0  0
   58.5780   34.2520   44.8690 C   0  0  0  0  0  0  0  0  0  0  0  0
   59.3220   34.7530   45.9380 C   0  0  0  0  0  0  0  0  0  0  0  0
   59.6820   35.9600   45.9440 O   0  0  0  0  0  0  0  0  0  0  0  0
   59.6660   33.9070   46.9950 C   0  0  0  0  0  0  0  0  0  0  0  0
   60.4040   34.3830   48.0720 O   0  0  0  0  0  0  0  0  0  0  0  0
   59.2570   32.5700   46.9650 C   0  0  0  0  0  0  0  0  0  0  0  0
   57.2880   30.2170   44.8700 C   0  0  0  0  0  0  0  0  0  0  0  0
   56.8880   28.8770   44.8580 C   0  0  0  0  0  0  0  0  0  0  0  0
   54.7700   27.0920   46.4480 H   0  0  0  0  0  0  0  0  0  0  0  0
   58.4682   27.8051   47.6938 H   0  0  0  0  0  0  0  0  0  0  0  0
   59.1807   30.1926   47.7215 H   0  0  0  0  0  0  0  0  0  0  0  0
   57.5975   32.5132   44.0331 H   0  0  0  0  0  0  0  0  0  0  0  0
   58.3024   34.9077   44.0299 H   0  0  0  0  0  0  0  0  0  0  0  0
   59.5243   31.8999   47.7953 H   0  0  0  0  0  0  0  0  0  0  0  0
   56.9541   30.8936   44.0695 H   0  0  0  0  0  0  0  0  0  0  0  0
   56.2447   28.5041   44.0474 H   0  0  0  0  0  0  0  0  0  0  0  0
  1  2  1  0
  2  3  2  0
  2  4  2  0
  2  5  1  0
  5  6  2  0
  6  7  1  0
  7  8  2  0
  8  9  1  0
  9 10  1  0
 10 11  2  0
 11 12  1  0
 12 13  2  0
 12 14  1  0
 14 15  1  0
 14 16  2  0
  8 17  1  0
 17 18  2  0
 18  5  1  0
 16  9  1  0
  1 19  1  0
  6 20  1  0
  7 21  1  0
 10 22  1  0
 11 23  1  0
 16 24  1  0
 17 25  1  0
 18 26  1  0
M  CHG  2   1  -1  15  -1
M  END
>  <UniqueID>  (92) 
88

>  <SMILES>  (92) 
[NH-]S(=O)(=O)c1ccc(-n2ccc(=O)c([O-])c2)cc1

>  <Energy>  (92) 
33.991963513775765

>  <Genealogy>  (92) 
[NH-]S(=O)(=O)c1ccc(-n2ccc(=O)c([O-])c2)cc1 (protonated)
[NH-]S(=O)(=O)c1ccc(-n2ccc(=O)c([O-])c2)cc1 (3D coordinates assigned)
[NH-]S(=O)(=O)c1ccc(-n2ccc(=O)c([O-])c2)cc1 (optimized conformer: 33.991963513775765 kcal/mol)

>  <smiles>  (92) 
NS(=O)(=O)c1ccc(-n2ccc(=O)c(O)c2)cc1

>  <score_type>  (92) 
oracle

>  <origin>  (92) 
adg

>  <m_score__min__energy>  (92) 
-10.15

>  <m_primary>  (92) 
energy

$$$$
92:0
     RDKit          3D

 41 43  0  0  0  0  0  0  0  0999 V2000
   63.6780   33.4790   46.3950 C   0  0  0  0  0  0  0  0  0  0  0  0
   62.8850   33.5080   47.6300 N   0  0  0  0  0  0  0  0  0  0  0  0
   63.5820   33.4360   48.9200 C   0  0  0  0  0  0  0  0  0  0  0  0
   61.4380   33.6090   47.5760 C   0  0  0  0  0  0  0  0  0  0  0  0
   60.6650   33.5760   48.7550 C   0  0  0  0  0  0  0  0  0  0  0  0
   59.2730   33.6750   48.7000 C   0  0  0  0  0  0  0  0  0  0  0  0
   58.6260   33.8060   47.4720 C   0  0  0  0  0  0  0  0  0  0  0  0
   59.3670   33.8280   46.2830 C   0  0  0  0  0  0  0  0  0  0  0  0
   58.6720   33.9740   44.9540 C   0  0  0  0  0  0  0  0  0  0  0  0
   58.7750   32.7710   44.1920 O   0  0  0  0  0  0  0  0  0  0  0  0
   58.0390   31.5970   44.4250 C   0  0  0  0  0  0  0  0  0  0  0  0
   56.8300   31.3150   43.7610 C   0  0  0  0  0  0  0  0  0  0  0  0
   56.1290   30.1380   44.0400 C   0  0  0  0  0  0  0  0  0  0  0  0
   56.6310   29.2270   44.9720 C   0  0  0  0  0  0  0  0  0  0  0  0
   57.8460   29.4900   45.6330 C   0  0  0  0  0  0  0  0  0  0  0  0
   58.5350   30.6820   45.3610 C   0  0  0  0  0  0  0  0  0  0  0  0
   58.3300   28.5560   46.7180 C   0  0  0  0  0  0  0  0  0  0  0  0
   57.9470   27.0960   46.4400 C   0  0  0  0  0  0  0  0  0  0  0  0
   56.5060   26.9870   46.0360 C   0  0  0  0  0  0  0  0  0  0  0  0
   55.8380   25.9600   46.3280 O   0  0  0  0  0  0  0  0  0  0  0  0
   55.9140   28.0190   45.2450 N   0  0  0  0  0  0  0  0  0  0  0  0
   60.7670   33.7430   46.3400 C   0  0  0  0  0  0  0  0  0  0  0  0
   64.7480   33.4399   46.6471 H   0  0  0  0  0  0  0  0  0  0  0  0
   63.4073   32.5902   45.8062 H   0  0  0  0  0  0  0  0  0  0  0  0
   63.4729   34.3852   45.8062 H   0  0  0  0  0  0  0  0  0  0  0  0
   62.8496   33.5117   49.7372 H   0  0  0  0  0  0  0  0  0  0  0  0
   64.1171   32.4778   48.9947 H   0  0  0  0  0  0  0  0  0  0  0  0
   64.3016   34.2646   48.9947 H   0  0  0  0  0  0  0  0  0  0  0  0
   61.1643   33.4710   49.7295 H   0  0  0  0  0  0  0  0  0  0  0  0
   58.6848   33.6495   49.6292 H   0  0  0  0  0  0  0  0  0  0  0  0
   57.5300   33.8924   47.4364 H   0  0  0  0  0  0  0  0  0  0  0  0
   57.6097   34.2019   45.1259 H   0  0  0  0  0  0  0  0  0  0  0  0
   59.1530   34.7886   44.3927 H   0  0  0  0  0  0  0  0  0  0  0  0
   56.4349   32.0244   43.0189 H   0  0  0  0  0  0  0  0  0  0  0  0
   55.1801   29.9290   43.5244 H   0  0  0  0  0  0  0  0  0  0  0  0
   59.4751   30.8996   45.8891 H   0  0  0  0  0  0  0  0  0  0  0  0
   59.4256   28.6282   46.7848 H   0  0  0  0  0  0  0  0  0  0  0  0
   57.8506   28.8570   47.6611 H   0  0  0  0  0  0  0  0  0  0  0  0
   58.5789   26.7064   45.6282 H   0  0  0  0  0  0  0  0  0  0  0  0
   58.0988   26.5121   47.3598 H   0  0  0  0  0  0  0  0  0  0  0  0
   61.3504   33.7813   45.4082 H   0  0  0  0  0  0  0  0  0  0  0  0
  1  2  1  0
  2  3  1  0
  2  4  1  0
  4  5  2  0
  5  6  1  0
  6  7  2  0
  7  8  1  0
  8  9  1  0
  9 10  1  0
 10 11  1  0
 11 12  2  0
 12 13  1  0
 13 14  2  0
 14 15  1  0
 15 16  2  0
 15 17  1  0
 17 18  1  0
 18 19  1  0
 19 20  2  0
 19 21  1  0
  8 22  2  0
 22  4  1  0
 16 11  1  0
 21 14  1  0
  1 23  1  0
  1 24  1  0
  1 25  1  0
  3 26  1  0
  3 27  1  0
  3 28  1  0
  5 29  1  0
  6 30  1  0
  7 31  1  0
  9 32  1  0
  9 33  1  0
 12 34  1  0
 13 35  1  0
 16 36  1  0
 17 37  1  0
 17 38  1  0
 18 39  1  0
 18 40  1  0
 22 41  1  0
M  CHG  1  21  -1
M  END
>  <UniqueID>  (93) 
89

>  <SMILES>  (93) 
CN(C)c1cccc(COc2ccc3c(c2)CCC(=O)[N-]3)c1

>  <Energy>  (93) 
43.8725724848937

>  <Genealogy>  (93) 
CN(C)c1cccc(COc2ccc3c(c2)CCC(=O)[N-]3)c1 (protonated)
CN(C)c1cccc(COc2ccc3c(c2)CCC(=O)[N-]3)c1 (3D coordinates assigned)
CN(C)c1cccc(COc2ccc3c(c2)CCC(=O)[N-]3)c1 (nonaromatic ring conformer: 43.8725724848937 kcal/mol)

>  <smiles>  (93) 
CN(C)c1cccc(COc2ccc3c(c2)CCC(=O)N3)c1

>  <score_type>  (93) 
oracle

>  <origin>  (93) 
adg

>  <m_score__min__energy>  (93) 
-9.9499999999999993

>  <m_primary>  (93) 
energy

$$$$
93:0
     RDKit          3D

 37 39  0  0  0  0  0  0  0  0999 V2000
   63.7890   32.8200   47.5920 C   0  0  0  0  0  0  0  0  0  0  0  0
   62.3630   32.6890   47.1620 C   0  0  0  0  0  0  0  0  0  0  0  0
   61.7160   31.4520   47.2210 C   0  0  0  0  0  0  0  0  0  0  0  0
   60.3800   31.3590   46.8330 C   0  0  0  0  0  0  0  0  0  0  0  0
   59.6930   32.4940   46.3810 C   0  0  0  0  0  0  0  0  0  0  0  0
   58.2800   32.3640   45.9590 C   0  0  0  0  0  0  0  0  0  0  0  0
   57.3750   32.4620   46.8300 O   0  0  0  0  0  0  0  0  0  0  0  0
   57.9120   32.0670   44.5520 C   0  0  0  0  0  0  0  0  0  0  0  0
   58.2630   32.9790   43.5400 C   0  0  0  0  0  0  0  0  0  0  0  0
   57.9280   32.7280   42.2090 C   0  0  0  0  0  0  0  0  0  0  0  0
   57.2400   31.5640   41.8700 C   0  0  0  0  0  0  0  0  0  0  0  0
   56.8800   30.6490   42.8610 C   0  0  0  0  0  0  0  0  0  0  0  0
   57.2070   30.8890   44.2090 C   0  0  0  0  0  0  0  0  0  0  0  0
   56.8030   29.9800   45.2460 N   0  0  0  0  0  0  0  0  0  0  0  0
   57.1860   28.2900   45.3000 S   0  0  0  0  0  0  0  0  0  0  0  0
   57.7250   27.8610   43.9650 O   0  0  0  0  0  0  0  0  0  0  0  0
   55.9420   27.5010   45.6020 O   0  0  0  0  0  0  0  0  0  0  0  0
   58.4070   28.0070   46.5240 C   0  0  0  0  0  0  0  0  0  0  0  0
   58.5900   28.7480   47.6810 C   0  0  0  0  0  0  0  0  0  0  0  0
   59.6790   28.3060   48.4430 C   0  0  0  0  0  0  0  0  0  0  0  0
   60.3430   27.2200   47.8870 C   0  0  0  0  0  0  0  0  0  0  0  0
   59.5840   26.8120   46.4420 S   0  0  0  0  0  0  0  0  0  0  0  0
   60.3740   33.7300   46.3640 C   0  0  0  0  0  0  0  0  0  0  0  0
   59.5730   35.2350   45.9280 Cl  0  0  0  0  0  0  0  0  0  0  0  0
   61.6760   33.7900   46.7540 N   0  0  0  0  0  0  0  0  0  0  0  0
   63.8417   32.8248   48.6907 H   0  0  0  0  0  0  0  0  0  0  0  0
   64.3694   31.9714   47.2008 H   0  0  0  0  0  0  0  0  0  0  0  0
   64.2050   33.7601   47.2008 H   0  0  0  0  0  0  0  0  0  0  0  0
   62.2558   30.5595   47.5704 H   0  0  0  0  0  0  0  0  0  0  0  0
   59.8624   30.3896   46.8819 H   0  0  0  0  0  0  0  0  0  0  0  0
   58.8069   33.8990   43.8006 H   0  0  0  0  0  0  0  0  0  0  0  0
   58.2070   33.4492   41.4266 H   0  0  0  0  0  0  0  0  0  0  0  0
   56.9803   31.3661   40.8196 H   0  0  0  0  0  0  0  0  0  0  0  0
   56.3364   29.7330   42.5863 H   0  0  0  0  0  0  0  0  0  0  0  0
   57.9482   29.5933   47.9701 H   0  0  0  0  0  0  0  0  0  0  0  0
   59.9798   28.7745   49.3917 H   0  0  0  0  0  0  0  0  0  0  0  0
   61.2180   26.7121   48.3189 H   0  0  0  0  0  0  0  0  0  0  0  0
  1  2  1  0
  2  3  2  0
  3  4  1  0
  4  5  2  0
  5  6  1  0
  6  7  2  0
  6  8  1  0
  8  9  2  0
  9 10  1  0
 10 11  2  0
 11 12  1  0
 12 13  2  0
 13 14  1  0
 14 15  1  0
 15 16  2  0
 15 17  2  0
 15 18  1  0
 18 19  2  0
 19 20  1  0
 20 21  2  0
 21 22  1  0
  5 23  1  0
 23 24  1  0
 23 25  2  0
 25  2  1  0
 13  8  1  0
 22 18  1  0
  1 26  1  0
  1 27  1  0
  1 28  1  0
  3 29  1  0
  4 30  1  0
  9 31  1  0
 10 32  1  0
 11 33  1  0
 12 34  1  0
 19 35  1  0
 20 36  1  0
 21 37  1  0
M  CHG  1  14  -1
M  END
>  <UniqueID>  (94) 
90

>  <SMILES>  (94) 
Cc1ccc(C(=O)c2ccccc2[N-]S(=O)(=O)c2cccs2)c(Cl)n1

>  <Energy>  (94) 
78.05621758944201

>  <Genealogy>  (94) 
Cc1ccc(C(=O)c2ccccc2[N-]S(=O)(=O)c2cccs2)c(Cl)n1 (protonated)
Cc1ccc(C(=O)c2ccccc2[N-]S(=O)(=O)c2cccs2)c(Cl)n1 (3D coordinates assigned)
Cc1ccc(C(=O)c2ccccc2[N-]S(=O)(=O)c2cccs2)c(Cl)n1 (optimized conformer: 78.05621758944201 kcal/mol)

>  <smiles>  (94) 
Cc1ccc(C(=O)c2ccccc2NS(=O)(=O)c2cccs2)c(Cl)n1

>  <score_type>  (94) 
oracle

>  <origin>  (94) 
adg

>  <m_score__min__energy>  (94) 
-11.06

>  <m_primary>  (94) 
energy

$$$$
94:0
     RDKit          3D

 61 66  0  0  0  0  0  0  0  0999 V2000
   56.5167   28.4288   42.4943 H   0  0  0  0  0  0  0  0  0  0  0  0
   57.0280   28.9760   43.3000 C   0  0  0  0  0  0  0  0  0  0  0  0
   57.1460   30.3400   43.2270 N   0  0  0  0  0  0  0  0  0  0  0  0
   57.7780   31.0690   44.1940 C   0  0  0  0  0  0  0  0  0  0  0  0
   57.8531   32.1637   44.1162 H   0  0  0  0  0  0  0  0  0  0  0  0
   58.3260   30.3900   45.2830 C   0  0  0  0  0  0  0  0  0  0  0  0
   58.1980   29.0180   45.3760 C   0  0  0  0  0  0  0  0  0  0  0  0
   57.5550   28.2710   44.3960 C   0  0  0  0  0  0  0  0  0  0  0  0
   57.4627   27.1777   44.4745 H   0  0  0  0  0  0  0  0  0  0  0  0
   58.7820   28.6630   46.5700 C   0  0  0  0  0  0  0  0  0  0  0  0
   58.9570   27.4530   47.2220 C   0  0  0  0  0  0  0  0  0  0  0  0
   58.5975   26.5112   46.7818 H   0  0  0  0  0  0  0  0  0  0  0  0
   59.5920   27.4720   48.4310 N   0  0  0  0  0  0  0  0  0  0  0  0
   60.0540   28.6410   48.9890 C   0  0  0  0  0  0  0  0  0  0  0  0
   60.6360   28.6460   50.1520 N   0  0  0  0  0  0  0  0  0  0  0  0
   61.8260   29.3700   50.5060 C   0  0  0  0  0  0  0  0  0  0  0  0
   62.6170   28.8950   51.5550 C   0  0  0  0  0  0  0  0  0  0  0  0
   62.3374   27.9723   52.0846 H   0  0  0  0  0  0  0  0  0  0  0  0
   63.7630   29.5970   51.9270 C   0  0  0  0  0  0  0  0  0  0  0  0
   64.4000   29.2169   52.7393 H   0  0  0  0  0  0  0  0  0  0  0  0
   64.1050   30.7860   51.2680 C   0  0  0  0  0  0  0  0  0  0  0  0
   65.2960   31.5130   51.6300 N   0  0  0  0  0  0  0  0  0  0  0  0
   66.3110   31.8610   50.6300 C   0  0  0  0  0  0  0  0  0  0  0  0
   67.2486   31.3366   50.8664 H   0  0  0  0  0  0  0  0  0  0  0  0
   65.9525   31.5593   49.6348 H   0  0  0  0  0  0  0  0  0  0  0  0
   66.5630   33.3810   50.6340 C   0  0  0  0  0  0  0  0  0  0  0  0
   67.5938   33.5618   50.2951 H   0  0  0  0  0  0  0  0  0  0  0  0
   65.8132   33.8302   49.9661 H   0  0  0  0  0  0  0  0  0  0  0  0
   66.3900   34.0180   51.9660 N   0  0  0  0  0  0  0  0  0  0  0  0
   65.1270   34.7740   52.0520 C   0  0  0  0  0  0  0  0  0  0  0  0
   64.8648   34.9309   53.1087 H   0  0  0  0  0  0  0  0  0  0  0  0
   65.2483   35.7482   51.5557 H   0  0  0  0  0  0  0  0  0  0  0  0
   64.3257   34.2069   51.5557 H   0  0  0  0  0  0  0  0  0  0  0  0
   66.5400   33.0710   53.0930 C   0  0  0  0  0  0  0  0  0  0  0  0
   67.5527   32.6425   53.0654 H   0  0  0  0  0  0  0  0  0  0  0  0
   66.3695   33.6238   54.0286 H   0  0  0  0  0  0  0  0  0  0  0  0
   65.5140   31.9280   53.0200 C   0  0  0  0  0  0  0  0  0  0  0  0
   65.8878   31.0702   53.5983 H   0  0  0  0  0  0  0  0  0  0  0  0
   64.5597   32.2831   53.4362 H   0  0  0  0  0  0  0  0  0  0  0  0
   63.2730   31.2420   50.2360 C   0  0  0  0  0  0  0  0  0  0  0  0
   63.5237   32.1714   49.7037 H   0  0  0  0  0  0  0  0  0  0  0  0
   62.1570   30.5440   49.8870 N   0  0  0  0  0  0  0  0  0  0  0  0
   61.5360   30.9480   49.1540 H   0  0  0  0  0  0  0  0  0  0  0  0
   59.8640   29.8290   48.3400 N   0  0  0  0  0  0  0  0  0  0  0  0
   59.2310   29.8250   47.1410 C   0  0  0  0  0  0  0  0  0  0  0  0
   58.9690   30.9000   46.3640 N   0  0  0  0  0  0  0  0  0  0  0  0
   59.2830   32.2740   46.6490 C   0  0  0  0  0  0  0  0  0  0  0  0
   58.2870   33.2540   46.5190 C   0  0  0  0  0  0  0  0  0  0  0  0
   57.2736   32.9648   46.2038 H   0  0  0  0  0  0  0  0  0  0  0  0
   58.5740   34.5930   46.7870 C   0  0  0  0  0  0  0  0  0  0  0  0
   57.7894   35.3562   46.6774 H   0  0  0  0  0  0  0  0  0  0  0  0
   59.8560   34.9640   47.1940 C   0  0  0  0  0  0  0  0  0  0  0  0
   60.0824   36.0208   47.3988 H   0  0  0  0  0  0  0  0  0  0  0  0
   60.8530   33.9960   47.3420 C   0  0  0  0  0  0  0  0  0  0  0  0
   61.8613   34.2944   47.6649 H   0  0  0  0  0  0  0  0  0  0  0  0
   60.5740   32.6400   47.0800 C   0  0  0  0  0  0  0  0  0  0  0  0
   61.5400   31.6360   47.2520 O   0  0  0  0  0  0  0  0  0  0  0  0
   62.9450   31.8420   47.1530 C   0  0  0  0  0  0  0  0  0  0  0  0
   63.3783   31.9055   48.1621 H   0  0  0  0  0  0  0  0  0  0  0  0
   63.4015   31.0012   46.6102 H   0  0  0  0  0  0  0  0  0  0  0  0
   63.1409   32.7785   46.6102 H   0  0  0  0  0  0  0  0  0  0  0  0
  1  2  1  0
  2  3  2  0
  3  4  1  0
  4  5  1  0
  4  6  2  0
  6  7  1  0
  7  8  2  0
  8  9  1  0
  7 10  1  0
 10 11  2  0
 11 12  1  0
 11 13  1  0
 13 14  1  0
 14 15  2  0
 15 16  1  0
 16 17  2  0
 17 18  1  0
 17 19  1  0
 19 20  1  0
 19 21  2  0
 21 22  1  0
 22 23  1  0
 23 24  1  0
 23 25  1  0
 23 26  1  0
 26 27  1  0
 26 28  1  0
 26 29  1  0
 29 30  1  0
 30 31  1  0
 30 32  1  0
 30 33  1  0
 29 34  1  0
 34 35  1  0
 34 36  1  0
 34 37  1  0
 37 38  1  0
 37 39  1  0
 21 40  1  0
 40 41  1  0
 40 42  2  0
 42 43  1  0
 14 44  1  0
 44 45  2  0
 45 46  1  0
 46 47  1  0
 47 48  2  0
 48 49  1  0
 48 50  1  0
 50 51  1  0
 50 52  2  0
 52 53  1  0
 52 54  1  0
 54 55  1  0
 54 56  2  0
 56 57  1  0
 57 58  1  0
 58 59  1  0
 58 60  1  0
 58 61  1  0
  8  2  1  0
 45 10  1  0
 56 47  1  0
 46  6  1  0
 42 16  1  0
 37 22  1  0
M  CHG  2  13  -1  42   1
M  END
>  <UniqueID>  (95) 
91

>  <SMILES>  (95) 
COc1ccccc1-n1c2cnccc2c2c[n-]/c(=N\c3ccc(N4CCN(C)CC4)c[nH+]3)nc21

>  <Energy>  (95) 
137.8007955546019

>  <Genealogy>  (95) 
COc1ccccc1-n1c2cnccc2c2c[n-]c(=Nc3ccc(N4CCN(C)CC4)c[nH+]3)nc21 (protonated)
COc1ccccc1-n1c2cnccc2c2c[n-]/c(=N\c3ccc(N4CCN(C)CC4)c[nH+]3)nc21 (cis-trans isomerization)
COc1ccccc1-n1c2cnccc2c2c[n-]/c(=N\c3ccc(N4CCN(C)CC4)c[nH+]3)nc21 (3D coordinates assigned)
COc1ccccc1-n1c2cnccc2c2c[n-]/c(=N\c3ccc(N4CCN(C)CC4)c[nH+]3)nc21 (nonaromatic ring conformer: 137.8007955546019 kcal/mol)

>  <smiles>  (95) 
COc1ccccc1-n1c2cnccc2c2c[nH]c(=Nc3ccc(N4CCN(C)CC4)cn3)nc21

>  <score_type>  (95) 
oracle

>  <origin>  (95) 
adg

>  <m_score__min__energy>  (95) 
-7.8300000000000001

>  <m_primary>  (95) 
energy

$$$$
95:0
     RDKit          3D

 35 37  0  0  0  0  0  0  0  0999 V2000
   59.6070   33.9700   49.7940 N   0  0  0  0  0  0  0  0  0  0  0  0
   59.3870   33.9670   48.3790 C   0  0  0  0  0  0  0  0  0  0  0  0
   58.9240   35.0360   47.8010 N   0  0  0  0  0  0  0  0  0  0  0  0
   59.6970   32.7510   47.5860 C   0  0  0  0  0  0  0  0  0  0  0  0
   58.9860   32.4570   46.4080 C   0  0  0  0  0  0  0  0  0  0  0  0
   59.2810   31.3070   45.6710 C   0  0  0  0  0  0  0  0  0  0  0  0
   60.2800   30.4260   46.0960 C   0  0  0  0  0  0  0  0  0  0  0  0
   60.5390   29.2820   45.3250 O   0  0  0  0  0  0  0  0  0  0  0  0
   60.1520   27.9850   45.6840 C   0  0  0  0  0  0  0  0  0  0  0  0
   61.1520   27.0490   45.9700 C   0  0  0  0  0  0  0  0  0  0  0  0
   60.8190   25.7520   46.3630 C   0  0  0  0  0  0  0  0  0  0  0  0
   59.4810   25.3700   46.4630 C   0  0  0  0  0  0  0  0  0  0  0  0
   58.4610   26.2810   46.1530 C   0  0  0  0  0  0  0  0  0  0  0  0
   57.1160   25.8910   46.2350 C   0  0  0  0  0  0  0  0  0  0  0  0
   56.1000   26.7910   45.9040 C   0  0  0  0  0  0  0  0  0  0  0  0
   54.7710   26.3930   45.9890 O   0  0  0  0  0  0  0  0  0  0  0  0
   56.4190   28.0850   45.4820 C   0  0  0  0  0  0  0  0  0  0  0  0
   55.4090   28.9770   45.1420 O   0  0  0  0  0  0  0  0  0  0  0  0
   57.7570   28.4880   45.3980 C   0  0  0  0  0  0  0  0  0  0  0  0
   58.7920   27.6000   45.7480 C   0  0  0  0  0  0  0  0  0  0  0  0
   60.9990   30.7180   47.2700 C   0  0  0  0  0  0  0  0  0  0  0  0
   60.7050   31.8680   48.0090 C   0  0  0  0  0  0  0  0  0  0  0  0
   59.8940   33.1010   50.2970 H   0  0  0  0  0  0  0  0  0  0  0  0
   59.4360   34.8310   50.3590 H   0  0  0  0  0  0  0  0  0  0  0  0
   58.2960   34.9620   46.9690 H   0  0  0  0  0  0  0  0  0  0  0  0
   59.1380   35.9930   48.1590 H   0  0  0  0  0  0  0  0  0  0  0  0
   58.1925   33.1371   46.0648 H   0  0  0  0  0  0  0  0  0  0  0  0
   58.7221   31.0929   44.7480 H   0  0  0  0  0  0  0  0  0  0  0  0
   62.2099   27.3380   45.8843 H   0  0  0  0  0  0  0  0  0  0  0  0
   61.6144   25.0283   46.5947 H   0  0  0  0  0  0  0  0  0  0  0  0
   59.2251   24.3502   46.7863 H   0  0  0  0  0  0  0  0  0  0  0  0
   56.8602   24.8721   46.5613 H   0  0  0  0  0  0  0  0  0  0  0  0
   58.0012   29.5047   45.0564 H   0  0  0  0  0  0  0  0  0  0  0  0
   61.7956   30.0387   47.6077 H   0  0  0  0  0  0  0  0  0  0  0  0
   61.2676   32.0834   48.9294 H   0  0  0  0  0  0  0  0  0  0  0  0
  1  2  1  0
  2  3  2  0
  2  4  1  0
  4  5  2  0
  5  6  1  0
  6  7  2  0
  7  8  1  0
  8  9  1  0
  9 10  2  0
 10 11  1  0
 11 12  2  0
 12 13  1  0
 13 14  2  0
 14 15  1  0
 15 16  1  0
 15 17  2  0
 17 18  1  0
 17 19  1  0
 19 20  2  0
  7 21  1  0
 21 22  2  0
 22  4  1  0
 20  9  1  0
 20 13  1  0
  1 23  1  0
  1 24  1  0
  3 25  1  0
  3 26  1  0
  5 27  1  0
  6 28  1  0
 10 29  1  0
 11 30  1  0
 12 31  1  0
 14 32  1  0
 19 33  1  0
 21 34  1  0
 22 35  1  0
M  CHG  3   3   1  16  -1  18  -1
M  END
>  <UniqueID>  (96) 
92

>  <SMILES>  (96) 
NC(=[NH2+])c1ccc(Oc2cccc3cc([O-])c([O-])cc23)cc1

>  <Energy>  (96) 
52.47401945722432

>  <Genealogy>  (96) 
NC(=[NH2+])c1ccc(Oc2cccc3cc([O-])c([O-])cc23)cc1 (protonated)
NC(=[NH2+])c1ccc(Oc2cccc3cc([O-])c([O-])cc23)cc1 (3D coordinates assigned)
NC(=[NH2+])c1ccc(Oc2cccc3cc([O-])c([O-])cc23)cc1 (optimized conformer: 52.47401945722432 kcal/mol)

>  <smiles>  (96) 
N=C(N)c1ccc(Oc2cccc3cc(O)c(O)cc23)cc1

>  <score_type>  (96) 
oracle

>  <origin>  (96) 
adg

>  <m_score__min__energy>  (96) 
-11.69

>  <m_primary>  (96) 
energy

$$$$
