0:0
     RDKit          3D

 60 64  0  0  1  0  0  0  0  0999 V2000
   61.2220   33.3810   50.2280 C   0  0  0  0  0  0  0  0  0  0  0  0
   61.7570   33.5500   48.8650 C   0  0  0  0  0  0  0  0  0  0  0  0
   63.1480   33.4840   48.7310 C   0  0  0  0  0  0  0  0  0  0  0  0
   64.1650   33.2360   50.1480 Cl  0  0  0  0  0  0  0  0  0  0  0  0
   63.7750   33.6070   47.5140 C   0  0  0  0  0  0  0  0  0  0  0  0
   63.0090   33.8010   46.3920 C   0  0  0  0  0  0  0  0  0  0  0  0
   61.6420   33.8650   46.5320 C   0  0  0  0  0  0  0  0  0  0  0  0
   60.9910   33.7440   47.7420 C   0  0  0  0  0  0  0  0  0  0  0  0
   59.5720   33.8050   47.7800 N   0  0  0  0  0  0  0  0  0  0  0  0
   58.7940   33.5100   46.6020 C   0  0  0  0  0  0  0  0  0  0  0  0
   58.1180   34.5730   46.0790 C   0  0  0  0  0  0  0  0  0  0  0  0
   57.4820   34.4420   44.8850 C   0  0  0  0  0  0  0  0  0  0  0  0
   57.5470   33.2650   44.2690 N   0  0  0  0  0  0  0  0  0  0  0  0
   59.8400   29.2160   47.8820 C   0  0  0  0  0  0  0  0  0  0  0  0
   60.1370   27.9860   48.0810 N   0  0  0  0  0  0  0  0  0  0  0  0
   56.8400   30.1560   43.9590 S   0  0  0  0  0  0  0  0  0  0  0  0
   57.8220   28.5560   44.0370 C   0  0  0  0  0  0  0  0  0  0  0  0
   56.3150   29.8590   42.5880 O   0  0  0  0  0  0  0  0  0  0  0  0
   56.0000   29.7960   45.1460 O   0  0  0  0  0  0  0  0  0  0  0  0
   58.8910   32.2370   45.9930 C   0  0  0  0  0  0  0  0  0  0  0  0
   59.4200   31.0830   46.7050 C   0  0  0  0  0  0  0  0  0  0  0  0
   59.7220   29.8400   46.7270 N   0  0  0  0  0  0  0  0  0  0  0  0
   58.2220   32.1930   44.7920 C   0  0  0  0  0  0  0  0  0  0  0  0
   58.1430   31.1500   44.1450 N   0  0  0  0  0  0  0  0  0  0  0  0
   59.5010   26.9280   47.3340 C   0  0  0  0  0  0  0  0  0  0  0  0
   60.2330   25.9560   46.6850 C   0  0  0  0  0  0  0  0  0  0  0  0
   59.5090   24.9940   46.0020 C   0  0  0  0  0  0  0  0  0  0  0  0
   58.1410   24.9680   45.9450 C   0  0  0  0  0  0  0  0  0  0  0  0
   57.4230   25.9450   46.5990 C   0  0  0  0  0  0  0  0  0  0  0  0
   58.1250   26.9210   47.2900 C   0  0  0  0  0  0  0  0  0  0  0  0
   56.0140   25.9710   46.5730 N   0  0  0  0  0  0  0  0  0  0  0  0
   55.1970   25.0330   45.9010 C   0  0  0  0  0  0  0  0  0  0  0  0
   54.0060   25.4130   45.6420 O   0  0  0  0  0  0  0  0  0  0  0  0
   55.6230   23.6800   45.4920 C   0  0  0  0  0  0  0  0  0  0  0  0
   57.3430   23.6940   45.0500 S   0  0  0  0  0  0  0  0  0  0  0  0
   57.9320   22.3690   45.4070 O   0  0  0  0  0  0  0  0  0  0  0  0
   57.5140   23.9130   43.5830 O   0  0  0  0  0  0  0  0  0  0  0  0
   59.5800   30.1520   48.7830 N   0  0  0  0  0  0  0  0  0  0  0  0
   59.3270   31.2530   48.1360 N   0  0  0  0  0  0  0  0  0  0  0  0
   62.0034   33.6278   50.9618 H   0  0  0  0  0  0  0  0  0  0  0  0
   60.3611   34.0510   50.3697 H   0  0  0  0  0  0  0  0  0  0  0  0
   60.9022   32.3381   50.3697 H   0  0  0  0  0  0  0  0  0  0  0  0
   64.8711   33.5509   47.4407 H   0  0  0  0  0  0  0  0  0  0  0  0
   63.4779   33.9031   45.4022 H   0  0  0  0  0  0  0  0  0  0  0  0
   61.0342   34.0214   45.6286 H   0  0  0  0  0  0  0  0  0  0  0  0
   59.1610   34.0090   48.7150 H   0  0  0  0  0  0  0  0  0  0  0  0
   58.0878   35.5302   46.6201 H   0  0  0  0  0  0  0  0  0  0  0  0
   56.9302   35.2839   44.4415 H   0  0  0  0  0  0  0  0  0  0  0  0
   57.0470   33.1970   43.3420 H   0  0  0  0  0  0  0  0  0  0  0  0
   57.9911   28.2805   45.0884 H   0  0  0  0  0  0  0  0  0  0  0  0
   57.2594   27.7556   43.5341 H   0  0  0  0  0  0  0  0  0  0  0  0
   58.7904   28.6952   43.5341 H   0  0  0  0  0  0  0  0  0  0  0  0
   61.3327   25.9457   46.7088 H   0  0  0  0  0  0  0  0  0  0  0  0
   60.0647   24.2047   45.4745 H   0  0  0  0  0  0  0  0  0  0  0  0
   57.5681   27.7100   47.8166 H   0  0  0  0  0  0  0  0  0  0  0  0
   55.5470   26.7630   47.1070 H   0  0  0  0  0  0  0  0  0  0  0  0
   55.4668   22.9808   46.3267 H   0  0  0  0  0  0  0  0  0  0  0  0
   55.0289   23.3611   44.6229 H   0  0  0  0  0  0  0  0  0  0  0  0
   59.5830   30.0130   49.8080 H   0  0  0  0  0  0  0  0  0  0  0  0
   59.0210   32.1020   48.6250 H   0  0  0  0  0  0  0  0  0  0  0  0
  1  2  1  0
  2  3  2  0
  3  4  1  0
  3  5  1  0
  5  6  2  0
  6  7  1  0
  7  8  2  0
  8  9  1  0
  9 10  1  0
 10 11  1  0
 11 12  2  0
 12 13  1  0
 13 14  1  0
 14 15  2  0
 15 16  1  0
 16 17  1  0
 16 18  2  0
 16 19  2  0
 14 20  1  0
 20 21  1  0
 21 22  2  0
 22 23  1  0
 23 24  2  0
 24 25  1  0
 25 26  2  0
 26 27  1  0
 27 28  2  0
 28 29  1  0
 29 30  2  0
 29 31  1  0
 31 32  1  0
 32 33  2  0
 32 34  1  0
 34 35  1  0
 35 36  2  0
 35 37  2  0
 23 38  1  0
 38 39  1  0
  8  2  1  0
 20 10  2  0
 39 21  1  0
 30 25  1  0
 35 28  1  0
  1 40  1  0
  1 41  1  0
  1 42  1  0
  5 43  1  0
  6 44  1  0
  7 45  1  0
  9 46  1  0
 11 47  1  0
 12 48  1  0
 13 49  1  0
 17 50  1  0
 17 51  1  0
 17 52  1  0
 26 53  1  0
 27 54  1  0
 30 55  1  0
 31 56  1  0
 34 57  1  0
 34 58  1  0
 38 59  1  0
 39 60  1  0
M  END
>  <smiles>  (1) 
Cc1c(Cl)cccc1Nc1cc[nH]c(=NS(C)(=O)=O)c1-c1nc(=Nc2ccc3c(c2)NC(=O)CS3(=O)=O)[nH][nH]1

>  <score_type>  (1) 
oracle

>  <origin>  (1) 
adg

>  <m_score__min__energy>  (1) 
-11.48

>  <m_primary>  (1) 
energy

$$$$
1:0
     RDKit          3D

 71 74  0  0  0  0  0  0  0  0999 V2000
   55.5970   25.5250   46.1150 H   0  0  0  0  0  0  0  0  0  0  0  0
   55.6310   26.5320   46.1980 O   0  0  0  0  0  0  0  0  0  0  0  0
   56.6870   27.2880   45.6880 C   0  0  0  0  0  0  0  0  0  0  0  0
   56.4400   28.5060   45.0340 C   0  0  0  0  0  0  0  0  0  0  0  0
   55.1410   28.9690   44.8690 O   0  0  0  0  0  0  0  0  0  0  0  0
   57.4990   29.2930   44.5540 C   0  0  0  0  0  0  0  0  0  0  0  0
   57.1930   30.4830   43.8710 O   0  0  0  0  0  0  0  0  0  0  0  0
   57.1180   31.7710   44.4840 C   0  0  0  0  0  0  0  0  0  0  0  0
   56.7608   32.4972   43.7390 H   0  0  0  0  0  0  0  0  0  0  0  0
   56.4273   31.6982   45.3370 H   0  0  0  0  0  0  0  0  0  0  0  0
   58.4950   32.2470   45.0260 C   0  0  0  0  0  0  0  0  0  0  0  0
   58.9343   31.4221   45.6062 H   0  0  0  0  0  0  0  0  0  0  0  0
   59.0853   32.5314   44.1424 H   0  0  0  0  0  0  0  0  0  0  0  0
   58.4570   33.5020   45.9340 C   0  0  0  0  0  0  0  0  0  0  0  0
   58.8053   34.3698   45.3547 H   0  0  0  0  0  0  0  0  0  0  0  0
   57.4211   33.6412   46.2768 H   0  0  0  0  0  0  0  0  0  0  0  0
   59.3150   33.3500   47.1270 N   0  0  0  0  0  0  0  0  0  0  0  0
   60.6250   32.7780   46.7800 C   0  0  0  0  0  0  0  0  0  0  0  0
   60.4771   31.8729   46.1727 H   0  0  0  0  0  0  0  0  0  0  0  0
   61.2023   33.5214   46.2108 H   0  0  0  0  0  0  0  0  0  0  0  0
   61.4050   32.4090   48.0680 C   0  0  0  0  0  0  0  0  0  0  0  0
   61.3173   31.3248   48.2317 H   0  0  0  0  0  0  0  0  0  0  0  0
   62.4494   32.7204   47.9190 H   0  0  0  0  0  0  0  0  0  0  0  0
   60.9010   33.1130   49.2790 N   0  0  0  0  0  0  0  0  0  0  0  0
   59.8190   32.3760   49.9630 C   0  0  0  0  0  0  0  0  0  0  0  0
   59.9579   32.4562   51.0512 H   0  0  0  0  0  0  0  0  0  0  0  0
   58.8519   32.8115   49.6716 H   0  0  0  0  0  0  0  0  0  0  0  0
   59.8390   30.9260   49.5670 C   0  0  0  0  0  0  0  0  0  0  0  0
   58.9120   30.4370   48.6340 C   0  0  0  0  0  0  0  0  0  0  0  0
   58.1506   31.1094   48.2118 H   0  0  0  0  0  0  0  0  0  0  0  0
   58.9550   29.0950   48.2400 C   0  0  0  0  0  0  0  0  0  0  0  0
   58.2491   28.7212   47.4837 H   0  0  0  0  0  0  0  0  0  0  0  0
   59.8980   28.2260   48.8090 C   0  0  0  0  0  0  0  0  0  0  0  0
   59.9200   26.9190   48.4460 F   0  0  0  0  0  0  0  0  0  0  0  0
   60.8150   28.7050   49.7500 C   0  0  0  0  0  0  0  0  0  0  0  0
   61.5590   28.0253   50.1910 H   0  0  0  0  0  0  0  0  0  0  0  0
   60.7830   30.0490   50.1280 C   0  0  0  0  0  0  0  0  0  0  0  0
   61.5024   30.4242   50.8708 H   0  0  0  0  0  0  0  0  0  0  0  0
   60.5450   34.5100   48.9760 C   0  0  0  0  0  0  0  0  0  0  0  0
   60.1491   34.9781   49.8893 H   0  0  0  0  0  0  0  0  0  0  0  0
   61.4556   35.0150   48.6213 H   0  0  0  0  0  0  0  0  0  0  0  0
   59.4830   34.6270   47.8610 C   0  0  0  0  0  0  0  0  0  0  0  0
   58.5204   34.9072   48.3136 H   0  0  0  0  0  0  0  0  0  0  0  0
   59.8200   35.3917   47.1457 H   0  0  0  0  0  0  0  0  0  0  0  0
   58.8220   28.8610   44.7720 C   0  0  0  0  0  0  0  0  0  0  0  0
   59.6653   29.5067   44.4857 H   0  0  0  0  0  0  0  0  0  0  0  0
   59.0640   27.6120   45.3520 C   0  0  0  0  0  0  0  0  0  0  0  0
   60.0977   27.2444   45.4322 H   0  0  0  0  0  0  0  0  0  0  0  0
   58.0080   26.8170   45.8350 C   0  0  0  0  0  0  0  0  0  0  0  0
   58.2250   25.4300   46.3250 C   0  0  0  0  0  0  0  0  0  0  0  0
   58.7595   24.7535   45.6418 H   0  0  0  0  0  0  0  0  0  0  0  0
   57.8470   24.9040   47.5010 C   0  0  0  0  0  0  0  0  0  0  0  0
   58.2130   25.4154   48.4035 H   0  0  0  0  0  0  0  0  0  0  0  0
   56.9980   23.7200   47.7210 C   0  0  0  0  0  0  0  0  0  0  0  0
   57.1800   22.9400   48.6920 O   0  0  0  0  0  0  0  0  0  0  0  0
   55.9240   23.4920   46.7910 N   0  0  0  0  0  0  0  0  0  0  0  0
   56.0560   23.1530   45.4050 C   0  0  0  0  0  0  0  0  0  0  0  0
   57.0670   22.2880   44.9510 C   0  0  0  0  0  0  0  0  0  0  0  0
   57.8021   21.8845   45.6629 H   0  0  0  0  0  0  0  0  0  0  0  0
   57.1430   21.9390   43.6040 C   0  0  0  0  0  0  0  0  0  0  0  0
   57.9132   21.2315   43.2629 H   0  0  0  0  0  0  0  0  0  0  0  0
   56.2460   22.4840   42.6890 C   0  0  0  0  0  0  0  0  0  0  0  0
   56.3282   22.2342   41.6209 H   0  0  0  0  0  0  0  0  0  0  0  0
   55.2400   23.3500   43.1310 C   0  0  0  0  0  0  0  0  0  0  0  0
   54.5313   23.7800   42.4079 H   0  0  0  0  0  0  0  0  0  0  0  0
   55.1310   23.6720   44.4890 C   0  0  0  0  0  0  0  0  0  0  0  0
   54.1020   24.4910   44.9630 O   0  0  0  0  0  0  0  0  0  0  0  0
   52.7440   24.0640   45.0550 C   0  0  0  0  0  0  0  0  0  0  0  0
   52.4588   23.9743   46.1136 H   0  0  0  0  0  0  0  0  0  0  0  0
   52.0936   24.8010   44.5612 H   0  0  0  0  0  0  0  0  0  0  0  0
   52.6324   23.0874   44.5612 H   0  0  0  0  0  0  0  0  0  0  0  0
  1  2  1  0
  2  3  1  0
  3  4  2  0
  4  5  1  0
  4  6  1  0
  6  7  1  0
  7  8  1  0
  8  9  1  0
  8 10  1  0
  8 11  1  0
 11 12  1  0
 11 13  1  0
 11 14  1  0
 14 15  1  0
 14 16  1  0
 14 17  1  0
 17 18  1  0
 18 19  1  0
 18 20  1  0
 18 21  1  0
 21 22  1  0
 21 23  1  0
 21 24  1  0
 24 25  1  0
 25 26  1  0
 25 27  1  0
 25 28  1  0
 28 29  2  0
 29 30  1  0
 29 31  1  0
 31 32  1  0
 31 33  2  0
 33 34  1  0
 33 35  1  0
 35 36  1  0
 35 37  2  0
 37 38  1  0
 24 39  1  0
 39 40  1  0
 39 41  1  0
 39 42  1  0
 42 43  1  0
 42 44  1  0
  6 45  2  0
 45 46  1  0
 45 47  1  0
 47 48  1  0
 47 49  2  0
 49 50  1  0
 50 51  1  0
 50 52  2  0
 52 53  1  0
 52 54  1  0
 54 55  2  0
 54 56  1  0
 56 57  1  0
 57 58  2  0
 58 59  1  0
 58 60  1  0
 60 61  1  0
 60 62  2  0
 62 63  1  0
 62 64  1  0
 64 65  1  0
 64 66  2  0
 66 67  1  0
 67 68  1  0
 68 69  1  0
 68 70  1  0
 68 71  1  0
 49  3  1  0
 66 57  1  0
 42 17  1  0
 37 28  1  0
M  CHG  2   5  -1  56  -1
M  END
>  <UniqueID>  (2) 
1

>  <SMILES>  (2) 
COc1ccccc1[N-]C(=O)/C=C\c1ccc(OCCCN2CCN(Cc3ccc(F)cc3)CC2)c([O-])c1O

>  <Energy>  (2) 
109.7974682484599

>  <Genealogy>  (2) 
COc1ccccc1[N-]C(=O)C=Cc1ccc(OCCCN2CCN(Cc3ccc(F)cc3)CC2)c([O-])c1O (protonated)
COc1ccccc1[N-]C(=O)/C=C\c1ccc(OCCCN2CCN(Cc3ccc(F)cc3)CC2)c([O-])c1O (cis-trans isomerization)
COc1ccccc1[N-]C(=O)/C=C\c1ccc(OCCCN2CCN(Cc3ccc(F)cc3)CC2)c([O-])c1O (3D coordinates assigned)
COc1ccccc1[N-]C(=O)/C=C\c1ccc(OCCCN2CCN(Cc3ccc(F)cc3)CC2)c([O-])c1O (nonaromatic ring conformer: 109.7974682484599 kcal/mol)

>  <smiles>  (2) 
COc1ccccc1NC(=O)C=Cc1ccc(OCCCN2CCN(Cc3ccc(F)cc3)CC2)c(O)c1O

>  <score_type>  (2) 
oracle

>  <origin>  (2) 
adg

>  <m_score__min__energy>  (2) 
-14.9

>  <m_primary>  (2) 
energy

$$$$
2:0
     RDKit          3D

 40 42  0  0  0  0  0  0  0  0999 V2000
   58.6260   29.3380   47.2010 C   0  0  0  0  0  0  0  0  0  0  0  0
   57.9530   29.8780   46.1710 C   0  0  0  0  0  0  0  0  0  0  0  0
   57.2680   29.1960   45.1510 C   0  0  0  0  0  0  0  0  0  0  0  0
   57.1550   27.8800   44.8710 C   0  0  0  0  0  0  0  0  0  0  0  0
   57.2240   26.7840   45.8540 C   0  0  0  0  0  0  0  0  0  0  0  0
   56.0500   26.2140   46.3640 C   0  0  0  0  0  0  0  0  0  0  0  0
   54.8040   26.7080   45.9930 O   0  0  0  0  0  0  0  0  0  0  0  0
   56.1230   25.1750   47.2360 N   0  0  0  0  0  0  0  0  0  0  0  0
   57.3220   24.6620   47.6140 C   0  0  0  0  0  0  0  0  0  0  0  0
   57.3660   23.7020   48.4270 O   0  0  0  0  0  0  0  0  0  0  0  0
   58.4730   25.1800   47.1140 N   0  0  0  0  0  0  0  0  0  0  0  0
   58.4520   26.2190   46.2400 C   0  0  0  0  0  0  0  0  0  0  0  0
   59.5390   26.6630   45.7800 O   0  0  0  0  0  0  0  0  0  0  0  0
   56.6970   30.2120   44.3920 C   0  0  0  0  0  0  0  0  0  0  0  0
   55.8640   30.0550   43.1580 C   0  0  0  0  0  0  0  0  0  0  0  0
   57.0430   31.4100   44.8940 N   0  0  0  0  0  0  0  0  0  0  0  0
   57.7930   31.2150   45.9660 N   0  0  0  0  0  0  0  0  0  0  0  0
   58.2720   32.3250   46.7470 C   0  0  0  0  0  0  0  0  0  0  0  0
   57.6330   32.7270   47.7550 O   0  0  0  0  0  0  0  0  0  0  0  0
   59.4300   33.0430   46.2990 N   0  0  0  0  0  0  0  0  0  0  0  0
   60.7240   33.0490   46.9210 C   0  0  0  0  0  0  0  0  0  0  0  0
   61.7790   33.8450   46.4420 C   0  0  0  0  0  0  0  0  0  0  0  0
   63.0160   33.8390   47.0910 C   0  0  0  0  0  0  0  0  0  0  0  0
   63.2180   33.0400   48.2260 C   0  0  0  0  0  0  0  0  0  0  0  0
   64.5340   33.0660   48.9460 C   0  0  0  0  0  0  0  0  0  0  0  0
   62.1520   32.2790   48.7280 C   0  0  0  0  0  0  0  0  0  0  0  0
   60.9140   32.2850   48.0790 C   0  0  0  0  0  0  0  0  0  0  0  0
   59.1219   29.9892   47.9358 H   0  0  0  0  0  0  0  0  0  0  0  0
   58.6810   28.2447   47.3094 H   0  0  0  0  0  0  0  0  0  0  0  0
   56.9979   27.6018   43.8184 H   0  0  0  0  0  0  0  0  0  0  0  0
   54.8199   29.8582   43.4430 H   0  0  0  0  0  0  0  0  0  0  0  0
   55.9137   30.9783   42.5622 H   0  0  0  0  0  0  0  0  0  0  0  0
   56.2464   29.2131   42.5622 H   0  0  0  0  0  0  0  0  0  0  0  0
   61.6299   34.4750   45.5527 H   0  0  0  0  0  0  0  0  0  0  0  0
   63.8365   34.4646   46.7097 H   0  0  0  0  0  0  0  0  0  0  0  0
   64.3580   33.0625   50.0318 H   0  0  0  0  0  0  0  0  0  0  0  0
   65.1222   32.1793   48.6670 H   0  0  0  0  0  0  0  0  0  0  0  0
   65.0867   33.9752   48.6670 H   0  0  0  0  0  0  0  0  0  0  0  0
   62.2909   31.6747   49.6366 H   0  0  0  0  0  0  0  0  0  0  0  0
   60.0836   31.6857   48.4806 H   0  0  0  0  0  0  0  0  0  0  0  0
  1  2  2  0
  2  3  1  0
  3  4  2  3
  4  5  1  0
  5  6  2  0
  6  7  1  0
  6  8  1  0
  8  9  1  0
  9 10  2  0
  9 11  1  0
 11 12  1  0
 12 13  2  0
  3 14  1  0
 14 15  1  0
 14 16  2  0
 16 17  1  0
 17 18  1  0
 18 19  2  0
 18 20  1  0
 20 21  1  0
 21 22  2  0
 22 23  1  0
 23 24  2  0
 24 25  1  0
 24 26  1  0
 26 27  2  0
 17  2  1  0
 27 21  1  0
 12  5  1  0
  1 28  1  0
  1 29  1  0
  4 30  1  0
 15 31  1  0
 15 32  1  0
 15 33  1  0
 22 34  1  0
 23 35  1  0
 25 36  1  0
 25 37  1  0
 25 38  1  0
 26 39  1  0
 27 40  1  0
M  CHG  4   7  -1   8  -1  11  -1  20  -1
M  END
>  <UniqueID>  (3) 
2

>  <SMILES>  (3) 
C=c1c(=Cc2c([O-])[n-]c(=O)[n-]c2=O)c(C)nn1C(=O)[N-]c1ccc(C)cc1

>  <Energy>  (3) 
95.79162949245587

>  <Genealogy>  (3) 
C=c1c(=Cc2c([O-])[n-]c(=O)[n-]c2=O)c(C)nn1C(=O)[N-]c1ccc(C)cc1 (protonated)
C=c1c(=Cc2c([O-])[n-]c(=O)[n-]c2=O)c(C)nn1C(=O)[N-]c1ccc(C)cc1 (3D coordinates assigned)
C=c1c(=Cc2c([O-])[n-]c(=O)[n-]c2=O)c(C)nn1C(=O)[N-]c1ccc(C)cc1 (optimized conformer: 95.79162949245587 kcal/mol)

>  <smiles>  (3) 
C=c1c(=Cc2c(O)[nH]c(=O)[nH]c2=O)c(C)nn1C(=O)Nc1ccc(C)cc1

>  <score_type>  (3) 
oracle

>  <origin>  (3) 
adg

>  <m_score__min__energy>  (3) 
-17.300000000000001

>  <m_primary>  (3) 
energy

$$$$
3:0
     RDKit          3D

 74 78  0  0  0  0  0  0  0  0999 V2000
   68.7540   26.1780   50.8410 C   0  0  0  0  0  0  0  0  0  0  0  0
   68.0100   26.8320   51.9690 C   0  0  0  0  0  0  0  0  0  0  0  0
   68.1320   26.3480   53.1270 O   0  0  0  0  0  0  0  0  0  0  0  0
   67.1630   28.0370   51.7580 C   0  0  0  0  0  0  0  0  0  0  0  0
   65.7850   28.0310   52.0550 C   0  0  0  0  0  0  0  0  0  0  0  0
   65.0030   29.1690   51.8300 C   0  0  0  0  0  0  0  0  0  0  0  0
   65.5760   30.3390   51.3060 C   0  0  0  0  0  0  0  0  0  0  0  0
   64.7560   31.4970   51.0370 N   0  0  0  0  0  0  0  0  0  0  0  0
   65.1330   32.4710   50.0060 C   0  0  0  0  0  0  0  0  0  0  0  0
   64.1170   32.4400   48.8540 C   0  0  0  0  0  0  0  0  0  0  0  0
   62.6610   32.1570   49.3360 C   0  0  0  0  0  0  0  0  0  0  0  0
   61.5510   32.8070   48.4500 C   0  0  0  0  0  0  0  0  0  0  0  0
   60.2600   31.9520   48.4320 C   0  0  0  0  0  0  0  0  0  0  0  0
   59.4160   32.1770   47.1680 C   0  0  0  0  0  0  0  0  0  0  0  0
   59.5100   33.5790   46.7150 N   0  0  0  0  0  0  0  0  0  0  0  0
   58.4120   33.8810   45.7590 C   0  0  2  0  0  0  0  0  0  0  0  0
   57.0410   33.2910   46.1010 C   0  0  0  0  0  0  0  0  0  0  0  0
   57.0280   32.5590   44.7530 C   0  0  2  0  0  0  0  0  0  0  0  0
   56.9620   31.0550   44.8380 C   0  0  0  0  0  0  0  0  0  0  0  0
   56.1280   30.4300   44.1280 O   0  0  0  0  0  0  0  0  0  0  0  0
   57.7910   30.3470   45.7680 N   0  0  0  0  0  0  0  0  0  0  0  0
   58.7700   29.3410   45.3740 C   0  0  0  0  0  0  0  0  0  0  0  0
   58.1470   27.9740   45.4020 C   0  0  0  0  0  0  0  0  0  0  0  0
   58.9510   26.8320   45.2610 C   0  0  0  0  0  0  0  0  0  0  0  0
   58.3830   25.5560   45.3120 C   0  0  0  0  0  0  0  0  0  0  0  0
   57.0100   25.4080   45.5230 C   0  0  0  0  0  0  0  0  0  0  0  0
   56.1990   26.5380   45.6790 C   0  0  0  0  0  0  0  0  0  0  0  0
   54.8320   26.3770   45.8930 O   0  0  0  0  0  0  0  0  0  0  0  0
   56.7670   27.8190   45.6220 C   0  0  0  0  0  0  0  0  0  0  0  0
   58.4270   33.1030   44.4410 C   0  0  0  0  0  0  0  0  0  0  0  0
   60.8880   33.9480   46.2810 C   0  0  0  0  0  0  0  0  0  0  0  0
   61.9910   33.1520   47.0100 C   0  0  0  0  0  0  0  0  0  0  0  0
   62.4830   32.4850   50.8360 C   0  0  0  0  0  0  0  0  0  0  0  0
   63.4400   31.6280   51.6850 C   0  0  0  0  0  0  0  0  0  0  0  0
   66.9500   30.3490   51.0140 C   0  0  0  0  0  0  0  0  0  0  0  0
   67.7340   29.2140   51.2410 C   0  0  0  0  0  0  0  0  0  0  0  0
   69.5210   25.5038   51.2498 H   0  0  0  0  0  0  0  0  0  0  0  0
   68.0501   25.6009   50.2233 H   0  0  0  0  0  0  0  0  0  0  0  0
   69.2361   26.9501   50.2233 H   0  0  0  0  0  0  0  0  0  0  0  0
   65.3203   27.1233   52.4674 H   0  0  0  0  0  0  0  0  0  0  0  0
   63.9288   29.1470   52.0659 H   0  0  0  0  0  0  0  0  0  0  0  0
   65.1524   33.4785   50.4470 H   0  0  0  0  0  0  0  0  0  0  0  0
   66.1287   32.2144   49.6151 H   0  0  0  0  0  0  0  0  0  0  0  0
   64.1347   33.4145   48.3441 H   0  0  0  0  0  0  0  0  0  0  0  0
   64.4068   31.6201   48.1804 H   0  0  0  0  0  0  0  0  0  0  0  0
   62.5169   31.0738   49.2101 H   0  0  0  0  0  0  0  0  0  0  0  0
   61.3416   33.7708   48.9372 H   0  0  0  0  0  0  0  0  0  0  0  0
   60.5410   30.8897   48.4828 H   0  0  0  0  0  0  0  0  0  0  0  0
   59.6501   32.2539   49.2962 H   0  0  0  0  0  0  0  0  0  0  0  0
   59.7807   31.5150   46.3688 H   0  0  0  0  0  0  0  0  0  0  0  0
   58.3649   31.9529   47.4025 H   0  0  0  0  0  0  0  0  0  0  0  0
   58.5582   34.9712   45.7538 H   0  0  0  0  0  0  0  0  0  0  0  0
   56.2438   34.0405   46.2139 H   0  0  0  0  0  0  0  0  0  0  0  0
   56.8887   32.7375   47.0393 H   0  0  0  0  0  0  0  0  0  0  0  0
   56.1920   32.7167   44.0557 H   0  0  0  0  0  0  0  0  0  0  0  0
   59.1248   29.5581   44.3557 H   0  0  0  0  0  0  0  0  0  0  0  0
   59.6145   29.3658   46.0784 H   0  0  0  0  0  0  0  0  0  0  0  0
   60.0349   26.9421   45.1094 H   0  0  0  0  0  0  0  0  0  0  0  0
   59.0181   24.6668   45.1858 H   0  0  0  0  0  0  0  0  0  0  0  0
   56.5659   24.4026   45.5666 H   0  0  0  0  0  0  0  0  0  0  0  0
   54.3870   26.6980   46.7450 H   0  0  0  0  0  0  0  0  0  0  0  0
   56.1299   28.7066   45.7500 H   0  0  0  0  0  0  0  0  0  0  0  0
   58.4731   33.7382   43.5441 H   0  0  0  0  0  0  0  0  0  0  0  0
   59.2540   32.4165   44.2069 H   0  0  0  0  0  0  0  0  0  0  0  0
   60.9765   33.7585   45.2011 H   0  0  0  0  0  0  0  0  0  0  0  0
   61.0344   35.0097   46.5288 H   0  0  0  0  0  0  0  0  0  0  0  0
   62.1885   32.2204   46.4593 H   0  0  0  0  0  0  0  0  0  0  0  0
   62.9015   33.7676   47.0553 H   0  0  0  0  0  0  0  0  0  0  0  0
   62.7030   33.5496   51.0037 H   0  0  0  0  0  0  0  0  0  0  0  0
   61.4465   32.2647   51.1310 H   0  0  0  0  0  0  0  0  0  0  0  0
   63.5702   32.1033   52.6684 H   0  0  0  0  0  0  0  0  0  0  0  0
   63.0042   30.6239   51.7936 H   0  0  0  0  0  0  0  0  0  0  0  0
   67.4132   31.2581   50.6030 H   0  0  0  0  0  0  0  0  0  0  0  0
   68.8097   29.2417   51.0127 H   0  0  0  0  0  0  0  0  0  0  0  0
  1  2  1  0
  2  3  2  0
  2  4  1  0
  4  5  2  0
  5  6  1  0
  6  7  2  0
  7  8  1  0
  8  9  1  0
  9 10  1  0
 10 11  1  0
 11 12  1  0
 12 13  1  0
 13 14  1  0
 14 15  1  0
 15 16  1  0
 16 17  1  0
 17 18  1  0
 18 19  1  0
 19 20  2  0
 19 21  1  0
 21 22  1  0
 22 23  1  0
 23 24  2  0
 24 25  1  0
 25 26  2  0
 26 27  1  0
 27 28  1  0
 27 29  2  0
 18 30  1  0
 15 31  1  0
 31 32  1  0
 11 33  1  0
 33 34  1  0
  7 35  1  0
 35 36  2  0
 36  4  1  0
 34  8  1  0
 32 12  1  0
 30 16  1  0
 29 23  1  0
  1 37  1  0
  1 38  1  0
  1 39  1  0
  5 40  1  0
  6 41  1  0
  9 42  1  0
  9 43  1  0
 10 44  1  0
 10 45  1  0
 11 46  1  0
 12 47  1  0
 13 48  1  0
 13 49  1  0
 14 50  1  0
 14 51  1  0
 16 52  1  6
 17 53  1  0
 17 54  1  0
 18 55  1  6
 22 56  1  0
 22 57  1  0
 24 58  1  0
 25 59  1  0
 26 60  1  0
 28 61  1  0
 29 62  1  0
 30 63  1  0
 30 64  1  0
 31 65  1  0
 31 66  1  0
 32 67  1  0
 32 68  1  0
 33 69  1  0
 33 70  1  0
 34 71  1  0
 34 72  1  0
 35 73  1  0
 36 74  1  0
M  CHG  1  21  -1
M  END
>  <UniqueID>  (4) 
3

>  <SMILES>  (4) 
CC(=O)c1ccc(N2CCC(C3CCN(C4CC(C(=O)[N-]Cc5cccc(O)c5)C4)CC3)CC2)cc1

>  <Energy>  (4) 
157.8236763649958

>  <Genealogy>  (4) 
CC(=O)c1ccc(N2CCC(C3CCN(C4CC(C(=O)[N-]Cc5cccc(O)c5)C4)CC3)CC2)cc1 (protonated)
CC(=O)c1ccc(N2CCC(C3CCN(C4CC(C(=O)[N-]Cc5cccc(O)c5)C4)CC3)CC2)cc1 (3D coordinates assigned)
CC(=O)c1ccc(N2CCC(C3CCN(C4CC(C(=O)[N-]Cc5cccc(O)c5)C4)CC3)CC2)cc1 (nonaromatic ring conformer: 157.8236763649958 kcal/mol)

>  <smiles>  (4) 
CC(=O)c1ccc(N2CCC(C3CCN(C4CC(C(=O)NCc5cccc(O)c5)C4)CC3)CC2)cc1

>  <score_type>  (4) 
oracle

>  <origin>  (4) 
adg

>  <m_score__min__energy>  (4) 
-12.710000000000001

>  <m_primary>  (4) 
energy

$$$$
4:0
     RDKit          3D

 35 37  0  0  0  0  0  0  0  0999 V2000
   57.9000   26.8180   43.6440 C   0  0  0  0  0  0  0  0  0  0  0  0
   58.2750   26.6640   44.9250 C   0  0  0  0  0  0  0  0  0  0  0  0
   57.8620   25.6470   45.8020 C   0  0  0  0  0  0  0  0  0  0  0  0
   57.1920   24.5000   45.5770 C   0  0  0  0  0  0  0  0  0  0  0  0
   55.7310   24.3720   45.4490 C   0  0  0  0  0  0  0  0  0  0  0  0
   55.0670   23.2170   45.2660 N   0  0  0  0  0  0  0  0  0  0  0  0
   53.7660   23.5560   45.3600 C   0  0  0  0  0  0  0  0  0  0  0  0
   52.8300   22.7230   45.2340 O   0  0  0  0  0  0  0  0  0  0  0  0
   53.5540   24.8650   45.6160 N   0  0  0  0  0  0  0  0  0  0  0  0
   54.8040   25.3620   45.6850 C   0  0  0  0  0  0  0  0  0  0  0  0
   55.0920   26.6910   45.9640 O   0  0  0  0  0  0  0  0  0  0  0  0
   58.2940   26.0240   47.0620 C   0  0  0  0  0  0  0  0  0  0  0  0
   59.0040   27.1950   46.9080 C   0  0  0  0  0  0  0  0  0  0  0  0
   59.6460   27.9470   48.0340 C   0  0  0  0  0  0  0  0  0  0  0  0
   59.0100   27.5820   45.6100 N   0  0  0  0  0  0  0  0  0  0  0  0
   59.6020   28.8280   45.0970 C   0  0  0  0  0  0  0  0  0  0  0  0
   58.5600   29.9080   45.0180 C   0  0  0  0  0  0  0  0  0  0  0  0
   57.2580   29.6240   44.5870 C   0  0  0  0  0  0  0  0  0  0  0  0
   56.3350   30.6710   44.5190 C   0  0  0  0  0  0  0  0  0  0  0  0
   55.1570   30.4520   44.1350 O   0  0  0  0  0  0  0  0  0  0  0  0
   56.7100   31.9290   44.8690 N   0  0  0  0  0  0  0  0  0  0  0  0
   57.9760   32.1890   45.2850 C   0  0  0  0  0  0  0  0  0  0  0  0
   58.3050   33.3600   45.6040 O   0  0  0  0  0  0  0  0  0  0  0  0
   58.8880   31.1850   45.3580 N   0  0  0  0  0  0  0  0  0  0  0  0
   58.2926   27.6588   43.0533 H   0  0  0  0  0  0  0  0  0  0  0  0
   57.2004   26.1033   43.1860 H   0  0  0  0  0  0  0  0  0  0  0  0
   57.7877   23.5803   45.4807 H   0  0  0  0  0  0  0  0  0  0  0  0
   55.4670   22.2630   45.1220 H   0  0  0  0  0  0  0  0  0  0  0  0
   58.1064   25.4908   48.0057 H   0  0  0  0  0  0  0  0  0  0  0  0
   59.2971   27.5383   48.9938 H   0  0  0  0  0  0  0  0  0  0  0  0
   60.7392   27.8442   47.9674 H   0  0  0  0  0  0  0  0  0  0  0  0
   59.3730   29.0105   47.9674 H   0  0  0  0  0  0  0  0  0  0  0  0
   60.4086   29.1509   45.7717 H   0  0  0  0  0  0  0  0  0  0  0  0
   60.0035   28.6445   44.0895 H   0  0  0  0  0  0  0  0  0  0  0  0
   56.9685   28.6000   44.3083 H   0  0  0  0  0  0  0  0  0  0  0  0
  1  2  2  0
  2  3  1  0
  3  4  2  3
  4  5  1  0
  5  6  1  0
  6  7  1  0
  7  8  2  0
  7  9  1  0
  9 10  1  0
 10 11  1  0
  3 12  1  0
 12 13  2  0
 13 14  1  0
 13 15  1  0
 15 16  1  0
 16 17  1  0
 17 18  2  0
 18 19  1  0
 19 20  2  0
 19 21  1  0
 21 22  1  0
 22 23  2  0
 22 24  1  0
 15  2  1  0
 24 17  1  0
 10  5  2  0
  1 25  1  0
  1 26  1  0
  4 27  1  0
  6 28  1  0
 12 29  1  0
 14 30  1  0
 14 31  1  0
 14 32  1  0
 16 33  1  0
 16 34  1  0
 18 35  1  0
M  CHG  4   9  -1  11  -1  21  -1  24  -1
M  END
>  <UniqueID>  (5) 
4

>  <SMILES>  (5) 
C=c1c(=Cc2[nH]c(=O)[n-]c2[O-])cc(C)n1Cc1cc(=O)[n-]c(=O)[n-]1

>  <Energy>  (5) 
107.49922393774679

>  <Genealogy>  (5) 
C=c1c(=Cc2[nH]c(=O)[n-]c2[O-])cc(C)n1Cc1cc(=O)[n-]c(=O)[n-]1 (protonated)
C=c1c(=Cc2[nH]c(=O)[n-]c2[O-])cc(C)n1Cc1cc(=O)[n-]c(=O)[n-]1 (3D coordinates assigned)
C=c1c(=Cc2[nH]c(=O)[n-]c2[O-])cc(C)n1Cc1cc(=O)[n-]c(=O)[n-]1 (optimized conformer: 107.49922393774679 kcal/mol)

>  <smiles>  (5) 
C=c1c(=Cc2[nH]c(=O)[nH]c2O)cc(C)n1Cc1cc(=O)[nH]c(=O)[nH]1

>  <score_type>  (5) 
oracle

>  <origin>  (5) 
adg

>  <m_score__min__energy>  (5) 
-15.470000000000001

>  <m_primary>  (5) 
energy

$$$$
5:0
     RDKit          3D

 59 63  0  0  0  0  0  0  0  0999 V2000
   56.6380   30.8762   52.0860 H   0  0  0  0  0  0  0  0  0  0  0  0
   57.4280   30.9380   51.3230 C   0  0  0  0  0  0  0  0  0  0  0  0
   57.9540   29.8020   50.8000 N   0  0  0  0  0  0  0  0  0  0  0  0
   58.9320   29.8350   49.8590 C   0  0  0  0  0  0  0  0  0  0  0  0
   59.3254   28.8934   49.4484 H   0  0  0  0  0  0  0  0  0  0  0  0
   59.4460   31.0610   49.4050 C   0  0  0  0  0  0  0  0  0  0  0  0
   60.5170   31.0480   48.3790 C   0  0  0  0  0  0  0  0  0  0  0  0
   61.7210   31.1710   48.7350 O   0  0  0  0  0  0  0  0  0  0  0  0
   60.2120   30.9380   46.9860 N   0  0  0  0  0  0  0  0  0  0  0  0
   59.2310   31.0130   46.6380 H   0  0  0  0  0  0  0  0  0  0  0  0
   60.9850   30.8690   46.2870 H   0  0  0  0  0  0  0  0  0  0  0  0
   58.9130   32.2630   49.9320 C   0  0  0  0  0  0  0  0  0  0  0  0
   59.3310   33.4090   49.4620 N   0  0  0  0  0  0  0  0  0  0  0  0
   59.2210   33.9060   48.1180 C   0  0  0  0  0  0  0  0  0  0  0  0
   60.1100   34.8730   47.6230 C   0  0  0  0  0  0  0  0  0  0  0  0
   60.8912   35.2858   48.2782 H   0  0  0  0  0  0  0  0  0  0  0  0
   60.0060   35.3130   46.3010 C   0  0  0  0  0  0  0  0  0  0  0  0
   60.6896   36.0881   45.9243 H   0  0  0  0  0  0  0  0  0  0  0  0
   59.0340   34.7690   45.4570 C   0  0  0  0  0  0  0  0  0  0  0  0
   58.9429   35.1304   44.4221 H   0  0  0  0  0  0  0  0  0  0  0  0
   58.1740   33.7640   45.9240 C   0  0  0  0  0  0  0  0  0  0  0  0
   57.1080   33.1900   45.0320 C   0  0  0  0  0  0  0  0  0  0  0  0
   57.0710   33.7642   44.0945 H   0  0  0  0  0  0  0  0  0  0  0  0
   56.1383   33.2496   45.5479 H   0  0  0  0  0  0  0  0  0  0  0  0
   57.4020   31.7880   44.7290 N   0  0  0  0  0  0  0  0  0  0  0  0
   57.5420   30.8550   45.6570 N   0  0  0  0  0  0  0  0  0  0  0  0
   57.7650   29.6780   45.0370 C   0  0  0  0  0  0  0  0  0  0  0  0
   57.9900   28.4020   45.7580 C   0  0  0  0  0  0  0  0  0  0  0  0
   59.2440   28.0870   46.3110 C   0  0  0  0  0  0  0  0  0  0  0  0
   60.0824   28.7906   46.2014 H   0  0  0  0  0  0  0  0  0  0  0  0
   59.4310   26.8850   46.9990 C   0  0  0  0  0  0  0  0  0  0  0  0
   60.4130   26.6508   47.4358 H   0  0  0  0  0  0  0  0  0  0  0  0
   58.3770   25.9810   47.1340 C   0  0  0  0  0  0  0  0  0  0  0  0
   58.5296   25.0407   47.6841 H   0  0  0  0  0  0  0  0  0  0  0  0
   57.1240   26.2650   46.5720 C   0  0  0  0  0  0  0  0  0  0  0  0
   56.0160   25.2990   46.7240 C   0  0  0  0  0  0  0  0  0  0  0  0
   56.1600   24.3200   47.5010 O   0  0  0  0  0  0  0  0  0  0  0  0
   54.7920   25.4160   45.9860 N   0  0  0  0  0  0  0  0  0  0  0  0
   54.2410   24.3810   45.1180 C   0  0  0  0  0  0  0  0  0  0  0  0
   53.2584   24.8428   44.9414 H   0  0  0  0  0  0  0  0  0  0  0  0
   55.2720   23.7000   44.2350 C   0  0  0  0  0  0  0  0  0  0  0  0
   54.9885   23.3400   43.2350 H   0  0  0  0  0  0  0  0  0  0  0  0
   56.2698   23.9659   43.8558 H   0  0  0  0  0  0  0  0  0  0  0  0
   54.7440   22.9950   45.4760 C   0  0  0  0  0  0  0  0  0  0  0  0
   54.0789   22.1249   45.3733 H   0  0  0  0  0  0  0  0  0  0  0  0
   55.2022   22.5395   46.3663 H   0  0  0  0  0  0  0  0  0  0  0  0
   56.9320   27.4850   45.9040 C   0  0  0  0  0  0  0  0  0  0  0  0
   55.9423   27.7273   45.4895 H   0  0  0  0  0  0  0  0  0  0  0  0
   57.7490   29.8700   43.6630 C   0  0  0  0  0  0  0  0  0  0  0  0
   57.8972   29.1168   42.8752 H   0  0  0  0  0  0  0  0  0  0  0  0
   57.5050   31.2200   43.5080 C   0  0  0  0  0  0  0  0  0  0  0  0
   57.3910   31.9410   42.2020 C   0  0  0  0  0  0  0  0  0  0  0  0
   57.2217   33.0119   42.3879 H   0  0  0  0  0  0  0  0  0  0  0  0
   58.3209   31.8109   41.6289 H   0  0  0  0  0  0  0  0  0  0  0  0
   56.5466   31.5303   41.6289 H   0  0  0  0  0  0  0  0  0  0  0  0
   58.2780   33.3330   47.2570 C   0  0  0  0  0  0  0  0  0  0  0  0
   57.6130   32.5388   47.6271 H   0  0  0  0  0  0  0  0  0  0  0  0
   57.8860   32.1830   50.8960 C   0  0  0  0  0  0  0  0  0  0  0  0
   57.4471   33.1026   51.3103 H   0  0  0  0  0  0  0  0  0  0  0  0
  1  2  1  0
  2  3  1  0
  3  4  1  0
  4  5  1  0
  4  6  2  0
  6  7  1  0
  7  8  2  0
  7  9  1  0
  9 10  1  0
  9 11  1  0
  6 12  1  0
 12 13  2  0
 13 14  1  0
 14 15  2  0
 15 16  1  0
 15 17  1  0
 17 18  1  0
 17 19  2  0
 19 20  1  0
 19 21  1  0
 21 22  1  0
 22 23  1  0
 22 24  1  0
 22 25  1  0
 25 26  1  0
 26 27  2  0
 27 28  1  0
 28 29  2  0
 29 30  1  0
 29 31  1  0
 31 32  1  0
 31 33  2  0
 33 34  1  0
 33 35  1  0
 35 36  1  0
 36 37  2  0
 36 38  1  0
 38 39  1  0
 39 40  1  0
 39 41  1  0
 41 42  1  0
 41 43  1  0
 41 44  1  0
 44 45  1  0
 44 46  1  0
 35 47  2  0
 47 48  1  0
 27 49  1  0
 49 50  1  0
 49 51  2  0
 51 52  1  0
 52 53  1  0
 52 54  1  0
 52 55  1  0
 21 56  2  0
 56 57  1  0
 12 58  1  0
 58 59  1  0
 58  2  2  0
 56 14  1  0
 51 25  1  0
 47 28  1  0
 44 39  1  0
M  CHG  2   3  -1  38  -1
M  END
>  <UniqueID>  (6) 
5

>  <SMILES>  (6) 
Cc1cc(-c2cccc(C(=O)[N-]C3CC3)c2)nn1Cc1cccc(/N=c2\cc[n-]cc2C(N)=O)c1

>  <Energy>  (6) 
376.02115472982473

>  <Genealogy>  (6) 
Cc1cc(-c2cccc(C(=O)[N-]C3CC3)c2)nn1Cc1cccc(N=c2cc[n-]cc2C(N)=O)c1 (protonated)
Cc1cc(-c2cccc(C(=O)[N-]C3CC3)c2)nn1Cc1cccc(/N=c2\cc[n-]cc2C(N)=O)c1 (cis-trans isomerization)
Cc1cc(-c2cccc(C(=O)[N-]C3CC3)c2)nn1Cc1cccc(/N=c2\cc[n-]cc2C(N)=O)c1 (3D coordinates assigned)
Cc1cc(-c2cccc(C(=O)[N-]C3CC3)c2)nn1Cc1cccc(/N=c2\cc[n-]cc2C(N)=O)c1 (nonaromatic ring conformer: 376.02115472982473 kcal/mol)

>  <smiles>  (6) 
Cc1cc(-c2cccc(C(=O)NC3CC3)c2)nn1Cc1cccc(N=c2cc[nH]cc2C(N)=O)c1

>  <score_type>  (6) 
oracle

>  <origin>  (6) 
adg

>  <m_score__min__energy>  (6) 
-14.42

>  <m_primary>  (6) 
energy

$$$$
6:0
     RDKit          3D

 59 61  0  0  0  0  0  0  0  0999 V2000
   61.9650   33.2400   46.7880 C   0  0  0  0  0  0  0  0  0  0  0  0
   61.1260   33.3000   48.0530 C   0  0  0  0  0  0  0  0  0  0  0  0
   59.7350   33.0270   47.9830 C   0  0  0  0  0  0  0  0  0  0  0  0
   59.0520   32.7960   46.6890 C   0  0  0  0  0  0  0  0  0  0  0  0
   58.9510   33.8330   45.7490 C   0  0  0  0  0  0  0  0  0  0  0  0
   58.3260   33.6060   44.5200 C   0  0  0  0  0  0  0  0  0  0  0  0
   57.7940   32.3470   44.2240 C   0  0  0  0  0  0  0  0  0  0  0  0
   57.8750   31.3030   45.1610 C   0  0  0  0  0  0  0  0  0  0  0  0
   57.3420   29.9600   44.8280 C   0  0  0  0  0  0  0  0  0  0  0  0
   56.0950   29.7700   44.8630 O   0  0  0  0  0  0  0  0  0  0  0  0
   58.2070   28.8760   44.4400 N   0  0  0  0  0  0  0  0  0  0  0  0
   59.5070   28.6670   45.0860 C   0  0  0  0  0  0  0  0  0  0  0  0
   57.7670   27.9460   43.4000 C   0  0  0  0  0  0  0  0  0  0  0  0
   58.5160   31.5350   46.3910 C   0  0  0  0  0  0  0  0  0  0  0  0
   58.9830   32.9650   49.1660 C   0  0  0  0  0  0  0  0  0  0  0  0
   57.7480   32.7120   49.1070 O   0  0  0  0  0  0  0  0  0  0  0  0
   59.6030   33.1760   50.4070 C   0  0  0  0  0  0  0  0  0  0  0  0
   58.8510   33.0960   51.6880 C   0  0  0  0  0  0  0  0  0  0  0  0
   58.3900   34.1410   52.2230 O   0  0  0  0  0  0  0  0  0  0  0  0
   58.6520   31.8290   52.3270 N   0  0  0  0  0  0  0  0  0  0  0  0
   58.1470   30.6420   51.6460 C   0  0  0  0  0  0  0  0  0  0  0  0
   59.1660   30.1110   50.6730 C   0  0  0  0  0  0  0  0  0  0  0  0
   58.7770   29.6680   49.3990 C   0  0  0  0  0  0  0  0  0  0  0  0
   59.7400   29.1770   48.5160 C   0  0  0  0  0  0  0  0  0  0  0  0
   61.0470   29.1270   48.8920 N   0  0  0  0  0  0  0  0  0  0  0  0
   61.4520   29.5460   50.1210 C   0  0  0  0  0  0  0  0  0  0  0  0
   60.5200   30.0430   51.0350 C   0  0  0  0  0  0  0  0  0  0  0  0
   60.9690   33.4830   50.4260 C   0  0  0  0  0  0  0  0  0  0  0  0
   61.7050   33.6010   49.2730 N   0  0  0  0  0  0  0  0  0  0  0  0
   63.1310   34.0120   49.3910 C   0  0  0  0  0  0  0  0  0  0  0  0
   63.4510   34.5960   50.7770 C   0  0  0  0  0  0  0  0  0  0  0  0
   64.0580   32.8410   49.0500 C   0  0  0  0  0  0  0  0  0  0  0  0
   63.0289   33.1639   47.0569 H   0  0  0  0  0  0  0  0  0  0  0  0
   61.6727   32.3605   46.1955 H   0  0  0  0  0  0  0  0  0  0  0  0
   61.8009   34.1522   46.1955 H   0  0  0  0  0  0  0  0  0  0  0  0
   59.3644   34.8259   45.9799 H   0  0  0  0  0  0  0  0  0  0  0  0
   58.2523   34.4197   43.7835 H   0  0  0  0  0  0  0  0  0  0  0  0
   57.3093   32.1730   43.2520 H   0  0  0  0  0  0  0  0  0  0  0  0
   59.3810   28.6873   46.1786 H   0  0  0  0  0  0  0  0  0  0  0  0
   59.9150   27.6917   44.7820 H   0  0  0  0  0  0  0  0  0  0  0  0
   60.2001   29.4653   44.7820 H   0  0  0  0  0  0  0  0  0  0  0  0
   57.3414   27.0465   43.8687 H   0  0  0  0  0  0  0  0  0  0  0  0
   57.0025   28.4302   42.7746 H   0  0  0  0  0  0  0  0  0  0  0  0
   58.6262   27.6620   42.7746 H   0  0  0  0  0  0  0  0  0  0  0  0
   58.5976   30.7203   47.1256 H   0  0  0  0  0  0  0  0  0  0  0  0
   57.9222   29.8660   52.3925 H   0  0  0  0  0  0  0  0  0  0  0  0
   57.2370   30.9137   51.0910 H   0  0  0  0  0  0  0  0  0  0  0  0
   57.7196   29.7076   49.0984 H   0  0  0  0  0  0  0  0  0  0  0  0
   59.4423   28.8302   47.5154 H   0  0  0  0  0  0  0  0  0  0  0  0
   62.5158   29.4933   50.3957 H   0  0  0  0  0  0  0  0  0  0  0  0
   60.8450   30.3785   52.0309 H   0  0  0  0  0  0  0  0  0  0  0  0
   61.4679   33.6343   51.3946 H   0  0  0  0  0  0  0  0  0  0  0  0
   63.3070   34.8161   48.6613 H   0  0  0  0  0  0  0  0  0  0  0  0
   63.0781   33.9155   51.5566 H   0  0  0  0  0  0  0  0  0  0  0  0
   64.5396   34.7136   50.8829 H   0  0  0  0  0  0  0  0  0  0  0  0
   62.9643   35.5767   50.8829 H   0  0  0  0  0  0  0  0  0  0  0  0
   64.4232   32.3797   49.9795 H   0  0  0  0  0  0  0  0  0  0  0  0
   63.5040   32.0938   48.4628 H   0  0  0  0  0  0  0  0  0  0  0  0
   64.9124   33.2087   48.4628 H   0  0  0  0  0  0  0  0  0  0  0  0
  1  2  1  0
  2  3  2  0
  3  4  1  0
  4  5  2  0
  5  6  1  0
  6  7  2  0
  7  8  1  0
  8  9  1  0
  9 10  2  0
  9 11  1  0
 11 12  1  0
 11 13  1  0
  8 14  2  0
  3 15  1  0
 15 16  2  0
 15 17  1  0
 17 18  1  0
 18 19  2  0
 18 20  1  0
 20 21  1  0
 21 22  1  0
 22 23  2  0
 23 24  1  0
 24 25  2  0
 25 26  1  0
 26 27  2  0
 17 28  2  0
 28 29  1  0
 29 30  1  0
 30 31  1  0
 30 32  1  0
 29  2  1  0
 14  4  1  0
 27 22  1  0
  1 33  1  0
  1 34  1  0
  1 35  1  0
  5 36  1  0
  6 37  1  0
  7 38  1  0
 12 39  1  0
 12 40  1  0
 12 41  1  0
 13 42  1  0
 13 43  1  0
 13 44  1  0
 14 45  1  0
 21 46  1  0
 21 47  1  0
 23 48  1  0
 24 49  1  0
 26 50  1  0
 27 51  1  0
 28 52  1  0
 30 53  1  0
 31 54  1  0
 31 55  1  0
 31 56  1  0
 32 57  1  0
 32 58  1  0
 32 59  1  0
M  CHG  1  20  -1
M  END
>  <UniqueID>  (7) 
6

>  <SMILES>  (7) 
Cc1c(-c2cccc(C(=O)N(C)C)c2)c(=O)c(C(=O)[N-]Cc2ccncc2)cn1C(C)C

>  <Energy>  (7) 
78.20026702877745

>  <Genealogy>  (7) 
Cc1c(-c2cccc(C(=O)N(C)C)c2)c(=O)c(C(=O)[N-]Cc2ccncc2)cn1C(C)C (protonated)
Cc1c(-c2cccc(C(=O)N(C)C)c2)c(=O)c(C(=O)[N-]Cc2ccncc2)cn1C(C)C (3D coordinates assigned)
Cc1c(-c2cccc(C(=O)N(C)C)c2)c(=O)c(C(=O)[N-]Cc2ccncc2)cn1C(C)C (optimized conformer: 78.20026702877745 kcal/mol)

>  <smiles>  (7) 
Cc1c(-c2cccc(C(=O)N(C)C)c2)c(=O)c(C(=O)NCc2ccncc2)cn1C(C)C

>  <score_type>  (7) 
oracle

>  <origin>  (7) 
adg

>  <m_score__min__energy>  (7) 
-11.380000000000001

>  <m_primary>  (7) 
energy

$$$$
7:0
     RDKit          3D

 48 51  0  0  0  0  0  0  0  0999 V2000
   57.3620   30.0920   51.1970 O   0  0  0  0  0  0  0  0  0  0  0  0
   58.1650   30.6980   50.4380 C   0  0  0  0  0  0  0  0  0  0  0  0
   58.6160   31.9620   50.7930 O   0  0  0  0  0  0  0  0  0  0  0  0
   58.6310   30.0500   49.1650 C   0  0  0  0  0  0  0  0  0  0  0  0
   59.0250   31.0470   48.0320 C   0  0  1  0  0  0  0  0  0  0  0  0
   58.1300   32.3250   47.9680 C   0  0  0  0  0  0  0  0  0  0  0  0
   58.4980   33.3270   46.8950 C   0  0  0  0  0  0  0  0  0  0  0  0
   57.9980   33.1990   45.5870 C   0  0  0  0  0  0  0  0  0  0  0  0
   58.3510   34.1260   44.6010 C   0  0  0  0  0  0  0  0  0  0  0  0
   59.1890   35.1970   44.9130 C   0  0  0  0  0  0  0  0  0  0  0  0
   59.6640   35.3530   46.2170 C   0  0  0  0  0  0  0  0  0  0  0  0
   59.3120   34.4300   47.2060 C   0  0  0  0  0  0  0  0  0  0  0  0
   60.4820   31.4760   48.1980 C   0  0  0  0  0  0  0  0  0  0  0  0
   61.0450   32.3280   49.1620 C   0  0  0  0  0  0  0  0  0  0  0  0
   62.4230   32.5940   49.1110 C   0  0  0  0  0  0  0  0  0  0  0  0
   63.2200   32.0310   48.0970 C   0  0  0  0  0  0  0  0  0  0  0  0
   62.6430   31.2050   47.1210 C   0  0  0  0  0  0  0  0  0  0  0  0
   61.2740   30.9540   47.2000 C   0  0  0  0  0  0  0  0  0  0  0  0
   60.4210   30.2240   46.3080 C   0  0  0  0  0  0  0  0  0  0  0  0
   60.8150   29.5420   45.3240 O   0  0  0  0  0  0  0  0  0  0  0  0
   59.0590   30.3350   46.7260 N   0  0  0  0  0  0  0  0  0  0  0  0
   57.9690   29.6380   46.0850 C   0  0  0  0  0  0  0  0  0  0  0  0
   57.1290   30.2880   45.4060 O   0  0  0  0  0  0  0  0  0  0  0  0
   57.7930   28.1690   46.2140 C   0  0  0  0  0  0  0  0  0  0  0  0
   58.8190   27.4080   46.8050 C   0  0  0  0  0  0  0  0  0  0  0  0
   58.6860   26.0240   46.9510 C   0  0  0  0  0  0  0  0  0  0  0  0
   57.5210   25.3790   46.5190 C   0  0  0  0  0  0  0  0  0  0  0  0
   57.3800   24.0000   46.6560 O   0  0  0  0  0  0  0  0  0  0  0  0
   56.4890   26.1270   45.9470 C   0  0  0  0  0  0  0  0  0  0  0  0
   56.6130   27.5130   45.7990 C   0  0  0  0  0  0  0  0  0  0  0  0
   55.5490   28.2220   45.2520 O   0  0  0  0  0  0  0  0  0  0  0  0
   59.5100   29.4310   49.3976 H   0  0  0  0  0  0  0  0  0  0  0  0
   57.7797   29.4672   48.7835 H   0  0  0  0  0  0  0  0  0  0  0  0
   57.0932   32.0037   47.7899 H   0  0  0  0  0  0  0  0  0  0  0  0
   58.2760   32.8434   48.9271 H   0  0  0  0  0  0  0  0  0  0  0  0
   57.3254   32.3650   45.3378 H   0  0  0  0  0  0  0  0  0  0  0  0
   57.9669   34.0104   43.5767 H   0  0  0  0  0  0  0  0  0  0  0  0
   59.4752   35.9177   44.1328 H   0  0  0  0  0  0  0  0  0  0  0  0
   60.3159   36.2032   46.4661 H   0  0  0  0  0  0  0  0  0  0  0  0
   59.6747   34.5678   48.2353 H   0  0  0  0  0  0  0  0  0  0  0  0
   60.4170   32.7796   49.9441 H   0  0  0  0  0  0  0  0  0  0  0  0
   62.8822   33.2464   49.8683 H   0  0  0  0  0  0  0  0  0  0  0  0
   64.2997   32.2395   48.0696 H   0  0  0  0  0  0  0  0  0  0  0  0
   63.2530   30.7680   46.3167 H   0  0  0  0  0  0  0  0  0  0  0  0
   59.7345   27.9071   47.1554 H   0  0  0  0  0  0  0  0  0  0  0  0
   59.4992   25.4400   47.4067 H   0  0  0  0  0  0  0  0  0  0  0  0
   56.5680   23.5140   46.2970 H   0  0  0  0  0  0  0  0  0  0  0  0
   55.5714   25.6224   45.6102 H   0  0  0  0  0  0  0  0  0  0  0  0
  1  2  2  0
  2  3  1  0
  2  4  1  0
  5  4  1  1
  5  6  1  0
  6  7  1  0
  7  8  2  0
  8  9  1  0
  9 10  2  0
 10 11  1  0
 11 12  2  0
  5 13  1  0
 13 14  2  0
 14 15  1  0
 15 16  2  0
 16 17  1  0
 17 18  2  0
 18 19  1  0
 19 20  2  0
 19 21  1  0
 21 22  1  0
 22 23  2  0
 22 24  1  0
 24 25  2  0
 25 26  1  0
 26 27  2  0
 27 28  1  0
 27 29  1  0
 29 30  2  0
 30 31  1  0
 21  5  1  0
 30 24  1  0
 12  7  1  0
 18 13  1  0
  4 32  1  0
  4 33  1  0
  6 34  1  0
  6 35  1  0
  8 36  1  0
  9 37  1  0
 10 38  1  0
 11 39  1  0
 12 40  1  0
 14 41  1  0
 15 42  1  0
 16 43  1  0
 17 44  1  0
 25 45  1  0
 26 46  1  0
 28 47  1  0
 29 48  1  0
M  CHG  2   3  -1  31  -1
M  END
>  <UniqueID>  (8) 
7

>  <SMILES>  (8) 
O=C([O-])C[C@@]1(Cc2ccccc2)c2ccccc2C(=O)N1C(=O)c1ccc(O)cc1[O-]

>  <Energy>  (8) 
83.00892506716535

>  <Genealogy>  (8) 
O=C([O-])CC1(Cc2ccccc2)c2ccccc2C(=O)N1C(=O)c1ccc(O)cc1[O-] (protonated)
O=C([O-])C[C@@]1(Cc2ccccc2)c2ccccc2C(=O)N1C(=O)c1ccc(O)cc1[O-] (chirality)
O=C([O-])C[C@@]1(Cc2ccccc2)c2ccccc2C(=O)N1C(=O)c1ccc(O)cc1[O-] (3D coordinates assigned)
O=C([O-])C[C@@]1(Cc2ccccc2)c2ccccc2C(=O)N1C(=O)c1ccc(O)cc1[O-] (nonaromatic ring conformer: 83.00892506716535 kcal/mol)

>  <smiles>  (8) 
O=C(O)CC1(Cc2ccccc2)c2ccccc2C(=O)N1C(=O)c1ccc(O)cc1O

>  <score_type>  (8) 
oracle

>  <origin>  (8) 
adg

>  <m_score__min__energy>  (8) 
-12.970000000000001

>  <m_primary>  (8) 
energy

$$$$
8:0
     RDKit          3D

 49 51  0  0  0  0  0  0  0  0999 V2000
   56.5700   29.7960   44.5820 H   0  0  0  0  0  0  0  0  0  0  0  0
   57.3990   30.3110   44.4030 O   0  0  0  0  0  0  0  0  0  0  0  0
   57.0060   31.5290   43.8270 C   0  0  0  0  0  0  0  0  0  0  0  0
   55.9150   31.6351   43.9191 H   0  0  0  0  0  0  0  0  0  0  0  0
   57.3051   31.5288   42.7684 H   0  0  0  0  0  0  0  0  0  0  0  0
   57.6880   32.7160   44.5290 C   0  0  2  0  0  0  0  0  0  0  0  0
   57.9937   33.4366   43.7561 H   0  0  0  0  0  0  0  0  0  0  0  0
   58.8820   32.2650   45.2540 N   0  0  0  0  0  0  0  0  0  0  0  0
   59.1770   31.2650   45.1760 H   0  0  0  0  0  0  0  0  0  0  0  0
   59.6120   33.1300   46.1390 C   0  0  0  0  0  0  0  0  0  0  0  0
   59.1670   34.2800   46.4010 O   0  0  0  0  0  0  0  0  0  0  0  0
   60.8840   32.6770   46.7500 C   0  0  0  0  0  0  0  0  0  0  0  0
   61.9130   33.6090   46.9750 C   0  0  0  0  0  0  0  0  0  0  0  0
   61.7748   34.6576   46.6728 H   0  0  0  0  0  0  0  0  0  0  0  0
   63.1090   33.2140   47.5790 C   0  0  0  0  0  0  0  0  0  0  0  0
   63.9067   33.9519   47.7501 H   0  0  0  0  0  0  0  0  0  0  0  0
   63.2950   31.8860   47.9660 C   0  0  0  0  0  0  0  0  0  0  0  0
   64.2368   31.5790   48.4443 H   0  0  0  0  0  0  0  0  0  0  0  0
   62.2860   30.9480   47.7460 C   0  0  0  0  0  0  0  0  0  0  0  0
   62.4363   29.9022   48.0522 H   0  0  0  0  0  0  0  0  0  0  0  0
   61.0810   31.3290   47.1370 C   0  0  0  0  0  0  0  0  0  0  0  0
   60.0800   30.3250   46.8880 N   0  0  0  0  0  0  0  0  0  0  0  0
   58.9320   30.1800   47.5850 C   0  0  0  0  0  0  0  0  0  0  0  0
   58.5300   31.0320   48.7490 C   0  0  0  0  0  0  0  0  0  0  0  0
   58.7756   30.5116   49.6865 H   0  0  0  0  0  0  0  0  0  0  0  0
   59.0718   31.9884   48.7078 H   0  0  0  0  0  0  0  0  0  0  0  0
   57.4473   31.2219   48.7078 H   0  0  0  0  0  0  0  0  0  0  0  0
   58.1870   29.1410   47.0670 C   0  0  0  0  0  0  0  0  0  0  0  0
   57.2024   28.8016   47.4212 H   0  0  0  0  0  0  0  0  0  0  0  0
   58.9140   28.6060   46.0160 C   0  0  0  0  0  0  0  0  0  0  0  0
   58.4910   27.5390   45.3110 C   0  0  0  0  0  0  0  0  0  0  0  0
   58.9968   27.3358   44.3556 H   0  0  0  0  0  0  0  0  0  0  0  0
   57.4080   26.6190   45.7090 C   0  0  0  0  0  0  0  0  0  0  0  0
   56.0620   27.0140   45.6450 C   0  0  0  0  0  0  0  0  0  0  0  0
   55.7150   28.2980   45.2420 O   0  0  0  0  0  0  0  0  0  0  0  0
   55.0830   26.1320   45.9780 N   0  0  0  0  0  0  0  0  0  0  0  0
   55.3810   24.8640   46.3580 C   0  0  0  0  0  0  0  0  0  0  0  0
   54.4590   24.0660   46.6660 O   0  0  0  0  0  0  0  0  0  0  0  0
   56.6750   24.4530   46.4020 N   0  0  0  0  0  0  0  0  0  0  0  0
   57.6900   25.2960   46.0800 C   0  0  0  0  0  0  0  0  0  0  0  0
   58.8790   24.8800   46.1250 O   0  0  0  0  0  0  0  0  0  0  0  0
   60.0820   29.3830   45.9100 C   0  0  0  0  0  0  0  0  0  0  0  0
   61.0440   29.2980   44.9760 C   0  0  0  0  0  0  0  0  0  0  0  0
   61.9101   29.9751   45.0153 H   0  0  0  0  0  0  0  0  0  0  0  0
   60.9656   28.5514   44.1720 H   0  0  0  0  0  0  0  0  0  0  0  0
   56.7200   33.4280   45.4830 C   0  0  0  0  0  0  0  0  0  0  0  0
   57.0081   33.2161   46.5232 H   0  0  0  0  0  0  0  0  0  0  0  0
   56.7611   34.5127   45.3049 H   0  0  0  0  0  0  0  0  0  0  0  0
   55.6968   33.0657   45.3049 H   0  0  0  0  0  0  0  0  0  0  0  0
  1  2  1  0
  2  3  1  0
  3  4  1  0
  3  5  1  0
  3  6  1  0
  6  7  1  6
  6  8  1  0
  8  9  1  0
  8 10  1  0
 10 11  2  0
 10 12  1  0
 12 13  2  0
 13 14  1  0
 13 15  1  0
 15 16  1  0
 15 17  2  0
 17 18  1  0
 17 19  1  0
 19 20  1  0
 19 21  2  0
 21 22  1  0
 22 23  1  0
 23 24  1  0
 24 25  1  0
 24 26  1  0
 24 27  1  0
 23 28  2  0
 28 29  1  0
 28 30  1  0
 30 31  2  0
 31 32  1  0
 31 33  1  0
 33 34  2  0
 34 35  1  0
 34 36  1  0
 36 37  1  0
 37 38  2  0
 37 39  1  0
 39 40  1  0
 40 41  2  0
 30 42  1  0
 42 43  2  0
 43 44  1  0
 43 45  1  0
  6 46  1  0
 46 47  1  0
 46 48  1  0
 46 49  1  0
 21 12  1  0
 42 22  1  0
 40 33  1  0
M  CHG  3  35  -1  36  -1  39  -1
M  END
>  <UniqueID>  (9) 
8

>  <SMILES>  (9) 
C=c1/c(=C\c2c([O-])[n-]c(=O)[n-]c2=O)cc(C)n1-c1ccccc1C(=O)N[C@H](C)CO

>  <Energy>  (9) 
98.70982968504627

>  <Genealogy>  (9) 
C=c1c(=Cc2c([O-])[n-]c(=O)[n-]c2=O)cc(C)n1-c1ccccc1C(=O)NC(C)CO (protonated)
C=c1c(=Cc2c([O-])[n-]c(=O)[n-]c2=O)cc(C)n1-c1ccccc1C(=O)N[C@H](C)CO (chirality)
C=c1/c(=C\c2c([O-])[n-]c(=O)[n-]c2=O)cc(C)n1-c1ccccc1C(=O)N[C@H](C)CO (cis-trans isomerization)
C=c1/c(=C\c2c([O-])[n-]c(=O)[n-]c2=O)cc(C)n1-c1ccccc1C(=O)N[C@H](C)CO (3D coordinates assigned)
C=c1/c(=C\c2c([O-])[n-]c(=O)[n-]c2=O)cc(C)n1-c1ccccc1C(=O)N[C@H](C)CO (optimized conformer: 98.70982968504627 kcal/mol)

>  <smiles>  (9) 
C=c1c(=Cc2c(O)[nH]c(=O)[nH]c2=O)cc(C)n1-c1ccccc1C(=O)NC(C)CO

>  <score_type>  (9) 
oracle

>  <origin>  (9) 
adg

>  <m_score__min__energy>  (9) 
-15.94

>  <m_primary>  (9) 
energy

$$$$
9:0
     RDKit          3D

 51 55  0  0  0  0  0  0  0  0999 V2000
   58.0312   25.7244   43.7283 H   0  0  0  0  0  0  0  0  0  0  0  0
   57.7090   26.3070   44.6040 C   0  0  0  0  0  0  0  0  0  0  0  0
   57.1390   25.5750   45.7460 C   0  0  0  0  0  0  0  0  0  0  0  0
   57.7230   24.5010   46.3050 N   0  0  0  0  0  0  0  0  0  0  0  0
   56.8230   24.1010   47.2300 C   0  0  0  0  0  0  0  0  0  0  0  0
   57.0200   23.1130   47.9840 O   0  0  0  0  0  0  0  0  0  0  0  0
   55.6920   24.8370   47.2750 N   0  0  0  0  0  0  0  0  0  0  0  0
   55.9010   25.7580   46.3210 C   0  0  0  0  0  0  0  0  0  0  0  0
   54.9640   26.7160   45.9560 O   0  0  0  0  0  0  0  0  0  0  0  0
   57.8610   27.6390   44.5620 C   0  0  0  0  0  0  0  0  0  0  0  0
   57.8620   28.4250   43.4090 C   0  0  0  0  0  0  0  0  0  0  0  0
   57.7145   28.0528   42.3845 H   0  0  0  0  0  0  0  0  0  0  0  0
   58.0730   29.7170   43.7500 N   0  0  0  0  0  0  0  0  0  0  0  0
   58.1310   30.5300   43.0970 H   0  0  0  0  0  0  0  0  0  0  0  0
   58.2210   29.7720   45.0630 N   0  0  0  0  0  0  0  0  0  0  0  0
   58.4820   30.8550   45.8380 C   0  0  0  0  0  0  0  0  0  0  0  0
   58.5690   32.0370   45.2910 N   0  0  0  0  0  0  0  0  0  0  0  0
   58.2620   33.3940   45.7790 C   0  0  0  0  0  0  0  0  0  0  0  0
   57.1778   33.2739   45.6373 H   0  0  0  0  0  0  0  0  0  0  0  0
   59.1930   33.8960   46.8680 C   0  0  0  0  0  0  0  0  0  0  0  0
   58.7875   34.4558   47.7237 H   0  0  0  0  0  0  0  0  0  0  0  0
   59.9417   33.4319   47.5269 H   0  0  0  0  0  0  0  0  0  0  0  0
   59.2220   34.5360   45.4800 C   0  0  0  0  0  0  0  0  0  0  0  0
   58.8366   35.5561   45.3356 H   0  0  0  0  0  0  0  0  0  0  0  0
   59.9988   34.7238   44.7242 H   0  0  0  0  0  0  0  0  0  0  0  0
   58.6430   30.6500   47.1770 N   0  0  0  0  0  0  0  0  0  0  0  0
   58.5560   29.3890   47.7090 C   0  0  0  0  0  0  0  0  0  0  0  0
   58.7640   29.1630   49.0740 O   0  0  0  0  0  0  0  0  0  0  0  0
   59.5350   30.0090   49.9230 C   0  0  0  0  0  0  0  0  0  0  0  0
   59.8980   29.4239   50.7808 H   0  0  0  0  0  0  0  0  0  0  0  0
   60.3811   30.4095   49.3453 H   0  0  0  0  0  0  0  0  0  0  0  0
   58.6940   31.1820   50.4360 C   0  0  0  0  0  0  0  0  0  0  0  0
   57.6619   31.0704   50.0724 H   0  0  0  0  0  0  0  0  0  0  0  0
   58.7189   31.1756   51.5357 H   0  0  0  0  0  0  0  0  0  0  0  0
   59.2560   32.5190   49.9440 C   0  0  0  0  0  0  0  0  0  0  0  0
   59.0380   32.6304   48.8716 H   0  0  0  0  0  0  0  0  0  0  0  0
   58.7851   33.3335   50.5139 H   0  0  0  0  0  0  0  0  0  0  0  0
   60.6680   32.5730   50.1440 O   0  0  0  0  0  0  0  0  0  0  0  0
   61.6340   32.6650   49.1280 C   0  0  0  0  0  0  0  0  0  0  0  0
   61.7770   31.5800   48.2540 C   0  0  0  0  0  0  0  0  0  0  0  0
   61.1484   30.6870   48.3860 H   0  0  0  0  0  0  0  0  0  0  0  0
   62.7120   31.6220   47.2150 C   0  0  0  0  0  0  0  0  0  0  0  0
   62.8189   30.7627   46.5367 H   0  0  0  0  0  0  0  0  0  0  0  0
   63.5100   32.7540   47.0380 C   0  0  0  0  0  0  0  0  0  0  0  0
   64.2446   32.7870   46.2199 H   0  0  0  0  0  0  0  0  0  0  0  0
   63.3750   33.8440   47.9000 C   0  0  0  0  0  0  0  0  0  0  0  0
   64.0002   34.7376   47.7562 H   0  0  0  0  0  0  0  0  0  0  0  0
   62.4470   33.8030   48.9460 C   0  0  0  0  0  0  0  0  0  0  0  0
   62.3511   34.6605   49.6283 H   0  0  0  0  0  0  0  0  0  0  0  0
   58.2840   28.3250   46.9030 N   0  0  0  0  0  0  0  0  0  0  0  0
   58.1010   28.5480   45.5810 C   0  0  0  0  0  0  0  0  0  0  0  0
  1  2  1  0
  2  3  1  0
  3  4  1  0
  4  5  1  0
  5  6  2  0
  5  7  1  0
  7  8  1  0
  8  9  1  0
  2 10  2  0
 10 11  1  0
 11 12  1  0
 11 13  2  0
 13 14  1  0
 13 15  1  0
 15 16  1  0
 16 17  2  0
 17 18  1  0
 18 19  1  0
 18 20  1  0
 20 21  1  0
 20 22  1  0
 20 23  1  0
 23 24  1  0
 23 25  1  0
 16 26  1  0
 26 27  2  0
 27 28  1  0
 28 29  1  0
 29 30  1  0
 29 31  1  0
 29 32  1  0
 32 33  1  0
 32 34  1  0
 32 35  1  0
 35 36  1  0
 35 37  1  0
 35 38  1  0
 38 39  1  0
 39 40  2  0
 40 41  1  0
 40 42  1  0
 42 43  1  0
 42 44  2  0
 44 45  1  0
 44 46  1  0
 46 47  1  0
 46 48  2  0
 48 49  1  0
 27 50  1  0
 50 51  2  0
  8  3  2  0
 51 10  1  0
 51 15  1  0
 23 18  1  0
 48 39  1  0
M  CHG  4   4  -1   7  -1   9  -1  13   1
M  END
>  <UniqueID>  (10) 
9

>  <SMILES>  (10) 
O=c1[n-]c([O-])c(/C=c2/c[nH+]n3/c(=N/C4CC4)nc(OCCCOc4ccccc4)nc23)[n-]1

>  <Energy>  (10) 
400.4549823822469

>  <Genealogy>  (10) 
O=c1[n-]c([O-])c(C=c2c[nH+]n3c(=NC4CC4)nc(OCCCOc4ccccc4)nc23)[n-]1 (protonated)
O=c1[n-]c([O-])c(/C=c2/c[nH+]n3/c(=N/C4CC4)nc(OCCCOc4ccccc4)nc23)[n-]1 (cis-trans isomerization)
O=c1[n-]c([O-])c(/C=c2/c[nH+]n3/c(=N/C4CC4)nc(OCCCOc4ccccc4)nc23)[n-]1 (3D coordinates assigned)
O=c1[n-]c([O-])c(/C=c2/c[nH+]n3/c(=N/C4CC4)nc(OCCCOc4ccccc4)nc23)[n-]1 (nonaromatic ring conformer: 400.4549823822469 kcal/mol)

>  <smiles>  (10) 
O=c1[nH]c(O)c(C=c2cnn3c(=NC4CC4)nc(OCCCOc4ccccc4)nc23)[nH]1

>  <score_type>  (10) 
oracle

>  <origin>  (10) 
adg

>  <m_score__min__energy>  (10) 
-15.41

>  <m_primary>  (10) 
energy

$$$$
10:0
     RDKit          3D

 60 63  0  0  0  0  0  0  0  0999 V2000
   59.3130   34.9800   47.5110 C   0  0  0  0  0  0  0  0  0  0  0  0
   58.8910   34.2170   46.3000 C   0  0  0  0  0  0  0  0  0  0  0  0
   58.9760   34.6570   44.9930 C   0  0  0  0  0  0  0  0  0  0  0  0
   58.4930   33.6240   44.2180 C   0  0  0  0  0  0  0  0  0  0  0  0
   58.1500   32.6200   45.1040 C   0  0  0  0  0  0  0  0  0  0  0  0
   57.5740   31.3220   44.7500 C   0  0  0  0  0  0  0  0  0  0  0  0
   56.2590   31.0280   44.8100 N   0  0  0  0  0  0  0  0  0  0  0  0
   56.1820   29.7510   44.4680 N   0  0  0  0  0  0  0  0  0  0  0  0
   57.3970   29.3040   44.2030 N   0  0  0  0  0  0  0  0  0  0  0  0
   57.7110   27.9190   43.8810 C   0  0  0  0  0  0  0  0  0  0  0  0
   58.4770   27.2940   45.0130 C   0  0  0  0  0  0  0  0  0  0  0  0
   59.7220   27.1310   44.8950 O   0  0  0  0  0  0  0  0  0  0  0  0
   57.8130   26.8710   46.2200 N   0  0  0  0  0  0  0  0  0  0  0  0
   58.5550   26.8220   47.4890 C   0  0  0  0  0  0  0  0  0  0  0  0
   59.1760   28.1610   47.7890 C   0  0  0  0  0  0  0  0  0  0  0  0
   60.4000   28.2360   48.4650 C   0  0  0  0  0  0  0  0  0  0  0  0
   60.9740   29.4770   48.7580 C   0  0  0  0  0  0  0  0  0  0  0  0
   60.3320   30.6800   48.3850 C   0  0  0  0  0  0  0  0  0  0  0  0
   60.9340   31.9740   48.6770 N   0  0  0  0  0  0  0  0  0  0  0  0
   60.4680   32.7750   49.8160 C   0  0  0  0  0  0  0  0  0  0  0  0
   62.0020   32.5130   47.8250 C   0  0  0  0  0  0  0  0  0  0  0  0
   59.0930   30.5900   47.7160 C   0  0  0  0  0  0  0  0  0  0  0  0
   58.5220   29.3470   47.4250 C   0  0  0  0  0  0  0  0  0  0  0  0
   56.4660   26.3590   46.1620 C   0  0  0  0  0  0  0  0  0  0  0  0
   55.5430   27.0660   45.6730 O   0  0  0  0  0  0  0  0  0  0  0  0
   56.1490   24.9560   46.5900 C   0  0  0  0  0  0  0  0  0  0  0  0
   54.8750   24.5590   46.0040 N   0  0  0  0  0  0  0  0  0  0  0  0
   54.6430   23.4240   45.1580 C   0  0  0  0  0  0  0  0  0  0  0  0
   53.4750   22.9600   45.0860 O   0  0  0  0  0  0  0  0  0  0  0  0
   55.7120   22.7390   44.4030 C   0  0  0  0  0  0  0  0  0  0  0  0
   57.0080   22.4810   44.8140 C   0  0  0  0  0  0  0  0  0  0  0  0
   57.6190   21.8500   43.7520 C   0  0  0  0  0  0  0  0  0  0  0  0
   56.6680   21.7680   42.7570 C   0  0  0  0  0  0  0  0  0  0  0  0
   55.5470   22.3100   43.1720 O   0  0  0  0  0  0  0  0  0  0  0  0
   58.3020   30.2520   44.3800 N   0  0  0  0  0  0  0  0  0  0  0  0
   58.4000   32.9990   46.3370 O   0  0  0  0  0  0  0  0  0  0  0  0
   59.0094   34.4310   48.4145 H   0  0  0  0  0  0  0  0  0  0  0  0
   60.4063   35.1010   47.5056 H   0  0  0  0  0  0  0  0  0  0  0  0
   58.8344   35.9704   47.5056 H   0  0  0  0  0  0  0  0  0  0  0  0
   59.3513   35.6300   44.6432 H   0  0  0  0  0  0  0  0  0  0  0  0
   58.3999   33.6032   43.1221 H   0  0  0  0  0  0  0  0  0  0  0  0
   56.7769   27.3607   43.7200 H   0  0  0  0  0  0  0  0  0  0  0  0
   58.3233   27.8884   42.9677 H   0  0  0  0  0  0  0  0  0  0  0  0
   57.8645   26.5529   48.3019 H   0  0  0  0  0  0  0  0  0  0  0  0
   59.3536   26.0702   47.4053 H   0  0  0  0  0  0  0  0  0  0  0  0
   60.9139   27.3117   48.7678 H   0  0  0  0  0  0  0  0  0  0  0  0
   61.9382   29.5177   49.2859 H   0  0  0  0  0  0  0  0  0  0  0  0
   60.7562   32.2797   50.7549 H   0  0  0  0  0  0  0  0  0  0  0  0
   60.9257   33.7743   49.7732 H   0  0  0  0  0  0  0  0  0  0  0  0
   59.3730   32.8711   49.7732 H   0  0  0  0  0  0  0  0  0  0  0  0
   62.8057   32.9186   48.4570 H   0  0  0  0  0  0  0  0  0  0  0  0
   62.4047   31.7102   47.1899 H   0  0  0  0  0  0  0  0  0  0  0  0
   61.5954   33.3139   47.1899 H   0  0  0  0  0  0  0  0  0  0  0  0
   58.5688   31.5104   47.4192 H   0  0  0  0  0  0  0  0  0  0  0  0
   57.5529   29.2992   46.9068 H   0  0  0  0  0  0  0  0  0  0  0  0
   56.9420   24.2766   46.2442 H   0  0  0  0  0  0  0  0  0  0  0  0
   56.0855   24.9069   47.6871 H   0  0  0  0  0  0  0  0  0  0  0  0
   57.4575   22.7284   45.7870 H   0  0  0  0  0  0  0  0  0  0  0  0
   58.6559   21.4854   43.7072 H   0  0  0  0  0  0  0  0  0  0  0  0
   56.8250   21.3169   41.7661 H   0  0  0  0  0  0  0  0  0  0  0  0
  1  2  1  0
  2  3  2  0
  3  4  1  0
  4  5  2  0
  5  6  1  0
  6  7  1  0
  7  8  2  0
  8  9  1  0
  9 10  1  0
 10 11  1  0
 11 12  2  0
 11 13  1  0
 13 14  1  0
 14 15  1  0
 15 16  2  0
 16 17  1  0
 17 18  2  0
 18 19  1  0
 19 20  1  0
 19 21  1  0
 18 22  1  0
 22 23  2  0
 13 24  1  0
 24 25  2  0
 24 26  1  0
 26 27  1  0
 27 28  1  0
 28 29  2  0
 28 30  1  0
 30 31  2  0
 31 32  1  0
 32 33  2  0
 33 34  1  0
  9 35  1  0
  5 36  1  0
 36  2  1  0
 35  6  2  0
 23 15  1  0
 34 30  1  0
  1 37  1  0
  1 38  1  0
  1 39  1  0
  3 40  1  0
  4 41  1  0
 10 42  1  0
 10 43  1  0
 14 44  1  0
 14 45  1  0
 16 46  1  0
 17 47  1  0
 20 48  1  0
 20 49  1  0
 20 50  1  0
 21 51  1  0
 21 52  1  0
 21 53  1  0
 22 54  1  0
 23 55  1  0
 26 56  1  0
 26 57  1  0
 31 58  1  0
 32 59  1  0
 33 60  1  0
M  CHG  1  27  -1
M  END
>  <UniqueID>  (11) 
10

>  <SMILES>  (11) 
Cc1ccc(-c2nnn(CC(=O)N(Cc3ccc(N(C)C)cc3)C(=O)C[N-]C(=O)c3ccco3)n2)o1

>  <Energy>  (11) 
154.42869909697856

>  <Genealogy>  (11) 
Cc1ccc(-c2nnn(CC(=O)N(Cc3ccc(N(C)C)cc3)C(=O)C[N-]C(=O)c3ccco3)n2)o1 (protonated)
Cc1ccc(-c2nnn(CC(=O)N(Cc3ccc(N(C)C)cc3)C(=O)C[N-]C(=O)c3ccco3)n2)o1 (3D coordinates assigned)
Cc1ccc(-c2nnn(CC(=O)N(Cc3ccc(N(C)C)cc3)C(=O)C[N-]C(=O)c3ccco3)n2)o1 (optimized conformer: 154.42869909697856 kcal/mol)

>  <smiles>  (11) 
Cc1ccc(-c2nnn(CC(=O)N(Cc3ccc(N(C)C)cc3)C(=O)CNC(=O)c3ccco3)n2)o1

>  <score_type>  (11) 
oracle

>  <origin>  (11) 
adg

>  <m_score__min__energy>  (11) 
-11.699999999999999

>  <m_primary>  (11) 
energy

$$$$
11:0
     RDKit          3D

 46 48  0  0  0  0  0  0  0  0999 V2000
   54.5800   26.3200   46.0210 N   0  0  0  0  0  0  0  0  0  0  0  0
   55.7020   25.0070   45.9820 S   0  0  0  0  0  0  0  0  0  0  0  0
   55.5110   24.2240   44.7130 O   0  0  0  0  0  0  0  0  0  0  0  0
   55.4510   24.0980   47.1520 O   0  0  0  0  0  0  0  0  0  0  0  0
   57.3450   25.6360   46.0530 C   0  0  0  0  0  0  0  0  0  0  0  0
   58.4370   24.7600   46.0070 C   0  0  0  0  0  0  0  0  0  0  0  0
   59.7400   25.2570   46.0770 C   0  0  0  0  0  0  0  0  0  0  0  0
   59.9610   26.6310   46.1960 C   0  0  0  0  0  0  0  0  0  0  0  0
   58.8760   27.5240   46.2440 C   0  0  0  0  0  0  0  0  0  0  0  0
   59.1050   28.9830   46.3850 C   0  0  0  0  0  0  0  0  0  0  0  0
   60.3400   29.4470   46.8690 C   0  0  0  0  0  0  0  0  0  0  0  0
   60.5810   30.8160   47.0030 C   0  0  0  0  0  0  0  0  0  0  0  0
   59.5910   31.7470   46.6570 C   0  0  0  0  0  0  0  0  0  0  0  0
   59.8580   33.2210   46.8150 C   0  0  0  0  0  0  0  0  0  0  0  0
   61.1260   33.4430   47.5430 N   0  0  0  0  0  0  0  0  0  0  0  0
   60.9360   34.3440   48.7100 C   0  0  0  0  0  0  0  0  0  0  0  0
   62.0260   34.2080   49.7430 C   0  0  0  0  0  0  0  0  0  0  0  0
   63.1120   33.4500   49.5280 C   0  0  0  0  0  0  0  0  0  0  0  0
   64.0840   33.7110   48.3970 C   0  0  0  0  0  0  0  0  0  0  0  0
   63.5850   33.3340   46.9780 C   0  0  0  0  0  0  0  0  0  0  0  0
   62.1900   33.8690   46.5990 C   0  0  0  0  0  0  0  0  0  0  0  0
   58.3530   31.2890   46.1820 C   0  0  0  0  0  0  0  0  0  0  0  0
   58.1030   29.9160   46.0510 C   0  0  0  0  0  0  0  0  0  0  0  0
   56.8530   29.4800   45.6080 O   0  0  0  0  0  0  0  0  0  0  0  0
   57.5670   27.0140   46.1800 C   0  0  0  0  0  0  0  0  0  0  0  0
   55.1420   27.1990   46.0960 H   0  0  0  0  0  0  0  0  0  0  0  0
   58.2675   23.6770   45.9154 H   0  0  0  0  0  0  0  0  0  0  0  0
   60.5942   24.5650   46.0383 H   0  0  0  0  0  0  0  0  0  0  0  0
   60.9896   27.0166   46.2525 H   0  0  0  0  0  0  0  0  0  0  0  0
   61.1235   28.7258   47.1446 H   0  0  0  0  0  0  0  0  0  0  0  0
   61.5526   31.1659   47.3820 H   0  0  0  0  0  0  0  0  0  0  0  0
   59.9259   33.6852   45.8201 H   0  0  0  0  0  0  0  0  0  0  0  0
   59.0349   33.6720   47.3887 H   0  0  0  0  0  0  0  0  0  0  0  0
   60.9208   35.3838   48.3513 H   0  0  0  0  0  0  0  0  0  0  0  0
   59.9885   34.0622   49.1924 H   0  0  0  0  0  0  0  0  0  0  0  0
   61.9282   34.7445   50.6983 H   0  0  0  0  0  0  0  0  0  0  0  0
   63.3044   32.6026   50.2024 H   0  0  0  0  0  0  0  0  0  0  0  0
   64.3213   34.7851   48.3970 H   0  0  0  0  0  0  0  0  0  0  0  0
   64.9502   33.0615   48.5915 H   0  0  0  0  0  0  0  0  0  0  0  0
   64.3083   33.7282   46.2490 H   0  0  0  0  0  0  0  0  0  0  0  0
   63.4991   32.2374   46.9705 H   0  0  0  0  0  0  0  0  0  0  0  0
   62.2280   34.9683   46.5874 H   0  0  0  0  0  0  0  0  0  0  0  0
   61.9373   33.4549   45.6117 H   0  0  0  0  0  0  0  0  0  0  0  0
   57.5715   32.0138   45.9099 H   0  0  0  0  0  0  0  0  0  0  0  0
   56.1890   29.0420   46.2340 H   0  0  0  0  0  0  0  0  0  0  0  0
   56.7104   27.7022   46.2300 H   0  0  0  0  0  0  0  0  0  0  0  0
  1  2  1  0
  2  3  2  0
  2  4  2  0
  2  5  1  0
  5  6  2  0
  6  7  1  0
  7  8  2  0
  8  9  1  0
  9 10  1  0
 10 11  2  0
 11 12  1  0
 12 13  2  0
 13 14  1  0
 14 15  1  0
 15 16  1  0
 16 17  1  0
 17 18  2  0
 18 19  1  0
 19 20  1  0
 20 21  1  0
 13 22  1  0
 22 23  2  0
 23 24  1  0
  9 25  2  0
 25  5  1  0
 23 10  1  0
 21 15  1  0
  1 26  1  0
  6 27  1  0
  7 28  1  0
  8 29  1  0
 11 30  1  0
 12 31  1  0
 14 32  1  0
 14 33  1  0
 16 34  1  0
 16 35  1  0
 17 36  1  0
 18 37  1  0
 19 38  1  0
 19 39  1  0
 20 40  1  0
 20 41  1  0
 21 42  1  0
 21 43  1  0
 22 44  1  0
 24 45  1  0
 25 46  1  0
M  CHG  1   1  -1
M  END
>  <UniqueID>  (12) 
11

>  <SMILES>  (12) 
[NH-]S(=O)(=O)c1cccc(-c2ccc(CN3CC=CCCC3)cc2O)c1

>  <Energy>  (12) 
63.79639569959849

>  <Genealogy>  (12) 
[NH-]S(=O)(=O)c1cccc(-c2ccc(CN3CC=CCCC3)cc2O)c1 (protonated)
[NH-]S(=O)(=O)c1cccc(-c2ccc(CN3CC=CCCC3)cc2O)c1 (3D coordinates assigned)
[NH-]S(=O)(=O)c1cccc(-c2ccc(CN3CC=CCCC3)cc2O)c1 (nonaromatic ring conformer: 63.79639569959849 kcal/mol)

>  <smiles>  (12) 
NS(=O)(=O)c1cccc(-c2ccc(CN3CC=CCCC3)cc2O)c1

>  <score_type>  (12) 
oracle

>  <origin>  (12) 
adg

>  <m_score__min__energy>  (12) 
-9.5999999999999996

>  <m_primary>  (12) 
energy

$$$$
12:0
     RDKit          3D

 40 42  0  0  0  0  0  0  0  0999 V2000
   61.4570   32.4870   46.9060 C   0  0  0  0  0  0  0  0  0  0  0  0
   61.1210   31.5740   48.0000 N   0  0  0  0  0  0  0  0  0  0  0  0
   60.4550   30.4020   47.9250 C   0  0  0  0  0  0  0  0  0  0  0  0
   59.8810   29.8000   46.7020 C   0  0  0  0  0  0  0  0  0  0  0  0
   60.5800   28.7900   46.0220 C   0  0  0  0  0  0  0  0  0  0  0  0
   60.0480   28.2270   44.8590 C   0  0  0  0  0  0  0  0  0  0  0  0
   58.8130   28.6600   44.3710 C   0  0  0  0  0  0  0  0  0  0  0  0
   58.0940   29.6490   45.0540 C   0  0  0  0  0  0  0  0  0  0  0  0
   56.5430   30.1910   44.4190 S   0  0  0  0  0  0  0  0  0  0  0  0
   56.5670   30.0810   42.9210 O   0  0  0  0  0  0  0  0  0  0  0  0
   55.4170   29.3430   44.9410 O   0  0  0  0  0  0  0  0  0  0  0  0
   56.2800   31.8470   44.8620 N   0  0  0  0  0  0  0  0  0  0  0  0
   57.3070   32.7920   45.1910 C   0  0  0  0  0  0  0  0  0  0  0  0
   58.2220   33.2680   44.2330 C   0  0  0  0  0  0  0  0  0  0  0  0
   59.2010   34.1980   44.5960 C   0  0  0  0  0  0  0  0  0  0  0  0
   59.2780   34.6560   45.9150 C   0  0  0  0  0  0  0  0  0  0  0  0
   58.3790   34.1810   46.8720 C   0  0  0  0  0  0  0  0  0  0  0  0
   57.3980   33.2510   46.5120 C   0  0  0  0  0  0  0  0  0  0  0  0
   58.6250   30.2090   46.2240 C   0  0  0  0  0  0  0  0  0  0  0  0
   60.3970   29.8530   49.1890 C   0  0  0  0  0  0  0  0  0  0  0  0
   60.9940   30.6840   50.0650 N   0  0  0  0  0  0  0  0  0  0  0  0
   61.4170   31.7200   49.3110 C   0  0  0  0  0  0  0  0  0  0  0  0
   62.2690   33.1160   50.0160 S   0  0  0  0  0  4  0  0  0  0  0  0
   63.6920   33.1060   49.3140 C   0  0  0  0  0  0  0  0  0  0  0  0
   64.8180   33.0990   48.7570 N   0  0  0  0  0  0  0  0  0  0  0  0
   61.8088   33.4430   47.3212 H   0  0  0  0  0  0  0  0  0  0  0  0
   62.2502   32.0418   46.2874 H   0  0  0  0  0  0  0  0  0  0  0  0
   60.5644   32.6622   46.2874 H   0  0  0  0  0  0  0  0  0  0  0  0
   61.5498   28.4407   46.4061 H   0  0  0  0  0  0  0  0  0  0  0  0
   60.6032   27.4408   44.3265 H   0  0  0  0  0  0  0  0  0  0  0  0
   58.4041   28.2232   43.4480 H   0  0  0  0  0  0  0  0  0  0  0  0
   58.1666   32.9071   43.1954 H   0  0  0  0  0  0  0  0  0  0  0  0
   59.9115   34.5698   43.8431 H   0  0  0  0  0  0  0  0  0  0  0  0
   60.0465   35.3902   46.1985 H   0  0  0  0  0  0  0  0  0  0  0  0
   58.4423   34.5386   47.9103 H   0  0  0  0  0  0  0  0  0  0  0  0
   56.6939   32.8778   47.2702 H   0  0  0  0  0  0  0  0  0  0  0  0
   58.0545   30.9737   46.7715 H   0  0  0  0  0  0  0  0  0  0  0  0
   59.9353   28.8872   49.4422 H   0  0  0  0  0  0  0  0  0  0  0  0
   62.4820   32.7900   51.3520 H   0  0  0  0  0  0  0  0  0  0  0  0
   64.9090   32.7720   47.7840 H   0  0  0  0  0  0  0  0  0  0  0  0
  1  2  1  0
  2  3  1  0
  3  4  1  0
  4  5  2  0
  5  6  1  0
  6  7  2  0
  7  8  1  0
  8  9  1  0
  9 10  2  0
  9 11  2  0
  9 12  1  0
 12 13  1  0
 13 14  2  0
 14 15  1  0
 15 16  2  0
 16 17  1  0
 17 18  2  0
  8 19  2  0
  3 20  2  0
 20 21  1  0
 21 22  2  0
 22 23  1  0
 23 24  2  0
 24 25  2  0
 22  2  1  0
 19  4  1  0
 18 13  1  0
  1 26  1  0
  1 27  1  0
  1 28  1  0
  5 29  1  0
  6 30  1  0
  7 31  1  0
 14 32  1  0
 15 33  1  0
 16 34  1  0
 17 35  1  0
 18 36  1  0
 19 37  1  0
 20 38  1  0
 23 39  1  1
 25 40  1  0
M  CHG  1  12  -1
M  END
>  <UniqueID>  (13) 
12

>  <SMILES>  (13) 
Cn1c(-c2cccc(S(=O)(=O)[N-]c3ccccc3)c2)cnc1[SH]=C=N

>  <Energy>  (13) 
77.36805441071792

>  <Genealogy>  (13) 
Cn1c(-c2cccc(S(=O)(=O)[N-]c3ccccc3)c2)cnc1[SH]=C=N (protonated)
Cn1c(-c2cccc(S(=O)(=O)[N-]c3ccccc3)c2)cnc1[SH]=C=N (3D coordinates assigned)
Cn1c(-c2cccc(S(=O)(=O)[N-]c3ccccc3)c2)cnc1[SH]=C=N (optimized conformer: 77.36805441071792 kcal/mol)

>  <smiles>  (13) 
Cn1c(-c2cccc(S(=O)(=O)Nc3ccccc3)c2)cnc1[SH]=C=N

>  <score_type>  (13) 
oracle

>  <origin>  (13) 
adg

>  <m_score__min__energy>  (13) 
-9.7599999999999998

>  <m_primary>  (13) 
energy

$$$$
13:0
     RDKit          3D

 38 40  0  0  0  0  0  0  0  0999 V2000
   57.3940   26.2220   47.2190 C   0  0  0  0  0  0  0  0  0  0  0  0
   57.4480   25.9320   45.9100 C   0  0  0  0  0  0  0  0  0  0  0  0
   56.9280   24.8010   45.2560 C   0  0  0  0  0  0  0  0  0  0  0  0
   56.3680   23.6760   45.7410 C   0  0  0  0  0  0  0  0  0  0  0  0
   54.9280   23.3560   45.7160 C   0  0  0  0  0  0  0  0  0  0  0  0
   53.9590   24.3740   45.6240 C   0  0  0  0  0  0  0  0  0  0  0  0
   54.3110   25.7240   45.6130 O   0  0  0  0  0  0  0  0  0  0  0  0
   52.6430   24.0430   45.5560 N   0  0  0  0  0  0  0  0  0  0  0  0
   52.2380   22.7480   45.5610 C   0  0  0  0  0  0  0  0  0  0  0  0
   51.0130   22.4720   45.5010 O   0  0  0  0  0  0  0  0  0  0  0  0
   53.1560   21.7500   45.6270 N   0  0  0  0  0  0  0  0  0  0  0  0
   54.4830   22.0210   45.6960 C   0  0  0  0  0  0  0  0  0  0  0  0
   55.3080   21.0690   45.7370 O   0  0  0  0  0  0  0  0  0  0  0  0
   57.1030   25.0240   43.8980 C   0  0  0  0  0  0  0  0  0  0  0  0
   57.7520   26.2330   43.7710 C   0  0  0  0  0  0  0  0  0  0  0  0
   58.1260   26.8770   42.4710 C   0  0  0  0  0  0  0  0  0  0  0  0
   57.9710   26.7770   44.9870 N   0  0  0  0  0  0  0  0  0  0  0  0
   58.5410   28.0760   45.2230 C   0  0  0  0  0  0  0  0  0  0  0  0
   59.9220   28.1670   45.4540 C   0  0  0  0  0  0  0  0  0  0  0  0
   60.5150   29.4000   45.7250 C   0  0  0  0  0  0  0  0  0  0  0  0
   59.7350   30.5530   45.7720 C   0  0  0  0  0  0  0  0  0  0  0  0
   58.3580   30.4790   45.5440 C   0  0  0  0  0  0  0  0  0  0  0  0
   57.7390   29.2460   45.2620 C   0  0  0  0  0  0  0  0  0  0  0  0
   56.2740   29.2140   45.0050 C   0  0  0  0  0  0  0  0  0  0  0  0
   55.6920   30.2280   44.5370 O   0  0  0  0  0  0  0  0  0  0  0  0
   55.5220   28.0730   45.2540 O   0  0  0  0  0  0  0  0  0  0  0  0
   57.8473   27.1507   47.5957 H   0  0  0  0  0  0  0  0  0  0  0  0
   56.8964   25.5310   47.9154 H   0  0  0  0  0  0  0  0  0  0  0  0
   57.0411   22.9332   46.1939 H   0  0  0  0  0  0  0  0  0  0  0  0
   54.1300   26.3440   46.3940 H   0  0  0  0  0  0  0  0  0  0  0  0
   56.7846   24.3622   43.0791 H   0  0  0  0  0  0  0  0  0  0  0  0
   58.6695   27.8128   42.6684 H   0  0  0  0  0  0  0  0  0  0  0  0
   58.7682   26.1945   41.8951 H   0  0  0  0  0  0  0  0  0  0  0  0
   57.2149   27.0966   41.8951 H   0  0  0  0  0  0  0  0  0  0  0  0
   60.5418   27.2588   45.4211 H   0  0  0  0  0  0  0  0  0  0  0  0
   61.5990   29.4619   45.9017 H   0  0  0  0  0  0  0  0  0  0  0  0
   60.2038   31.5241   45.9891 H   0  0  0  0  0  0  0  0  0  0  0  0
   57.7504   31.3951   45.5853 H   0  0  0  0  0  0  0  0  0  0  0  0
  1  2  2  0
  2  3  1  0
  3  4  2  3
  4  5  1  0
  5  6  2  0
  6  7  1  0
  6  8  1  0
  8  9  1  0
  9 10  2  0
  9 11  1  0
 11 12  1  0
 12 13  2  0
  3 14  1  0
 14 15  2  0
 15 16  1  0
 15 17  1  0
 17 18  1  0
 18 19  2  0
 19 20  1  0
 20 21  2  0
 21 22  1  0
 22 23  2  0
 23 24  1  0
 24 25  2  0
 24 26  1  0
 17  2  1  0
 23 18  1  0
 12  5  1  0
  1 27  1  0
  1 28  1  0
  4 29  1  0
  7 30  1  0
 14 31  1  0
 16 32  1  0
 16 33  1  0
 16 34  1  0
 19 35  1  0
 20 36  1  0
 21 37  1  0
 22 38  1  0
M  CHG  3   8  -1  11  -1  26  -1
M  END
>  <UniqueID>  (14) 
13

>  <SMILES>  (14) 
C=c1c(=Cc2c(O)[n-]c(=O)[n-]c2=O)cc(C)n1-c1ccccc1C(=O)[O-]

>  <Energy>  (14) 
93.08484446646315

>  <Genealogy>  (14) 
C=c1c(=Cc2c(O)[n-]c(=O)[n-]c2=O)cc(C)n1-c1ccccc1C(=O)[O-] (protonated)
C=c1c(=Cc2c(O)[n-]c(=O)[n-]c2=O)cc(C)n1-c1ccccc1C(=O)[O-] (3D coordinates assigned)
C=c1c(=Cc2c(O)[n-]c(=O)[n-]c2=O)cc(C)n1-c1ccccc1C(=O)[O-] (optimized conformer: 93.08484446646315 kcal/mol)

>  <smiles>  (14) 
C=c1c(=Cc2c(O)[nH]c(=O)[nH]c2=O)cc(C)n1-c1ccccc1C(=O)O

>  <score_type>  (14) 
oracle

>  <origin>  (14) 
adg

>  <m_score__min__energy>  (14) 
-15.35

>  <m_primary>  (14) 
energy

$$$$
14:0
     RDKit          3D

 38 39  0  0  0  0  0  0  0  0999 V2000
   56.6360   22.1840   42.7380 C   0  0  0  0  0  0  0  0  0  0  0  0
   56.8500   22.6710   43.9570 C   0  0  0  0  0  0  0  0  0  0  0  0
   56.7850   21.9060   45.1570 N   0  0  0  0  0  0  0  0  0  0  0  0
   57.1000   22.8330   46.1940 C   0  0  0  0  0  0  0  0  0  0  0  0
   57.1700   22.5120   47.4100 O   0  0  0  0  0  0  0  0  0  0  0  0
   57.3400   24.1570   45.7120 N   0  0  0  0  0  0  0  0  0  0  0  0
   57.8950   25.2850   46.4580 C   0  0  0  0  0  0  0  0  0  0  0  0
   57.7100   26.6070   45.7010 C   0  0  0  0  0  0  0  0  0  0  0  0
   56.2850   27.0950   45.7440 C   0  0  0  0  0  0  0  0  0  0  0  0
   55.4030   26.3450   46.2410 O   0  0  0  0  0  0  0  0  0  0  0  0
   55.8910   28.3840   45.2530 N   0  0  0  0  0  0  0  0  0  0  0  0
   56.5580   29.1550   44.2090 C   0  0  0  0  0  0  0  0  0  0  0  0
   57.2480   30.3620   44.7850 C   0  0  0  0  0  0  0  0  0  0  0  0
   57.1560   31.6040   44.1380 C   0  0  0  0  0  0  0  0  0  0  0  0
   57.7850   32.7300   44.6770 C   0  0  0  0  0  0  0  0  0  0  0  0
   58.5280   32.6260   45.8680 C   0  0  0  0  0  0  0  0  0  0  0  0
   59.1720   33.7270   46.4510 O   0  0  0  0  0  0  0  0  0  0  0  0
   59.4150   34.9620   45.7850 C   0  0  0  0  0  0  0  0  0  0  0  0
   58.6340   31.3820   46.5000 C   0  0  0  0  0  0  0  0  0  0  0  0
   58.0040   30.2560   45.9620 C   0  0  0  0  0  0  0  0  0  0  0  0
   57.1990   24.0450   44.3000 C   0  0  0  0  0  0  0  0  0  0  0  0
   57.3720   24.9940   43.4890 O   0  0  0  0  0  0  0  0  0  0  0  0
   56.7061   22.8450   41.8615 H   0  0  0  0  0  0  0  0  0  0  0  0
   56.3889   21.1202   42.6063 H   0  0  0  0  0  0  0  0  0  0  0  0
   56.5800   20.8860   45.2570 H   0  0  0  0  0  0  0  0  0  0  0  0
   57.3853   25.3557   47.4302 H   0  0  0  0  0  0  0  0  0  0  0  0
   58.9731   25.1126   46.5920 H   0  0  0  0  0  0  0  0  0  0  0  0
   58.3591   27.3694   46.1564 H   0  0  0  0  0  0  0  0  0  0  0  0
   57.9745   26.4320   44.6477 H   0  0  0  0  0  0  0  0  0  0  0  0
   57.3042   28.5173   43.7125 H   0  0  0  0  0  0  0  0  0  0  0  0
   55.8004   29.4961   43.4881 H   0  0  0  0  0  0  0  0  0  0  0  0
   56.5857   31.6919   43.2015 H   0  0  0  0  0  0  0  0  0  0  0  0
   57.6990   33.7015   44.1682 H   0  0  0  0  0  0  0  0  0  0  0  0
   59.5712   35.7559   46.5302 H   0  0  0  0  0  0  0  0  0  0  0  0
   60.3120   34.8686   45.1552 H   0  0  0  0  0  0  0  0  0  0  0  0
   58.5495   35.2154   45.1552 H   0  0  0  0  0  0  0  0  0  0  0  0
   59.2178   31.2894   47.4277 H   0  0  0  0  0  0  0  0  0  0  0  0
   58.1015   29.2821   46.4640 H   0  0  0  0  0  0  0  0  0  0  0  0
  1  2  2  0
  2  3  1  0
  3  4  1  0
  4  5  2  0
  4  6  1  0
  6  7  1  0
  7  8  1  0
  8  9  1  0
  9 10  2  0
  9 11  1  0
 11 12  1  0
 12 13  1  0
 13 14  2  0
 14 15  1  0
 15 16  2  0
 16 17  1  0
 17 18  1  0
 16 19  1  0
 19 20  2  0
  6 21  1  0
 21 22  2  0
 21  2  1  0
 20 13  1  0
  1 23  1  0
  1 24  1  0
  3 25  1  0
  7 26  1  0
  7 27  1  0
  8 28  1  0
  8 29  1  0
 12 30  1  0
 12 31  1  0
 14 32  1  0
 15 33  1  0
 18 34  1  0
 18 35  1  0
 18 36  1  0
 19 37  1  0
 20 38  1  0
M  CHG  1  11  -1
M  END
>  <UniqueID>  (15) 
14

>  <SMILES>  (15) 
C=C1NC(=O)N(CCC(=O)[N-]Cc2ccc(OC)cc2)C1=O

>  <Energy>  (15) 
57.94389635463293

>  <Genealogy>  (15) 
C=C1NC(=O)N(CCC(=O)[N-]Cc2ccc(OC)cc2)C1=O (protonated)
C=C1NC(=O)N(CCC(=O)[N-]Cc2ccc(OC)cc2)C1=O (3D coordinates assigned)
C=C1NC(=O)N(CCC(=O)[N-]Cc2ccc(OC)cc2)C1=O (nonaromatic ring conformer: 57.94389635463293 kcal/mol)

>  <smiles>  (15) 
C=C1NC(=O)N(CCC(=O)NCc2ccc(OC)cc2)C1=O

>  <score_type>  (15) 
oracle

>  <origin>  (15) 
adg

>  <m_score__min__energy>  (15) 
-9.1799999999999997

>  <m_primary>  (15) 
energy

$$$$
15:0
     RDKit          3D

 60 62  0  0  0  0  0  0  0  0999 V2000
   60.6820   27.5330   49.0870 C   0  0  0  0  0  0  0  0  0  0  0  0
   60.0700   27.6550   47.9110 C   0  0  0  0  0  0  0  0  0  0  0  0
   59.1030   28.7370   47.6300 C   0  0  0  0  0  0  0  0  0  0  0  0
   59.3100   29.8980   48.0740 O   0  0  0  0  0  0  0  0  0  0  0  0
   57.8830   28.4790   46.9220 N   0  0  0  0  0  0  0  0  0  0  0  0
   57.3240   29.2800   45.8720 C   0  0  0  0  0  0  0  0  0  0  0  0
   57.8870   30.5170   45.5160 C   0  0  0  0  0  0  0  0  0  0  0  0
   57.3150   31.2910   44.4980 C   0  0  0  0  0  0  0  0  0  0  0  0
   58.0390   32.8350   44.0550 S   0  0  0  0  0  0  0  0  0  0  0  0
   57.0190   33.9330   44.1760 O   0  0  0  0  0  0  0  0  0  0  0  0
   58.4990   32.7710   42.6260 O   0  0  0  0  0  0  0  0  0  0  0  0
   59.4000   33.1860   45.0750 N   0  0  0  0  0  0  0  0  0  0  0  0
   59.1060   34.3420   45.9150 C   0  0  0  0  0  0  0  0  0  0  0  0
   59.1080   33.9200   47.3550 C   0  0  0  0  0  0  0  0  0  0  0  0
   58.3940   32.7810   47.7580 C   0  0  0  0  0  0  0  0  0  0  0  0
   58.4080   32.3760   49.0950 C   0  0  0  0  0  0  0  0  0  0  0  0
   59.1400   33.1000   50.0440 C   0  0  0  0  0  0  0  0  0  0  0  0
   59.1560   32.5930   51.7300 S   0  0  0  0  0  0  0  0  0  0  0  0
   59.8230   33.6460   52.5690 O   0  0  0  0  0  0  0  0  0  0  0  0
   57.7500   32.4130   52.2330 O   0  0  0  0  0  0  0  0  0  0  0  0
   60.0300   31.1060   51.8880 N   0  0  0  0  0  0  0  0  0  0  0  0
   61.2610   30.8570   51.2100 C   0  0  0  0  0  0  0  0  0  0  0  0
   62.2670   30.4470   51.8520 O   0  0  0  0  0  0  0  0  0  0  0  0
   61.3440   31.0770   49.7970 N   0  0  0  0  0  0  0  0  0  0  0  0
   62.6050   30.9430   49.0530 C   0  0  0  0  0  0  0  0  0  0  0  0
   62.4670   31.5140   47.6150 C   0  0  0  0  0  0  0  0  0  0  0  0
   62.9900   32.9570   47.4620 C   0  0  0  0  0  0  0  0  0  0  0  0
   62.7910   33.7780   48.7410 C   0  0  0  0  0  0  0  0  0  0  0  0
   63.5240   33.1550   49.9480 C   0  0  0  0  0  0  0  0  0  0  0  0
   63.7500   31.6350   49.8150 C   0  0  0  0  0  0  0  0  0  0  0  0
   59.8770   34.2220   49.6400 C   0  0  0  0  0  0  0  0  0  0  0  0
   59.8630   34.6280   48.3030 C   0  0  0  0  0  0  0  0  0  0  0  0
   56.1530   30.8420   43.8570 C   0  0  0  0  0  0  0  0  0  0  0  0
   55.5710   29.6280   44.2300 C   0  0  0  0  0  0  0  0  0  0  0  0
   56.1500   28.8500   45.2360 C   0  0  0  0  0  0  0  0  0  0  0  0
   55.5580   27.6440   45.5970 O   0  0  0  0  0  0  0  0  0  0  0  0
   61.3951   26.7121   49.2534 H   0  0  0  0  0  0  0  0  0  0  0  0
   60.4746   28.2531   49.8923 H   0  0  0  0  0  0  0  0  0  0  0  0
   60.2921   26.9240   47.1196 H   0  0  0  0  0  0  0  0  0  0  0  0
   58.7832   30.8803   46.0403 H   0  0  0  0  0  0  0  0  0  0  0  0
   59.8721   35.1155   45.7574 H   0  0  0  0  0  0  0  0  0  0  0  0
   58.1187   34.7487   45.6509 H   0  0  0  0  0  0  0  0  0  0  0  0
   57.8205   32.2042   47.0175 H   0  0  0  0  0  0  0  0  0  0  0  0
   57.8417   31.4848   49.4034 H   0  0  0  0  0  0  0  0  0  0  0  0
   60.4640   31.3360   49.2960 H   0  0  0  0  0  0  0  0  0  0  0  0
   62.8440   29.8729   48.9644 H   0  0  0  0  0  0  0  0  0  0  0  0
   63.0329   30.8661   46.9294 H   0  0  0  0  0  0  0  0  0  0  0  0
   61.3920   31.5380   47.3831 H   0  0  0  0  0  0  0  0  0  0  0  0
   64.0637   32.9225   47.2255 H   0  0  0  0  0  0  0  0  0  0  0  0
   62.4205   33.4413   46.6551 H   0  0  0  0  0  0  0  0  0  0  0  0
   63.1796   34.7936   48.5751 H   0  0  0  0  0  0  0  0  0  0  0  0
   61.7151   33.7959   48.9692 H   0  0  0  0  0  0  0  0  0  0  0  0
   64.5036   33.6447   50.0507 H   0  0  0  0  0  0  0  0  0  0  0  0
   62.8845   33.3104   50.8294 H   0  0  0  0  0  0  0  0  0  0  0  0
   64.6916   31.4626   49.2731 H   0  0  0  0  0  0  0  0  0  0  0  0
   63.7884   31.2086   50.8283 H   0  0  0  0  0  0  0  0  0  0  0  0
   60.4681   34.7845   50.3777 H   0  0  0  0  0  0  0  0  0  0  0  0
   60.4467   35.5070   47.9919 H   0  0  0  0  0  0  0  0  0  0  0  0
   55.6980   31.4465   43.0585 H   0  0  0  0  0  0  0  0  0  0  0  0
   54.6538   29.2834   43.7300 H   0  0  0  0  0  0  0  0  0  0  0  0
  1  2  2  0
  2  3  1  0
  3  4  2  0
  3  5  1  0
  5  6  1  0
  6  7  2  0
  7  8  1  0
  8  9  1  0
  9 10  2  0
  9 11  2  0
  9 12  1  0
 12 13  1  0
 13 14  1  0
 14 15  2  0
 15 16  1  0
 16 17  2  0
 17 18  1  0
 18 19  2  0
 18 20  2  0
 18 21  1  0
 21 22  1  0
 22 23  2  0
 22 24  1  0
 24 25  1  0
 25 26  1  0
 26 27  1  0
 27 28  1  0
 28 29  1  0
 29 30  1  0
 17 31  1  0
 31 32  2  0
  8 33  2  0
 33 34  1  0
 34 35  2  0
 35 36  1  0
 35  6  1  0
 32 14  1  0
 30 25  1  0
  1 37  1  0
  1 38  1  0
  2 39  1  0
  7 40  1  0
 13 41  1  0
 13 42  1  0
 15 43  1  0
 16 44  1  0
 24 45  1  0
 25 46  1  0
 26 47  1  0
 26 48  1  0
 27 49  1  0
 27 50  1  0
 28 51  1  0
 28 52  1  0
 29 53  1  0
 29 54  1  0
 30 55  1  0
 30 56  1  0
 31 57  1  0
 32 58  1  0
 33 59  1  0
 34 60  1  0
M  CHG  4   5  -1  12  -1  21  -1  36  -1
M  END
>  <UniqueID>  (16) 
15

>  <SMILES>  (16) 
C=CC(=O)[N-]c1cc(S(=O)(=O)[N-]Cc2ccc(S(=O)(=O)[N-]C(=O)NC3CCCCC3)cc2)ccc1[O-]

>  <Energy>  (16) 
64.52160752282737

>  <Genealogy>  (16) 
C=CC(=O)[N-]c1cc(S(=O)(=O)[N-]Cc2ccc(S(=O)(=O)[N-]C(=O)NC3CCCCC3)cc2)ccc1[O-] (protonated)
C=CC(=O)[N-]c1cc(S(=O)(=O)[N-]Cc2ccc(S(=O)(=O)[N-]C(=O)NC3CCCCC3)cc2)ccc1[O-] (3D coordinates assigned)
C=CC(=O)[N-]c1cc(S(=O)(=O)[N-]Cc2ccc(S(=O)(=O)[N-]C(=O)NC3CCCCC3)cc2)ccc1[O-] (nonaromatic ring conformer: 64.52160752282737 kcal/mol)

>  <smiles>  (16) 
C=CC(=O)Nc1cc(S(=O)(=O)NCc2ccc(S(=O)(=O)NC(=O)NC3CCCCC3)cc2)ccc1O

>  <score_type>  (16) 
oracle

>  <origin>  (16) 
adg

>  <m_score__min__energy>  (16) 
-18.07

>  <m_primary>  (16) 
energy

$$$$
16:0
     RDKit          3D

 40 42  0  0  0  0  0  0  0  0999 V2000
   57.0650   33.2620   45.6220 C   0  0  0  0  0  0  0  0  0  0  0  0
   57.7840   31.7280   45.0740 S   0  0  0  0  0  0  0  0  0  0  0  0
   58.2380   31.8410   43.6470 O   0  0  0  0  0  0  0  0  0  0  0  0
   56.7410   30.6500   45.1660 O   0  0  0  0  0  0  0  0  0  0  0  0
   59.1200   31.2990   46.0920 N   0  0  0  0  0  0  0  0  0  0  0  0
   59.0300   30.8650   47.4560 C   0  0  0  0  0  0  0  0  0  0  0  0
   58.8450   31.8300   48.4530 C   0  0  0  0  0  0  0  0  0  0  0  0
   58.7580   31.4560   49.7970 C   0  0  0  0  0  0  0  0  0  0  0  0
   58.8670   30.1070   50.1680 C   0  0  0  0  0  0  0  0  0  0  0  0
   58.7700   29.7150   51.5940 C   0  0  0  0  0  0  0  0  0  0  0  0
   59.4480   28.7380   52.0100 O   0  0  0  0  0  0  0  0  0  0  0  0
   57.9720   30.4480   52.5390 N   0  0  0  0  0  0  0  0  0  0  0  0
   56.6710   30.4880   52.5730 C   0  0  0  0  0  0  0  0  0  0  0  0
   55.9980   29.9570   53.6780 C   0  0  0  0  0  0  0  0  0  0  0  0
   54.6020   29.9880   53.7130 C   0  0  0  0  0  0  0  0  0  0  0  0
   53.8850   30.5490   52.6480 C   0  0  0  0  0  0  0  0  0  0  0  0
   52.3820   30.5580   52.6540 C   0  0  0  0  0  0  0  0  0  0  0  0
   51.8610   30.8460   51.2800 C   0  0  0  0  0  0  0  0  0  0  0  0
   51.8600   29.7550   49.9950 S   0  0  0  0  0  0  0  0  0  0  0  0
   51.0590   30.8280   48.9790 C   0  0  0  0  0  0  0  0  0  0  0  0
   50.7490   30.5770   47.7860 O   0  0  0  0  0  0  0  0  0  0  0  0
   50.7690   32.0000   49.5820 N   0  0  0  0  0  0  0  0  0  0  0  0
   51.2110   32.0080   50.8670 C   0  0  0  0  0  0  0  0  0  0  0  0
   51.0170   33.1020   51.6990 O   0  0  0  0  0  0  0  0  0  0  0  0
   54.5960   31.0500   51.5480 C   0  0  0  0  0  0  0  0  0  0  0  0
   55.9540   31.0070   51.5360 N   0  0  0  0  0  0  0  0  0  0  0  0
   59.0290   29.1350   49.1650 C   0  0  0  0  0  0  0  0  0  0  0  0
   59.1160   29.5100   47.8210 C   0  0  0  0  0  0  0  0  0  0  0  0
   57.0524   33.2889   46.7216 H   0  0  0  0  0  0  0  0  0  0  0  0
   57.6625   34.1036   45.2415 H   0  0  0  0  0  0  0  0  0  0  0  0
   56.0360   33.3412   45.2415 H   0  0  0  0  0  0  0  0  0  0  0  0
   58.7674   32.8918   48.1764 H   0  0  0  0  0  0  0  0  0  0  0  0
   58.6031   32.2242   50.5690 H   0  0  0  0  0  0  0  0  0  0  0  0
   56.5637   29.5183   54.5132 H   0  0  0  0  0  0  0  0  0  0  0  0
   54.0648   29.5714   54.5778 H   0  0  0  0  0  0  0  0  0  0  0  0
   52.0141   29.5751   52.9834 H   0  0  0  0  0  0  0  0  0  0  0  0
   52.0305   31.3407   53.3424 H   0  0  0  0  0  0  0  0  0  0  0  0
   54.0530   31.4788   50.6928 H   0  0  0  0  0  0  0  0  0  0  0  0
   59.0877   28.0715   49.4399 H   0  0  0  0  0  0  0  0  0  0  0  0
   59.2523   28.7416   47.0458 H   0  0  0  0  0  0  0  0  0  0  0  0
  1  2  1  0
  2  3  2  0
  2  4  2  0
  2  5  1  0
  5  6  1  0
  6  7  2  0
  7  8  1  0
  8  9  2  0
  9 10  1  0
 10 11  2  0
 10 12  1  0
 12 13  2  3
 13 14  1  0
 14 15  2  0
 15 16  1  0
 16 17  1  0
 17 18  1  0
 18 19  1  0
 19 20  1  0
 20 21  2  0
 20 22  1  0
 22 23  1  0
 23 24  1  0
 16 25  2  0
 25 26  1  0
  9 27  1  0
 27 28  2  0
 28  6  1  0
 26 13  1  0
 23 18  2  0
  1 29  1  0
  1 30  1  0
  1 31  1  0
  7 32  1  0
  8 33  1  0
 14 34  1  0
 15 35  1  0
 17 36  1  0
 17 37  1  0
 25 38  1  0
 27 39  1  0
 28 40  1  0
M  CHG  4   5  -1  22  -1  24  -1  26  -1
M  END
>  <UniqueID>  (17) 
16

>  <SMILES>  (17) 
CS(=O)(=O)[N-]c1ccc(C(=O)N=c2ccc(Cc3sc(=O)[n-]c3[O-])c[n-]2)cc1

>  <Energy>  (17) 
79.1417681189655

>  <Genealogy>  (17) 
CS(=O)(=O)[N-]c1ccc(C(=O)N=c2ccc(Cc3sc(=O)[n-]c3[O-])c[n-]2)cc1 (protonated)
CS(=O)(=O)[N-]c1ccc(C(=O)N=c2ccc(Cc3sc(=O)[n-]c3[O-])c[n-]2)cc1 (3D coordinates assigned)
CS(=O)(=O)[N-]c1ccc(C(=O)N=c2ccc(Cc3sc(=O)[n-]c3[O-])c[n-]2)cc1 (optimized conformer: 79.1417681189655 kcal/mol)

>  <smiles>  (17) 
CS(=O)(=O)Nc1ccc(C(=O)N=c2ccc(Cc3sc(=O)[nH]c3O)c[nH]2)cc1

>  <score_type>  (17) 
oracle

>  <origin>  (17) 
adg

>  <m_score__min__energy>  (17) 
-18.280000000000001

>  <m_primary>  (17) 
energy

$$$$
17:0
     RDKit          3D

 60 64  0  0  0  0  0  0  0  0999 V2000
   58.6320   27.1830   46.8190 O   0  0  0  0  0  0  0  0  0  0  0  0
   58.1310   28.2960   46.5050 C   0  0  0  0  0  0  0  0  0  0  0  0
   57.2580   28.4060   45.3730 N   0  0  0  0  0  0  0  0  0  0  0  0
   57.2130   29.4900   44.4330 C   0  0  0  0  0  0  0  0  0  0  0  0
   56.6720   29.3380   43.1440 C   0  0  0  0  0  0  0  0  0  0  0  0
   56.6470   30.4210   42.2610 C   0  0  0  0  0  0  0  0  0  0  0  0
   57.1400   31.6650   42.6610 C   0  0  0  0  0  0  0  0  0  0  0  0
   57.6410   31.8440   43.9550 C   0  0  0  0  0  0  0  0  0  0  0  0
   58.1320   33.1070   44.3180 O   0  0  0  0  0  0  0  0  0  0  0  0
   58.7800   33.4110   45.5250 C   0  0  0  0  0  0  0  0  0  0  0  0
   60.0810   33.9410   45.5570 C   0  0  0  0  0  0  0  0  0  0  0  0
   60.7020   34.2150   46.7780 C   0  0  0  0  0  0  0  0  0  0  0  0
   60.0350   33.9620   47.9890 C   0  0  0  0  0  0  0  0  0  0  0  0
   60.6790   34.2400   49.2910 C   0  0  0  0  0  0  0  0  0  0  0  0
   61.7440   34.9130   49.3250 O   0  0  0  0  0  0  0  0  0  0  0  0
   60.1510   33.7230   50.5150 N   0  0  0  0  0  0  0  0  0  0  0  0
   59.1090   32.7830   50.9770 C   0  0  0  0  0  0  0  0  0  0  0  0
   59.5170   32.7850   52.4130 C   0  0  0  0  0  0  0  0  0  0  0  0
   60.5570   33.7410   51.9320 C   0  0  0  0  0  0  0  0  0  0  0  0
   58.7480   33.3990   47.9510 C   0  0  0  0  0  0  0  0  0  0  0  0
   58.1280   33.1270   46.7280 C   0  0  0  0  0  0  0  0  0  0  0  0
   57.6810   30.7480   44.8360 C   0  0  0  0  0  0  0  0  0  0  0  0
   58.4360   29.4730   47.2670 N   0  0  0  0  0  0  0  0  0  0  0  0
   59.4720   29.5490   48.2600 C   0  0  0  0  0  0  0  0  0  0  0  0
   59.5210   28.6600   49.3440 C   0  0  0  0  0  0  0  0  0  0  0  0
   60.5330   28.7400   50.2460 N   0  0  0  0  0  0  0  0  0  0  0  0
   61.5260   29.6600   50.1360 C   0  0  0  0  0  0  0  0  0  0  0  0
   61.5440   30.5640   49.0580 C   0  0  0  0  0  0  0  0  0  0  0  0
   62.6050   31.5380   48.9200 N   0  0  0  0  0  0  0  0  0  0  0  0
   63.0780   32.0510   47.6430 C   0  0  0  0  0  0  0  0  0  0  0  0
   64.0710   33.1550   47.9770 C   0  0  0  0  0  0  0  0  0  0  0  0
   64.4540   32.9420   49.4370 C   0  0  0  0  0  0  0  0  0  0  0  0
   63.3280   32.1160   50.0440 C   0  0  0  0  0  0  0  0  0  0  0  0
   60.5020   30.4880   48.1160 C   0  0  0  0  0  0  0  0  0  0  0  0
   56.2675   28.3645   42.8299 H   0  0  0  0  0  0  0  0  0  0  0  0
   56.2378   30.2932   41.2480 H   0  0  0  0  0  0  0  0  0  0  0  0
   57.1344   32.5085   41.9550 H   0  0  0  0  0  0  0  0  0  0  0  0
   60.6134   34.1412   44.6155 H   0  0  0  0  0  0  0  0  0  0  0  0
   61.7200   34.6316   46.7917 H   0  0  0  0  0  0  0  0  0  0  0  0
   58.0907   33.1700   50.8247 H   0  0  0  0  0  0  0  0  0  0  0  0
   59.0569   31.8066   50.4730 H   0  0  0  0  0  0  0  0  0  0  0  0
   58.7793   33.1996   53.1158 H   0  0  0  0  0  0  0  0  0  0  0  0
   59.7381   31.8754   52.9906 H   0  0  0  0  0  0  0  0  0  0  0  0
   60.4598   34.7374   52.3879 H   0  0  0  0  0  0  0  0  0  0  0  0
   61.6050   33.4911   52.1538 H   0  0  0  0  0  0  0  0  0  0  0  0
   58.2244   33.1705   48.8910 H   0  0  0  0  0  0  0  0  0  0  0  0
   57.1202   32.6865   46.7124 H   0  0  0  0  0  0  0  0  0  0  0  0
   58.0836   30.8797   45.8512 H   0  0  0  0  0  0  0  0  0  0  0  0
   57.8110   30.3020   47.1390 H   0  0  0  0  0  0  0  0  0  0  0  0
   58.7381   27.8966   49.4636 H   0  0  0  0  0  0  0  0  0  0  0  0
   62.3215   29.6986   50.8948 H   0  0  0  0  0  0  0  0  0  0  0  0
   63.5722   31.2528   47.0697 H   0  0  0  0  0  0  0  0  0  0  0  0
   62.2479   32.4280   47.0276 H   0  0  0  0  0  0  0  0  0  0  0  0
   64.9595   33.0787   47.3329 H   0  0  0  0  0  0  0  0  0  0  0  0
   63.6371   34.1525   47.8139 H   0  0  0  0  0  0  0  0  0  0  0  0
   65.4083   32.3995   49.5076 H   0  0  0  0  0  0  0  0  0  0  0  0
   64.5855   33.8979   49.9651 H   0  0  0  0  0  0  0  0  0  0  0  0
   63.7388   31.3212   50.6839 H   0  0  0  0  0  0  0  0  0  0  0  0
   62.6693   32.7326   50.6732 H   0  0  0  0  0  0  0  0  0  0  0  0
   60.4957   31.1739   47.2561 H   0  0  0  0  0  0  0  0  0  0  0  0
  1  2  2  0
  2  3  1  0
  3  4  1  0
  4  5  2  0
  5  6  1  0
  6  7  2  0
  7  8  1  0
  8  9  1  0
  9 10  1  0
 10 11  2  0
 11 12  1  0
 12 13  2  0
 13 14  1  0
 14 15  2  0
 14 16  1  0
 16 17  1  0
 17 18  1  0
 18 19  1  0
 13 20  1  0
 20 21  2  0
  8 22  2  0
  2 23  1  0
 23 24  1  0
 24 25  2  0
 25 26  1  0
 26 27  2  0
 27 28  1  0
 28 29  1  0
 29 30  1  0
 30 31  1  0
 31 32  1  0
 32 33  1  0
 28 34  2  0
 22  4  1  0
 34 24  1  0
 21 10  1  0
 33 29  1  0
 19 16  1  0
  5 35  1  0
  6 36  1  0
  7 37  1  0
 11 38  1  0
 12 39  1  0
 17 40  1  0
 17 41  1  0
 18 42  1  0
 18 43  1  0
 19 44  1  0
 19 45  1  0
 20 46  1  0
 21 47  1  0
 22 48  1  0
 23 49  1  0
 25 50  1  0
 27 51  1  0
 30 52  1  0
 30 53  1  0
 31 54  1  0
 31 55  1  0
 32 56  1  0
 32 57  1  0
 33 58  1  0
 33 59  1  0
 34 60  1  0
M  CHG  1   3  -1
M  END
>  <UniqueID>  (18) 
17

>  <SMILES>  (18) 
O=C([N-]c1cccc(Oc2ccc(C(=O)N3CCC3)cc2)c1)Nc1cncc(N2CCCC2)c1

>  <Energy>  (18) 
125.73709055836292

>  <Genealogy>  (18) 
O=C([N-]c1cccc(Oc2ccc(C(=O)N3CCC3)cc2)c1)Nc1cncc(N2CCCC2)c1 (protonated)
O=C([N-]c1cccc(Oc2ccc(C(=O)N3CCC3)cc2)c1)Nc1cncc(N2CCCC2)c1 (3D coordinates assigned)
O=C([N-]c1cccc(Oc2ccc(C(=O)N3CCC3)cc2)c1)Nc1cncc(N2CCCC2)c1 (nonaromatic ring conformer: 125.73709055836292 kcal/mol)

>  <smiles>  (18) 
O=C(Nc1cccc(Oc2ccc(C(=O)N3CCC3)cc2)c1)Nc1cncc(N2CCCC2)c1

>  <score_type>  (18) 
oracle

>  <origin>  (18) 
adg

>  <m_score__min__energy>  (18) 
-11.02

>  <m_primary>  (18) 
energy

$$$$
18:0
     RDKit          3D

 33 35  0  0  0  0  0  0  0  0999 V2000
   56.6480   34.0650   45.2190 O   0  0  0  0  0  0  0  0  0  0  0  0
   57.7790   33.9450   45.7590 C   0  0  0  0  0  0  0  0  0  0  0  0
   58.0800   34.6820   46.8600 N   0  0  0  0  0  0  0  0  0  0  0  0
   59.2840   34.5790   47.4770 C   0  0  0  0  0  0  0  0  0  0  0  0
   60.2470   33.6880   46.9760 C   0  0  0  0  0  0  0  0  0  0  0  0
   61.5740   33.5140   47.6220 C   0  0  0  0  0  0  0  0  0  0  0  0
   61.6740   33.5260   49.0260 C   0  0  0  0  0  0  0  0  0  0  0  0
   62.9140   33.3570   49.6510 C   0  0  0  0  0  0  0  0  0  0  0  0
   64.0660   33.1680   48.8850 C   0  0  0  0  0  0  0  0  0  0  0  0
   65.2970   33.0010   49.5090 O   0  0  0  0  0  0  0  0  0  0  0  0
   63.9800   33.1430   47.4910 C   0  0  0  0  0  0  0  0  0  0  0  0
   62.7430   33.3120   46.8600 C   0  0  0  0  0  0  0  0  0  0  0  0
   59.9350   32.9470   45.8780 N   0  0  0  0  0  0  0  0  0  0  0  0
   58.7370   33.0540   45.2460 C   0  0  0  0  0  0  0  0  0  0  0  0
   58.4520   32.1710   44.0640 C   0  0  0  0  0  0  0  0  0  0  0  0
   57.6740   30.9590   44.5010 C   0  0  0  0  0  0  0  0  0  0  0  0
   56.3490   30.7780   44.0720 C   0  0  0  0  0  0  0  0  0  0  0  0
   55.6360   29.6350   44.4480 C   0  0  0  0  0  0  0  0  0  0  0  0
   56.2430   28.6620   45.2470 C   0  0  0  0  0  0  0  0  0  0  0  0
   55.5340   27.5270   45.6210 O   0  0  0  0  0  0  0  0  0  0  0  0
   57.5650   28.8310   45.6700 C   0  0  0  0  0  0  0  0  0  0  0  0
   58.2810   29.9720   45.2950 C   0  0  0  0  0  0  0  0  0  0  0  0
   59.5046   35.1900   48.3647 H   0  0  0  0  0  0  0  0  0  0  0  0
   60.7702   33.6694   49.6364 H   0  0  0  0  0  0  0  0  0  0  0  0
   62.9817   33.3730   50.7488 H   0  0  0  0  0  0  0  0  0  0  0  0
   64.8872   32.9901   46.8880 H   0  0  0  0  0  0  0  0  0  0  0  0
   62.6819   33.2871   45.7620 H   0  0  0  0  0  0  0  0  0  0  0  0
   57.8645   32.7330   43.3230 H   0  0  0  0  0  0  0  0  0  0  0  0
   59.4040   31.8469   43.6182 H   0  0  0  0  0  0  0  0  0  0  0  0
   55.8700   31.5383   43.4376 H   0  0  0  0  0  0  0  0  0  0  0  0
   54.5963   29.5017   44.1145 H   0  0  0  0  0  0  0  0  0  0  0  0
   58.0425   28.0651   46.2988 H   0  0  0  0  0  0  0  0  0  0  0  0
   59.3235   30.0971   45.6230 H   0  0  0  0  0  0  0  0  0  0  0  0
  1  2  2  0
  2  3  1  0
  3  4  1  0
  4  5  2  0
  5  6  1  0
  6  7  2  0
  7  8  1  0
  8  9  2  0
  9 10  1  0
  9 11  1  0
 11 12  2  0
  5 13  1  0
 13 14  2  0
 14 15  1  0
 15 16  1  0
 16 17  2  0
 17 18  1  0
 18 19  2  0
 19 20  1  0
 19 21  1  0
 21 22  2  0
 14  2  1  0
 22 16  1  0
 12  6  1  0
  4 23  1  0
  7 24  1  0
  8 25  1  0
 11 26  1  0
 12 27  1  0
 15 28  1  0
 15 29  1  0
 17 30  1  0
 18 31  1  0
 21 32  1  0
 22 33  1  0
M  CHG  3   3  -1  10  -1  20  -1
M  END
>  <UniqueID>  (19) 
18

>  <SMILES>  (19) 
O=c1[n-]cc(-c2ccc([O-])cc2)nc1Cc1ccc([O-])cc1

>  <Energy>  (19) 
40.883910534324166

>  <Genealogy>  (19) 
O=c1[n-]cc(-c2ccc([O-])cc2)nc1Cc1ccc([O-])cc1 (protonated)
O=c1[n-]cc(-c2ccc([O-])cc2)nc1Cc1ccc([O-])cc1 (3D coordinates assigned)
O=c1[n-]cc(-c2ccc([O-])cc2)nc1Cc1ccc([O-])cc1 (optimized conformer: 40.883910534324166 kcal/mol)

>  <smiles>  (19) 
O=c1[nH]cc(-c2ccc(O)cc2)nc1Cc1ccc(O)cc1

>  <score_type>  (19) 
oracle

>  <origin>  (19) 
adg

>  <m_score__min__energy>  (19) 
-12.289999999999999

>  <m_primary>  (19) 
energy

$$$$
19:0
     RDKit          3D

 32 33  0  0  0  0  0  0  0  0999 V2000
   60.3380   28.8310   48.6310 O   0  0  0  0  0  0  0  0  0  0  0  0
   60.2240   28.7390   47.3780 C   0  0  0  0  0  0  0  0  0  0  0  0
   60.0820   27.3920   46.7420 C   0  0  0  0  0  0  0  0  0  0  0  0
   58.6320   27.1030   46.4690 C   0  0  0  0  0  0  0  0  0  0  0  0
   58.0530   25.9050   46.9190 C   0  0  0  0  0  0  0  0  0  0  0  0
   56.6970   25.6500   46.6930 C   0  0  0  0  0  0  0  0  0  0  0  0
   55.9070   26.5920   46.0270 C   0  0  0  0  0  0  0  0  0  0  0  0
   54.5600   26.3300   45.8080 O   0  0  0  0  0  0  0  0  0  0  0  0
   56.4710   27.7960   45.5860 C   0  0  0  0  0  0  0  0  0  0  0  0
   55.6750   28.7330   44.9290 O   0  0  0  0  0  0  0  0  0  0  0  0
   57.8320   28.0510   45.8120 C   0  0  0  0  0  0  0  0  0  0  0  0
   60.1780   29.9140   46.5640 N   0  0  0  0  0  0  0  0  0  0  0  0
   60.2240   31.2690   47.1000 C   0  0  0  0  0  0  0  0  0  0  0  0
   59.2990   32.1720   46.3270 C   0  0  0  0  0  0  0  0  0  0  0  0
   58.4070   31.6270   45.3860 C   0  0  0  0  0  0  0  0  0  0  0  0
   57.5320   32.4580   44.6790 C   0  0  0  0  0  0  0  0  0  0  0  0
   57.5370   33.8360   44.9080 C   0  0  0  0  0  0  0  0  0  0  0  0
   58.4150   34.3870   45.8440 C   0  0  0  0  0  0  0  0  0  0  0  0
   59.2930   33.5620   46.5560 C   0  0  0  0  0  0  0  0  0  0  0  0
   60.1560   34.1280   47.4880 O   0  0  0  0  0  0  0  0  0  0  0  0
   60.6414   27.3754   45.7950 H   0  0  0  0  0  0  0  0  0  0  0  0
   60.4807   26.6266   47.4240 H   0  0  0  0  0  0  0  0  0  0  0  0
   58.6686   25.1648   47.4511 H   0  0  0  0  0  0  0  0  0  0  0  0
   56.2507   24.7063   47.0399 H   0  0  0  0  0  0  0  0  0  0  0  0
   54.7740   28.4830   44.5400 H   0  0  0  0  0  0  0  0  0  0  0  0
   58.2746   28.9991   45.4725 H   0  0  0  0  0  0  0  0  0  0  0  0
   59.9150   31.2517   48.1556 H   0  0  0  0  0  0  0  0  0  0  0  0
   61.2514   31.6522   47.0127 H   0  0  0  0  0  0  0  0  0  0  0  0
   58.3975   30.5420   45.2052 H   0  0  0  0  0  0  0  0  0  0  0  0
   56.8392   32.0260   43.9419 H   0  0  0  0  0  0  0  0  0  0  0  0
   56.8485   34.4880   44.3504 H   0  0  0  0  0  0  0  0  0  0  0  0
   58.4164   35.4725   46.0221 H   0  0  0  0  0  0  0  0  0  0  0  0
  1  2  2  0
  2  3  1  0
  3  4  1  0
  4  5  2  0
  5  6  1  0
  6  7  2  0
  7  8  1  0
  7  9  1  0
  9 10  1  0
  9 11  2  0
  2 12  1  0
 12 13  1  0
 13 14  1  0
 14 15  2  0
 15 16  1  0
 16 17  2  0
 17 18  1  0
 18 19  2  0
 19 20  1  0
 11  4  1  0
 19 14  1  0
  3 21  1  0
  3 22  1  0
  5 23  1  0
  6 24  1  0
 10 25  1  0
 11 26  1  0
 13 27  1  0
 13 28  1  0
 15 29  1  0
 16 30  1  0
 17 31  1  0
 18 32  1  0
M  CHG  3   8  -1  12  -1  20  -1
M  END
>  <UniqueID>  (20) 
19

>  <SMILES>  (20) 
O=C(Cc1ccc([O-])c(O)c1)[N-]Cc1ccccc1[O-]

>  <Energy>  (20) 
28.770376672091814

>  <Genealogy>  (20) 
O=C(Cc1ccc([O-])c(O)c1)[N-]Cc1ccccc1[O-] (protonated)
O=C(Cc1ccc([O-])c(O)c1)[N-]Cc1ccccc1[O-] (3D coordinates assigned)
O=C(Cc1ccc([O-])c(O)c1)[N-]Cc1ccccc1[O-] (optimized conformer: 28.770376672091814 kcal/mol)

>  <smiles>  (20) 
O=C(Cc1ccc(O)c(O)c1)NCc1ccccc1O

>  <score_type>  (20) 
oracle

>  <origin>  (20) 
adg

>  <m_score__min__energy>  (20) 
-13.460000000000001

>  <m_primary>  (20) 
energy

$$$$
20:0
     RDKit          3D

 55 58  0  0  0  0  0  0  0  0999 V2000
   58.4290   30.9540   48.4940 H   0  0  0  0  0  0  0  0  0  0  0  0
   58.3930   31.8100   49.0910 N   0  0  0  0  0  0  0  0  0  0  0  0
   58.9590   33.0420   48.6460 C   0  0  0  0  0  0  0  0  0  0  0  0
   59.5420   33.7930   49.4720 O   0  0  0  0  0  0  0  0  0  0  0  0
   58.8600   33.4230   47.2250 C   0  0  0  0  0  0  0  0  0  0  0  0
   58.2360   32.5870   46.3500 N   0  0  0  0  0  0  0  0  0  0  0  0
   58.1270   32.8620   45.0210 C   0  0  0  0  0  0  0  0  0  0  0  0
   57.4280   31.9090   44.1290 C   0  0  0  0  0  0  0  0  0  0  0  0
   57.5060   32.0550   42.8800 O   0  0  0  0  0  0  0  0  0  0  0  0
   56.5860   30.8660   44.6460 N   0  0  0  0  0  0  0  0  0  0  0  0
   56.9870   29.7800   45.2440 C   0  0  0  0  0  0  0  0  0  0  0  0
   56.5910   28.5490   44.8110 N   0  0  0  0  0  0  0  0  0  0  0  0
   56.9940   27.4080   45.4240 C   0  0  0  0  0  0  0  0  0  0  0  0
   56.6573   26.4322   45.0440 H   0  0  0  0  0  0  0  0  0  0  0  0
   57.8350   27.4700   46.5360 C   0  0  0  0  0  0  0  0  0  0  0  0
   58.1612   26.5469   47.0374 H   0  0  0  0  0  0  0  0  0  0  0  0
   58.2610   28.7220   47.0090 C   0  0  0  0  0  0  0  0  0  0  0  0
   59.0890   28.8450   48.1350 O   0  0  0  0  0  0  0  0  0  0  0  0
   60.2430   29.6370   48.2070 C   0  0  0  0  0  0  0  0  0  0  0  0
   60.8400   29.8430   49.4550 C   0  0  0  0  0  0  0  0  0  0  0  0
   60.4080   29.3739   50.3513 H   0  0  0  0  0  0  0  0  0  0  0  0
   61.9820   30.6410   49.5710 C   0  0  0  0  0  0  0  0  0  0  0  0
   62.4411   30.7965   50.5585 H   0  0  0  0  0  0  0  0  0  0  0  0
   62.5470   31.2450   48.4380 C   0  0  0  0  0  0  0  0  0  0  0  0
   63.7040   32.0850   48.5930 N   0  0  0  0  0  0  0  0  0  0  0  0
   64.5190   31.9220   47.9590 H   0  0  0  0  0  0  0  0  0  0  0  0
   63.7960   33.1840   49.5100 C   0  0  0  0  0  0  0  0  0  0  0  0
   62.7590   33.6620   50.0380 O   0  0  0  0  0  0  0  0  0  0  0  0
   65.0720   33.7910   49.7450 N   0  0  0  0  0  0  0  0  0  0  0  0
   66.1660   33.2180   50.4780 C   0  0  0  0  0  0  0  0  0  0  0  0
   67.2210   34.0520   50.8700 C   0  0  0  0  0  0  0  0  0  0  0  0
   67.1768   35.1285   50.6483 H   0  0  0  0  0  0  0  0  0  0  0  0
   68.3300   33.5270   51.5410 C   0  0  0  0  0  0  0  0  0  0  0  0
   69.1501   34.1914   51.8508 H   0  0  0  0  0  0  0  0  0  0  0  0
   68.3970   32.1600   51.8180 C   0  0  0  0  0  0  0  0  0  0  0  0
   69.2702   31.7496   52.3464 H   0  0  0  0  0  0  0  0  0  0  0  0
   67.3530   31.3080   51.4240 C   0  0  0  0  0  0  0  0  0  0  0  0
   67.4470   29.8280   51.6600 C   0  0  0  0  0  0  0  0  0  0  0  0
   67.4596   29.6293   52.7418 H   0  0  0  0  0  0  0  0  0  0  0  0
   66.5788   29.3284   51.2055 H   0  0  0  0  0  0  0  0  0  0  0  0
   68.3715   29.4422   51.2055 H   0  0  0  0  0  0  0  0  0  0  0  0
   66.2480   31.8390   50.7390 C   0  0  0  0  0  0  0  0  0  0  0  0
   65.4407   31.1710   50.4042 H   0  0  0  0  0  0  0  0  0  0  0  0
   61.9240   31.0710   47.1890 C   0  0  0  0  0  0  0  0  0  0  0  0
   62.3360   31.5671   46.2978 H   0  0  0  0  0  0  0  0  0  0  0  0
   60.7830   30.2700   47.0750 C   0  0  0  0  0  0  0  0  0  0  0  0
   60.3057   30.1349   46.0932 H   0  0  0  0  0  0  0  0  0  0  0  0
   57.8130   29.8820   46.3690 C   0  0  0  0  0  0  0  0  0  0  0  0
   58.1089   30.8711   46.7486 H   0  0  0  0  0  0  0  0  0  0  0  0
   58.6540   34.0640   44.5250 C   0  0  0  0  0  0  0  0  0  0  0  0
   58.5624   34.3117   43.4572 H   0  0  0  0  0  0  0  0  0  0  0  0
   59.2960   34.9430   45.4000 C   0  0  0  0  0  0  0  0  0  0  0  0
   59.7157   35.8863   45.0206 H   0  0  0  0  0  0  0  0  0  0  0  0
   59.4060   34.6270   46.7540 C   0  0  0  0  0  0  0  0  0  0  0  0
   59.9154   35.3143   47.4455 H   0  0  0  0  0  0  0  0  0  0  0  0
  1  2  1  0
  2  3  1  0
  3  4  2  0
  3  5  1  0
  5  6  2  0
  6  7  1  0
  7  8  1  0
  8  9  2  0
  8 10  1  0
 10 11  2  0
 11 12  1  0
 12 13  1  0
 13 14  1  0
 13 15  2  0
 15 16  1  0
 15 17  1  0
 17 18  1  0
 18 19  1  0
 19 20  2  0
 20 21  1  0
 20 22  1  0
 22 23  1  0
 22 24  2  0
 24 25  1  0
 25 26  1  0
 25 27  1  0
 27 28  2  0
 27 29  1  0
 29 30  1  0
 30 31  2  0
 31 32  1  0
 31 33  1  0
 33 34  1  0
 33 35  2  0
 35 36  1  0
 35 37  1  0
 37 38  1  0
 38 39  1  0
 38 40  1  0
 38 41  1  0
 37 42  2  0
 42 43  1  0
 24 44  1  0
 44 45  1  0
 44 46  2  0
 46 47  1  0
 17 48  2  0
 48 49  1  0
  7 50  2  0
 50 51  1  0
 50 52  1  0
 52 53  1  0
 52 54  2  0
 54 55  1  0
 54  5  1  0
 48 11  1  0
 46 19  1  0
 42 30  1  0
M  CHG  3   2  -1  12  -1  29  -1
M  END
>  <UniqueID>  (21) 
20

>  <SMILES>  (21) 
Cc1cccc([N-]C(=O)Nc2ccc(Oc3cc[n-]/c(=N\C(=O)c4cccc(C([NH-])=O)n4)c3)cc2)c1

>  <Energy>  (21) 
78.86394718950986

>  <Genealogy>  (21) 
Cc1cccc([N-]C(=O)Nc2ccc(Oc3cc[n-]c(=NC(=O)c4cccc(C([NH-])=O)n4)c3)cc2)c1 (protonated)
Cc1cccc([N-]C(=O)Nc2ccc(Oc3cc[n-]/c(=N\C(=O)c4cccc(C([NH-])=O)n4)c3)cc2)c1 (cis-trans isomerization)
Cc1cccc([N-]C(=O)Nc2ccc(Oc3cc[n-]/c(=N\C(=O)c4cccc(C([NH-])=O)n4)c3)cc2)c1 (3D coordinates assigned)
Cc1cccc([N-]C(=O)Nc2ccc(Oc3cc[n-]/c(=N\C(=O)c4cccc(C([NH-])=O)n4)c3)cc2)c1 (optimized conformer: 78.86394718950986 kcal/mol)

>  <smiles>  (21) 
Cc1cccc(NC(=O)Nc2ccc(Oc3cc[nH]c(=NC(=O)c4cccc(C(N)=O)n4)c3)cc2)c1

>  <score_type>  (21) 
oracle

>  <origin>  (21) 
adg

>  <m_score__min__energy>  (21) 
-15.65

>  <m_primary>  (21) 
energy

$$$$
21:0
     RDKit          3D

 27 28  0  0  0  0  0  0  0  0999 V2000
   55.4590   29.5950   44.9230 N   0  0  0  0  0  0  0  0  0  0  0  0
   57.1860   29.5620   44.9090 S   0  0  0  0  0  0  0  0  0  0  0  0
   57.7190   30.7020   45.7320 O   0  0  0  0  0  0  0  0  0  0  0  0
   57.6770   29.7190   43.4970 O   0  0  0  0  0  0  0  0  0  0  0  0
   57.7510   28.0330   45.5730 C   0  0  0  0  0  0  0  0  0  0  0  0
   59.1110   27.6970   45.5150 C   0  0  0  0  0  0  0  0  0  0  0  0
   59.5540   26.4770   46.0330 C   0  0  0  0  0  0  0  0  0  0  0  0
   58.6440   25.5840   46.6040 C   0  0  0  0  0  0  0  0  0  0  0  0
   57.2760   25.9080   46.6590 C   0  0  0  0  0  0  0  0  0  0  0  0
   56.3140   25.0150   47.2320 N   0  0  0  0  0  0  0  0  0  0  0  0
   55.9910   23.9180   46.6710 N   0  0  0  0  0  0  0  0  0  0  0  0
   54.6900   23.6780   46.1110 C   0  0  0  0  0  0  0  0  0  0  0  0
   53.8700   24.7690   45.7750 C   0  0  0  0  0  0  0  0  0  0  0  0
   54.2940   26.0830   45.9750 O   0  0  0  0  0  0  0  0  0  0  0  0
   52.6390   24.5530   45.2450 N   0  0  0  0  0  0  0  0  0  0  0  0
   52.1750   23.2970   45.0290 C   0  0  0  0  0  0  0  0  0  0  0  0
   50.6890   23.0740   44.3910 S   0  0  0  0  0  0  0  0  0  0  0  0
   52.9450   22.2250   45.3430 N   0  0  0  0  0  0  0  0  0  0  0  0
   54.1850   22.3800   45.8760 C   0  0  0  0  0  0  0  0  0  0  0  0
   54.8620   21.3560   46.1520 O   0  0  0  0  0  0  0  0  0  0  0  0
   56.8370   27.1330   46.1390 C   0  0  0  0  0  0  0  0  0  0  0  0
   55.1460   28.8740   45.6110 H   0  0  0  0  0  0  0  0  0  0  0  0
   59.8303   28.3946   45.0611 H   0  0  0  0  0  0  0  0  0  0  0  0
   60.6225   26.2191   45.9910 H   0  0  0  0  0  0  0  0  0  0  0  0
   58.9978   24.6255   47.0115 H   0  0  0  0  0  0  0  0  0  0  0  0
   54.8770   26.3520   46.7590 H   0  0  0  0  0  0  0  0  0  0  0  0
   55.7681   27.3902   46.1751 H   0  0  0  0  0  0  0  0  0  0  0  0
  1  2  1  0
  2  3  2  0
  2  4  2  0
  2  5  1  0
  5  6  2  0
  6  7  1  0
  7  8  2  0
  8  9  1  0
  9 10  1  0
 10 11  2  3
 11 12  1  0
 12 13  2  0
 13 14  1  0
 13 15  1  0
 15 16  1  0
 16 17  2  0
 16 18  1  0
 18 19  1  0
 19 20  2  0
  9 21  2  0
 21  5  1  0
 19 12  1  0
  1 22  1  0
  6 23  1  0
  7 24  1  0
  8 25  1  0
 14 26  1  0
 21 27  1  0
M  CHG  3   1  -1  15  -1  18  -1
M  END
>  <UniqueID>  (22) 
21

>  <SMILES>  (22) 
[NH-]S(=O)(=O)c1cccc(N=Nc2c(O)[n-]c(=S)[n-]c2=O)c1

>  <Energy>  (22) 
30.615611745641264

>  <Genealogy>  (22) 
[NH-]S(=O)(=O)c1cccc(N=Nc2c(O)[n-]c(=S)[n-]c2=O)c1 (protonated)
[NH-]S(=O)(=O)c1cccc(N=Nc2c(O)[n-]c(=S)[n-]c2=O)c1 (3D coordinates assigned)
[NH-]S(=O)(=O)c1cccc(N=Nc2c(O)[n-]c(=S)[n-]c2=O)c1 (optimized conformer: 30.615611745641264 kcal/mol)

>  <smiles>  (22) 
NS(=O)(=O)c1cccc(N=Nc2c(O)[nH]c(=S)[nH]c2=O)c1

>  <score_type>  (22) 
oracle

>  <origin>  (22) 
adg

>  <m_score__min__energy>  (22) 
-13.65

>  <m_primary>  (22) 
energy

$$$$
22:0
     RDKit          3D

 49 52  0  0  1  0  0  0  0  0999 V2000
   60.7570   29.6060   47.0330 O   0  0  0  0  0  0  0  0  0  0  0  0
   60.3610   30.6030   47.6940 C   0  0  0  0  0  0  0  0  0  0  0  0
   56.7240   31.2370   44.6470 N   0  0  0  0  0  0  0  0  0  0  0  0
   57.3940   32.2070   45.1710 C   0  0  0  0  0  0  0  0  0  0  0  0
   57.4910   33.3330   44.4470 N   0  0  0  0  0  0  0  0  0  0  0  0
   58.1630   34.4200   44.8700 C   0  0  0  0  0  0  0  0  0  0  0  0
   58.6100   30.5560   52.3470 C   0  0  0  0  0  0  0  0  0  0  0  0
   59.1780   29.4590   51.7360 C   0  0  0  0  0  0  0  0  0  0  0  0
   59.3170   29.4870   50.3400 C   0  0  0  0  0  0  0  0  0  0  0  0
   59.8900   28.3790   49.7550 O   0  0  0  0  0  0  0  0  0  0  0  0
   61.2160   31.7790   47.8660 C   0  0  0  0  0  0  0  0  0  0  0  0
   62.5880   31.5750   47.8630 C   0  0  0  0  0  0  0  0  0  0  0  0
   63.4220   32.6700   48.0230 C   0  0  0  0  0  0  0  0  0  0  0  0
   62.8880   33.9560   48.1810 C   0  0  0  0  0  0  0  0  0  0  0  0
   61.5210   34.1520   48.1830 C   0  0  0  0  0  0  0  0  0  0  0  0
   60.6820   33.0630   48.0250 C   0  0  0  0  0  0  0  0  0  0  0  0
   59.0450   30.5700   48.2850 N   0  0  0  0  0  0  0  0  0  0  0  0
   58.9140   30.5470   49.5870 C   0  0  0  0  0  0  0  0  0  0  0  0
   58.7720   34.3220   46.1270 C   0  0  0  0  0  0  0  0  0  0  0  0
   58.2130   31.6130   51.5720 C   0  0  0  0  0  0  0  0  0  0  0  0
   58.3640   31.6040   50.2180 N   0  0  0  0  0  0  0  0  0  0  0  0
   58.6760   33.1710   46.8750 C   0  0  0  0  0  0  0  0  0  0  0  0
   59.2690   33.1640   48.0130 N   0  0  0  0  0  0  0  0  0  0  0  0
   57.2510   29.9220   44.6450 C   0  0  0  0  0  0  0  0  0  0  0  0
   57.2340   29.1460   43.5190 C   0  0  0  0  0  0  0  0  0  0  0  0
   57.7720   27.8710   43.6100 C   0  0  0  0  0  0  0  0  0  0  0  0
   58.3100   27.3800   44.7820 C   0  0  0  0  0  0  0  0  0  0  0  0
   58.3020   28.2020   45.8920 C   0  0  0  0  0  0  0  0  0  0  0  0
   58.8390   27.7220   47.0770 O   0  0  0  0  0  0  0  0  0  0  0  0
   57.7810   29.4800   45.8650 C   0  0  0  0  0  0  0  0  0  0  0  0
   57.9860   32.1340   46.3790 N   0  0  0  0  0  0  0  0  0  0  0  0
   57.0330   33.3920   43.5090 H   0  0  0  0  0  0  0  0  0  0  0  0
   58.2300   35.3343   44.2620 H   0  0  0  0  0  0  0  0  0  0  0  0
   58.4778   30.5821   53.4387 H   0  0  0  0  0  0  0  0  0  0  0  0
   59.5113   28.5905   52.3231 H   0  0  0  0  0  0  0  0  0  0  0  0
   60.1110   28.4130   48.7520 H   0  0  0  0  0  0  0  0  0  0  0  0
   63.0053   30.5651   47.7363 H   0  0  0  0  0  0  0  0  0  0  0  0
   64.5129   32.5286   48.0260 H   0  0  0  0  0  0  0  0  0  0  0  0
   63.5629   34.8159   48.3044 H   0  0  0  0  0  0  0  0  0  0  0  0
   61.1039   35.1621   48.3087 H   0  0  0  0  0  0  0  0  0  0  0  0
   59.3364   35.1791   46.5230 H   0  0  0  0  0  0  0  0  0  0  0  0
   57.7607   32.4917   52.0550 H   0  0  0  0  0  0  0  0  0  0  0  0
   58.0410   32.4580   49.7260 H   0  0  0  0  0  0  0  0  0  0  0  0
   56.8091   29.5195   42.5756 H   0  0  0  0  0  0  0  0  0  0  0  0
   57.7698   27.2288   42.7169 H   0  0  0  0  0  0  0  0  0  0  0  0
   58.7322   26.3654   44.8308 H   0  0  0  0  0  0  0  0  0  0  0  0
   59.1130   28.4140   47.7850 H   0  0  0  0  0  0  0  0  0  0  0  0
   57.7817   30.1213   46.7587 H   0  0  0  0  0  0  0  0  0  0  0  0
   57.8920   31.2540   46.9120 H   0  0  0  0  0  0  0  0  0  0  0  0
  1  2  2  0
  2  3  1  0
  3  4  2  0
  4  5  1  0
  5  6  1  0
  6  7  2  0
  7  8  1  0
  8  9  2  0
  9 10  1  0
  2 11  1  0
 11 12  2  0
 12 13  1  0
 13 14  2  0
 14 15  1  0
 15 16  2  0
 16 17  1  0
 17 18  2  0
 18 19  1  0
 19 20  2  0
 20 21  1  0
 21 22  1  0
 22 23  2  0
 23 24  1  0
 24 25  2  0
 25 26  1  0
 26 27  2  0
 27 28  1  0
 28 29  1  0
 28 30  2  0
 22 31  1  0
  9  4  1  0
 16 11  1  0
 31 18  1  0
 30 24  1  0
  5 32  1  0
  6 33  1  0
  7 34  1  0
  8 35  1  0
 10 36  1  0
 12 37  1  0
 13 38  1  0
 14 39  1  0
 15 40  1  0
 19 41  1  0
 20 42  1  0
 21 43  1  0
 25 44  1  0
 26 45  1  0
 27 46  1  0
 29 47  1  0
 30 48  1  0
 31 49  1  0
M  END
>  <smiles>  (23) 
O=C(N=c1[nH]cccc1O)c1ccccc1N=c1cc[nH]c(=Nc2cccc(O)c2)[nH]1

>  <score_type>  (23) 
oracle

>  <origin>  (23) 
adg

>  <m_score__min__energy>  (23) 
-10.210000000000001

>  <m_primary>  (23) 
energy

$$$$
23:0
     RDKit          3D

 68 72  0  0  0  0  0  0  0  0999 V2000
   50.1710   23.0290   46.1710 O   0  0  0  0  0  0  0  0  0  0  0  0
   51.1610   22.6540   45.4890 C   0  0  0  0  0  0  0  0  0  0  0  0
   50.9970   22.4420   44.1250 O   0  0  0  0  0  0  0  0  0  0  0  0
   52.4770   22.4370   46.1290 C   0  0  0  0  0  0  0  0  0  0  0  0
   52.8500   21.1620   46.5890 C   0  0  0  0  0  0  0  0  0  0  0  0
   54.1000   20.9600   47.1810 C   0  0  0  0  0  0  0  0  0  0  0  0
   54.9990   22.0240   47.3130 C   0  0  0  0  0  0  0  0  0  0  0  0
   56.5880   21.7470   48.0210 S   0  0  0  0  0  0  0  0  0  0  0  0
   56.5530   20.5320   48.9050 O   0  0  0  0  0  0  0  0  0  0  0  0
   56.9830   22.9350   48.8520 O   0  0  0  0  0  0  0  0  0  0  0  0
   57.7550   21.5210   46.7650 N   0  0  0  0  0  0  0  0  0  0  0  0
   57.4350   21.8580   45.4160 C   0  0  0  0  0  0  0  0  0  0  0  0
   57.3170   20.8480   44.4560 C   0  0  0  0  0  0  0  0  0  0  0  0
   56.9420   21.1650   43.1480 C   0  0  0  0  0  0  0  0  0  0  0  0
   56.6710   22.4900   42.8000 C   0  0  0  0  0  0  0  0  0  0  0  0
   56.7870   23.5040   43.7550 C   0  0  0  0  0  0  0  0  0  0  0  0
   57.1910   23.1970   45.0680 C   0  0  0  0  0  0  0  0  0  0  0  0
   57.3230   24.1780   46.0630 O   0  0  0  0  0  0  0  0  0  0  0  0
   58.2240   25.2500   46.0470 C   0  0  0  0  0  0  0  0  0  0  0  0
   59.5900   24.9440   46.0230 C   0  0  0  0  0  0  0  0  0  0  0  0
   60.5480   25.9570   46.0300 C   0  0  0  0  0  0  0  0  0  0  0  0
   60.1500   27.2920   46.0490 C   0  0  0  0  0  0  0  0  0  0  0  0
   58.7930   27.6170   46.0420 C   0  0  0  0  0  0  0  0  0  0  0  0
   57.8100   26.6080   46.0180 C   0  0  0  0  0  0  0  0  0  0  0  0
   56.3850   27.0220   45.9720 C   0  0  0  0  0  0  0  0  0  0  0  0
   55.5340   26.3160   46.5740 O   0  0  0  0  0  0  0  0  0  0  0  0
   55.9150   28.1640   45.2420 N   0  0  0  0  0  0  0  0  0  0  0  0
   56.6390   29.3320   44.8260 C   0  0  0  0  0  0  0  0  0  0  0  0
   56.6940   29.7490   43.4840 C   0  0  0  0  0  0  0  0  0  0  0  0
   57.4260   30.8880   43.1350 C   0  0  0  0  0  0  0  0  0  0  0  0
   58.1350   31.5970   44.1110 C   0  0  0  0  0  0  0  0  0  0  0  0
   58.1180   31.1630   45.4430 C   0  0  0  0  0  0  0  0  0  0  0  0
   59.0680   31.9790   46.6790 S   0  0  0  0  0  0  0  0  0  0  0  0
   59.1860   31.0590   47.8630 O   0  0  0  0  0  0  0  0  0  0  0  0
   60.4500   32.2680   46.1570 O   0  0  0  0  0  0  0  0  0  0  0  0
   58.2450   33.4690   47.1140 N   0  0  0  0  0  0  0  0  0  0  0  0
   57.0600   33.7160   46.2690 C   0  0  0  0  0  0  0  0  0  0  0  0
   57.3950   34.5330   45.0040 C   0  0  0  0  0  0  0  0  0  0  0  0
   58.7620   34.4140   44.6760 O   0  0  0  0  0  0  0  0  0  0  0  0
   59.5540   35.0390   45.6700 C   0  0  0  0  0  0  0  0  0  0  0  0
   59.1550   34.6280   47.1060 C   0  0  0  0  0  0  0  0  0  0  0  0
   57.3690   30.0330   45.7930 C   0  0  0  0  0  0  0  0  0  0  0  0
   54.6360   23.2970   46.8540 C   0  0  0  0  0  0  0  0  0  0  0  0
   53.3800   23.5040   46.2740 C   0  0  0  0  0  0  0  0  0  0  0  0
   52.1533   20.3175   46.4823 H   0  0  0  0  0  0  0  0  0  0  0  0
   54.3782   19.9599   47.5448 H   0  0  0  0  0  0  0  0  0  0  0  0
   57.5197   19.8024   44.7311 H   0  0  0  0  0  0  0  0  0  0  0  0
   56.8602   20.3704   42.3918 H   0  0  0  0  0  0  0  0  0  0  0  0
   56.3657   22.7362   41.7723 H   0  0  0  0  0  0  0  0  0  0  0  0
   56.5619   24.5449   43.4797 H   0  0  0  0  0  0  0  0  0  0  0  0
   59.9111   23.8922   45.9983 H   0  0  0  0  0  0  0  0  0  0  0  0
   61.6180   25.7022   46.0205 H   0  0  0  0  0  0  0  0  0  0  0  0
   60.9062   28.0906   46.0695 H   0  0  0  0  0  0  0  0  0  0  0  0
   58.4871   28.6735   46.0554 H   0  0  0  0  0  0  0  0  0  0  0  0
   56.1610   29.1790   42.7088 H   0  0  0  0  0  0  0  0  0  0  0  0
   57.4446   31.2281   42.0890 H   0  0  0  0  0  0  0  0  0  0  0  0
   58.7057   32.4951   43.8324 H   0  0  0  0  0  0  0  0  0  0  0  0
   56.6380   32.7477   45.9618 H   0  0  0  0  0  0  0  0  0  0  0  0
   56.3422   34.3004   46.8634 H   0  0  0  0  0  0  0  0  0  0  0  0
   56.7893   34.1615   44.1643 H   0  0  0  0  0  0  0  0  0  0  0  0
   57.1711   35.5920   45.1997 H   0  0  0  0  0  0  0  0  0  0  0  0
   60.6059   34.7623   45.5055 H   0  0  0  0  0  0  0  0  0  0  0  0
   59.3967   36.1242   45.5823 H   0  0  0  0  0  0  0  0  0  0  0  0
   60.0649   34.3694   47.6675 H   0  0  0  0  0  0  0  0  0  0  0  0
   58.6301   35.4763   47.5695 H   0  0  0  0  0  0  0  0  0  0  0  0
   57.3541   29.6925   46.8389 H   0  0  0  0  0  0  0  0  0  0  0  0
   55.3407   24.1361   46.9500 H   0  0  0  0  0  0  0  0  0  0  0  0
   53.0971   24.5094   45.9289 H   0  0  0  0  0  0  0  0  0  0  0  0
  1  2  2  0
  2  3  1  0
  2  4  1  0
  4  5  2  0
  5  6  1  0
  6  7  2  0
  7  8  1  0
  8  9  2  0
  8 10  2  0
  8 11  1  0
 11 12  1  0
 12 13  2  0
 13 14  1  0
 14 15  2  0
 15 16  1  0
 16 17  2  0
 17 18  1  0
 18 19  1  0
 19 20  2  0
 20 21  1  0
 21 22  2  0
 22 23  1  0
 23 24  2  0
 24 25  1  0
 25 26  2  0
 25 27  1  0
 27 28  1  0
 28 29  2  0
 29 30  1  0
 30 31  2  0
 31 32  1  0
 32 33  1  0
 33 34  2  0
 33 35  2  0
 33 36  1  0
 36 37  1  0
 37 38  1  0
 38 39  1  0
 39 40  1  0
 40 41  1  0
 32 42  2  0
  7 43  1  0
 43 44  2  0
 44  4  1  0
 17 12  1  0
 24 19  1  0
 42 28  1  0
 41 36  1  0
  5 45  1  0
  6 46  1  0
 13 47  1  0
 14 48  1  0
 15 49  1  0
 16 50  1  0
 20 51  1  0
 21 52  1  0
 22 53  1  0
 23 54  1  0
 29 55  1  0
 30 56  1  0
 31 57  1  0
 37 58  1  0
 37 59  1  0
 38 60  1  0
 38 61  1  0
 40 62  1  0
 40 63  1  0
 41 64  1  0
 41 65  1  0
 42 66  1  0
 43 67  1  0
 44 68  1  0
M  CHG  3   3  -1  11  -1  27  -1
M  END
>  <UniqueID>  (24) 
22

>  <SMILES>  (24) 
O=C([O-])c1ccc(S(=O)(=O)[N-]c2ccccc2Oc2ccccc2C(=O)[N-]c2cccc(S(=O)(=O)N3CCOCC3)c2)cc1

>  <Energy>  (24) 
105.35018119649814

>  <Genealogy>  (24) 
O=C([O-])c1ccc(S(=O)(=O)[N-]c2ccccc2Oc2ccccc2C(=O)[N-]c2cccc(S(=O)(=O)N3CCOCC3)c2)cc1 (protonated)
O=C([O-])c1ccc(S(=O)(=O)[N-]c2ccccc2Oc2ccccc2C(=O)[N-]c2cccc(S(=O)(=O)N3CCOCC3)c2)cc1 (3D coordinates assigned)
O=C([O-])c1ccc(S(=O)(=O)[N-]c2ccccc2Oc2ccccc2C(=O)[N-]c2cccc(S(=O)(=O)N3CCOCC3)c2)cc1 (nonaromatic ring conformer: 105.35018119649814 kcal/mol)

>  <smiles>  (24) 
O=C(O)c1ccc(S(=O)(=O)Nc2ccccc2Oc2ccccc2C(=O)Nc2cccc(S(=O)(=O)N3CCOCC3)c2)cc1

>  <score_type>  (24) 
oracle

>  <origin>  (24) 
adg

>  <m_score__min__energy>  (24) 
-16.77

>  <m_primary>  (24) 
energy

$$$$
24:0
     RDKit          3D

 49 52  0  0  0  0  0  0  0  0999 V2000
   57.4600   33.7290   45.8320 O   0  0  0  0  0  0  0  0  0  0  0  0
   58.5100   34.0840   45.2680 C   0  0  0  0  0  0  0  0  0  0  0  0
   59.4210   35.0470   45.9410 C   0  0  0  0  0  0  0  0  0  0  0  0
   60.0780   34.4000   47.1010 C   0  0  0  0  0  0  0  0  0  0  0  0
   59.4260   34.2220   48.3250 C   0  0  0  0  0  0  0  0  0  0  0  0
   60.2680   33.6120   49.1830 N   0  0  0  0  0  0  0  0  0  0  0  0
   61.4500   33.3900   48.5470 C   0  0  0  0  0  0  0  0  0  0  0  0
   62.6050   32.7960   49.0150 C   0  0  0  0  0  0  0  0  0  0  0  0
   63.6680   32.7070   48.1230 C   0  0  0  0  0  0  0  0  0  0  0  0
   63.5590   33.1890   46.8420 C   0  0  0  0  0  0  0  0  0  0  0  0
   62.3860   33.7900   46.3710 C   0  0  0  0  0  0  0  0  0  0  0  0
   61.3390   33.8790   47.2490 C   0  0  0  0  0  0  0  0  0  0  0  0
   58.8940   33.6090   43.9920 N   0  0  0  0  0  0  0  0  0  0  0  0
   58.1390   32.6800   43.1870 C   0  0  0  0  0  0  0  0  0  0  0  0
   57.6560   31.5500   44.0190 C   0  0  0  0  0  0  0  0  0  0  0  0
   56.5070   30.8550   43.8010 C   0  0  0  0  0  0  0  0  0  0  0  0
   56.2070   29.8130   44.6690 C   0  0  0  0  0  0  0  0  0  0  0  0
   55.1440   29.1630   44.4750 O   0  0  0  0  0  0  0  0  0  0  0  0
   57.0420   29.5030   45.7090 N   0  0  0  0  0  0  0  0  0  0  0  0
   58.1720   30.2030   45.9060 C   0  0  0  0  0  0  0  0  0  0  0  0
   59.3250   29.8660   47.2260 S   0  0  0  0  0  0  0  0  0  0  0  0
   60.1460   28.2970   46.8540 C   0  0  0  0  0  0  0  0  0  0  0  0
   59.1210   27.3520   46.3550 C   0  0  0  0  0  0  0  0  0  0  0  0
   58.3120   26.5890   47.1640 C   0  0  0  0  0  0  0  0  0  0  0  0
   57.3980   25.7290   46.5460 C   0  0  0  0  0  0  0  0  0  0  0  0
   57.3070   25.6470   45.1700 C   0  0  0  0  0  0  0  0  0  0  0  0
   56.4270   24.8170   44.5620 F   0  0  0  0  0  0  0  0  0  0  0  0
   58.1200   26.4130   44.3660 C   0  0  0  0  0  0  0  0  0  0  0  0
   59.0120   27.2530   44.9620 C   0  0  0  0  0  0  0  0  0  0  0  0
   58.4580   31.2050   45.0680 N   0  0  0  0  0  0  0  0  0  0  0  0
   60.1888   35.3811   45.2276 H   0  0  0  0  0  0  0  0  0  0  0  0
   58.8367   35.9100   46.2930 H   0  0  0  0  0  0  0  0  0  0  0  0
   58.3943   34.5295   48.5510 H   0  0  0  0  0  0  0  0  0  0  0  0
   60.0230   33.3590   50.1850 H   0  0  0  0  0  0  0  0  0  0  0  0
   62.6807   32.4120   50.0430 H   0  0  0  0  0  0  0  0  0  0  0  0
   64.6108   32.2433   48.4487 H   0  0  0  0  0  0  0  0  0  0  0  0
   64.4209   33.1000   46.1644 H   0  0  0  0  0  0  0  0  0  0  0  0
   62.3088   34.1732   45.3428 H   0  0  0  0  0  0  0  0  0  0  0  0
   59.8140   33.9640   43.5880 H   0  0  0  0  0  0  0  0  0  0  0  0
   57.2761   33.2004   42.7459 H   0  0  0  0  0  0  0  0  0  0  0  0
   58.7889   32.2860   42.3918 H   0  0  0  0  0  0  0  0  0  0  0  0
   55.8382   31.1096   42.9656 H   0  0  0  0  0  0  0  0  0  0  0  0
   60.9169   28.4521   46.0848 H   0  0  0  0  0  0  0  0  0  0  0  0
   60.6296   27.8951   47.7565 H   0  0  0  0  0  0  0  0  0  0  0  0
   58.3813   26.6528   48.2600 H   0  0  0  0  0  0  0  0  0  0  0  0
   56.7387   25.1057   47.1680 H   0  0  0  0  0  0  0  0  0  0  0  0
   58.0514   26.3487   43.2700 H   0  0  0  0  0  0  0  0  0  0  0  0
   59.6661   27.8720   44.3303 H   0  0  0  0  0  0  0  0  0  0  0  0
   59.3500   31.7550   45.2290 H   0  0  0  0  0  0  0  0  0  0  0  0
  1  2  2  0
  2  3  1  0
  3  4  1  0
  4  5  2  0
  5  6  1  0
  6  7  1  0
  7  8  2  0
  8  9  1  0
  9 10  2  0
 10 11  1  0
 11 12  2  0
  2 13  1  0
 13 14  1  0
 14 15  1  0
 15 16  2  0
 16 17  1  0
 17 18  2  0
 17 19  1  0
 19 20  2  0
 20 21  1  0
 21 22  1  0
 22 23  1  0
 23 24  2  0
 24 25  1  0
 25 26  2  0
 26 27  1  0
 26 28  1  0
 28 29  2  0
 20 30  1  0
 12  4  1  0
 30 15  1  0
 12  7  1  0
 29 23  1  0
  3 31  1  0
  3 32  1  0
  5 33  1  0
  6 34  1  0
  8 35  1  0
  9 36  1  0
 10 37  1  0
 11 38  1  0
 13 39  1  0
 14 40  1  0
 14 41  1  0
 16 42  1  0
 22 43  1  0
 22 44  1  0
 24 45  1  0
 25 46  1  0
 28 47  1  0
 29 48  1  0
 30 49  1  0
M  END
>  <smiles>  (25) 
O=C(Cc1c[nH]c2ccccc12)NCc1cc(=O)nc(SCc2ccc(F)cc2)[nH]1

>  <score_type>  (25) 
oracle

>  <origin>  (25) 
adg

>  <m_score__min__energy>  (25) 
-8.9499999999999993

>  <m_primary>  (25) 
energy

$$$$
25:0
     RDKit          3D

 54 57  0  0  0  0  0  0  0  0999 V2000
   58.5290   31.9950   49.9080 C   0  0  0  0  0  0  0  0  0  0  0  0
   59.2760   31.5280   48.6550 C   0  0  2  0  0  0  0  0  0  0  0  0
   60.6330   30.8580   49.0190 C   0  0  0  0  0  0  0  0  0  0  0  0
   61.6400   31.7780   48.4260 C   0  0  0  0  0  0  0  0  0  0  0  0
   63.0310   31.7130   48.5360 C   0  0  0  0  0  0  0  0  0  0  0  0
   63.7980   32.7280   47.9410 C   0  0  0  0  0  0  0  0  0  0  0  0
   63.1650   33.7890   47.2660 C   0  0  0  0  0  0  0  0  0  0  0  0
   61.7650   33.8310   47.1710 C   0  0  0  0  0  0  0  0  0  0  0  0
   61.0250   32.7900   47.7390 C   0  0  0  0  0  0  0  0  0  0  0  0
   59.6100   32.6750   47.8000 N   0  0  0  0  0  0  0  0  0  0  0  0
   58.6710   33.2730   46.8910 C   0  0  0  0  0  0  0  0  0  0  0  0
   57.5600   33.6710   47.3300 O   0  0  0  0  0  0  0  0  0  0  0  0
   58.9140   33.2600   45.4050 C   0  0  0  0  0  0  0  0  0  0  0  0
   57.3570   33.0700   44.4610 S   0  0  0  0  0  0  0  0  0  0  0  0
   57.1830   31.3260   44.8160 C   0  0  0  0  0  0  0  0  0  0  0  0
   58.1580   30.6720   45.4960 N   0  0  0  0  0  0  0  0  0  0  0  0
   58.0420   29.3530   45.8010 C   0  0  0  0  0  0  0  0  0  0  0  0
   58.9740   28.7930   46.4360 O   0  0  0  0  0  0  0  0  0  0  0  0
   56.8890   28.6380   45.4090 C   0  0  0  0  0  0  0  0  0  0  0  0
   56.6920   27.1960   45.7160 C   0  0  0  0  0  0  0  0  0  0  0  0
   57.6770   26.4070   45.6730 O   0  0  0  0  0  0  0  0  0  0  0  0
   55.3970   26.6900   46.0630 N   0  0  0  0  0  0  0  0  0  0  0  0
   54.8680   25.4100   45.6010 C   0  0  0  0  0  0  0  0  0  0  0  0
   55.5100   24.2430   46.3620 C   0  0  0  0  0  0  0  0  0  0  0  0
   56.3410   23.3680   45.4600 C   0  0  0  0  0  0  0  0  0  0  0  0
   55.8580   22.9990   44.1930 C   0  0  0  0  0  0  0  0  0  0  0  0
   56.6460   22.2210   43.3390 C   0  0  0  0  0  0  0  0  0  0  0  0
   57.9210   21.8120   43.7400 C   0  0  0  0  0  0  0  0  0  0  0  0
   58.4100   22.1790   44.9970 C   0  0  0  0  0  0  0  0  0  0  0  0
   57.6250   22.9550   45.8550 C   0  0  0  0  0  0  0  0  0  0  0  0
   55.9060   29.3430   44.6950 C   0  0  0  0  0  0  0  0  0  0  0  0
   56.0710   30.6610   44.4170 N   0  0  0  0  0  0  0  0  0  0  0  0
   59.0696   31.6571   50.8044 H   0  0  0  0  0  0  0  0  0  0  0  0
   58.4666   33.0932   49.9097 H   0  0  0  0  0  0  0  0  0  0  0  0
   57.5144   31.5701   49.9097 H   0  0  0  0  0  0  0  0  0  0  0  0
   58.6113   30.8158   48.1442 H   0  0  0  0  0  0  0  0  0  0  0  0
   60.7576   30.7879   50.1097 H   0  0  0  0  0  0  0  0  0  0  0  0
   60.7182   29.8276   48.6436 H   0  0  0  0  0  0  0  0  0  0  0  0
   63.5146   30.8858   49.0763 H   0  0  0  0  0  0  0  0  0  0  0  0
   64.8957   32.6939   48.0025 H   0  0  0  0  0  0  0  0  0  0  0  0
   63.7694   34.5878   46.8115 H   0  0  0  0  0  0  0  0  0  0  0  0
   61.2612   34.6651   46.6606 H   0  0  0  0  0  0  0  0  0  0  0  0
   59.3928   34.2068   45.1145 H   0  0  0  0  0  0  0  0  0  0  0  0
   59.5608   32.4012   45.1726 H   0  0  0  0  0  0  0  0  0  0  0  0
   53.7803   25.3905   45.7636 H   0  0  0  0  0  0  0  0  0  0  0  0
   55.0997   25.3006   44.5313 H   0  0  0  0  0  0  0  0  0  0  0  0
   56.1550   24.6487   47.1553 H   0  0  0  0  0  0  0  0  0  0  0  0
   54.7016   23.6263   46.7818 H   0  0  0  0  0  0  0  0  0  0  0  0
   54.8570   23.3231   43.8720 H   0  0  0  0  0  0  0  0  0  0  0  0
   56.2618   21.9304   42.3501 H   0  0  0  0  0  0  0  0  0  0  0  0
   58.5398   21.2011   43.0662 H   0  0  0  0  0  0  0  0  0  0  0  0
   59.4137   21.8569   45.3115 H   0  0  0  0  0  0  0  0  0  0  0  0
   58.0137   23.2434   46.8428 H   0  0  0  0  0  0  0  0  0  0  0  0
   54.9965   28.8234   44.3590 H   0  0  0  0  0  0  0  0  0  0  0  0
  1  2  1  0
  2  3  1  0
  3  4  1  0
  4  5  2  0
  5  6  1  0
  6  7  2  0
  7  8  1  0
  8  9  2  0
  9 10  1  0
 10 11  1  0
 11 12  2  0
 11 13  1  0
 13 14  1  0
 14 15  1  0
 15 16  2  0
 16 17  1  0
 17 18  2  0
 17 19  1  0
 19 20  1  0
 20 21  2  0
 20 22  1  0
 22 23  1  0
 23 24  1  0
 24 25  1  0
 25 26  2  0
 26 27  1  0
 27 28  2  0
 28 29  1  0
 29 30  2  0
 19 31  2  0
 31 32  1  0
 10  2  1  0
 32 15  1  0
  9  4  1  0
 30 25  1  0
  1 33  1  0
  1 34  1  0
  1 35  1  0
  2 36  1  6
  3 37  1  0
  3 38  1  0
  5 39  1  0
  6 40  1  0
  7 41  1  0
  8 42  1  0
 13 43  1  0
 13 44  1  0
 23 45  1  0
 23 46  1  0
 24 47  1  0
 24 48  1  0
 26 49  1  0
 27 50  1  0
 28 51  1  0
 29 52  1  0
 30 53  1  0
 31 54  1  0
M  CHG  2  22  -1  32  -1
M  END
>  <UniqueID>  (26) 
23

>  <SMILES>  (26) 
C[C@@H]1Cc2ccccc2N1C(=O)CSc1nc(=O)c(C(=O)[N-]CCc2ccccc2)c[n-]1

>  <Energy>  (26) 
70.17494113795607

>  <Genealogy>  (26) 
CC1Cc2ccccc2N1C(=O)CSc1nc(=O)c(C(=O)[N-]CCc2ccccc2)c[n-]1 (protonated)
C[C@@H]1Cc2ccccc2N1C(=O)CSc1nc(=O)c(C(=O)[N-]CCc2ccccc2)c[n-]1 (chirality)
C[C@@H]1Cc2ccccc2N1C(=O)CSc1nc(=O)c(C(=O)[N-]CCc2ccccc2)c[n-]1 (3D coordinates assigned)
C[C@@H]1Cc2ccccc2N1C(=O)CSc1nc(=O)c(C(=O)[N-]CCc2ccccc2)c[n-]1 (nonaromatic ring conformer: 70.17494113795607 kcal/mol)

>  <smiles>  (26) 
CC1Cc2ccccc2N1C(=O)CSc1nc(=O)c(C(=O)NCCc2ccccc2)c[nH]1

>  <score_type>  (26) 
oracle

>  <origin>  (26) 
adg

>  <m_score__min__energy>  (26) 
-13.470000000000001

>  <m_primary>  (26) 
energy

$$$$
26:0
     RDKit          3D

 32 34  0  0  0  0  0  0  0  0999 V2000
   59.5883   27.2159   47.6887 H   0  0  0  0  0  0  0  0  0  0  0  0
   59.0160   28.1460   47.5570 C   0  0  0  0  0  0  0  0  0  0  0  0
   57.8570   28.0710   46.8840 C   0  0  0  0  0  0  0  0  0  0  0  0
   57.2522   27.1560   46.9679 H   0  0  0  0  0  0  0  0  0  0  0  0
   57.3640   29.1800   46.0310 C   0  0  0  0  0  0  0  0  0  0  0  0
   58.0240   30.3710   46.0200 N   0  0  0  0  0  0  0  0  0  0  0  0
   57.6130   31.4180   45.2580 C   0  0  0  0  0  0  0  0  0  0  0  0
   58.3830   32.6790   45.3000 C   0  0  0  0  0  0  0  0  0  0  0  0
   57.9140   34.1070   44.5380 S   0  0  0  0  0  0  0  0  0  0  0  0
   59.2310   35.0310   45.0240 C   0  0  0  0  0  0  0  0  0  0  0  0
   59.4054   36.0882   44.7750 H   0  0  0  0  0  0  0  0  0  0  0  0
   60.0600   34.2280   45.7940 C   0  0  0  0  0  0  0  0  0  0  0  0
   60.9989   34.5877   46.2402 H   0  0  0  0  0  0  0  0  0  0  0  0
   59.5920   32.9180   45.9510 C   0  0  0  0  0  0  0  0  0  0  0  0
   60.1265   32.1518   46.5317 H   0  0  0  0  0  0  0  0  0  0  0  0
   56.4760   31.2660   44.4560 C   0  0  0  0  0  0  0  0  0  0  0  0
   56.1198   32.0950   43.8268 H   0  0  0  0  0  0  0  0  0  0  0  0
   55.8030   30.0450   44.4690 C   0  0  0  0  0  0  0  0  0  0  0  0
   54.7770   29.8920   43.7520 O   0  0  0  0  0  0  0  0  0  0  0  0
   56.2510   29.0220   45.2510 N   0  0  0  0  0  0  0  0  0  0  0  0
   55.5680   27.8240   45.2460 O   0  0  0  0  0  0  0  0  0  0  0  0
   59.5860   29.3930   48.1390 C   0  0  0  0  0  0  0  0  0  0  0  0
   58.8770   30.0210   49.1800 C   0  0  0  0  0  0  0  0  0  0  0  0
   57.9327   29.5832   49.5360 H   0  0  0  0  0  0  0  0  0  0  0  0
   59.3590   31.1950   49.7670 C   0  0  0  0  0  0  0  0  0  0  0  0
   58.7934   31.6751   50.5792 H   0  0  0  0  0  0  0  0  0  0  0  0
   60.5570   31.7590   49.3240 C   0  0  0  0  0  0  0  0  0  0  0  0
   61.1600   33.2310   50.0620 Cl  0  0  0  0  0  0  0  0  0  0  0  0
   61.2730   31.1490   48.2920 C   0  0  0  0  0  0  0  0  0  0  0  0
   62.2168   31.5934   47.9430 H   0  0  0  0  0  0  0  0  0  0  0  0
   60.7950   29.9750   47.7000 C   0  0  0  0  0  0  0  0  0  0  0  0
   61.3651   29.5021   46.8868 H   0  0  0  0  0  0  0  0  0  0  0  0
  1  2  1  0
  2  3  2  0
  3  4  1  0
  3  5  1  0
  5  6  2  0
  6  7  1  0
  7  8  1  0
  8  9  1  0
  9 10  1  0
 10 11  1  0
 10 12  2  0
 12 13  1  0
 12 14  1  0
 14 15  1  0
  7 16  2  0
 16 17  1  0
 16 18  1  0
 18 19  2  0
 18 20  1  0
 20 21  1  0
  2 22  1  0
 22 23  2  0
 23 24  1  0
 23 25  1  0
 25 26  1  0
 25 27  2  0
 27 28  1  0
 27 29  1  0
 29 30  1  0
 29 31  2  0
 31 32  1  0
 20  5  1  0
 31 22  1  0
 14  8  2  0
M  CHG  1  21  -1
M  END
>  <UniqueID>  (27) 
24

>  <SMILES>  (27) 
O=c1cc(-c2cccs2)nc(/C=C/c2ccc(Cl)cc2)n1[O-]

>  <Energy>  (27) 
66.11151095086926

>  <Genealogy>  (27) 
O=c1cc(-c2cccs2)nc(C=Cc2ccc(Cl)cc2)n1[O-] (protonated)
O=c1cc(-c2cccs2)nc(/C=C/c2ccc(Cl)cc2)n1[O-] (cis-trans isomerization)
O=c1cc(-c2cccs2)nc(/C=C/c2ccc(Cl)cc2)n1[O-] (3D coordinates assigned)
O=c1cc(-c2cccs2)nc(/C=C/c2ccc(Cl)cc2)n1[O-] (optimized conformer: 66.11151095086926 kcal/mol)

>  <smiles>  (27) 
O=c1cc(-c2cccs2)nc(C=Cc2ccc(Cl)cc2)n1O

>  <score_type>  (27) 
oracle

>  <origin>  (27) 
adg

>  <m_score__min__energy>  (27) 
-10.32

>  <m_primary>  (27) 
energy

$$$$
27:0
     RDKit          3D

 32 33  0  0  0  0  0  0  0  0999 V2000
   55.5410   29.7210   46.0000 H   0  0  0  0  0  0  0  0  0  0  0  0
   55.5360   29.6630   44.9870 O   0  0  0  0  0  0  0  0  0  0  0  0
   56.2740   30.5460   44.2030 C   0  0  0  0  0  0  0  0  0  0  0  0
   56.3190   30.3630   42.8180 C   0  0  0  0  0  0  0  0  0  0  0  0
   55.7644   29.5332   42.3556 H   0  0  0  0  0  0  0  0  0  0  0  0
   57.0670   31.2320   42.0200 C   0  0  0  0  0  0  0  0  0  0  0  0
   57.1051   31.0818   40.9310 H   0  0  0  0  0  0  0  0  0  0  0  0
   57.7670   32.2920   42.6030 C   0  0  0  0  0  0  0  0  0  0  0  0
   58.3605   32.9675   41.9695 H   0  0  0  0  0  0  0  0  0  0  0  0
   57.7190   32.5020   43.9910 C   0  0  0  0  0  0  0  0  0  0  0  0
   58.4880   33.6350   44.5640 C   0  0  0  0  0  0  0  0  0  0  0  0
   59.1442   34.2087   43.8930 H   0  0  0  0  0  0  0  0  0  0  0  0
   58.4280   33.9990   45.8540 C   0  0  0  0  0  0  0  0  0  0  0  0
   57.4583   34.3038   46.2745 H   0  0  0  0  0  0  0  0  0  0  0  0
   59.6180   34.0050   46.7300 C   0  0  0  0  0  0  0  0  0  0  0  0
   59.4890   34.1140   48.0780 N   0  0  0  0  0  0  0  0  0  0  0  0
   60.5700   34.1250   48.9000 C   0  0  0  0  0  0  0  0  0  0  0  0
   60.3860   34.2150   50.1440 O   0  0  0  0  0  0  0  0  0  0  0  0
   61.8380   34.0370   48.3810 N   0  0  0  0  0  0  0  0  0  0  0  0
   63.0100   34.0260   49.2780 C   0  0  0  0  0  0  0  0  0  0  0  0
   62.6781   34.2162   50.3094 H   0  0  0  0  0  0  0  0  0  0  0  0
   63.7123   34.8086   48.9549 H   0  0  0  0  0  0  0  0  0  0  0  0
   63.7160   32.6750   49.2190 C   0  0  0  0  0  0  0  0  0  0  0  0
   63.9043   32.3147   50.2411 H   0  0  0  0  0  0  0  0  0  0  0  0
   63.0804   31.9521   48.6867 H   0  0  0  0  0  0  0  0  0  0  0  0
   64.6724   32.7840   48.6867 H   0  0  0  0  0  0  0  0  0  0  0  0
   62.0020   33.9060   47.0250 C   0  0  0  0  0  0  0  0  0  0  0  0
   63.1540   33.7910   46.5220 O   0  0  0  0  0  0  0  0  0  0  0  0
   60.8930   33.8960   46.1770 C   0  0  0  0  0  0  0  0  0  0  0  0
   61.0233   33.8035   45.0887 H   0  0  0  0  0  0  0  0  0  0  0  0
   56.9760   31.6100   44.7900 C   0  0  0  0  0  0  0  0  0  0  0  0
   56.9461   31.7487   45.8808 H   0  0  0  0  0  0  0  0  0  0  0  0
  1  2  1  0
  2  3  1  0
  3  4  2  0
  4  5  1  0
  4  6  1  0
  6  7  1  0
  6  8  2  0
  8  9  1  0
  8 10  1  0
 10 11  1  0
 11 12  1  0
 11 13  2  0
 13 14  1  0
 13 15  1  0
 15 16  1  0
 16 17  1  0
 17 18  2  0
 17 19  1  0
 19 20  1  0
 20 21  1  0
 20 22  1  0
 20 23  1  0
 23 24  1  0
 23 25  1  0
 23 26  1  0
 19 27  1  0
 27 28  2  0
 27 29  1  0
 29 30  1  0
 10 31  2  0
 31 32  1  0
 31  3  1  0
 29 15  2  0
M  CHG  1  16  -1
M  END
>  <UniqueID>  (28) 
25

>  <SMILES>  (28) 
CCn1c(=O)cc(/C=C/c2cccc(O)c2)[n-]c1=O

>  <Energy>  (28) 
35.71006507874125

>  <Genealogy>  (28) 
CCn1c(=O)cc(C=Cc2cccc(O)c2)[n-]c1=O (protonated)
CCn1c(=O)cc(/C=C/c2cccc(O)c2)[n-]c1=O (cis-trans isomerization)
CCn1c(=O)cc(/C=C/c2cccc(O)c2)[n-]c1=O (3D coordinates assigned)
CCn1c(=O)cc(/C=C/c2cccc(O)c2)[n-]c1=O (optimized conformer: 35.71006507874125 kcal/mol)

>  <smiles>  (28) 
CCn1c(=O)cc(C=Cc2cccc(O)c2)[nH]c1=O

>  <score_type>  (28) 
oracle

>  <origin>  (28) 
adg

>  <m_score__min__energy>  (28) 
-8.5800000000000001

>  <m_primary>  (28) 
energy

$$$$
28:0
     RDKit          3D

 45 47  0  0  0  0  0  0  0  0999 V2000
   56.0970   28.9250   52.5060 O   0  0  0  0  0  0  0  0  0  0  0  0
   55.2740   29.8810   52.4840 C   0  0  0  0  0  0  0  0  0  0  0  0
   53.8650   29.6440   52.9330 C   0  0  0  0  0  0  0  0  0  0  0  0
   52.9030   30.3410   52.0110 C   0  0  0  0  0  0  0  0  0  0  0  0
   52.6260   29.8070   50.7420 C   0  0  0  0  0  0  0  0  0  0  0  0
   51.7580   30.4720   49.8710 C   0  0  0  0  0  0  0  0  0  0  0  0
   51.1670   31.6790   50.2570 C   0  0  0  0  0  0  0  0  0  0  0  0
   50.3040   32.3390   49.3910 O   0  0  0  0  0  0  0  0  0  0  0  0
   51.4460   32.2230   51.5140 C   0  0  0  0  0  0  0  0  0  0  0  0
   52.3140   31.5600   52.3880 C   0  0  0  0  0  0  0  0  0  0  0  0
   55.6510   31.1600   51.9510 N   0  0  0  0  0  0  0  0  0  0  0  0
   57.0020   31.5330   51.6310 C   0  0  0  0  0  0  0  0  0  0  0  0
   57.5210   32.7910   51.9850 C   0  0  0  0  0  0  0  0  0  0  0  0
   58.8320   33.1350   51.6440 C   0  0  0  0  0  0  0  0  0  0  0  0
   59.6390   32.2340   50.9360 C   0  0  0  0  0  0  0  0  0  0  0  0
   61.2980   32.6670   50.5140 S   0  0  0  0  0  0  0  0  0  0  0  0
   62.2200   31.5560   50.9360 O   0  0  0  0  0  0  0  0  0  0  0  0
   61.6910   33.9080   51.2670 O   0  0  0  0  0  0  0  0  0  0  0  0
   61.4810   32.9510   48.8010 N   0  0  0  0  0  0  0  0  0  0  0  0
   60.4620   33.9000   48.3240 C   0  0  0  0  0  0  0  0  0  0  0  0
   60.6930   34.2330   46.8350 C   0  0  0  0  0  0  0  0  0  0  0  0
   61.7660   33.4860   46.2940 O   0  0  0  0  0  0  0  0  0  0  0  0
   62.9580   33.7800   46.9990 C   0  0  0  0  0  0  0  0  0  0  0  0
   62.8270   33.4640   48.5050 C   0  0  0  0  0  0  0  0  0  0  0  0
   59.1170   30.9900   50.5590 C   0  0  0  0  0  0  0  0  0  0  0  0
   57.8050   30.6450   50.8990 C   0  0  0  0  0  0  0  0  0  0  0  0
   53.6579   28.5637   52.9254 H   0  0  0  0  0  0  0  0  0  0  0  0
   53.7403   30.0426   53.9506 H   0  0  0  0  0  0  0  0  0  0  0  0
   53.0942   28.8611   50.4320 H   0  0  0  0  0  0  0  0  0  0  0  0
   51.5397   30.0453   48.8809 H   0  0  0  0  0  0  0  0  0  0  0  0
   50.9824   33.1736   51.8163 H   0  0  0  0  0  0  0  0  0  0  0  0
   52.5363   31.9943   53.3739 H   0  0  0  0  0  0  0  0  0  0  0  0
   54.8860   31.8250   51.6950 H   0  0  0  0  0  0  0  0  0  0  0  0
   56.8920   33.5080   52.5331 H   0  0  0  0  0  0  0  0  0  0  0  0
   59.2325   34.1180   51.9328 H   0  0  0  0  0  0  0  0  0  0  0  0
   59.4646   33.4521   48.4449 H   0  0  0  0  0  0  0  0  0  0  0  0
   60.5337   34.8266   48.9124 H   0  0  0  0  0  0  0  0  0  0  0  0
   59.7772   34.0016   46.2713 H   0  0  0  0  0  0  0  0  0  0  0  0
   60.9437   35.3012   46.7565 H   0  0  0  0  0  0  0  0  0  0  0  0
   63.7776   33.1784   46.5790 H   0  0  0  0  0  0  0  0  0  0  0  0
   63.1618   34.8556   46.8920 H   0  0  0  0  0  0  0  0  0  0  0  0
   63.5741   32.7062   48.7836 H   0  0  0  0  0  0  0  0  0  0  0  0
   62.9945   34.3860   49.0811 H   0  0  0  0  0  0  0  0  0  0  0  0
   59.7410   30.2822   49.9937 H   0  0  0  0  0  0  0  0  0  0  0  0
   57.3995   29.6702   50.5903 H   0  0  0  0  0  0  0  0  0  0  0  0
  1  2  2  0
  2  3  1  0
  3  4  1  0
  4  5  2  0
  5  6  1  0
  6  7  2  0
  7  8  1  0
  7  9  1  0
  9 10  2  0
  2 11  1  0
 11 12  1  0
 12 13  2  0
 13 14  1  0
 14 15  2  0
 15 16  1  0
 16 17  2  0
 16 18  2  0
 16 19  1  0
 19 20  1  0
 20 21  1  0
 21 22  1  0
 22 23  1  0
 23 24  1  0
 15 25  1  0
 25 26  2  0
 10  4  1  0
 26 12  1  0
 24 19  1  0
  3 27  1  0
  3 28  1  0
  5 29  1  0
  6 30  1  0
  9 31  1  0
 10 32  1  0
 11 33  1  0
 13 34  1  0
 14 35  1  0
 20 36  1  0
 20 37  1  0
 21 38  1  0
 21 39  1  0
 23 40  1  0
 23 41  1  0
 24 42  1  0
 24 43  1  0
 25 44  1  0
 26 45  1  0
M  CHG  1   8  -1
M  END
>  <UniqueID>  (29) 
26

>  <SMILES>  (29) 
O=C(Cc1ccc([O-])cc1)Nc1ccc(S(=O)(=O)N2CCOCC2)cc1

>  <Energy>  (29) 
54.67369839730542

>  <Genealogy>  (29) 
O=C(Cc1ccc([O-])cc1)Nc1ccc(S(=O)(=O)N2CCOCC2)cc1 (protonated)
O=C(Cc1ccc([O-])cc1)Nc1ccc(S(=O)(=O)N2CCOCC2)cc1 (3D coordinates assigned)
O=C(Cc1ccc([O-])cc1)Nc1ccc(S(=O)(=O)N2CCOCC2)cc1 (nonaromatic ring conformer: 54.67369839730542 kcal/mol)

>  <smiles>  (29) 
O=C(Cc1ccc(O)cc1)Nc1ccc(S(=O)(=O)N2CCOCC2)cc1

>  <score_type>  (29) 
oracle

>  <origin>  (29) 
adg

>  <m_score__min__energy>  (29) 
-11.84

>  <m_primary>  (29) 
energy

$$$$
29:0
     RDKit          3D

 33 34  0  0  0  0  0  0  0  0999 V2000
   57.7760   32.7190   43.9230 C   0  0  0  0  0  0  0  0  0  0  0  0
   57.4260   31.1650   44.7490 S   0  0  0  0  0  0  0  0  0  0  0  0
   55.9680   30.8530   44.6430 O   0  0  0  0  0  0  0  0  0  0  0  0
   57.7280   31.3680   46.2090 O   0  0  0  0  0  0  0  0  0  0  0  0
   58.4620   29.9640   44.1170 N   0  0  0  0  0  0  0  0  0  0  0  0
   58.7620   28.7700   44.8350 C   0  0  0  0  0  0  0  0  0  0  0  0
   60.0760   28.5440   45.1960 C   0  0  0  0  0  0  0  0  0  0  0  0
   60.3520   27.3900   45.8870 C   0  0  0  0  0  0  0  0  0  0  0  0
   59.3650   26.4840   46.2130 C   0  0  0  0  0  0  0  0  0  0  0  0
   58.0260   26.6930   45.8570 C   0  0  0  0  0  0  0  0  0  0  0  0
   56.9990   25.7040   46.2200 C   0  0  0  0  0  0  0  0  0  0  0  0
   56.7910   24.6410   45.2160 C   0  0  0  0  0  0  0  0  0  0  0  0
   56.5350   23.3380   45.6360 C   0  0  0  0  0  0  0  0  0  0  0  0
   56.3350   22.3220   44.7170 C   0  0  0  0  0  0  0  0  0  0  0  0
   56.1000   21.1290   45.0580 O   0  0  0  0  0  0  0  0  0  0  0  0
   56.3870   22.5910   43.3650 C   0  0  0  0  0  0  0  0  0  0  0  0
   56.2150   21.7190   42.4750 O   0  0  0  0  0  0  0  0  0  0  0  0
   56.6370   23.8610   43.0040 N   0  0  0  0  0  0  0  0  0  0  0  0
   56.8290   24.8320   43.8880 N   0  0  0  0  0  0  0  0  0  0  0  0
   57.7770   27.8600   45.1640 C   0  0  0  0  0  0  0  0  0  0  0  0
   56.5110   28.1450   44.7820 F   0  0  0  0  0  0  0  0  0  0  0  0
   57.9524   33.5023   44.6749 H   0  0  0  0  0  0  0  0  0  0  0  0
   58.6713   32.6063   43.2939 H   0  0  0  0  0  0  0  0  0  0  0  0
   56.9189   33.0010   43.2939 H   0  0  0  0  0  0  0  0  0  0  0  0
   58.9110   30.0860   43.1590 H   0  0  0  0  0  0  0  0  0  0  0  0
   60.8703   29.2606   44.9399 H   0  0  0  0  0  0  0  0  0  0  0  0
   61.3892   27.1825   46.1889 H   0  0  0  0  0  0  0  0  0  0  0  0
   59.6359   25.5732   46.7671 H   0  0  0  0  0  0  0  0  0  0  0  0
   57.2982   25.2293   47.1661 H   0  0  0  0  0  0  0  0  0  0  0  0
   56.0488   26.2530   46.2961 H   0  0  0  0  0  0  0  0  0  0  0  0
   56.4911   23.1132   46.7119 H   0  0  0  0  0  0  0  0  0  0  0  0
   56.6830   24.0920   41.9790 H   0  0  0  0  0  0  0  0  0  0  0  0
   57.0140   25.7830   43.5150 H   0  0  0  0  0  0  0  0  0  0  0  0
  1  2  1  0
  2  3  2  0
  2  4  2  0
  2  5  1  0
  5  6  1  0
  6  7  2  0
  7  8  1  0
  8  9  2  0
  9 10  1  0
 10 11  1  0
 11 12  1  0
 12 13  2  0
 13 14  1  0
 14 15  2  0
 14 16  1  0
 16 17  2  0
 16 18  1  0
 18 19  1  0
 10 20  2  0
 20 21  1  0
 20  6  1  0
 19 12  1  0
  1 22  1  0
  1 23  1  0
  1 24  1  0
  5 25  1  0
  7 26  1  0
  8 27  1  0
  9 28  1  0
 11 29  1  0
 11 30  1  0
 13 31  1  0
 18 32  1  0
 19 33  1  0
M  END
>  <smiles>  (30) 
CS(=O)(=O)Nc1cccc(Cc2cc(=O)c(=O)[nH][nH]2)c1F

>  <score_type>  (30) 
oracle

>  <origin>  (30) 
adg

>  <m_score__min__energy>  (30) 
-7.6299999999999999

>  <m_primary>  (30) 
energy

$$$$
30:0
     RDKit          3D

 63 66  0  0  1  0  0  0  0  0999 V2000
   57.4680   21.1590   43.0060 C   0  0  0  0  0  0  0  0  0  0  0  0
   56.1500   21.1010   43.4730 O   0  0  0  0  0  0  0  0  0  0  0  0
   55.9100   21.3660   44.8190 C   0  0  0  0  0  0  0  0  0  0  0  0
   55.5360   22.6590   45.1400 C   0  0  0  0  0  0  0  0  0  0  0  0
   55.2890   22.9590   46.4840 C   0  0  0  0  0  0  0  0  0  0  0  0
   54.9460   24.1680   46.7320 N   0  0  0  0  0  0  0  0  0  0  0  0
   55.7730   25.2200   46.2630 C   0  0  0  0  0  0  0  0  0  0  0  0
   55.2460   26.3300   46.0220 O   0  0  0  0  0  0  0  0  0  0  0  0
   57.1730   25.0910   46.0470 N   0  0  0  0  0  0  0  0  0  0  0  0
   57.8420   26.2710   45.5680 C   0  0  0  0  0  0  0  0  0  0  0  0
   57.8300   26.4610   44.2090 C   0  0  0  0  0  0  0  0  0  0  0  0
   58.4620   27.5840   43.6640 C   0  0  0  0  0  0  0  0  0  0  0  0
   59.0820   28.4680   44.5280 C   0  0  0  0  0  0  0  0  0  0  0  0
   59.0860   28.2600   45.9090 C   0  0  0  0  0  0  0  0  0  0  0  0
   59.7630   29.2300   46.7830 C   0  0  0  0  0  0  0  0  0  0  0  0
   60.4620   28.8020   47.8920 C   0  0  0  0  0  0  0  0  0  0  0  0
   61.0900   29.6860   48.7050 N   0  0  0  0  0  0  0  0  0  0  0  0
   61.0030   31.0000   48.3840 C   0  0  0  0  0  0  0  0  0  0  0  0
   61.5860   31.8640   49.1360 N   0  0  0  0  0  0  0  0  0  0  0  0
   61.5560   33.2880   48.9730 C   0  0  0  0  0  0  0  0  0  0  0  0
   60.1590   33.7540   49.2490 C   0  0  0  0  0  0  0  0  0  0  0  0
   59.6190   34.7470   48.2600 C   0  0  0  0  0  0  0  0  0  0  0  0
   58.9890   34.2380   47.1220 N   0  0  0  0  0  0  0  0  0  0  0  0
   57.9650   33.2810   47.2340 C   0  0  0  0  0  0  0  0  0  0  0  0
   57.0200   33.4920   46.0430 C   0  0  0  0  0  0  0  0  0  0  0  0
   57.7240   33.4240   44.8410 O   0  0  0  0  0  0  0  0  0  0  0  0
   58.5910   34.5330   44.8110 C   0  0  0  0  0  0  0  0  0  0  0  0
   59.6470   34.2070   45.8820 C   0  0  0  0  0  0  0  0  0  0  0  0
   60.3320   31.4480   47.3120 N   0  0  0  0  0  0  0  0  0  0  0  0
   59.7170   30.5630   46.5180 C   0  0  0  0  0  0  0  0  0  0  0  0
   59.0280   31.0560   45.4130 O   0  0  0  0  0  0  0  0  0  0  0  0
   58.4550   27.1410   46.4460 C   0  0  0  0  0  0  0  0  0  0  0  0
   55.4180   21.9990   47.4160 N   0  0  0  0  0  0  0  0  0  0  0  0
   55.7840   20.7400   47.0900 C   0  0  0  0  0  0  0  0  0  0  0  0
   56.0290   20.4320   45.7830 N   0  0  0  0  0  0  0  0  0  0  0  0
   58.1590   21.1894   43.8613 H   0  0  0  0  0  0  0  0  0  0  0  0
   57.6799   20.2693   42.3948 H   0  0  0  0  0  0  0  0  0  0  0  0
   57.6010   22.0639   42.3948 H   0  0  0  0  0  0  0  0  0  0  0  0
   55.4358   23.4289   44.3608 H   0  0  0  0  0  0  0  0  0  0  0  0
   57.6400   24.1980   46.2320 H   0  0  0  0  0  0  0  0  0  0  0  0
   57.3270   25.7355   43.5527 H   0  0  0  0  0  0  0  0  0  0  0  0
   58.4656   27.7589   42.5780 H   0  0  0  0  0  0  0  0  0  0  0  0
   59.5842   29.3565   44.1176 H   0  0  0  0  0  0  0  0  0  0  0  0
   60.5106   27.7270   48.1202 H   0  0  0  0  0  0  0  0  0  0  0  0
   62.2539   33.7599   49.6802 H   0  0  0  0  0  0  0  0  0  0  0  0
   61.8568   33.5631   47.9513 H   0  0  0  0  0  0  0  0  0  0  0  0
   59.4982   32.8746   49.2464 H   0  0  0  0  0  0  0  0  0  0  0  0
   60.1910   34.2702   50.2198 H   0  0  0  0  0  0  0  0  0  0  0  0
   58.8883   35.3765   48.7889 H   0  0  0  0  0  0  0  0  0  0  0  0
   60.5042   35.2779   47.8799 H   0  0  0  0  0  0  0  0  0  0  0  0
   58.3907   32.2672   47.2033 H   0  0  0  0  0  0  0  0  0  0  0  0
   57.4264   33.3927   48.1866 H   0  0  0  0  0  0  0  0  0  0  0  0
   56.2453   32.7111   46.0531 H   0  0  0  0  0  0  0  0  0  0  0  0
   56.5580   34.4867   46.1281 H   0  0  0  0  0  0  0  0  0  0  0  0
   59.0578   34.6381   43.8205 H   0  0  0  0  0  0  0  0  0  0  0  0
   58.0710   35.4830   45.0036 H   0  0  0  0  0  0  0  0  0  0  0  0
   60.0719   33.2082   45.7034 H   0  0  0  0  0  0  0  0  0  0  0  0
   60.4737   34.9321   45.8552 H   0  0  0  0  0  0  0  0  0  0  0  0
   60.2840   32.4470   47.0910 H   0  0  0  0  0  0  0  0  0  0  0  0
   58.7740   32.0160   45.2910 H   0  0  0  0  0  0  0  0  0  0  0  0
   58.4456   26.9573   47.5305 H   0  0  0  0  0  0  0  0  0  0  0  0
   55.2280   22.2430   48.4300 H   0  0  0  0  0  0  0  0  0  0  0  0
   55.8836   19.9708   47.8701 H   0  0  0  0  0  0  0  0  0  0  0  0
  1  2  1  0
  2  3  1  0
  3  4  2  0
  4  5  1  0
  5  6  2  0
  6  7  1  0
  7  8  2  0
  7  9  1  0
  9 10  1  0
 10 11  2  0
 11 12  1  0
 12 13  2  0
 13 14  1  0
 14 15  1  0
 15 16  1  0
 16 17  2  0
 17 18  1  0
 18 19  2  0
 19 20  1  0
 20 21  1  0
 21 22  1  0
 22 23  1  0
 23 24  1  0
 24 25  1  0
 25 26  1  0
 26 27  1  0
 27 28  1  0
 18 29  1  0
 29 30  1  0
 30 31  1  0
 14 32  2  0
  5 33  1  0
 33 34  1  0
 34 35  2  0
 35  3  1  0
 32 10  1  0
 30 15  2  0
 28 23  1  0
  1 36  1  0
  1 37  1  0
  1 38  1  0
  4 39  1  0
  9 40  1  0
 11 41  1  0
 12 42  1  0
 13 43  1  0
 16 44  1  0
 20 45  1  0
 20 46  1  0
 21 47  1  0
 21 48  1  0
 22 49  1  0
 22 50  1  0
 24 51  1  0
 24 52  1  0
 25 53  1  0
 25 54  1  0
 27 55  1  0
 27 56  1  0
 28 57  1  0
 28 58  1  0
 29 59  1  0
 31 60  1  0
 32 61  1  0
 33 62  1  0
 34 63  1  0
M  END
>  <smiles>  (31) 
COc1cc(=NC(=O)Nc2cccc(-c3cnc(=NCCCN4CCOCC4)[nH]c3O)c2)[nH]cn1

>  <score_type>  (31) 
oracle

>  <origin>  (31) 
adg

>  <m_score__min__energy>  (31) 
-9.0099999999999998

>  <m_primary>  (31) 
energy

$$$$
31:0
     RDKit          3D

 35 36  0  0  0  0  0  0  0  0999 V2000
   59.5773   30.9210   47.5569 H   0  0  0  0  0  0  0  0  0  0  0  0
   59.0420   31.4880   46.7810 C   0  0  0  0  0  0  0  0  0  0  0  0
   57.9640   30.9420   46.1630 N   0  0  0  0  0  0  0  0  0  0  0  0
   57.2800   31.6240   45.2030 C   0  0  0  0  0  0  0  0  0  0  0  0
   56.2540   31.1010   44.5960 N   0  0  0  0  0  0  0  0  0  0  0  0
   55.9440   29.7050   44.4390 C   0  0  0  0  0  0  0  0  0  0  0  0
   54.9430   29.3890   43.7420 O   0  0  0  0  0  0  0  0  0  0  0  0
   56.7640   28.6220   45.0820 C   0  0  0  0  0  0  0  0  0  0  0  0
   57.4360   28.1818   44.3305 H   0  0  0  0  0  0  0  0  0  0  0  0
   57.3501   29.0590   45.9039 H   0  0  0  0  0  0  0  0  0  0  0  0
   55.8980   27.5800   45.6210 N   0  0  0  0  0  0  0  0  0  0  0  0
   56.2770   26.2070   45.7740 C   0  0  0  0  0  0  0  0  0  0  0  0
   55.4680   25.4130   46.3200 O   0  0  0  0  0  0  0  0  0  0  0  0
   57.5960   25.6790   45.2770 C   0  0  0  0  0  0  0  0  0  0  0  0
   58.0039   26.3745   44.5287 H   0  0  0  0  0  0  0  0  0  0  0  0
   58.2837   25.5884   46.1308 H   0  0  0  0  0  0  0  0  0  0  0  0
   57.4260   24.3210   44.6480 C   0  0  0  0  0  0  0  0  0  0  0  0
   56.4420   24.1160   43.6650 C   0  0  0  0  0  0  0  0  0  0  0  0
   55.7922   24.9492   43.3593 H   0  0  0  0  0  0  0  0  0  0  0  0
   56.2850   22.8590   43.0740 C   0  0  0  0  0  0  0  0  0  0  0  0
   55.5148   22.7065   42.3036 H   0  0  0  0  0  0  0  0  0  0  0  0
   57.1060   21.7950   43.4610 C   0  0  0  0  0  0  0  0  0  0  0  0
   56.9845   20.8074   42.9921 H   0  0  0  0  0  0  0  0  0  0  0  0
   58.0800   21.9870   44.4430 C   0  0  0  0  0  0  0  0  0  0  0  0
   58.7226   21.1488   44.7502 H   0  0  0  0  0  0  0  0  0  0  0  0
   58.2400   23.2440   45.0370 C   0  0  0  0  0  0  0  0  0  0  0  0
   59.0068   23.3895   45.8122 H   0  0  0  0  0  0  0  0  0  0  0  0
   57.6950   32.8680   44.8450 N   0  0  0  0  0  0  0  0  0  0  0  0
   58.7700   33.4550   45.4360 C   0  0  0  0  0  0  0  0  0  0  0  0
   59.1810   34.8360   45.0360 C   0  0  0  0  0  0  0  0  0  0  0  0
   59.3609   35.4405   45.9372 H   0  0  0  0  0  0  0  0  0  0  0  0
   60.1030   34.7855   44.4383 H   0  0  0  0  0  0  0  0  0  0  0  0
   58.3814   35.2979   44.4383 H   0  0  0  0  0  0  0  0  0  0  0  0
   59.4700   32.7670   46.4320 C   0  0  0  0  0  0  0  0  0  0  0  0
   60.3383   33.2250   46.9283 H   0  0  0  0  0  0  0  0  0  0  0  0
  1  2  1  0
  2  3  1  0
  3  4  1  0
  4  5  2  0
  5  6  1  0
  6  7  2  0
  6  8  1  0
  8  9  1  0
  8 10  1  0
  8 11  1  0
 11 12  1  0
 12 13  2  0
 12 14  1  0
 14 15  1  0
 14 16  1  0
 14 17  1  0
 17 18  2  0
 18 19  1  0
 18 20  1  0
 20 21  1  0
 20 22  2  0
 22 23  1  0
 22 24  1  0
 24 25  1  0
 24 26  2  0
 26 27  1  0
  4 28  1  0
 28 29  2  0
 29 30  1  0
 30 31  1  0
 30 32  1  0
 30 33  1  0
 29 34  1  0
 34 35  1  0
 34  2  2  0
 26 17  1  0
M  CHG  2   3  -1  11  -1
M  END
>  <UniqueID>  (32) 
27

>  <SMILES>  (32) 
Cc1cc[n-]/c(=N\C(=O)C[N-]C(=O)Cc2ccccc2)n1

>  <Energy>  (32) 
35.61392340331873

>  <Genealogy>  (32) 
Cc1cc[n-]c(=NC(=O)C[N-]C(=O)Cc2ccccc2)n1 (protonated)
Cc1cc[n-]/c(=N\C(=O)C[N-]C(=O)Cc2ccccc2)n1 (cis-trans isomerization)
Cc1cc[n-]/c(=N\C(=O)C[N-]C(=O)Cc2ccccc2)n1 (3D coordinates assigned)
Cc1cc[n-]/c(=N\C(=O)C[N-]C(=O)Cc2ccccc2)n1 (optimized conformer: 35.61392340331873 kcal/mol)

>  <smiles>  (32) 
Cc1cc[nH]c(=NC(=O)CNC(=O)Cc2ccccc2)n1

>  <score_type>  (32) 
oracle

>  <origin>  (32) 
adg

>  <m_score__min__energy>  (32) 
-11.199999999999999

>  <m_primary>  (32) 
energy

$$$$
32:0
     RDKit          3D

 72 76  0  0  0  0  0  0  0  0999 V2000
   66.5720   32.2210   50.5360 C   0  0  0  0  0  0  0  0  0  0  0  0
   65.5650   33.3390   50.1880 C   0  0  0  0  0  0  0  0  0  0  0  0
   64.2260   32.8620   49.7400 N   0  0  1  0  0  0  0  0  0  0  0  0
   63.7710   31.6200   50.4400 C   0  0  0  0  0  0  0  0  0  0  0  0
   62.2730   31.4090   50.4490 C   0  0  0  0  0  0  0  0  0  0  0  0
   61.7060   30.5260   49.5830 N   0  0  0  0  0  0  0  0  0  0  0  0
   60.3650   30.2980   49.5710 C   0  0  0  0  0  0  0  0  0  0  0  0
   59.8820   29.4940   48.7280 O   0  0  0  0  0  0  0  0  0  0  0  0
   59.5350   30.9720   50.4880 C   0  0  0  0  0  0  0  0  0  0  0  0
   58.1400   30.7840   50.5290 C   0  0  0  0  0  0  0  0  0  0  0  0
   57.3640   31.4830   51.4590 C   0  0  0  0  0  0  0  0  0  0  0  0
   57.9750   32.3760   52.3530 C   0  0  0  0  0  0  0  0  0  0  0  0
   59.3600   32.5800   52.3120 C   0  0  0  0  0  0  0  0  0  0  0  0
   60.1450   31.8770   51.3890 C   0  0  0  0  0  0  0  0  0  0  0  0
   61.4910   32.0650   51.3520 N   0  0  0  0  0  0  0  0  0  0  0  0
   63.2220   33.9200   49.6950 C   0  0  0  0  0  0  0  0  0  0  0  0
   63.2870   34.8850   50.5090 O   0  0  0  0  0  0  0  0  0  0  0  0
   62.0550   33.8670   48.7590 C   0  0  0  0  0  0  0  0  0  0  0  0
   62.1870   33.4350   47.4200 C   0  0  0  0  0  0  0  0  0  0  0  0
   61.0590   33.2910   46.6030 C   0  0  0  0  0  0  0  0  0  0  0  0
   59.7840   33.5880   47.1020 C   0  0  0  0  0  0  0  0  0  0  0  0
   58.3530   33.3240   46.1050 S   0  0  0  0  0  0  0  0  0  0  0  0
   57.1610   33.0640   46.9890 O   0  0  0  0  0  0  0  0  0  0  0  0
   58.0730   34.5620   45.2980 O   0  0  0  0  0  0  0  0  0  0  0  0
   58.5870   31.9660   45.0250 N   0  0  0  0  0  0  0  0  0  0  0  0
   59.4590   30.9250   45.6290 C   0  0  0  0  0  0  0  0  0  0  0  0
   58.7080   29.6380   46.0070 C   0  0  0  0  0  0  0  0  0  0  0  0
   57.9530   29.1330   44.8540 N   0  0  0  0  0  0  0  0  0  0  0  0
   57.6740   27.7190   44.7180 C   0  0  0  0  0  0  0  0  0  0  0  0
   57.0140   27.0140   45.7380 C   0  0  0  0  0  0  0  0  0  0  0  0
   56.7160   25.6520   45.5860 C   0  0  0  0  0  0  0  0  0  0  0  0
   57.0990   24.9560   44.4220 C   0  0  0  0  0  0  0  0  0  0  0  0
   56.8110   23.5030   44.2530 C   0  0  0  0  0  0  0  0  0  0  0  0
   57.7660   22.4420   44.7120 C   0  0  0  0  0  0  0  0  0  0  0  0
   55.7140   23.1410   43.7410 O   0  0  0  0  0  0  0  0  0  0  0  0
   57.7730   25.6630   43.4090 C   0  0  0  0  0  0  0  0  0  0  0  0
   58.0560   27.0240   43.5580 C   0  0  0  0  0  0  0  0  0  0  0  0
   57.4030   30.0920   43.8860 C   0  0  0  0  0  0  0  0  0  0  0  0
   57.2850   31.4750   44.5260 C   0  0  0  0  0  0  0  0  0  0  0  0
   59.6520   34.0660   48.4100 C   0  0  0  0  0  0  0  0  0  0  0  0
   60.7720   34.1990   49.2330 C   0  0  0  0  0  0  0  0  0  0  0  0
   66.6547   32.1292   51.6290 H   0  0  0  0  0  0  0  0  0  0  0  0
   66.2219   31.2677   50.1134 H   0  0  0  0  0  0  0  0  0  0  0  0
   67.5566   32.4698   50.1134 H   0  0  0  0  0  0  0  0  0  0  0  0
   65.4235   33.9620   51.0835 H   0  0  0  0  0  0  0  0  0  0  0  0
   65.9963   33.8884   49.3382 H   0  0  0  0  0  0  0  0  0  0  0  0
   64.3900   32.5910   48.7430 H   0  0  0  0  0  0  0  0  0  0  0  0
   64.2351   30.7565   49.9410 H   0  0  0  0  0  0  0  0  0  0  0  0
   64.0746   31.7286   51.4917 H   0  0  0  0  0  0  0  0  0  0  0  0
   57.6596   30.0857   49.8279 H   0  0  0  0  0  0  0  0  0  0  0  0
   56.2747   31.3330   51.4899 H   0  0  0  0  0  0  0  0  0  0  0  0
   57.3633   32.9181   53.0892 H   0  0  0  0  0  0  0  0  0  0  0  0
   59.8315   33.2925   53.0048 H   0  0  0  0  0  0  0  0  0  0  0  0
   63.1850   33.2098   47.0159 H   0  0  0  0  0  0  0  0  0  0  0  0
   61.1743   32.9435   45.5657 H   0  0  0  0  0  0  0  0  0  0  0  0
   60.2468   30.6684   44.9055 H   0  0  0  0  0  0  0  0  0  0  0  0
   59.8674   31.3459   46.5597 H   0  0  0  0  0  0  0  0  0  0  0  0
   59.4329   28.8757   46.3285 H   0  0  0  0  0  0  0  0  0  0  0  0
   58.0070   29.8593   46.8253 H   0  0  0  0  0  0  0  0  0  0  0  0
   56.7284   27.5346   46.6640 H   0  0  0  0  0  0  0  0  0  0  0  0
   56.1771   25.1209   46.3845 H   0  0  0  0  0  0  0  0  0  0  0  0
   57.7871   22.4185   45.8115 H   0  0  0  0  0  0  0  0  0  0  0  0
   57.4382   21.4637   44.3306 H   0  0  0  0  0  0  0  0  0  0  0  0
   58.7733   22.6654   44.3306 H   0  0  0  0  0  0  0  0  0  0  0  0
   58.0801   25.1399   42.4913 H   0  0  0  0  0  0  0  0  0  0  0  0
   58.5854   27.5585   42.7555 H   0  0  0  0  0  0  0  0  0  0  0  0
   58.0697   30.1507   43.0131 H   0  0  0  0  0  0  0  0  0  0  0  0
   56.4043   29.7541   43.5721 H   0  0  0  0  0  0  0  0  0  0  0  0
   56.9024   32.1824   43.7755 H   0  0  0  0  0  0  0  0  0  0  0  0
   56.6000   31.3960   45.3831 H   0  0  0  0  0  0  0  0  0  0  0  0
   58.6578   34.3393   48.7933 H   0  0  0  0  0  0  0  0  0  0  0  0
   60.6504   34.5670   50.2624 H   0  0  0  0  0  0  0  0  0  0  0  0
  1  2  1  0
  2  3  1  0
  3  4  1  0
  4  5  1  0
  5  6  2  0
  6  7  1  0
  7  8  2  0
  7  9  1  0
  9 10  2  0
 10 11  1  0
 11 12  2  0
 12 13  1  0
 13 14  2  0
 14 15  1  0
  3 16  1  0
 16 17  2  0
 16 18  1  0
 18 19  2  0
 19 20  1  0
 20 21  2  0
 21 22  1  0
 22 23  2  0
 22 24  2  0
 22 25  1  0
 25 26  1  0
 26 27  1  0
 27 28  1  0
 28 29  1  0
 29 30  2  0
 30 31  1  0
 31 32  2  0
 32 33  1  0
 33 34  1  0
 33 35  2  0
 32 36  1  0
 36 37  2  0
 28 38  1  0
 38 39  1  0
 21 40  1  0
 40 41  2  0
 15  5  1  0
 41 18  1  0
 14  9  1  0
 39 25  1  0
 37 29  1  0
  1 42  1  0
  1 43  1  0
  1 44  1  0
  2 45  1  0
  2 46  1  0
  3 47  1  6
  4 48  1  0
  4 49  1  0
 10 50  1  0
 11 51  1  0
 12 52  1  0
 13 53  1  0
 19 54  1  0
 20 55  1  0
 26 56  1  0
 26 57  1  0
 27 58  1  0
 27 59  1  0
 30 60  1  0
 31 61  1  0
 34 62  1  0
 34 63  1  0
 34 64  1  0
 36 65  1  0
 37 66  1  0
 38 67  1  0
 38 68  1  0
 39 69  1  0
 39 70  1  0
 40 71  1  0
 41 72  1  0
M  CHG  2   3   1  15  -1
M  END
>  <UniqueID>  (33) 
28

>  <SMILES>  (33) 
CC[N@@H+](Cc1nc(=O)c2ccccc2[n-]1)C(=O)c1ccc(S(=O)(=O)N2CCN(c3ccc(C(C)=O)cc3)CC2)cc1

>  <Energy>  (33) 
99.11891722814198

>  <Genealogy>  (33) 
CC[NH+](Cc1nc(=O)c2ccccc2[n-]1)C(=O)c1ccc(S(=O)(=O)N2CCN(c3ccc(C(C)=O)cc3)CC2)cc1 (protonated)
CC[N@@H+](Cc1nc(=O)c2ccccc2[n-]1)C(=O)c1ccc(S(=O)(=O)N2CCN(c3ccc(C(C)=O)cc3)CC2)cc1 (chirality)
CC[N@@H+](Cc1nc(=O)c2ccccc2[n-]1)C(=O)c1ccc(S(=O)(=O)N2CCN(c3ccc(C(C)=O)cc3)CC2)cc1 (3D coordinates assigned)
CC[N@@H+](Cc1nc(=O)c2ccccc2[n-]1)C(=O)c1ccc(S(=O)(=O)N2CCN(c3ccc(C(C)=O)cc3)CC2)cc1 (nonaromatic ring conformer: 99.11891722814198 kcal/mol)

>  <smiles>  (33) 
CCN(Cc1nc(=O)c2ccccc2[nH]1)C(=O)c1ccc(S(=O)(=O)N2CCN(c3ccc(C(C)=O)cc3)CC2)cc1

>  <score_type>  (33) 
oracle

>  <origin>  (33) 
adg

>  <m_score__min__energy>  (33) 
-11.130000000000001

>  <m_primary>  (33) 
energy

$$$$
33:0
     RDKit          3D

 43 45  0  0  0  0  0  0  0  0999 V2000
   63.6700   29.0980   51.9610 C   0  0  0  0  0  0  0  0  0  0  0  0
   64.1290   30.3060   51.2580 N   0  0  0  0  0  0  0  0  0  0  0  0
   65.4720   30.5900   51.2210 C   0  0  0  0  0  0  0  0  0  0  0  0
   66.3930   29.7300   51.8220 O   0  0  0  0  0  0  0  0  0  0  0  0
   65.9300   31.7450   50.5810 C   0  0  0  0  0  0  0  0  0  0  0  0
   65.0210   32.6160   49.9940 C   0  0  0  0  0  0  0  0  0  0  0  0
   63.6530   32.3440   50.0520 C   0  0  0  0  0  0  0  0  0  0  0  0
   62.5090   33.4710   49.2960 S   0  0  0  0  0  0  0  0  0  0  0  0
   63.2780   34.5180   48.5390 O   0  0  0  0  0  0  0  0  0  0  0  0
   61.7090   34.1690   50.3600 O   0  0  0  0  0  0  0  0  0  0  0  0
   61.4250   32.6510   48.2000 N   0  0  0  0  0  0  0  0  0  0  0  0
   62.1430   31.6250   47.4320 C   0  0  0  0  0  0  0  0  0  0  0  0
   61.1230   30.7320   46.7200 C   0  0  0  0  0  0  0  0  0  0  0  0
   59.9820   31.5230   46.2420 N   0  0  0  0  0  0  0  0  0  0  0  0
   58.7570   30.8660   45.8640 C   0  0  0  0  0  0  0  0  0  0  0  0
   58.4640   29.5740   46.3350 C   0  0  0  0  0  0  0  0  0  0  0  0
   57.2700   28.9430   45.9710 C   0  0  0  0  0  0  0  0  0  0  0  0
   56.3550   29.5990   45.1430 C   0  0  0  0  0  0  0  0  0  0  0  0
   55.1690   28.9710   44.7830 O   0  0  0  0  0  0  0  0  0  0  0  0
   56.6340   30.8880   44.6770 C   0  0  0  0  0  0  0  0  0  0  0  0
   57.8290   31.5200   45.0350 C   0  0  0  0  0  0  0  0  0  0  0  0
   60.1400   32.9710   46.0570 C   0  0  0  0  0  0  0  0  0  0  0  0
   60.7570   33.6270   47.3110 C   0  0  0  0  0  0  0  0  0  0  0  0
   63.2170   31.1760   50.7070 C   0  0  0  0  0  0  0  0  0  0  0  0
   61.9820   30.9320   50.7850 O   0  0  0  0  0  0  0  0  0  0  0  0
   63.7316   29.2602   53.0472 H   0  0  0  0  0  0  0  0  0  0  0  0
   62.6280   28.8843   51.6807 H   0  0  0  0  0  0  0  0  0  0  0  0
   64.3072   28.2463   51.6807 H   0  0  0  0  0  0  0  0  0  0  0  0
   66.5540   29.7360   52.8230 H   0  0  0  0  0  0  0  0  0  0  0  0
   67.0073   31.9637   50.5422 H   0  0  0  0  0  0  0  0  0  0  0  0
   65.3797   33.5215   49.4827 H   0  0  0  0  0  0  0  0  0  0  0  0
   62.7930   32.1085   46.6879 H   0  0  0  0  0  0  0  0  0  0  0  0
   62.7607   31.0173   48.1096 H   0  0  0  0  0  0  0  0  0  0  0  0
   61.6080   30.2436   45.8620 H   0  0  0  0  0  0  0  0  0  0  0  0
   60.7561   29.9783   47.4323 H   0  0  0  0  0  0  0  0  0  0  0  0
   59.1776   29.0567   46.9932 H   0  0  0  0  0  0  0  0  0  0  0  0
   57.0509   27.9291   46.3369 H   0  0  0  0  0  0  0  0  0  0  0  0
   55.9122   31.4054   44.0279 H   0  0  0  0  0  0  0  0  0  0  0  0
   58.0439   32.5338   44.6661 H   0  0  0  0  0  0  0  0  0  0  0  0
   60.7987   33.1534   45.1951 H   0  0  0  0  0  0  0  0  0  0  0  0
   59.1470   33.4118   45.8846 H   0  0  0  0  0  0  0  0  0  0  0  0
   61.4982   34.3730   46.9885 H   0  0  0  0  0  0  0  0  0  0  0  0
   59.9364   34.0865   47.8816 H   0  0  0  0  0  0  0  0  0  0  0  0
  1  2  1  0
  2  3  1  0
  3  4  1  0
  3  5  2  0
  5  6  1  0
  6  7  2  0
  7  8  1  0
  8  9  2  0
  8 10  2  0
  8 11  1  0
 11 12  1  0
 12 13  1  0
 13 14  1  0
 14 15  1  0
 15 16  2  0
 16 17  1  0
 17 18  2  0
 18 19  1  0
 18 20  1  0
 20 21  2  0
 14 22  1  0
 22 23  1  0
  7 24  1  0
 24 25  2  0
 24  2  1  0
 23 11  1  0
 21 15  1  0
  1 26  1  0
  1 27  1  0
  1 28  1  0
  4 29  1  0
  5 30  1  0
  6 31  1  0
 12 32  1  0
 12 33  1  0
 13 34  1  0
 13 35  1  0
 16 36  1  0
 17 37  1  0
 20 38  1  0
 21 39  1  0
 22 40  1  0
 22 41  1  0
 23 42  1  0
 23 43  1  0
M  CHG  1  19  -1
M  END
>  <UniqueID>  (34) 
29

>  <SMILES>  (34) 
Cn1c(O)ccc(S(=O)(=O)N2CCN(c3ccc([O-])cc3)CC2)c1=O

>  <Energy>  (34) 
56.85492768580654

>  <Genealogy>  (34) 
Cn1c(O)ccc(S(=O)(=O)N2CCN(c3ccc([O-])cc3)CC2)c1=O (protonated)
Cn1c(O)ccc(S(=O)(=O)N2CCN(c3ccc([O-])cc3)CC2)c1=O (3D coordinates assigned)
Cn1c(O)ccc(S(=O)(=O)N2CCN(c3ccc([O-])cc3)CC2)c1=O (nonaromatic ring conformer: 56.85492768580654 kcal/mol)

>  <smiles>  (34) 
Cn1c(O)ccc(S(=O)(=O)N2CCN(c3ccc(O)cc3)CC2)c1=O

>  <score_type>  (34) 
oracle

>  <origin>  (34) 
adg

>  <m_score__min__energy>  (34) 
-9.1600000000000001

>  <m_primary>  (34) 
energy

$$$$
34:0
     RDKit          3D

 45 48  0  0  0  0  0  0  0  0999 V2000
   58.9586   28.3816   46.5947 H   0  0  0  0  0  0  0  0  0  0  0  0
   57.9450   28.1060   46.2680 C   0  0  0  0  0  0  0  0  0  0  0  0
   57.2920   26.9800   46.6110 N   0  0  0  0  0  0  0  0  0  0  0  0
   56.1050   27.0920   45.9810 C   0  0  0  0  0  0  0  0  0  0  0  0
   55.2020   26.1570   46.0340 N   0  0  0  0  0  0  0  0  0  0  0  0
   55.3630   24.7930   45.6090 C   0  0  0  0  0  0  0  0  0  0  0  0
   54.5600   23.7500   46.1140 C   0  0  0  0  0  0  0  0  0  0  0  0
   53.7614   23.9739   46.8365 H   0  0  0  0  0  0  0  0  0  0  0  0
   54.7750   22.4330   45.7000 C   0  0  0  0  0  0  0  0  0  0  0  0
   54.1371   21.6250   46.0876 H   0  0  0  0  0  0  0  0  0  0  0  0
   55.7970   22.1400   44.7960 C   0  0  0  0  0  0  0  0  0  0  0  0
   55.9609   21.1028   44.4684 H   0  0  0  0  0  0  0  0  0  0  0  0
   56.6120   23.1640   44.3070 C   0  0  0  0  0  0  0  0  0  0  0  0
   57.4193   22.9323   43.5967 H   0  0  0  0  0  0  0  0  0  0  0  0
   56.4020   24.4830   44.7200 C   0  0  0  0  0  0  0  0  0  0  0  0
   57.0566   25.2834   44.3448 H   0  0  0  0  0  0  0  0  0  0  0  0
   55.9740   28.2180   45.2470 N   0  0  0  0  0  0  0  0  0  0  0  0
   57.1390   28.8570   45.4420 C   0  0  0  0  0  0  0  0  0  0  0  0
   57.4850   30.1280   44.7910 C   0  0  0  0  0  0  0  0  0  0  0  0
   57.2780   30.2820   43.5580 O   0  0  0  0  0  0  0  0  0  0  0  0
   58.0380   31.1940   45.5750 N   0  0  0  0  0  0  0  0  0  0  0  0
   58.5090   30.9460   46.4730 H   0  0  0  0  0  0  0  0  0  0  0  0
   57.7450   32.5770   45.3290 C   0  0  0  0  0  0  0  0  0  0  0  0
   57.3220   32.9510   44.2010 O   0  0  0  0  0  0  0  0  0  0  0  0
   57.9340   33.5920   46.4200 C   0  0  0  0  0  0  0  0  0  0  0  0
   57.8603   34.6023   45.9913 H   0  0  0  0  0  0  0  0  0  0  0  0
   57.1538   33.4455   47.1815 H   0  0  0  0  0  0  0  0  0  0  0  0
   59.2860   33.4250   47.0680 C   0  0  0  0  0  0  0  0  0  0  0  0
   60.4450   33.8420   46.3980 C   0  0  0  0  0  0  0  0  0  0  0  0
   60.3742   34.2204   45.3676 H   0  0  0  0  0  0  0  0  0  0  0  0
   61.6900   33.7800   47.0310 C   0  0  0  0  0  0  0  0  0  0  0  0
   62.5913   34.1143   46.4963 H   0  0  0  0  0  0  0  0  0  0  0  0
   61.7990   33.2940   48.3450 C   0  0  0  0  0  0  0  0  0  0  0  0
   63.0770   33.2470   49.0050 N   0  0  0  0  0  0  0  0  0  0  0  0
   63.3830   33.7140   50.2320 C   0  0  0  0  0  0  0  0  0  0  0  0
   62.6650   34.2081   50.9031 H   0  0  0  0  0  0  0  0  0  0  0  0
   64.6820   33.4990   50.5340 N   0  0  0  0  0  0  0  0  0  0  0  0
   65.1450   32.8800   49.4260 C   0  0  0  0  0  0  0  0  0  0  0  0
   66.1847   32.5452   49.2956 H   0  0  0  0  0  0  0  0  0  0  0  0
   64.1820   32.7230   48.5030 N   0  0  0  0  0  0  0  0  0  0  0  0
   64.2860   32.2910   47.5590 H   0  0  0  0  0  0  0  0  0  0  0  0
   60.6380   32.8630   49.0090 C   0  0  0  0  0  0  0  0  0  0  0  0
   60.7101   32.4666   50.0326 H   0  0  0  0  0  0  0  0  0  0  0  0
   59.3920   32.9340   48.3790 C   0  0  0  0  0  0  0  0  0  0  0  0
   58.4894   32.6032   48.9136 H   0  0  0  0  0  0  0  0  0  0  0  0
  1  2  1  0
  2  3  1  0
  3  4  1  0
  4  5  2  0
  5  6  1  0
  6  7  2  0
  7  8  1  0
  7  9  1  0
  9 10  1  0
  9 11  2  0
 11 12  1  0
 11 13  1  0
 13 14  1  0
 13 15  2  0
 15 16  1  0
  4 17  1  0
 17 18  1  0
 18 19  1  0
 19 20  2  0
 19 21  1  0
 21 22  1  0
 21 23  1  0
 23 24  2  0
 23 25  1  0
 25 26  1  0
 25 27  1  0
 25 28  1  0
 28 29  2  0
 29 30  1  0
 29 31  1  0
 31 32  1  0
 31 33  2  0
 33 34  1  0
 34 35  1  0
 35 36  1  0
 35 37  2  0
 37 38  1  0
 38 39  1  0
 38 40  2  0
 40 41  1  0
 33 42  1  0
 42 43  1  0
 42 44  2  0
 44 45  1  0
 18  2  2  0
 44 28  1  0
 15  6  1  0
 40 34  1  0
M  CHG  3   3  -1  17  -1  40   1
M  END
>  <UniqueID>  (35) 
30

>  <SMILES>  (35) 
O=C(Cc1ccc(-n2cnc[nH+]2)cc1)NC(=O)c1c[n-]/c(=N/c2ccccc2)[n-]1

>  <Energy>  (35) 
114.95985305814546

>  <Genealogy>  (35) 
O=C(Cc1ccc(-n2cnc[nH+]2)cc1)NC(=O)c1c[n-]c(=Nc2ccccc2)[n-]1 (protonated)
O=C(Cc1ccc(-n2cnc[nH+]2)cc1)NC(=O)c1c[n-]/c(=N/c2ccccc2)[n-]1 (cis-trans isomerization)
O=C(Cc1ccc(-n2cnc[nH+]2)cc1)NC(=O)c1c[n-]/c(=N/c2ccccc2)[n-]1 (3D coordinates assigned)
O=C(Cc1ccc(-n2cnc[nH+]2)cc1)NC(=O)c1c[n-]/c(=N/c2ccccc2)[n-]1 (optimized conformer: 114.95985305814546 kcal/mol)

>  <smiles>  (35) 
O=C(Cc1ccc(-n2cncn2)cc1)NC(=O)c1c[nH]c(=Nc2ccccc2)[nH]1

>  <score_type>  (35) 
oracle

>  <origin>  (35) 
adg

>  <m_score__min__energy>  (35) 
-11.58

>  <m_primary>  (35) 
energy

$$$$
35:0
     RDKit          3D

 52 54  0  0  0  0  0  0  0  0999 V2000
   63.7440   33.0640   46.7220 C   0  0  0  0  0  0  0  0  0  0  0  0
   62.4280   33.5600   47.2630 C   0  0  0  0  0  0  0  0  0  0  0  0
   61.3720   33.8170   46.3750 C   0  0  0  0  0  0  0  0  0  0  0  0
   60.1500   34.2820   46.8530 C   0  0  0  0  0  0  0  0  0  0  0  0
   59.9860   34.4920   48.2200 C   0  0  0  0  0  0  0  0  0  0  0  0
   61.0120   34.2470   49.0790 N   0  0  0  0  0  0  0  0  0  0  0  0
   62.2290   33.8030   48.6450 C   0  0  0  0  0  0  0  0  0  0  0  0
   63.3030   33.4980   49.6610 C   0  0  0  0  0  0  0  0  0  0  0  0
   62.9900   34.1880   50.9140 N   0  0  0  0  0  0  0  0  0  0  0  0
   63.0910   33.2930   52.0730 C   0  0  0  0  0  0  0  0  0  0  0  0
   61.8080   33.3600   52.9090 C   0  0  0  0  0  0  0  0  0  0  0  0
   60.6440   33.4050   52.0830 O   0  0  0  0  0  0  0  0  0  0  0  0
   60.2780   32.3810   51.1990 C   0  0  0  0  0  0  0  0  0  0  0  0
   59.4020   32.6100   50.1850 N   0  0  0  0  0  0  0  0  0  0  0  0
   59.0030   31.6230   49.3420 C   0  0  0  0  0  0  0  0  0  0  0  0
   58.1420   31.8900   48.4630 O   0  0  0  0  0  0  0  0  0  0  0  0
   59.5360   30.3180   49.5040 C   0  0  0  0  0  0  0  0  0  0  0  0
   59.2120   29.2980   48.7550 N   0  0  0  0  0  0  0  0  0  0  0  0
   59.1520   29.2320   47.3230 C   0  0  0  0  0  0  0  0  0  0  0  0
   60.2910   28.8540   46.6030 C   0  0  0  0  0  0  0  0  0  0  0  0
   60.2580   28.8180   45.2060 C   0  0  0  0  0  0  0  0  0  0  0  0
   59.0950   29.1820   44.5220 C   0  0  0  0  0  0  0  0  0  0  0  0
   57.9620   29.6020   45.2340 C   0  0  0  0  0  0  0  0  0  0  0  0
   56.4870   30.0490   44.3830 S   0  0  0  0  0  0  0  0  0  0  0  0
   56.6420   29.6030   42.6680 C   0  0  0  0  0  0  0  0  0  0  0  0
   55.3160   29.3270   44.9890 O   0  0  0  0  0  0  0  0  0  0  0  0
   56.2540   31.5290   44.4960 O   0  0  0  0  0  0  0  0  0  0  0  0
   57.9980   29.6370   46.6350 C   0  0  0  0  0  0  0  0  0  0  0  0
   60.4090   30.1050   50.5260 N   0  0  0  0  0  0  0  0  0  0  0  0
   60.7950   31.0970   51.3690 C   0  0  0  0  0  0  0  0  0  0  0  0
   61.6650   30.8320   52.3730 F   0  0  0  0  0  0  0  0  0  0  0  0
   64.4126   32.8120   47.5583 H   0  0  0  0  0  0  0  0  0  0  0  0
   63.5733   32.1685   46.1064 H   0  0  0  0  0  0  0  0  0  0  0  0
   64.2068   33.8494   46.1064 H   0  0  0  0  0  0  0  0  0  0  0  0
   61.5105   33.6503   45.2966 H   0  0  0  0  0  0  0  0  0  0  0  0
   59.3216   34.4817   46.1574 H   0  0  0  0  0  0  0  0  0  0  0  0
   59.0232   34.8574   48.6066 H   0  0  0  0  0  0  0  0  0  0  0  0
   60.8460   34.4040   50.0990 H   0  0  0  0  0  0  0  0  0  0  0  0
   63.3441   32.4132   49.8386 H   0  0  0  0  0  0  0  0  0  0  0  0
   64.2774   33.8414   49.2833 H   0  0  0  0  0  0  0  0  0  0  0  0
   63.6900   34.9580   51.0400 H   0  0  0  0  0  0  0  0  0  0  0  0
   63.2427   32.2613   51.7229 H   0  0  0  0  0  0  0  0  0  0  0  0
   63.9412   33.6079   52.6958 H   0  0  0  0  0  0  0  0  0  0  0  0
   61.7546   32.4697   53.5529 H   0  0  0  0  0  0  0  0  0  0  0  0
   61.8378   34.2796   53.5118 H   0  0  0  0  0  0  0  0  0  0  0  0
   61.2140   28.5847   47.1374 H   0  0  0  0  0  0  0  0  0  0  0  0
   61.1493   28.5025   44.6439 H   0  0  0  0  0  0  0  0  0  0  0  0
   59.0681   29.1390   43.4232 H   0  0  0  0  0  0  0  0  0  0  0  0
   57.0022   28.5666   42.5898 H   0  0  0  0  0  0  0  0  0  0  0  0
   55.6615   29.6885   42.1768 H   0  0  0  0  0  0  0  0  0  0  0  0
   57.3582   30.2781   42.1768 H   0  0  0  0  0  0  0  0  0  0  0  0
   57.1182   29.9833   47.1972 H   0  0  0  0  0  0  0  0  0  0  0  0
  1  2  1  0
  2  3  2  0
  3  4  1  0
  4  5  2  0
  5  6  1  0
  6  7  2  0
  7  8  1  0
  8  9  1  0
  9 10  1  0
 10 11  1  0
 11 12  1  0
 12 13  1  0
 13 14  1  0
 14 15  1  0
 15 16  2  0
 15 17  1  0
 17 18  2  3
 18 19  1  0
 19 20  2  0
 20 21  1  0
 21 22  2  0
 22 23  1  0
 23 24  1  0
 24 25  1  0
 24 26  2  0
 24 27  2  0
 23 28  2  0
 17 29  1  0
 29 30  1  0
 30 31  1  0
  7  2  1  0
 30 13  2  0
 28 19  1  0
  1 32  1  0
  1 33  1  0
  1 34  1  0
  3 35  1  0
  4 36  1  0
  5 37  1  0
  6 38  1  0
  8 39  1  0
  8 40  1  0
  9 41  1  0
 10 42  1  0
 10 43  1  0
 11 44  1  0
 11 45  1  0
 20 46  1  0
 21 47  1  0
 22 48  1  0
 25 49  1  0
 25 50  1  0
 25 51  1  0
 28 52  1  0
M  CHG  3   6   1  14  -1  29  -1
M  END
>  <UniqueID>  (36) 
31

>  <SMILES>  (36) 
Cc1ccc[nH+]c1CNCCOc1[n-]c(=O)c(=Nc2cccc(S(C)(=O)=O)c2)[n-]c1F

>  <Energy>  (36) 
61.339341596403706

>  <Genealogy>  (36) 
Cc1ccc[nH+]c1CNCCOc1[n-]c(=O)c(=Nc2cccc(S(C)(=O)=O)c2)[n-]c1F (protonated)
Cc1ccc[nH+]c1CNCCOc1[n-]c(=O)c(=Nc2cccc(S(C)(=O)=O)c2)[n-]c1F (3D coordinates assigned)
Cc1ccc[nH+]c1CNCCOc1[n-]c(=O)c(=Nc2cccc(S(C)(=O)=O)c2)[n-]c1F (optimized conformer: 61.339341596403706 kcal/mol)

>  <smiles>  (36) 
Cc1cccnc1CNCCOc1[nH]c(=O)c(=Nc2cccc(S(C)(=O)=O)c2)[nH]c1F

>  <score_type>  (36) 
oracle

>  <origin>  (36) 
adg

>  <m_score__min__energy>  (36) 
-9.4499999999999993

>  <m_primary>  (36) 
energy

$$$$
36:0
     RDKit          3D

 60 64  0  0  0  0  0  0  0  0999 V2000
   55.1450   29.3590   45.1600 O   0  0  0  0  0  0  0  0  0  0  0  0
   56.1770   29.0530   44.5030 C   0  0  0  0  0  0  0  0  0  0  0  0
   56.2910   29.4430   43.0840 C   0  0  0  0  0  0  0  0  0  0  0  0
   56.6540   30.6620   42.6480 C   0  0  0  0  0  0  0  0  0  0  0  0
   57.3780   31.6620   43.4550 C   0  0  0  0  0  0  0  0  0  0  0  0
   58.3320   32.5260   42.8700 C   0  0  0  0  0  0  0  0  0  0  0  0
   58.9150   33.5100   43.6110 N   0  0  0  0  0  0  0  0  0  0  0  0
   58.5850   33.6550   44.9190 C   0  0  0  0  0  0  0  0  0  0  0  0
   57.6660   32.8570   45.5230 C   0  0  0  0  0  0  0  0  0  0  0  0
   57.0320   31.8450   44.8040 C   0  0  0  0  0  0  0  0  0  0  0  0
   57.4130   33.1940   46.8840 N   0  0  0  0  0  0  0  0  0  0  0  0
   58.2540   34.3920   47.1200 C   0  0  0  0  0  0  0  0  0  0  0  0
   59.0650   34.6930   45.8440 C   0  0  0  0  0  0  0  0  0  0  0  0
   57.1460   28.1970   45.1140 N   0  0  0  0  0  0  0  0  0  0  0  0
   57.9890   28.5200   46.2320 C   0  0  0  0  0  0  0  0  0  0  0  0
   58.5750   27.4770   46.9590 C   0  0  0  0  0  0  0  0  0  0  0  0
   59.3370   27.7460   48.1010 C   0  0  0  0  0  0  0  0  0  0  0  0
   59.5100   29.0680   48.5460 C   0  0  0  0  0  0  0  0  0  0  0  0
   60.2650   29.3590   49.7870 C   0  0  0  0  0  0  0  0  0  0  0  0
   60.4580   28.4320   50.6200 O   0  0  0  0  0  0  0  0  0  0  0  0
   60.8270   30.6660   50.0360 N   0  0  0  0  0  0  0  0  0  0  0  0
   62.2720   30.8750   49.8790 C   0  0  0  0  0  0  0  0  0  0  0  0
   62.5470   31.9930   48.9040 C   0  0  0  0  0  0  0  0  0  0  0  0
   63.8430   32.1440   48.3810 C   0  0  0  0  0  0  0  0  0  0  0  0
   64.1320   33.1870   47.5010 C   0  0  0  0  0  0  0  0  0  0  0  0
   63.1350   34.0960   47.1420 C   0  0  0  0  0  0  0  0  0  0  0  0
   61.8460   33.9700   47.6680 C   0  0  0  0  0  0  0  0  0  0  0  0
   61.5410   32.9330   48.5620 C   0  0  0  0  0  0  0  0  0  0  0  0
   60.1170   32.7850   49.0490 C   0  0  0  0  0  0  0  0  0  0  0  0
   60.0190   31.8750   50.2850 C   0  0  1  0  0  0  0  0  0  0  0  0
   58.5480   31.5810   50.6470 C   0  0  0  0  0  0  0  0  0  0  0  0
   57.6890   32.1640   49.7060 O   0  0  0  0  0  0  0  0  0  0  0  0
   58.9350   30.1150   47.8080 C   0  0  0  0  0  0  0  0  0  0  0  0
   58.1670   29.8440   46.6700 C   0  0  0  0  0  0  0  0  0  0  0  0
   56.0618   28.6791   42.3264 H   0  0  0  0  0  0  0  0  0  0  0  0
   56.3921   30.9331   41.6146 H   0  0  0  0  0  0  0  0  0  0  0  0
   58.6050   32.4034   41.8115 H   0  0  0  0  0  0  0  0  0  0  0  0
   56.2772   31.2037   45.2826 H   0  0  0  0  0  0  0  0  0  0  0  0
   56.3930   33.4160   47.0070 H   0  0  0  0  0  0  0  0  0  0  0  0
   57.7100   32.4010   47.5020 H   0  0  0  0  0  0  0  0  0  0  0  0
   57.6119   35.2521   47.3607 H   0  0  0  0  0  0  0  0  0  0  0  0
   58.9383   34.2068   47.9611 H   0  0  0  0  0  0  0  0  0  0  0  0
   58.8464   35.7007   45.4609 H   0  0  0  0  0  0  0  0  0  0  0  0
   60.1539   34.6773   45.9988 H   0  0  0  0  0  0  0  0  0  0  0  0
   58.4351   26.4369   46.6294 H   0  0  0  0  0  0  0  0  0  0  0  0
   59.8037   26.9177   48.6542 H   0  0  0  0  0  0  0  0  0  0  0  0
   62.7077   31.1325   50.8557 H   0  0  0  0  0  0  0  0  0  0  0  0
   62.7229   29.9494   49.4916 H   0  0  0  0  0  0  0  0  0  0  0  0
   64.6341   31.4354   48.6674 H   0  0  0  0  0  0  0  0  0  0  0  0
   65.1465   33.2934   47.0895 H   0  0  0  0  0  0  0  0  0  0  0  0
   63.3645   34.9138   46.4431 H   0  0  0  0  0  0  0  0  0  0  0  0
   61.0654   34.6891   47.3788 H   0  0  0  0  0  0  0  0  0  0  0  0
   59.7261   33.7797   49.3092 H   0  0  0  0  0  0  0  0  0  0  0  0
   59.5295   32.3235   48.2416 H   0  0  0  0  0  0  0  0  0  0  0  0
   60.4302   32.3782   51.1725 H   0  0  0  0  0  0  0  0  0  0  0  0
   58.3879   30.4928   50.6590 H   0  0  0  0  0  0  0  0  0  0  0  0
   58.3323   32.0050   51.6388 H   0  0  0  0  0  0  0  0  0  0  0  0
   56.8310   32.3480   50.1690 H   0  0  0  0  0  0  0  0  0  0  0  0
   59.0894   31.1564   48.1268 H   0  0  0  0  0  0  0  0  0  0  0  0
   57.7001   30.6712   46.1153 H   0  0  0  0  0  0  0  0  0  0  0  0
  1  2  2  0
  2  3  1  0
  3  4  2  3
  4  5  1  0
  5  6  2  0
  6  7  1  0
  7  8  2  0
  8  9  1  0
  9 10  2  0
  9 11  1  0
 11 12  1  0
 12 13  1  0
  2 14  1  0
 14 15  1  0
 15 16  2  0
 16 17  1  0
 17 18  2  0
 18 19  1  0
 19 20  2  0
 19 21  1  0
 21 22  1  0
 22 23  1  0
 23 24  2  0
 24 25  1  0
 25 26  2  0
 26 27  1  0
 27 28  2  0
 28 29  1  0
 29 30  1  0
 30 31  1  0
 31 32  1  0
 18 33  1  0
 33 34  2  0
 10  5  1  0
 34 15  1  0
 13  8  1  0
 30 21  1  0
 28 23  1  0
  3 35  1  0
  4 36  1  0
  6 37  1  0
 10 38  1  0
 11 39  1  0
 11 40  1  0
 12 41  1  0
 12 42  1  0
 13 43  1  0
 13 44  1  0
 16 45  1  0
 17 46  1  0
 22 47  1  0
 22 48  1  0
 24 49  1  0
 25 50  1  0
 26 51  1  0
 27 52  1  0
 29 53  1  0
 29 54  1  0
 30 55  1  1
 31 56  1  0
 31 57  1  0
 32 58  1  0
 33 59  1  0
 34 60  1  0
M  CHG  2  11   1  14  -1
M  END
>  <UniqueID>  (37) 
32

>  <SMILES>  (37) 
O=C(C=Cc1cnc2c(c1)[NH2+]CC2)[N-]c1ccc(C(=O)N2Cc3ccccc3C[C@H]2CO)cc1

>  <Energy>  (37) 
99.21595848648967

>  <Genealogy>  (37) 
O=C(C=Cc1cnc2c(c1)[NH2+]CC2)[N-]c1ccc(C(=O)N2Cc3ccccc3CC2CO)cc1 (protonated)
O=C(C=Cc1cnc2c(c1)[NH2+]CC2)[N-]c1ccc(C(=O)N2Cc3ccccc3C[C@H]2CO)cc1 (chirality)
O=C(C=Cc1cnc2c(c1)[NH2+]CC2)[N-]c1ccc(C(=O)N2Cc3ccccc3C[C@H]2CO)cc1 (3D coordinates assigned)
O=C(C=Cc1cnc2c(c1)[NH2+]CC2)[N-]c1ccc(C(=O)N2Cc3ccccc3C[C@H]2CO)cc1 (nonaromatic ring conformer: 99.21595848648967 kcal/mol)

>  <smiles>  (37) 
O=C(C=Cc1cnc2c(c1)NCC2)Nc1ccc(C(=O)N2Cc3ccccc3CC2CO)cc1

>  <score_type>  (37) 
oracle

>  <origin>  (37) 
adg

>  <m_score__min__energy>  (37) 
-9.4299999999999997

>  <m_primary>  (37) 
energy

$$$$
37:0
     RDKit          3D

 41 43  0  0  0  0  0  0  0  0999 V2000
   55.1430   29.2270   44.7780 O   0  0  0  0  0  0  0  0  0  0  0  0
   56.3130   29.6930   44.8250 C   0  0  0  0  0  0  0  0  0  0  0  0
   57.4810   28.7660   44.9660 C   0  0  0  0  0  0  0  0  0  0  0  0
   58.1640   28.9100   46.3370 C   0  0  0  0  0  0  0  0  0  0  0  0
   58.1620   27.6230   47.1780 C   0  0  0  0  0  0  0  0  0  0  0  0
   57.4340   26.5070   46.4940 C   0  0  0  0  0  0  0  0  0  0  0  0
   56.0810   26.5550   46.3640 N   0  0  0  0  0  0  0  0  0  0  0  0
   55.3970   25.5730   45.7210 C   0  0  0  0  0  0  0  0  0  0  0  0
   54.1430   25.6560   45.6280 O   0  0  0  0  0  0  0  0  0  0  0  0
   56.0930   24.4870   45.1680 C   0  0  0  0  0  0  0  0  0  0  0  0
   55.4460   23.4390   44.4880 C   0  0  0  0  0  0  0  0  0  0  0  0
   56.1930   22.3850   43.9520 C   0  0  0  0  0  0  0  0  0  0  0  0
   57.5850   22.3690   44.0880 C   0  0  0  0  0  0  0  0  0  0  0  0
   58.2370   23.4050   44.7620 C   0  0  0  0  0  0  0  0  0  0  0  0
   57.4980   24.4620   45.3050 C   0  0  0  0  0  0  0  0  0  0  0  0
   58.1300   25.4690   45.9610 N   0  0  0  0  0  0  0  0  0  0  0  0
   56.5340   31.1060   44.7850 N   0  0  0  0  0  0  0  0  0  0  0  0
   57.7500   31.7150   44.2610 C   0  0  0  0  0  0  0  0  0  0  0  0
   58.2220   32.7940   45.1960 C   0  0  0  0  0  0  0  0  0  0  0  0
   58.7900   33.9710   44.6820 C   0  0  0  0  0  0  0  0  0  0  0  0
   59.2910   34.9480   45.5470 C   0  0  0  0  0  0  0  0  0  0  0  0
   59.2310   34.7560   46.9300 C   0  0  0  0  0  0  0  0  0  0  0  0
   58.6720   33.5850   47.4500 C   0  0  0  0  0  0  0  0  0  0  0  0
   58.1720   32.6050   46.5880 C   0  0  0  0  0  0  0  0  0  0  0  0
   57.1291   27.7302   44.8508 H   0  0  0  0  0  0  0  0  0  0  0  0
   58.2165   29.0230   44.1895 H   0  0  0  0  0  0  0  0  0  0  0  0
   59.2084   29.2134   46.1724 H   0  0  0  0  0  0  0  0  0  0  0  0
   57.5879   29.6582   46.9011 H   0  0  0  0  0  0  0  0  0  0  0  0
   59.2024   27.3126   47.3547 H   0  0  0  0  0  0  0  0  0  0  0  0
   57.6442   27.8365   48.1247 H   0  0  0  0  0  0  0  0  0  0  0  0
   54.3516   23.4485   44.3778 H   0  0  0  0  0  0  0  0  0  0  0  0
   55.6843   21.5663   43.4220 H   0  0  0  0  0  0  0  0  0  0  0  0
   58.1681   21.5386   43.6632 H   0  0  0  0  0  0  0  0  0  0  0  0
   59.3320   23.3896   44.8658 H   0  0  0  0  0  0  0  0  0  0  0  0
   58.5315   30.9468   44.1655 H   0  0  0  0  0  0  0  0  0  0  0  0
   57.5405   32.1546   43.2747 H   0  0  0  0  0  0  0  0  0  0  0  0
   58.8409   34.1247   43.5940 H   0  0  0  0  0  0  0  0  0  0  0  0
   59.7329   35.8689   45.1388 H   0  0  0  0  0  0  0  0  0  0  0  0
   59.6238   35.5266   47.6096 H   0  0  0  0  0  0  0  0  0  0  0  0
   58.6256   33.4347   48.5387 H   0  0  0  0  0  0  0  0  0  0  0  0
   57.7377   31.6823   47.0004 H   0  0  0  0  0  0  0  0  0  0  0  0
  1  2  2  0
  2  3  1  0
  3  4  1  0
  4  5  1  0
  5  6  1  0
  6  7  2  0
  7  8  1  0
  8  9  2  0
  8 10  1  0
 10 11  2  0
 11 12  1  0
 12 13  2  0
 13 14  1  0
 14 15  2  0
 15 16  1  0
  2 17  1  0
 17 18  1  0
 18 19  1  0
 19 20  2  0
 20 21  1  0
 21 22  2  0
 22 23  1  0
 23 24  2  0
 16  6  1  0
 24 19  1  0
 15 10  1  0
  3 25  1  0
  3 26  1  0
  4 27  1  0
  4 28  1  0
  5 29  1  0
  5 30  1  0
 11 31  1  0
 12 32  1  0
 13 33  1  0
 14 34  1  0
 18 35  1  0
 18 36  1  0
 20 37  1  0
 21 38  1  0
 22 39  1  0
 23 40  1  0
 24 41  1  0
M  CHG  2  16  -1  17  -1
M  END
>  <UniqueID>  (38) 
33

>  <SMILES>  (38) 
O=C(CCCc1nc(=O)c2ccccc2[n-]1)[N-]Cc1ccccc1

>  <Energy>  (38) 
37.32769437883794

>  <Genealogy>  (38) 
O=C(CCCc1nc(=O)c2ccccc2[n-]1)[N-]Cc1ccccc1 (protonated)
O=C(CCCc1nc(=O)c2ccccc2[n-]1)[N-]Cc1ccccc1 (3D coordinates assigned)
O=C(CCCc1nc(=O)c2ccccc2[n-]1)[N-]Cc1ccccc1 (optimized conformer: 37.32769437883794 kcal/mol)

>  <smiles>  (38) 
O=C(CCCc1nc(=O)c2ccccc2[nH]1)NCc1ccccc1

>  <score_type>  (38) 
oracle

>  <origin>  (38) 
adg

>  <m_score__min__energy>  (38) 
-12.24

>  <m_primary>  (38) 
energy

$$$$
38:0
     RDKit          3D

 21 21  0  0  0  0  0  0  0  0999 V2000
   57.7660   31.8880   42.7200 C   0  0  0  0  0  0  0  0  0  0  0  0
   56.9740   30.5690   43.6140 S   0  0  0  0  0  0  0  0  0  0  0  0
   55.9340   31.1510   44.5310 O   0  0  0  0  0  0  0  0  0  0  0  0
   56.2940   29.6340   42.6540 O   0  0  0  0  0  0  0  0  0  0  0  0
   58.1600   29.6930   44.5800 C   0  0  0  0  0  0  0  0  0  0  0  0
   59.2330   30.2830   44.8750 O   0  0  0  0  0  0  0  0  0  0  0  0
   57.9270   28.3020   45.0520 C   0  0  0  0  0  0  0  0  0  0  0  0
   59.0020   27.4040   45.1940 C   0  0  0  0  0  0  0  0  0  0  0  0
   58.7870   26.1020   45.6500 C   0  0  0  0  0  0  0  0  0  0  0  0
   57.5000   25.6750   45.9740 C   0  0  0  0  0  0  0  0  0  0  0  0
   56.4170   26.5510   45.8430 C   0  0  0  0  0  0  0  0  0  0  0  0
   55.1290   26.1280   46.1640 O   0  0  0  0  0  0  0  0  0  0  0  0
   56.6250   27.8590   45.3830 C   0  0  0  0  0  0  0  0  0  0  0  0
   55.5290   28.7050   45.2460 O   0  0  0  0  0  0  0  0  0  0  0  0
   58.1974   32.6065   43.4325 H   0  0  0  0  0  0  0  0  0  0  0  0
   58.5651   31.4741   42.0874 H   0  0  0  0  0  0  0  0  0  0  0  0
   57.0251   32.3988   42.0874 H   0  0  0  0  0  0  0  0  0  0  0  0
   60.0217   27.7315   44.9431 H   0  0  0  0  0  0  0  0  0  0  0  0
   59.6362   25.4106   45.7540 H   0  0  0  0  0  0  0  0  0  0  0  0
   57.3359   24.6483   46.3330 H   0  0  0  0  0  0  0  0  0  0  0  0
   54.3200   26.7170   45.9990 H   0  0  0  0  0  0  0  0  0  0  0  0
  1  2  1  0
  2  3  2  0
  2  4  2  0
  2  5  1  0
  5  6  2  0
  5  7  1  0
  7  8  2  0
  8  9  1  0
  9 10  2  0
 10 11  1  0
 11 12  1  0
 11 13  2  0
 13 14  1  0
 13  7  1  0
  1 15  1  0
  1 16  1  0
  1 17  1  0
  8 18  1  0
  9 19  1  0
 10 20  1  0
 12 21  1  0
M  CHG  1  14  -1
M  END
>  <UniqueID>  (39) 
34

>  <SMILES>  (39) 
CS(=O)(=O)C(=O)c1cccc(O)c1[O-]

>  <Energy>  (39) 
20.83526996975853

>  <Genealogy>  (39) 
CS(=O)(=O)C(=O)c1cccc(O)c1[O-] (protonated)
CS(=O)(=O)C(=O)c1cccc(O)c1[O-] (3D coordinates assigned)
CS(=O)(=O)C(=O)c1cccc(O)c1[O-] (optimized conformer: 20.83526996975853 kcal/mol)

>  <smiles>  (39) 
CS(=O)(=O)C(=O)c1cccc(O)c1O

>  <score_type>  (39) 
oracle

>  <origin>  (39) 
adg

>  <m_score__min__energy>  (39) 
-10.68

>  <m_primary>  (39) 
energy

$$$$
39:0
     RDKit          3D

 58 61  0  0  0  0  0  0  0  0999 V2000
   55.4330   29.8680   43.7230 C   0  0  0  0  0  0  0  0  0  0  0  0
   55.5170   28.9900   44.8400 O   0  0  0  0  0  0  0  0  0  0  0  0
   56.7050   28.4070   45.3120 C   0  0  0  0  0  0  0  0  0  0  0  0
   57.9380   29.0830   45.2440 C   0  0  0  0  0  0  0  0  0  0  0  0
   59.1030   28.5160   45.7890 C   0  0  0  0  0  0  0  0  0  0  0  0
   60.3880   29.2530   45.7100 C   0  0  0  0  0  0  0  0  0  0  0  0
   61.2460   28.9020   44.8550 O   0  0  0  0  0  0  0  0  0  0  0  0
   60.7200   30.3230   46.6040 N   0  0  0  0  0  0  0  0  0  0  0  0
   60.0440   30.6750   47.8190 C   0  0  0  0  0  0  0  0  0  0  0  0
   60.2860   29.8720   48.9530 C   0  0  0  0  0  0  0  0  0  0  0  0
   59.6220   30.1800   50.1370 C   0  0  0  0  0  0  0  0  0  0  0  0
   58.7590   31.2370   50.2250 C   0  0  0  0  0  0  0  0  0  0  0  0
   58.5050   32.0700   49.1390 C   0  0  0  0  0  0  0  0  0  0  0  0
   59.1630   31.8020   47.9160 C   0  0  0  0  0  0  0  0  0  0  0  0
   58.9710   32.7050   46.8120 N   0  0  0  0  0  0  0  0  0  0  0  0
   59.8560   33.8780   46.6980 C   0  0  0  0  0  0  0  0  0  0  0  0
   59.3730   34.9000   45.6460 C   0  0  0  0  0  0  0  0  0  0  0  0
   58.0690   34.6280   45.1760 O   0  0  0  0  0  0  0  0  0  0  0  0
   58.0450   33.3400   44.6050 C   0  0  0  0  0  0  0  0  0  0  0  0
   58.0910   32.2880   45.7090 C   0  0  0  0  0  0  0  0  0  0  0  0
   58.2340   31.2840   51.4650 N   0  0  0  0  0  0  0  0  0  0  0  0
   57.2250   32.2110   51.9700 C   0  0  0  0  0  0  0  0  0  0  0  0
   58.7920   30.2240   52.1020 C   0  0  0  0  0  0  0  0  0  0  0  0
   58.5160   29.9000   53.2890 O   0  0  0  0  0  0  0  0  0  0  0  0
   59.6630   29.5360   51.3220 N   0  0  0  0  0  0  0  0  0  0  0  0
   60.3730   28.3010   51.6470 C   0  0  0  0  0  0  0  0  0  0  0  0
   59.0320   27.2400   46.3700 C   0  0  0  0  0  0  0  0  0  0  0  0
   57.8140   26.5620   46.4360 C   0  0  0  0  0  0  0  0  0  0  0  0
   56.6540   27.1250   45.8960 C   0  0  0  0  0  0  0  0  0  0  0  0
   55.4580   26.3990   45.9870 O   0  0  0  0  0  0  0  0  0  0  0  0
   55.3360   25.0430   45.6600 C   0  0  0  0  0  0  0  0  0  0  0  0
   56.1990   24.4650   44.5900 C   0  0  0  0  0  0  0  0  0  0  0  0
   54.4430   24.3280   46.1960 O   0  0  0  0  0  0  0  0  0  0  0  0
   55.3338   30.9044   44.0779 H   0  0  0  0  0  0  0  0  0  0  0  0
   56.3442   29.7746   43.1139 H   0  0  0  0  0  0  0  0  0  0  0  0
   54.5561   29.6035   43.1139 H   0  0  0  0  0  0  0  0  0  0  0  0
   57.9904   30.0683   44.7578 H   0  0  0  0  0  0  0  0  0  0  0  0
   60.9830   29.0224   48.9029 H   0  0  0  0  0  0  0  0  0  0  0  0
   57.8089   32.9168   49.2299 H   0  0  0  0  0  0  0  0  0  0  0  0
   59.9025   34.3781   47.6766 H   0  0  0  0  0  0  0  0  0  0  0  0
   60.8426   33.5148   46.3743 H   0  0  0  0  0  0  0  0  0  0  0  0
   59.3809   35.9019   46.1000 H   0  0  0  0  0  0  0  0  0  0  0  0
   60.0550   34.8362   44.7853 H   0  0  0  0  0  0  0  0  0  0  0  0
   57.1216   33.2163   44.0201 H   0  0  0  0  0  0  0  0  0  0  0  0
   58.9179   33.2165   43.9471 H   0  0  0  0  0  0  0  0  0  0  0  0
   57.0744   32.1354   46.1004 H   0  0  0  0  0  0  0  0  0  0  0  0
   58.4892   31.3556   45.2822 H   0  0  0  0  0  0  0  0  0  0  0  0
   57.2358   32.2011   53.0699 H   0  0  0  0  0  0  0  0  0  0  0  0
   57.4472   33.2265   51.6103 H   0  0  0  0  0  0  0  0  0  0  0  0
   56.2320   31.9037   51.6103 H   0  0  0  0  0  0  0  0  0  0  0  0
   60.4362   28.1911   52.7397 H   0  0  0  0  0  0  0  0  0  0  0  0
   59.8300   27.4434   51.2230 H   0  0  0  0  0  0  0  0  0  0  0  0
   61.3873   28.3387   51.2230 H   0  0  0  0  0  0  0  0  0  0  0  0
   59.9413   26.7721   46.7754 H   0  0  0  0  0  0  0  0  0  0  0  0
   57.7662   25.5743   46.9179 H   0  0  0  0  0  0  0  0  0  0  0  0
   57.0295   23.9088   45.0493 H   0  0  0  0  0  0  0  0  0  0  0  0
   55.6023   23.7837   43.9657 H   0  0  0  0  0  0  0  0  0  0  0  0
   56.6019   25.2762   43.9657 H   0  0  0  0  0  0  0  0  0  0  0  0
  1  2  1  0
  2  3  1  0
  3  4  2  0
  4  5  1  0
  5  6  1  0
  6  7  2  0
  6  8  1  0
  8  9  1  0
  9 10  2  0
 10 11  1  0
 11 12  2  0
 12 13  1  0
 13 14  2  0
 14 15  1  0
 15 16  1  0
 16 17  1  0
 17 18  1  0
 18 19  1  0
 19 20  1  0
 12 21  1  0
 21 22  1  0
 21 23  1  0
 23 24  2  0
 23 25  1  0
 25 26  1  0
  5 27  2  0
 27 28  1  0
 28 29  2  0
 29 30  1  0
 30 31  1  0
 31 32  1  0
 31 33  2  0
 29  3  1  0
 14  9  1  0
 20 15  1  0
 25 11  1  0
  1 34  1  0
  1 35  1  0
  1 36  1  0
  4 37  1  0
 10 38  1  0
 13 39  1  0
 16 40  1  0
 16 41  1  0
 17 42  1  0
 17 43  1  0
 19 44  1  0
 19 45  1  0
 20 46  1  0
 20 47  1  0
 22 48  1  0
 22 49  1  0
 22 50  1  0
 26 51  1  0
 26 52  1  0
 26 53  1  0
 27 54  1  0
 28 55  1  0
 32 56  1  0
 32 57  1  0
 32 58  1  0
M  CHG  1   8  -1
M  END
>  <UniqueID>  (40) 
35

>  <SMILES>  (40) 
COc1cc(C(=O)[N-]c2cc3c(cc2N2CCOCC2)n(C)c(=O)n3C)ccc1OC(C)=O

>  <Energy>  (40) 
121.08202986144421

>  <Genealogy>  (40) 
COc1cc(C(=O)[N-]c2cc3c(cc2N2CCOCC2)n(C)c(=O)n3C)ccc1OC(C)=O (protonated)
COc1cc(C(=O)[N-]c2cc3c(cc2N2CCOCC2)n(C)c(=O)n3C)ccc1OC(C)=O (3D coordinates assigned)
COc1cc(C(=O)[N-]c2cc3c(cc2N2CCOCC2)n(C)c(=O)n3C)ccc1OC(C)=O (nonaromatic ring conformer: 121.08202986144421 kcal/mol)

>  <smiles>  (40) 
COc1cc(C(=O)Nc2cc3c(cc2N2CCOCC2)n(C)c(=O)n3C)ccc1OC(C)=O

>  <score_type>  (40) 
oracle

>  <origin>  (40) 
adg

>  <m_score__min__energy>  (40) 
-9.7200000000000006

>  <m_primary>  (40) 
energy

$$$$
40:0
     RDKit          3D

 36 37  0  0  0  0  0  0  0  0999 V2000
   57.7060   26.5700   44.4640 C   0  0  0  0  0  0  0  0  0  0  0  0
   56.5920   27.3450   45.6160 S   0  0  0  0  0  0  0  0  0  0  0  0
   57.3810   27.8120   46.8070 O   0  0  0  0  0  0  0  0  0  0  0  0
   55.5520   26.3650   46.0790 O   0  0  0  0  0  0  0  0  0  0  0  0
   55.8260   28.7200   44.8860 N   0  0  0  0  0  0  0  0  0  0  0  0
   56.4960   29.8660   44.3450 C   0  0  0  0  0  0  0  0  0  0  0  0
   56.4200   30.0980   42.9660 C   0  0  0  0  0  0  0  0  0  0  0  0
   57.0520   31.2060   42.3970 C   0  0  0  0  0  0  0  0  0  0  0  0
   57.7650   32.0970   43.2020 C   0  0  0  0  0  0  0  0  0  0  0  0
   57.8480   31.8790   44.5840 C   0  0  0  0  0  0  0  0  0  0  0  0
   58.7070   33.0110   45.6260 S   0  0  0  0  0  0  0  0  0  0  0  0
   59.1870   34.1710   44.8000 O   0  0  0  0  0  0  0  0  0  0  0  0
   57.7980   33.5230   46.7090 O   0  0  0  0  0  0  0  0  0  0  0  0
   60.0700   32.2040   46.3400 N   0  0  0  0  0  0  0  0  0  0  0  0
   59.6130   31.2700   47.3720 C   0  0  0  0  0  0  0  0  0  0  0  0
   59.9740   29.8680   46.9710 C   0  0  0  0  0  0  0  0  0  0  0  0
   60.2380   29.5620   45.6280 C   0  0  0  0  0  0  0  0  0  0  0  0
   60.5290   28.2430   45.2680 C   0  0  0  0  0  0  0  0  0  0  0  0
   60.5470   27.2660   46.2140 N   0  0  0  0  0  0  0  0  0  0  0  0
   60.2850   27.5350   47.5220 C   0  0  0  0  0  0  0  0  0  0  0  0
   59.9910   28.8390   47.9230 C   0  0  0  0  0  0  0  0  0  0  0  0
   57.2220   30.7620   45.1520 C   0  0  0  0  0  0  0  0  0  0  0  0
   58.4864   26.0271   45.0173 H   0  0  0  0  0  0  0  0  0  0  0  0
   57.1471   25.8647   43.8314 H   0  0  0  0  0  0  0  0  0  0  0  0
   58.1729   27.3393   43.8314 H   0  0  0  0  0  0  0  0  0  0  0  0
   55.8581   29.4020   42.3258 H   0  0  0  0  0  0  0  0  0  0  0  0
   56.9880   31.3772   41.3123 H   0  0  0  0  0  0  0  0  0  0  0  0
   58.2612   32.9694   42.7517 H   0  0  0  0  0  0  0  0  0  0  0  0
   60.6570   32.9380   46.8000 H   0  0  0  0  0  0  0  0  0  0  0  0
   60.0976   31.5144   48.3288 H   0  0  0  0  0  0  0  0  0  0  0  0
   58.5217   31.3509   47.4836 H   0  0  0  0  0  0  0  0  0  0  0  0
   60.2162   30.3534   44.8643 H   0  0  0  0  0  0  0  0  0  0  0  0
   60.7437   27.9949   44.2181 H   0  0  0  0  0  0  0  0  0  0  0  0
   60.3050   26.7235   48.2643 H   0  0  0  0  0  0  0  0  0  0  0  0
   59.7741   29.0580   48.9789 H   0  0  0  0  0  0  0  0  0  0  0  0
   57.2982   30.5841   46.2348 H   0  0  0  0  0  0  0  0  0  0  0  0
  1  2  1  0
  2  3  2  0
  2  4  2  0
  2  5  1  0
  5  6  1  0
  6  7  2  0
  7  8  1  0
  8  9  2  0
  9 10  1  0
 10 11  1  0
 11 12  2  0
 11 13  2  0
 11 14  1  0
 14 15  1  0
 15 16  1  0
 16 17  2  0
 17 18  1  0
 18 19  2  0
 19 20  1  0
 20 21  2  0
 10 22  2  0
 22  6  1  0
 21 16  1  0
  1 23  1  0
  1 24  1  0
  1 25  1  0
  7 26  1  0
  8 27  1  0
  9 28  1  0
 14 29  1  0
 15 30  1  0
 15 31  1  0
 17 32  1  0
 18 33  1  0
 20 34  1  0
 21 35  1  0
 22 36  1  0
M  CHG  1   5  -1
M  END
>  <UniqueID>  (41) 
36

>  <SMILES>  (41) 
CS(=O)(=O)[N-]c1cccc(S(=O)(=O)NCc2ccncc2)c1

>  <Energy>  (41) 
31.94220169415079

>  <Genealogy>  (41) 
CS(=O)(=O)[N-]c1cccc(S(=O)(=O)NCc2ccncc2)c1 (protonated)
CS(=O)(=O)[N-]c1cccc(S(=O)(=O)NCc2ccncc2)c1 (3D coordinates assigned)
CS(=O)(=O)[N-]c1cccc(S(=O)(=O)NCc2ccncc2)c1 (optimized conformer: 31.94220169415079 kcal/mol)

>  <smiles>  (41) 
CS(=O)(=O)Nc1cccc(S(=O)(=O)NCc2ccncc2)c1

>  <score_type>  (41) 
oracle

>  <origin>  (41) 
adg

>  <m_score__min__energy>  (41) 
-10.51

>  <m_primary>  (41) 
energy

$$$$
41:0
     RDKit          3D

 81 85  0  0  0  0  0  0  0  0999 V2000
   54.6100   22.1540   49.3060 C   0  0  0  0  0  0  0  0  0  0  0  0
   55.0390   22.3340   47.9610 O   0  0  0  0  0  0  0  0  0  0  0  0
   55.6100   23.5140   47.4630 C   0  0  0  0  0  0  0  0  0  0  0  0
   56.7340   24.0330   48.1120 C   0  0  0  0  0  0  0  0  0  0  0  0
   57.3470   25.2010   47.6490 C   0  0  0  0  0  0  0  0  0  0  0  0
   56.8440   25.8700   46.5210 C   0  0  0  0  0  0  0  0  0  0  0  0
   57.4810   27.0680   46.0350 N   0  0  0  0  0  0  0  0  0  0  0  0
   56.8940   28.1420   45.4630 C   0  0  0  0  0  0  0  0  0  0  0  0
   55.5260   28.2760   45.2440 O   0  0  0  0  0  0  0  0  0  0  0  0
   57.8610   29.0600   45.1040 C   0  0  0  0  0  0  0  0  0  0  0  0
   57.6190   30.3950   44.4540 C   0  0  0  0  0  0  0  0  0  0  0  0
   58.1540   31.5210   45.2900 C   0  0  0  0  0  0  0  0  0  0  0  0
   58.6400   32.5410   44.7280 O   0  0  0  0  0  0  0  0  0  0  0  0
   58.0180   31.4740   46.7180 N   0  0  0  0  0  0  0  0  0  0  0  0
   58.5630   32.4620   47.6080 C   0  0  0  0  0  0  0  0  0  0  0  0
   59.0950   33.6700   47.1250 C   0  0  0  0  0  0  0  0  0  0  0  0
   59.6370   34.6040   48.0110 C   0  0  0  0  0  0  0  0  0  0  0  0
   59.6650   34.3390   49.3830 C   0  0  0  0  0  0  0  0  0  0  0  0
   59.1550   33.1310   49.8740 C   0  0  0  0  0  0  0  0  0  0  0  0
   59.1550   32.7970   51.6030 S   0  0  0  0  0  0  0  0  0  0  0  0
   58.0740   33.6020   52.2720 O   0  0  0  0  0  0  0  0  0  0  0  0
   60.4830   33.2250   52.1690 O   0  0  0  0  0  0  0  0  0  0  0  0
   58.9190   31.0780   51.8580 N   0  0  0  0  0  0  0  0  0  0  0  0
   57.5920   30.6150   51.4090 C   0  0  0  0  0  0  0  0  0  0  0  0
   56.4930   30.8690   52.4570 C   0  0  0  0  0  0  0  0  0  0  0  0
   56.8500   30.3250   53.7100 O   0  0  0  0  0  0  0  0  0  0  0  0
   58.0250   30.9510   54.1830 C   0  0  0  0  0  0  0  0  0  0  0  0
   59.2070   30.6670   53.2450 C   0  0  0  0  0  0  0  0  0  0  0  0
   58.6110   32.1960   48.9850 C   0  0  0  0  0  0  0  0  0  0  0  0
   59.0660   28.5690   45.4750 N   0  0  0  0  0  0  0  0  0  0  0  0
   60.3860   29.1640   45.2560 C   0  0  0  0  0  0  0  0  0  0  0  0
   60.5330   30.4440   46.0830 C   0  0  0  0  0  0  0  0  0  0  0  0
   60.8520   30.1110   47.5190 C   0  0  0  0  0  0  0  0  0  0  0  0
   60.4400   28.8750   48.0460 C   0  0  0  0  0  0  0  0  0  0  0  0
   60.7620   28.5090   49.3560 C   0  0  0  0  0  0  0  0  0  0  0  0
   60.3210   27.2640   49.8270 O   0  0  0  0  0  0  0  0  0  0  0  0
   60.9220   26.5560   50.9050 C   0  0  0  0  0  0  0  0  0  0  0  0
   61.5130   29.3940   50.1500 C   0  0  0  0  0  0  0  0  0  0  0  0
   61.9370   30.6200   49.6340 C   0  0  0  0  0  0  0  0  0  0  0  0
   61.6190   30.9870   48.3120 C   0  0  0  0  0  0  0  0  0  0  0  0
   62.0520   32.2050   47.7590 O   0  0  0  0  0  0  0  0  0  0  0  0
   63.1550   32.9660   48.2400 C   0  0  0  0  0  0  0  0  0  0  0  0
   58.8020   27.3610   46.0210 C   0  0  0  0  0  0  0  0  0  0  0  0
   59.6950   26.6010   46.4890 O   0  0  0  0  0  0  0  0  0  0  0  0
   55.7120   25.3530   45.8720 C   0  0  0  0  0  0  0  0  0  0  0  0
   55.0980   24.1870   46.3380 C   0  0  0  0  0  0  0  0  0  0  0  0
   55.4033   22.4868   49.9915 H   0  0  0  0  0  0  0  0  0  0  0  0
   53.7001   22.7462   49.4830 H   0  0  0  0  0  0  0  0  0  0  0  0
   54.3951   21.0898   49.4830 H   0  0  0  0  0  0  0  0  0  0  0  0
   57.1399   23.5177   48.9950 H   0  0  0  0  0  0  0  0  0  0  0  0
   58.2293   25.5989   48.1717 H   0  0  0  0  0  0  0  0  0  0  0  0
   58.1172   30.4103   43.4734 H   0  0  0  0  0  0  0  0  0  0  0  0
   56.5332   30.5330   44.3448 H   0  0  0  0  0  0  0  0  0  0  0  0
   57.4130   30.7290   47.1290 H   0  0  0  0  0  0  0  0  0  0  0  0
   59.0845   33.8806   46.0454 H   0  0  0  0  0  0  0  0  0  0  0  0
   60.0433   35.5516   47.6275 H   0  0  0  0  0  0  0  0  0  0  0  0
   60.0879   35.0799   50.0774 H   0  0  0  0  0  0  0  0  0  0  0  0
   57.3270   31.1477   50.4838 H   0  0  0  0  0  0  0  0  0  0  0  0
   57.6544   29.5288   51.2467 H   0  0  0  0  0  0  0  0  0  0  0  0
   56.3438   31.9534   52.5655 H   0  0  0  0  0  0  0  0  0  0  0  0
   55.5666   30.3834   52.1165 H   0  0  0  0  0  0  0  0  0  0  0  0
   57.8591   32.0371   54.2361 H   0  0  0  0  0  0  0  0  0  0  0  0
   58.2613   30.5516   55.1803 H   0  0  0  0  0  0  0  0  0  0  0  0
   60.0872   31.2202   53.6044 H   0  0  0  0  0  0  0  0  0  0  0  0
   59.3920   29.5827   53.2480 H   0  0  0  0  0  0  0  0  0  0  0  0
   58.2174   31.2436   49.3698 H   0  0  0  0  0  0  0  0  0  0  0  0
   61.1628   28.4457   45.5571 H   0  0  0  0  0  0  0  0  0  0  0  0
   60.4958   29.4111   44.1897 H   0  0  0  0  0  0  0  0  0  0  0  0
   61.3462   31.0546   45.6637 H   0  0  0  0  0  0  0  0  0  0  0  0
   59.5848   31.0006   46.0489 H   0  0  0  0  0  0  0  0  0  0  0  0
   59.8558   28.1858   47.4186 H   0  0  0  0  0  0  0  0  0  0  0  0
   60.5684   26.9726   51.8597 H   0  0  0  0  0  0  0  0  0  0  0  0
   60.6464   25.4928   50.8443 H   0  0  0  0  0  0  0  0  0  0  0  0
   62.0158   26.6553   50.8443 H   0  0  0  0  0  0  0  0  0  0  0  0
   61.7679   29.1186   51.1840 H   0  0  0  0  0  0  0  0  0  0  0  0
   62.5237   31.3043   50.2645 H   0  0  0  0  0  0  0  0  0  0  0  0
   63.1507   32.9630   49.3400 H   0  0  0  0  0  0  0  0  0  0  0  0
   64.0933   32.5222   47.8758 H   0  0  0  0  0  0  0  0  0  0  0  0
   63.0732   34.0007   47.8758 H   0  0  0  0  0  0  0  0  0  0  0  0
   55.3050   25.8693   44.9901 H   0  0  0  0  0  0  0  0  0  0  0  0
   54.2096   23.7932   45.8225 H   0  0  0  0  0  0  0  0  0  0  0  0
  1  2  1  0
  2  3  1  0
  3  4  2  0
  4  5  1  0
  5  6  2  0
  6  7  1  0
  7  8  1  0
  8  9  1  0
  8 10  2  0
 10 11  1  0
 11 12  1  0
 12 13  2  0
 12 14  1  0
 14 15  1  0
 15 16  2  0
 16 17  1  0
 17 18  2  0
 18 19  1  0
 19 20  1  0
 20 21  2  0
 20 22  2  0
 20 23  1  0
 23 24  1  0
 24 25  1  0
 25 26  1  0
 26 27  1  0
 27 28  1  0
 19 29  2  0
 10 30  1  0
 30 31  1  0
 31 32  1  0
 32 33  1  0
 33 34  2  0
 34 35  1  0
 35 36  1  0
 36 37  1  0
 35 38  2  0
 38 39  1  0
 39 40  2  0
 40 41  1  0
 41 42  1  0
 30 43  1  0
 43 44  2  0
  6 45  1  0
 45 46  2  0
 46  3  1  0
 43  7  1  0
 29 15  1  0
 40 33  1  0
 28 23  1  0
  1 47  1  0
  1 48  1  0
  1 49  1  0
  4 50  1  0
  5 51  1  0
 11 52  1  0
 11 53  1  0
 14 54  1  0
 16 55  1  0
 17 56  1  0
 18 57  1  0
 24 58  1  0
 24 59  1  0
 25 60  1  0
 25 61  1  0
 27 62  1  0
 27 63  1  0
 28 64  1  0
 28 65  1  0
 29 66  1  0
 31 67  1  0
 31 68  1  0
 32 69  1  0
 32 70  1  0
 34 71  1  0
 37 72  1  0
 37 73  1  0
 37 74  1  0
 38 75  1  0
 39 76  1  0
 42 77  1  0
 42 78  1  0
 42 79  1  0
 45 80  1  0
 46 81  1  0
M  CHG  1   9  -1
M  END
>  <UniqueID>  (42) 
37

>  <SMILES>  (42) 
COc1ccc(-n2c([O-])c(CC(=O)Nc3cccc(S(=O)(=O)N4CCOCC4)c3)n(CCc3cc(OC)ccc3OC)c2=O)cc1

>  <Energy>  (42) 
127.5279552790427

>  <Genealogy>  (42) 
COc1ccc(-n2c([O-])c(CC(=O)Nc3cccc(S(=O)(=O)N4CCOCC4)c3)n(CCc3cc(OC)ccc3OC)c2=O)cc1 (protonated)
COc1ccc(-n2c([O-])c(CC(=O)Nc3cccc(S(=O)(=O)N4CCOCC4)c3)n(CCc3cc(OC)ccc3OC)c2=O)cc1 (3D coordinates assigned)
COc1ccc(-n2c([O-])c(CC(=O)Nc3cccc(S(=O)(=O)N4CCOCC4)c3)n(CCc3cc(OC)ccc3OC)c2=O)cc1 (nonaromatic ring conformer: 127.5279552790427 kcal/mol)

>  <smiles>  (42) 
COc1ccc(-n2c(O)c(CC(=O)Nc3cccc(S(=O)(=O)N4CCOCC4)c3)n(CCc3cc(OC)ccc3OC)c2=O)cc1

>  <score_type>  (42) 
oracle

>  <origin>  (42) 
adg

>  <m_score__min__energy>  (42) 
-11.09

>  <m_primary>  (42) 
energy

$$$$
42:0
     RDKit          3D

 51 54  0  0  0  0  0  0  0  0999 V2000
   61.7330   31.1030   47.1540 H   0  0  0  0  0  0  0  0  0  0  0  0
   61.5570   30.4280   47.8900 O   0  0  0  0  0  0  0  0  0  0  0  0
   60.4390   29.5980   47.8840 C   0  0  0  0  0  0  0  0  0  0  0  0
   60.1290   28.7330   46.8560 C   0  0  0  0  0  0  0  0  0  0  0  0
   60.7234   28.5359   45.9517 H   0  0  0  0  0  0  0  0  0  0  0  0
   58.9160   28.1650   47.1980 C   0  0  0  0  0  0  0  0  0  0  0  0
   58.1460   27.2130   46.3880 C   0  0  0  0  0  0  0  0  0  0  0  0
   58.3550   25.9750   46.5220 O   0  0  0  0  0  0  0  0  0  0  0  0
   57.1610   27.6980   45.4620 N   0  0  0  0  0  0  0  0  0  0  0  0
   57.0460   28.9260   45.0540 C   0  0  0  0  0  0  0  0  0  0  0  0
   55.8760   29.5940   44.9770 N   0  0  0  0  0  0  0  0  0  0  0  0
   56.0140   30.8260   44.4980 N   0  0  0  0  0  0  0  0  0  0  0  0
   57.2930   31.1380   44.1940 C   0  0  0  0  0  0  0  0  0  0  0  0
   57.7700   32.7040   43.4580 S   0  0  0  0  0  0  0  0  0  0  0  0
   57.7770   33.6780   45.0110 C   0  0  0  0  0  0  0  0  0  0  0  0
   57.0076   34.4606   44.9361 H   0  0  0  0  0  0  0  0  0  0  0  0
   57.5767   32.9784   45.8359 H   0  0  0  0  0  0  0  0  0  0  0  0
   59.0950   34.3320   45.2930 C   0  0  0  0  0  0  0  0  0  0  0  0
   59.3060   35.5030   44.8740 O   0  0  0  0  0  0  0  0  0  0  0  0
   60.1210   33.6080   45.9790 N   0  0  0  0  0  0  0  0  0  0  0  0
   60.4230   33.7060   47.3800 C   0  0  0  0  0  0  0  0  0  0  0  0
   59.3940   33.9230   48.3160 C   0  0  0  0  0  0  0  0  0  0  0  0
   58.3586   34.0461   47.9655 H   0  0  0  0  0  0  0  0  0  0  0  0
   59.6700   33.9840   49.6820 C   0  0  0  0  0  0  0  0  0  0  0  0
   58.8568   34.1631   50.4007 H   0  0  0  0  0  0  0  0  0  0  0  0
   60.9750   33.8180   50.1340 C   0  0  0  0  0  0  0  0  0  0  0  0
   61.1929   33.8689   51.2110 H   0  0  0  0  0  0  0  0  0  0  0  0
   62.0090   33.5870   49.2250 C   0  0  0  0  0  0  0  0  0  0  0  0
   63.0369   33.4541   49.5936 H   0  0  0  0  0  0  0  0  0  0  0  0
   61.7520   33.5220   47.8410 C   0  0  0  0  0  0  0  0  0  0  0  0
   62.8960   33.3020   46.9150 C   0  0  0  0  0  0  0  0  0  0  0  0
   63.3800   34.2490   46.2440 O   0  0  0  0  0  0  0  0  0  0  0  0
   63.4690   32.0360   46.8010 O   0  0  0  0  0  0  0  0  0  0  0  0
   58.3400   29.8600   44.5190 S   0  0  0  0  0  0  0  0  0  0  0  0
   58.5490   28.6900   48.4260 C   0  0  0  0  0  0  0  0  0  0  0  0
   57.6303   28.4356   48.9749 H   0  0  0  0  0  0  0  0  0  0  0  0
   59.4910   29.5620   48.8470 N   0  0  0  0  0  0  0  0  0  0  0  0
   59.4630   30.2920   50.0840 C   0  0  0  0  0  0  0  0  0  0  0  0
   60.6230   30.3920   50.8690 C   0  0  0  0  0  0  0  0  0  0  0  0
   61.5561   29.9182   50.5302 H   0  0  0  0  0  0  0  0  0  0  0  0
   60.5970   31.0910   52.0790 C   0  0  0  0  0  0  0  0  0  0  0  0
   61.5111   31.1692   52.6859 H   0  0  0  0  0  0  0  0  0  0  0  0
   59.4130   31.6920   52.5220 C   0  0  0  0  0  0  0  0  0  0  0  0
   59.3940   32.2265   53.4832 H   0  0  0  0  0  0  0  0  0  0  0  0
   58.2510   31.6130   51.7410 C   0  0  0  0  0  0  0  0  0  0  0  0
   56.9960   32.3010   52.1880 C   0  0  0  0  0  0  0  0  0  0  0  0
   56.9602   32.3206   53.2872 H   0  0  0  0  0  0  0  0  0  0  0  0
   56.9853   33.3311   51.8023 H   0  0  0  0  0  0  0  0  0  0  0  0
   56.1218   31.7560   51.8023 H   0  0  0  0  0  0  0  0  0  0  0  0
   58.2890   30.9340   50.5110 C   0  0  0  0  0  0  0  0  0  0  0  0
   57.3908   30.9051   49.8767 H   0  0  0  0  0  0  0  0  0  0  0  0
  1  2  1  0
  2  3  1  0
  3  4  2  0
  4  5  1  0
  4  6  1  0
  6  7  1  0
  7  8  2  0
  7  9  1  0
  9 10  2  0
 10 11  1  0
 11 12  1  0
 12 13  2  0
 13 14  1  0
 14 15  1  0
 15 16  1  0
 15 17  1  0
 15 18  1  0
 18 19  2  0
 18 20  1  0
 20 21  1  0
 21 22  2  0
 22 23  1  0
 22 24  1  0
 24 25  1  0
 24 26  2  0
 26 27  1  0
 26 28  1  0
 28 29  1  0
 28 30  2  0
 30 31  1  0
 31 32  2  0
 31 33  1  0
 13 34  1  0
  6 35  2  0
 35 36  1  0
 35 37  1  0
 37 38  1  0
 38 39  2  0
 39 40  1  0
 39 41  1  0
 41 42  1  0
 41 43  2  0
 43 44  1  0
 43 45  1  0
 45 46  1  0
 46 47  1  0
 46 48  1  0
 46 49  1  0
 45 50  2  0
 50 51  1  0
 37  3  1  0
 50 38  1  0
 34 10  1  0
 30 21  1  0
M  CHG  3  11  -1  20  -1  33  -1
M  END
>  <UniqueID>  (43) 
38

>  <SMILES>  (43) 
Cc1cccc(-n2cc(C(=O)/N=c3\[n-]nc(SCC(=O)[N-]c4ccccc4C(=O)[O-])s3)cc2O)c1

>  <Energy>  (43) 
125.6700138678129

>  <Genealogy>  (43) 
Cc1cccc(-n2cc(C(=O)N=c3[n-]nc(SCC(=O)[N-]c4ccccc4C(=O)[O-])s3)cc2O)c1 (protonated)
Cc1cccc(-n2cc(C(=O)/N=c3\[n-]nc(SCC(=O)[N-]c4ccccc4C(=O)[O-])s3)cc2O)c1 (cis-trans isomerization)
Cc1cccc(-n2cc(C(=O)/N=c3\[n-]nc(SCC(=O)[N-]c4ccccc4C(=O)[O-])s3)cc2O)c1 (3D coordinates assigned)
Cc1cccc(-n2cc(C(=O)/N=c3\[n-]nc(SCC(=O)[N-]c4ccccc4C(=O)[O-])s3)cc2O)c1 (optimized conformer: 125.6700138678129 kcal/mol)

>  <smiles>  (43) 
Cc1cccc(-n2cc(C(=O)N=c3[nH]nc(SCC(=O)Nc4ccccc4C(=O)O)s3)cc2O)c1

>  <score_type>  (43) 
oracle

>  <origin>  (43) 
adg

>  <m_score__min__energy>  (43) 
-16.149999999999999

>  <m_primary>  (43) 
energy

$$$$
43:0
     RDKit          3D

 47 49  0  0  0  0  0  0  0  0999 V2000
   60.1050   33.7790   47.8260 C   0  0  0  0  0  0  0  0  0  0  0  0
   59.1270   33.3220   46.7790 C   0  0  0  0  0  0  0  0  0  0  0  0
   58.1080   34.2070   46.3590 C   0  0  0  0  0  0  0  0  0  0  0  0
   57.1590   33.8170   45.3940 C   0  0  0  0  0  0  0  0  0  0  0  0
   57.2100   32.5390   44.8250 C   0  0  0  0  0  0  0  0  0  0  0  0
   58.2290   31.6760   45.2340 C   0  0  0  0  0  0  0  0  0  0  0  0
   59.1650   32.0420   46.1730 C   0  0  0  0  0  0  0  0  0  0  0  0
   59.9950   30.9890   46.3860 N   0  0  0  0  0  0  0  0  0  0  0  0
   61.1380   30.8940   47.2970 C   0  0  0  0  0  0  0  0  0  0  0  0
   59.5040   29.9910   45.5960 C   0  0  0  0  0  0  0  0  0  0  0  0
   60.0710   28.5980   45.5620 C   0  0  0  0  0  0  0  0  0  0  0  0
   58.4440   30.4020   44.8470 N   0  0  0  0  0  0  0  0  0  0  0  0
   57.6110   29.6010   43.9440 C   0  0  0  0  0  0  0  0  0  0  0  0
   56.2940   29.3220   44.5930 C   0  0  0  0  0  0  0  0  0  0  0  0
   55.3580   30.1620   44.5110 O   0  0  0  0  0  0  0  0  0  0  0  0
   56.0920   28.0670   45.2480 N   0  0  0  0  0  0  0  0  0  0  0  0
   57.1750   27.1980   45.6970 C   0  0  0  0  0  0  0  0  0  0  0  0
   57.8240   26.5260   44.4650 C   0  0  0  0  0  0  0  0  0  0  0  0
   57.1200   25.2120   44.1070 C   0  0  0  0  0  0  0  0  0  0  0  0
   57.2150   24.1830   45.2520 C   0  0  0  0  0  0  0  0  0  0  0  0
   57.3620   24.8280   46.6450 C   0  0  0  0  0  0  0  0  0  0  0  0
   56.6270   26.1700   46.7230 C   0  0  0  0  0  0  0  0  0  0  0  0
   59.6893   33.5848   48.8257 H   0  0  0  0  0  0  0  0  0  0  0  0
   61.0508   33.2296   47.7091 H   0  0  0  0  0  0  0  0  0  0  0  0
   60.2903   34.8570   47.7091 H   0  0  0  0  0  0  0  0  0  0  0  0
   58.0553   35.2165   46.7927 H   0  0  0  0  0  0  0  0  0  0  0  0
   56.3725   34.5214   45.0854 H   0  0  0  0  0  0  0  0  0  0  0  0
   56.4682   32.2233   44.0766 H   0  0  0  0  0  0  0  0  0  0  0  0
   60.7813   30.9236   48.3371 H   0  0  0  0  0  0  0  0  0  0  0  0
   61.6711   29.9484   47.1190 H   0  0  0  0  0  0  0  0  0  0  0  0
   61.8199   31.7386   47.1190 H   0  0  0  0  0  0  0  0  0  0  0  0
   60.2180   28.2368   46.5905 H   0  0  0  0  0  0  0  0  0  0  0  0
   59.3729   27.9307   45.0353 H   0  0  0  0  0  0  0  0  0  0  0  0
   61.0367   28.6079   45.0353 H   0  0  0  0  0  0  0  0  0  0  0  0
   57.4479   30.1554   43.0080 H   0  0  0  0  0  0  0  0  0  0  0  0
   58.1192   28.6504   43.7248 H   0  0  0  0  0  0  0  0  0  0  0  0
   57.9563   27.7780   46.2101 H   0  0  0  0  0  0  0  0  0  0  0  0
   57.7585   27.2119   43.6076 H   0  0  0  0  0  0  0  0  0  0  0  0
   58.8733   26.3011   44.7067 H   0  0  0  0  0  0  0  0  0  0  0  0
   56.0595   25.4202   43.9020 H   0  0  0  0  0  0  0  0  0  0  0  0
   57.6167   24.7871   43.2223 H   0  0  0  0  0  0  0  0  0  0  0  0
   56.3017   23.5699   45.2464 H   0  0  0  0  0  0  0  0  0  0  0  0
   58.1199   23.5831   45.0750 H   0  0  0  0  0  0  0  0  0  0  0  0
   56.9432   24.1467   47.4003 H   0  0  0  0  0  0  0  0  0  0  0  0
   58.4311   25.0088   46.8304 H   0  0  0  0  0  0  0  0  0  0  0  0
   55.5591   26.0015   46.5201 H   0  0  0  0  0  0  0  0  0  0  0  0
   56.7823   26.5825   47.7308 H   0  0  0  0  0  0  0  0  0  0  0  0
  1  2  1  0
  2  3  2  0
  3  4  1  0
  4  5  2  0
  5  6  1  0
  6  7  2  0
  7  8  1  0
  8  9  1  0
  8 10  1  0
 10 11  1  0
 10 12  2  0
 12 13  1  0
 13 14  1  0
 14 15  2  0
 14 16  1  0
 16 17  1  0
 17 18  1  0
 18 19  1  0
 19 20  1  0
 20 21  1  0
 21 22  1  0
  7  2  1  0
 22 17  1  0
 12  6  1  0
  1 23  1  0
  1 24  1  0
  1 25  1  0
  3 26  1  0
  4 27  1  0
  5 28  1  0
  9 29  1  0
  9 30  1  0
  9 31  1  0
 11 32  1  0
 11 33  1  0
 11 34  1  0
 13 35  1  0
 13 36  1  0
 17 37  1  0
 18 38  1  0
 18 39  1  0
 19 40  1  0
 19 41  1  0
 20 42  1  0
 20 43  1  0
 21 44  1  0
 21 45  1  0
 22 46  1  0
 22 47  1  0
M  CHG  2  12   1  16  -1
M  END
>  <UniqueID>  (44) 
39

>  <SMILES>  (44) 
Cc1cccc2c1n(C)c(C)[n+]2CC(=O)[N-]C1CCCCC1

>  <Energy>  (44) 
86.41949439163528

>  <Genealogy>  (44) 
Cc1cccc2c1n(C)c(C)[n+]2CC(=O)[N-]C1CCCCC1 (protonated)
Cc1cccc2c1n(C)c(C)[n+]2CC(=O)[N-]C1CCCCC1 (3D coordinates assigned)
Cc1cccc2c1n(C)c(C)[n+]2CC(=O)[N-]C1CCCCC1 (nonaromatic ring conformer: 86.41949439163528 kcal/mol)

>  <smiles>  (44) 
Cc1cccc2c1n(C)c(C)[n+]2CC(=O)NC1CCCCC1

>  <score_type>  (44) 
oracle

>  <origin>  (44) 
adg

>  <m_score__min__energy>  (44) 
-8.6300000000000008

>  <m_primary>  (44) 
energy

$$$$
44:0
     RDKit          3D

 44 47  0  0  0  0  0  0  0  0999 V2000
   56.4430   29.3480   42.5300 N   0  0  0  0  0  0  0  0  0  0  0  0
   56.5660   30.0660   43.7600 C   0  0  0  0  0  0  0  0  0  0  0  0
   55.5810   30.1340   44.5430 O   0  0  0  0  0  0  0  0  0  0  0  0
   57.8460   30.7600   44.1150 C   0  0  0  0  0  0  0  0  0  0  0  0
   58.4380   30.1600   45.3710 C   0  0  0  0  0  0  0  0  0  0  0  0
   58.2670   28.7860   45.6020 C   0  0  0  0  0  0  0  0  0  0  0  0
   58.7160   28.1970   46.7830 C   0  0  0  0  0  0  0  0  0  0  0  0
   59.3490   28.9670   47.7710 C   0  0  0  0  0  0  0  0  0  0  0  0
   59.7870   28.3740   49.0110 N   0  0  0  0  0  0  0  0  0  0  0  0
   60.5160   27.1000   49.1140 C   0  0  0  0  0  0  0  0  0  0  0  0
   60.9110   27.0370   50.5610 C   0  0  0  0  0  0  0  0  0  0  0  0
   61.6400   26.0410   51.2100 C   0  0  0  0  0  0  0  0  0  0  0  0
   61.8920   26.1830   52.5870 C   0  0  0  0  0  0  0  0  0  0  0  0
   61.4110   27.3090   53.2860 C   0  0  0  0  0  0  0  0  0  0  0  0
   60.6730   28.2990   52.6170 C   0  0  0  0  0  0  0  0  0  0  0  0
   60.4410   28.1320   51.2520 C   0  0  0  0  0  0  0  0  0  0  0  0
   59.7330   28.9620   50.3140 C   0  0  0  0  0  0  0  0  0  0  0  0
   59.0970   30.0090   50.6060 O   0  0  0  0  0  0  0  0  0  0  0  0
   59.5060   30.3460   47.5560 C   0  0  0  0  0  0  0  0  0  0  0  0
   59.0630   30.9500   46.3680 C   0  0  0  0  0  0  0  0  0  0  0  0
   59.2540   32.4060   46.2140 C   0  0  0  0  0  0  0  0  0  0  0  0
   58.2240   33.2110   45.6980 C   0  0  0  0  0  0  0  0  0  0  0  0
   58.4170   34.5870   45.5400 C   0  0  0  0  0  0  0  0  0  0  0  0
   59.6450   35.1650   45.8780 C   0  0  0  0  0  0  0  0  0  0  0  0
   59.8320   36.4980   45.7210 F   0  0  0  0  0  0  0  0  0  0  0  0
   60.6830   34.3670   46.3730 C   0  0  0  0  0  0  0  0  0  0  0  0
   60.4900   32.9900   46.5350 C   0  0  0  0  0  0  0  0  0  0  0  0
   57.2520   29.2640   41.8750 H   0  0  0  0  0  0  0  0  0  0  0  0
   55.5390   28.8950   42.2740 H   0  0  0  0  0  0  0  0  0  0  0  0
   58.5614   30.6474   43.2871 H   0  0  0  0  0  0  0  0  0  0  0  0
   57.6381   31.8257   44.2913 H   0  0  0  0  0  0  0  0  0  0  0  0
   57.7718   28.1655   44.8406 H   0  0  0  0  0  0  0  0  0  0  0  0
   58.5728   27.1180   46.9421 H   0  0  0  0  0  0  0  0  0  0  0  0
   59.8670   26.2531   48.8466 H   0  0  0  0  0  0  0  0  0  0  0  0
   61.3775   27.0435   48.4323 H   0  0  0  0  0  0  0  0  0  0  0  0
   62.0096   25.1643   50.6580 H   0  0  0  0  0  0  0  0  0  0  0  0
   62.4670   25.4119   53.1207 H   0  0  0  0  0  0  0  0  0  0  0  0
   61.6150   27.4127   54.3619 H   0  0  0  0  0  0  0  0  0  0  0  0
   60.2896   29.1795   53.1534 H   0  0  0  0  0  0  0  0  0  0  0  0
   59.9839   30.9633   48.3310 H   0  0  0  0  0  0  0  0  0  0  0  0
   57.2622   32.7569   45.4173 H   0  0  0  0  0  0  0  0  0  0  0  0
   57.6027   35.2151   45.1497 H   0  0  0  0  0  0  0  0  0  0  0  0
   61.6499   34.8217   46.6346 H   0  0  0  0  0  0  0  0  0  0  0  0
   61.3099   32.3629   46.9153 H   0  0  0  0  0  0  0  0  0  0  0  0
  1  2  1  0
  2  3  2  0
  2  4  1  0
  4  5  1  0
  5  6  2  0
  6  7  1  0
  7  8  2  0
  8  9  1  0
  9 10  1  0
 10 11  1  0
 11 12  2  0
 12 13  1  0
 13 14  2  0
 14 15  1  0
 15 16  2  0
 16 17  1  0
 17 18  2  0
  8 19  1  0
 19 20  2  0
 20 21  1  0
 21 22  2  0
 22 23  1  0
 23 24  2  0
 24 25  1  0
 24 26  1  0
 26 27  2  0
 20  5  1  0
 27 21  1  0
 17  9  1  0
 16 11  1  0
  1 28  1  0
  1 29  1  0
  4 30  1  0
  4 31  1  0
  6 32  1  0
  7 33  1  0
 10 34  1  0
 10 35  1  0
 12 36  1  0
 13 37  1  0
 14 38  1  0
 15 39  1  0
 19 40  1  0
 22 41  1  0
 23 42  1  0
 26 43  1  0
 27 44  1  0
M  END
>  <UniqueID>  (45) 
40

>  <SMILES>  (45) 
NC(=O)Cc1ccc(N2Cc3ccccc3C2=O)cc1-c1ccc(F)cc1

>  <Energy>  (45) 
78.85419684340596

>  <Genealogy>  (45) 
NC(=O)Cc1ccc(N2Cc3ccccc3C2=O)cc1-c1ccc(F)cc1 (3D coordinates assigned)
NC(=O)Cc1ccc(N2Cc3ccccc3C2=O)cc1-c1ccc(F)cc1 (nonaromatic ring conformer: 78.85419684340596 kcal/mol)

>  <smiles>  (45) 
NC(=O)Cc1ccc(N2Cc3ccccc3C2=O)cc1-c1ccc(F)cc1

>  <score_type>  (45) 
oracle

>  <origin>  (45) 
adg

>  <m_score__min__energy>  (45) 
-8.5700000000000003

>  <m_primary>  (45) 
energy

$$$$
45:0
     RDKit          3D

 52 55  0  0  0  0  0  0  0  0999 V2000
   58.9790   29.9230   44.8600 C   0  0  0  0  0  0  0  0  0  0  0  0
   58.8280   29.4490   46.1080 C   0  0  0  0  0  0  0  0  0  0  0  0
   58.3940   28.1630   46.4470 C   0  0  0  0  0  0  0  0  0  0  0  0
   58.0170   27.1760   45.6110 C   0  0  0  0  0  0  0  0  0  0  0  0
   57.3140   25.9520   46.0580 C   0  0  0  0  0  0  0  0  0  0  0  0
   55.9190   25.9240   46.2310 C   0  0  0  0  0  0  0  0  0  0  0  0
   55.1470   27.0530   45.9820 O   0  0  0  0  0  0  0  0  0  0  0  0
   55.3130   24.7880   46.6640 N   0  0  0  0  0  0  0  0  0  0  0  0
   56.0330   23.6750   46.9540 C   0  0  0  0  0  0  0  0  0  0  0  0
   55.4490   22.6330   47.3510 O   0  0  0  0  0  0  0  0  0  0  0  0
   57.3840   23.6860   46.8230 N   0  0  0  0  0  0  0  0  0  0  0  0
   58.0390   24.7960   46.3910 C   0  0  0  0  0  0  0  0  0  0  0  0
   59.2940   24.7710   46.2840 O   0  0  0  0  0  0  0  0  0  0  0  0
   58.3730   28.1080   47.8320 C   0  0  0  0  0  0  0  0  0  0  0  0
   58.8030   29.3390   48.2830 C   0  0  0  0  0  0  0  0  0  0  0  0
   58.8620   29.7260   49.7310 C   0  0  0  0  0  0  0  0  0  0  0  0
   59.0810   30.1600   47.2420 N   0  0  0  0  0  0  0  0  0  0  0  0
   59.5030   31.5660   47.3600 C   0  0  0  0  0  0  0  0  0  0  0  0
   60.8400   31.6650   48.0470 C   0  0  0  0  0  0  0  0  0  0  0  0
   60.9150   31.9320   49.4240 C   0  0  0  0  0  0  0  0  0  0  0  0
   62.1570   32.0390   50.0570 C   0  0  0  0  0  0  0  0  0  0  0  0
   63.3420   31.8750   49.3240 C   0  0  0  0  0  0  0  0  0  0  0  0
   64.6210   32.0010   49.9670 N   0  0  0  0  0  0  0  0  0  0  0  0
   65.3710   33.2500   49.7750 C   0  0  0  0  0  0  0  0  0  0  0  0
   66.8530   33.0860   50.1150 C   0  0  0  0  0  0  0  0  0  0  0  0
   67.0100   32.4780   51.5080 C   0  0  0  0  0  0  0  0  0  0  0  0
   66.4130   31.0710   51.5510 C   0  0  0  0  0  0  0  0  0  0  0  0
   65.0340   31.0300   50.9540 C   0  0  0  0  0  0  0  0  0  0  0  0
   64.2730   30.0720   51.2610 O   0  0  0  0  0  0  0  0  0  0  0  0
   63.2690   31.6110   47.9490 C   0  0  0  0  0  0  0  0  0  0  0  0
   62.0280   31.5030   47.3150 C   0  0  0  0  0  0  0  0  0  0  0  0
   59.3279   30.9541   44.7018 H   0  0  0  0  0  0  0  0  0  0  0  0
   58.7537   29.2800   43.9964 H   0  0  0  0  0  0  0  0  0  0  0  0
   58.2434   27.2853   44.5401 H   0  0  0  0  0  0  0  0  0  0  0  0
   58.0721   27.2499   48.4510 H   0  0  0  0  0  0  0  0  0  0  0  0
   58.7255   28.8309   50.3556 H   0  0  0  0  0  0  0  0  0  0  0  0
   59.8397   30.1801   49.9496 H   0  0  0  0  0  0  0  0  0  0  0  0
   58.0640   30.4508   49.9496 H   0  0  0  0  0  0  0  0  0  0  0  0
   59.5803   32.0054   46.3545 H   0  0  0  0  0  0  0  0  0  0  0  0
   58.7571   32.1100   47.9580 H   0  0  0  0  0  0  0  0  0  0  0  0
   59.9912   32.0576   50.0077 H   0  0  0  0  0  0  0  0  0  0  0  0
   62.2053   32.2528   51.1349 H   0  0  0  0  0  0  0  0  0  0  0  0
   65.2800   33.5609   48.7238 H   0  0  0  0  0  0  0  0  0  0  0  0
   64.9488   34.0075   50.4518 H   0  0  0  0  0  0  0  0  0  0  0  0
   67.3248   32.4238   49.3741 H   0  0  0  0  0  0  0  0  0  0  0  0
   67.3370   34.0737   50.0975 H   0  0  0  0  0  0  0  0  0  0  0  0
   68.0792   32.4250   51.7610 H   0  0  0  0  0  0  0  0  0  0  0  0
   66.4785   33.1113   52.2335 H   0  0  0  0  0  0  0  0  0  0  0  0
   67.0660   30.3899   50.9855 H   0  0  0  0  0  0  0  0  0  0  0  0
   66.3382   30.7639   52.6046 H   0  0  0  0  0  0  0  0  0  0  0  0
   64.1936   31.4882   47.3659 H   0  0  0  0  0  0  0  0  0  0  0  0
   61.9813   31.2900   46.2368 H   0  0  0  0  0  0  0  0  0  0  0  0
  1  2  2  0
  2  3  1  0
  3  4  2  3
  4  5  1  0
  5  6  2  0
  6  7  1  0
  6  8  1  0
  8  9  1  0
  9 10  2  0
  9 11  1  0
 11 12  1  0
 12 13  2  0
  3 14  1  0
 14 15  2  0
 15 16  1  0
 15 17  1  0
 17 18  1  0
 18 19  1  0
 19 20  2  0
 20 21  1  0
 21 22  2  0
 22 23  1  0
 23 24  1  0
 24 25  1  0
 25 26  1  0
 26 27  1  0
 27 28  1  0
 28 29  2  0
 22 30  1  0
 30 31  2  0
 17  2  1  0
 31 19  1  0
 12  5  1  0
 28 23  1  0
  1 32  1  0
  1 33  1  0
  4 34  1  0
 14 35  1  0
 16 36  1  0
 16 37  1  0
 16 38  1  0
 18 39  1  0
 18 40  1  0
 20 41  1  0
 21 42  1  0
 24 43  1  0
 24 44  1  0
 25 45  1  0
 25 46  1  0
 26 47  1  0
 26 48  1  0
 27 49  1  0
 27 50  1  0
 30 51  1  0
 31 52  1  0
M  CHG  3   7  -1   8  -1  11  -1
M  END
>  <UniqueID>  (46) 
41

>  <SMILES>  (46) 
C=c1c(=Cc2c([O-])[n-]c(=O)[n-]c2=O)cc(C)n1Cc1ccc(N2CCCCC2=O)cc1

>  <Energy>  (46) 
97.38681067485298

>  <Genealogy>  (46) 
C=c1c(=Cc2c([O-])[n-]c(=O)[n-]c2=O)cc(C)n1Cc1ccc(N2CCCCC2=O)cc1 (protonated)
C=c1c(=Cc2c([O-])[n-]c(=O)[n-]c2=O)cc(C)n1Cc1ccc(N2CCCCC2=O)cc1 (3D coordinates assigned)
C=c1c(=Cc2c([O-])[n-]c(=O)[n-]c2=O)cc(C)n1Cc1ccc(N2CCCCC2=O)cc1 (nonaromatic ring conformer: 97.38681067485298 kcal/mol)

>  <smiles>  (46) 
C=c1c(=Cc2c(O)[nH]c(=O)[nH]c2=O)cc(C)n1Cc1ccc(N2CCCCC2=O)cc1

>  <score_type>  (46) 
oracle

>  <origin>  (46) 
adg

>  <m_score__min__energy>  (46) 
-16.370000000000001

>  <m_primary>  (46) 
energy

$$$$
46:0
     RDKit          3D

 43 45  0  0  0  0  0  0  0  0999 V2000
   58.1840   34.3880   47.1590 N   0  0  0  0  0  0  0  0  0  0  0  0
   58.9950   33.9160   46.0790 C   0  0  0  0  0  0  0  0  0  0  0  0
   60.1750   34.3470   45.9720 O   0  0  0  0  0  0  0  0  0  0  0  0
   58.4720   32.9510   45.0820 C   0  0  0  0  0  0  0  0  0  0  0  0
   58.2920   33.3540   43.7490 C   0  0  0  0  0  0  0  0  0  0  0  0
   57.8120   32.4560   42.7980 C   0  0  0  0  0  0  0  0  0  0  0  0
   57.5050   31.1460   43.1610 C   0  0  0  0  0  0  0  0  0  0  0  0
   57.6650   30.7080   44.4900 C   0  0  0  0  0  0  0  0  0  0  0  0
   57.3570   29.2400   44.8240 C   0  0  0  0  0  0  0  0  0  0  0  0
   55.9660   29.0990   45.0210 O   0  0  0  0  0  0  0  0  0  0  0  0
   58.0900   28.7110   46.0840 C   0  0  0  0  0  0  0  0  0  0  0  0
   57.6920   27.2500   46.3950 C   0  0  0  0  0  0  0  0  0  0  0  0
   57.1700   26.5330   45.2040 N   0  0  0  0  0  0  0  0  0  0  0  0
   57.1510   25.0730   45.4240 C   0  0  0  0  0  0  0  0  0  0  0  0
   55.7370   24.5410   45.3500 C   0  0  0  0  0  0  0  0  0  0  0  0
   54.6280   25.3620   45.6230 C   0  0  0  0  0  0  0  0  0  0  0  0
   54.7980   26.6910   45.9940 O   0  0  0  0  0  0  0  0  0  0  0  0
   53.3700   24.8580   45.5250 N   0  0  0  0  0  0  0  0  0  0  0  0
   53.1570   23.5700   45.1580 C   0  0  0  0  0  0  0  0  0  0  0  0
   51.6330   22.9960   45.0470 S   0  0  0  0  0  0  0  0  0  0  0  0
   54.2080   22.7600   44.8780 N   0  0  0  0  0  0  0  0  0  0  0  0
   55.4850   23.2130   44.9620 C   0  0  0  0  0  0  0  0  0  0  0  0
   56.4360   22.4330   44.6870 O   0  0  0  0  0  0  0  0  0  0  0  0
   57.9550   26.8680   44.0000 C   0  0  0  0  0  0  0  0  0  0  0  0
   57.7690   28.3540   43.6200 C   0  0  0  0  0  0  0  0  0  0  0  0
   58.1740   31.6230   45.4400 C   0  0  0  0  0  0  0  0  0  0  0  0
   57.1600   34.1940   47.2020 H   0  0  0  0  0  0  0  0  0  0  0  0
   58.5960   35.0200   47.8810 H   0  0  0  0  0  0  0  0  0  0  0  0
   58.5317   34.3861   43.4535 H   0  0  0  0  0  0  0  0  0  0  0  0
   57.6748   32.7823   41.7565 H   0  0  0  0  0  0  0  0  0  0  0  0
   57.1328   30.4448   42.3995 H   0  0  0  0  0  0  0  0  0  0  0  0
   55.7320   28.1480   44.8540 H   0  0  0  0  0  0  0  0  0  0  0  0
   59.1756   28.7577   45.9128 H   0  0  0  0  0  0  0  0  0  0  0  0
   57.8032   29.3383   46.9409 H   0  0  0  0  0  0  0  0  0  0  0  0
   58.5783   26.7153   46.7673 H   0  0  0  0  0  0  0  0  0  0  0  0
   56.8884   27.2769   47.1457 H   0  0  0  0  0  0  0  0  0  0  0  0
   57.7623   24.5832   44.6517 H   0  0  0  0  0  0  0  0  0  0  0  0
   57.5578   24.8600   46.4236 H   0  0  0  0  0  0  0  0  0  0  0  0
   59.0199   26.6772   44.1991 H   0  0  0  0  0  0  0  0  0  0  0  0
   57.6039   26.2438   43.1651 H   0  0  0  0  0  0  0  0  0  0  0  0
   58.7183   28.7335   43.2141 H   0  0  0  0  0  0  0  0  0  0  0  0
   56.9565   28.4054   42.8803 H   0  0  0  0  0  0  0  0  0  0  0  0
   58.3398   31.2916   46.4757 H   0  0  0  0  0  0  0  0  0  0  0  0
  1  2  1  0
  2  3  2  0
  2  4  1  0
  4  5  2  0
  5  6  1  0
  6  7  2  0
  7  8  1  0
  8  9  1  0
  9 10  1  0
  9 11  1  0
 11 12  1  0
 12 13  1  0
 13 14  1  0
 14 15  1  0
 15 16  2  0
 16 17  1  0
 16 18  1  0
 18 19  1  0
 19 20  2  0
 19 21  1  0
 21 22  1  0
 22 23  2  0
 13 24  1  0
 24 25  1  0
  8 26  2  0
 26  4  1  0
 25  9  1  0
 22 15  1  0
  1 27  1  0
  1 28  1  0
  5 29  1  0
  6 30  1  0
  7 31  1  0
 10 32  1  0
 11 33  1  0
 11 34  1  0
 12 35  1  0
 12 36  1  0
 14 37  1  0
 14 38  1  0
 24 39  1  0
 24 40  1  0
 25 41  1  0
 25 42  1  0
 26 43  1  0
M  CHG  3  17  -1  18  -1  21  -1
M  END
>  <UniqueID>  (47) 
42

>  <SMILES>  (47) 
NC(=O)c1cccc(C2(O)CCN(Cc3c([O-])[n-]c(=S)[n-]c3=O)CC2)c1

>  <Energy>  (47) 
60.508467312463345

>  <Genealogy>  (47) 
NC(=O)c1cccc(C2(O)CCN(Cc3c([O-])[n-]c(=S)[n-]c3=O)CC2)c1 (protonated)
NC(=O)c1cccc(C2(O)CCN(Cc3c([O-])[n-]c(=S)[n-]c3=O)CC2)c1 (3D coordinates assigned)
NC(=O)c1cccc(C2(O)CCN(Cc3c([O-])[n-]c(=S)[n-]c3=O)CC2)c1 (nonaromatic ring conformer: 60.508467312463345 kcal/mol)

>  <smiles>  (47) 
NC(=O)c1cccc(C2(O)CCN(Cc3c(O)[nH]c(=S)[nH]c3=O)CC2)c1

>  <score_type>  (47) 
oracle

>  <origin>  (47) 
adg

>  <m_score__min__energy>  (47) 
-16.079999999999998

>  <m_primary>  (47) 
energy

$$$$
47:0
     RDKit          3D

 46 49  0  0  1  0  0  0  0  0999 V2000
   56.4450   23.5640   43.0190 C   0  0  0  0  0  0  0  0  0  0  0  0
   56.7920   22.8280   44.1920 N   0  0  0  0  0  0  0  0  0  0  0  0
   56.8780   21.3900   44.1100 C   0  0  0  0  0  0  0  0  0  0  0  0
   56.4250   20.9850   42.9830 O   0  0  0  0  0  0  0  0  0  0  0  0
   57.3770   20.3810   45.0650 C   0  0  0  0  0  0  0  0  0  0  0  0
   56.9860   20.5580   46.4690 C   0  0  0  0  0  0  0  0  0  0  0  0
   57.1440   21.7870   47.0810 O   0  0  0  0  0  0  0  0  0  0  0  0
   57.1960   23.1120   46.6950 C   0  0  0  0  0  0  0  0  0  0  0  0
   57.4290   23.9630   47.7590 C   0  0  0  0  0  0  0  0  0  0  0  0
   57.5060   25.3410   47.5190 C   0  0  0  0  0  0  0  0  0  0  0  0
   57.3480   25.7960   46.2300 C   0  0  0  0  0  0  0  0  0  0  0  0
   57.4020   27.2050   45.9590 C   0  0  0  0  0  0  0  0  0  0  0  0
   58.3690   27.8740   46.4700 O   0  0  0  0  0  0  0  0  0  0  0  0
   56.4910   27.9600   45.1810 N   0  0  0  0  0  0  0  0  0  0  0  0
   56.6520   29.1740   44.8660 C   0  0  0  0  0  0  0  0  0  0  0  0
   55.8230   30.2140   44.7220 N   0  0  0  0  0  0  0  0  0  0  0  0
   56.3810   31.3280   44.3800 N   0  0  0  0  0  0  0  0  0  0  0  0
   57.4930   31.6050   44.1690 C   0  0  0  0  0  0  0  0  0  0  0  0
   58.3640   32.7470   43.8410 C   0  0  0  0  0  0  0  0  0  0  0  0
   58.7610   33.4080   45.1030 C   0  0  0  0  0  0  0  0  0  0  0  0
   58.5610   32.6430   46.2630 C   0  0  0  0  0  0  0  0  0  0  0  0
   58.8790   33.1110   47.5160 C   0  0  0  0  0  0  0  0  0  0  0  0
   59.4120   34.3760   47.6280 C   0  0  0  0  0  0  0  0  0  0  0  0
   59.6100   35.1290   46.4960 C   0  0  0  0  0  0  0  0  0  0  0  0
   59.2890   34.6580   45.2140 C   0  0  0  0  0  0  0  0  0  0  0  0
   58.3210   29.8950   44.4730 S   0  0  0  0  0  0  0  0  0  0  0  0
   57.1150   24.9280   45.1720 C   0  0  0  0  0  0  0  0  0  0  0  0
   57.0360   23.5670   45.3970 C   0  0  0  0  0  0  0  0  0  0  0  0
   55.9925   24.5238   43.3088 H   0  0  0  0  0  0  0  0  0  0  0  0
   57.3500   23.7507   42.4222 H   0  0  0  0  0  0  0  0  0  0  0  0
   55.7252   22.9846   42.4222 H   0  0  0  0  0  0  0  0  0  0  0  0
   57.0074   19.3984   44.7365 H   0  0  0  0  0  0  0  0  0  0  0  0
   58.4720   20.4849   45.0525 H   0  0  0  0  0  0  0  0  0  0  0  0
   55.9174   20.3054   46.5352 H   0  0  0  0  0  0  0  0  0  0  0  0
   57.6929   19.9129   47.0114 H   0  0  0  0  0  0  0  0  0  0  0  0
   57.5519   23.5649   48.7770 H   0  0  0  0  0  0  0  0  0  0  0  0
   57.6890   26.0450   48.3442 H   0  0  0  0  0  0  0  0  0  0  0  0
   54.7770   30.1210   44.8810 H   0  0  0  0  0  0  0  0  0  0  0  0
   59.2593   32.3911   43.3103 H   0  0  0  0  0  0  0  0  0  0  0  0
   57.8286   33.4575   43.1941 H   0  0  0  0  0  0  0  0  0  0  0  0
   58.1348   31.6336   46.1660 H   0  0  0  0  0  0  0  0  0  0  0  0
   58.7117   32.4897   48.4082 H   0  0  0  0  0  0  0  0  0  0  0  0
   59.6771   34.7803   48.6161 H   0  0  0  0  0  0  0  0  0  0  0  0
   60.0358   36.1381   46.5986 H   0  0  0  0  0  0  0  0  0  0  0  0
   59.4591   35.2811   44.3236 H   0  0  0  0  0  0  0  0  0  0  0  0
   56.9931   25.3242   44.1531 H   0  0  0  0  0  0  0  0  0  0  0  0
  1  2  1  0
  2  3  1  0
  3  4  2  0
  3  5  1  0
  5  6  1  0
  6  7  1  0
  7  8  1  0
  8  9  2  0
  9 10  1  0
 10 11  2  0
 11 12  1  0
 12 13  2  0
 12 14  1  0
 14 15  2  0
 15 16  1  0
 16 17  1  0
 17 18  2  0
 18 19  1  0
 19 20  1  0
 20 21  2  0
 21 22  1  0
 22 23  2  0
 23 24  1  0
 24 25  2  0
 18 26  1  0
 11 27  1  0
 27 28  2  0
 28  2  1  0
 28  8  1  0
 26 15  1  0
 25 20  1  0
  1 29  1  0
  1 30  1  0
  1 31  1  0
  5 32  1  0
  5 33  1  0
  6 34  1  0
  6 35  1  0
  9 36  1  0
 10 37  1  0
 16 38  1  0
 19 39  1  0
 19 40  1  0
 21 41  1  0
 22 42  1  0
 23 43  1  0
 24 44  1  0
 25 45  1  0
 27 46  1  0
M  END
>  <smiles>  (48) 
CN1C(=O)CCOc2ccc(C(=O)N=c3[nH]nc(Cc4ccccc4)s3)cc21

>  <score_type>  (48) 
oracle

>  <origin>  (48) 
adg

>  <m_score__min__energy>  (48) 
-7.5999999999999996

>  <m_primary>  (48) 
energy

$$$$
48:0
     RDKit          3D

 54 56  0  0  0  0  0  0  0  0999 V2000
   54.7710   29.3690   43.9860 O   0  0  0  0  0  0  0  0  0  0  0  0
   55.8760   29.5960   44.5450 C   0  0  0  0  0  0  0  0  0  0  0  0
   56.6950   28.4320   45.0270 C   0  0  0  0  0  0  0  0  0  0  0  0
   55.8500   27.3990   45.6210 N   0  0  0  0  0  0  0  0  0  0  0  0
   56.2560   26.0520   45.8980 C   0  0  0  0  0  0  0  0  0  0  0  0
   55.5210   25.3300   46.6270 O   0  0  0  0  0  0  0  0  0  0  0  0
   57.5010   25.4630   45.3080 C   0  0  0  0  0  0  0  0  0  0  0  0
   58.5250   25.3720   46.3370 N   0  0  0  0  0  0  0  0  0  0  0  0
   59.8110   25.9870   46.2270 C   0  0  0  0  0  0  0  0  0  0  0  0
   60.8300   25.2660   46.0340 O   0  0  0  0  0  0  0  0  0  0  0  0
   59.9550   27.4620   46.3410 C   0  0  0  0  0  0  0  0  0  0  0  0
   60.2110   28.2280   45.1870 C   0  0  0  0  0  0  0  0  0  0  0  0
   60.3280   29.6130   45.2660 C   0  0  0  0  0  0  0  0  0  0  0  0
   60.1950   30.2600   46.4920 C   0  0  0  0  0  0  0  0  0  0  0  0
   59.9510   29.5260   47.6650 C   0  0  0  0  0  0  0  0  0  0  0  0
   59.8280   30.1980   48.9340 N   0  0  0  0  0  0  0  0  0  0  0  0
   60.7610   30.2580   49.9080 C   0  0  0  0  0  0  0  0  0  0  0  0
   60.2540   30.9940   50.9560 C   0  0  0  0  0  0  0  0  0  0  0  0
   58.9850   31.3550   50.5500 C   0  0  0  0  0  0  0  0  0  0  0  0
   58.7480   30.8620   49.3180 N   0  0  0  0  0  0  0  0  0  0  0  0
   59.8360   28.1250   47.5850 C   0  0  0  0  0  0  0  0  0  0  0  0
   59.5800   27.4210   48.7150 F   0  0  0  0  0  0  0  0  0  0  0  0
   56.2800   30.9570   44.7430 N   0  0  0  0  0  0  0  0  0  0  0  0
   57.6510   31.4460   44.8660 C   0  0  0  0  0  0  0  0  0  0  0  0
   57.6830   32.8230   45.4520 C   0  0  0  0  0  0  0  0  0  0  0  0
   56.6340   33.3210   45.9360 O   0  0  0  0  0  0  0  0  0  0  0  0
   58.9060   33.5690   45.4460 N   0  0  0  0  0  0  0  0  0  0  0  0
   59.2550   34.5570   46.4600 C   0  0  0  0  0  0  0  0  0  0  0  0
   60.4210   34.0660   47.2720 C   0  0  0  0  0  0  0  0  0  0  0  0
   60.4180   34.2220   48.6670 C   0  0  0  0  0  0  0  0  0  0  0  0
   61.5340   33.8500   49.4210 C   0  0  0  0  0  0  0  0  0  0  0  0
   62.6690   33.3300   48.7870 C   0  0  0  0  0  0  0  0  0  0  0  0
   63.7770   32.9770   49.5510 O   0  0  0  0  0  0  0  0  0  0  0  0
   62.6820   33.1770   47.3910 C   0  0  0  0  0  0  0  0  0  0  0  0
   63.8040   32.6770   46.7310 O   0  0  0  0  0  0  0  0  0  0  0  0
   61.5580   33.5430   46.6400 C   0  0  0  0  0  0  0  0  0  0  0  0
   57.2421   28.0016   44.1753 H   0  0  0  0  0  0  0  0  0  0  0  0
   57.3940   28.7935   45.7956 H   0  0  0  0  0  0  0  0  0  0  0  0
   57.2825   24.4582   44.9173 H   0  0  0  0  0  0  0  0  0  0  0  0
   57.8586   26.1035   44.4883 H   0  0  0  0  0  0  0  0  0  0  0  0
   60.3195   27.7269   44.2138 H   0  0  0  0  0  0  0  0  0  0  0  0
   60.5263   30.1987   44.3563 H   0  0  0  0  0  0  0  0  0  0  0  0
   60.2817   31.3554   46.5425 H   0  0  0  0  0  0  0  0  0  0  0  0
   61.7588   29.7965   49.8708 H   0  0  0  0  0  0  0  0  0  0  0  0
   60.7505   31.2398   51.9063 H   0  0  0  0  0  0  0  0  0  0  0  0
   58.2760   31.9532   51.1411 H   0  0  0  0  0  0  0  0  0  0  0  0
   58.2178   30.7651   45.5180 H   0  0  0  0  0  0  0  0  0  0  0  0
   58.0992   31.4837   43.8622 H   0  0  0  0  0  0  0  0  0  0  0  0
   59.5250   35.5037   45.9693 H   0  0  0  0  0  0  0  0  0  0  0  0
   58.3922   34.7154   47.1237 H   0  0  0  0  0  0  0  0  0  0  0  0
   59.5327   34.6392   49.1691 H   0  0  0  0  0  0  0  0  0  0  0  0
   61.5209   33.9659   50.5148 H   0  0  0  0  0  0  0  0  0  0  0  0
   64.6280   32.3630   47.2330 H   0  0  0  0  0  0  0  0  0  0  0  0
   61.5673   33.4193   45.5470 H   0  0  0  0  0  0  0  0  0  0  0  0
  1  2  2  0
  2  3  1  0
  3  4  1  0
  4  5  1  0
  5  6  2  0
  5  7  1  0
  7  8  1  0
  8  9  1  0
  9 10  2  0
  9 11  1  0
 11 12  2  0
 12 13  1  0
 13 14  2  0
 14 15  1  0
 15 16  1  0
 16 17  1  0
 17 18  2  0
 18 19  1  0
 19 20  2  0
 15 21  2  0
 21 22  1  0
  2 23  1  0
 23 24  1  0
 24 25  1  0
 25 26  2  0
 25 27  1  0
 27 28  1  0
 28 29  1  0
 29 30  2  0
 30 31  1  0
 31 32  2  0
 32 33  1  0
 32 34  1  0
 34 35  1  0
 34 36  2  0
 21 11  1  0
 36 29  1  0
 20 16  1  0
  3 37  1  0
  3 38  1  0
  7 39  1  0
  7 40  1  0
 12 41  1  0
 13 42  1  0
 14 43  1  0
 17 44  1  0
 18 45  1  0
 19 46  1  0
 24 47  1  0
 24 48  1  0
 28 49  1  0
 28 50  1  0
 30 51  1  0
 31 52  1  0
 35 53  1  0
 36 54  1  0
M  CHG  5   4  -1   8  -1  23  -1  27  -1  33  -1
M  END
>  <UniqueID>  (49) 
43

>  <SMILES>  (49) 
O=C(C[N-]C(=O)C[N-]C(=O)c1cccc(-n2cccn2)c1F)[N-]CC(=O)[N-]Cc1ccc([O-])c(O)c1

>  <Energy>  (49) 
78.85344027427595

>  <Genealogy>  (49) 
O=C(C[N-]C(=O)C[N-]C(=O)c1cccc(-n2cccn2)c1F)[N-]CC(=O)[N-]Cc1ccc([O-])c(O)c1 (protonated)
O=C(C[N-]C(=O)C[N-]C(=O)c1cccc(-n2cccn2)c1F)[N-]CC(=O)[N-]Cc1ccc([O-])c(O)c1 (3D coordinates assigned)
O=C(C[N-]C(=O)C[N-]C(=O)c1cccc(-n2cccn2)c1F)[N-]CC(=O)[N-]Cc1ccc([O-])c(O)c1 (optimized conformer: 78.85344027427595 kcal/mol)

>  <smiles>  (49) 
O=C(CNC(=O)CNC(=O)c1cccc(-n2cccn2)c1F)NCC(=O)NCc1ccc(O)c(O)c1

>  <score_type>  (49) 
oracle

>  <origin>  (49) 
adg

>  <m_score__min__energy>  (49) 
-15.359999999999999

>  <m_primary>  (49) 
energy

$$$$
49:0
     RDKit          3D

 62 66  0  0  0  0  0  0  0  0999 V2000
   62.5640   33.8490   46.7560 C   0  0  0  0  0  0  0  0  0  0  0  0
   61.2730   33.3230   47.2960 C   0  0  0  0  0  0  0  0  0  0  0  0
   60.4070   32.5850   46.4780 C   0  0  0  0  0  0  0  0  0  0  0  0
   59.1760   32.1440   46.9870 C   0  0  0  0  0  0  0  0  0  0  0  0
   58.2100   31.4020   46.1450 C   0  0  0  0  0  0  0  0  0  0  0  0
   57.3500   31.9220   45.2030 C   0  0  0  0  0  0  0  0  0  0  0  0
   56.5880   30.9320   44.7040 N   0  0  0  0  0  0  0  0  0  0  0  0
   57.0090   29.8390   45.3630 C   0  0  0  0  0  0  0  0  0  0  0  0
   56.5180   28.6570   45.1250 N   0  0  0  0  0  0  0  0  0  0  0  0
   57.0430   27.4020   45.5940 C   0  0  0  0  0  0  0  0  0  0  0  0
   58.4270   27.1740   45.7180 C   0  0  0  0  0  0  0  0  0  0  0  0
   58.9020   25.9430   46.1720 C   0  0  0  0  0  0  0  0  0  0  0  0
   58.0050   24.9290   46.5070 C   0  0  0  0  0  0  0  0  0  0  0  0
   56.6240   25.1350   46.4000 C   0  0  0  0  0  0  0  0  0  0  0  0
   55.7520   24.0540   46.7640 N   0  0  0  0  0  0  0  0  0  0  0  0
   55.9520   22.6600   46.4970 C   0  0  0  0  0  0  0  0  0  0  0  0
   55.8580   21.8100   47.4200 O   0  0  0  0  0  0  0  0  0  0  0  0
   56.2310   22.2260   45.1590 N   0  0  0  0  0  0  0  0  0  0  0  0
   56.1790   23.1070   44.0060 C   0  0  0  0  0  0  0  0  0  0  0  0
   56.6510   22.2680   42.8270 C   0  0  0  0  0  0  0  0  0  0  0  0
   56.6420   20.8120   43.3020 C   0  0  0  0  0  0  0  0  0  0  0  0
   56.5880   20.8590   44.8240 C   0  0  0  0  0  0  0  0  0  0  0  0
   56.1430   26.4010   45.9990 C   0  0  0  0  0  0  0  0  0  0  0  0
   54.7820   26.6860   46.0270 O   0  0  0  0  0  0  0  0  0  0  0  0
   58.0010   30.0780   46.2440 N   0  0  0  0  0  0  0  0  0  0  0  0
   58.8450   32.4520   48.3140 C   0  0  0  0  0  0  0  0  0  0  0  0
   59.7220   33.2150   49.0990 C   0  0  0  0  0  0  0  0  0  0  0  0
   59.3010   33.6930   50.4530 C   0  0  0  0  0  0  0  0  0  0  0  0
   59.1330   32.5400   51.3240 N   0  0  0  0  0  0  0  0  0  0  0  0
   57.9000   31.8420   51.5000 C   0  0  0  0  0  0  0  0  0  0  0  0
   56.9070   32.4650   51.9580 O   0  0  0  0  0  0  0  0  0  0  0  0
   57.7710   30.4750   51.0860 N   0  0  0  0  0  0  0  0  0  0  0  0
   58.7130   29.7500   50.5580 C   0  0  0  0  0  0  0  0  0  0  0  0
   58.6460   29.4210   49.1970 C   0  0  0  0  0  0  0  0  0  0  0  0
   59.6690   28.6620   48.6270 C   0  0  0  0  0  0  0  0  0  0  0  0
   60.7530   28.2580   49.4080 C   0  0  0  0  0  0  0  0  0  0  0  0
   60.7990   28.6170   50.7570 C   0  0  0  0  0  0  0  0  0  0  0  0
   59.7850   29.3380   51.3010 N   0  0  0  0  0  0  0  0  0  0  0  0
   60.8950   33.6470   48.5670 N   0  0  0  0  0  0  0  0  0  0  0  0
   63.2276   34.1194   47.5906 H   0  0  0  0  0  0  0  0  0  0  0  0
   63.0461   33.0756   46.1400 H   0  0  0  0  0  0  0  0  0  0  0  0
   62.3683   34.7391   46.1400 H   0  0  0  0  0  0  0  0  0  0  0  0
   60.6911   32.3523   45.4411 H   0  0  0  0  0  0  0  0  0  0  0  0
   57.2950   32.9796   44.9057 H   0  0  0  0  0  0  0  0  0  0  0  0
   59.1380   27.9712   45.4554 H   0  0  0  0  0  0  0  0  0  0  0  0
   59.9846   25.7723   46.2657 H   0  0  0  0  0  0  0  0  0  0  0  0
   58.3857   23.9587   46.8584 H   0  0  0  0  0  0  0  0  0  0  0  0
   55.1507   23.4599   43.8387 H   0  0  0  0  0  0  0  0  0  0  0  0
   56.8067   23.9992   44.1473 H   0  0  0  0  0  0  0  0  0  0  0  0
   55.9691   22.3939   41.9731 H   0  0  0  0  0  0  0  0  0  0  0  0
   57.6546   22.5736   42.4962 H   0  0  0  0  0  0  0  0  0  0  0  0
   55.7601   20.2875   42.9056 H   0  0  0  0  0  0  0  0  0  0  0  0
   57.5329   20.2711   42.9501 H   0  0  0  0  0  0  0  0  0  0  0  0
   55.8284   20.1596   45.2032 H   0  0  0  0  0  0  0  0  0  0  0  0
   57.5477   20.5663   45.2750 H   0  0  0  0  0  0  0  0  0  0  0  0
   57.8960   32.0947   48.7403 H   0  0  0  0  0  0  0  0  0  0  0  0
   60.0721   34.3597   50.8663 H   0  0  0  0  0  0  0  0  0  0  0  0
   58.3532   34.2461   50.3769 H   0  0  0  0  0  0  0  0  0  0  0  0
   57.7962   29.7575   48.5849 H   0  0  0  0  0  0  0  0  0  0  0  0
   59.6212   28.3826   47.5641 H   0  0  0  0  0  0  0  0  0  0  0  0
   61.5643   27.6619   48.9648 H   0  0  0  0  0  0  0  0  0  0  0  0
   61.6556   28.3160   51.3780 H   0  0  0  0  0  0  0  0  0  0  0  0
  1  2  1  0
  2  3  2  0
  3  4  1  0
  4  5  1  0
  5  6  2  0
  6  7  1  0
  7  8  1  0
  8  9  2  3
  9 10  1  0
 10 11  2  0
 11 12  1  0
 12 13  2  0
 13 14  1  0
 14 15  1  0
 15 16  1  0
 16 17  2  0
 16 18  1  0
 18 19  1  0
 19 20  1  0
 20 21  1  0
 21 22  1  0
 14 23  2  0
 23 24  1  0
  8 25  1  0
  4 26  2  0
 26 27  1  0
 27 28  1  0
 28 29  1  0
 29 30  1  0
 30 31  2  0
 30 32  1  0
 32 33  2  3
 33 34  1  0
 34 35  2  0
 35 36  1  0
 36 37  2  0
 37 38  1  0
 27 39  2  0
 39  2  1  0
 25  5  1  0
 38 33  1  0
 23 10  1  0
 22 18  1  0
  1 40  1  0
  1 41  1  0
  1 42  1  0
  3 43  1  0
  6 44  1  0
 11 45  1  0
 12 46  1  0
 13 47  1  0
 19 48  1  0
 19 49  1  0
 20 50  1  0
 20 51  1  0
 21 52  1  0
 21 53  1  0
 22 54  1  0
 22 55  1  0
 26 56  1  0
 28 57  1  0
 28 58  1  0
 34 59  1  0
 35 60  1  0
 36 61  1  0
 37 62  1  0
M  CHG  6   7  -1  15  -1  24  -1  25  -1  29  -1  38  -1
M  END
>  <UniqueID>  (50) 
44

>  <SMILES>  (50) 
Cc1cc(-c2c[n-]c(=Nc3cccc([N-]C(=O)N4CCCC4)c3[O-])[n-]2)cc(C[N-]C(=O)N=c2cccc[n-]2)n1

>  <Energy>  (50) 
111.68425156958467

>  <Genealogy>  (50) 
Cc1cc(-c2c[n-]c(=Nc3cccc([N-]C(=O)N4CCCC4)c3[O-])[n-]2)cc(C[N-]C(=O)N=c2cccc[n-]2)n1 (protonated)
Cc1cc(-c2c[n-]c(=Nc3cccc([N-]C(=O)N4CCCC4)c3[O-])[n-]2)cc(C[N-]C(=O)N=c2cccc[n-]2)n1 (3D coordinates assigned)
Cc1cc(-c2c[n-]c(=Nc3cccc([N-]C(=O)N4CCCC4)c3[O-])[n-]2)cc(C[N-]C(=O)N=c2cccc[n-]2)n1 (nonaromatic ring conformer: 111.68425156958467 kcal/mol)

>  <smiles>  (50) 
Cc1cc(-c2c[nH]c(=Nc3cccc(NC(=O)N4CCCC4)c3O)[nH]2)cc(CNC(=O)N=c2cccc[nH]2)n1

>  <score_type>  (50) 
oracle

>  <origin>  (50) 
adg

>  <m_score__min__energy>  (50) 
-19.780000000000001

>  <m_primary>  (50) 
energy

$$$$
50:0
     RDKit          3D

 51 53  0  0  0  0  0  0  0  0999 V2000
   61.1150   30.0920   49.3510 C   0  0  0  0  0  0  0  0  0  0  0  0
   60.1230   29.6010   48.3400 C   0  0  0  0  0  0  0  0  0  0  0  0
   59.7840   28.2400   48.2850 C   0  0  0  0  0  0  0  0  0  0  0  0
   58.8310   27.7850   47.3690 C   0  0  0  0  0  0  0  0  0  0  0  0
   58.1970   28.6910   46.5050 C   0  0  0  0  0  0  0  0  0  0  0  0
   57.0040   28.1350   45.3330 S   0  0  0  0  0  0  0  0  0  0  0  0
   56.1620   27.0640   45.9660 O   0  0  0  0  0  0  0  0  0  0  0  0
   57.6850   27.5610   44.1210 O   0  0  0  0  0  0  0  0  0  0  0  0
   55.9840   29.4570   44.8560 N   0  0  0  0  0  0  0  0  0  0  0  0
   56.6100   30.1930   43.7600 C   0  0  0  0  0  0  0  0  0  0  0  0
   57.0300   31.5380   44.2510 C   0  0  0  0  0  0  0  0  0  0  0  0
   58.1500   32.2290   43.8470 C   0  0  0  0  0  0  0  0  0  0  0  0
   58.2100   33.3580   44.5720 N   0  0  0  0  0  0  0  0  0  0  0  0
   59.2700   34.3610   44.5430 C   0  0  0  0  0  0  0  0  0  0  0  0
   59.8030   34.5740   45.9220 C   0  0  0  0  0  0  0  0  0  0  0  0
   59.9640   35.7500   46.3510 O   0  0  0  0  0  0  0  0  0  0  0  0
   60.2220   33.4670   46.6710 O   0  0  0  0  0  0  0  0  0  0  0  0
   61.3670   33.4200   47.4800 C   0  0  0  0  0  0  0  0  0  0  0  0
   62.6310   33.0670   46.9740 C   0  0  0  0  0  0  0  0  0  0  0  0
   63.7470   33.0420   47.8140 C   0  0  0  0  0  0  0  0  0  0  0  0
   63.6240   33.3800   49.1740 C   0  0  0  0  0  0  0  0  0  0  0  0
   64.8070   33.3590   50.0710 C   0  0  0  0  0  0  0  0  0  0  0  0
   64.7720   34.0700   51.3150 N   0  0  0  0  0  0  0  0  0  0  0  0
   65.8770   32.6980   49.7420 N   0  0  0  0  0  0  0  0  0  0  0  0
   62.3650   33.7560   49.6700 C   0  0  0  0  0  0  0  0  0  0  0  0
   61.2480   33.7790   48.8290 C   0  0  0  0  0  0  0  0  0  0  0  0
   60.0400   34.1380   49.3300 F   0  0  0  0  0  0  0  0  0  0  0  0
   57.1560   33.3170   45.4100 C   0  0  0  0  0  0  0  0  0  0  0  0
   56.4060   32.2070   45.2440 N   0  0  0  0  0  0  0  0  0  0  0  0
   58.5220   30.0510   46.5680 C   0  0  0  0  0  0  0  0  0  0  0  0
   59.4750   30.5060   47.4860 C   0  0  0  0  0  0  0  0  0  0  0  0
   60.7308   29.9018   50.3640 H   0  0  0  0  0  0  0  0  0  0  0  0
   62.0695   29.5623   49.2154 H   0  0  0  0  0  0  0  0  0  0  0  0
   61.2726   31.1722   49.2154 H   0  0  0  0  0  0  0  0  0  0  0  0
   60.2711   27.5272   48.9667 H   0  0  0  0  0  0  0  0  0  0  0  0
   58.5778   26.7154   47.3254 H   0  0  0  0  0  0  0  0  0  0  0  0
   57.4909   29.6404   43.4012 H   0  0  0  0  0  0  0  0  0  0  0  0
   55.8928   30.3078   42.9339 H   0  0  0  0  0  0  0  0  0  0  0  0
   58.8648   31.9142   43.0724 H   0  0  0  0  0  0  0  0  0  0  0  0
   60.0823   34.0150   43.8869 H   0  0  0  0  0  0  0  0  0  0  0  0
   58.8629   35.3087   44.1606 H   0  0  0  0  0  0  0  0  0  0  0  0
   62.7415   32.8091   45.9104 H   0  0  0  0  0  0  0  0  0  0  0  0
   64.7289   32.7560   47.4091 H   0  0  0  0  0  0  0  0  0  0  0  0
   63.9650   34.6860   51.5610 H   0  0  0  0  0  0  0  0  0  0  0  0
   65.5800   34.0310   51.9750 H   0  0  0  0  0  0  0  0  0  0  0  0
   66.3520   32.0740   50.4330 H   0  0  0  0  0  0  0  0  0  0  0  0
   66.2780   32.7440   48.7790 H   0  0  0  0  0  0  0  0  0  0  0  0
   62.2567   34.0347   50.7286 H   0  0  0  0  0  0  0  0  0  0  0  0
   56.9314   34.1013   46.1479 H   0  0  0  0  0  0  0  0  0  0  0  0
   58.0264   30.7647   45.8934 H   0  0  0  0  0  0  0  0  0  0  0  0
   59.7171   31.5778   47.5383 H   0  0  0  0  0  0  0  0  0  0  0  0
  1  2  1  0
  2  3  2  0
  3  4  1  0
  4  5  2  0
  5  6  1  0
  6  7  2  0
  6  8  2  0
  6  9  1  0
  9 10  1  0
 10 11  1  0
 11 12  2  0
 12 13  1  0
 13 14  1  0
 14 15  1  0
 15 16  2  0
 15 17  1  0
 17 18  1  0
 18 19  2  0
 19 20  1  0
 20 21  2  0
 21 22  1  0
 22 23  1  0
 22 24  2  0
 21 25  1  0
 25 26  2  0
 26 27  1  0
 13 28  1  0
 28 29  2  0
  5 30  1  0
 30 31  2  0
 31  2  1  0
 29 11  1  0
 26 18  1  0
  1 32  1  0
  1 33  1  0
  1 34  1  0
  3 35  1  0
  4 36  1  0
 10 37  1  0
 10 38  1  0
 12 39  1  0
 14 40  1  0
 14 41  1  0
 19 42  1  0
 20 43  1  0
 23 44  1  0
 23 45  1  0
 24 46  1  0
 24 47  1  0
 25 48  1  0
 28 49  1  0
 30 50  1  0
 31 51  1  0
M  CHG  2   9  -1  24   1
M  END
>  <UniqueID>  (51) 
45

>  <SMILES>  (51) 
Cc1ccc(S(=O)(=O)[N-]Cc2cn(CC(=O)Oc3ccc(C(N)=[NH2+])cc3F)cn2)cc1

>  <Energy>  (51) 
82.99843226006887

>  <Genealogy>  (51) 
Cc1ccc(S(=O)(=O)[N-]Cc2cn(CC(=O)Oc3ccc(C(N)=[NH2+])cc3F)cn2)cc1 (protonated)
Cc1ccc(S(=O)(=O)[N-]Cc2cn(CC(=O)Oc3ccc(C(N)=[NH2+])cc3F)cn2)cc1 (3D coordinates assigned)
Cc1ccc(S(=O)(=O)[N-]Cc2cn(CC(=O)Oc3ccc(C(N)=[NH2+])cc3F)cn2)cc1 (optimized conformer: 82.99843226006887 kcal/mol)

>  <smiles>  (51) 
Cc1ccc(S(=O)(=O)NCc2cn(CC(=O)Oc3ccc(C(=N)N)cc3F)cn2)cc1

>  <score_type>  (51) 
oracle

>  <origin>  (51) 
adg

>  <m_score__min__energy>  (51) 
-8.6600000000000001

>  <m_primary>  (51) 
energy

$$$$
51:0
     RDKit          3D

 46 48  0  0  0  0  0  0  0  0999 V2000
   54.7500   28.9660   45.5290 H   0  0  0  0  0  0  0  0  0  0  0  0
   55.6210   28.6360   45.1320 O   0  0  0  0  0  0  0  0  0  0  0  0
   56.2230   27.4710   45.5990 C   0  0  0  0  0  0  0  0  0  0  0  0
   55.4490   26.4530   46.0590 N   0  0  0  0  0  0  0  0  0  0  0  0
   56.0000   25.2890   46.4880 C   0  0  0  0  0  0  0  0  0  0  0  0
   55.2610   24.3640   46.9130 O   0  0  0  0  0  0  0  0  0  0  0  0
   57.3460   25.1220   46.4550 N   0  0  0  0  0  0  0  0  0  0  0  0
   58.1650   26.1080   46.0060 C   0  0  0  0  0  0  0  0  0  0  0  0
   59.4100   25.9150   45.9850 O   0  0  0  0  0  0  0  0  0  0  0  0
   57.6220   27.3310   45.5820 C   0  0  0  0  0  0  0  0  0  0  0  0
   58.5030   28.4050   45.0680 C   0  0  0  0  0  0  0  0  0  0  0  0
   59.2101   28.1586   44.2622 H   0  0  0  0  0  0  0  0  0  0  0  0
   58.4830   29.6670   45.5360 C   0  0  0  0  0  0  0  0  0  0  0  0
   57.6540   30.6920   45.0960 C   0  0  0  0  0  0  0  0  0  0  0  0
   56.9084   30.6334   44.2893 H   0  0  0  0  0  0  0  0  0  0  0  0
   57.9480   31.7980   45.8680 C   0  0  0  0  0  0  0  0  0  0  0  0
   57.2700   33.1280   45.7430 C   0  0  0  0  0  0  0  0  0  0  0  0
   57.0648   33.5306   46.7459 H   0  0  0  0  0  0  0  0  0  0  0  0
   57.9239   33.8229   45.1957 H   0  0  0  0  0  0  0  0  0  0  0  0
   56.3235   33.0071   45.1957 H   0  0  0  0  0  0  0  0  0  0  0  0
   58.9060   31.5000   46.7740 N   0  0  0  0  0  0  0  0  0  0  0  0
   59.4610   32.4110   47.7390 C   0  0  0  0  0  0  0  0  0  0  0  0
   60.5230   33.2520   47.3840 C   0  0  0  0  0  0  0  0  0  0  0  0
   60.9368   33.2132   46.3656 H   0  0  0  0  0  0  0  0  0  0  0  0
   61.0580   34.1400   48.3200 C   0  0  0  0  0  0  0  0  0  0  0  0
   61.8853   34.8062   48.0341 H   0  0  0  0  0  0  0  0  0  0  0  0
   60.5440   34.1840   49.6200 C   0  0  0  0  0  0  0  0  0  0  0  0
   60.9602   34.8933   50.3506 H   0  0  0  0  0  0  0  0  0  0  0  0
   59.4990   33.3260   49.9950 C   0  0  0  0  0  0  0  0  0  0  0  0
   58.9610   33.3820   51.3690 C   0  0  0  0  0  0  0  0  0  0  0  0
   59.5220   34.1280   52.2150 O   0  0  0  0  0  0  0  0  0  0  0  0
   57.8410   32.5900   51.7830 N   0  0  0  0  0  0  0  0  0  0  0  0
   57.9140   31.4590   52.7020 C   0  0  0  0  0  0  0  0  0  0  0  0
   58.9133   31.0033   52.6408 H   0  0  0  0  0  0  0  0  0  0  0  0
   57.7286   31.8128   53.7269 H   0  0  0  0  0  0  0  0  0  0  0  0
   56.8620   30.4210   52.3320 C   0  0  0  0  0  0  0  0  0  0  0  0
   57.3605   29.5104   51.9682 H   0  0  0  0  0  0  0  0  0  0  0  0
   56.2583   30.1853   53.2208 H   0  0  0  0  0  0  0  0  0  0  0  0
   56.0260   30.9250   51.3280 O   0  0  0  0  0  0  0  0  0  0  0  0
   56.2600   31.8840   51.2290 H   0  0  0  0  0  0  0  0  0  0  0  0
   58.9480   32.4530   49.0440 C   0  0  0  0  0  0  0  0  0  0  0  0
   58.1094   31.7983   49.3235 H   0  0  0  0  0  0  0  0  0  0  0  0
   59.2430   30.1990   46.5830 C   0  0  0  0  0  0  0  0  0  0  0  0
   60.1530   29.5430   47.3190 C   0  0  0  0  0  0  0  0  0  0  0  0
   60.6929   30.0672   48.1213 H   0  0  0  0  0  0  0  0  0  0  0  0
   60.3592   28.4810   47.1201 H   0  0  0  0  0  0  0  0  0  0  0  0
  1  2  1  0
  2  3  1  0
  3  4  1  0
  4  5  1  0
  5  6  2  0
  5  7  1  0
  7  8  1  0
  8  9  2  0
  8 10  1  0
 10 11  1  0
 11 12  1  0
 11 13  2  0
 13 14  1  0
 14 15  1  0
 14 16  2  0
 16 17  1  0
 17 18  1  0
 17 19  1  0
 17 20  1  0
 16 21  1  0
 21 22  1  0
 22 23  2  0
 23 24  1  0
 23 25  1  0
 25 26  1  0
 25 27  2  0
 27 28  1  0
 27 29  1  0
 29 30  1  0
 30 31  2  0
 30 32  1  0
 32 33  1  0
 33 34  1  0
 33 35  1  0
 33 36  1  0
 36 37  1  0
 36 38  1  0
 36 39  1  0
 39 40  1  0
 29 41  2  0
 41 42  1  0
 21 43  1  0
 43 44  2  0
 44 45  1  0
 44 46  1  0
 10  3  2  0
 43 13  1  0
 41 22  1  0
M  CHG  3   4  -1   7  -1  32  -1
M  END
>  <UniqueID>  (52) 
46

>  <SMILES>  (52) 
C=c1/c(=C/c2c(O)[n-]c(=O)[n-]c2=O)cc(C)n1-c1cccc(C(=O)[N-]CCO)c1

>  <Energy>  (52) 
92.98396819126862

>  <Genealogy>  (52) 
C=c1c(=Cc2c(O)[n-]c(=O)[n-]c2=O)cc(C)n1-c1cccc(C(=O)[N-]CCO)c1 (protonated)
C=c1/c(=C/c2c(O)[n-]c(=O)[n-]c2=O)cc(C)n1-c1cccc(C(=O)[N-]CCO)c1 (cis-trans isomerization)
C=c1/c(=C/c2c(O)[n-]c(=O)[n-]c2=O)cc(C)n1-c1cccc(C(=O)[N-]CCO)c1 (3D coordinates assigned)
C=c1/c(=C/c2c(O)[n-]c(=O)[n-]c2=O)cc(C)n1-c1cccc(C(=O)[N-]CCO)c1 (optimized conformer: 92.98396819126862 kcal/mol)

>  <smiles>  (52) 
C=c1c(=Cc2c(O)[nH]c(=O)[nH]c2=O)cc(C)n1-c1cccc(C(=O)NCCO)c1

>  <score_type>  (52) 
oracle

>  <origin>  (52) 
adg

>  <m_score__min__energy>  (52) 
-13.9

>  <m_primary>  (52) 
energy

$$$$
52:0
     RDKit          3D

 50 53  0  0  0  0  0  0  0  0999 V2000
   58.8600   27.7370   48.3620 C   0  0  0  0  0  0  0  0  0  0  0  0
   59.3350   28.7270   47.5910 C   0  0  0  0  0  0  0  0  0  0  0  0
   59.2270   28.8480   46.1960 C   0  0  0  0  0  0  0  0  0  0  0  0
   58.5020   28.1520   45.3000 C   0  0  0  0  0  0  0  0  0  0  0  0
   57.3850   27.2470   45.6180 C   0  0  0  0  0  0  0  0  0  0  0  0
   57.5220   26.0100   46.1320 N   0  0  0  0  0  0  0  0  0  0  0  0
   56.2480   25.6350   46.3820 C   0  0  0  0  0  0  0  0  0  0  0  0
   55.9570   24.5100   46.8630 O   0  0  0  0  0  0  0  0  0  0  0  0
   55.3150   26.5650   46.0880 N   0  0  0  0  0  0  0  0  0  0  0  0
   56.0530   27.5840   45.6190 C   0  0  0  0  0  0  0  0  0  0  0  0
   55.5210   28.7980   45.2070 O   0  0  0  0  0  0  0  0  0  0  0  0
   60.0390   29.9130   45.8360 C   0  0  0  0  0  0  0  0  0  0  0  0
   60.5570   30.4340   47.0020 C   0  0  0  0  0  0  0  0  0  0  0  0
   61.4770   31.6140   47.0830 C   0  0  0  0  0  0  0  0  0  0  0  0
   60.1290   29.7210   48.0650 N   0  0  0  0  0  0  0  0  0  0  0  0
   60.5130   29.9570   49.4320 C   0  0  0  0  0  0  0  0  0  0  0  0
   61.2400   28.9700   50.1120 C   0  0  0  0  0  0  0  0  0  0  0  0
   61.6620   29.1800   51.4250 C   0  0  0  0  0  0  0  0  0  0  0  0
   61.3600   30.3790   52.0720 C   0  0  0  0  0  0  0  0  0  0  0  0
   60.6320   31.3690   51.4090 C   0  0  0  0  0  0  0  0  0  0  0  0
   60.1950   31.1720   50.0870 C   0  0  0  0  0  0  0  0  0  0  0  0
   59.3960   32.2250   49.4170 C   0  0  0  0  0  0  0  0  0  0  0  0
   58.1530   32.0720   49.2760 O   0  0  0  0  0  0  0  0  0  0  0  0
   60.0280   33.4140   48.9230 N   0  0  0  0  0  0  0  0  0  0  0  0
   59.2500   34.4850   48.3010 C   0  0  0  0  0  0  0  0  0  0  0  0
   58.8330   34.0970   46.9090 C   0  0  0  0  0  0  0  0  0  0  0  0
   59.5900   34.5130   45.8010 C   0  0  0  0  0  0  0  0  0  0  0  0
   59.2230   34.1190   44.5100 C   0  0  0  0  0  0  0  0  0  0  0  0
   58.1070   33.2990   44.3180 C   0  0  0  0  0  0  0  0  0  0  0  0
   57.7530   32.9160   43.0670 F   0  0  0  0  0  0  0  0  0  0  0  0
   57.3580   32.8690   45.4190 C   0  0  0  0  0  0  0  0  0  0  0  0
   57.7220   33.2610   46.7100 C   0  0  0  0  0  0  0  0  0  0  0  0
   59.0152   27.7650   49.4506 H   0  0  0  0  0  0  0  0  0  0  0  0
   58.3154   26.8974   47.9055 H   0  0  0  0  0  0  0  0  0  0  0  0
   58.7671   28.2697   44.2389 H   0  0  0  0  0  0  0  0  0  0  0  0
   60.2326   30.2731   44.8148 H   0  0  0  0  0  0  0  0  0  0  0  0
   61.6676   31.8585   48.1384 H   0  0  0  0  0  0  0  0  0  0  0  0
   62.4277   31.3726   46.5850 H   0  0  0  0  0  0  0  0  0  0  0  0
   61.0111   32.4771   46.5850 H   0  0  0  0  0  0  0  0  0  0  0  0
   61.4795   28.0228   49.6065 H   0  0  0  0  0  0  0  0  0  0  0  0
   62.2329   28.4003   51.9504 H   0  0  0  0  0  0  0  0  0  0  0  0
   61.6961   30.5445   53.1062 H   0  0  0  0  0  0  0  0  0  0  0  0
   60.3982   32.3116   51.9255 H   0  0  0  0  0  0  0  0  0  0  0  0
   61.0700   33.4900   48.9630 H   0  0  0  0  0  0  0  0  0  0  0  0
   58.3523   34.6782   48.9066 H   0  0  0  0  0  0  0  0  0  0  0  0
   59.8734   35.3895   48.2451 H   0  0  0  0  0  0  0  0  0  0  0  0
   60.4741   35.1505   45.9492 H   0  0  0  0  0  0  0  0  0  0  0  0
   59.8132   34.4548   43.6446 H   0  0  0  0  0  0  0  0  0  0  0  0
   56.4816   32.2216   45.2681 H   0  0  0  0  0  0  0  0  0  0  0  0
   57.1362   32.9135   47.5737 H   0  0  0  0  0  0  0  0  0  0  0  0
  1  2  2  0
  2  3  1  0
  3  4  2  3
  4  5  1  0
  5  6  1  0
  6  7  1  0
  7  8  2  0
  7  9  1  0
  9 10  1  0
 10 11  1  0
  3 12  1  0
 12 13  2  0
 13 14  1  0
 13 15  1  0
 15 16  1  0
 16 17  2  0
 17 18  1  0
 18 19  2  0
 19 20  1  0
 20 21  2  0
 21 22  1  0
 22 23  2  0
 22 24  1  0
 24 25  1  0
 25 26  1  0
 26 27  2  0
 27 28  1  0
 28 29  2  0
 29 30  1  0
 29 31  1  0
 31 32  2  0
 15  2  1  0
 21 16  1  0
 32 26  1  0
 10  5  2  0
  1 33  1  0
  1 34  1  0
  4 35  1  0
 12 36  1  0
 14 37  1  0
 14 38  1  0
 14 39  1  0
 17 40  1  0
 18 41  1  0
 19 42  1  0
 20 43  1  0
 24 44  1  0
 25 45  1  0
 25 46  1  0
 27 47  1  0
 28 48  1  0
 31 49  1  0
 32 50  1  0
M  CHG  3   6  -1   9  -1  11  -1
M  END
>  <UniqueID>  (53) 
47

>  <SMILES>  (53) 
C=c1c(=Cc2[n-]c(=O)[n-]c2[O-])cc(C)n1-c1ccccc1C(=O)NCc1ccc(F)cc1

>  <Energy>  (53) 
130.62773941432891

>  <Genealogy>  (53) 
C=c1c(=Cc2[n-]c(=O)[n-]c2[O-])cc(C)n1-c1ccccc1C(=O)NCc1ccc(F)cc1 (protonated)
C=c1c(=Cc2[n-]c(=O)[n-]c2[O-])cc(C)n1-c1ccccc1C(=O)NCc1ccc(F)cc1 (3D coordinates assigned)
C=c1c(=Cc2[n-]c(=O)[n-]c2[O-])cc(C)n1-c1ccccc1C(=O)NCc1ccc(F)cc1 (optimized conformer: 130.62773941432891 kcal/mol)

>  <smiles>  (53) 
C=c1c(=Cc2[nH]c(=O)[nH]c2O)cc(C)n1-c1ccccc1C(=O)NCc1ccc(F)cc1

>  <score_type>  (53) 
oracle

>  <origin>  (53) 
adg

>  <m_score__min__energy>  (53) 
-16.129999999999999

>  <m_primary>  (53) 
energy

$$$$
53:0
     RDKit          3D

 62 65  0  0  0  0  0  0  0  0999 V2000
   58.1510   32.1370   49.6540 O   0  0  0  0  0  0  0  0  0  0  0  0
   59.3950   32.3300   49.6700 C   0  0  0  0  0  0  0  0  0  0  0  0
   59.9260   33.7060   49.6100 C   0  0  0  0  0  0  0  0  0  0  0  0
   59.6740   34.5820   48.6240 C   0  0  0  0  0  0  0  0  0  0  0  0
   59.3450   34.2320   47.2220 C   0  0  0  0  0  0  0  0  0  0  0  0
   59.5390   35.1980   46.2230 C   0  0  0  0  0  0  0  0  0  0  0  0
   59.1930   34.9250   44.8990 C   0  0  0  0  0  0  0  0  0  0  0  0
   58.6400   33.6880   44.5590 C   0  0  0  0  0  0  0  0  0  0  0  0
   58.4190   32.7210   45.5460 C   0  0  0  0  0  0  0  0  0  0  0  0
   57.7730   31.1410   45.1150 S   0  0  0  0  0  0  0  0  0  0  0  0
   56.3200   31.2850   44.7570 O   0  0  0  0  0  0  0  0  0  0  0  0
   58.4920   30.5760   43.9230 O   0  0  0  0  0  0  0  0  0  0  0  0
   57.9190   30.0690   46.4730 N   0  0  0  0  0  0  0  0  0  0  0  0
   58.3610   28.7080   46.3490 C   0  0  0  0  0  0  0  0  0  0  0  0
   59.7250   28.3690   46.4390 C   0  0  0  0  0  0  0  0  0  0  0  0
   60.1310   27.0390   46.3080 C   0  0  0  0  0  0  0  0  0  0  0  0
   59.1870   26.0350   46.0840 C   0  0  0  0  0  0  0  0  0  0  0  0
   57.8260   26.3590   45.9810 C   0  0  0  0  0  0  0  0  0  0  0  0
   56.6340   25.1000   45.6620 S   0  0  0  0  0  0  0  0  0  0  0  0
   56.6520   24.7750   44.1940 O   0  0  0  0  0  0  0  0  0  0  0  0
   55.2610   25.5980   46.0240 O   0  0  0  0  0  0  0  0  0  0  0  0
   57.0200   23.6670   46.5810 N   0  0  0  0  0  0  0  0  0  0  0  0
   56.1700   23.5940   47.7820 C   0  0  0  0  0  0  0  0  0  0  0  0
   56.3130   22.2200   48.4690 C   0  0  0  0  0  0  0  0  0  0  0  0
   57.3920   21.4870   47.9250 O   0  0  0  0  0  0  0  0  0  0  0  0
   57.1370   21.2000   46.5620 C   0  0  0  0  0  0  0  0  0  0  0  0
   56.8220   22.4720   45.7480 C   0  0  0  0  0  0  0  0  0  0  0  0
   57.4200   27.6950   46.1010 C   0  0  0  0  0  0  0  0  0  0  0  0
   58.7530   33.0020   46.8790 C   0  0  0  0  0  0  0  0  0  0  0  0
   60.2770   31.2000   49.7170 N   0  0  0  0  0  0  0  0  0  0  0  0
   61.1370   30.7780   48.6150 C   0  0  0  0  0  0  0  0  0  0  0  0
   62.1750   31.8310   48.3290 C   0  0  0  0  0  0  0  0  0  0  0  0
   62.1540   32.5280   47.1120 C   0  0  0  0  0  0  0  0  0  0  0  0
   63.1510   33.4700   46.8400 C   0  0  0  0  0  0  0  0  0  0  0  0
   64.1410   33.6970   47.7450 N   0  0  0  0  0  0  0  0  0  0  0  0
   64.1890   33.0320   48.9290 C   0  0  0  0  0  0  0  0  0  0  0  0
   63.2050   32.0930   49.2480 C   0  0  0  0  0  0  0  0  0  0  0  0
   60.5756   34.0381   50.4332 H   0  0  0  0  0  0  0  0  0  0  0  0
   59.7153   35.6513   48.8788 H   0  0  0  0  0  0  0  0  0  0  0  0
   59.9667   36.1770   46.4852 H   0  0  0  0  0  0  0  0  0  0  0  0
   59.3561   35.6856   44.1212 H   0  0  0  0  0  0  0  0  0  0  0  0
   58.3776   33.4735   43.5125 H   0  0  0  0  0  0  0  0  0  0  0  0
   57.9060   30.5090   47.4210 H   0  0  0  0  0  0  0  0  0  0  0  0
   60.4741   29.1554   46.6133 H   0  0  0  0  0  0  0  0  0  0  0  0
   61.1980   26.7817   46.3815 H   0  0  0  0  0  0  0  0  0  0  0  0
   59.5110   24.9882   45.9881 H   0  0  0  0  0  0  0  0  0  0  0  0
   56.4719   24.3830   48.4865 H   0  0  0  0  0  0  0  0  0  0  0  0
   55.1208   23.7315   47.4814 H   0  0  0  0  0  0  0  0  0  0  0  0
   56.4887   22.3728   49.5441 H   0  0  0  0  0  0  0  0  0  0  0  0
   55.3866   21.6501   48.3049 H   0  0  0  0  0  0  0  0  0  0  0  0
   58.0243   20.7138   46.1303 H   0  0  0  0  0  0  0  0  0  0  0  0
   56.2569   20.5418   46.5143 H   0  0  0  0  0  0  0  0  0  0  0  0
   57.4912   22.5212   44.8764 H   0  0  0  0  0  0  0  0  0  0  0  0
   55.7745   22.4355   45.4141 H   0  0  0  0  0  0  0  0  0  0  0  0
   56.3553   27.9525   46.0001 H   0  0  0  0  0  0  0  0  0  0  0  0
   58.5509   32.2560   47.6617 H   0  0  0  0  0  0  0  0  0  0  0  0
   61.6392   29.8377   48.8863 H   0  0  0  0  0  0  0  0  0  0  0  0
   60.5202   30.6303   47.7162 H   0  0  0  0  0  0  0  0  0  0  0  0
   61.3589   32.3350   46.3768 H   0  0  0  0  0  0  0  0  0  0  0  0
   63.1348   34.0285   45.8925 H   0  0  0  0  0  0  0  0  0  0  0  0
   65.0051   33.2336   49.6385 H   0  0  0  0  0  0  0  0  0  0  0  0
   63.2364   31.5628   50.2113 H   0  0  0  0  0  0  0  0  0  0  0  0
  1  2  2  0
  2  3  1  0
  3  4  2  3
  4  5  1  0
  5  6  2  0
  6  7  1  0
  7  8  2  0
  8  9  1  0
  9 10  1  0
 10 11  2  0
 10 12  2  0
 10 13  1  0
 13 14  1  0
 14 15  2  0
 15 16  1  0
 16 17  2  0
 17 18  1  0
 18 19  1  0
 19 20  2  0
 19 21  2  0
 19 22  1  0
 22 23  1  0
 23 24  1  0
 24 25  1  0
 25 26  1  0
 26 27  1  0
 18 28  2  0
  9 29  2  0
  2 30  1  0
 30 31  1  0
 31 32  1  0
 32 33  2  0
 33 34  1  0
 34 35  2  0
 35 36  1  0
 36 37  2  0
 29  5  1  0
 37 32  1  0
 28 14  1  0
 27 22  1  0
  3 38  1  0
  4 39  1  0
  6 40  1  0
  7 41  1  0
  8 42  1  0
 13 43  1  0
 15 44  1  0
 16 45  1  0
 17 46  1  0
 23 47  1  0
 23 48  1  0
 24 49  1  0
 24 50  1  0
 26 51  1  0
 26 52  1  0
 27 53  1  0
 27 54  1  0
 28 55  1  0
 29 56  1  0
 31 57  1  0
 31 58  1  0
 33 59  1  0
 34 60  1  0
 36 61  1  0
 37 62  1  0
M  CHG  1  30  -1
M  END
>  <UniqueID>  (54) 
48

>  <SMILES>  (54) 
O=C(C=Cc1cccc(S(=O)(=O)Nc2cccc(S(=O)(=O)N3CCOCC3)c2)c1)[N-]Cc1ccncc1

>  <Energy>  (54) 
81.25205716494213

>  <Genealogy>  (54) 
O=C(C=Cc1cccc(S(=O)(=O)Nc2cccc(S(=O)(=O)N3CCOCC3)c2)c1)[N-]Cc1ccncc1 (protonated)
O=C(C=Cc1cccc(S(=O)(=O)Nc2cccc(S(=O)(=O)N3CCOCC3)c2)c1)[N-]Cc1ccncc1 (3D coordinates assigned)
O=C(C=Cc1cccc(S(=O)(=O)Nc2cccc(S(=O)(=O)N3CCOCC3)c2)c1)[N-]Cc1ccncc1 (nonaromatic ring conformer: 81.25205716494213 kcal/mol)

>  <smiles>  (54) 
O=C(C=Cc1cccc(S(=O)(=O)Nc2cccc(S(=O)(=O)N3CCOCC3)c2)c1)NCc1ccncc1

>  <score_type>  (54) 
oracle

>  <origin>  (54) 
adg

>  <m_score__min__energy>  (54) 
-12.81

>  <m_primary>  (54) 
energy

$$$$
54:0
     RDKit          3D

 66 70  0  0  0  0  0  0  0  0999 V2000
   67.5210   33.3430   50.5260 C   0  0  0  0  0  0  0  0  0  0  0  0
   66.1580   32.7640   50.6880 C   0  0  0  0  0  0  0  0  0  0  0  0
   64.9710   33.4940   50.6470 C   0  0  0  0  0  0  0  0  0  0  0  0
   63.8490   32.6680   50.7660 C   0  0  0  0  0  0  0  0  0  0  0  0
   62.5070   33.0260   50.6550 C   0  0  0  0  0  0  0  0  0  0  0  0
   62.1640   34.2270   50.4920 O   0  0  0  0  0  0  0  0  0  0  0  0
   61.5620   32.0470   50.7040 N   0  0  0  0  0  0  0  0  0  0  0  0
   61.8960   30.7290   50.8750 C   0  0  0  0  0  0  0  0  0  0  0  0
   60.8500   29.6530   50.8140 C   0  0  0  0  0  0  0  0  0  0  0  0
   60.4600   29.2680   49.3760 C   0  0  0  0  0  0  0  0  0  0  0  0
   60.2550   27.7780   49.2690 C   0  0  0  0  0  0  0  0  0  0  0  0
   60.7780   27.0260   50.1360 O   0  0  0  0  0  0  0  0  0  0  0  0
   59.6310   27.1820   48.1240 N   0  0  0  0  0  0  0  0  0  0  0  0
   59.3950   27.8620   46.8840 C   0  0  0  0  0  0  0  0  0  0  0  0
   60.4190   27.9820   45.9270 C   0  0  0  0  0  0  0  0  0  0  0  0
   60.1510   28.5530   44.6810 C   0  0  0  0  0  0  0  0  0  0  0  0
   58.8670   29.0180   44.3880 C   0  0  0  0  0  0  0  0  0  0  0  0
   57.8490   28.9550   45.3560 C   0  0  0  0  0  0  0  0  0  0  0  0
   56.4890   29.4120   45.0200 C   0  0  0  0  0  0  0  0  0  0  0  0
   55.5370   28.5900   44.9970 O   0  0  0  0  0  0  0  0  0  0  0  0
   56.2390   30.7920   44.7240 N   0  0  0  0  0  0  0  0  0  0  0  0
   57.2530   31.8000   44.8250 C   0  0  0  0  0  0  0  0  0  0  0  0
   57.7190   32.4650   43.6790 C   0  0  0  0  0  0  0  0  0  0  0  0
   58.6890   33.4610   43.7890 C   0  0  0  0  0  0  0  0  0  0  0  0
   59.2160   33.7910   45.0370 C   0  0  0  0  0  0  0  0  0  0  0  0
   58.7590   33.1360   46.1900 C   0  0  0  0  0  0  0  0  0  0  0  0
   59.4730   33.5120   47.7550 S   0  0  0  0  0  0  0  0  0  0  0  0
   58.7440   32.7520   48.8270 O   0  0  0  0  0  0  0  0  0  0  0  0
   59.3280   34.9840   48.0300 O   0  0  0  0  0  0  0  0  0  0  0  0
   61.1600   33.0620   47.7660 N   0  0  0  0  0  0  0  0  0  0  0  0
   61.3000   31.6130   47.4970 C   0  0  0  0  0  0  0  0  0  0  0  0
   62.7470   31.2140   47.1300 C   0  0  0  0  0  0  0  0  0  0  0  0
   63.7530   32.2900   47.5480 C   0  0  0  0  0  0  0  0  0  0  0  0
   63.4090   33.6470   46.9110 C   0  0  0  0  0  0  0  0  0  0  0  0
   61.8900   33.8610   46.7680 C   0  0  0  0  0  0  0  0  0  0  0  0
   57.7640   32.1510   46.0820 C   0  0  0  0  0  0  0  0  0  0  0  0
   58.1280   28.4020   46.6170 C   0  0  0  0  0  0  0  0  0  0  0  0
   63.2100   30.3700   50.9760 N   0  0  0  0  0  0  0  0  0  0  0  0
   64.1600   31.3340   50.9350 C   0  0  0  0  0  0  0  0  0  0  0  0
   65.8190   31.1150   50.9080 S   0  0  0  0  0  0  0  0  0  0  0  0
   67.9603   33.5296   51.5171 H   0  0  0  0  0  0  0  0  0  0  0  0
   68.1557   32.6368   49.9707 H   0  0  0  0  0  0  0  0  0  0  0  0
   67.4534   34.2901   49.9707 H   0  0  0  0  0  0  0  0  0  0  0  0
   64.9229   34.5872   50.5347 H   0  0  0  0  0  0  0  0  0  0  0  0
   61.2387   28.7583   51.3223 H   0  0  0  0  0  0  0  0  0  0  0  0
   59.9470   30.0466   51.3035 H   0  0  0  0  0  0  0  0  0  0  0  0
   59.5270   29.7829   49.1031 H   0  0  0  0  0  0  0  0  0  0  0  0
   61.2697   29.5671   48.6941 H   0  0  0  0  0  0  0  0  0  0  0  0
   61.4330   27.6253   46.1606 H   0  0  0  0  0  0  0  0  0  0  0  0
   60.9509   28.6365   43.9306 H   0  0  0  0  0  0  0  0  0  0  0  0
   58.6507   29.4361   43.3938 H   0  0  0  0  0  0  0  0  0  0  0  0
   57.3171   32.1990   42.6902 H   0  0  0  0  0  0  0  0  0  0  0  0
   59.0392   33.9876   42.8889 H   0  0  0  0  0  0  0  0  0  0  0  0
   59.9918   34.5667   45.1175 H   0  0  0  0  0  0  0  0  0  0  0  0
   60.9987   31.0569   48.3969 H   0  0  0  0  0  0  0  0  0  0  0  0
   60.6590   31.3704   46.6366 H   0  0  0  0  0  0  0  0  0  0  0  0
   62.9981   30.2730   47.6412 H   0  0  0  0  0  0  0  0  0  0  0  0
   62.8043   31.0959   46.0379 H   0  0  0  0  0  0  0  0  0  0  0  0
   63.7353   32.3924   48.6431 H   0  0  0  0  0  0  0  0  0  0  0  0
   64.7527   31.9861   47.2042 H   0  0  0  0  0  0  0  0  0  0  0  0
   63.8206   34.4481   47.5425 H   0  0  0  0  0  0  0  0  0  0  0  0
   63.8464   33.6641   45.9018 H   0  0  0  0  0  0  0  0  0  0  0  0
   61.6589   34.9260   46.9177 H   0  0  0  0  0  0  0  0  0  0  0  0
   61.5793   33.5431   45.7618 H   0  0  0  0  0  0  0  0  0  0  0  0
   57.3845   31.6534   46.9866 H   0  0  0  0  0  0  0  0  0  0  0  0
   57.3517   28.3924   47.3963 H   0  0  0  0  0  0  0  0  0  0  0  0
  1  2  1  0
  2  3  2  0
  3  4  1  0
  4  5  1  0
  5  6  2  0
  5  7  1  0
  7  8  2  0
  8  9  1  0
  9 10  1  0
 10 11  1  0
 11 12  2  0
 11 13  1  0
 13 14  1  0
 14 15  2  0
 15 16  1  0
 16 17  2  0
 17 18  1  0
 18 19  1  0
 19 20  2  0
 19 21  1  0
 21 22  1  0
 22 23  2  0
 23 24  1  0
 24 25  2  0
 25 26  1  0
 26 27  1  0
 27 28  2  0
 27 29  2  0
 27 30  1  0
 30 31  1  0
 31 32  1  0
 32 33  1  0
 33 34  1  0
 34 35  1  0
 26 36  2  0
 18 37  2  0
  8 38  1  0
 38 39  1  0
 39 40  1  0
 40  2  1  0
 39  4  2  0
 37 14  1  0
 36 22  1  0
 35 30  1  0
  1 41  1  0
  1 42  1  0
  1 43  1  0
  3 44  1  0
  9 45  1  0
  9 46  1  0
 10 47  1  0
 10 48  1  0
 15 49  1  0
 16 50  1  0
 17 51  1  0
 23 52  1  0
 24 53  1  0
 25 54  1  0
 31 55  1  0
 31 56  1  0
 32 57  1  0
 32 58  1  0
 33 59  1  0
 33 60  1  0
 34 61  1  0
 34 62  1  0
 35 63  1  0
 35 64  1  0
 36 65  1  0
 37 66  1  0
M  CHG  3  13  -1  21  -1  38  -1
M  END
>  <UniqueID>  (55) 
49

>  <SMILES>  (55) 
Cc1cc2c(=O)nc(CCC(=O)[N-]c3cccc(C(=O)[N-]c4cccc(S(=O)(=O)N5CCCCC5)c4)c3)[n-]c2s1

>  <Energy>  (55) 
113.48973259285242

>  <Genealogy>  (55) 
Cc1cc2c(=O)nc(CCC(=O)[N-]c3cccc(C(=O)[N-]c4cccc(S(=O)(=O)N5CCCCC5)c4)c3)[n-]c2s1 (protonated)
Cc1cc2c(=O)nc(CCC(=O)[N-]c3cccc(C(=O)[N-]c4cccc(S(=O)(=O)N5CCCCC5)c4)c3)[n-]c2s1 (3D coordinates assigned)
Cc1cc2c(=O)nc(CCC(=O)[N-]c3cccc(C(=O)[N-]c4cccc(S(=O)(=O)N5CCCCC5)c4)c3)[n-]c2s1 (nonaromatic ring conformer: 113.48973259285242 kcal/mol)

>  <smiles>  (55) 
Cc1cc2c(=O)nc(CCC(=O)Nc3cccc(C(=O)Nc4cccc(S(=O)(=O)N5CCCCC5)c4)c3)[nH]c2s1

>  <score_type>  (55) 
oracle

>  <origin>  (55) 
adg

>  <m_score__min__energy>  (55) 
-15.460000000000001

>  <m_primary>  (55) 
energy

$$$$
55:0
     RDKit          3D

 54 57  0  0  0  0  0  0  0  0999 V2000
   57.4050   29.3720   51.3080 O   0  0  0  0  0  0  0  0  0  0  0  0
   57.4650   30.4070   52.0220 C   0  0  0  0  0  0  0  0  0  0  0  0
   56.3740   30.6980   52.9060 N   0  0  0  0  0  0  0  0  0  0  0  0
   55.1980   29.8560   53.1120 C   0  0  0  0  0  0  0  0  0  0  0  0
   53.9380   30.5750   52.7130 C   0  0  0  0  0  0  0  0  0  0  0  0
   53.8140   31.1230   51.4260 C   0  0  0  0  0  0  0  0  0  0  0  0
   52.6600   31.8290   51.0690 C   0  0  0  0  0  0  0  0  0  0  0  0
   51.6230   31.9930   51.9940 C   0  0  0  0  0  0  0  0  0  0  0  0
   50.4790   32.6950   51.6380 O   0  0  0  0  0  0  0  0  0  0  0  0
   51.7390   31.4450   53.2750 C   0  0  0  0  0  0  0  0  0  0  0  0
   52.8910   30.7390   53.6350 C   0  0  0  0  0  0  0  0  0  0  0  0
   58.6380   31.2980   51.9120 C   0  0  0  0  0  0  0  0  0  0  0  0
   58.6920   32.4410   52.7220 C   0  0  0  0  0  0  0  0  0  0  0  0
   59.8180   33.2660   52.7140 C   0  0  0  0  0  0  0  0  0  0  0  0
   60.9130   32.9710   51.8900 C   0  0  0  0  0  0  0  0  0  0  0  0
   62.0730   33.8270   51.9280 N   0  0  0  0  0  0  0  0  0  0  0  0
   63.2520   33.6630   51.0750 C   0  0  0  0  0  0  0  0  0  0  0  0
   62.8550   33.6070   49.6230 C   0  0  0  0  0  0  0  0  0  0  0  0
   61.6650   34.2190   49.1980 C   0  0  0  0  0  0  0  0  0  0  0  0
   61.2830   34.1610   47.8550 C   0  0  0  0  0  0  0  0  0  0  0  0
   62.0900   33.5000   46.9240 C   0  0  0  0  0  0  0  0  0  0  0  0
   63.2790   32.8920   47.3340 C   0  0  0  0  0  0  0  0  0  0  0  0
   64.0800   32.2460   46.3950 O   0  0  0  0  0  0  0  0  0  0  0  0
   63.6560   32.9360   48.6840 C   0  0  0  0  0  0  0  0  0  0  0  0
   60.8470   31.8480   51.0490 C   0  0  0  0  0  0  0  0  0  0  0  0
   59.7220   31.0080   51.0490 C   0  0  0  0  0  0  0  0  0  0  0  0
   59.7490   29.8040   50.1890 C   0  0  0  0  0  0  0  0  0  0  0  0
   59.0360   29.7940   48.9780 C   0  0  0  0  0  0  0  0  0  0  0  0
   59.0440   28.6590   48.1630 C   0  0  0  0  0  0  0  0  0  0  0  0
   59.7440   27.5160   48.5610 C   0  0  0  0  0  0  0  0  0  0  0  0
   59.7530   26.3890   47.7490 O   0  0  0  0  0  0  0  0  0  0  0  0
   60.4280   27.5060   49.7810 C   0  0  0  0  0  0  0  0  0  0  0  0
   60.4230   28.6420   50.5980 C   0  0  0  0  0  0  0  0  0  0  0  0
   55.2986   28.9443   52.5048 H   0  0  0  0  0  0  0  0  0  0  0  0
   55.1323   29.6046   54.1809 H   0  0  0  0  0  0  0  0  0  0  0  0
   54.6271   30.9967   50.6959 H   0  0  0  0  0  0  0  0  0  0  0  0
   52.5678   32.2559   50.0594 H   0  0  0  0  0  0  0  0  0  0  0  0
   50.9222   31.5695   54.0012 H   0  0  0  0  0  0  0  0  0  0  0  0
   52.9777   30.3103   54.6443 H   0  0  0  0  0  0  0  0  0  0  0  0
   57.8388   32.6901   53.3701 H   0  0  0  0  0  0  0  0  0  0  0  0
   59.8463   34.1557   53.3602 H   0  0  0  0  0  0  0  0  0  0  0  0
   62.1030   34.5920   52.6390 H   0  0  0  0  0  0  0  0  0  0  0  0
   63.9317   34.5137   51.2310 H   0  0  0  0  0  0  0  0  0  0  0  0
   63.7528   32.7205   51.3413 H   0  0  0  0  0  0  0  0  0  0  0  0
   61.0305   34.7465   49.9254 H   0  0  0  0  0  0  0  0  0  0  0  0
   60.3458   34.6362   47.5298 H   0  0  0  0  0  0  0  0  0  0  0  0
   61.7882   33.4587   45.8670 H   0  0  0  0  0  0  0  0  0  0  0  0
   64.9030   32.6910   46.0040 H   0  0  0  0  0  0  0  0  0  0  0  0
   64.5837   32.4426   49.0094 H   0  0  0  0  0  0  0  0  0  0  0  0
   61.6903   31.6230   50.3796 H   0  0  0  0  0  0  0  0  0  0  0  0
   58.4685   30.6846   48.6700 H   0  0  0  0  0  0  0  0  0  0  0  0
   58.4991   28.6648   47.2075 H   0  0  0  0  0  0  0  0  0  0  0  0
   60.9708   26.6036   50.0988 H   0  0  0  0  0  0  0  0  0  0  0  0
   60.9489   28.6247   51.5640 H   0  0  0  0  0  0  0  0  0  0  0  0
  1  2  2  0
  2  3  1  0
  3  4  1  0
  4  5  1  0
  5  6  2  0
  6  7  1  0
  7  8  2  0
  8  9  1  0
  8 10  1  0
 10 11  2  0
  2 12  1  0
 12 13  2  0
 13 14  1  0
 14 15  2  0
 15 16  1  0
 16 17  1  0
 17 18  1  0
 18 19  2  0
 19 20  1  0
 20 21  2  0
 21 22  1  0
 22 23  1  0
 22 24  2  0
 15 25  1  0
 25 26  2  0
 26 27  1  0
 27 28  2  0
 28 29  1  0
 29 30  2  0
 30 31  1  0
 30 32  1  0
 32 33  2  0
 11  5  1  0
 26 12  1  0
 33 27  1  0
 24 18  1  0
  4 34  1  0
  4 35  1  0
  6 36  1  0
  7 37  1  0
 10 38  1  0
 11 39  1  0
 13 40  1  0
 14 41  1  0
 16 42  1  0
 17 43  1  0
 17 44  1  0
 19 45  1  0
 20 46  1  0
 21 47  1  0
 23 48  1  0
 24 49  1  0
 25 50  1  0
 28 51  1  0
 29 52  1  0
 32 53  1  0
 33 54  1  0
M  CHG  3   3  -1   9  -1  31  -1
M  END
>  <UniqueID>  (56) 
50

>  <SMILES>  (56) 
O=C([N-]Cc1ccc([O-])cc1)c1ccc(NCc2cccc(O)c2)cc1-c1ccc([O-])cc1

>  <Energy>  (56) 
63.226243436621296

>  <Genealogy>  (56) 
O=C([N-]Cc1ccc([O-])cc1)c1ccc(NCc2cccc(O)c2)cc1-c1ccc([O-])cc1 (protonated)
O=C([N-]Cc1ccc([O-])cc1)c1ccc(NCc2cccc(O)c2)cc1-c1ccc([O-])cc1 (3D coordinates assigned)
O=C([N-]Cc1ccc([O-])cc1)c1ccc(NCc2cccc(O)c2)cc1-c1ccc([O-])cc1 (optimized conformer: 63.226243436621296 kcal/mol)

>  <smiles>  (56) 
O=C(NCc1ccc(O)cc1)c1ccc(NCc2cccc(O)c2)cc1-c1ccc(O)cc1

>  <score_type>  (56) 
oracle

>  <origin>  (56) 
adg

>  <m_score__min__energy>  (56) 
-13.619999999999999

>  <m_primary>  (56) 
energy

$$$$
56:0
     RDKit          3D

 83 88  0  0  0  0  0  0  0  0999 V2000
   63.8040   33.5160   48.1330 C   0  0  0  0  0  0  0  0  0  0  0  0
   62.4460   33.8430   47.6150 C   0  0  0  0  0  0  0  0  0  0  0  0
   61.9390   33.4930   46.3790 C   0  0  0  0  0  0  0  0  0  0  0  0
   60.6670   34.0140   46.4140 C   0  0  0  0  0  0  0  0  0  0  0  0
   59.8090   33.9320   45.4470 N   0  0  0  0  0  0  0  0  0  0  0  0
   58.1220   33.6220   45.6960 S   0  0  0  0  0  0  0  0  0  0  0  0
   57.7480   33.9690   47.1100 O   0  0  0  0  0  0  0  0  0  0  0  0
   57.3200   34.4870   44.7680 O   0  0  0  0  0  0  0  0  0  0  0  0
   57.7690   31.9300   45.3540 C   0  0  0  0  0  0  0  0  0  0  0  0
   57.9110   30.9760   46.3690 C   0  0  0  0  0  0  0  0  0  0  0  0
   57.6670   29.6260   46.1030 C   0  0  0  0  0  0  0  0  0  0  0  0
   57.2640   29.2140   44.8280 C   0  0  0  0  0  0  0  0  0  0  0  0
   57.1060   27.8110   44.5790 N   0  0  0  0  0  0  0  0  0  0  0  0
   56.6560   26.8060   45.4980 C   0  0  0  0  0  0  0  0  0  0  0  0
   55.5030   26.9210   45.9940 O   0  0  0  0  0  0  0  0  0  0  0  0
   57.4780   25.6160   45.8030 C   0  0  0  0  0  0  0  0  0  0  0  0
   58.7690   25.7160   46.1560 C   0  0  0  0  0  0  0  0  0  0  0  0
   59.4580   26.9920   46.4880 C   0  0  0  0  0  0  0  0  0  0  0  0
   60.1470   27.7620   45.5320 C   0  0  0  0  0  0  0  0  0  0  0  0
   60.7490   28.9670   45.8950 C   0  0  0  0  0  0  0  0  0  0  0  0
   60.6840   29.4290   47.2190 C   0  0  0  0  0  0  0  0  0  0  0  0
   61.2410   30.6590   47.6100 O   0  0  0  0  0  0  0  0  0  0  0  0
   61.8610   30.9130   48.8700 C   0  0  0  0  0  0  0  0  0  0  0  0
   61.0360   31.8830   49.6840 C   0  0  0  0  0  0  0  0  0  0  0  0
   59.7250   32.1630   49.2610 C   0  0  0  0  0  0  0  0  0  0  0  0
   58.9270   33.0630   49.9680 C   0  0  0  0  0  0  0  0  0  0  0  0
   59.4240   33.6880   51.1130 C   0  0  0  0  0  0  0  0  0  0  0  0
   60.7190   33.4040   51.5560 C   0  0  0  0  0  0  0  0  0  0  0  0
   61.5270   32.5010   50.8580 C   0  0  0  0  0  0  0  0  0  0  0  0
   63.1340   32.1690   51.4960 Cl  0  0  0  0  0  0  0  0  0  0  0  0
   60.0400   28.6520   48.1910 C   0  0  0  0  0  0  0  0  0  0  0  0
   60.0210   29.1240   49.5150 O   0  0  0  0  0  0  0  0  0  0  0  0
   58.8480   29.3520   50.3000 C   0  0  0  0  0  0  0  0  0  0  0  0
   59.2180   29.7760   51.7040 C   0  0  0  0  0  0  0  0  0  0  0  0
   60.4950   29.4670   52.2080 C   0  0  0  0  0  0  0  0  0  0  0  0
   60.8830   29.9070   53.4760 C   0  0  0  0  0  0  0  0  0  0  0  0
   60.0020   30.6570   54.2570 C   0  0  0  0  0  0  0  0  0  0  0  0
   58.7260   30.9590   53.7790 C   0  0  0  0  0  0  0  0  0  0  0  0
   58.3190   30.5130   52.5120 C   0  0  0  0  0  0  0  0  0  0  0  0
   56.9560   30.8170   52.0600 C   0  0  0  0  0  0  0  0  0  0  0  0
   56.6710   31.9910   51.6990 O   0  0  0  0  0  0  0  0  0  0  0  0
   55.9880   29.7620   51.9860 N   0  0  0  0  0  0  0  0  0  0  0  0
   54.5650   29.9040   52.0820 C   0  0  0  0  0  0  0  0  0  0  0  0
   53.7830   29.0880   52.9250 C   0  0  0  0  0  0  0  0  0  0  0  0
   52.3940   29.2380   52.9590 C   0  0  0  0  0  0  0  0  0  0  0  0
   51.7710   30.1850   52.1410 C   0  0  0  0  0  0  0  0  0  0  0  0
   52.5380   30.9770   51.2840 C   0  0  0  0  0  0  0  0  0  0  0  0
   53.9280   30.8320   51.2490 C   0  0  0  0  0  0  0  0  0  0  0  0
   59.4240   27.4410   47.8170 C   0  0  0  0  0  0  0  0  0  0  0  0
   57.1310   30.1720   43.8070 C   0  0  0  0  0  0  0  0  0  0  0  0
   57.3700   31.5250   44.0730 C   0  0  0  0  0  0  0  0  0  0  0  0
   60.4350   34.6250   47.5940 N   0  0  0  0  0  0  0  0  0  0  0  0
   61.5290   34.5000   48.2900 O   0  0  0  0  0  0  0  0  0  0  0  0
   63.7877   33.5199   49.2329 H   0  0  0  0  0  0  0  0  0  0  0  0
   64.1033   32.5201   47.7743 H   0  0  0  0  0  0  0  0  0  0  0  0
   64.5238   34.2665   47.7743 H   0  0  0  0  0  0  0  0  0  0  0  0
   62.4307   32.9358   45.5679 H   0  0  0  0  0  0  0  0  0  0  0  0
   58.2154   31.2900   47.3783 H   0  0  0  0  0  0  0  0  0  0  0  0
   57.7928   28.8811   46.9026 H   0  0  0  0  0  0  0  0  0  0  0  0
   57.0180   24.6189   45.7388 H   0  0  0  0  0  0  0  0  0  0  0  0
   59.3593   24.7890   46.2032 H   0  0  0  0  0  0  0  0  0  0  0  0
   60.2112   27.4111   44.4914 H   0  0  0  0  0  0  0  0  0  0  0  0
   61.2798   29.5609   45.1364 H   0  0  0  0  0  0  0  0  0  0  0  0
   61.9563   29.9669   49.4231 H   0  0  0  0  0  0  0  0  0  0  0  0
   62.8536   31.3531   48.6940 H   0  0  0  0  0  0  0  0  0  0  0  0
   59.3245   31.6679   48.3641 H   0  0  0  0  0  0  0  0  0  0  0  0
   57.9054   33.2802   49.6229 H   0  0  0  0  0  0  0  0  0  0  0  0
   58.7973   34.4031   51.6660 H   0  0  0  0  0  0  0  0  0  0  0  0
   61.1057   33.8949   52.4612 H   0  0  0  0  0  0  0  0  0  0  0  0
   58.2474   30.1447   49.8299 H   0  0  0  0  0  0  0  0  0  0  0  0
   58.2712   28.4169   50.3535 H   0  0  0  0  0  0  0  0  0  0  0  0
   61.1933   28.8743   51.5988 H   0  0  0  0  0  0  0  0  0  0  0  0
   61.8844   29.6620   53.8596 H   0  0  0  0  0  0  0  0  0  0  0  0
   60.3140   31.0106   55.2508 H   0  0  0  0  0  0  0  0  0  0  0  0
   58.0355   31.5499   54.3987 H   0  0  0  0  0  0  0  0  0  0  0  0
   54.2680   28.3305   53.5582 H   0  0  0  0  0  0  0  0  0  0  0  0
   51.7901   28.6100   53.6304 H   0  0  0  0  0  0  0  0  0  0  0  0
   50.6781   30.3061   52.1723 H   0  0  0  0  0  0  0  0  0  0  0  0
   52.0472   31.7169   50.6347 H   0  0  0  0  0  0  0  0  0  0  0  0
   54.5250   31.4507   50.5629 H   0  0  0  0  0  0  0  0  0  0  0  0
   58.9083   26.8381   48.5790 H   0  0  0  0  0  0  0  0  0  0  0  0
   56.8378   29.8564   42.7948 H   0  0  0  0  0  0  0  0  0  0  0  0
   57.2445   32.2719   43.2753 H   0  0  0  0  0  0  0  0  0  0  0  0
  1  2  1  0
  2  3  2  0
  3  4  1  0
  4  5  2  3
  5  6  1  0
  6  7  2  0
  6  8  2  0
  6  9  1  0
  9 10  2  0
 10 11  1  0
 11 12  2  0
 12 13  1  0
 13 14  1  0
 14 15  2  0
 14 16  1  0
 16 17  2  3
 17 18  1  0
 18 19  2  0
 19 20  1  0
 20 21  2  0
 21 22  1  0
 22 23  1  0
 23 24  1  0
 24 25  2  0
 25 26  1  0
 26 27  2  0
 27 28  1  0
 28 29  2  0
 29 30  1  0
 21 31  1  0
 31 32  1  0
 32 33  1  0
 33 34  1  0
 34 35  2  0
 35 36  1  0
 36 37  2  0
 37 38  1  0
 38 39  2  0
 39 40  1  0
 40 41  2  0
 40 42  1  0
 42 43  1  0
 43 44  2  0
 44 45  1  0
 45 46  2  0
 46 47  1  0
 47 48  2  0
 31 49  2  0
 12 50  1  0
 50 51  2  0
  4 52  1  0
 52 53  1  0
 53  2  1  0
 51  9  1  0
 49 18  1  0
 29 24  1  0
 39 34  1  0
 48 43  1  0
  1 54  1  0
  1 55  1  0
  1 56  1  0
  3 57  1  0
 10 58  1  0
 11 59  1  0
 16 60  1  0
 17 61  1  0
 19 62  1  0
 20 63  1  0
 23 64  1  0
 23 65  1  0
 25 66  1  0
 26 67  1  0
 27 68  1  0
 28 69  1  0
 33 70  1  0
 33 71  1  0
 35 72  1  0
 36 73  1  0
 37 74  1  0
 38 75  1  0
 44 76  1  0
 45 77  1  0
 46 78  1  0
 47 79  1  0
 48 80  1  0
 49 81  1  0
 50 82  1  0
 51 83  1  0
M  CHG  3  13  -1  42  -1  52  -1
M  END
>  <UniqueID>  (57) 
51

>  <SMILES>  (57) 
Cc1cc(=NS(=O)(=O)c2ccc([N-]C(=O)C=Cc3ccc(OCc4ccccc4Cl)c(OCc4ccccc4C(=O)[N-]c4ccccc4)c3)cc2)[n-]o1

>  <Energy>  (57) 
139.61004967192554

>  <Genealogy>  (57) 
Cc1cc(=NS(=O)(=O)c2ccc([N-]C(=O)C=Cc3ccc(OCc4ccccc4Cl)c(OCc4ccccc4C(=O)[N-]c4ccccc4)c3)cc2)[n-]o1 (protonated)
Cc1cc(=NS(=O)(=O)c2ccc([N-]C(=O)C=Cc3ccc(OCc4ccccc4Cl)c(OCc4ccccc4C(=O)[N-]c4ccccc4)c3)cc2)[n-]o1 (3D coordinates assigned)
Cc1cc(=NS(=O)(=O)c2ccc([N-]C(=O)C=Cc3ccc(OCc4ccccc4Cl)c(OCc4ccccc4C(=O)[N-]c4ccccc4)c3)cc2)[n-]o1 (optimized conformer: 139.61004967192554 kcal/mol)

>  <smiles>  (57) 
Cc1cc(=NS(=O)(=O)c2ccc(NC(=O)C=Cc3ccc(OCc4ccccc4Cl)c(OCc4ccccc4C(=O)Nc4ccccc4)c3)cc2)[nH]o1

>  <score_type>  (57) 
oracle

>  <origin>  (57) 
adg

>  <m_score__min__energy>  (57) 
-16.170000000000002

>  <m_primary>  (57) 
energy

$$$$
57:0
     RDKit          3D

 58 61  0  0  0  0  0  0  0  0999 V2000
   61.5340   33.9380   46.3660 C   0  0  0  0  0  0  0  0  0  0  0  0
   60.6470   33.0660   47.2110 C   0  0  0  0  0  0  0  0  0  0  0  0
   59.2650   33.0210   47.1220 C   0  0  0  0  0  0  0  0  0  0  0  0
   58.4000   33.7420   46.1320 C   0  0  0  0  0  0  0  0  0  0  0  0
   58.0260   32.8250   44.9980 C   0  0  0  0  0  0  0  0  0  0  0  0
   58.3050   33.1960   43.6770 C   0  0  0  0  0  0  0  0  0  0  0  0
   57.9700   32.3430   42.6270 C   0  0  0  0  0  0  0  0  0  0  0  0
   57.3670   31.1110   42.8790 C   0  0  0  0  0  0  0  0  0  0  0  0
   57.0420   30.7270   44.1960 C   0  0  0  0  0  0  0  0  0  0  0  0
   56.4300   29.4030   44.5370 C   0  0  0  0  0  0  0  0  0  0  0  0
   55.1710   29.3700   44.6760 O   0  0  0  0  0  0  0  0  0  0  0  0
   57.1630   28.1440   44.6000 N   0  0  0  0  0  0  0  0  0  0  0  0
   57.0460   27.4320   45.9040 C   0  0  0  0  0  0  0  0  0  0  0  0
   58.4020   27.1050   46.5400 C   0  0  0  0  0  0  0  0  0  0  0  0
   59.2560   28.2970   46.4750 N   0  0  0  0  0  0  0  0  0  0  0  0
   60.3220   28.2770   47.5090 C   0  0  0  0  0  0  0  0  0  0  0  0
   60.4110   27.0850   48.4630 C   0  0  0  0  0  0  0  0  0  0  0  0
   59.8470   28.4180   48.9490 C   0  0  0  0  0  0  0  0  0  0  0  0
   59.6170   28.6550   45.0870 C   0  0  0  0  0  0  0  0  0  0  0  0
   58.5350   28.2710   44.0510 C   0  0  0  0  0  0  0  0  0  0  0  0
   57.3920   31.5970   45.2480 C   0  0  0  0  0  0  0  0  0  0  0  0
   58.7800   32.1580   48.0330 N   0  0  0  0  0  0  0  0  0  0  0  0
   59.8740   31.7050   48.6790 C   0  0  0  0  0  0  0  0  0  0  0  0
   61.0260   32.2390   48.2160 N   0  0  0  0  0  0  0  0  0  0  0  0
   62.3580   31.9250   48.7680 C   0  0  0  0  0  0  0  0  0  0  0  0
   63.3780   31.6170   47.6630 C   0  0  0  0  0  0  0  0  0  0  0  0
   62.2820   30.8160   49.8320 C   0  0  0  0  0  0  0  0  0  0  0  0
   62.1659   34.5592   47.0178 H   0  0  0  0  0  0  0  0  0  0  0  0
   62.1721   33.3059   45.7310 H   0  0  0  0  0  0  0  0  0  0  0  0
   60.9128   34.5868   45.7310 H   0  0  0  0  0  0  0  0  0  0  0  0
   57.4852   34.0889   46.6347 H   0  0  0  0  0  0  0  0  0  0  0  0
   58.9575   34.6002   45.7286 H   0  0  0  0  0  0  0  0  0  0  0  0
   58.7889   34.1614   43.4678 H   0  0  0  0  0  0  0  0  0  0  0  0
   58.1830   32.6440   41.5907 H   0  0  0  0  0  0  0  0  0  0  0  0
   57.1429   30.4327   42.0425 H   0  0  0  0  0  0  0  0  0  0  0  0
   56.6780   27.5130   43.9110 H   0  0  0  0  0  0  0  0  0  0  0  0
   56.4785   28.0679   46.5994 H   0  0  0  0  0  0  0  0  0  0  0  0
   56.5386   26.4758   45.7088 H   0  0  0  0  0  0  0  0  0  0  0  0
   58.2564   26.8116   47.5901 H   0  0  0  0  0  0  0  0  0  0  0  0
   58.8781   26.2747   45.9978 H   0  0  0  0  0  0  0  0  0  0  0  0
   61.0492   28.7810   46.8554 H   0  0  0  0  0  0  0  0  0  0  0  0
   59.7436   26.2210   48.3284 H   0  0  0  0  0  0  0  0  0  0  0  0
   61.2146   26.4114   48.7954 H   0  0  0  0  0  0  0  0  0  0  0  0
   58.7730   28.5136   49.1664 H   0  0  0  0  0  0  0  0  0  0  0  0
   60.0768   29.1021   49.7792 H   0  0  0  0  0  0  0  0  0  0  0  0
   59.7762   29.7423   45.0378 H   0  0  0  0  0  0  0  0  0  0  0  0
   60.5252   28.0891   44.8321 H   0  0  0  0  0  0  0  0  0  0  0  0
   58.5202   29.0448   43.2694 H   0  0  0  0  0  0  0  0  0  0  0  0
   58.8095   27.2754   43.6723 H   0  0  0  0  0  0  0  0  0  0  0  0
   57.1642   31.3087   46.2848 H   0  0  0  0  0  0  0  0  0  0  0  0
   59.8327   30.9743   49.5002 H   0  0  0  0  0  0  0  0  0  0  0  0
   62.7241   32.8270   49.2803 H   0  0  0  0  0  0  0  0  0  0  0  0
   64.3363   31.3276   48.1189 H   0  0  0  0  0  0  0  0  0  0  0  0
   63.0047   30.7915   47.0391 H   0  0  0  0  0  0  0  0  0  0  0  0
   63.5239   32.5111   47.0391 H   0  0  0  0  0  0  0  0  0  0  0  0
   62.3129   31.2672   50.8347 H   0  0  0  0  0  0  0  0  0  0  0  0
   61.3433   30.2554   49.7109 H   0  0  0  0  0  0  0  0  0  0  0  0
   63.1354   30.1326   49.7109 H   0  0  0  0  0  0  0  0  0  0  0  0
  1  2  1  0
  2  3  2  0
  3  4  1  0
  4  5  1  0
  5  6  2  0
  6  7  1  0
  7  8  2  0
  8  9  1  0
  9 10  1  0
 10 11  2  0
 10 12  1  0
 12 13  1  0
 13 14  1  0
 14 15  1  0
 15 16  1  0
 16 17  1  0
 17 18  1  0
 15 19  1  0
 19 20  1  0
  9 21  2  0
  3 22  1  0
 22 23  2  0
 23 24  1  0
 24 25  1  0
 25 26  1  0
 25 27  1  0
 24  2  1  0
 21  5  1  0
 20 12  1  0
 18 16  1  0
  1 28  1  0
  1 29  1  0
  1 30  1  0
  4 31  1  0
  4 32  1  0
  6 33  1  0
  7 34  1  0
  8 35  1  0
 12 36  1  0
 13 37  1  0
 13 38  1  0
 14 39  1  0
 14 40  1  0
 16 41  1  0
 17 42  1  0
 17 43  1  0
 18 44  1  0
 18 45  1  0
 19 46  1  0
 19 47  1  0
 20 48  1  0
 20 49  1  0
 21 50  1  0
 23 51  1  0
 25 52  1  0
 26 53  1  0
 26 54  1  0
 26 55  1  0
 27 56  1  0
 27 57  1  0
 27 58  1  0
M  CHG  1  12   1
M  END
>  <UniqueID>  (58) 
52

>  <SMILES>  (58) 
Cc1c(Cc2cccc(C(=O)[NH+]3CCN(C4CC4)CC3)c2)ncn1C(C)C

>  <Energy>  (58) 
385.29205212864326

>  <Genealogy>  (58) 
Cc1c(Cc2cccc(C(=O)[NH+]3CCN(C4CC4)CC3)c2)ncn1C(C)C (protonated)
Cc1c(Cc2cccc(C(=O)[NH+]3CCN(C4CC4)CC3)c2)ncn1C(C)C (3D coordinates assigned)
Cc1c(Cc2cccc(C(=O)[NH+]3CCN(C4CC4)CC3)c2)ncn1C(C)C (nonaromatic ring conformer: 385.29205212864326 kcal/mol)

>  <smiles>  (58) 
Cc1c(Cc2cccc(C(=O)N3CCN(C4CC4)CC3)c2)ncn1C(C)C

>  <score_type>  (58) 
oracle

>  <origin>  (58) 
adg

>  <m_score__min__energy>  (58) 
-7.4400000000000004

>  <m_primary>  (58) 
energy

$$$$
58:0
     RDKit          3D

 38 40  0  0  0  0  0  0  0  0999 V2000
   57.5512   34.0417   43.3418 H   0  0  0  0  0  0  0  0  0  0  0  0
   58.0380   33.3350   44.0300 C   0  0  0  0  0  0  0  0  0  0  0  0
   58.1890   32.0700   43.6070 C   0  0  0  0  0  0  0  0  0  0  0  0
   58.9002   31.8930   42.7867 H   0  0  0  0  0  0  0  0  0  0  0  0
   57.4770   30.8950   44.1540 C   0  0  0  0  0  0  0  0  0  0  0  0
   56.1300   30.6480   43.8450 C   0  0  0  0  0  0  0  0  0  0  0  0
   55.5779   31.3501   43.2030 H   0  0  0  0  0  0  0  0  0  0  0  0
   55.4880   29.5150   44.3490 C   0  0  0  0  0  0  0  0  0  0  0  0
   54.4280   29.3365   44.1154 H   0  0  0  0  0  0  0  0  0  0  0  0
   56.1870   28.6070   45.1490 C   0  0  0  0  0  0  0  0  0  0  0  0
   55.5390   27.4720   45.6220 O   0  0  0  0  0  0  0  0  0  0  0  0
   57.5420   28.8330   45.4510 C   0  0  0  0  0  0  0  0  0  0  0  0
   58.2710   27.9010   46.2680 N   0  0  0  0  0  0  0  0  0  0  0  0
   58.8390   28.3410   47.5480 C   0  0  0  0  0  0  0  0  0  0  0  0
   59.3918   29.2795   47.3943 H   0  0  0  0  0  0  0  0  0  0  0  0
   58.0190   28.4945   48.2650 H   0  0  0  0  0  0  0  0  0  0  0  0
   59.7940   27.2800   48.1100 C   0  0  0  0  0  0  0  0  0  0  0  0
   60.4714   27.7493   48.8386 H   0  0  0  0  0  0  0  0  0  0  0  0
   59.2067   26.4900   48.6008 H   0  0  0  0  0  0  0  0  0  0  0  0
   60.5850   26.6870   47.0220 N   0  0  0  0  0  0  0  0  0  0  0  0
   61.3030   26.0480   47.4380 H   0  0  0  0  0  0  0  0  0  0  0  0
   61.0940   27.4470   46.5110 H   0  0  0  0  0  0  0  0  0  0  0  0
   59.7550   25.9210   46.0680 C   0  0  0  0  0  0  0  0  0  0  0  0
   60.2500   25.9369   45.0858 H   0  0  0  0  0  0  0  0  0  0  0  0
   59.6576   24.9023   46.4714 H   0  0  0  0  0  0  0  0  0  0  0  0
   58.3250   26.4810   45.9030 C   0  0  0  0  0  0  0  0  0  0  0  0
   58.0128   26.3670   44.8544 H   0  0  0  0  0  0  0  0  0  0  0  0
   57.6508   25.9222   46.5687 H   0  0  0  0  0  0  0  0  0  0  0  0
   58.1840   29.9690   44.9350 C   0  0  0  0  0  0  0  0  0  0  0  0
   59.2510   30.1348   45.1448 H   0  0  0  0  0  0  0  0  0  0  0  0
   58.4710   33.8580   45.3430 C   0  0  0  0  0  0  0  0  0  0  0  0
   58.2030   33.2470   46.5670 C   0  0  0  0  0  0  0  0  0  0  0  0
   57.6030   32.3374   46.7173 H   0  0  0  0  0  0  0  0  0  0  0  0
   58.9560   34.1420   47.7720 S   0  0  0  0  0  0  0  0  0  0  0  0
   59.6420   35.2960   46.7630 C   0  0  0  0  0  0  0  0  0  0  0  0
   60.2614   36.1469   47.0830 H   0  0  0  0  0  0  0  0  0  0  0  0
   59.2920   34.9900   45.4560 C   0  0  0  0  0  0  0  0  0  0  0  0
   59.6267   35.5795   44.5897 H   0  0  0  0  0  0  0  0  0  0  0  0
  1  2  1  0
  2  3  2  0
  3  4  1  0
  3  5  1  0
  5  6  2  0
  6  7  1  0
  6  8  1  0
  8  9  1  0
  8 10  2  0
 10 11  1  0
 10 12  1  0
 12 13  1  0
 13 14  1  0
 14 15  1  0
 14 16  1  0
 14 17  1  0
 17 18  1  0
 17 19  1  0
 17 20  1  0
 20 21  1  0
 20 22  1  0
 20 23  1  0
 23 24  1  0
 23 25  1  0
 23 26  1  0
 26 27  1  0
 26 28  1  0
 12 29  2  0
 29 30  1  0
  2 31  1  0
 31 32  2  0
 32 33  1  0
 32 34  1  0
 34 35  1  0
 35 36  1  0
 35 37  2  0
 37 38  1  0
 29  5  1  0
 37 31  1  0
 26 13  1  0
M  CHG  2  11  -1  20   1
M  END
>  <UniqueID>  (59) 
53

>  <SMILES>  (59) 
[O-]c1ccc(/C=C\c2ccsc2)cc1N1CC[NH2+]CC1

>  <Energy>  (59) 
82.49612466267192

>  <Genealogy>  (59) 
[O-]c1ccc(C=Cc2ccsc2)cc1N1CC[NH2+]CC1 (protonated)
[O-]c1ccc(/C=C\c2ccsc2)cc1N1CC[NH2+]CC1 (cis-trans isomerization)
[O-]c1ccc(/C=C\c2ccsc2)cc1N1CC[NH2+]CC1 (3D coordinates assigned)
[O-]c1ccc(/C=C\c2ccsc2)cc1N1CC[NH2+]CC1 (nonaromatic ring conformer: 82.49612466267192 kcal/mol)

>  <smiles>  (59) 
Oc1ccc(C=Cc2ccsc2)cc1N1CCNCC1

>  <score_type>  (59) 
oracle

>  <origin>  (59) 
adg

>  <m_score__min__energy>  (59) 
-8.7799999999999994

>  <m_primary>  (59) 
energy

$$$$
59:0
     RDKit          3D

 52 54  0  0  0  0  0  0  0  0999 V2000
   57.0737   23.9452   47.2554 H   0  0  0  0  0  0  0  0  0  0  0  0
   57.3220   24.9800   46.9770 C   0  0  0  0  0  0  0  0  0  0  0  0
   58.4960   25.5300   47.3880 N   0  0  0  0  0  0  0  0  0  0  0  0
   58.8520   26.8040   47.0630 C   0  0  0  0  0  0  0  0  0  0  0  0
   59.9820   27.3130   47.4630 N   0  0  0  0  0  0  0  0  0  0  0  0
   60.2970   28.7090   47.5850 C   0  0  0  0  0  0  0  0  0  0  0  0
   60.3650   29.5580   46.4650 C   0  0  0  0  0  0  0  0  0  0  0  0
   60.1459   29.1608   45.4629 H   0  0  0  0  0  0  0  0  0  0  0  0
   60.7100   30.9050   46.6200 C   0  0  0  0  0  0  0  0  0  0  0  0
   60.7408   31.5667   45.7419 H   0  0  0  0  0  0  0  0  0  0  0  0
   61.0170   31.4160   47.8910 C   0  0  0  0  0  0  0  0  0  0  0  0
   61.3530   32.8710   48.0620 C   0  0  0  0  0  0  0  0  0  0  0  0
   60.5905   33.4811   47.5557 H   0  0  0  0  0  0  0  0  0  0  0  0
   61.3750   33.1087   49.1358 H   0  0  0  0  0  0  0  0  0  0  0  0
   62.9540   33.2260   47.3570 S   0  0  0  0  0  0  0  0  0  0  0  0
   63.7400   34.0990   48.2940 O   0  0  0  0  0  0  0  0  0  0  0  0
   62.7810   33.9340   46.0420 O   0  0  0  0  0  0  0  0  0  0  0  0
   63.8110   31.7470   47.1010 N   0  0  0  0  0  0  0  0  0  0  0  0
   64.3410   31.5430   47.9780 H   0  0  0  0  0  0  0  0  0  0  0  0
   64.5200   31.9290   46.3550 H   0  0  0  0  0  0  0  0  0  0  0  0
   60.9690   30.5630   49.0040 C   0  0  0  0  0  0  0  0  0  0  0  0
   61.2018   30.9558   50.0047 H   0  0  0  0  0  0  0  0  0  0  0  0
   60.6270   29.2170   48.8480 C   0  0  0  0  0  0  0  0  0  0  0  0
   60.6169   28.5514   49.7237 H   0  0  0  0  0  0  0  0  0  0  0  0
   58.0100   27.5660   46.2480 C   0  0  0  0  0  0  0  0  0  0  0  0
   58.3006   28.5842   45.9500 H   0  0  0  0  0  0  0  0  0  0  0  0
   56.7980   27.0260   45.8150 C   0  0  0  0  0  0  0  0  0  0  0  0
   56.1325   27.6195   45.1710 H   0  0  0  0  0  0  0  0  0  0  0  0
   56.4260   25.7300   46.1980 C   0  0  0  0  0  0  0  0  0  0  0  0
   55.1100   25.1830   45.7890 C   0  0  0  0  0  0  0  0  0  0  0  0
   54.1400   25.9700   45.6410 O   0  0  0  0  0  0  0  0  0  0  0  0
   54.8970   23.7810   45.5520 N   0  0  0  0  0  0  0  0  0  0  0  0
   55.7350   22.8970   44.7920 C   0  0  0  0  0  0  0  0  0  0  0  0
   55.7880   23.0820   43.4030 C   0  0  0  0  0  0  0  0  0  0  0  0
   55.1406   23.8344   42.9288 H   0  0  0  0  0  0  0  0  0  0  0  0
   56.6540   22.3210   42.6160 C   0  0  0  0  0  0  0  0  0  0  0  0
   56.6905   22.4796   41.5281 H   0  0  0  0  0  0  0  0  0  0  0  0
   57.4720   21.3610   43.2070 C   0  0  0  0  0  0  0  0  0  0  0  0
   58.1706   20.7789   42.5881 H   0  0  0  0  0  0  0  0  0  0  0  0
   57.4070   21.1360   44.5840 C   0  0  0  0  0  0  0  0  0  0  0  0
   58.0534   20.3738   45.0436 H   0  0  0  0  0  0  0  0  0  0  0  0
   56.5220   21.8760   45.3870 C   0  0  0  0  0  0  0  0  0  0  0  0
   56.4210   21.5260   46.8180 C   0  0  0  0  0  0  0  0  0  0  0  0
   57.3420   21.8500   47.6180 O   0  0  0  0  0  0  0  0  0  0  0  0
   55.2940   20.8380   47.2750 O   0  0  0  0  0  0  0  0  0  0  0  0
   54.1050   21.4990   47.6970 C   0  0  0  0  0  0  0  0  0  0  0  0
   53.4828   20.8012   48.2766 H   0  0  0  0  0  0  0  0  0  0  0  0
   53.5433   21.8439   46.8163 H   0  0  0  0  0  0  0  0  0  0  0  0
   54.4730   22.6920   48.5650 C   0  0  0  0  0  0  0  0  0  0  0  0
   54.3872   22.4140   49.6258 H   0  0  0  0  0  0  0  0  0  0  0  0
   55.5072   22.9978   48.3486 H   0  0  0  0  0  0  0  0  0  0  0  0
   53.7908   23.5273   48.3486 H   0  0  0  0  0  0  0  0  0  0  0  0
  1  2  1  0
  2  3  1  0
  3  4  1  0
  4  5  2  0
  5  6  1  0
  6  7  2  0
  7  8  1  0
  7  9  1  0
  9 10  1  0
  9 11  2  0
 11 12  1  0
 12 13  1  0
 12 14  1  0
 12 15  1  0
 15 16  2  0
 15 17  2  0
 15 18  1  0
 18 19  1  0
 18 20  1  0
 11 21  1  0
 21 22  1  0
 21 23  2  0
 23 24  1  0
  4 25  1  0
 25 26  1  0
 25 27  2  0
 27 28  1  0
 27 29  1  0
 29 30  1  0
 30 31  2  0
 30 32  1  0
 32 33  1  0
 33 34  2  0
 34 35  1  0
 34 36  1  0
 36 37  1  0
 36 38  2  0
 38 39  1  0
 38 40  1  0
 40 41  1  0
 40 42  2  0
 42 43  1  0
 43 44  2  0
 43 45  1  0
 45 46  1  0
 46 47  1  0
 46 48  1  0
 46 49  1  0
 49 50  1  0
 49 51  1  0
 49 52  1  0
 29  2  2  0
 42 33  1  0
 23  6  1  0
M  CHG  2   3  -1  32  -1
M  END
>  <UniqueID>  (60) 
54

>  <SMILES>  (60) 
CCOC(=O)c1ccccc1[N-]C(=O)c1cc/c(=N/c2ccc(CS(N)(=O)=O)cc2)[n-]c1

>  <Energy>  (60) 
60.518215434346345

>  <Genealogy>  (60) 
CCOC(=O)c1ccccc1[N-]C(=O)c1ccc(=Nc2ccc(CS(N)(=O)=O)cc2)[n-]c1 (protonated)
CCOC(=O)c1ccccc1[N-]C(=O)c1cc/c(=N/c2ccc(CS(N)(=O)=O)cc2)[n-]c1 (cis-trans isomerization)
CCOC(=O)c1ccccc1[N-]C(=O)c1cc/c(=N/c2ccc(CS(N)(=O)=O)cc2)[n-]c1 (3D coordinates assigned)
CCOC(=O)c1ccccc1[N-]C(=O)c1cc/c(=N/c2ccc(CS(N)(=O)=O)cc2)[n-]c1 (optimized conformer: 60.518215434346345 kcal/mol)

>  <smiles>  (60) 
CCOC(=O)c1ccccc1NC(=O)c1ccc(=Nc2ccc(CS(N)(=O)=O)cc2)[nH]c1

>  <score_type>  (60) 
oracle

>  <origin>  (60) 
adg

>  <m_score__min__energy>  (60) 
-11.34

>  <m_primary>  (60) 
energy

$$$$
60:0
     RDKit          3D

 57 59  0  0  0  0  0  0  0  0999 V2000
   56.8010   34.2680   45.1390 C   0  0  0  0  0  0  0  0  0  0  0  0
   58.1410   34.1700   45.1440 C   0  0  0  0  0  0  0  0  0  0  0  0
   58.8320   33.2690   44.1460 C   0  0  0  0  0  0  0  0  0  0  0  0
   58.0770   31.9780   43.9620 C   0  0  0  0  0  0  0  0  0  0  0  0
   57.4370   31.6970   42.7410 C   0  0  0  0  0  0  0  0  0  0  0  0
   56.7310   30.5010   42.5710 C   0  0  0  0  0  0  0  0  0  0  0  0
   56.6620   29.5750   43.6150 C   0  0  0  0  0  0  0  0  0  0  0  0
   57.3030   29.8420   44.8300 C   0  0  0  0  0  0  0  0  0  0  0  0
   58.0100   31.0380   45.0040 C   0  0  0  0  0  0  0  0  0  0  0  0
   58.9520   34.8300   46.2420 C   0  0  0  0  0  0  0  0  0  0  0  0
   59.7450   33.8430   46.9990 N   0  0  0  0  0  0  0  0  0  0  0  0
   61.1410   34.1740   47.3380 C   0  0  0  0  0  0  0  0  0  0  0  0
   62.1430   33.2180   46.6680 C   0  0  0  0  0  0  0  0  0  0  0  0
   62.2010   31.8800   47.3060 N   0  0  0  0  0  0  0  0  0  0  0  0
   62.5640   31.9880   48.7410 C   0  0  0  0  0  0  0  0  0  0  0  0
   63.5480   33.1380   49.0190 C   0  0  0  0  0  0  0  0  0  0  0  0
   63.0160   34.1190   50.0730 C   0  0  0  0  0  0  0  0  0  0  0  0
   61.8120   33.5430   50.7690 C   0  0  0  0  0  0  0  0  0  0  0  0
   60.5150   33.9190   50.3770 C   0  0  0  0  0  0  0  0  0  0  0  0
   59.3990   33.3470   50.9980 C   0  0  0  0  0  0  0  0  0  0  0  0
   59.5690   32.3960   52.0070 C   0  0  0  0  0  0  0  0  0  0  0  0
   60.8550   32.0090   52.3930 C   0  0  0  0  0  0  0  0  0  0  0  0
   61.9740   32.5760   51.7740 C   0  0  0  0  0  0  0  0  0  0  0  0
   60.9760   31.0650   47.1150 C   0  0  0  0  0  0  0  0  0  0  0  0
   59.8250   31.4720   48.0450 C   0  0  0  0  0  0  0  0  0  0  0  0
   59.0770   32.6840   47.5520 C   0  0  0  0  0  0  0  0  0  0  0  0
   57.8150   32.6470   47.5770 O   0  0  0  0  0  0  0  0  0  0  0  0
   56.2947   34.9226   45.8637 H   0  0  0  0  0  0  0  0  0  0  0  0
   56.2102   33.6936   44.4102 H   0  0  0  0  0  0  0  0  0  0  0  0
   58.8959   33.7881   43.1783 H   0  0  0  0  0  0  0  0  0  0  0  0
   59.8365   33.0333   44.5273 H   0  0  0  0  0  0  0  0  0  0  0  0
   57.4920   32.4217   41.9153 H   0  0  0  0  0  0  0  0  0  0  0  0
   56.2300   30.2896   41.6148 H   0  0  0  0  0  0  0  0  0  0  0  0
   56.1040   28.6364   43.4819 H   0  0  0  0  0  0  0  0  0  0  0  0
   57.2513   29.1107   45.6501 H   0  0  0  0  0  0  0  0  0  0  0  0
   58.5147   31.2423   45.9598 H   0  0  0  0  0  0  0  0  0  0  0  0
   59.6342   35.5647   45.7895 H   0  0  0  0  0  0  0  0  0  0  0  0
   58.2548   35.3185   46.9386 H   0  0  0  0  0  0  0  0  0  0  0  0
   61.3530   35.2005   47.0042 H   0  0  0  0  0  0  0  0  0  0  0  0
   61.2568   34.0759   48.4275 H   0  0  0  0  0  0  0  0  0  0  0  0
   61.8511   33.0895   45.6152 H   0  0  0  0  0  0  0  0  0  0  0  0
   63.1406   33.6697   46.7720 H   0  0  0  0  0  0  0  0  0  0  0  0
   61.6473   32.1604   49.3240 H   0  0  0  0  0  0  0  0  0  0  0  0
   63.0592   31.0493   49.0303 H   0  0  0  0  0  0  0  0  0  0  0  0
   64.4965   32.7126   49.3787 H   0  0  0  0  0  0  0  0  0  0  0  0
   63.6873   33.6954   48.0810 H   0  0  0  0  0  0  0  0  0  0  0  0
   63.8038   34.3152   50.8152 H   0  0  0  0  0  0  0  0  0  0  0  0
   62.7244   35.0545   49.5733 H   0  0  0  0  0  0  0  0  0  0  0  0
   60.3773   34.6647   49.5801 H   0  0  0  0  0  0  0  0  0  0  0  0
   58.3861   33.6468   50.6911 H   0  0  0  0  0  0  0  0  0  0  0  0
   58.6904   31.9518   52.4977 H   0  0  0  0  0  0  0  0  0  0  0  0
   60.9876   31.2572   53.1850 H   0  0  0  0  0  0  0  0  0  0  0  0
   62.9845   32.2631   52.0757 H   0  0  0  0  0  0  0  0  0  0  0  0
   60.6402   31.1782   46.0737 H   0  0  0  0  0  0  0  0  0  0  0  0
   61.2366   30.0238   47.3556 H   0  0  0  0  0  0  0  0  0  0  0  0
   59.1203   30.6308   48.1210 H   0  0  0  0  0  0  0  0  0  0  0  0
   60.2624   31.7271   49.0215 H   0  0  0  0  0  0  0  0  0  0  0  0
  1  2  2  0
  2  3  1  0
  3  4  1  0
  4  5  2  0
  5  6  1  0
  6  7  2  0
  7  8  1  0
  8  9  2  0
  2 10  1  0
 10 11  1  0
 11 12  1  0
 12 13  1  0
 13 14  1  0
 14 15  1  0
 15 16  1  0
 16 17  1  0
 17 18  1  0
 18 19  2  0
 19 20  1  0
 20 21  2  0
 21 22  1  0
 22 23  2  0
 14 24  1  0
 24 25  1  0
 25 26  1  0
 26 27  2  0
  9  4  1  0
 26 11  1  0
 23 18  1  0
  1 28  1  0
  1 29  1  0
  3 30  1  0
  3 31  1  0
  5 32  1  0
  6 33  1  0
  7 34  1  0
  8 35  1  0
  9 36  1  0
 10 37  1  0
 10 38  1  0
 12 39  1  0
 12 40  1  0
 13 41  1  0
 13 42  1  0
 15 43  1  0
 15 44  1  0
 16 45  1  0
 16 46  1  0
 17 47  1  0
 17 48  1  0
 19 49  1  0
 20 50  1  0
 21 51  1  0
 22 52  1  0
 23 53  1  0
 24 54  1  0
 24 55  1  0
 25 56  1  0
 25 57  1  0
M  END
>  <UniqueID>  (61) 
55

>  <SMILES>  (61) 
C=C(Cc1ccccc1)CN1CCN(CCCc2ccccc2)CCC1=O

>  <Energy>  (61) 
60.88712082029166

>  <Genealogy>  (61) 
C=C(Cc1ccccc1)CN1CCN(CCCc2ccccc2)CCC1=O (3D coordinates assigned)
C=C(Cc1ccccc1)CN1CCN(CCCc2ccccc2)CCC1=O (nonaromatic ring conformer: 60.88712082029166 kcal/mol)

>  <smiles>  (61) 
C=C(Cc1ccccc1)CN1CCN(CCCc2ccccc2)CCC1=O

>  <score_type>  (61) 
oracle

>  <origin>  (61) 
adg

>  <m_score__min__energy>  (61) 
-5.8200000000000003

>  <m_primary>  (61) 
energy

$$$$
61:0
     RDKit          3D

 36 38  0  0  0  0  0  0  0  0999 V2000
   54.7300   28.5110   44.5340 H   0  0  0  0  0  0  0  0  0  0  0  0
   55.6460   28.6790   44.9320 O   0  0  0  0  0  0  0  0  0  0  0  0
   56.3610   27.6820   45.5960 C   0  0  0  0  0  0  0  0  0  0  0  0
   57.7290   27.8620   45.8250 C   0  0  0  0  0  0  0  0  0  0  0  0
   58.2260   28.7776   45.4719 H   0  0  0  0  0  0  0  0  0  0  0  0
   58.4740   26.8800   46.5040 C   0  0  0  0  0  0  0  0  0  0  0  0
   59.9300   27.0280   46.7180 C   0  0  0  0  0  0  0  0  0  0  0  0
   60.5924   26.3179   46.2012 H   0  0  0  0  0  0  0  0  0  0  0  0
   60.5070   27.9590   47.4920 C   0  0  0  0  0  0  0  0  0  0  0  0
   61.4626   28.3834   47.1504 H   0  0  0  0  0  0  0  0  0  0  0  0
   59.9540   28.4590   48.7730 C   0  0  0  0  0  0  0  0  0  0  0  0
   60.3350   27.9470   49.8580 O   0  0  0  0  0  0  0  0  0  0  0  0
   59.0690   29.5880   48.8230 N   0  0  0  0  0  0  0  0  0  0  0  0
   58.9800   30.5390   47.9400 C   0  0  0  0  0  0  0  0  0  0  0  0
   58.5290   30.3700   46.6800 N   0  0  0  0  0  0  0  0  0  0  0  0
   58.5070   31.5380   45.9800 C   0  0  0  0  0  0  0  0  0  0  0  0
   58.0420   31.5840   44.5680 C   0  0  0  0  0  0  0  0  0  0  0  0
   57.2770   30.5200   44.0510 C   0  0  0  0  0  0  0  0  0  0  0  0
   57.0281   29.6644   44.6960 H   0  0  0  0  0  0  0  0  0  0  0  0
   56.8310   30.5410   42.7260 C   0  0  0  0  0  0  0  0  0  0  0  0
   56.2311   29.7060   42.3350 H   0  0  0  0  0  0  0  0  0  0  0  0
   57.1460   31.6200   41.8990 C   0  0  0  0  0  0  0  0  0  0  0  0
   56.7931   31.6360   40.8573 H   0  0  0  0  0  0  0  0  0  0  0  0
   57.9090   32.6790   42.3940 C   0  0  0  0  0  0  0  0  0  0  0  0
   58.1591   33.5275   41.7402 H   0  0  0  0  0  0  0  0  0  0  0  0
   58.3560   32.6640   43.7180 C   0  0  0  0  0  0  0  0  0  0  0  0
   58.9578   33.5018   44.1001 H   0  0  0  0  0  0  0  0  0  0  0  0
   58.9400   32.6520   46.7120 C   0  0  0  0  0  0  0  0  0  0  0  0
   58.9981   33.6849   46.3382 H   0  0  0  0  0  0  0  0  0  0  0  0
   59.3560   32.1400   48.2610 S   0  0  0  0  0  0  0  0  0  0  0  0
   57.8400   25.6960   46.9060 C   0  0  0  0  0  0  0  0  0  0  0  0
   58.4223   24.9053   47.4017 H   0  0  0  0  0  0  0  0  0  0  0  0
   56.4730   25.5140   46.6810 C   0  0  0  0  0  0  0  0  0  0  0  0
   55.9802   24.5894   47.0161 H   0  0  0  0  0  0  0  0  0  0  0  0
   55.7300   26.5040   46.0310 C   0  0  0  0  0  0  0  0  0  0  0  0
   54.3700   26.3100   45.8150 O   0  0  0  0  0  0  0  0  0  0  0  0
  1  2  1  0
  2  3  1  0
  3  4  2  0
  4  5  1  0
  4  6  1  0
  6  7  1  0
  7  8  1  0
  7  9  2  0
  9 10  1  0
  9 11  1  0
 11 12  2  0
 11 13  1  0
 13 14  2  0
 14 15  1  0
 15 16  1  0
 16 17  1  0
 17 18  2  0
 18 19  1  0
 18 20  1  0
 20 21  1  0
 20 22  2  0
 22 23  1  0
 22 24  1  0
 24 25  1  0
 24 26  2  0
 26 27  1  0
 16 28  2  0
 28 29  1  0
 28 30  1  0
  6 31  2  0
 31 32  1  0
 31 33  1  0
 33 34  1  0
 33 35  2  0
 35 36  1  0
 35  3  1  0
 30 14  1  0
 26 17  1  0
M  CHG  2  15  -1  36  -1
M  END
>  <UniqueID>  (62) 
56

>  <SMILES>  (62) 
O=C(/C=C\c1ccc([O-])c(O)c1)/N=c1\[n-]c(-c2ccccc2)cs1

>  <Energy>  (62) 
82.46693873526189

>  <Genealogy>  (62) 
O=C(C=Cc1ccc([O-])c(O)c1)N=c1[n-]c(-c2ccccc2)cs1 (protonated)
O=C(/C=C\c1ccc([O-])c(O)c1)/N=c1\[n-]c(-c2ccccc2)cs1 (cis-trans isomerization)
O=C(/C=C\c1ccc([O-])c(O)c1)/N=c1\[n-]c(-c2ccccc2)cs1 (3D coordinates assigned)
O=C(/C=C\c1ccc([O-])c(O)c1)/N=c1\[n-]c(-c2ccccc2)cs1 (optimized conformer: 82.46693873526189 kcal/mol)

>  <smiles>  (62) 
O=C(C=Cc1ccc(O)c(O)c1)N=c1[nH]c(-c2ccccc2)cs1

>  <score_type>  (62) 
oracle

>  <origin>  (62) 
adg

>  <m_score__min__energy>  (62) 
-13.029999999999999

>  <m_primary>  (62) 
energy

$$$$
62:0
     RDKit          3D

 54 56  0  0  1  0  0  0  0  0999 V2000
   57.4330   31.5750   42.7320 C   0  0  0  0  0  0  0  0  0  0  0  0
   56.6740   31.3010   44.0210 C   0  0  0  0  0  0  0  0  0  0  0  0
   56.7600   29.8330   44.2640 C   0  0  0  0  0  0  0  0  0  0  0  0
   55.9090   29.2690   45.0310 O   0  0  0  0  0  0  0  0  0  0  0  0
   57.7780   29.0210   43.6600 N   0  0  0  0  0  0  0  0  0  0  0  0
   57.8460   27.5980   43.9080 C   0  0  0  0  0  0  0  0  0  0  0  0
   58.2210   27.4170   45.3360 C   0  0  0  0  0  0  0  0  0  0  0  0
   59.7510   28.1830   46.0660 S   0  0  0  0  0  0  0  0  0  0  0  0
   59.4380   27.5160   47.6490 C   0  0  0  0  0  0  0  0  0  0  0  0
   60.2770   27.6880   48.8770 C   0  0  0  0  0  0  0  0  0  0  0  0
   61.0640   26.7700   49.1990 O   0  0  0  0  0  0  0  0  0  0  0  0
   60.0880   28.9010   49.5670 N   0  0  0  0  0  0  0  0  0  0  0  0
   60.8780   29.8930   49.4010 C   0  0  0  0  0  0  0  0  0  0  0  0
   60.9210   30.6670   48.2810 C   0  0  0  0  0  0  0  0  0  0  0  0
   61.8410   31.6920   48.2240 C   0  0  0  0  0  0  0  0  0  0  0  0
   61.9910   32.5820   47.0470 C   0  0  0  0  0  0  0  0  0  0  0  0
   61.3270   33.9010   47.3770 C   0  0  0  0  0  0  0  0  0  0  0  0
   59.9410   33.8690   46.8500 C   0  0  0  0  0  0  0  0  0  0  0  0
   59.7350   34.4440   45.6080 C   0  0  0  0  0  0  0  0  0  0  0  0
   58.5110   34.4950   44.9880 C   0  0  0  0  0  0  0  0  0  0  0  0
   57.4400   33.9390   45.6520 C   0  0  0  0  0  0  0  0  0  0  0  0
   57.6240   33.3610   46.8910 C   0  0  0  0  0  0  0  0  0  0  0  0
   58.8750   33.3180   47.5060 C   0  0  0  0  0  0  0  0  0  0  0  0
   62.6910   31.9310   49.2680 N   0  0  0  0  0  0  0  0  0  0  0  0
   62.6200   31.1450   50.3650 C   0  0  0  0  0  0  0  0  0  0  0  0
   61.7350   30.1480   50.4330 N   0  0  0  0  0  0  0  0  0  0  0  0
   58.3110   26.8190   47.5640 C   0  0  0  0  0  0  0  0  0  0  0  0
   57.6610   26.7530   46.3730 C   0  0  0  0  0  0  0  0  0  0  0  0
   56.3870   25.9930   46.1710 C   0  0  0  0  0  0  0  0  0  0  0  0
   55.1520   26.6450   45.9710 N   0  0  0  0  0  0  0  0  0  0  0  0
   56.4640   24.7390   46.1860 O   0  0  0  0  0  0  0  0  0  0  0  0
   58.4428   31.9395   42.9715 H   0  0  0  0  0  0  0  0  0  0  0  0
   57.5076   30.6470   42.1461 H   0  0  0  0  0  0  0  0  0  0  0  0
   56.8976   32.3366   42.1461 H   0  0  0  0  0  0  0  0  0  0  0  0
   57.1331   31.8511   44.8557 H   0  0  0  0  0  0  0  0  0  0  0  0
   55.6269   31.6285   43.9412 H   0  0  0  0  0  0  0  0  0  0  0  0
   58.4450   29.5160   43.0480 H   0  0  0  0  0  0  0  0  0  0  0  0
   56.8675   27.1346   43.7138 H   0  0  0  0  0  0  0  0  0  0  0  0
   58.5852   27.1217   43.2471 H   0  0  0  0  0  0  0  0  0  0  0  0
   60.2368   30.4783   47.4406 H   0  0  0  0  0  0  0  0  0  0  0  0
   63.0579   32.7433   46.8334 H   0  0  0  0  0  0  0  0  0  0  0  0
   61.5245   32.1282   46.1602 H   0  0  0  0  0  0  0  0  0  0  0  0
   61.3072   34.0450   48.4674 H   0  0  0  0  0  0  0  0  0  0  0  0
   61.8866   34.7315   46.9219 H   0  0  0  0  0  0  0  0  0  0  0  0
   60.5993   34.8843   45.0892 H   0  0  0  0  0  0  0  0  0  0  0  0
   58.3904   34.9618   43.9993 H   0  0  0  0  0  0  0  0  0  0  0  0
   56.4395   33.9558   45.1951 H   0  0  0  0  0  0  0  0  0  0  0  0
   56.7589   32.9213   47.4089 H   0  0  0  0  0  0  0  0  0  0  0  0
   59.0012   32.8523   48.4945 H   0  0  0  0  0  0  0  0  0  0  0  0
   63.3780   32.7110   49.2030 H   0  0  0  0  0  0  0  0  0  0  0  0
   63.2987   31.3288   51.2109 H   0  0  0  0  0  0  0  0  0  0  0  0
   57.9086   26.3013   48.4472 H   0  0  0  0  0  0  0  0  0  0  0  0
   55.1420   27.5210   45.3960 H   0  0  0  0  0  0  0  0  0  0  0  0
   54.2470   26.3310   46.3480 H   0  0  0  0  0  0  0  0  0  0  0  0
  1  2  1  0
  2  3  1  0
  3  4  2  0
  3  5  1  0
  5  6  1  0
  6  7  1  0
  7  8  1  0
  8  9  1  0
  9 10  1  0
 10 11  2  0
 10 12  1  0
 12 13  2  0
 13 14  1  0
 14 15  2  0
 15 16  1  0
 16 17  1  0
 17 18  1  0
 18 19  2  0
 19 20  1  0
 20 21  2  0
 21 22  1  0
 22 23  2  0
 15 24  1  0
 24 25  1  0
 25 26  2  0
  9 27  2  0
 27 28  1  0
 28 29  1  0
 29 30  1  0
 29 31  2  0
 28  7  2  0
 26 13  1  0
 23 18  1  0
  1 32  1  0
  1 33  1  0
  1 34  1  0
  2 35  1  0
  2 36  1  0
  5 37  1  0
  6 38  1  0
  6 39  1  0
 14 40  1  0
 16 41  1  0
 16 42  1  0
 17 43  1  0
 17 44  1  0
 19 45  1  0
 20 46  1  0
 21 47  1  0
 22 48  1  0
 23 49  1  0
 24 50  1  0
 25 51  1  0
 27 52  1  0
 30 53  1  0
 30 54  1  0
M  END
>  <smiles>  (63) 
CCC(=O)NCc1sc(C(=O)N=c2cc(CCc3ccccc3)[nH]cn2)cc1C(N)=O

>  <score_type>  (63) 
oracle

>  <origin>  (63) 
adg

>  <m_score__min__energy>  (63) 
-10.08

>  <m_primary>  (63) 
energy

$$$$
63:0
     RDKit          3D

 44 47  0  0  0  0  0  0  0  0999 V2000
   55.1550   28.0630   44.9440 H   0  0  0  0  0  0  0  0  0  0  0  0
   55.1400   29.0730   44.8730 O   0  0  0  0  0  0  0  0  0  0  0  0
   56.2680   29.7730   44.4600 C   0  0  0  0  0  0  0  0  0  0  0  0
   56.2790   31.0900   44.1970 N   0  0  0  0  0  0  0  0  0  0  0  0
   57.5680   31.3240   43.8580 C   0  0  0  0  0  0  0  0  0  0  0  0
   58.1120   32.6980   43.6400 C   0  0  0  0  0  0  0  0  0  0  0  0
   59.0518   32.6349   43.0719 H   0  0  0  0  0  0  0  0  0  0  0  0
   57.3828   33.2969   43.0746 H   0  0  0  0  0  0  0  0  0  0  0  0
   58.3730   33.3490   44.9730 C   0  0  0  0  0  0  0  0  0  0  0  0
   57.7290   32.8780   46.1310 C   0  0  0  0  0  0  0  0  0  0  0  0
   56.9980   32.0595   46.0564 H   0  0  0  0  0  0  0  0  0  0  0  0
   58.0140   33.4460   47.3780 C   0  0  0  0  0  0  0  0  0  0  0  0
   57.5048   33.0752   48.2798 H   0  0  0  0  0  0  0  0  0  0  0  0
   58.9450   34.4840   47.4790 C   0  0  0  0  0  0  0  0  0  0  0  0
   59.1621   34.9348   48.4586 H   0  0  0  0  0  0  0  0  0  0  0  0
   59.6000   34.9490   46.3350 C   0  0  0  0  0  0  0  0  0  0  0  0
   60.3341   35.7642   46.4162 H   0  0  0  0  0  0  0  0  0  0  0  0
   59.3240   34.3800   45.0870 C   0  0  0  0  0  0  0  0  0  0  0  0
   59.8522   34.7398   44.1917 H   0  0  0  0  0  0  0  0  0  0  0  0
   58.3600   30.2310   43.9110 N   0  0  0  0  0  0  0  0  0  0  0  0
   57.5250   29.2470   44.2880 C   0  0  0  0  0  0  0  0  0  0  0  0
   57.9740   27.8570   44.6210 C   0  0  0  0  0  0  0  0  0  0  0  0
   59.0732   27.8147   44.6137 H   0  0  0  0  0  0  0  0  0  0  0  0
   57.5760   27.1536   43.8748 H   0  0  0  0  0  0  0  0  0  0  0  0
   57.4680   27.4830   45.9820 C   0  0  0  0  0  0  0  0  0  0  0  0
   56.2730   27.1070   46.1260 O   0  0  0  0  0  0  0  0  0  0  0  0
   58.3570   27.5590   47.1060 N   0  0  0  0  0  0  0  0  0  0  0  0
   59.0280   28.6090   47.4720 C   0  0  0  0  0  0  0  0  0  0  0  0
   58.6910   29.3290   48.5620 N   0  0  0  0  0  0  0  0  0  0  0  0
   59.4770   30.4320   48.7150 C   0  0  0  0  0  0  0  0  0  0  0  0
   59.2440   31.3940   49.8230 C   0  0  0  0  0  0  0  0  0  0  0  0
   59.9980   32.5830   49.8660 C   0  0  0  0  0  0  0  0  0  0  0  0
   60.7411   32.7855   49.0806 H   0  0  0  0  0  0  0  0  0  0  0  0
   59.8110   33.5080   50.8970 C   0  0  0  0  0  0  0  0  0  0  0  0
   60.4099   34.4304   50.9220 H   0  0  0  0  0  0  0  0  0  0  0  0
   58.8660   33.2640   51.8950 C   0  0  0  0  0  0  0  0  0  0  0  0
   58.7234   33.9915   52.7077 H   0  0  0  0  0  0  0  0  0  0  0  0
   58.1020   32.0960   51.8610 C   0  0  0  0  0  0  0  0  0  0  0  0
   57.3566   31.9064   52.6474 H   0  0  0  0  0  0  0  0  0  0  0  0
   58.2800   31.1650   50.8310 C   0  0  0  0  0  0  0  0  0  0  0  0
   57.4750   30.0720   50.8040 F   0  0  0  0  0  0  0  0  0  0  0  0
   60.4420   30.5970   47.7160 C   0  0  0  0  0  0  0  0  0  0  0  0
   61.1687   31.4203   47.6521 H   0  0  0  0  0  0  0  0  0  0  0  0
   60.3010   29.3210   46.6290 S   0  0  0  0  0  0  0  0  0  0  0  0
  1  2  1  0
  2  3  1  0
  3  4  1  0
  4  5  1  0
  5  6  1  0
  6  7  1  0
  6  8  1  0
  6  9  1  0
  9 10  2  0
 10 11  1  0
 10 12  1  0
 12 13  1  0
 12 14  2  0
 14 15  1  0
 14 16  1  0
 16 17  1  0
 16 18  2  0
 18 19  1  0
  5 20  2  0
 20 21  1  0
 21 22  1  0
 22 23  1  0
 22 24  1  0
 22 25  1  0
 25 26  2  0
 25 27  1  0
 27 28  2  0
 28 29  1  0
 29 30  1  0
 30 31  1  0
 31 32  2  0
 32 33  1  0
 32 34  1  0
 34 35  1  0
 34 36  2  0
 36 37  1  0
 36 38  1  0
 38 39  1  0
 38 40  2  0
 40 41  1  0
 30 42  2  0
 42 43  1  0
 42 44  1  0
 21  3  2  0
 44 28  1  0
 18  9  1  0
 40 31  1  0
M  CHG  2   4  -1  29  -1
M  END
>  <UniqueID>  (64) 
57

>  <SMILES>  (64) 
O=C(Cc1nc(Cc2ccccc2)[n-]c1O)/N=c1/[n-]c(-c2ccccc2F)cs1

>  <Energy>  (64) 
107.44981163740557

>  <Genealogy>  (64) 
O=C(Cc1nc(Cc2ccccc2)[n-]c1O)N=c1[n-]c(-c2ccccc2F)cs1 (protonated)
O=C(Cc1nc(Cc2ccccc2)[n-]c1O)/N=c1/[n-]c(-c2ccccc2F)cs1 (cis-trans isomerization)
O=C(Cc1nc(Cc2ccccc2)[n-]c1O)/N=c1/[n-]c(-c2ccccc2F)cs1 (3D coordinates assigned)
O=C(Cc1nc(Cc2ccccc2)[n-]c1O)/N=c1/[n-]c(-c2ccccc2F)cs1 (optimized conformer: 107.44981163740557 kcal/mol)

>  <smiles>  (64) 
O=C(Cc1nc(Cc2ccccc2)[nH]c1O)N=c1[nH]c(-c2ccccc2F)cs1

>  <score_type>  (64) 
oracle

>  <origin>  (64) 
adg

>  <m_score__min__energy>  (64) 
-13.58

>  <m_primary>  (64) 
energy

$$$$
64:0
     RDKit          3D

 51 53  0  0  0  0  0  0  0  0999 V2000
   56.9510   20.7160   42.9760 C   0  0  0  0  0  0  0  0  0  0  0  0
   57.0740   22.0750   43.6000 C   0  0  0  0  0  0  0  0  0  0  0  0
   56.4020   23.1730   43.0450 C   0  0  0  0  0  0  0  0  0  0  0  0
   56.5450   24.4450   43.6070 C   0  0  0  0  0  0  0  0  0  0  0  0
   57.3810   24.6460   44.7210 C   0  0  0  0  0  0  0  0  0  0  0  0
   57.5190   25.9990   45.3100 C   0  0  0  0  0  0  0  0  0  0  0  0
   57.5450   26.1240   46.5660 O   0  0  0  0  0  0  0  0  0  0  0  0
   57.5950   27.1680   44.4730 N   0  0  0  0  0  0  0  0  0  0  0  0
   57.9820   28.4660   44.9510 C   0  0  0  0  0  0  0  0  0  0  0  0
   58.4000   28.6120   46.1320 O   0  0  0  0  0  0  0  0  0  0  0  0
   57.9340   29.5900   44.0610 N   0  0  0  0  0  0  0  0  0  0  0  0
   58.1620   30.9420   44.4880 C   0  0  0  0  0  0  0  0  0  0  0  0
   58.7690   31.1740   45.7310 C   0  0  0  0  0  0  0  0  0  0  0  0
   59.0110   32.4800   46.1730 C   0  0  0  0  0  0  0  0  0  0  0  0
   59.7350   32.7410   47.7570 S   0  0  0  0  0  0  0  0  0  0  0  0
   60.3620   31.4670   48.2520 O   0  0  0  0  0  0  0  0  0  0  0  0
   58.6530   33.1520   48.7160 O   0  0  0  0  0  0  0  0  0  0  0  0
   60.9430   34.0010   47.6290 N   0  0  0  0  0  0  0  0  0  0  0  0
   61.6920   34.1760   48.8890 C   0  0  0  0  0  0  0  0  0  0  0  0
   62.7150   33.0510   49.1400 C   0  0  0  0  0  0  0  0  0  0  0  0
   63.4450   32.6000   47.8620 C   0  0  0  0  0  0  0  0  0  0  0  0
   63.2820   33.6070   46.7260 C   0  0  0  0  0  0  0  0  0  0  0  0
   61.7920   33.8390   46.4200 C   0  0  0  0  0  0  0  0  0  0  0  0
   58.6530   33.5660   45.3610 C   0  0  0  0  0  0  0  0  0  0  0  0
   58.0740   33.3420   44.1090 C   0  0  0  0  0  0  0  0  0  0  0  0
   57.8380   32.0380   43.6630 C   0  0  0  0  0  0  0  0  0  0  0  0
   57.3090   31.8420   42.3930 O   0  0  0  0  0  0  0  0  0  0  0  0
   58.0590   23.5410   45.2680 C   0  0  0  0  0  0  0  0  0  0  0  0
   57.9130   22.2690   44.7060 C   0  0  0  0  0  0  0  0  0  0  0  0
   56.8821   19.9544   43.7667 H   0  0  0  0  0  0  0  0  0  0  0  0
   56.0459   20.6796   42.3519 H   0  0  0  0  0  0  0  0  0  0  0  0
   57.8349   20.5177   42.3519 H   0  0  0  0  0  0  0  0  0  0  0  0
   55.7593   23.0330   42.1633 H   0  0  0  0  0  0  0  0  0  0  0  0
   55.9991   25.2965   43.1745 H   0  0  0  0  0  0  0  0  0  0  0  0
   57.3050   27.0900   43.4730 H   0  0  0  0  0  0  0  0  0  0  0  0
   57.8730   29.4020   43.0350 H   0  0  0  0  0  0  0  0  0  0  0  0
   59.0575   30.3220   46.3642 H   0  0  0  0  0  0  0  0  0  0  0  0
   62.2285   35.1354   48.8480 H   0  0  0  0  0  0  0  0  0  0  0  0
   60.9633   34.1492   49.7126 H   0  0  0  0  0  0  0  0  0  0  0  0
   63.4630   33.4129   49.8608 H   0  0  0  0  0  0  0  0  0  0  0  0
   62.1590   32.1826   49.5230 H   0  0  0  0  0  0  0  0  0  0  0  0
   64.5161   32.4869   48.0857 H   0  0  0  0  0  0  0  0  0  0  0  0
   63.0041   31.6461   47.5370 H   0  0  0  0  0  0  0  0  0  0  0  0
   63.7440   34.5612   47.0193 H   0  0  0  0  0  0  0  0  0  0  0  0
   63.7720   33.2090   45.8252 H   0  0  0  0  0  0  0  0  0  0  0  0
   61.7022   34.7500   45.8101 H   0  0  0  0  0  0  0  0  0  0  0  0
   61.4317   32.9409   45.8970 H   0  0  0  0  0  0  0  0  0  0  0  0
   58.8280   34.5945   45.7097 H   0  0  0  0  0  0  0  0  0  0  0  0
   57.8025   34.1960   43.4711 H   0  0  0  0  0  0  0  0  0  0  0  0
   58.7090   23.6789   46.1446 H   0  0  0  0  0  0  0  0  0  0  0  0
   58.4596   21.4158   45.1342 H   0  0  0  0  0  0  0  0  0  0  0  0
  1  2  1  0
  2  3  2  0
  3  4  1  0
  4  5  2  0
  5  6  1  0
  6  7  2  0
  6  8  1  0
  8  9  1  0
  9 10  2  0
  9 11  1  0
 11 12  1  0
 12 13  2  0
 13 14  1  0
 14 15  1  0
 15 16  2  0
 15 17  2  0
 15 18  1  0
 18 19  1  0
 19 20  1  0
 20 21  1  0
 21 22  1  0
 22 23  1  0
 14 24  2  0
 24 25  1  0
 25 26  2  0
 26 27  1  0
  5 28  1  0
 28 29  2  0
 29  2  1  0
 26 12  1  0
 23 18  1  0
  1 30  1  0
  1 31  1  0
  1 32  1  0
  3 33  1  0
  4 34  1  0
  8 35  1  0
 11 36  1  0
 13 37  1  0
 19 38  1  0
 19 39  1  0
 20 40  1  0
 20 41  1  0
 21 42  1  0
 21 43  1  0
 22 44  1  0
 22 45  1  0
 23 46  1  0
 23 47  1  0
 24 48  1  0
 25 49  1  0
 28 50  1  0
 29 51  1  0
M  CHG  1  27  -1
M  END
>  <UniqueID>  (65) 
58

>  <SMILES>  (65) 
Cc1ccc(C(=O)NC(=O)Nc2cc(S(=O)(=O)N3CCCCC3)ccc2[O-])cc1

>  <Energy>  (65) 
65.9867845126884

>  <Genealogy>  (65) 
Cc1ccc(C(=O)NC(=O)Nc2cc(S(=O)(=O)N3CCCCC3)ccc2[O-])cc1 (protonated)
Cc1ccc(C(=O)NC(=O)Nc2cc(S(=O)(=O)N3CCCCC3)ccc2[O-])cc1 (3D coordinates assigned)
Cc1ccc(C(=O)NC(=O)Nc2cc(S(=O)(=O)N3CCCCC3)ccc2[O-])cc1 (nonaromatic ring conformer: 65.9867845126884 kcal/mol)

>  <smiles>  (65) 
Cc1ccc(C(=O)NC(=O)Nc2cc(S(=O)(=O)N3CCCCC3)ccc2O)cc1

>  <score_type>  (65) 
oracle

>  <origin>  (65) 
adg

>  <m_score__min__energy>  (65) 
-11.9

>  <m_primary>  (65) 
energy

$$$$
65:0
     RDKit          3D

 78 82  0  0  0  0  0  0  0  0999 V2000
   67.5110   28.5010   50.7950 C   0  0  0  0  0  0  0  0  0  0  0  0
   66.5250   28.2680   51.9260 C   0  0  0  0  0  0  0  0  0  0  0  0
   65.9530   29.5140   52.3140 O   0  0  0  0  0  0  0  0  0  0  0  0
   64.5940   29.7140   52.6060 C   0  0  0  0  0  0  0  0  0  0  0  0
   63.5950   28.8340   52.1450 C   0  0  0  0  0  0  0  0  0  0  0  0
   62.2530   29.0580   52.4630 C   0  0  0  0  0  0  0  0  0  0  0  0
   61.8910   30.1610   53.2380 C   0  0  0  0  0  0  0  0  0  0  0  0
   62.8720   31.0430   53.7010 C   0  0  0  0  0  0  0  0  0  0  0  0
   64.2250   30.8290   53.3870 C   0  0  0  0  0  0  0  0  0  0  0  0
   65.2800   31.7730   53.9170 C   0  0  0  0  0  0  0  0  0  0  0  0
   65.5860   32.8260   52.9250 N   0  0  0  0  0  0  0  0  0  0  0  0
   64.3590   33.2680   52.2110 C   0  0  0  0  0  0  0  0  0  0  0  0
   64.6900   33.9590   50.8830 C   0  0  0  0  0  0  0  0  0  0  0  0
   65.3900   32.9790   49.9130 C   0  0  0  0  0  0  0  0  0  0  0  0
   64.4120   32.3250   49.0380 N   0  0  0  0  0  0  0  0  0  0  0  0
   63.2070   31.7340   49.5470 C   0  0  0  0  0  0  0  0  0  0  0  0
   63.0690   31.5630   50.7910 O   0  0  0  0  0  0  0  0  0  0  0  0
   62.1250   31.3090   48.6300 C   0  0  0  0  0  0  0  0  0  0  0  0
   61.7190   32.1460   47.5780 C   0  0  0  0  0  0  0  0  0  0  0  0
   60.6900   31.7550   46.7170 C   0  0  0  0  0  0  0  0  0  0  0  0
   60.0540   30.5100   46.8800 C   0  0  0  0  0  0  0  0  0  0  0  0
   58.9800   30.1040   45.9980 N   0  0  0  0  0  0  0  0  0  0  0  0
   59.1250   28.9000   45.1630 C   0  0  0  0  0  0  0  0  0  0  0  0
   58.3150   27.7480   45.7110 C   0  0  0  0  0  0  0  0  0  0  0  0
   58.9500   26.6640   46.3400 C   0  0  0  0  0  0  0  0  0  0  0  0
   58.1960   25.6090   46.8610 C   0  0  0  0  0  0  0  0  0  0  0  0
   56.8030   25.6250   46.7580 C   0  0  0  0  0  0  0  0  0  0  0  0
   56.1610   26.6970   46.1300 C   0  0  0  0  0  0  0  0  0  0  0  0
   54.7770   26.7130   46.0240 O   0  0  0  0  0  0  0  0  0  0  0  0
   56.9130   27.7560   45.6090 C   0  0  0  0  0  0  0  0  0  0  0  0
   57.8110   30.9780   45.7990 C   0  0  0  0  0  0  0  0  0  0  0  0
   57.6380   31.2980   44.3410 C   0  0  0  0  0  0  0  0  0  0  0  0
   56.8030   30.5190   43.5250 C   0  0  0  0  0  0  0  0  0  0  0  0
   56.6610   30.8530   42.1770 C   0  0  0  0  0  0  0  0  0  0  0  0
   57.3410   31.9580   41.6590 C   0  0  0  0  0  0  0  0  0  0  0  0
   58.1610   32.7150   42.5020 C   0  0  0  0  0  0  0  0  0  0  0  0
   58.2900   32.3710   43.8100 N   0  0  0  0  0  0  0  0  0  0  0  0
   60.4790   29.6660   47.9210 C   0  0  0  0  0  0  0  0  0  0  0  0
   61.5020   30.0600   48.7860 C   0  0  0  0  0  0  0  0  0  0  0  0
   66.2110   31.9060   50.6690 C   0  0  0  0  0  0  0  0  0  0  0  0
   66.7020   32.4280   52.0260 C   0  0  0  0  0  0  0  0  0  0  0  0
   68.5009   28.7349   51.2139 H   0  0  0  0  0  0  0  0  0  0  0  0
   67.5798   27.5944   50.1759 H   0  0  0  0  0  0  0  0  0  0  0  0
   67.1667   29.3425   50.1759 H   0  0  0  0  0  0  0  0  0  0  0  0
   65.7298   27.5881   51.5864 H   0  0  0  0  0  0  0  0  0  0  0  0
   67.0465   27.8181   52.7837 H   0  0  0  0  0  0  0  0  0  0  0  0
   63.8733   27.9650   51.5307 H   0  0  0  0  0  0  0  0  0  0  0  0
   61.4801   28.3636   52.1018 H   0  0  0  0  0  0  0  0  0  0  0  0
   60.8334   30.3364   53.4846 H   0  0  0  0  0  0  0  0  0  0  0  0
   62.5832   31.9092   54.3144 H   0  0  0  0  0  0  0  0  0  0  0  0
   64.9122   32.2433   54.8409 H   0  0  0  0  0  0  0  0  0  0  0  0
   66.1973   31.2004   54.1188 H   0  0  0  0  0  0  0  0  0  0  0  0
   63.7294   32.3892   52.0077 H   0  0  0  0  0  0  0  0  0  0  0  0
   63.8333   33.9919   52.8511 H   0  0  0  0  0  0  0  0  0  0  0  0
   63.7585   34.3190   50.4219 H   0  0  0  0  0  0  0  0  0  0  0  0
   65.3686   34.8012   51.0836 H   0  0  0  0  0  0  0  0  0  0  0  0
   66.0843   33.5743   49.3018 H   0  0  0  0  0  0  0  0  0  0  0  0
   64.5970   32.2830   48.0090 H   0  0  0  0  0  0  0  0  0  0  0  0
   62.2147   33.1168   47.4305 H   0  0  0  0  0  0  0  0  0  0  0  0
   60.3743   32.4262   45.9047 H   0  0  0  0  0  0  0  0  0  0  0  0
   58.7794   29.1276   44.1438 H   0  0  0  0  0  0  0  0  0  0  0  0
   60.1852   28.6069   45.1594 H   0  0  0  0  0  0  0  0  0  0  0  0
   60.0467   26.6456   46.4228 H   0  0  0  0  0  0  0  0  0  0  0  0
   58.7004   24.7644   47.3531 H   0  0  0  0  0  0  0  0  0  0  0  0
   56.2112   24.7947   47.1707 H   0  0  0  0  0  0  0  0  0  0  0  0
   56.4047   28.5986   45.1174 H   0  0  0  0  0  0  0  0  0  0  0  0
   56.9094   30.4667   46.1673 H   0  0  0  0  0  0  0  0  0  0  0  0
   57.9676   31.9149   46.3537 H   0  0  0  0  0  0  0  0  0  0  0  0
   56.2663   29.6546   43.9431 H   0  0  0  0  0  0  0  0  0  0  0  0
   56.0151   30.2475   41.5241 H   0  0  0  0  0  0  0  0  0  0  0  0
   57.2326   32.2300   40.5987 H   0  0  0  0  0  0  0  0  0  0  0  0
   58.7009   33.5879   42.1064 H   0  0  0  0  0  0  0  0  0  0  0  0
   60.0005   28.6847   48.0555 H   0  0  0  0  0  0  0  0  0  0  0  0
   61.8222   29.3873   49.5953 H   0  0  0  0  0  0  0  0  0  0  0  0
   65.5779   31.0217   50.8338 H   0  0  0  0  0  0  0  0  0  0  0  0
   67.0896   31.6497   50.0588 H   0  0  0  0  0  0  0  0  0  0  0  0
   67.2849   31.6355   52.5181 H   0  0  0  0  0  0  0  0  0  0  0  0
   67.3122   33.3235   51.8368 H   0  0  0  0  0  0  0  0  0  0  0  0
  1  2  1  0
  2  3  1  0
  3  4  1  0
  4  5  2  0
  5  6  1  0
  6  7  2  0
  7  8  1  0
  8  9  2  0
  9 10  1  0
 10 11  1  0
 11 12  1  0
 12 13  1  0
 13 14  1  0
 14 15  1  0
 15 16  1  0
 16 17  2  0
 16 18  1  0
 18 19  2  0
 19 20  1  0
 20 21  2  0
 21 22  1  0
 22 23  1  0
 23 24  1  0
 24 25  2  0
 25 26  1  0
 26 27  2  0
 27 28  1  0
 28 29  1  0
 28 30  2  0
 22 31  1  0
 31 32  1  0
 32 33  2  0
 33 34  1  0
 34 35  2  0
 35 36  1  0
 36 37  2  0
 21 38  1  0
 38 39  2  0
 14 40  1  0
 40 41  1  0
  9  4  1  0
 41 11  1  0
 39 18  1  0
 30 24  1  0
 37 32  1  0
  1 42  1  0
  1 43  1  0
  1 44  1  0
  2 45  1  0
  2 46  1  0
  5 47  1  0
  6 48  1  0
  7 49  1  0
  8 50  1  0
 10 51  1  0
 10 52  1  0
 12 53  1  0
 12 54  1  0
 13 55  1  0
 13 56  1  0
 14 57  1  0
 15 58  1  0
 19 59  1  0
 20 60  1  0
 23 61  1  0
 23 62  1  0
 25 63  1  0
 26 64  1  0
 27 65  1  0
 30 66  1  0
 31 67  1  0
 31 68  1  0
 33 69  1  0
 34 70  1  0
 35 71  1  0
 36 72  1  0
 38 73  1  0
 39 74  1  0
 40 75  1  0
 40 76  1  0
 41 77  1  0
 41 78  1  0
M  CHG  1  29  -1
M  END
>  <UniqueID>  (66) 
59

>  <SMILES>  (66) 
CCOc1ccccc1CN1CCC(NC(=O)c2ccc(N(Cc3cccc([O-])c3)Cc3ccccn3)cc2)CC1

>  <Energy>  (66) 
91.54835950952074

>  <Genealogy>  (66) 
CCOc1ccccc1CN1CCC(NC(=O)c2ccc(N(Cc3cccc([O-])c3)Cc3ccccn3)cc2)CC1 (protonated)
CCOc1ccccc1CN1CCC(NC(=O)c2ccc(N(Cc3cccc([O-])c3)Cc3ccccn3)cc2)CC1 (3D coordinates assigned)
CCOc1ccccc1CN1CCC(NC(=O)c2ccc(N(Cc3cccc([O-])c3)Cc3ccccn3)cc2)CC1 (nonaromatic ring conformer: 91.54835950952074 kcal/mol)

>  <smiles>  (66) 
CCOc1ccccc1CN1CCC(NC(=O)c2ccc(N(Cc3cccc(O)c3)Cc3ccccn3)cc2)CC1

>  <score_type>  (66) 
oracle

>  <origin>  (66) 
adg

>  <m_score__min__energy>  (66) 
-12.1

>  <m_primary>  (66) 
energy

$$$$
66:0
     RDKit          3D

 46 48  0  0  0  0  0  0  0  0999 V2000
   54.9480   31.5890   52.2120 O   0  0  0  0  0  0  0  0  0  0  0  0
   55.5520   30.4880   52.1190 C   0  0  0  0  0  0  0  0  0  0  0  0
   54.8650   29.2390   52.5880 C   0  0  0  0  0  0  0  0  0  0  0  0
   53.9780   29.5580   53.6550 O   0  0  0  0  0  0  0  0  0  0  0  0
   52.5900   29.6050   53.4940 C   0  0  0  0  0  0  0  0  0  0  0  0
   51.9090   28.5430   53.4470 O   0  0  0  0  0  0  0  0  0  0  0  0
   51.9170   30.9280   53.3250 C   0  0  0  0  0  0  0  0  0  0  0  0
   51.5710   31.1420   51.8840 C   0  0  0  0  0  0  0  0  0  0  0  0
   51.7860   30.2360   50.9130 N   0  0  0  0  0  0  0  0  0  0  0  0
   51.3930   30.8840   49.7920 C   0  0  0  0  0  0  0  0  0  0  0  0
   51.4380   30.3530   48.6520 O   0  0  0  0  0  0  0  0  0  0  0  0
   50.9550   32.1470   49.9900 N   0  0  0  0  0  0  0  0  0  0  0  0
   51.0800   32.2950   51.3200 C   0  0  0  0  0  0  0  0  0  0  0  0
   50.7620   33.4650   52.0000 O   0  0  0  0  0  0  0  0  0  0  0  0
   56.8530   30.4590   51.5160 N   0  0  0  0  0  0  0  0  0  0  0  0
   57.7490   31.5700   51.3750 C   0  0  0  0  0  0  0  0  0  0  0  0
   58.1550   32.3330   52.4840 C   0  0  0  0  0  0  0  0  0  0  0  0
   59.0120   33.4220   52.3110 C   0  0  0  0  0  0  0  0  0  0  0  0
   59.4600   33.7670   51.0330 C   0  0  0  0  0  0  0  0  0  0  0  0
   59.0430   33.0280   49.9170 C   0  0  0  0  0  0  0  0  0  0  0  0
   59.6080   33.4570   48.2990 S   0  0  0  0  0  0  0  0  0  0  0  0
   58.8210   32.6800   47.2800 O   0  0  0  0  0  0  0  0  0  0  0  0
   59.3590   34.9200   48.0610 O   0  0  0  0  0  0  0  0  0  0  0  0
   61.3100   33.1170   48.0950 N   0  0  0  0  0  0  0  0  0  0  0  0
   61.7730   33.5720   46.7720 C   0  0  0  0  0  0  0  0  0  0  0  0
   63.3120   33.5080   46.6830 C   0  0  0  0  0  0  0  0  0  0  0  0
   63.8540   32.7630   47.7560 O   0  0  0  0  0  0  0  0  0  0  0  0
   63.5920   33.4260   48.9810 C   0  0  0  0  0  0  0  0  0  0  0  0
   62.0960   33.7600   49.1580 C   0  0  0  0  0  0  0  0  0  0  0  0
   58.1750   31.9400   50.0930 C   0  0  0  0  0  0  0  0  0  0  0  0
   54.2950   28.7995   51.7562 H   0  0  0  0  0  0  0  0  0  0  0  0
   55.6166   28.5166   52.9392 H   0  0  0  0  0  0  0  0  0  0  0  0
   50.9974   30.9494   53.9282 H   0  0  0  0  0  0  0  0  0  0  0  0
   52.5974   31.7260   53.6570 H   0  0  0  0  0  0  0  0  0  0  0  0
   57.7966   32.0715   53.4906 H   0  0  0  0  0  0  0  0  0  0  0  0
   59.3352   34.0097   53.1829 H   0  0  0  0  0  0  0  0  0  0  0  0
   60.1415   34.6205   50.9024 H   0  0  0  0  0  0  0  0  0  0  0  0
   61.3389   32.9254   45.9952 H   0  0  0  0  0  0  0  0  0  0  0  0
   61.4525   34.6137   46.6234 H   0  0  0  0  0  0  0  0  0  0  0  0
   63.5973   33.0305   45.7340 H   0  0  0  0  0  0  0  0  0  0  0  0
   63.7077   34.5331   46.7347 H   0  0  0  0  0  0  0  0  0  0  0  0
   63.9099   32.7764   49.8098 H   0  0  0  0  0  0  0  0  0  0  0  0
   64.1501   34.3739   48.9766 H   0  0  0  0  0  0  0  0  0  0  0  0
   61.7539   33.3933   50.1370 H   0  0  0  0  0  0  0  0  0  0  0  0
   61.9592   34.8499   49.1003 H   0  0  0  0  0  0  0  0  0  0  0  0
   57.8262   31.3730   49.2173 H   0  0  0  0  0  0  0  0  0  0  0  0
  1  2  2  0
  2  3  1  0
  3  4  1  0
  4  5  1  0
  5  6  2  0
  5  7  1  0
  7  8  1  0
  8  9  1  0
  9 10  1  0
 10 11  2  0
 10 12  1  0
 12 13  1  0
 13 14  1  0
  2 15  1  0
 15 16  1  0
 16 17  2  0
 17 18  1  0
 18 19  2  0
 19 20  1  0
 20 21  1  0
 21 22  2  0
 21 23  2  0
 21 24  1  0
 24 25  1  0
 25 26  1  0
 26 27  1  0
 27 28  1  0
 28 29  1  0
 20 30  2  0
 13  8  2  0
 30 16  1  0
 29 24  1  0
  3 31  1  0
  3 32  1  0
  7 33  1  0
  7 34  1  0
 17 35  1  0
 18 36  1  0
 19 37  1  0
 25 38  1  0
 25 39  1  0
 26 40  1  0
 26 41  1  0
 28 42  1  0
 28 43  1  0
 29 44  1  0
 29 45  1  0
 30 46  1  0
M  CHG  4   9  -1  12  -1  14  -1  15  -1
M  END
>  <UniqueID>  (67) 
60

>  <SMILES>  (67) 
O=C(COC(=O)Cc1[n-]c(=O)[n-]c1[O-])[N-]c1cccc(S(=O)(=O)N2CCOCC2)c1

>  <Energy>  (67) 
83.04764308880625

>  <Genealogy>  (67) 
O=C(COC(=O)Cc1[n-]c(=O)[n-]c1[O-])[N-]c1cccc(S(=O)(=O)N2CCOCC2)c1 (protonated)
O=C(COC(=O)Cc1[n-]c(=O)[n-]c1[O-])[N-]c1cccc(S(=O)(=O)N2CCOCC2)c1 (3D coordinates assigned)
O=C(COC(=O)Cc1[n-]c(=O)[n-]c1[O-])[N-]c1cccc(S(=O)(=O)N2CCOCC2)c1 (nonaromatic ring conformer: 83.04764308880625 kcal/mol)

>  <smiles>  (67) 
O=C(COC(=O)Cc1[nH]c(=O)[nH]c1O)Nc1cccc(S(=O)(=O)N2CCOCC2)c1

>  <score_type>  (67) 
oracle

>  <origin>  (67) 
adg

>  <m_score__min__energy>  (67) 
-19.289999999999999

>  <m_primary>  (67) 
energy

$$$$
67:0
     RDKit          3D

 42 44  0  0  0  0  0  0  0  0999 V2000
   57.1490   28.9380   43.2300 N   0  0  0  0  0  0  0  0  0  0  0  0
   56.8640   29.8300   44.3120 C   0  0  0  0  0  0  0  0  0  0  0  0
   55.6300   30.0860   44.6280 N   0  0  0  0  0  0  0  0  0  0  0  0
   57.9440   30.4100   45.0690 N   0  0  0  0  0  0  0  0  0  0  0  0
   59.0190   29.5400   45.5700 C   0  0  0  0  0  0  0  0  0  0  0  0
   60.0180   30.2970   46.4590 C   0  0  0  0  0  0  0  0  0  0  0  0
   59.3040   31.2190   47.4350 C   0  0  0  0  0  0  0  0  0  0  0  0
   59.7820   31.4320   48.6890 C   0  0  0  0  0  0  0  0  0  0  0  0
   61.1830   31.8420   48.9300 C   0  0  0  0  0  0  0  0  0  0  0  0
   62.0180   31.0040   49.6860 C   0  0  0  0  0  0  0  0  0  0  0  0
   63.3450   31.3660   49.9310 C   0  0  0  0  0  0  0  0  0  0  0  0
   63.8460   32.5720   49.4310 C   0  0  0  0  0  0  0  0  0  0  0  0
   65.5120   33.0250   49.7410 Cl  0  0  0  0  0  0  0  0  0  0  0  0
   63.0170   33.4190   48.6900 C   0  0  0  0  0  0  0  0  0  0  0  0
   61.6860   33.0640   48.4390 C   0  0  0  0  0  0  0  0  0  0  0  0
   60.6680   34.1820   47.5370 Cl  0  0  0  0  0  0  0  0  0  0  0  0
   58.9260   31.2960   49.8850 C   0  0  0  0  0  0  0  0  0  0  0  0
   58.2120   30.1740   50.2470 C   0  0  0  0  0  0  0  0  0  0  0  0
   57.5090   30.5390   51.3770 C   0  0  0  0  0  0  0  0  0  0  0  0
   56.6620   29.6950   52.0840 O   0  0  0  0  0  0  0  0  0  0  0  0
   57.7260   31.8240   51.7230 N   0  0  0  0  0  0  0  0  0  0  0  0
   58.5880   32.2800   50.7930 C   0  0  0  0  0  0  0  0  0  0  0  0
   59.0400   33.5950   50.7500 O   0  0  0  0  0  0  0  0  0  0  0  0
   58.1120   32.0060   46.9170 C   0  0  0  0  0  0  0  0  0  0  0  0
   57.9410   31.8370   45.4080 C   0  0  0  0  0  0  0  0  0  0  0  0
   58.1310   28.7710   42.9180 H   0  0  0  0  0  0  0  0  0  0  0  0
   56.3770   28.4720   42.7040 H   0  0  0  0  0  0  0  0  0  0  0  0
   54.9150   30.2630   43.8870 H   0  0  0  0  0  0  0  0  0  0  0  0
   55.3150   30.0920   45.6220 H   0  0  0  0  0  0  0  0  0  0  0  0
   58.5697   28.7257   46.1574 H   0  0  0  0  0  0  0  0  0  0  0  0
   59.5701   29.1527   44.7004 H   0  0  0  0  0  0  0  0  0  0  0  0
   60.6155   29.5685   47.0267 H   0  0  0  0  0  0  0  0  0  0  0  0
   60.6622   30.9101   45.8116 H   0  0  0  0  0  0  0  0  0  0  0  0
   61.6256   30.0580   50.0873 H   0  0  0  0  0  0  0  0  0  0  0  0
   63.9964   30.7016   50.5178 H   0  0  0  0  0  0  0  0  0  0  0  0
   63.4123   34.3694   48.3020 H   0  0  0  0  0  0  0  0  0  0  0  0
   58.2042   29.1964   49.7428 H   0  0  0  0  0  0  0  0  0  0  0  0
   59.1920   34.1170   51.6050 H   0  0  0  0  0  0  0  0  0  0  0  0
   57.2020   31.6496   47.4218 H   0  0  0  0  0  0  0  0  0  0  0  0
   58.2851   33.0718   47.1270 H   0  0  0  0  0  0  0  0  0  0  0  0
   56.9865   32.2855   45.0953 H   0  0  0  0  0  0  0  0  0  0  0  0
   58.7711   32.3376   44.8881 H   0  0  0  0  0  0  0  0  0  0  0  0
  1  2  1  0
  2  3  2  0
  2  4  1  0
  4  5  1  0
  5  6  1  0
  6  7  1  0
  7  8  2  3
  8  9  1  0
  9 10  2  0
 10 11  1  0
 11 12  2  0
 12 13  1  0
 12 14  1  0
 14 15  2  0
 15 16  1  0
  8 17  1  0
 17 18  1  0
 18 19  2  0
 19 20  1  0
 19 21  1  0
 21 22  1  0
 22 23  1  0
  7 24  1  0
 24 25  1  0
 25  4  1  0
 15  9  1  0
 22 17  2  0
  1 26  1  0
  1 27  1  0
  3 28  1  0
  3 29  1  0
  5 30  1  0
  5 31  1  0
  6 32  1  0
  6 33  1  0
 10 34  1  0
 11 35  1  0
 14 36  1  0
 18 37  1  0
 23 38  1  0
 24 39  1  0
 24 40  1  0
 25 41  1  0
 25 42  1  0
M  CHG  3   3   1  20  -1  21  -1
M  END
>  <UniqueID>  (68) 
61

>  <SMILES>  (68) 
NC(=[NH2+])N1CCC(=C(c2ccc(Cl)cc2Cl)c2cc([O-])[n-]c2O)CC1

>  <Energy>  (68) 
85.75429721206069

>  <Genealogy>  (68) 
NC(=[NH2+])N1CCC(=C(c2ccc(Cl)cc2Cl)c2cc([O-])[n-]c2O)CC1 (protonated)
NC(=[NH2+])N1CCC(=C(c2ccc(Cl)cc2Cl)c2cc([O-])[n-]c2O)CC1 (3D coordinates assigned)
NC(=[NH2+])N1CCC(=C(c2ccc(Cl)cc2Cl)c2cc([O-])[n-]c2O)CC1 (nonaromatic ring conformer: 85.75429721206069 kcal/mol)

>  <smiles>  (68) 
N=C(N)N1CCC(=C(c2ccc(Cl)cc2Cl)c2cc(O)[nH]c2O)CC1

>  <score_type>  (68) 
oracle

>  <origin>  (68) 
adg

>  <m_score__min__energy>  (68) 
-11.609999999999999

>  <m_primary>  (68) 
energy

$$$$
68:0
     RDKit          3D

 49 52  0  0  0  0  0  0  0  0999 V2000
   59.3110   33.8140   49.9300 O   0  0  0  0  0  0  0  0  0  0  0  0
   59.1470   32.6240   49.6430 C   0  0  0  0  0  0  0  0  0  0  0  0
   59.2810   31.6370   50.7720 C   0  0  0  0  0  0  0  0  0  0  0  0
   58.7040   30.2930   50.3570 C   0  0  0  0  0  0  0  0  0  0  0  0
   59.9210   29.3130   49.4390 S   0  0  0  0  0  0  0  0  0  0  0  0
   59.2840   28.9410   47.8130 C   0  0  0  0  0  0  0  0  0  0  0  0
   58.2390   29.5580   47.2190 N   0  0  0  0  0  0  0  0  0  0  0  0
   58.0560   29.0100   46.0010 C   0  0  0  0  0  0  0  0  0  0  0  0
   57.1850   29.2030   44.9630 C   0  0  0  0  0  0  0  0  0  0  0  0
   56.3050   30.0890   45.0840 O   0  0  0  0  0  0  0  0  0  0  0  0
   57.2680   28.4640   43.8380 N   0  0  0  0  0  0  0  0  0  0  0  0
   58.2200   27.5080   43.7110 C   0  0  0  0  0  0  0  0  0  0  0  0
   58.3010   26.8140   42.6610 O   0  0  0  0  0  0  0  0  0  0  0  0
   59.0980   27.2950   44.7280 N   0  0  0  0  0  0  0  0  0  0  0  0
   59.0170   28.0330   45.8530 C   0  0  0  0  0  0  0  0  0  0  0  0
   59.7660   27.9990   46.9710 N   0  0  0  0  0  0  0  0  0  0  0  0
   58.8470   32.1450   48.3440 N   0  0  0  0  0  0  0  0  0  0  0  0
   58.6890   32.9390   47.1880 C   0  0  0  0  0  0  0  0  0  0  0  0
   57.4810   33.4310   46.7400 C   0  0  0  0  0  0  0  0  0  0  0  0
   57.3570   34.2090   45.5950 C   0  0  0  0  0  0  0  0  0  0  0  0
   58.4670   34.5230   44.8480 C   0  0  0  0  0  0  0  0  0  0  0  0
   59.6760   34.0380   45.2880 C   0  0  0  0  0  0  0  0  0  0  0  0
   59.7990   33.2550   46.4420 C   0  0  0  0  0  0  0  0  0  0  0  0
   61.1280   32.8610   46.7540 N   0  0  0  0  0  0  0  0  0  0  0  0
   61.5090   31.5130   47.1350 C   0  0  0  0  0  0  0  0  0  0  0  0
   62.3080   31.5460   48.4370 C   0  0  0  0  0  0  0  0  0  0  0  0
   63.3030   32.5220   48.3700 O   0  0  0  0  0  0  0  0  0  0  0  0
   62.8370   33.7940   48.1270 C   0  0  0  0  0  0  0  0  0  0  0  0
   62.2470   33.8250   46.7260 C   0  0  0  0  0  0  0  0  0  0  0  0
   60.3445   31.5147   51.0250 H   0  0  0  0  0  0  0  0  0  0  0  0
   58.7307   32.0120   51.6475 H   0  0  0  0  0  0  0  0  0  0  0  0
   58.4025   29.7384   51.2578 H   0  0  0  0  0  0  0  0  0  0  0  0
   57.8372   30.4726   49.7040 H   0  0  0  0  0  0  0  0  0  0  0  0
   56.6030   28.6070   43.0380 H   0  0  0  0  0  0  0  0  0  0  0  0
   59.8250   26.5690   44.6350 H   0  0  0  0  0  0  0  0  0  0  0  0
   60.5710   27.3950   47.2060 H   0  0  0  0  0  0  0  0  0  0  0  0
   58.7300   31.1100   48.2580 H   0  0  0  0  0  0  0  0  0  0  0  0
   56.5734   33.1968   47.3157 H   0  0  0  0  0  0  0  0  0  0  0  0
   56.3668   34.5748   45.2856 H   0  0  0  0  0  0  0  0  0  0  0  0
   58.3915   35.1357   43.9376 H   0  0  0  0  0  0  0  0  0  0  0  0
   60.5820   34.2744   44.7107 H   0  0  0  0  0  0  0  0  0  0  0  0
   60.6036   30.9049   47.2781 H   0  0  0  0  0  0  0  0  0  0  0  0
   62.1302   31.0743   46.3403 H   0  0  0  0  0  0  0  0  0  0  0  0
   61.6305   31.7752   49.2728 H   0  0  0  0  0  0  0  0  0  0  0  0
   62.7795   30.5644   48.5924 H   0  0  0  0  0  0  0  0  0  0  0  0
   62.0619   34.0534   48.8631 H   0  0  0  0  0  0  0  0  0  0  0  0
   63.6581   34.5213   48.2094 H   0  0  0  0  0  0  0  0  0  0  0  0
   61.8809   34.8337   46.4842 H   0  0  0  0  0  0  0  0  0  0  0  0
   62.9932   33.5657   45.9605 H   0  0  0  0  0  0  0  0  0  0  0  0
  1  2  2  0
  2  3  1  0
  3  4  1  0
  4  5  1  0
  5  6  1  0
  6  7  2  0
  7  8  1  0
  8  9  1  0
  9 10  2  0
  9 11  1  0
 11 12  1  0
 12 13  2  0
 12 14  1  0
 14 15  1  0
 15 16  1  0
  2 17  1  0
 17 18  1  0
 18 19  2  0
 19 20  1  0
 20 21  2  0
 21 22  1  0
 22 23  2  0
 23 24  1  0
 24 25  1  0
 25 26  1  0
 26 27  1  0
 27 28  1  0
 28 29  1  0
 16  6  1  0
 23 18  1  0
 29 24  1  0
 15  8  2  0
  3 30  1  0
  3 31  1  0
  4 32  1  0
  4 33  1  0
 11 34  1  0
 14 35  1  0
 16 36  1  0
 17 37  1  0
 19 38  1  0
 20 39  1  0
 21 40  1  0
 22 41  1  0
 25 42  1  0
 25 43  1  0
 26 44  1  0
 26 45  1  0
 28 46  1  0
 28 47  1  0
 29 48  1  0
 29 49  1  0
M  END
>  <smiles>  (69) 
O=C(CCSc1nc2c(=O)[nH]c(=O)[nH]c2[nH]1)Nc1ccccc1N1CCOCC1

>  <score_type>  (69) 
oracle

>  <origin>  (69) 
adg

>  <m_score__min__energy>  (69) 
-8.7599999999999998

>  <m_primary>  (69) 
energy

$$$$
69:0
     RDKit          3D

 40 42  0  0  0  0  0  0  0  0999 V2000
   60.1167   35.8391   47.6141 H   0  0  0  0  0  0  0  0  0  0  0  0
   59.6250   34.9090   47.2930 C   0  0  0  0  0  0  0  0  0  0  0  0
   59.4710   33.8850   48.1720 N   0  0  0  0  0  0  0  0  0  0  0  0
   58.8680   32.7150   47.8300 C   0  0  0  0  0  0  0  0  0  0  0  0
   58.7580   31.7880   48.7360 N   0  0  0  0  0  0  0  0  0  0  0  0
   59.6530   31.6790   50.2230 S   0  0  0  0  0  0  0  0  0  0  0  0
   60.2410   33.0250   50.5460 O   0  0  0  0  0  0  0  0  0  0  0  0
   60.7470   30.6560   50.0930 O   0  0  0  0  0  0  0  0  0  0  0  0
   58.5650   31.1880   51.5170 C   0  0  0  0  0  0  0  0  0  0  0  0
   59.0710   30.5780   52.6720 C   0  0  0  0  0  0  0  0  0  0  0  0
   60.1542   30.4194   52.7795 H   0  0  0  0  0  0  0  0  0  0  0  0
   58.2030   30.1710   53.6870 C   0  0  0  0  0  0  0  0  0  0  0  0
   58.6038   29.6886   54.5907 H   0  0  0  0  0  0  0  0  0  0  0  0
   56.8250   30.3750   53.5580 C   0  0  0  0  0  0  0  0  0  0  0  0
   56.1440   30.0443   54.3560 H   0  0  0  0  0  0  0  0  0  0  0  0
   56.3090   31.0020   52.4100 C   0  0  0  0  0  0  0  0  0  0  0  0
   54.9000   31.2040   52.2220 N   0  0  0  0  0  0  0  0  0  0  0  0
   53.9130   30.1840   52.0290 C   0  0  0  0  0  0  0  0  0  0  0  0
   54.2440   29.0230   51.6680 O   0  0  0  0  0  0  0  0  0  0  0  0
   52.4730   30.5000   52.2720 C   0  0  0  0  0  0  0  0  0  0  0  0
   51.9643   29.6064   52.6628 H   0  0  0  0  0  0  0  0  0  0  0  0
   52.4000   31.3187   53.0031 H   0  0  0  0  0  0  0  0  0  0  0  0
   51.8220   30.9220   50.9930 C   0  0  0  0  0  0  0  0  0  0  0  0
   51.7210   30.1400   49.9030 N   0  0  0  0  0  0  0  0  0  0  0  0
   51.0130   30.9000   49.0400 C   0  0  0  0  0  0  0  0  0  0  0  0
   50.7120   30.5100   47.8830 O   0  0  0  0  0  0  0  0  0  0  0  0
   50.6460   32.1100   49.5180 N   0  0  0  0  0  0  0  0  0  0  0  0
   51.1620   32.1040   50.7570 C   0  0  0  0  0  0  0  0  0  0  0  0
   51.0270   33.1540   51.6560 O   0  0  0  0  0  0  0  0  0  0  0  0
   57.1840   31.3840   51.3850 C   0  0  0  0  0  0  0  0  0  0  0  0
   56.7834   31.8418   50.4685 H   0  0  0  0  0  0  0  0  0  0  0  0
   58.3860   32.5530   46.5140 C   0  0  0  0  0  0  0  0  0  0  0  0
   57.8860   31.6186   46.2191 H   0  0  0  0  0  0  0  0  0  0  0  0
   58.5480   33.5900   45.5840 C   0  0  0  0  0  0  0  0  0  0  0  0
   58.0060   33.4490   44.1920 C   0  0  0  0  0  0  0  0  0  0  0  0
   56.9424   33.1723   44.2389 H   0  0  0  0  0  0  0  0  0  0  0  0
   58.1130   34.4049   43.6583 H   0  0  0  0  0  0  0  0  0  0  0  0
   58.5652   32.6664   43.6583 H   0  0  0  0  0  0  0  0  0  0  0  0
   59.1610   34.7830   45.9850 C   0  0  0  0  0  0  0  0  0  0  0  0
   59.2755   35.6141   45.2735 H   0  0  0  0  0  0  0  0  0  0  0  0
  1  2  1  0
  2  3  1  0
  3  4  1  0
  4  5  2  0
  5  6  1  0
  6  7  2  0
  6  8  2  0
  6  9  1  0
  9 10  2  0
 10 11  1  0
 10 12  1  0
 12 13  1  0
 12 14  2  0
 14 15  1  0
 14 16  1  0
 16 17  1  0
 17 18  1  0
 18 19  2  0
 18 20  1  0
 20 21  1  0
 20 22  1  0
 20 23  1  0
 23 24  1  0
 24 25  1  0
 25 26  2  0
 25 27  1  0
 27 28  1  0
 28 29  1  0
 16 30  2  0
 30 31  1  0
  4 32  1  0
 32 33  1  0
 32 34  2  0
 34 35  1  0
 35 36  1  0
 35 37  1  0
 35 38  1  0
 34 39  1  0
 39 40  1  0
 39  2  2  0
 30  9  1  0
 28 23  2  0
M  CHG  5   3  -1  17  -1  24  -1  27  -1  29  -1
M  END
>  <UniqueID>  (70) 
62

>  <SMILES>  (70) 
Cc1cc[n-]/c(=N/S(=O)(=O)c2cccc([N-]C(=O)Cc3[n-]c(=O)[n-]c3[O-])c2)c1

>  <Energy>  (70) 
79.10346816788406

>  <Genealogy>  (70) 
Cc1cc[n-]c(=NS(=O)(=O)c2cccc([N-]C(=O)Cc3[n-]c(=O)[n-]c3[O-])c2)c1 (protonated)
Cc1cc[n-]/c(=N/S(=O)(=O)c2cccc([N-]C(=O)Cc3[n-]c(=O)[n-]c3[O-])c2)c1 (cis-trans isomerization)
Cc1cc[n-]/c(=N/S(=O)(=O)c2cccc([N-]C(=O)Cc3[n-]c(=O)[n-]c3[O-])c2)c1 (3D coordinates assigned)
Cc1cc[n-]/c(=N/S(=O)(=O)c2cccc([N-]C(=O)Cc3[n-]c(=O)[n-]c3[O-])c2)c1 (optimized conformer: 79.10346816788406 kcal/mol)

>  <smiles>  (70) 
Cc1cc[nH]c(=NS(=O)(=O)c2cccc(NC(=O)Cc3[nH]c(=O)[nH]c3O)c2)c1

>  <score_type>  (70) 
oracle

>  <origin>  (70) 
adg

>  <m_score__min__energy>  (70) 
-19.210000000000001

>  <m_primary>  (70) 
energy

$$$$
70:0
     RDKit          3D

 55 57  0  0  0  0  0  0  0  0999 V2000
   56.0260   22.8600   47.9530 C   0  0  0  0  0  0  0  0  0  0  0  0
   56.3780   22.7890   46.4940 C   0  0  0  0  0  0  0  0  0  0  0  0
   56.3870   21.5470   45.8410 C   0  0  0  0  0  0  0  0  0  0  0  0
   56.7320   21.4630   44.4930 C   0  0  0  0  0  0  0  0  0  0  0  0
   57.0630   22.6170   43.7800 C   0  0  0  0  0  0  0  0  0  0  0  0
   57.0580   23.8710   44.4100 C   0  0  0  0  0  0  0  0  0  0  0  0
   57.3990   25.0920   43.6000 C   0  0  0  0  0  0  0  0  0  0  0  0
   56.7490   23.9530   45.7890 C   0  0  0  0  0  0  0  0  0  0  0  0
   56.7710   25.2070   46.4830 N   0  0  0  0  0  0  0  0  0  0  0  0
   56.0320   26.3620   46.0670 C   0  0  0  0  0  0  0  0  0  0  0  0
   54.7730   26.3220   45.9940 O   0  0  0  0  0  0  0  0  0  0  0  0
   56.7600   27.5920   45.6350 C   0  0  0  0  0  0  0  0  0  0  0  0
   55.8020   28.6100   45.2250 N   0  0  0  0  0  0  0  0  0  0  0  0
   56.1880   29.8970   44.7330 C   0  0  0  0  0  0  0  0  0  0  0  0
   55.3170   30.7740   44.4900 O   0  0  0  0  0  0  0  0  0  0  0  0
   57.6390   30.2260   44.5980 C   0  0  0  0  0  0  0  0  0  0  0  0
   57.8920   31.5970   45.1740 C   0  0  0  0  0  0  0  0  0  0  0  0
   57.5810   32.7290   44.4010 C   0  0  0  0  0  0  0  0  0  0  0  0
   57.8900   34.0100   44.8600 C   0  0  0  0  0  0  0  0  0  0  0  0
   58.5360   34.1730   46.0840 C   0  0  0  0  0  0  0  0  0  0  0  0
   58.8560   33.0590   46.8650 C   0  0  0  0  0  0  0  0  0  0  0  0
   58.5120   31.7650   46.4330 C   0  0  0  0  0  0  0  0  0  0  0  0
   58.8260   30.6130   47.2300 N   0  0  0  0  0  0  0  0  0  0  0  0
   60.0890   29.9330   47.2680 C   0  0  0  0  0  0  0  0  0  0  0  0
   61.1510   30.5810   47.4780 O   0  0  0  0  0  0  0  0  0  0  0  0
   60.1450   28.4620   47.1340 C   0  0  0  0  0  0  0  0  0  0  0  0
   60.0910   27.7060   45.9760 C   0  0  0  0  0  0  0  0  0  0  0  0
   59.9800   28.2130   44.5730 C   0  0  0  0  0  0  0  0  0  0  0  0
   60.2080   26.4000   46.2820 N   0  0  0  0  0  0  0  0  0  0  0  0
   60.3250   26.3190   47.5730 O   0  0  0  0  0  0  0  0  0  0  0  0
   60.3010   27.5080   48.1290 C   0  0  0  0  0  0  0  0  0  0  0  0
   60.4360   27.7340   49.5970 C   0  0  0  0  0  0  0  0  0  0  0  0
   56.9273   22.6782   48.5569 H   0  0  0  0  0  0  0  0  0  0  0  0
   55.6241   23.8573   48.1851 H   0  0  0  0  0  0  0  0  0  0  0  0
   55.2689   22.0965   48.1851 H   0  0  0  0  0  0  0  0  0  0  0  0
   56.1205   20.6352   46.3956 H   0  0  0  0  0  0  0  0  0  0  0  0
   56.7435   20.4850   43.9896 H   0  0  0  0  0  0  0  0  0  0  0  0
   57.3299   22.5426   42.7155 H   0  0  0  0  0  0  0  0  0  0  0  0
   57.6323   25.9274   44.2765 H   0  0  0  0  0  0  0  0  0  0  0  0
   58.2721   24.8791   42.9656 H   0  0  0  0  0  0  0  0  0  0  0  0
   56.5420   25.3623   42.9656 H   0  0  0  0  0  0  0  0  0  0  0  0
   57.3630   27.9732   46.4723 H   0  0  0  0  0  0  0  0  0  0  0  0
   57.4177   27.3478   44.7877 H   0  0  0  0  0  0  0  0  0  0  0  0
   58.2374   29.4815   45.1435 H   0  0  0  0  0  0  0  0  0  0  0  0
   57.9238   30.2130   43.5356 H   0  0  0  0  0  0  0  0  0  0  0  0
   57.0894   32.6039   43.4250 H   0  0  0  0  0  0  0  0  0  0  0  0
   57.6240   34.8902   44.2563 H   0  0  0  0  0  0  0  0  0  0  0  0
   58.7950   35.1822   46.4368 H   0  0  0  0  0  0  0  0  0  0  0  0
   59.3797   33.1947   47.8228 H   0  0  0  0  0  0  0  0  0  0  0  0
   59.7448   29.2874   44.5889 H   0  0  0  0  0  0  0  0  0  0  0  0
   60.9342   28.0543   44.0492 H   0  0  0  0  0  0  0  0  0  0  0  0
   59.1794   27.6701   44.0492 H   0  0  0  0  0  0  0  0  0  0  0  0
   59.9457   26.9132   50.1410 H   0  0  0  0  0  0  0  0  0  0  0  0
   61.5020   27.7671   49.8664 H   0  0  0  0  0  0  0  0  0  0  0  0
   59.9599   28.6883   49.8664 H   0  0  0  0  0  0  0  0  0  0  0  0
  1  2  1  0
  2  3  2  0
  3  4  1  0
  4  5  2  0
  5  6  1  0
  6  7  1  0
  6  8  2  0
  8  9  1  0
  9 10  1  0
 10 11  2  0
 10 12  1  0
 12 13  1  0
 13 14  1  0
 14 15  2  0
 14 16  1  0
 16 17  1  0
 17 18  2  0
 18 19  1  0
 19 20  2  0
 20 21  1  0
 21 22  2  0
 22 23  1  0
 23 24  1  0
 24 25  2  0
 24 26  1  0
 26 27  1  0
 27 28  1  0
 27 29  2  0
 29 30  1  0
 30 31  1  0
 31 32  1  0
  8  2  1  0
 22 17  1  0
 31 26  2  0
  1 33  1  0
  1 34  1  0
  1 35  1  0
  3 36  1  0
  4 37  1  0
  5 38  1  0
  7 39  1  0
  7 40  1  0
  7 41  1  0
 12 42  1  0
 12 43  1  0
 16 44  1  0
 16 45  1  0
 18 46  1  0
 19 47  1  0
 20 48  1  0
 21 49  1  0
 28 50  1  0
 28 51  1  0
 28 52  1  0
 32 53  1  0
 32 54  1  0
 32 55  1  0
M  CHG  3   9  -1  13  -1  23  -1
M  END
>  <UniqueID>  (71) 
63

>  <SMILES>  (71) 
Cc1cccc(C)c1[N-]C(=O)C[N-]C(=O)Cc1ccccc1[N-]C(=O)c1c(C)noc1C

>  <Energy>  (71) 
88.6446891699663

>  <Genealogy>  (71) 
Cc1cccc(C)c1[N-]C(=O)C[N-]C(=O)Cc1ccccc1[N-]C(=O)c1c(C)noc1C (protonated)
Cc1cccc(C)c1[N-]C(=O)C[N-]C(=O)Cc1ccccc1[N-]C(=O)c1c(C)noc1C (3D coordinates assigned)
Cc1cccc(C)c1[N-]C(=O)C[N-]C(=O)Cc1ccccc1[N-]C(=O)c1c(C)noc1C (optimized conformer: 88.6446891699663 kcal/mol)

>  <smiles>  (71) 
Cc1cccc(C)c1NC(=O)CNC(=O)Cc1ccccc1NC(=O)c1c(C)noc1C

>  <score_type>  (71) 
oracle

>  <origin>  (71) 
adg

>  <m_score__min__energy>  (71) 
-14.76

>  <m_primary>  (71) 
energy

$$$$
71:0
     RDKit          3D

 59 62  0  0  0  0  0  0  0  0999 V2000
   57.4260   32.3480   40.9470 C   0  0  0  0  0  0  0  0  0  0  0  0
   57.8010   32.0520   42.3980 C   0  0  0  0  0  0  0  0  0  0  0  0
   57.0000   30.8840   42.9900 C   0  0  0  0  0  0  0  0  0  0  0  0
   56.9940   30.8890   44.5260 C   0  0  0  0  0  0  0  0  0  0  0  0
   57.4560   29.5640   45.0560 C   0  0  0  0  0  0  0  0  0  0  0  0
   56.7340   28.4290   44.9240 N   0  0  0  0  0  0  0  0  0  0  0  0
   57.4780   27.4510   45.4220 N   0  0  0  0  0  0  0  0  0  0  0  0
   57.0720   26.0710   45.4750 C   0  0  0  0  0  0  0  0  0  0  0  0
   58.0070   25.0430   45.2550 C   0  0  0  0  0  0  0  0  0  0  0  0
   57.6180   23.7030   45.3280 C   0  0  0  0  0  0  0  0  0  0  0  0
   56.2970   23.3720   45.6270 C   0  0  0  0  0  0  0  0  0  0  0  0
   55.3580   24.3830   45.8520 C   0  0  0  0  0  0  0  0  0  0  0  0
   55.7390   25.7270   45.7800 C   0  0  0  0  0  0  0  0  0  0  0  0
   54.7830   26.7130   45.9970 O   0  0  0  0  0  0  0  0  0  0  0  0
   58.6420   27.9940   45.8330 C   0  0  0  0  0  0  0  0  0  0  0  0
   59.6060   27.3390   46.3150 O   0  0  0  0  0  0  0  0  0  0  0  0
   58.6650   29.3240   45.6230 N   0  0  0  0  0  0  0  0  0  0  0  0
   59.7590   30.2590   45.9050 C   0  0  0  0  0  0  0  0  0  0  0  0
   59.6000   30.8610   47.2760 C   0  0  0  0  0  0  0  0  0  0  0  0
   58.6110   31.8290   47.5100 C   0  0  0  0  0  0  0  0  0  0  0  0
   58.4320   32.3590   48.7910 C   0  0  0  0  0  0  0  0  0  0  0  0
   59.2500   31.9380   49.8500 C   0  0  0  0  0  0  0  0  0  0  0  0
   59.0420   32.4830   51.2060 C   0  0  0  0  0  0  0  0  0  0  0  0
   59.7390   33.6470   51.5720 C   0  0  0  0  0  0  0  0  0  0  0  0
   59.5490   34.2210   52.8300 C   0  0  0  0  0  0  0  0  0  0  0  0
   58.6650   33.6380   53.7370 C   0  0  0  0  0  0  0  0  0  0  0  0
   57.9760   32.4740   53.3940 C   0  0  0  0  0  0  0  0  0  0  0  0
   58.1600   31.8770   52.1360 C   0  0  0  0  0  0  0  0  0  0  0  0
   57.3050   30.3670   51.7770 S   0  0  0  0  0  0  0  0  0  0  0  0
   55.6100   30.6630   51.6100 N   0  0  0  0  0  0  0  0  0  0  0  0
   57.8160   29.7840   50.4880 O   0  0  0  0  0  0  0  0  0  0  0  0
   57.5390   29.3790   52.8850 O   0  0  0  0  0  0  0  0  0  0  0  0
   60.2380   30.9720   49.6170 C   0  0  0  0  0  0  0  0  0  0  0  0
   60.4210   30.4440   48.3370 C   0  0  0  0  0  0  0  0  0  0  0  0
   56.5628   33.0294   40.9231 H   0  0  0  0  0  0  0  0  0  0  0  0
   58.2791   32.8189   40.4366 H   0  0  0  0  0  0  0  0  0  0  0  0
   57.1661   31.4089   40.4366 H   0  0  0  0  0  0  0  0  0  0  0  0
   58.8714   31.8023   42.4410 H   0  0  0  0  0  0  0  0  0  0  0  0
   57.5686   32.9488   42.9910 H   0  0  0  0  0  0  0  0  0  0  0  0
   55.9616   30.9527   42.6336 H   0  0  0  0  0  0  0  0  0  0  0  0
   57.4811   29.9507   42.6622 H   0  0  0  0  0  0  0  0  0  0  0  0
   57.6681   31.6791   44.8883 H   0  0  0  0  0  0  0  0  0  0  0  0
   55.9686   31.0756   44.8778 H   0  0  0  0  0  0  0  0  0  0  0  0
   59.0522   25.2961   45.0238 H   0  0  0  0  0  0  0  0  0  0  0  0
   58.3559   22.9071   45.1491 H   0  0  0  0  0  0  0  0  0  0  0  0
   55.9939   22.3162   45.6858 H   0  0  0  0  0  0  0  0  0  0  0  0
   54.3158   24.1206   46.0865 H   0  0  0  0  0  0  0  0  0  0  0  0
   60.7169   29.7205   45.8553 H   0  0  0  0  0  0  0  0  0  0  0  0
   59.7377   31.0662   45.1581 H   0  0  0  0  0  0  0  0  0  0  0  0
   57.9739   32.1721   46.6816 H   0  0  0  0  0  0  0  0  0  0  0  0
   57.6471   33.1087   48.9693 H   0  0  0  0  0  0  0  0  0  0  0  0
   60.4399   34.1095   50.8614 H   0  0  0  0  0  0  0  0  0  0  0  0
   60.0970   35.1339   53.1060 H   0  0  0  0  0  0  0  0  0  0  0  0
   58.5104   34.0965   54.7249 H   0  0  0  0  0  0  0  0  0  0  0  0
   57.2818   32.0194   54.1161 H   0  0  0  0  0  0  0  0  0  0  0  0
   55.2180   29.8820   51.0370 H   0  0  0  0  0  0  0  0  0  0  0  0
   55.5060   31.5360   51.0450 H   0  0  0  0  0  0  0  0  0  0  0  0
   60.8729   30.6277   50.4467 H   0  0  0  0  0  0  0  0  0  0  0  0
   61.2106   29.6991   48.1590 H   0  0  0  0  0  0  0  0  0  0  0  0
  1  2  1  0
  2  3  1  0
  3  4  1  0
  4  5  1  0
  5  6  2  0
  6  7  1  0
  7  8  1  0
  8  9  2  0
  9 10  1  0
 10 11  2  0
 11 12  1  0
 12 13  2  0
 13 14  1  0
  7 15  1  0
 15 16  2  0
 15 17  1  0
 17 18  1  0
 18 19  1  0
 19 20  2  0
 20 21  1  0
 21 22  2  0
 22 23  1  0
 23 24  2  0
 24 25  1  0
 25 26  2  0
 26 27  1  0
 27 28  2  0
 28 29  1  0
 29 30  1  0
 29 31  2  0
 29 32  2  0
 22 33  1  0
 33 34  2  0
 17  5  1  0
 34 19  1  0
 13  8  1  0
 28 23  1  0
  1 35  1  0
  1 36  1  0
  1 37  1  0
  2 38  1  0
  2 39  1  0
  3 40  1  0
  3 41  1  0
  4 42  1  0
  4 43  1  0
  9 44  1  0
 10 45  1  0
 11 46  1  0
 12 47  1  0
 18 48  1  0
 18 49  1  0
 20 50  1  0
 21 51  1  0
 24 52  1  0
 25 53  1  0
 26 54  1  0
 27 55  1  0
 30 56  1  0
 30 57  1  0
 33 58  1  0
 34 59  1  0
M  CHG  1  14  -1
M  END
>  <UniqueID>  (72) 
64

>  <SMILES>  (72) 
CCCCc1nn(-c2ccccc2[O-])c(=O)n1Cc1ccc(-c2ccccc2S(N)(=O)=O)cc1

>  <Energy>  (72) 
102.38915669444917

>  <Genealogy>  (72) 
CCCCc1nn(-c2ccccc2[O-])c(=O)n1Cc1ccc(-c2ccccc2S(N)(=O)=O)cc1 (protonated)
CCCCc1nn(-c2ccccc2[O-])c(=O)n1Cc1ccc(-c2ccccc2S(N)(=O)=O)cc1 (3D coordinates assigned)
CCCCc1nn(-c2ccccc2[O-])c(=O)n1Cc1ccc(-c2ccccc2S(N)(=O)=O)cc1 (optimized conformer: 102.38915669444917 kcal/mol)

>  <smiles>  (72) 
CCCCc1nn(-c2ccccc2O)c(=O)n1Cc1ccc(-c2ccccc2S(N)(=O)=O)cc1

>  <score_type>  (72) 
oracle

>  <origin>  (72) 
adg

>  <m_score__min__energy>  (72) 
-13.359999999999999

>  <m_primary>  (72) 
energy

$$$$
72:0
     RDKit          3D

 57 60  0  0  0  0  0  0  0  0999 V2000
   64.3670   33.6830   50.6880 O   0  0  0  0  0  0  0  0  0  0  0  0
   63.5120   33.1470   49.9340 C   0  0  0  0  0  0  0  0  0  0  0  0
   63.9400   32.2760   48.8800 N   0  0  0  0  0  0  0  0  0  0  0  0
   63.1890   32.0640   47.6470 C   0  0  0  0  0  0  0  0  0  0  0  0
   62.1290   31.0150   47.8590 C   0  0  0  0  0  0  0  0  0  0  0  0
   61.4120   30.4890   46.7680 C   0  0  0  0  0  0  0  0  0  0  0  0
   60.3990   29.5430   46.9770 C   0  0  0  0  0  0  0  0  0  0  0  0
   60.0890   29.1220   48.2720 C   0  0  0  0  0  0  0  0  0  0  0  0
   60.7940   29.6420   49.3610 C   0  0  0  0  0  0  0  0  0  0  0  0
   61.8030   30.5930   49.1580 C   0  0  0  0  0  0  0  0  0  0  0  0
   62.0770   33.4890   50.0960 C   0  0  0  0  0  0  0  0  0  0  0  0
   61.3540   33.8970   48.9600 C   0  0  0  0  0  0  0  0  0  0  0  0
   59.9830   34.1900   49.0420 C   0  0  0  0  0  0  0  0  0  0  0  0
   59.2330   34.6620   47.9190 N   0  0  0  0  0  0  0  0  0  0  0  0
   59.6740   34.5080   46.2470 S   0  0  0  0  0  0  0  0  0  0  0  0
   61.1550   34.2900   46.1340 O   0  0  0  0  0  0  0  0  0  0  0  0
   59.2970   35.7350   45.4690 O   0  0  0  0  0  0  0  0  0  0  0  0
   58.7830   33.1480   45.5660 C   0  0  0  0  0  0  0  0  0  0  0  0
   58.3920   33.1320   44.2170 C   0  0  0  0  0  0  0  0  0  0  0  0
   57.6790   32.0400   43.7040 C   0  0  0  0  0  0  0  0  0  0  0  0
   57.3590   30.9570   44.5380 C   0  0  0  0  0  0  0  0  0  0  0  0
   56.4780   29.5670   43.9200 S   0  0  0  0  0  0  0  0  0  0  0  0
   55.3160   30.0510   43.1030 O   0  0  0  0  0  0  0  0  0  0  0  0
   57.4030   28.7490   43.0670 O   0  0  0  0  0  0  0  0  0  0  0  0
   55.9020   28.5870   45.2280 N   0  0  0  0  0  0  0  0  0  0  0  0
   56.5680   27.4210   45.7380 C   0  0  0  0  0  0  0  0  0  0  0  0
   57.9680   27.3710   45.9000 C   0  0  0  0  0  0  0  0  0  0  0  0
   58.5780   26.2190   46.3980 C   0  0  0  0  0  0  0  0  0  0  0  0
   57.8040   25.1080   46.7480 C   0  0  0  0  0  0  0  0  0  0  0  0
   56.4170   25.1490   46.5960 C   0  0  0  0  0  0  0  0  0  0  0  0
   55.7960   26.3020   46.0910 C   0  0  0  0  0  0  0  0  0  0  0  0
   54.4110   26.3300   45.9480 O   0  0  0  0  0  0  0  0  0  0  0  0
   57.7530   30.9740   45.8810 C   0  0  0  0  0  0  0  0  0  0  0  0
   58.4640   32.0630   46.3920 C   0  0  0  0  0  0  0  0  0  0  0  0
   59.3140   33.9920   50.2500 C   0  0  0  0  0  0  0  0  0  0  0  0
   60.0140   33.5910   51.3850 C   0  0  0  0  0  0  0  0  0  0  0  0
   61.3960   33.3790   51.3340 C   0  0  0  0  0  0  0  0  0  0  0  0
   62.0560   33.1010   52.5330 O   0  0  0  0  0  0  0  0  0  0  0  0
   62.7113   33.0078   47.3454 H   0  0  0  0  0  0  0  0  0  0  0  0
   63.8784   31.7245   46.8600 H   0  0  0  0  0  0  0  0  0  0  0  0
   61.6477   30.8219   45.7464 H   0  0  0  0  0  0  0  0  0  0  0  0
   59.8470   29.1313   46.1192 H   0  0  0  0  0  0  0  0  0  0  0  0
   59.2912   28.3823   48.4346 H   0  0  0  0  0  0  0  0  0  0  0  0
   60.5562   29.3038   50.3803 H   0  0  0  0  0  0  0  0  0  0  0  0
   62.3424   31.0111   50.0207 H   0  0  0  0  0  0  0  0  0  0  0  0
   61.8704   33.9878   47.9930 H   0  0  0  0  0  0  0  0  0  0  0  0
   58.6460   33.9783   43.5619 H   0  0  0  0  0  0  0  0  0  0  0  0
   57.3702   32.0315   42.6483 H   0  0  0  0  0  0  0  0  0  0  0  0
   58.5818   28.2438   45.6327 H   0  0  0  0  0  0  0  0  0  0  0  0
   59.6711   26.1846   46.5157 H   0  0  0  0  0  0  0  0  0  0  0  0
   58.2879   24.2025   47.1428 H   0  0  0  0  0  0  0  0  0  0  0  0
   55.8089   24.2751   46.8728 H   0  0  0  0  0  0  0  0  0  0  0  0
   57.5020   30.1271   46.5365 H   0  0  0  0  0  0  0  0  0  0  0  0
   58.7744   32.0681   47.4473 H   0  0  0  0  0  0  0  0  0  0  0  0
   58.2274   34.1536   50.3063 H   0  0  0  0  0  0  0  0  0  0  0  0
   59.4747   33.4393   52.3317 H   0  0  0  0  0  0  0  0  0  0  0  0
   63.0650   33.0900   52.6230 H   0  0  0  0  0  0  0  0  0  0  0  0
  1  2  2  0
  2  3  1  0
  3  4  1  0
  4  5  1  0
  5  6  2  0
  6  7  1  0
  7  8  2  0
  8  9  1  0
  9 10  2  0
  2 11  1  0
 11 12  2  0
 12 13  1  0
 13 14  1  0
 14 15  1  0
 15 16  2  0
 15 17  2  0
 15 18  1  0
 18 19  2  0
 19 20  1  0
 20 21  2  0
 21 22  1  0
 22 23  2  0
 22 24  2  0
 22 25  1  0
 25 26  1  0
 26 27  2  0
 27 28  1  0
 28 29  2  0
 29 30  1  0
 30 31  2  0
 31 32  1  0
 21 33  1  0
 33 34  2  0
 13 35  2  0
 35 36  1  0
 36 37  2  0
 37 38  1  0
 10  5  1  0
 37 11  1  0
 34 18  1  0
 31 26  1  0
  4 39  1  0
  4 40  1  0
  6 41  1  0
  7 42  1  0
  8 43  1  0
  9 44  1  0
 10 45  1  0
 12 46  1  0
 19 47  1  0
 20 48  1  0
 27 49  1  0
 28 50  1  0
 29 51  1  0
 30 52  1  0
 33 53  1  0
 34 54  1  0
 35 55  1  0
 36 56  1  0
 38 57  1  0
M  CHG  4   3  -1  14  -1  25  -1  32  -1
M  END
>  <UniqueID>  (73) 
65

>  <SMILES>  (73) 
O=C([N-]Cc1ccccc1)c1cc([N-]S(=O)(=O)c2ccc(S(=O)(=O)[N-]c3ccccc3[O-])cc2)ccc1O

>  <Energy>  (73) 
77.13213168397743

>  <Genealogy>  (73) 
O=C([N-]Cc1ccccc1)c1cc([N-]S(=O)(=O)c2ccc(S(=O)(=O)[N-]c3ccccc3[O-])cc2)ccc1O (protonated)
O=C([N-]Cc1ccccc1)c1cc([N-]S(=O)(=O)c2ccc(S(=O)(=O)[N-]c3ccccc3[O-])cc2)ccc1O (3D coordinates assigned)
O=C([N-]Cc1ccccc1)c1cc([N-]S(=O)(=O)c2ccc(S(=O)(=O)[N-]c3ccccc3[O-])cc2)ccc1O (optimized conformer: 77.13213168397743 kcal/mol)

>  <smiles>  (73) 
O=C(NCc1ccccc1)c1cc(NS(=O)(=O)c2ccc(S(=O)(=O)Nc3ccccc3O)cc2)ccc1O

>  <score_type>  (73) 
oracle

>  <origin>  (73) 
adg

>  <m_score__min__energy>  (73) 
-17.350000000000001

>  <m_primary>  (73) 
energy

$$$$
73:0
     RDKit          3D

 56 60  0  0  0  0  0  0  0  0999 V2000
   57.2990   28.6330   42.9950 N   0  0  0  0  0  0  0  0  0  0  0  0
   56.7490   29.5970   44.3210 S   0  0  0  0  0  0  0  0  0  0  0  0
   56.3950   30.9720   43.8310 O   0  0  0  0  0  0  0  0  0  0  0  0
   55.5230   28.9670   44.9190 O   0  0  0  0  0  0  0  0  0  0  0  0
   58.0200   29.7100   45.5350 C   0  0  0  0  0  0  0  0  0  0  0  0
   57.9410   28.9640   46.7180 C   0  0  0  0  0  0  0  0  0  0  0  0
   58.9580   29.0490   47.6730 C   0  0  0  0  0  0  0  0  0  0  0  0
   60.0750   29.8720   47.4520 C   0  0  0  0  0  0  0  0  0  0  0  0
   61.1170   29.9700   48.4410 N   0  0  0  0  0  0  0  0  0  0  0  0
   61.0720   29.1330   49.6460 C   0  0  0  0  0  0  0  0  0  0  0  0
   61.9800   29.7080   50.7390 C   0  0  0  0  0  0  0  0  0  0  0  0
   61.8690   31.1790   50.7390 N   0  0  0  0  0  0  0  0  0  0  0  0
   62.4940   31.7440   51.9550 C   0  0  0  0  0  0  0  0  0  0  0  0
   61.4620   32.0170   53.0530 C   0  0  0  0  0  0  0  0  0  0  0  0
   60.5520   33.0800   52.6360 N   0  0  0  0  0  0  0  0  0  0  0  0
   60.1640   33.2520   51.4090 C   0  0  0  0  0  0  0  0  0  0  0  0
   59.0970   32.5880   50.8950 N   0  0  0  0  0  0  0  0  0  0  0  0
   59.0560   33.0470   49.6360 C   0  0  0  0  0  0  0  0  0  0  0  0
   58.1500   32.7010   48.6360 C   0  0  0  0  0  0  0  0  0  0  0  0
   58.2990   33.3140   47.3720 C   0  0  0  0  0  0  0  0  0  0  0  0
   57.4200   33.0050   46.3250 C   0  0  0  0  0  0  0  0  0  0  0  0
   57.5740   33.6150   45.0760 C   0  0  0  0  0  0  0  0  0  0  0  0
   58.6030   34.5360   44.8620 C   0  0  0  0  0  0  0  0  0  0  0  0
   59.4900   34.8570   45.8930 C   0  0  0  0  0  0  0  0  0  0  0  0
   59.3530   34.2560   47.1530 C   0  0  0  0  0  0  0  0  0  0  0  0
   60.2460   34.5740   48.1990 C   0  0  0  0  0  0  0  0  0  0  0  0
   60.0590   33.9440   49.4270 C   0  0  0  0  0  0  0  0  0  0  0  0
   60.7870   34.0970   50.5420 N   0  0  0  0  0  0  0  0  0  0  0  0
   62.4450   31.7690   49.5020 C   0  0  0  0  0  0  0  0  0  0  0  0
   62.2520   30.8810   48.2570 C   0  0  0  0  0  0  0  0  0  0  0  0
   60.1490   30.6180   46.2630 C   0  0  0  0  0  0  0  0  0  0  0  0
   59.1300   30.5340   45.3100 C   0  0  0  0  0  0  0  0  0  0  0  0
   56.4560   28.1800   42.5770 H   0  0  0  0  0  0  0  0  0  0  0  0
   57.6740   29.2910   42.2760 H   0  0  0  0  0  0  0  0  0  0  0  0
   57.0754   28.3089   46.8960 H   0  0  0  0  0  0  0  0  0  0  0  0
   58.8833   28.4677   48.6038 H   0  0  0  0  0  0  0  0  0  0  0  0
   60.0381   29.0929   50.0195 H   0  0  0  0  0  0  0  0  0  0  0  0
   61.4241   28.1231   49.3886 H   0  0  0  0  0  0  0  0  0  0  0  0
   61.6698   29.3158   51.7188 H   0  0  0  0  0  0  0  0  0  0  0  0
   63.0226   29.4165   50.5439 H   0  0  0  0  0  0  0  0  0  0  0  0
   63.2389   31.0301   52.3365 H   0  0  0  0  0  0  0  0  0  0  0  0
   62.9644   32.7006   51.6836 H   0  0  0  0  0  0  0  0  0  0  0  0
   60.8857   31.1002   53.2462 H   0  0  0  0  0  0  0  0  0  0  0  0
   61.9856   32.3309   53.9680 H   0  0  0  0  0  0  0  0  0  0  0  0
   57.3455   31.9748   48.8243 H   0  0  0  0  0  0  0  0  0  0  0  0
   56.6074   32.2813   46.4860 H   0  0  0  0  0  0  0  0  0  0  0  0
   56.8815   33.3685   44.2577 H   0  0  0  0  0  0  0  0  0  0  0  0
   58.7154   35.0110   43.8763 H   0  0  0  0  0  0  0  0  0  0  0  0
   60.2975   35.5827   45.7161 H   0  0  0  0  0  0  0  0  0  0  0  0
   61.0626   35.2956   48.0492 H   0  0  0  0  0  0  0  0  0  0  0  0
   61.9589   32.7385   49.3183 H   0  0  0  0  0  0  0  0  0  0  0  0
   63.5281   31.8729   49.6638 H   0  0  0  0  0  0  0  0  0  0  0  0
   62.0632   31.5211   47.3826 H   0  0  0  0  0  0  0  0  0  0  0  0
   63.1632   30.2843   48.1034 H   0  0  0  0  0  0  0  0  0  0  0  0
   61.0145   31.2722   46.0813 H   0  0  0  0  0  0  0  0  0  0  0  0
   59.2001   31.1171   44.3799 H   0  0  0  0  0  0  0  0  0  0  0  0
  1  2  1  0
  2  3  2  0
  2  4  2  0
  2  5  1  0
  5  6  2  0
  6  7  1  0
  7  8  2  0
  8  9  1  0
  9 10  1  0
 10 11  1  0
 11 12  1  0
 12 13  1  0
 13 14  1  0
 14 15  1  0
 15 16  2  3
 16 17  1  0
 17 18  1  0
 18 19  2  0
 19 20  1  0
 20 21  2  0
 21 22  1  0
 22 23  2  0
 23 24  1  0
 24 25  2  0
 25 26  1  0
 26 27  2  0
 27 28  1  0
 12 29  1  0
 29 30  1  0
  8 31  1  0
 31 32  2  0
 32  5  1  0
 30  9  1  0
 28 16  1  0
 27 18  1  0
 25 20  1  0
  1 33  1  0
  1 34  1  0
  6 35  1  0
  7 36  1  0
 10 37  1  0
 10 38  1  0
 11 39  1  0
 11 40  1  0
 13 41  1  0
 13 42  1  0
 14 43  1  0
 14 44  1  0
 19 45  1  0
 21 46  1  0
 22 47  1  0
 23 48  1  0
 24 49  1  0
 26 50  1  0
 29 51  1  0
 29 52  1  0
 30 53  1  0
 30 54  1  0
 31 55  1  0
 32 56  1  0
M  CHG  2  17  -1  28  -1
M  END
>  <UniqueID>  (74) 
66

>  <SMILES>  (74) 
NS(=O)(=O)c1ccc(N2CCN(CCN=c3[n-]c4cc5ccccc5cc4[n-]3)CC2)cc1

>  <Energy>  (74) 
104.98693455516846

>  <Genealogy>  (74) 
NS(=O)(=O)c1ccc(N2CCN(CCN=c3[n-]c4cc5ccccc5cc4[n-]3)CC2)cc1 (protonated)
NS(=O)(=O)c1ccc(N2CCN(CCN=c3[n-]c4cc5ccccc5cc4[n-]3)CC2)cc1 (3D coordinates assigned)
NS(=O)(=O)c1ccc(N2CCN(CCN=c3[n-]c4cc5ccccc5cc4[n-]3)CC2)cc1 (nonaromatic ring conformer: 104.98693455516846 kcal/mol)

>  <smiles>  (74) 
NS(=O)(=O)c1ccc(N2CCN(CCN=c3[nH]c4cc5ccccc5cc4[nH]3)CC2)cc1

>  <score_type>  (74) 
oracle

>  <origin>  (74) 
adg

>  <m_score__min__energy>  (74) 
-11.92

>  <m_primary>  (74) 
energy

$$$$
74:0
     RDKit          3D

 49 51  0  0  0  0  0  0  0  0999 V2000
   59.2800   35.6400   44.9380 C   0  0  0  0  0  0  0  0  0  0  0  0
   59.2980   34.3260   45.6620 C   0  0  0  0  0  0  0  0  0  0  0  0
   58.1160   33.5850   45.7820 C   0  0  0  0  0  0  0  0  0  0  0  0
   58.1190   32.3560   46.4450 C   0  0  0  0  0  0  0  0  0  0  0  0
   59.3010   31.8530   47.0010 C   0  0  0  0  0  0  0  0  0  0  0  0
   59.2370   30.2780   47.8760 S   0  0  0  0  0  0  0  0  0  0  0  0
   59.2590   29.2480   46.3670 C   0  0  0  0  0  0  0  0  0  0  0  0
   58.1780   27.7840   46.5480 S   0  0  0  0  0  0  0  0  0  0  0  0
   57.4340   27.8510   44.8800 C   0  0  0  0  0  0  0  0  0  0  0  0
   56.9220   29.2280   44.5870 C   0  0  0  0  0  0  0  0  0  0  0  0
   55.8890   29.6410   45.1780 O   0  0  0  0  0  0  0  0  0  0  0  0
   57.5910   30.0610   43.6320 N   0  0  0  0  0  0  0  0  0  0  0  0
   57.0640   31.3730   43.2680 C   0  0  0  0  0  0  0  0  0  0  0  0
   58.1470   32.3580   42.8610 C   0  0  0  0  0  0  0  0  0  0  0  0
   57.2510   31.7300   41.8040 C   0  0  0  0  0  0  0  0  0  0  0  0
   60.5020   32.5860   46.8760 C   0  0  0  0  0  0  0  0  0  0  0  0
   61.7760   32.0800   47.4300 C   0  0  0  0  0  0  0  0  0  0  0  0
   62.1870   30.9470   47.0610 O   0  0  0  0  0  0  0  0  0  0  0  0
   62.5530   32.8530   48.3730 N   0  0  0  0  0  0  0  0  0  0  0  0
   64.0000   32.6360   48.4840 C   0  0  0  0  0  0  0  0  0  0  0  0
   64.4570   32.8890   49.9240 C   0  0  0  0  0  0  0  0  0  0  0  0
   64.0110   34.1510   50.3810 O   0  0  0  0  0  0  0  0  0  0  0  0
   62.5980   34.1580   50.4530 C   0  0  0  0  0  0  0  0  0  0  0  0
   61.9820   34.0200   49.0570 C   0  0  0  0  0  0  0  0  0  0  0  0
   60.4890   33.8170   46.2000 C   0  0  0  0  0  0  0  0  0  0  0  0
   59.2687   36.4615   45.6694 H   0  0  0  0  0  0  0  0  0  0  0  0
   60.1771   35.7232   44.3069 H   0  0  0  0  0  0  0  0  0  0  0  0
   58.3810   35.6986   44.3069 H   0  0  0  0  0  0  0  0  0  0  0  0
   57.1807   33.9728   45.3520 H   0  0  0  0  0  0  0  0  0  0  0  0
   57.1862   31.7793   46.5309 H   0  0  0  0  0  0  0  0  0  0  0  0
   58.9073   29.8504   45.5165 H   0  0  0  0  0  0  0  0  0  0  0  0
   60.2890   28.9010   46.1977 H   0  0  0  0  0  0  0  0  0  0  0  0
   58.1955   27.5818   44.1332 H   0  0  0  0  0  0  0  0  0  0  0  0
   56.5931   27.1431   44.8376 H   0  0  0  0  0  0  0  0  0  0  0  0
   58.4110   29.6840   43.1070 H   0  0  0  0  0  0  0  0  0  0  0  0
   56.2139   31.3838   43.9660 H   0  0  0  0  0  0  0  0  0  0  0  0
   58.0418   33.4247   43.1084 H   0  0  0  0  0  0  0  0  0  0  0  0
   59.2334   32.4290   43.0181 H   0  0  0  0  0  0  0  0  0  0  0  0
   56.4979   32.3426   41.2867 H   0  0  0  0  0  0  0  0  0  0  0  0
   57.4212   31.1587   40.8795 H   0  0  0  0  0  0  0  0  0  0  0  0
   64.2357   31.5988   48.2036 H   0  0  0  0  0  0  0  0  0  0  0  0
   64.5228   33.3315   47.8110 H   0  0  0  0  0  0  0  0  0  0  0  0
   64.0455   32.1041   50.5756 H   0  0  0  0  0  0  0  0  0  0  0  0
   65.5566   32.8739   49.9514 H   0  0  0  0  0  0  0  0  0  0  0  0
   62.2645   33.3173   51.0792 H   0  0  0  0  0  0  0  0  0  0  0  0
   62.2717   35.1134   50.8898 H   0  0  0  0  0  0  0  0  0  0  0  0
   60.8934   33.8922   49.1495 H   0  0  0  0  0  0  0  0  0  0  0  0
   62.2013   34.9259   48.4728 H   0  0  0  0  0  0  0  0  0  0  0  0
   61.4229   34.3880   46.0914 H   0  0  0  0  0  0  0  0  0  0  0  0
  1  2  1  0
  2  3  2  0
  3  4  1  0
  4  5  2  0
  5  6  1  0
  6  7  1  0
  7  8  1  0
  8  9  1  0
  9 10  1  0
 10 11  2  0
 10 12  1  0
 12 13  1  0
 13 14  1  0
 14 15  1  0
  5 16  1  0
 16 17  1  0
 17 18  2  0
 17 19  1  0
 19 20  1  0
 20 21  1  0
 21 22  1  0
 22 23  1  0
 23 24  1  0
 16 25  2  0
 25  2  1  0
 15 13  1  0
 24 19  1  0
  1 26  1  0
  1 27  1  0
  1 28  1  0
  3 29  1  0
  4 30  1  0
  7 31  1  0
  7 32  1  0
  9 33  1  0
  9 34  1  0
 12 35  1  0
 13 36  1  0
 14 37  1  0
 14 38  1  0
 15 39  1  0
 15 40  1  0
 20 41  1  0
 20 42  1  0
 21 43  1  0
 21 44  1  0
 23 45  1  0
 23 46  1  0
 24 47  1  0
 24 48  1  0
 25 49  1  0
M  END
>  <UniqueID>  (75) 
67

>  <SMILES>  (75) 
Cc1ccc(SCSCC(=O)NC2CC2)c(C(=O)N2CCOCC2)c1

>  <Energy>  (75) 
310.48481865400015

>  <Genealogy>  (75) 
Cc1ccc(SCSCC(=O)NC2CC2)c(C(=O)N2CCOCC2)c1 (3D coordinates assigned)
Cc1ccc(SCSCC(=O)NC2CC2)c(C(=O)N2CCOCC2)c1 (nonaromatic ring conformer: 310.48481865400015 kcal/mol)

>  <smiles>  (75) 
Cc1ccc(SCSCC(=O)NC2CC2)c(C(=O)N2CCOCC2)c1

>  <score_type>  (75) 
oracle

>  <origin>  (75) 
adg

>  <m_score__min__energy>  (75) 
-8.5

>  <m_primary>  (75) 
energy

$$$$
75:0
     RDKit          3D

 43 45  0  0  0  0  0  0  0  0999 V2000
   55.6882   27.8350   45.5302 H   0  0  0  0  0  0  0  0  0  0  0  0
   56.6640   28.2290   45.2100 C   0  0  0  0  0  0  0  0  0  0  0  0
   56.6610   29.2710   44.1640 C   0  0  0  0  0  0  0  0  0  0  0  0
   56.9760   28.9490   42.9880 O   0  0  0  0  0  0  0  0  0  0  0  0
   56.3180   30.6270   44.4810 N   0  0  0  0  0  0  0  0  0  0  0  0
   57.1970   31.6600   44.9480 C   0  0  0  0  0  0  0  0  0  0  0  0
   57.7780   31.5200   46.2140 C   0  0  0  0  0  0  0  0  0  0  0  0
   57.5401   30.6398   46.8294 H   0  0  0  0  0  0  0  0  0  0  0  0
   58.6580   32.4900   46.7020 C   0  0  0  0  0  0  0  0  0  0  0  0
   59.0962   32.3788   47.7048 H   0  0  0  0  0  0  0  0  0  0  0  0
   58.9830   33.6030   45.9170 C   0  0  0  0  0  0  0  0  0  0  0  0
   60.1070   34.8130   46.5310 S   0  0  0  0  0  0  0  0  0  0  0  0
   59.7810   35.0920   47.9710 O   0  0  0  0  0  0  0  0  0  0  0  0
   59.9910   36.0890   45.7470 O   0  0  0  0  0  0  0  0  0  0  0  0
   61.7350   34.2250   46.4210 N   0  0  0  0  0  0  0  0  0  0  0  0
   62.3420   33.5740   47.3660 C   0  0  0  0  0  0  0  0  0  0  0  0
   63.5560   32.4200   47.1580 S   0  0  0  0  0  0  0  0  0  0  0  0
   63.7160   32.1410   48.8130 C   0  0  0  0  0  0  0  0  0  0  0  0
   64.4145   31.4336   49.2838 H   0  0  0  0  0  0  0  0  0  0  0  0
   62.8110   32.9610   49.4800 C   0  0  0  0  0  0  0  0  0  0  0  0
   62.7147   32.9686   50.5757 H   0  0  0  0  0  0  0  0  0  0  0  0
   62.0550   33.7520   48.6730 N   0  0  0  0  0  0  0  0  0  0  0  0
   61.3330   34.4170   49.0290 H   0  0  0  0  0  0  0  0  0  0  0  0
   58.4210   33.7390   44.6420 C   0  0  0  0  0  0  0  0  0  0  0  0
   58.6752   34.6110   44.0216 H   0  0  0  0  0  0  0  0  0  0  0  0
   57.5380   32.7710   44.1540 C   0  0  0  0  0  0  0  0  0  0  0  0
   57.1087   32.8780   43.1469 H   0  0  0  0  0  0  0  0  0  0  0  0
   57.7560   27.7210   45.8040 C   0  0  0  0  0  0  0  0  0  0  0  0
   57.8148   26.6273   45.9060 H   0  0  0  0  0  0  0  0  0  0  0  0
   58.8840   28.5150   46.3310 C   0  0  0  0  0  0  0  0  0  0  0  0
   59.9220   28.9440   45.4880 C   0  0  0  0  0  0  0  0  0  0  0  0
   59.9149   28.6656   44.4238 H   0  0  0  0  0  0  0  0  0  0  0  0
   60.9630   29.7230   45.9970 C   0  0  0  0  0  0  0  0  0  0  0  0
   61.7795   30.0471   45.3349 H   0  0  0  0  0  0  0  0  0  0  0  0
   60.9710   30.0920   47.3440 C   0  0  0  0  0  0  0  0  0  0  0  0
   61.7914   30.7106   47.7368 H   0  0  0  0  0  0  0  0  0  0  0  0
   59.9360   29.6770   48.2010 C   0  0  0  0  0  0  0  0  0  0  0  0
   59.9120   30.1290   49.6400 C   0  0  0  0  0  0  0  0  0  0  0  0
   61.1290   29.8770   50.2500 F   0  0  0  0  0  0  0  0  0  0  0  0
   59.6580   31.4870   49.6860 F   0  0  0  0  0  0  0  0  0  0  0  0
   58.9280   29.4610   50.3460 F   0  0  0  0  0  0  0  0  0  0  0  0
   58.8770   28.9150   47.6750 C   0  0  0  0  0  0  0  0  0  0  0  0
   58.0357   28.6303   48.3239 H   0  0  0  0  0  0  0  0  0  0  0  0
  1  2  1  0
  2  3  1  0
  3  4  2  0
  3  5  1  0
  5  6  1  0
  6  7  2  0
  7  8  1  0
  7  9  1  0
  9 10  1  0
  9 11  2  0
 11 12  1  0
 12 13  2  0
 12 14  2  0
 12 15  1  0
 15 16  2  0
 16 17  1  0
 17 18  1  0
 18 19  1  0
 18 20  2  0
 20 21  1  0
 20 22  1  0
 22 23  1  0
 11 24  1  0
 24 25  1  0
 24 26  2  0
 26 27  1  0
  2 28  2  3
 28 29  1  0
 28 30  1  0
 30 31  2  0
 31 32  1  0
 31 33  1  0
 33 34  1  0
 33 35  2  0
 35 36  1  0
 35 37  1  0
 37 38  1  0
 38 39  1  0
 38 40  1  0
 38 41  1  0
 37 42  2  0
 42 43  1  0
 26  6  1  0
 42 30  1  0
 22 16  1  0
M  CHG  1   5  -1
M  END
>  <UniqueID>  (76) 
68

>  <SMILES>  (76) 
O=C(C=Cc1cccc(C(F)(F)F)c1)[N-]c1ccc(S(=O)(=O)/N=c2/[nH]ccs2)cc1

>  <Energy>  (76) 
89.46611778626531

>  <Genealogy>  (76) 
O=C(C=Cc1cccc(C(F)(F)F)c1)[N-]c1ccc(S(=O)(=O)N=c2[nH]ccs2)cc1 (protonated)
O=C(C=Cc1cccc(C(F)(F)F)c1)[N-]c1ccc(S(=O)(=O)/N=c2/[nH]ccs2)cc1 (cis-trans isomerization)
O=C(C=Cc1cccc(C(F)(F)F)c1)[N-]c1ccc(S(=O)(=O)/N=c2/[nH]ccs2)cc1 (3D coordinates assigned)
O=C(C=Cc1cccc(C(F)(F)F)c1)[N-]c1ccc(S(=O)(=O)/N=c2/[nH]ccs2)cc1 (optimized conformer: 89.46611778626531 kcal/mol)

>  <smiles>  (76) 
O=C(C=Cc1cccc(C(F)(F)F)c1)Nc1ccc(S(=O)(=O)N=c2[nH]ccs2)cc1

>  <score_type>  (76) 
oracle

>  <origin>  (76) 
adg

>  <m_score__min__energy>  (76) 
-9.7300000000000004

>  <m_primary>  (76) 
energy

$$$$
76:0
     RDKit          3D

 39 42  0  0  0  0  0  0  0  0999 V2000
   61.0030   28.1830   45.2600 C   0  0  0  0  0  0  0  0  0  0  0  0
   59.6900   28.8040   45.1180 N   0  0  0  0  0  0  0  0  0  0  0  0
   59.4500   30.1080   44.8570 C   0  0  0  0  0  0  0  0  0  0  0  0
   58.0810   30.3380   44.8150 C   0  0  0  0  0  0  0  0  0  0  0  0
   57.4200   31.6710   44.6330 C   0  0  0  0  0  0  0  0  0  0  0  0
   58.3100   32.7540   45.1510 C   0  0  0  0  0  0  0  0  0  0  0  0
   59.3470   32.5270   45.9840 N   0  0  0  0  0  0  0  0  0  0  0  0
   59.9640   33.6790   46.3710 C   0  0  0  0  0  0  0  0  0  0  0  0
   61.1280   33.6600   47.2940 C   0  0  0  0  0  0  0  0  0  0  0  0
   60.9770   33.8840   48.6780 C   0  0  0  0  0  0  0  0  0  0  0  0
   62.0880   33.8620   49.5270 C   0  0  0  0  0  0  0  0  0  0  0  0
   63.3620   33.6190   49.0090 C   0  0  0  0  0  0  0  0  0  0  0  0
   64.4380   33.5990   49.8350 F   0  0  0  0  0  0  0  0  0  0  0  0
   63.5280   33.4000   47.6400 C   0  0  0  0  0  0  0  0  0  0  0  0
   62.4210   33.4220   46.7860 C   0  0  0  0  0  0  0  0  0  0  0  0
   59.3920   34.8420   45.8450 C   0  0  0  0  0  0  0  0  0  0  0  0
   58.0910   34.3950   44.8800 S   0  0  0  0  0  0  0  0  0  0  0  0
   57.4840   29.1200   45.0960 C   0  0  0  0  0  0  0  0  0  0  0  0
   58.4910   28.2110   45.2890 C   0  0  0  0  0  0  0  0  0  0  0  0
   58.2290   26.7470   45.5340 C   0  0  0  0  0  0  0  0  0  0  0  0
   56.8650   26.5520   46.2350 C   0  0  0  0  0  0  0  0  0  0  0  0
   55.8110   27.3770   45.6290 N   0  0  0  0  0  0  0  0  0  0  0  0
   56.0810   28.7180   45.2050 C   0  0  0  0  0  0  0  0  0  0  0  0
   55.1390   29.4940   44.8990 O   0  0  0  0  0  0  0  0  0  0  0  0
   61.2417   28.0701   46.3278 H   0  0  0  0  0  0  0  0  0  0  0  0
   60.9945   27.1935   44.7796 H   0  0  0  0  0  0  0  0  0  0  0  0
   61.7625   28.8173   44.7796 H   0  0  0  0  0  0  0  0  0  0  0  0
   60.2241   30.8737   44.7009 H   0  0  0  0  0  0  0  0  0  0  0  0
   57.2255   31.8389   43.5634 H   0  0  0  0  0  0  0  0  0  0  0  0
   56.4713   31.6842   45.1895 H   0  0  0  0  0  0  0  0  0  0  0  0
   59.9770   34.0777   49.0933 H   0  0  0  0  0  0  0  0  0  0  0  0
   61.9582   34.0365   50.6053 H   0  0  0  0  0  0  0  0  0  0  0  0
   64.5318   33.2097   47.2324 H   0  0  0  0  0  0  0  0  0  0  0  0
   62.5605   33.2521   45.7082 H   0  0  0  0  0  0  0  0  0  0  0  0
   59.7344   35.8707   46.0308 H   0  0  0  0  0  0  0  0  0  0  0  0
   58.2210   26.2145   44.5715 H   0  0  0  0  0  0  0  0  0  0  0  0
   59.0228   26.3466   46.1817 H   0  0  0  0  0  0  0  0  0  0  0  0
   56.5750   25.4936   46.1592 H   0  0  0  0  0  0  0  0  0  0  0  0
   56.9758   26.8604   47.2851 H   0  0  0  0  0  0  0  0  0  0  0  0
  1  2  1  0
  2  3  1  0
  3  4  2  0
  4  5  1  0
  5  6  1  0
  6  7  2  0
  7  8  1  0
  8  9  1  0
  9 10  2  0
 10 11  1  0
 11 12  2  0
 12 13  1  0
 12 14  1  0
 14 15  2  0
  8 16  2  0
 16 17  1  0
  4 18  1  0
 18 19  2  0
 19 20  1  0
 20 21  1  0
 21 22  1  0
 22 23  1  0
 23 24  2  0
 19  2  1  0
 17  6  1  0
 23 18  1  0
 15  9  1  0
  1 25  1  0
  1 26  1  0
  1 27  1  0
  3 28  1  0
  5 29  1  0
  5 30  1  0
 10 31  1  0
 11 32  1  0
 14 33  1  0
 15 34  1  0
 16 35  1  0
 20 36  1  0
 20 37  1  0
 21 38  1  0
 21 39  1  0
M  CHG  1  22  -1
M  END
>  <UniqueID>  (77) 
69

>  <SMILES>  (77) 
Cn1cc(Cc2nc(-c3ccc(F)cc3)cs2)c2c1CC[N-]C2=O

>  <Energy>  (77) 
101.17692445663275

>  <Genealogy>  (77) 
Cn1cc(Cc2nc(-c3ccc(F)cc3)cs2)c2c1CC[N-]C2=O (protonated)
Cn1cc(Cc2nc(-c3ccc(F)cc3)cs2)c2c1CC[N-]C2=O (3D coordinates assigned)
Cn1cc(Cc2nc(-c3ccc(F)cc3)cs2)c2c1CC[N-]C2=O (nonaromatic ring conformer: 101.17692445663275 kcal/mol)

>  <smiles>  (77) 
Cn1cc(Cc2nc(-c3ccc(F)cc3)cs2)c2c1CCNC2=O

>  <score_type>  (77) 
oracle

>  <origin>  (77) 
adg

>  <m_score__min__energy>  (77) 
-10.609999999999999

>  <m_primary>  (77) 
energy

$$$$
77:0
     RDKit          3D

 42 44  0  0  0  0  0  0  0  0999 V2000
   60.4450   27.0930   48.0890 C   0  0  0  0  0  0  0  0  0  0  0  0
   59.8680   27.6190   46.8450 N   0  0  0  0  0  0  0  0  0  0  0  0
   60.7020   28.0360   45.8440 C   0  0  0  0  0  0  0  0  0  0  0  0
   60.1860   28.5230   44.6450 C   0  0  0  0  0  0  0  0  0  0  0  0
   58.8080   28.5740   44.4620 C   0  0  0  0  0  0  0  0  0  0  0  0
   57.9460   28.1480   45.4800 C   0  0  0  0  0  0  0  0  0  0  0  0
   56.4760   28.2410   45.2950 C   0  0  0  0  0  0  0  0  0  0  0  0
   55.7500   27.2710   45.6390 O   0  0  0  0  0  0  0  0  0  0  0  0
   55.8540   29.3830   44.6870 N   0  0  0  0  0  0  0  0  0  0  0  0
   56.5190   30.5110   44.0960 C   0  0  0  0  0  0  0  0  0  0  0  0
   56.6470   30.5680   42.7040 C   0  0  0  0  0  0  0  0  0  0  0  0
   57.2960   31.6460   42.0980 C   0  0  0  0  0  0  0  0  0  0  0  0
   57.8250   32.6760   42.8810 C   0  0  0  0  0  0  0  0  0  0  0  0
   57.6940   32.6480   44.2770 C   0  0  0  0  0  0  0  0  0  0  0  0
   58.2880   33.6950   45.0680 N   0  0  0  0  0  0  0  0  0  0  0  0
   59.2890   33.4440   46.0630 C   0  0  0  0  0  0  0  0  0  0  0  0
   59.6260   32.1180   46.3710 C   0  0  0  0  0  0  0  0  0  0  0  0
   60.5760   31.8430   47.3570 C   0  0  0  0  0  0  0  0  0  0  0  0
   61.2010   32.8900   48.0370 C   0  0  0  0  0  0  0  0  0  0  0  0
   60.8790   34.2150   47.7310 C   0  0  0  0  0  0  0  0  0  0  0  0
   59.9290   34.5050   46.7400 C   0  0  0  0  0  0  0  0  0  0  0  0
   59.6270   35.8700   46.4280 N   0  0  0  0  0  0  0  0  0  0  0  0
   57.0080   31.5750   44.8750 C   0  0  0  0  0  0  0  0  0  0  0  0
   58.5050   27.6540   46.6790 C   0  0  0  0  0  0  0  0  0  0  0  0
   57.7460   27.2620   47.6080 O   0  0  0  0  0  0  0  0  0  0  0  0
   59.9399   27.5535   48.9509 H   0  0  0  0  0  0  0  0  0  0  0  0
   60.3086   26.0021   48.1239 H   0  0  0  0  0  0  0  0  0  0  0  0
   61.5187   27.3295   48.1239 H   0  0  0  0  0  0  0  0  0  0  0  0
   61.7915   27.9863   45.9873 H   0  0  0  0  0  0  0  0  0  0  0  0
   60.8635   28.8648   43.8487 H   0  0  0  0  0  0  0  0  0  0  0  0
   58.3942   28.9501   43.5147 H   0  0  0  0  0  0  0  0  0  0  0  0
   56.2341   29.7591   42.0833 H   0  0  0  0  0  0  0  0  0  0  0  0
   57.3910   31.6846   41.0028 H   0  0  0  0  0  0  0  0  0  0  0  0
   58.3480   33.5149   42.3986 H   0  0  0  0  0  0  0  0  0  0  0  0
   58.1740   34.6850   44.7500 H   0  0  0  0  0  0  0  0  0  0  0  0
   59.1398   31.2906   45.8334 H   0  0  0  0  0  0  0  0  0  0  0  0
   60.8320   30.8007   47.5980 H   0  0  0  0  0  0  0  0  0  0  0  0
   61.9478   32.6717   48.8146 H   0  0  0  0  0  0  0  0  0  0  0  0
   61.3736   35.0361   48.2706 H   0  0  0  0  0  0  0  0  0  0  0  0
   59.8200   36.2700   45.4830 H   0  0  0  0  0  0  0  0  0  0  0  0
   59.2160   36.5020   47.1500 H   0  0  0  0  0  0  0  0  0  0  0  0
   56.8524   31.5682   45.9639 H   0  0  0  0  0  0  0  0  0  0  0  0
  1  2  1  0
  2  3  1  0
  3  4  2  0
  4  5  1  0
  5  6  2  0
  6  7  1  0
  7  8  2  0
  7  9  1  0
  9 10  1  0
 10 11  2  0
 11 12  1  0
 12 13  2  0
 13 14  1  0
 14 15  1  0
 15 16  1  0
 16 17  2  0
 17 18  1  0
 18 19  2  0
 19 20  1  0
 20 21  2  0
 21 22  1  0
 14 23  2  0
  6 24  1  0
 24 25  2  0
 24  2  1  0
 23 10  1  0
 21 16  1  0
  1 26  1  0
  1 27  1  0
  1 28  1  0
  3 29  1  0
  4 30  1  0
  5 31  1  0
 11 32  1  0
 12 33  1  0
 13 34  1  0
 15 35  1  0
 17 36  1  0
 18 37  1  0
 19 38  1  0
 20 39  1  0
 22 40  1  0
 22 41  1  0
 23 42  1  0
M  CHG  1   9  -1
M  END
>  <UniqueID>  (78) 
70

>  <SMILES>  (78) 
Cn1cccc(C(=O)[N-]c2cccc(Nc3ccccc3N)c2)c1=O

>  <Energy>  (78) 
58.50607924917235

>  <Genealogy>  (78) 
Cn1cccc(C(=O)[N-]c2cccc(Nc3ccccc3N)c2)c1=O (protonated)
Cn1cccc(C(=O)[N-]c2cccc(Nc3ccccc3N)c2)c1=O (3D coordinates assigned)
Cn1cccc(C(=O)[N-]c2cccc(Nc3ccccc3N)c2)c1=O (optimized conformer: 58.50607924917235 kcal/mol)

>  <smiles>  (78) 
Cn1cccc(C(=O)Nc2cccc(Nc3ccccc3N)c2)c1=O

>  <score_type>  (78) 
oracle

>  <origin>  (78) 
adg

>  <m_score__min__energy>  (78) 
-9.75

>  <m_primary>  (78) 
energy

$$$$
78:0
     RDKit          3D

 54 57  0  0  1  0  0  0  0  0999 V2000
   57.7790   27.3970   45.4190 C   0  0  0  0  0  0  0  0  0  0  0  0
   59.4640   27.9780   45.6110 S   0  0  0  0  0  0  0  0  0  0  0  0
   60.3690   26.7950   45.6450 O   0  0  0  0  0  0  0  0  0  0  0  0
   59.8650   28.8950   44.4920 O   0  0  0  0  0  0  0  0  0  0  0  0
   59.5940   28.8250   47.1580 C   0  0  0  0  0  0  0  0  0  0  0  0
   60.4990   28.4030   48.1240 C   0  0  0  0  0  0  0  0  0  0  0  0
   60.5620   29.0930   49.3110 C   0  0  0  0  0  0  0  0  0  0  0  0
   59.7550   30.1980   49.5780 C   0  0  0  0  0  0  0  0  0  0  0  0
   58.8790   30.5620   48.5730 C   0  0  0  0  0  0  0  0  0  0  0  0
   58.7630   29.9280   47.3800 C   0  0  0  0  0  0  0  0  0  0  0  0
   57.8610   30.3040   46.3480 N   0  0  0  0  0  0  0  0  0  0  0  0
   58.1250   31.4050   45.7300 C   0  0  0  0  0  0  0  0  0  0  0  0
   58.9260   32.3650   46.2300 N   0  0  0  0  0  0  0  0  0  0  0  0
   59.1200   33.4650   45.4850 C   0  0  0  0  0  0  0  0  0  0  0  0
   59.8820   34.4070   45.9340 N   0  0  0  0  0  0  0  0  0  0  0  0
   60.9470   34.1510   46.8440 C   0  0  0  0  0  0  0  0  0  0  0  0
   60.6420   34.2260   48.1940 C   0  0  0  0  0  0  0  0  0  0  0  0
   61.6180   33.9930   49.1560 C   0  0  0  0  0  0  0  0  0  0  0  0
   62.9040   33.6820   48.7620 C   0  0  0  0  0  0  0  0  0  0  0  0
   63.9880   33.4220   49.7010 C   0  0  0  0  0  0  0  0  0  0  0  0
   63.9660   33.8710   50.8960 O   0  0  0  0  0  0  0  0  0  0  0  0
   65.1380   32.6590   49.3590 N   0  0  0  0  0  0  0  0  0  0  0  0
   66.1930   32.4160   50.2990 C   0  0  0  0  0  0  0  0  0  0  0  0
   67.0790   33.4740   50.4960 C   0  0  0  0  0  0  0  0  0  0  0  0
   68.1320   33.3130   51.3950 C   0  0  0  0  0  0  0  0  0  0  0  0
   68.2490   32.1080   52.0520 C   0  0  0  0  0  0  0  0  0  0  0  0
   67.3740   31.0570   51.8600 C   0  0  0  0  0  0  0  0  0  0  0  0
   66.3240   31.2140   50.9650 C   0  0  0  0  0  0  0  0  0  0  0  0
   63.1900   33.6120   47.4150 C   0  0  0  0  0  0  0  0  0  0  0  0
   62.2300   33.8420   46.4360 C   0  0  0  0  0  0  0  0  0  0  0  0
   58.5650   33.6620   44.2790 N   0  0  0  0  0  0  0  0  0  0  0  0
   57.7590   32.7250   43.7470 C   0  0  0  0  0  0  0  0  0  0  0  0
   57.5460   31.5850   44.4970 C   0  0  0  0  0  0  0  0  0  0  0  0
   56.4970   30.3440   43.8230 Cl  0  0  0  0  0  0  0  0  0  0  0  0
   57.3293   27.2420   46.4109 H   0  0  0  0  0  0  0  0  0  0  0  0
   57.1941   28.1454   44.8642 H   0  0  0  0  0  0  0  0  0  0  0  0
   57.7796   26.4472   44.8642 H   0  0  0  0  0  0  0  0  0  0  0  0
   61.1508   27.5357   47.9428 H   0  0  0  0  0  0  0  0  0  0  0  0
   61.2759   28.7609   50.0791 H   0  0  0  0  0  0  0  0  0  0  0  0
   59.8120   30.7463   50.5299 H   0  0  0  0  0  0  0  0  0  0  0  0
   58.2279   31.4299   48.7542 H   0  0  0  0  0  0  0  0  0  0  0  0
   59.3680   32.2330   47.1650 H   0  0  0  0  0  0  0  0  0  0  0  0
   59.6168   34.4725   48.5074 H   0  0  0  0  0  0  0  0  0  0  0  0
   61.3670   34.0561   50.2251 H   0  0  0  0  0  0  0  0  0  0  0  0
   65.2370   32.2550   48.4030 H   0  0  0  0  0  0  0  0  0  0  0  0
   66.9493   34.4206   49.9508 H   0  0  0  0  0  0  0  0  0  0  0  0
   68.8503   34.1264   51.5750 H   0  0  0  0  0  0  0  0  0  0  0  0
   69.0782   31.9767   52.7628 H   0  0  0  0  0  0  0  0  0  0  0  0
   67.5065   30.1117   52.4067 H   0  0  0  0  0  0  0  0  0  0  0  0
   65.6099   30.3958   50.7900 H   0  0  0  0  0  0  0  0  0  0  0  0
   64.2156   33.3650   47.1034 H   0  0  0  0  0  0  0  0  0  0  0  0
   62.4847   33.7797   45.3677 H   0  0  0  0  0  0  0  0  0  0  0  0
   58.7470   34.5420   43.7330 H   0  0  0  0  0  0  0  0  0  0  0  0
   57.2915   32.8607   42.7606 H   0  0  0  0  0  0  0  0  0  0  0  0
  1  2  1  0
  2  3  2  0
  2  4  2  0
  2  5  1  0
  5  6  2  0
  6  7  1  0
  7  8  2  0
  8  9  1  0
  9 10  2  0
 10 11  1  0
 11 12  2  0
 12 13  1  0
 13 14  1  0
 14 15  2  0
 15 16  1  0
 16 17  2  0
 17 18  1  0
 18 19  2  0
 19 20  1  0
 20 21  2  0
 20 22  1  0
 22 23  1  0
 23 24  2  0
 24 25  1  0
 25 26  2  0
 26 27  1  0
 27 28  2  0
 19 29  1  0
 29 30  2  0
 14 31  1  0
 31 32  1  0
 32 33  2  0
 33 34  1  0
 10  5  1  0
 33 12  1  0
 30 16  1  0
 28 23  1  0
  1 35  1  0
  1 36  1  0
  1 37  1  0
  6 38  1  0
  7 39  1  0
  8 40  1  0
  9 41  1  0
 13 42  1  0
 17 43  1  0
 18 44  1  0
 22 45  1  0
 24 46  1  0
 25 47  1  0
 26 48  1  0
 27 49  1  0
 28 50  1  0
 29 51  1  0
 30 52  1  0
 31 53  1  0
 32 54  1  0
M  END
>  <smiles>  (79) 
CS(=O)(=O)c1ccccc1N=c1[nH]c(=Nc2ccc(C(=O)Nc3ccccc3)cc2)[nH]cc1Cl

>  <score_type>  (79) 
oracle

>  <origin>  (79) 
adg

>  <m_score__min__energy>  (79) 
-10.49

>  <m_primary>  (79) 
energy

$$$$
79:0
     RDKit          3D

 38 39  0  0  0  0  0  0  0  0999 V2000
   60.2800   31.0240   50.6860 C   0  0  0  0  0  0  0  0  0  0  0  0
   59.1630   31.9890   50.2460 C   0  0  2  0  0  0  0  0  0  0  0  0
   59.7490   33.3100   49.7120 C   0  0  0  0  0  0  0  0  0  0  0  0
   59.2670   33.6290   48.3190 C   0  0  0  0  0  0  0  0  0  0  0  0
   59.8940   34.6310   47.5600 C   0  0  0  0  0  0  0  0  0  0  0  0
   59.4570   34.9070   46.2600 C   0  0  0  0  0  0  0  0  0  0  0  0
   58.3950   34.1850   45.7090 C   0  0  0  0  0  0  0  0  0  0  0  0
   57.7690   33.1830   46.4570 C   0  0  0  0  0  0  0  0  0  0  0  0
   58.2030   32.9030   47.7560 C   0  0  0  0  0  0  0  0  0  0  0  0
   58.2570   32.3050   51.3670 N   0  0  0  0  0  0  0  0  0  0  0  0
   57.2260   30.9610   51.7640 S   0  0  0  0  0  0  0  0  0  0  0  0
   57.5250   29.8050   50.8520 O   0  0  0  0  0  0  0  0  0  0  0  0
   57.5050   30.5290   53.1770 O   0  0  0  0  0  0  0  0  0  0  0  0
   55.5510   31.3970   51.6400 N   0  0  0  0  0  0  0  0  0  0  0  0
   54.4350   30.6190   52.0900 C   0  0  0  0  0  0  0  0  0  0  0  0
   54.5810   29.3750   52.2120 O   0  0  0  0  0  0  0  0  0  0  0  0
   53.0940   31.2190   52.4000 C   0  0  0  0  0  0  0  0  0  0  0  0
   52.2620   31.3000   51.1560 C   0  0  0  0  0  0  0  0  0  0  0  0
   52.2650   30.3740   50.1820 N   0  0  0  0  0  0  0  0  0  0  0  0
   51.3420   30.8380   49.3100 C   0  0  0  0  0  0  0  0  0  0  0  0
   51.0560   30.2360   48.2440 O   0  0  0  0  0  0  0  0  0  0  0  0
   50.7470   31.9940   49.6760 N   0  0  0  0  0  0  0  0  0  0  0  0
   51.3380   32.2710   50.8480 C   0  0  0  0  0  0  0  0  0  0  0  0
   51.0370   33.3840   51.6240 O   0  0  0  0  0  0  0  0  0  0  0  0
   60.3217   30.9880   51.7846 H   0  0  0  0  0  0  0  0  0  0  0  0
   60.0708   30.0178   50.2938 H   0  0  0  0  0  0  0  0  0  0  0  0
   61.2451   31.3771   50.2938 H   0  0  0  0  0  0  0  0  0  0  0  0
   58.6017   31.4808   49.4481 H   0  0  0  0  0  0  0  0  0  0  0  0
   59.4504   34.1270   50.3853 H   0  0  0  0  0  0  0  0  0  0  0  0
   60.8429   33.2009   49.6726 H   0  0  0  0  0  0  0  0  0  0  0  0
   60.7314   35.2006   47.9893 H   0  0  0  0  0  0  0  0  0  0  0  0
   59.9503   35.6938   45.6705 H   0  0  0  0  0  0  0  0  0  0  0  0
   58.0516   34.4048   44.6873 H   0  0  0  0  0  0  0  0  0  0  0  0
   56.9337   32.6142   46.0225 H   0  0  0  0  0  0  0  0  0  0  0  0
   57.7101   32.1116   48.3398 H   0  0  0  0  0  0  0  0  0  0  0  0
   58.7920   32.5860   52.2200 H   0  0  0  0  0  0  0  0  0  0  0  0
   52.5781   30.5915   53.1417 H   0  0  0  0  0  0  0  0  0  0  0  0
   53.2390   32.2330   52.8010 H   0  0  0  0  0  0  0  0  0  0  0  0
  1  2  1  0
  2  3  1  0
  3  4  1  0
  4  5  2  0
  5  6  1  0
  6  7  2  0
  7  8  1  0
  8  9  2  0
  2 10  1  0
 10 11  1  0
 11 12  2  0
 11 13  2  0
 11 14  1  0
 14 15  1  0
 15 16  2  0
 15 17  1  0
 17 18  1  0
 18 19  1  0
 19 20  1  0
 20 21  2  0
 20 22  1  0
 22 23  1  0
 23 24  1  0
  9  4  1  0
 23 18  2  0
  1 25  1  0
  1 26  1  0
  1 27  1  0
  2 28  1  6
  3 29  1  0
  3 30  1  0
  5 31  1  0
  6 32  1  0
  7 33  1  0
  8 34  1  0
  9 35  1  0
 10 36  1  0
 17 37  1  0
 17 38  1  0
M  CHG  4  14  -1  19  -1  22  -1  24  -1
M  END
>  <UniqueID>  (80) 
71

>  <SMILES>  (80) 
C[C@H](Cc1ccccc1)NS(=O)(=O)[N-]C(=O)Cc1[n-]c(=O)[n-]c1[O-]

>  <Energy>  (80) 
63.752530224623136

>  <Genealogy>  (80) 
CC(Cc1ccccc1)NS(=O)(=O)[N-]C(=O)Cc1[n-]c(=O)[n-]c1[O-] (protonated)
C[C@H](Cc1ccccc1)NS(=O)(=O)[N-]C(=O)Cc1[n-]c(=O)[n-]c1[O-] (chirality)
C[C@H](Cc1ccccc1)NS(=O)(=O)[N-]C(=O)Cc1[n-]c(=O)[n-]c1[O-] (3D coordinates assigned)
C[C@H](Cc1ccccc1)NS(=O)(=O)[N-]C(=O)Cc1[n-]c(=O)[n-]c1[O-] (optimized conformer: 63.752530224623136 kcal/mol)

>  <smiles>  (80) 
CC(Cc1ccccc1)NS(=O)(=O)NC(=O)Cc1[nH]c(=O)[nH]c1O

>  <score_type>  (80) 
oracle

>  <origin>  (80) 
adg

>  <m_score__min__energy>  (80) 
-17.780000000000001

>  <m_primary>  (80) 
energy

$$$$
80:0
     RDKit          3D

 60 64  0  0  0  0  0  0  0  0999 V2000
   56.3940   30.0840   44.9460 O   0  0  0  0  0  0  0  0  0  0  0  0
   57.5890   30.4730   45.0410 C   0  0  0  0  0  0  0  0  0  0  0  0
   58.6650   29.5400   44.8620 N   0  0  0  0  0  0  0  0  0  0  0  0
   58.7240   28.2070   45.3910 C   0  0  0  0  0  0  0  0  0  0  0  0
   59.9760   27.6030   45.5530 C   0  0  0  0  0  0  0  0  0  0  0  0
   60.0740   26.3130   46.0790 C   0  0  0  0  0  0  0  0  0  0  0  0
   58.9210   25.6180   46.4530 C   0  0  0  0  0  0  0  0  0  0  0  0
   57.6570   26.2140   46.3110 C   0  0  0  0  0  0  0  0  0  0  0  0
   56.4170   25.4660   46.7310 C   0  0  0  0  0  0  0  0  0  0  0  0
   56.6420   23.9750   46.6850 C   0  0  0  0  0  0  0  0  0  0  0  0
   57.1070   23.3660   47.8100 N   0  0  0  0  0  0  0  0  0  0  0  0
   57.3540   22.0580   47.8580 N   0  0  0  0  0  0  0  0  0  0  0  0
   57.1610   21.2570   46.7810 C   0  0  0  0  0  0  0  0  0  0  0  0
   57.3940   20.0220   46.8770 O   0  0  0  0  0  0  0  0  0  0  0  0
   56.7040   21.8160   45.5790 C   0  0  0  0  0  0  0  0  0  0  0  0
   56.4370   23.1940   45.5230 C   0  0  0  0  0  0  0  0  0  0  0  0
   55.8800   23.7410   44.2280 C   0  0  0  0  0  0  0  0  0  0  0  0
   56.6620   23.1960   43.0210 C   0  0  0  0  0  0  0  0  0  0  0  0
   56.9700   21.6770   43.0900 C   0  0  0  0  0  0  0  0  0  0  0  0
   56.4360   20.9780   44.3510 C   0  0  0  0  0  0  0  0  0  0  0  0
   57.5670   27.5200   45.8000 C   0  0  0  0  0  0  0  0  0  0  0  0
   57.8780   31.8630   45.2800 N   0  0  0  0  0  0  0  0  0  0  0  0
   59.2620   32.3500   45.2070 C   0  0  0  0  0  0  0  0  0  0  0  0
   59.2990   33.8770   45.0490 C   0  0  0  0  0  0  0  0  0  0  0  0
   58.4940   34.5850   46.0750 N   0  0  0  0  0  0  0  0  0  0  0  0
   59.2930   35.2650   47.1200 C   0  0  0  0  0  0  0  0  0  0  0  0
   60.2040   34.3350   47.8870 C   0  0  0  0  0  0  0  0  0  0  0  0
   61.4380   33.8810   47.3920 C   0  0  0  0  0  0  0  0  0  0  0  0
   62.1070   33.0280   48.2590 C   0  0  0  0  0  0  0  0  0  0  0  0
   61.1560   32.8240   49.6270 S   0  0  0  0  0  0  0  0  0  0  0  0
   59.8900   33.8140   49.1400 C   0  0  0  0  0  0  0  0  0  0  0  0
   57.3310   33.8430   46.6120 C   0  0  0  0  0  0  0  0  0  0  0  0
   56.8020   32.8050   45.6190 C   0  0  0  0  0  0  0  0  0  0  0  0
   60.8875   28.1471   45.2646 H   0  0  0  0  0  0  0  0  0  0  0  0
   61.0612   25.8430   46.1991 H   0  0  0  0  0  0  0  0  0  0  0  0
   59.0035   24.5996   46.8605 H   0  0  0  0  0  0  0  0  0  0  0  0
   56.1515   25.7580   47.7578 H   0  0  0  0  0  0  0  0  0  0  0  0
   55.6034   25.7187   46.0352 H   0  0  0  0  0  0  0  0  0  0  0  0
   54.8244   23.4454   44.1366 H   0  0  0  0  0  0  0  0  0  0  0  0
   55.9722   24.8371   44.2408 H   0  0  0  0  0  0  0  0  0  0  0  0
   56.0704   23.3862   42.1134 H   0  0  0  0  0  0  0  0  0  0  0  0
   57.6327   23.7133   43.0162 H   0  0  0  0  0  0  0  0  0  0  0  0
   56.5180   21.1939   42.2112 H   0  0  0  0  0  0  0  0  0  0  0  0
   58.0653   21.5794   43.1166 H   0  0  0  0  0  0  0  0  0  0  0  0
   55.3516   20.8252   44.2475 H   0  0  0  0  0  0  0  0  0  0  0  0
   56.9482   20.0111   44.4636 H   0  0  0  0  0  0  0  0  0  0  0  0
   56.5847   28.0084   45.7193 H   0  0  0  0  0  0  0  0  0  0  0  0
   59.7910   32.0707   46.1301 H   0  0  0  0  0  0  0  0  0  0  0  0
   59.7487   31.8946   44.3319 H   0  0  0  0  0  0  0  0  0  0  0  0
   60.3434   34.2127   45.1296 H   0  0  0  0  0  0  0  0  0  0  0  0
   58.8656   34.1171   44.0669 H   0  0  0  0  0  0  0  0  0  0  0  0
   59.9106   36.0371   46.6379 H   0  0  0  0  0  0  0  0  0  0  0  0
   58.5820   35.6892   47.8442 H   0  0  0  0  0  0  0  0  0  0  0  0
   61.8366   34.1740   46.4095 H   0  0  0  0  0  0  0  0  0  0  0  0
   63.0893   32.5662   48.0806 H   0  0  0  0  0  0  0  0  0  0  0  0
   58.9720   34.0160   49.7114 H   0  0  0  0  0  0  0  0  0  0  0  0
   57.6344   33.3281   47.5355 H   0  0  0  0  0  0  0  0  0  0  0  0
   56.5265   34.5679   46.8052 H   0  0  0  0  0  0  0  0  0  0  0  0
   55.9633   32.2567   46.0728 H   0  0  0  0  0  0  0  0  0  0  0  0
   56.4556   33.3119   44.7063 H   0  0  0  0  0  0  0  0  0  0  0  0
  1  2  2  0
  2  3  1  0
  3  4  1  0
  4  5  2  0
  5  6  1  0
  6  7  2  0
  7  8  1  0
  8  9  1  0
  9 10  1  0
 10 11  2  0
 11 12  1  0
 12 13  1  0
 13 14  2  0
 13 15  1  0
 15 16  2  0
 16 17  1  0
 17 18  1  0
 18 19  1  0
 19 20  1  0
  8 21  2  0
  2 22  1  0
 22 23  1  0
 23 24  1  0
 24 25  1  0
 25 26  1  0
 26 27  1  0
 27 28  1  0
 28 29  2  0
 29 30  1  0
 30 31  1  0
 25 32  1  0
 32 33  1  0
 21  4  1  0
 33 22  1  0
 16 10  1  0
 31 27  2  0
 20 15  1  0
  5 34  1  0
  6 35  1  0
  7 36  1  0
  9 37  1  0
  9 38  1  0
 17 39  1  0
 17 40  1  0
 18 41  1  0
 18 42  1  0
 19 43  1  0
 19 44  1  0
 20 45  1  0
 20 46  1  0
 21 47  1  0
 23 48  1  0
 23 49  1  0
 24 50  1  0
 24 51  1  0
 26 52  1  0
 26 53  1  0
 28 54  1  0
 29 55  1  0
 31 56  1  0
 32 57  1  0
 32 58  1  0
 33 59  1  0
 33 60  1  0
M  CHG  2   3  -1  12  -1
M  END
>  <UniqueID>  (81) 
72

>  <SMILES>  (81) 
O=C([N-]c1cccc(Cc2n[n-]c(=O)c3c2CCCC3)c1)N1CCN(Cc2ccsc2)CC1

>  <Energy>  (81) 
108.66909024011942

>  <Genealogy>  (81) 
O=C([N-]c1cccc(Cc2n[n-]c(=O)c3c2CCCC3)c1)N1CCN(Cc2ccsc2)CC1 (protonated)
O=C([N-]c1cccc(Cc2n[n-]c(=O)c3c2CCCC3)c1)N1CCN(Cc2ccsc2)CC1 (3D coordinates assigned)
O=C([N-]c1cccc(Cc2n[n-]c(=O)c3c2CCCC3)c1)N1CCN(Cc2ccsc2)CC1 (nonaromatic ring conformer: 108.66909024011942 kcal/mol)

>  <smiles>  (81) 
O=C(Nc1cccc(Cc2n[nH]c(=O)c3c2CCCC3)c1)N1CCN(Cc2ccsc2)CC1

>  <score_type>  (81) 
oracle

>  <origin>  (81) 
adg

>  <m_score__min__energy>  (81) 
-14.470000000000001

>  <m_primary>  (81) 
energy

$$$$
81:0
     RDKit          3D

 47 50  0  0  0  0  0  0  0  0999 V2000
   54.7660   26.7240   47.1230 H   0  0  0  0  0  0  0  0  0  0  0  0
   55.2630   26.5410   46.2230 N   0  0  0  0  0  0  0  0  0  0  0  0
   56.3110   25.7800   46.1000 C   0  0  0  0  0  0  0  0  0  0  0  0
   56.1320   24.4290   46.0540 N   0  0  0  0  0  0  0  0  0  0  0  0
   55.1690   24.0270   46.1320 H   0  0  0  0  0  0  0  0  0  0  0  0
   57.1790   23.5830   45.9010 C   0  0  0  0  0  0  0  0  0  0  0  0
   57.0084   22.4969   45.8663 H   0  0  0  0  0  0  0  0  0  0  0  0
   58.4680   24.0880   45.7880 C   0  0  0  0  0  0  0  0  0  0  0  0
   59.3251   23.4108   45.6581 H   0  0  0  0  0  0  0  0  0  0  0  0
   58.6560   25.4660   45.8420 C   0  0  0  0  0  0  0  0  0  0  0  0
   59.8270   25.9280   45.7520 O   0  0  0  0  0  0  0  0  0  0  0  0
   57.5820   26.3060   46.0010 N   0  0  0  0  0  0  0  0  0  0  0  0
   57.8130   27.7270   46.0760 C   0  0  0  0  0  0  0  0  0  0  0  0
   57.3810   28.5660   45.0420 C   0  0  0  0  0  0  0  0  0  0  0  0
   56.8541   28.1411   44.1749 H   0  0  0  0  0  0  0  0  0  0  0  0
   57.6170   29.9410   45.1080 C   0  0  0  0  0  0  0  0  0  0  0  0
   57.2817   30.5921   44.2873 H   0  0  0  0  0  0  0  0  0  0  0  0
   58.2790   30.4990   46.2140 C   0  0  0  0  0  0  0  0  0  0  0  0
   58.5040   31.9620   46.2670 C   0  0  0  0  0  0  0  0  0  0  0  0
   58.9350   32.6160   45.1730 C   0  0  0  0  0  0  0  0  0  0  0  0
   59.0835   32.0536   44.2394 H   0  0  0  0  0  0  0  0  0  0  0  0
   59.2200   34.0930   45.1880 C   0  0  0  0  0  0  0  0  0  0  0  0
   60.2956   34.2468   45.3595 H   0  0  0  0  0  0  0  0  0  0  0  0
   58.9117   34.5117   44.2187 H   0  0  0  0  0  0  0  0  0  0  0  0
   58.4660   34.7810   46.2450 N   0  0  0  0  0  0  0  0  0  0  0  0
   58.8220   35.7630   46.3050 H   0  0  0  0  0  0  0  0  0  0  0  0
   58.7080   34.1330   47.5370 C   0  0  0  0  0  0  0  0  0  0  0  0
   59.7910   34.0817   47.7230 H   0  0  0  0  0  0  0  0  0  0  0  0
   58.2232   34.7168   48.3333 H   0  0  0  0  0  0  0  0  0  0  0  0
   58.1270   32.7170   47.5220 C   0  0  0  0  0  0  0  0  0  0  0  0
   58.5088   32.1674   48.3950 H   0  0  0  0  0  0  0  0  0  0  0  0
   57.0305   32.7998   47.5516 H   0  0  0  0  0  0  0  0  0  0  0  0
   58.7120   29.6570   47.2610 C   0  0  0  0  0  0  0  0  0  0  0  0
   59.4110   30.2080   48.3470 O   0  0  0  0  0  0  0  0  0  0  0  0
   60.5850   30.9690   48.2530 C   0  0  0  0  0  0  0  0  0  0  0  0
   60.8230   31.9580   49.2150 C   0  0  0  0  0  0  0  0  0  0  0  0
   60.0889   32.1300   50.0160 H   0  0  0  0  0  0  0  0  0  0  0  0
   61.9900   32.7290   49.1630 C   0  0  0  0  0  0  0  0  0  0  0  0
   62.1666   33.5107   49.9165 H   0  0  0  0  0  0  0  0  0  0  0  0
   62.9310   32.5060   48.1540 C   0  0  0  0  0  0  0  0  0  0  0  0
   63.8452   33.1162   48.1100 H   0  0  0  0  0  0  0  0  0  0  0  0
   62.7110   31.5090   47.2020 C   0  0  0  0  0  0  0  0  0  0  0  0
   63.4550   31.3312   46.4116 H   0  0  0  0  0  0  0  0  0  0  0  0
   61.5470   30.7360   47.2510 C   0  0  0  0  0  0  0  0  0  0  0  0
   61.3822   29.9442   46.5054 H   0  0  0  0  0  0  0  0  0  0  0  0
   58.4880   28.2730   47.1750 C   0  0  0  0  0  0  0  0  0  0  0  0
   58.8460   27.6120   47.9781 H   0  0  0  0  0  0  0  0  0  0  0  0
  1  2  1  0
  2  3  2  0
  3  4  1  0
  4  5  1  0
  4  6  1  0
  6  7  1  0
  6  8  2  0
  8  9  1  0
  8 10  1  0
 10 11  2  0
 10 12  1  0
 12 13  1  0
 13 14  2  0
 14 15  1  0
 14 16  1  0
 16 17  1  0
 16 18  2  0
 18 19  1  0
 19 20  2  0
 20 21  1  0
 20 22  1  0
 22 23  1  0
 22 24  1  0
 22 25  1  0
 25 26  1  0
 25 27  1  0
 27 28  1  0
 27 29  1  0
 27 30  1  0
 30 31  1  0
 30 32  1  0
 18 33  1  0
 33 34  1  0
 34 35  1  0
 35 36  2  0
 36 37  1  0
 36 38  1  0
 38 39  1  0
 38 40  2  0
 40 41  1  0
 40 42  1  0
 42 43  1  0
 42 44  2  0
 44 45  1  0
 33 46  2  0
 46 47  1  0
 12  3  1  0
 46 13  1  0
 30 19  1  0
 44 35  1  0
M  END
>  <UniqueID>  (82) 
73

>  <SMILES>  (82) 
[H]/N=c1/[nH]ccc(=O)n1-c1ccc(C2=CCNCC2)c(Oc2ccccc2)c1

>  <Energy>  (82) 
75.28735701616299

>  <Genealogy>  (82) 
[H]/N=c1/[nH]ccc(=O)n1-c1ccc(C2=CCNCC2)c(Oc2ccccc2)c1 (cis-trans isomerization)
[H]/N=c1/[nH]ccc(=O)n1-c1ccc(C2=CCNCC2)c(Oc2ccccc2)c1 (3D coordinates assigned)
[H]/N=c1/[nH]ccc(=O)n1-c1ccc(C2=CCNCC2)c(Oc2ccccc2)c1 (nonaromatic ring conformer: 75.28735701616299 kcal/mol)

>  <smiles>  (82) 
N=c1[nH]ccc(=O)n1-c1ccc(C2=CCNCC2)c(Oc2ccccc2)c1

>  <score_type>  (82) 
oracle

>  <origin>  (82) 
adg

>  <m_score__min__energy>  (82) 
-7.9400000000000004

>  <m_primary>  (82) 
energy

$$$$
82:0
     RDKit          3D

 56 59  0  0  0  0  0  0  0  0999 V2000
   54.3840   28.9560   44.5090 H   0  0  0  0  0  0  0  0  0  0  0  0
   55.3470   29.1430   44.7590 O   0  0  0  0  0  0  0  0  0  0  0  0
   56.2030   28.1560   45.2510 C   0  0  0  0  0  0  0  0  0  0  0  0
   55.6600   27.0420   45.8070 N   0  0  0  0  0  0  0  0  0  0  0  0
   56.4410   26.0490   46.3030 C   0  0  0  0  0  0  0  0  0  0  0  0
   55.9110   25.0280   46.8100 O   0  0  0  0  0  0  0  0  0  0  0  0
   57.7930   26.1590   46.2570 N   0  0  0  0  0  0  0  0  0  0  0  0
   58.3900   27.2510   45.7150 C   0  0  0  0  0  0  0  0  0  0  0  0
   59.6480   27.3250   45.7030 O   0  0  0  0  0  0  0  0  0  0  0  0
   57.6030   28.2830   45.1740 C   0  0  0  0  0  0  0  0  0  0  0  0
   58.2280   29.4990   44.6180 C   0  0  0  0  0  0  0  0  0  0  0  0
   58.2468   29.5992   43.5227 H   0  0  0  0  0  0  0  0  0  0  0  0
   58.7770   30.4960   45.3370 C   0  0  0  0  0  0  0  0  0  0  0  0
   58.1240   31.6980   45.5650 C   0  0  0  0  0  0  0  0  0  0  0  0
   57.1385   31.9916   45.1743 H   0  0  0  0  0  0  0  0  0  0  0  0
   58.9440   32.4550   46.3740 C   0  0  0  0  0  0  0  0  0  0  0  0
   58.5960   33.8100   46.9140 C   0  0  0  0  0  0  0  0  0  0  0  0
   58.6038   33.7796   48.0136 H   0  0  0  0  0  0  0  0  0  0  0  0
   59.3344   34.5456   46.5623 H   0  0  0  0  0  0  0  0  0  0  0  0
   57.5945   34.0988   46.5623 H   0  0  0  0  0  0  0  0  0  0  0  0
   60.0780   31.7780   46.6560 N   0  0  0  0  0  0  0  0  0  0  0  0
   61.1640   32.2660   47.4620 C   0  0  0  0  0  0  0  0  0  0  0  0
   62.1130   33.1300   46.8990 C   0  0  0  0  0  0  0  0  0  0  0  0
   62.0218   33.4315   45.8451 H   0  0  0  0  0  0  0  0  0  0  0  0
   63.1740   33.6100   47.6700 C   0  0  0  0  0  0  0  0  0  0  0  0
   63.9129   34.2927   47.2251 H   0  0  0  0  0  0  0  0  0  0  0  0
   63.2960   33.2230   49.0050 C   0  0  0  0  0  0  0  0  0  0  0  0
   64.1345   33.5982   49.6101 H   0  0  0  0  0  0  0  0  0  0  0  0
   62.3560   32.3600   49.5760 C   0  0  0  0  0  0  0  0  0  0  0  0
   62.4613   32.0539   50.6273 H   0  0  0  0  0  0  0  0  0  0  0  0
   61.2730   31.8800   48.8100 C   0  0  0  0  0  0  0  0  0  0  0  0
   60.2980   31.0140   49.3380 O   0  0  0  0  0  0  0  0  0  0  0  0
   58.9110   31.3150   49.4910 C   0  0  0  0  0  0  0  0  0  0  0  0
   58.8039   32.3453   49.8613 H   0  0  0  0  0  0  0  0  0  0  0  0
   58.4161   31.2066   48.5146 H   0  0  0  0  0  0  0  0  0  0  0  0
   58.2520   30.3500   50.4880 C   0  0  0  0  0  0  0  0  0  0  0  0
   57.2654   30.0565   50.1000 H   0  0  0  0  0  0  0  0  0  0  0  0
   58.9093   29.4753   50.6015 H   0  0  0  0  0  0  0  0  0  0  0  0
   58.0770   30.9700   51.8230 N   0  0  0  0  0  0  0  0  0  0  0  0
   58.2020   29.9730   52.9160 C   0  0  0  0  0  0  0  0  0  0  0  0
   58.8483   29.1522   52.5718 H   0  0  0  0  0  0  0  0  0  0  0  0
   58.6298   30.4877   53.7889 H   0  0  0  0  0  0  0  0  0  0  0  0
   56.8390   29.3840   53.3420 C   0  0  0  0  0  0  0  0  0  0  0  0
   56.9780   28.3361   53.6461 H   0  0  0  0  0  0  0  0  0  0  0  0
   56.4451   29.9767   54.1808 H   0  0  0  0  0  0  0  0  0  0  0  0
   55.9160   29.4380   52.2770 O   0  0  0  0  0  0  0  0  0  0  0  0
   55.5810   30.7850   51.9870 C   0  0  0  0  0  0  0  0  0  0  0  0
   55.0895   30.8196   51.0035 H   0  0  0  0  0  0  0  0  0  0  0  0
   54.9189   31.1387   52.7910 H   0  0  0  0  0  0  0  0  0  0  0  0
   56.8120   31.7240   51.9560 C   0  0  0  0  0  0  0  0  0  0  0  0
   56.7150   32.4095   51.1012 H   0  0  0  0  0  0  0  0  0  0  0  0
   56.8430   32.2772   52.9063 H   0  0  0  0  0  0  0  0  0  0  0  0
   60.0090   30.5860   46.0100 C   0  0  0  0  0  0  0  0  0  0  0  0
   61.0150   29.6960   46.0030 C   0  0  0  0  0  0  0  0  0  0  0  0
   61.9301   29.8958   46.5797 H   0  0  0  0  0  0  0  0  0  0  0  0
   60.9237   28.7673   45.4206 H   0  0  0  0  0  0  0  0  0  0  0  0
  1  2  1  0
  2  3  1  0
  3  4  1  0
  4  5  1  0
  5  6  2  0
  5  7  1  0
  7  8  1  0
  8  9  2  0
  8 10  1  0
 10 11  1  0
 11 12  1  0
 11 13  2  0
 13 14  1  0
 14 15  1  0
 14 16  2  0
 16 17  1  0
 17 18  1  0
 17 19  1  0
 17 20  1  0
 16 21  1  0
 21 22  1  0
 22 23  2  0
 23 24  1  0
 23 25  1  0
 25 26  1  0
 25 27  2  0
 27 28  1  0
 27 29  1  0
 29 30  1  0
 29 31  2  0
 31 32  1  0
 32 33  1  0
 33 34  1  0
 33 35  1  0
 33 36  1  0
 36 37  1  0
 36 38  1  0
 36 39  1  0
 39 40  1  0
 40 41  1  0
 40 42  1  0
 40 43  1  0
 43 44  1  0
 43 45  1  0
 43 46  1  0
 46 47  1  0
 47 48  1  0
 47 49  1  0
 47 50  1  0
 50 51  1  0
 50 52  1  0
 21 53  1  0
 53 54  2  0
 54 55  1  0
 54 56  1  0
 10  3  2  0
 53 13  1  0
 31 22  1  0
 50 39  1  0
M  CHG  2   4  -1   7  -1
M  END
>  <UniqueID>  (83) 
74

>  <SMILES>  (83) 
C=c1/c(=C\c2c(O)[n-]c(=O)[n-]c2=O)cc(C)n1-c1ccccc1OCCN1CCOCC1

>  <Energy>  (83) 
120.45534516410281

>  <Genealogy>  (83) 
C=c1c(=Cc2c(O)[n-]c(=O)[n-]c2=O)cc(C)n1-c1ccccc1OCCN1CCOCC1 (protonated)
C=c1/c(=C\c2c(O)[n-]c(=O)[n-]c2=O)cc(C)n1-c1ccccc1OCCN1CCOCC1 (cis-trans isomerization)
C=c1/c(=C\c2c(O)[n-]c(=O)[n-]c2=O)cc(C)n1-c1ccccc1OCCN1CCOCC1 (3D coordinates assigned)
C=c1/c(=C\c2c(O)[n-]c(=O)[n-]c2=O)cc(C)n1-c1ccccc1OCCN1CCOCC1 (nonaromatic ring conformer: 120.45534516410281 kcal/mol)

>  <smiles>  (83) 
C=c1c(=Cc2c(O)[nH]c(=O)[nH]c2=O)cc(C)n1-c1ccccc1OCCN1CCOCC1

>  <score_type>  (83) 
oracle

>  <origin>  (83) 
adg

>  <m_score__min__energy>  (83) 
-13.76

>  <m_primary>  (83) 
energy

$$$$
83:0
     RDKit          3D

 37 37  0  0  0  0  0  0  0  0999 V2000
   57.6050   32.0020   42.0480 C   0  0  0  0  0  0  0  0  0  0  0  0
   57.7090   31.2040   43.3530 C   0  0  0  0  0  0  0  0  0  0  0  0
   57.3530   32.0810   44.5610 C   0  0  0  0  0  0  0  0  0  0  0  0
   56.9030   29.8810   43.3200 C   0  0  0  0  0  0  0  0  0  0  0  0
   55.5400   29.9130   44.0300 C   0  0  0  0  0  0  0  0  0  0  0  0
   55.5170   28.9670   45.1380 N   0  0  0  0  0  0  0  0  0  0  0  0
   56.6820   28.2730   45.5930 C   0  0  0  0  0  0  0  0  0  0  0  0
   57.6850   28.9240   45.9920 O   0  0  0  0  0  0  0  0  0  0  0  0
   56.6720   26.7960   45.6340 C   0  0  0  0  0  0  0  0  0  0  0  0
   55.8320   26.2260   46.3810 O   0  0  0  0  0  0  0  0  0  0  0  0
   57.6060   25.9920   44.8800 N   0  0  0  0  0  0  0  0  0  0  0  0
   58.1000   26.5030   43.6000 C   0  0  0  0  0  0  0  0  0  0  0  0
   58.1520   24.7300   45.4040 C   0  0  0  0  0  0  0  0  0  0  0  0
   57.7300   23.5590   44.5660 C   0  0  0  0  0  0  0  0  0  0  0  0
   58.3410   22.3100   44.5040 C   0  0  0  0  0  0  0  0  0  0  0  0
   57.7440   21.4490   43.5750 C   0  0  0  0  0  0  0  0  0  0  0  0
   56.6790   22.0180   42.8920 C   0  0  0  0  0  0  0  0  0  0  0  0
   56.4780   23.5930   43.4460 S   0  0  0  0  0  0  0  0  0  0  0  0
   57.4660   33.0682   42.2803 H   0  0  0  0  0  0  0  0  0  0  0  0
   58.5278   31.8712   41.4637 H   0  0  0  0  0  0  0  0  0  0  0  0
   56.7466   31.6391   41.4637 H   0  0  0  0  0  0  0  0  0  0  0  0
   58.7601   30.8987   43.4624 H   0  0  0  0  0  0  0  0  0  0  0  0
   57.5750   31.5341   45.4893 H   0  0  0  0  0  0  0  0  0  0  0  0
   57.9466   33.0066   44.5298 H   0  0  0  0  0  0  0  0  0  0  0  0
   56.2822   32.3309   44.5298 H   0  0  0  0  0  0  0  0  0  0  0  0
   56.7291   29.6174   42.2663 H   0  0  0  0  0  0  0  0  0  0  0  0
   57.5100   29.1463   43.8693 H   0  0  0  0  0  0  0  0  0  0  0  0
   55.3572   30.9266   44.4161 H   0  0  0  0  0  0  0  0  0  0  0  0
   54.7577   29.6339   43.3089 H   0  0  0  0  0  0  0  0  0  0  0  0
   58.8539   27.2829   43.7829 H   0  0  0  0  0  0  0  0  0  0  0  0
   58.5544   25.6808   43.0277 H   0  0  0  0  0  0  0  0  0  0  0  0
   57.2629   26.9293   43.0277 H   0  0  0  0  0  0  0  0  0  0  0  0
   59.2504   24.7898   45.4076 H   0  0  0  0  0  0  0  0  0  0  0  0
   57.7648   24.5829   46.4230 H   0  0  0  0  0  0  0  0  0  0  0  0
   59.2057   22.0277   45.1225 H   0  0  0  0  0  0  0  0  0  0  0  0
   58.0873   20.4182   43.4029 H   0  0  0  0  0  0  0  0  0  0  0  0
   56.0704   21.5237   42.1204 H   0  0  0  0  0  0  0  0  0  0  0  0
  1  2  1  0
  2  3  1  0
  2  4  1  0
  4  5  1  0
  5  6  1  0
  6  7  1  0
  7  8  2  0
  7  9  1  0
  9 10  2  0
  9 11  1  0
 11 12  1  0
 11 13  1  0
 13 14  1  0
 14 15  2  0
 15 16  1  0
 16 17  2  0
 17 18  1  0
 18 14  1  0
  1 19  1  0
  1 20  1  0
  1 21  1  0
  2 22  1  0
  3 23  1  0
  3 24  1  0
  3 25  1  0
  4 26  1  0
  4 27  1  0
  5 28  1  0
  5 29  1  0
 12 30  1  0
 12 31  1  0
 12 32  1  0
 13 33  1  0
 13 34  1  0
 15 35  1  0
 16 36  1  0
 17 37  1  0
M  CHG  1   6  -1
M  END
>  <UniqueID>  (84) 
75

>  <SMILES>  (84) 
CC(C)CC[N-]C(=O)C(=O)N(C)Cc1cccs1

>  <Energy>  (84) 
52.890108870759036

>  <Genealogy>  (84) 
CC(C)CC[N-]C(=O)C(=O)N(C)Cc1cccs1 (protonated)
CC(C)CC[N-]C(=O)C(=O)N(C)Cc1cccs1 (3D coordinates assigned)
CC(C)CC[N-]C(=O)C(=O)N(C)Cc1cccs1 (optimized conformer: 52.890108870759036 kcal/mol)

>  <smiles>  (84) 
CC(C)CCNC(=O)C(=O)N(C)Cc1cccs1

>  <score_type>  (84) 
oracle

>  <origin>  (84) 
adg

>  <m_score__min__energy>  (84) 
-7.9699999999999998

>  <m_primary>  (84) 
energy

$$$$
84:0
     RDKit          3D

 45 48  0  0  0  0  0  0  0  0999 V2000
   65.7175   32.4840   49.2143 H   0  0  0  0  0  0  0  0  0  0  0  0
   64.6630   32.7860   49.2970 C   0  0  0  0  0  0  0  0  0  0  0  0
   64.1832   32.8433   50.2852 H   0  0  0  0  0  0  0  0  0  0  0  0
   63.9680   33.0820   48.2020 C   0  0  0  0  0  0  0  0  0  0  0  0
   64.4624   33.0198   47.2213 H   0  0  0  0  0  0  0  0  0  0  0  0
   62.5570   33.4900   48.2670 C   0  0  0  0  0  0  0  0  0  0  0  0
   61.9630   33.9570   49.3450 O   0  0  0  0  0  0  0  0  0  0  0  0
   60.7200   34.2270   49.0210 C   0  0  0  0  0  0  0  0  0  0  0  0
   59.9515   34.6447   49.6881 H   0  0  0  0  0  0  0  0  0  0  0  0
   60.5510   33.8930   47.6950 C   0  0  0  0  0  0  0  0  0  0  0  0
   59.3320   34.1020   46.9010 C   0  0  0  0  0  0  0  0  0  0  0  0
   58.5560   35.0410   47.2290 O   0  0  0  0  0  0  0  0  0  0  0  0
   58.9880   33.2490   45.7940 N   0  0  0  0  0  0  0  0  0  0  0  0
   58.6780   33.8010   44.4830 C   0  0  0  0  0  0  0  0  0  0  0  0
   58.0072   34.6668   44.5851 H   0  0  0  0  0  0  0  0  0  0  0  0
   59.5900   34.1435   43.9721 H   0  0  0  0  0  0  0  0  0  0  0  0
   57.9890   32.6920   43.6920 C   0  0  0  0  0  0  0  0  0  0  0  0
   57.0400   33.0584   43.2735 H   0  0  0  0  0  0  0  0  0  0  0  0
   58.6166   32.3559   42.8535 H   0  0  0  0  0  0  0  0  0  0  0  0
   57.7250   31.5470   44.6760 C   0  0  1  0  0  0  0  0  0  0  0  0
   56.6443   31.4252   44.8410 H   0  0  0  0  0  0  0  0  0  0  0  0
   58.2760   30.2860   44.1500 N   0  0  0  0  0  0  0  0  0  0  0  0
   57.2270   29.3820   43.6380 C   0  0  0  0  0  0  0  0  0  0  0  0
   56.6686   29.8930   42.8398 H   0  0  0  0  0  0  0  0  0  0  0  0
   57.7056   28.4716   43.2480 H   0  0  0  0  0  0  0  0  0  0  0  0
   56.2730   28.9930   44.7370 C   0  0  0  0  0  0  0  0  0  0  0  0
   55.1910   29.6260   44.8630 O   0  0  0  0  0  0  0  0  0  0  0  0
   56.6530   28.0640   45.7600 N   0  0  0  0  0  0  0  0  0  0  0  0
   56.4230   26.7840   45.7580 C   0  0  0  0  0  0  0  0  0  0  0  0
   55.1940   26.2770   45.9930 N   0  0  0  0  0  0  0  0  0  0  0  0
   55.1790   24.9220   45.8860 C   0  0  0  0  0  0  0  0  0  0  0  0
   54.2688   24.3273   46.0532 H   0  0  0  0  0  0  0  0  0  0  0  0
   56.3970   24.3420   45.5500 C   0  0  0  0  0  0  0  0  0  0  0  0
   56.5851   23.2666   45.4155 H   0  0  0  0  0  0  0  0  0  0  0  0
   57.5330   25.5720   45.3850 S   0  0  0  0  0  0  0  0  0  0  0  0
   59.0530   29.6940   45.2410 C   0  0  0  0  0  0  0  0  0  0  0  0
   59.8856   29.0988   44.8379 H   0  0  0  0  0  0  0  0  0  0  0  0
   58.4370   29.0201   45.8545 H   0  0  0  0  0  0  0  0  0  0  0  0
   59.5820   30.8540   46.0540 C   0  0  0  0  0  0  0  0  0  0  0  0
   60.5194   31.2383   45.6256 H   0  0  0  0  0  0  0  0  0  0  0  0
   59.8180   30.5755   47.0917 H   0  0  0  0  0  0  0  0  0  0  0  0
   58.4770   31.8920   45.9590 C   0  0  1  0  0  0  0  0  0  0  0  0
   57.8734   31.8708   46.8783 H   0  0  0  0  0  0  0  0  0  0  0  0
   61.7220   33.4420   47.2120 N   0  0  0  0  0  0  0  0  0  0  0  0
   61.9530   33.1720   46.2300 H   0  0  0  0  0  0  0  0  0  0  0  0
  1  2  1  0
  2  3  1  0
  2  4  2  0
  4  5  1  0
  4  6  1  0
  6  7  1  0
  7  8  1  0
  8  9  1  0
  8 10  2  0
 10 11  1  0
 11 12  2  0
 11 13  1  0
 13 14  1  0
 14 15  1  0
 14 16  1  0
 14 17  1  0
 17 18  1  0
 17 19  1  0
 17 20  1  0
 20 21  1  1
 20 22  1  0
 22 23  1  0
 23 24  1  0
 23 25  1  0
 23 26  1  0
 26 27  2  0
 26 28  1  0
 28 29  2  0
 29 30  1  0
 30 31  1  0
 31 32  1  0
 31 33  2  0
 33 34  1  0
 33 35  1  0
 22 36  1  0
 36 37  1  0
 36 38  1  0
 36 39  1  0
 39 40  1  0
 39 41  1  0
 39 42  1  0
 42 43  1  1
 10 44  1  0
 44 45  1  0
 44  6  2  0
 42 13  1  0
 42 20  1  0
 35 29  1  0
M  CHG  2  30  -1  44   1
M  END
>  <UniqueID>  (85) 
76

>  <SMILES>  (85) 
C=Cc1[nH+]c(C(=O)N2CC[C@@H]3[C@H]2CCN3CC(=O)/N=c2/[n-]ccs2)co1

>  <Energy>  (85) 
121.85899934205658

>  <Genealogy>  (85) 
C=Cc1[nH+]c(C(=O)N2CCC3C2CCN3CC(=O)N=c2[n-]ccs2)co1 (protonated)
C=Cc1[nH+]c(C(=O)N2CC[C@@H]3[C@H]2CCN3CC(=O)N=c2[n-]ccs2)co1 (chirality)
C=Cc1[nH+]c(C(=O)N2CC[C@@H]3[C@H]2CCN3CC(=O)/N=c2/[n-]ccs2)co1 (cis-trans isomerization)
C=Cc1[nH+]c(C(=O)N2CC[C@@H]3[C@H]2CCN3CC(=O)/N=c2/[n-]ccs2)co1 (3D coordinates assigned)
C=Cc1[nH+]c(C(=O)N2CC[C@@H]3[C@H]2CCN3CC(=O)/N=c2/[n-]ccs2)co1 (nonaromatic ring conformer: 121.85899934205658 kcal/mol)

>  <smiles>  (85) 
C=Cc1nc(C(=O)N2CCC3C2CCN3CC(=O)N=c2[nH]ccs2)co1

>  <score_type>  (85) 
oracle

>  <origin>  (85) 
adg

>  <m_score__min__energy>  (85) 
-9.2300000000000004

>  <m_primary>  (85) 
energy

$$$$
85:0
     RDKit          3D

 48 50  0  0  0  0  0  0  0  0999 V2000
   59.3170   29.0050   48.1830 C   0  0  0  0  0  0  0  0  0  0  0  0
   58.5320   30.1880   48.3100 O   0  0  0  0  0  0  0  0  0  0  0  0
   58.9850   31.3950   48.8690 C   0  0  0  0  0  0  0  0  0  0  0  0
   59.5710   31.4360   50.1520 C   0  0  0  0  0  0  0  0  0  0  0  0
   60.0660   32.6360   50.6680 C   0  0  0  0  0  0  0  0  0  0  0  0
   59.9850   33.8050   49.9150 C   0  0  0  0  0  0  0  0  0  0  0  0
   59.3960   33.7850   48.6500 C   0  0  0  0  0  0  0  0  0  0  0  0
   58.8760   32.5900   48.1200 C   0  0  0  0  0  0  0  0  0  0  0  0
   58.2420   32.6090   46.7800 C   0  0  0  0  0  0  0  0  0  0  0  0
   57.6660   33.6590   46.3820 O   0  0  0  0  0  0  0  0  0  0  0  0
   58.2250   31.4320   45.9550 N   0  0  0  0  0  0  0  0  0  0  0  0
   57.8310   31.4620   44.5730 C   0  0  0  0  0  0  0  0  0  0  0  0
   58.3020   32.5040   43.7610 C   0  0  0  0  0  0  0  0  0  0  0  0
   57.9690   32.5520   42.4060 C   0  0  0  0  0  0  0  0  0  0  0  0
   57.1430   31.5710   41.8540 C   0  0  0  0  0  0  0  0  0  0  0  0
   56.6430   30.5430   42.6570 C   0  0  0  0  0  0  0  0  0  0  0  0
   56.9830   30.4730   44.0180 C   0  0  0  0  0  0  0  0  0  0  0  0
   56.3810   29.4170   44.8580 C   0  0  0  0  0  0  0  0  0  0  0  0
   55.1430   29.1980   44.7740 O   0  0  0  0  0  0  0  0  0  0  0  0
   57.1560   28.6570   45.7920 N   0  0  0  0  0  0  0  0  0  0  0  0
   57.6250   27.2950   45.5600 C   0  0  0  0  0  0  0  0  0  0  0  0
   56.5500   26.3240   45.9240 C   0  0  0  0  0  0  0  0  0  0  0  0
   55.3600   26.7260   46.0190 O   0  0  0  0  0  0  0  0  0  0  0  0
   56.8730   24.9230   46.0020 N   0  0  0  0  0  0  0  0  0  0  0  0
   56.5710   23.9590   45.1730 C   0  0  0  0  0  0  0  0  0  0  0  0
   56.5390   24.1230   43.7700 C   0  0  0  0  0  0  0  0  0  0  0  0
   56.2000   23.0370   42.9580 C   0  0  0  0  0  0  0  0  0  0  0  0
   55.8920   21.8360   43.5140 N   0  0  0  0  0  0  0  0  0  0  0  0
   55.8990   21.6540   44.8600 C   0  0  0  0  0  0  0  0  0  0  0  0
   56.2280   22.7110   45.7110 C   0  0  0  0  0  0  0  0  0  0  0  0
   59.5700   28.6237   49.1833 H   0  0  0  0  0  0  0  0  0  0  0  0
   58.7450   28.2426   47.6338 H   0  0  0  0  0  0  0  0  0  0  0  0
   60.2418   29.2358   47.6338 H   0  0  0  0  0  0  0  0  0  0  0  0
   59.6386   30.5156   50.7506 H   0  0  0  0  0  0  0  0  0  0  0  0
   60.5201   32.6578   51.6697 H   0  0  0  0  0  0  0  0  0  0  0  0
   60.3863   34.7464   50.3185 H   0  0  0  0  0  0  0  0  0  0  0  0
   59.3377   34.7126   48.0616 H   0  0  0  0  0  0  0  0  0  0  0  0
   58.2640   30.5030   46.4330 H   0  0  0  0  0  0  0  0  0  0  0  0
   58.9385   33.2893   44.1949 H   0  0  0  0  0  0  0  0  0  0  0  0
   58.3577   33.3632   41.7729 H   0  0  0  0  0  0  0  0  0  0  0  0
   56.8855   31.6076   40.7852 H   0  0  0  0  0  0  0  0  0  0  0  0
   55.9784   29.7830   42.2203 H   0  0  0  0  0  0  0  0  0  0  0  0
   57.8835   27.1732   44.4978 H   0  0  0  0  0  0  0  0  0  0  0  0
   58.5133   27.1048   46.1803 H   0  0  0  0  0  0  0  0  0  0  0  0
   56.7790   25.0977   43.3203 H   0  0  0  0  0  0  0  0  0  0  0  0
   56.1825   23.1550   41.8645 H   0  0  0  0  0  0  0  0  0  0  0  0
   55.6445   20.6702   45.2812 H   0  0  0  0  0  0  0  0  0  0  0  0
   56.2180   22.5646   46.8012 H   0  0  0  0  0  0  0  0  0  0  0  0
  1  2  1  0
  2  3  1  0
  3  4  2  0
  4  5  1  0
  5  6  2  0
  6  7  1  0
  7  8  2  0
  8  9  1  0
  9 10  2  0
  9 11  1  0
 11 12  1  0
 12 13  2  0
 13 14  1  0
 14 15  2  0
 15 16  1  0
 16 17  2  0
 17 18  1  0
 18 19  2  0
 18 20  1  0
 20 21  1  0
 21 22  1  0
 22 23  2  0
 22 24  1  0
 24 25  2  3
 25 26  1  0
 26 27  2  0
 27 28  1  0
 28 29  1  0
 29 30  2  0
  8  3  1  0
 17 12  1  0
 30 25  1  0
  1 31  1  0
  1 32  1  0
  1 33  1  0
  4 34  1  0
  5 35  1  0
  6 36  1  0
  7 37  1  0
 11 38  1  0
 13 39  1  0
 14 40  1  0
 15 41  1  0
 16 42  1  0
 21 43  1  0
 21 44  1  0
 26 45  1  0
 27 46  1  0
 29 47  1  0
 30 48  1  0
M  CHG  2  20  -1  28  -1
M  END
>  <UniqueID>  (86) 
77

>  <SMILES>  (86) 
COc1ccccc1C(=O)Nc1ccccc1C(=O)[N-]CC(=O)N=c1cc[n-]cc1

>  <Energy>  (86) 
70.0469087604573

>  <Genealogy>  (86) 
COc1ccccc1C(=O)Nc1ccccc1C(=O)[N-]CC(=O)N=c1cc[n-]cc1 (protonated)
COc1ccccc1C(=O)Nc1ccccc1C(=O)[N-]CC(=O)N=c1cc[n-]cc1 (3D coordinates assigned)
COc1ccccc1C(=O)Nc1ccccc1C(=O)[N-]CC(=O)N=c1cc[n-]cc1 (optimized conformer: 70.0469087604573 kcal/mol)

>  <smiles>  (86) 
COc1ccccc1C(=O)Nc1ccccc1C(=O)NCC(=O)N=c1cc[nH]cc1

>  <score_type>  (86) 
oracle

>  <origin>  (86) 
adg

>  <m_score__min__energy>  (86) 
-12.07

>  <m_primary>  (86) 
energy

$$$$
86:0
     RDKit          3D

 38 40  0  0  1  0  0  0  0  0999 V2000
   57.5980   34.5240   44.9640 C   0  0  0  0  0  0  0  0  0  0  0  0
   58.2060   33.3690   45.7300 C   0  0  0  0  0  0  0  0  0  0  0  0
   57.3500   33.1420   46.9520 C   0  0  0  0  0  0  0  0  0  0  0  0
   59.6300   33.6280   46.1620 C   0  0  0  0  0  0  0  0  0  0  0  0
   60.3420   32.3010   46.3820 C   0  0  0  0  0  0  0  0  0  0  0  0
   59.4110   31.2900   46.6640 O   0  0  0  0  0  0  0  0  0  0  0  0
   58.8350   30.9610   45.4550 C   0  0  1  0  0  0  0  0  0  0  0  0
   57.8910   29.8210   45.5230 C   0  0  0  0  0  0  0  0  0  0  0  0
   56.6360   29.7530   44.9120 C   0  0  0  0  0  0  0  0  0  0  0  0
   56.0680   28.5580   45.2000 N   0  0  0  0  0  0  0  0  0  0  0  0
   56.9100   27.8500   45.9740 C   0  0  0  0  0  0  0  0  0  0  0  0
   56.8800   26.5940   46.5680 C   0  0  0  0  0  0  0  0  0  0  0  0
   55.8270   25.8420   46.3930 N   0  0  0  0  0  0  0  0  0  0  0  0
   57.9310   26.1550   47.3200 N   0  0  0  0  0  0  0  0  0  0  0  0
   59.0160   26.9650   47.4850 C   0  0  0  0  0  0  0  0  0  0  0  0
   60.0390   26.6020   48.1850 N   0  0  0  0  0  0  0  0  0  0  0  0
   59.0780   28.1890   46.9240 N   0  0  0  0  0  0  0  0  0  0  0  0
   58.0220   28.6110   46.1760 C   0  0  0  0  0  0  0  0  0  0  0  0
   58.2380   32.1850   44.7960 C   0  0  0  0  0  0  0  0  0  0  0  0
   57.2062   35.2683   45.6729 H   0  0  0  0  0  0  0  0  0  0  0  0
   58.3677   34.9900   44.3312 H   0  0  0  0  0  0  0  0  0  0  0  0
   56.7782   34.1532   44.3312 H   0  0  0  0  0  0  0  0  0  0  0  0
   57.9537   33.3021   47.8575 H   0  0  0  0  0  0  0  0  0  0  0  0
   56.5060   33.8474   46.9446 H   0  0  0  0  0  0  0  0  0  0  0  0
   56.9664   32.1111   46.9446 H   0  0  0  0  0  0  0  0  0  0  0  0
   60.1523   34.1993   45.3804 H   0  0  0  0  0  0  0  0  0  0  0  0
   59.6302   34.2043   47.0990 H   0  0  0  0  0  0  0  0  0  0  0  0
   60.9026   32.0350   45.4737 H   0  0  0  0  0  0  0  0  0  0  0  0
   61.0306   32.4012   47.2339 H   0  0  0  0  0  0  0  0  0  0  0  0
   59.6472   30.5930   44.8108 H   0  0  0  0  0  0  0  0  0  0  0  0
   56.1824   30.5434   44.2960 H   0  0  0  0  0  0  0  0  0  0  0  0
   55.1450   28.2170   44.8910 H   0  0  0  0  0  0  0  0  0  0  0  0
   54.9100   26.1990   46.7430 H   0  0  0  0  0  0  0  0  0  0  0  0
   57.9090   25.2140   47.7650 H   0  0  0  0  0  0  0  0  0  0  0  0
   60.3870   27.2720   48.9170 H   0  0  0  0  0  0  0  0  0  0  0  0
   59.9090   28.7980   47.0550 H   0  0  0  0  0  0  0  0  0  0  0  0
   58.8423   32.4442   43.9142 H   0  0  0  0  0  0  0  0  0  0  0  0
   57.2022   31.9475   44.5119 H   0  0  0  0  0  0  0  0  0  0  0  0
  1  2  1  0
  2  3  1  0
  2  4  1  0
  4  5  1  0
  5  6  1  0
  6  7  1  0
  7  8  1  0
  8  9  2  0
  9 10  1  0
 10 11  1  0
 11 12  1  0
 12 13  2  3
 12 14  1  0
 14 15  1  0
 15 16  2  3
 15 17  1  0
 17 18  1  0
  7 19  1  0
 19  2  1  0
 18  8  1  0
 18 11  2  0
  1 20  1  0
  1 21  1  0
  1 22  1  0
  3 23  1  0
  3 24  1  0
  3 25  1  0
  4 26  1  0
  4 27  1  0
  5 28  1  0
  5 29  1  0
  7 30  1  6
  9 31  1  0
 10 32  1  0
 13 33  1  0
 14 34  1  0
 16 35  1  0
 17 36  1  0
 19 37  1  0
 19 38  1  0
M  END
>  <smiles>  (87) 
CC1(C)CCOC(c2c[nH]c3c(=N)[nH]c(=N)[nH]c23)C1

>  <score_type>  (87) 
oracle

>  <origin>  (87) 
adg

>  <m_score__min__energy>  (87) 
-6.8200000000000003

>  <m_primary>  (87) 
energy

$$$$
87:0
     RDKit          3D

 56 59  0  0  0  0  0  0  0  0999 V2000
   54.4630   25.9570   45.9330 N   0  0  0  0  0  0  0  0  0  0  0  0
   55.6610   26.4290   46.0640 C   0  0  0  0  0  0  0  0  0  0  0  0
   56.6230   25.6700   46.6540 N   0  0  0  0  0  0  0  0  0  0  0  0
   57.8910   26.1320   46.8110 C   0  0  0  0  0  0  0  0  0  0  0  0
   58.7540   25.3980   47.3630 O   0  0  0  0  0  0  0  0  0  0  0  0
   58.2220   27.4200   46.3530 C   0  0  0  0  0  0  0  0  0  0  0  0
   59.5100   27.9640   46.4710 C   0  0  0  0  0  0  0  0  0  0  0  0
   59.7740   29.2480   45.9710 C   0  0  0  0  0  0  0  0  0  0  0  0
   61.1480   29.8530   46.0890 C   0  0  0  0  0  0  0  0  0  0  0  0
   61.2820   30.6000   47.3490 N   0  0  0  0  0  0  0  0  0  0  0  0
   62.3390   31.6120   47.4850 C   0  0  0  0  0  0  0  0  0  0  0  0
   61.7440   32.9950   47.4370 C   0  0  0  0  0  0  0  0  0  0  0  0
   61.9520   33.7130   46.4250 O   0  0  0  0  0  0  0  0  0  0  0  0
   60.9160   33.5130   48.4870 N   0  0  0  0  0  0  0  0  0  0  0  0
   59.8540   34.5050   48.3370 C   0  0  0  0  0  0  0  0  0  0  0  0
   58.9930   34.1920   47.1420 C   0  0  0  0  0  0  0  0  0  0  0  0
   57.8770   33.3460   47.2660 C   0  0  0  0  0  0  0  0  0  0  0  0
   57.0800   33.0640   46.1530 C   0  0  0  0  0  0  0  0  0  0  0  0
   57.3840   33.6280   44.9120 C   0  0  0  0  0  0  0  0  0  0  0  0
   58.4850   34.4800   44.7820 C   0  0  0  0  0  0  0  0  0  0  0  0
   59.2840   34.7650   45.8910 C   0  0  0  0  0  0  0  0  0  0  0  0
   60.5250   30.2100   48.5140 C   0  0  0  0  0  0  0  0  0  0  0  0
   60.7810   28.9810   49.1420 C   0  0  0  0  0  0  0  0  0  0  0  0
   60.0540   28.6020   50.2720 C   0  0  0  0  0  0  0  0  0  0  0  0
   59.0750   29.4480   50.7960 C   0  0  0  0  0  0  0  0  0  0  0  0
   58.8180   30.6980   50.1960 C   0  0  0  0  0  0  0  0  0  0  0  0
   57.7980   31.6410   50.7170 C   0  0  0  0  0  0  0  0  0  0  0  0
   57.1630   31.4870   51.8880 C   0  0  0  0  0  0  0  0  0  0  0  0
   56.1000   30.4870   52.0790 C   0  0  0  0  0  0  0  0  0  0  0  0
   56.3730   29.2920   52.3730 O   0  0  0  0  0  0  0  0  0  0  0  0
   54.7700   30.8670   51.9540 O   0  0  0  0  0  0  0  0  0  0  0  0
   59.5390   31.0590   49.0450 C   0  0  0  0  0  0  0  0  0  0  0  0
   58.7320   29.9750   45.3780 C   0  0  0  0  0  0  0  0  0  0  0  0
   57.4880   29.4340   45.2770 N   0  0  0  0  0  0  0  0  0  0  0  0
   57.2110   28.1880   45.7430 C   0  0  0  0  0  0  0  0  0  0  0  0
   55.9590   27.6790   45.6140 N   0  0  0  0  0  0  0  0  0  0  0  0
   53.6370   26.4430   46.3520 H   0  0  0  0  0  0  0  0  0  0  0  0
   60.3108   27.3852   46.9544 H   0  0  0  0  0  0  0  0  0  0  0  0
   61.8993   29.0499   46.0639 H   0  0  0  0  0  0  0  0  0  0  0  0
   61.3017   30.5466   45.2492 H   0  0  0  0  0  0  0  0  0  0  0  0
   62.8550   31.4716   48.4462 H   0  0  0  0  0  0  0  0  0  0  0  0
   63.0528   31.4993   46.6557 H   0  0  0  0  0  0  0  0  0  0  0  0
   59.2288   34.5033   49.2420 H   0  0  0  0  0  0  0  0  0  0  0  0
   60.3138   35.4935   48.1904 H   0  0  0  0  0  0  0  0  0  0  0  0
   57.6301   32.9043   48.2427 H   0  0  0  0  0  0  0  0  0  0  0  0
   56.2116   32.3965   46.2547 H   0  0  0  0  0  0  0  0  0  0  0  0
   56.7572   33.4019   44.0368 H   0  0  0  0  0  0  0  0  0  0  0  0
   58.7220   34.9263   43.8049 H   0  0  0  0  0  0  0  0  0  0  0  0
   60.1453   35.4410   45.7857 H   0  0  0  0  0  0  0  0  0  0  0  0
   61.5582   28.3133   48.7418 H   0  0  0  0  0  0  0  0  0  0  0  0
   60.2535   27.6324   50.7516 H   0  0  0  0  0  0  0  0  0  0  0  0
   58.5010   29.1379   51.6816 H   0  0  0  0  0  0  0  0  0  0  0  0
   57.5473   32.5202   50.1053 H   0  0  0  0  0  0  0  0  0  0  0  0
   57.4461   32.1298   52.7345 H   0  0  0  0  0  0  0  0  0  0  0  0
   59.3286   32.0199   48.5526 H   0  0  0  0  0  0  0  0  0  0  0  0
   58.9214   30.9877   44.9926 H   0  0  0  0  0  0  0  0  0  0  0  0
  1  2  2  3
  2  3  1  0
  3  4  1  0
  4  5  2  0
  4  6  1  0
  6  7  2  0
  7  8  1  0
  8  9  1  0
  9 10  1  0
 10 11  1  0
 11 12  1  0
 12 13  2  0
 12 14  1  0
 14 15  1  0
 15 16  1  0
 16 17  2  0
 17 18  1  0
 18 19  2  0
 19 20  1  0
 20 21  2  0
 10 22  1  0
 22 23  2  0
 23 24  1  0
 24 25  2  0
 25 26  1  0
 26 27  1  0
 27 28  2  3
 28 29  1  0
 29 30  2  0
 29 31  1  0
 26 32  2  0
  8 33  2  0
 33 34  1  0
 34 35  2  0
 35 36  1  0
 36  2  1  0
 35  6  1  0
 21 16  1  0
 32 22  1  0
  1 37  1  0
  7 38  1  0
  9 39  1  0
  9 40  1  0
 11 41  1  0
 11 42  1  0
 15 43  1  0
 15 44  1  0
 17 45  1  0
 18 46  1  0
 19 47  1  0
 20 48  1  0
 21 49  1  0
 23 50  1  0
 24 51  1  0
 25 52  1  0
 27 53  1  0
 28 54  1  0
 32 55  1  0
 33 56  1  0
M  CHG  4   3  -1  14  -1  31  -1  36  -1
M  END
>  <UniqueID>  (88) 
78

>  <SMILES>  (88) 
N=c1[n-]c(=O)c2cc(CN(CC(=O)[N-]Cc3ccccc3)c3cccc(C=CC(=O)[O-])c3)cnc2[n-]1

>  <Energy>  (88) 
66.82660430397391

>  <Genealogy>  (88) 
N=c1[n-]c(=O)c2cc(CN(CC(=O)[N-]Cc3ccccc3)c3cccc(C=CC(=O)[O-])c3)cnc2[n-]1 (protonated)
N=c1[n-]c(=O)c2cc(CN(CC(=O)[N-]Cc3ccccc3)c3cccc(C=CC(=O)[O-])c3)cnc2[n-]1 (3D coordinates assigned)
N=c1[n-]c(=O)c2cc(CN(CC(=O)[N-]Cc3ccccc3)c3cccc(C=CC(=O)[O-])c3)cnc2[n-]1 (optimized conformer: 66.82660430397391 kcal/mol)

>  <smiles>  (88) 
N=c1[nH]c(=O)c2cc(CN(CC(=O)NCc3ccccc3)c3cccc(C=CC(=O)O)c3)cnc2[nH]1

>  <score_type>  (88) 
oracle

>  <origin>  (88) 
adg

>  <m_score__min__energy>  (88) 
-16.550000000000001

>  <m_primary>  (88) 
energy

$$$$
88:0
     RDKit          3D

 52 55  0  0  0  0  0  0  0  0999 V2000
   59.2090   29.9550   48.5270 C   0  0  0  0  0  0  0  0  0  0  0  0
   58.8140   29.7500   47.0860 C   0  0  0  0  0  0  0  0  0  0  0  0
   58.3640   28.4820   46.6820 C   0  0  0  0  0  0  0  0  0  0  0  0
   57.9520   28.2530   45.3600 C   0  0  0  0  0  0  0  0  0  0  0  0
   57.4660   26.8930   44.9310 C   0  0  0  0  0  0  0  0  0  0  0  0
   57.3260   26.0070   46.1150 N   0  0  0  0  0  0  0  0  0  0  0  0
   55.9110   25.6530   46.3840 C   0  0  0  0  0  0  0  0  0  0  0  0
   55.4580   24.5780   45.4470 C   0  0  0  0  0  0  0  0  0  0  0  0
   54.1790   24.2820   45.1380 N   0  0  0  0  0  0  0  0  0  0  0  0
   54.2190   23.2310   44.3250 N   0  0  0  0  0  0  0  0  0  0  0  0
   55.5190   22.9120   44.1740 C   0  0  0  0  0  0  0  0  0  0  0  0
   55.9310   21.9640   43.4550 O   0  0  0  0  0  0  0  0  0  0  0  0
   56.3190   23.7260   44.8790 N   0  0  0  0  0  0  0  0  0  0  0  0
   57.7730   23.7880   44.9700 C   0  0  0  0  0  0  0  0  0  0  0  0
   58.1880   24.7870   46.0840 C   0  0  1  0  0  0  0  0  0  0  0  0
   59.6800   25.1320   46.0040 C   0  0  0  0  0  0  0  0  0  0  0  0
   58.0260   29.2950   44.4270 C   0  0  0  0  0  0  0  0  0  0  0  0
   58.4910   30.5540   44.8110 C   0  0  0  0  0  0  0  0  0  0  0  0
   58.9010   30.7940   46.1320 C   0  0  0  0  0  0  0  0  0  0  0  0
   59.4140   32.1380   46.4810 C   0  0  0  0  0  0  0  0  0  0  0  0
   58.5580   33.2500   46.4440 C   0  0  0  0  0  0  0  0  0  0  0  0
   59.0390   34.5190   46.7760 C   0  0  0  0  0  0  0  0  0  0  0  0
   60.3780   34.6900   47.1380 C   0  0  0  0  0  0  0  0  0  0  0  0
   61.2460   33.5910   47.1590 C   0  0  0  0  0  0  0  0  0  0  0  0
   62.9320   33.7890   47.6270 S   0  0  0  0  0  0  0  0  0  0  0  0
   63.6610   32.1870   47.8840 C   0  0  0  0  0  0  0  0  0  0  0  0
   63.6730   34.5160   46.5400 O   0  0  0  0  0  0  0  0  0  0  0  0
   63.0270   34.5890   48.8960 O   0  0  0  0  0  0  0  0  0  0  0  0
   60.7620   32.3170   46.8290 C   0  0  0  0  0  0  0  0  0  0  0  0
   58.4255   29.5484   49.1834 H   0  0  0  0  0  0  0  0  0  0  0  0
   60.1585   29.4359   48.7243 H   0  0  0  0  0  0  0  0  0  0  0  0
   59.3311   31.0302   48.7243 H   0  0  0  0  0  0  0  0  0  0  0  0
   58.3342   27.6585   47.4107 H   0  0  0  0  0  0  0  0  0  0  0  0
   56.4896   26.9949   44.4347 H   0  0  0  0  0  0  0  0  0  0  0  0
   58.1943   26.4524   44.2343 H   0  0  0  0  0  0  0  0  0  0  0  0
   55.8170   25.2949   47.4198 H   0  0  0  0  0  0  0  0  0  0  0  0
   55.2844   26.5448   46.2355 H   0  0  0  0  0  0  0  0  0  0  0  0
   58.1668   22.7893   45.2098 H   0  0  0  0  0  0  0  0  0  0  0  0
   58.1831   24.1267   44.0071 H   0  0  0  0  0  0  0  0  0  0  0  0
   58.0229   24.2764   47.0442 H   0  0  0  0  0  0  0  0  0  0  0  0
   60.0895   25.2267   47.0206 H   0  0  0  0  0  0  0  0  0  0  0  0
   60.2127   24.3333   45.4670 H   0  0  0  0  0  0  0  0  0  0  0  0
   59.8081   26.0835   45.4670 H   0  0  0  0  0  0  0  0  0  0  0  0
   57.7161   29.1204   43.3861 H   0  0  0  0  0  0  0  0  0  0  0  0
   58.5366   31.3664   44.0708 H   0  0  0  0  0  0  0  0  0  0  0  0
   57.5051   33.1218   46.1527 H   0  0  0  0  0  0  0  0  0  0  0  0
   58.3621   35.3857   46.7524 H   0  0  0  0  0  0  0  0  0  0  0  0
   60.7508   35.6894   47.4069 H   0  0  0  0  0  0  0  0  0  0  0  0
   63.7492   31.9932   48.9632 H   0  0  0  0  0  0  0  0  0  0  0  0
   63.0248   31.4166   47.4239 H   0  0  0  0  0  0  0  0  0  0  0  0
   64.6598   32.1606   47.4239 H   0  0  0  0  0  0  0  0  0  0  0  0
   61.4426   31.4529   46.8429 H   0  0  0  0  0  0  0  0  0  0  0  0
  1  2  1  0
  2  3  2  0
  3  4  1  0
  4  5  1  0
  5  6  1  0
  6  7  1  0
  7  8  1  0
  8  9  2  0
  9 10  1  0
 10 11  1  0
 11 12  2  0
 11 13  1  0
 13 14  1  0
 14 15  1  0
 15 16  1  0
  4 17  2  0
 17 18  1  0
 18 19  2  0
 19 20  1  0
 20 21  2  0
 21 22  1  0
 22 23  2  0
 23 24  1  0
 24 25  1  0
 25 26  1  0
 25 27  2  0
 25 28  2  0
 24 29  2  0
 19  2  1  0
 29 20  1  0
 15  6  1  0
 13  8  1  0
  1 30  1  0
  1 31  1  0
  1 32  1  0
  3 33  1  0
  5 34  1  0
  5 35  1  0
  7 36  1  0
  7 37  1  0
 14 38  1  0
 14 39  1  0
 15 40  1  1
 16 41  1  0
 16 42  1  0
 16 43  1  0
 17 44  1  0
 18 45  1  0
 21 46  1  0
 22 47  1  0
 23 48  1  0
 26 49  1  0
 26 50  1  0
 26 51  1  0
 29 52  1  0
M  CHG  1  10  -1
M  END
>  <UniqueID>  (89) 
79

>  <SMILES>  (89) 
Cc1cc(CN2Cc3n[n-]c(=O)n3C[C@H]2C)ccc1-c1cccc(S(C)(=O)=O)c1

>  <Energy>  (89) 
103.55532918785765

>  <Genealogy>  (89) 
Cc1cc(CN2Cc3n[n-]c(=O)n3CC2C)ccc1-c1cccc(S(C)(=O)=O)c1 (protonated)
Cc1cc(CN2Cc3n[n-]c(=O)n3C[C@H]2C)ccc1-c1cccc(S(C)(=O)=O)c1 (chirality)
Cc1cc(CN2Cc3n[n-]c(=O)n3C[C@H]2C)ccc1-c1cccc(S(C)(=O)=O)c1 (3D coordinates assigned)
Cc1cc(CN2Cc3n[n-]c(=O)n3C[C@H]2C)ccc1-c1cccc(S(C)(=O)=O)c1 (nonaromatic ring conformer: 103.55532918785765 kcal/mol)

>  <smiles>  (89) 
Cc1cc(CN2Cc3n[nH]c(=O)n3CC2C)ccc1-c1cccc(S(C)(=O)=O)c1

>  <score_type>  (89) 
oracle

>  <origin>  (89) 
adg

>  <m_score__min__energy>  (89) 
-10.710000000000001

>  <m_primary>  (89) 
energy

$$$$
89:0
     RDKit          3D

 57 60  0  0  0  0  0  0  0  0999 V2000
   55.7420   31.7280   52.1050 C   0  0  0  0  0  0  0  0  0  0  0  0
   55.2180   30.5590   52.5030 C   0  0  0  0  0  0  0  0  0  0  0  0
   53.8650   30.2700   52.7500 C   0  0  0  0  0  0  0  0  0  0  0  0
   52.7470   30.9860   52.5220 C   0  0  0  0  0  0  0  0  0  0  0  0
   52.0970   31.1810   51.2170 C   0  0  0  0  0  0  0  0  0  0  0  0
   52.0680   30.2650   50.2310 N   0  0  0  0  0  0  0  0  0  0  0  0
   51.2610   30.8310   49.3080 C   0  0  0  0  0  0  0  0  0  0  0  0
   50.9910   30.2780   48.2130 O   0  0  0  0  0  0  0  0  0  0  0  0
   50.7520   32.0330   49.6590 N   0  0  0  0  0  0  0  0  0  0  0  0
   51.2810   32.2310   50.8760 C   0  0  0  0  0  0  0  0  0  0  0  0
   51.0210   33.3460   51.6620 O   0  0  0  0  0  0  0  0  0  0  0  0
   53.8360   28.9990   53.3030 C   0  0  0  0  0  0  0  0  0  0  0  0
   55.1370   28.5420   53.3270 C   0  0  0  0  0  0  0  0  0  0  0  0
   55.5580   27.1850   53.8080 C   0  0  0  0  0  0  0  0  0  0  0  0
   55.9740   29.4800   52.8350 N   0  0  0  0  0  0  0  0  0  0  0  0
   57.4060   29.3550   52.7680 C   0  0  0  0  0  0  0  0  0  0  0  0
   58.0830   29.7140   51.5940 C   0  0  0  0  0  0  0  0  0  0  0  0
   59.4830   29.5550   51.4800 C   0  0  0  0  0  0  0  0  0  0  0  0
   60.1820   29.8950   50.2460 N   0  0  0  0  0  0  0  0  0  0  0  0
   61.2570   30.9150   50.2980 C   0  0  0  0  0  0  0  0  0  0  0  0
   61.9340   31.2410   48.9470 C   0  0  0  0  0  0  0  0  0  0  0  0
   61.0960   30.9840   47.7640 N   0  0  0  0  0  0  0  0  0  0  0  0
   60.0320   31.9500   47.5760 C   0  0  0  0  0  0  0  0  0  0  0  0
   59.0040   31.6590   46.9020 O   0  0  0  0  0  0  0  0  0  0  0  0
   60.1790   33.2350   48.1130 O   0  0  0  0  0  0  0  0  0  0  0  0
   59.3880   34.3490   47.7050 C   0  0  0  0  0  0  0  0  0  0  0  0
   59.5920   34.6370   46.2210 C   0  0  0  0  0  0  0  0  0  0  0  0
   60.5910   29.6040   47.7880 C   0  0  0  0  0  0  0  0  0  0  0  0
   59.6610   29.3590   48.9730 C   0  0  0  0  0  0  0  0  0  0  0  0
   60.1830   29.0440   52.5970 C   0  0  0  0  0  0  0  0  0  0  0  0
   59.5060   28.6860   53.7650 C   0  0  0  0  0  0  0  0  0  0  0  0
   58.1230   28.8290   53.8500 C   0  0  0  0  0  0  0  0  0  0  0  0
   57.4780   28.4390   54.9780 F   0  0  0  0  0  0  0  0  0  0  0  0
   56.8268   31.8192   51.9472 H   0  0  0  0  0  0  0  0  0  0  0  0
   55.0869   32.5954   51.9365 H   0  0  0  0  0  0  0  0  0  0  0  0
   52.2771   31.4691   53.3914 H   0  0  0  0  0  0  0  0  0  0  0  0
   52.9453   28.4582   53.6554 H   0  0  0  0  0  0  0  0  0  0  0  0
   55.5624   27.1709   54.9079 H   0  0  0  0  0  0  0  0  0  0  0  0
   54.8524   26.4284   53.4344 H   0  0  0  0  0  0  0  0  0  0  0  0
   56.5680   26.9606   53.4344 H   0  0  0  0  0  0  0  0  0  0  0  0
   57.5150   30.1265   50.7471 H   0  0  0  0  0  0  0  0  0  0  0  0
   60.8220   31.8454   50.6918 H   0  0  0  0  0  0  0  0  0  0  0  0
   62.0460   30.4886   50.9349 H   0  0  0  0  0  0  0  0  0  0  0  0
   62.2078   32.3064   48.9486 H   0  0  0  0  0  0  0  0  0  0  0  0
   62.8035   30.5723   48.8645 H   0  0  0  0  0  0  0  0  0  0  0  0
   61.7220   31.0650   46.9270 H   0  0  0  0  0  0  0  0  0  0  0  0
   58.3266   34.1249   47.8873 H   0  0  0  0  0  0  0  0  0  0  0  0
   59.6949   35.2329   48.2834 H   0  0  0  0  0  0  0  0  0  0  0  0
   60.2242   35.5296   46.1042 H   0  0  0  0  0  0  0  0  0  0  0  0
   60.0824   33.7754   45.7443 H   0  0  0  0  0  0  0  0  0  0  0  0
   58.6165   34.8137   45.7443 H   0  0  0  0  0  0  0  0  0  0  0  0
   60.0385   29.4112   46.8565 H   0  0  0  0  0  0  0  0  0  0  0  0
   61.4527   28.9272   47.8852 H   0  0  0  0  0  0  0  0  0  0  0  0
   58.6937   29.8385   48.7624 H   0  0  0  0  0  0  0  0  0  0  0  0
   59.5669   28.2696   49.0929 H   0  0  0  0  0  0  0  0  0  0  0  0
   61.2755   28.9268   52.5455 H   0  0  0  0  0  0  0  0  0  0  0  0
   60.0683   28.2887   54.6229 H   0  0  0  0  0  0  0  0  0  0  0  0
  1  2  2  0
  2  3  1  0
  3  4  2  3
  4  5  1  0
  5  6  1  0
  6  7  1  0
  7  8  2  0
  7  9  1  0
  9 10  1  0
 10 11  1  0
  3 12  1  0
 12 13  2  0
 13 14  1  0
 13 15  1  0
 15 16  1  0
 16 17  2  0
 17 18  1  0
 18 19  1  0
 19 20  1  0
 20 21  1  0
 21 22  1  0
 22 23  1  0
 23 24  2  0
 23 25  1  0
 25 26  1  0
 26 27  1  0
 22 28  1  0
 28 29  1  0
 18 30  2  0
 30 31  1  0
 31 32  2  0
 32 33  1  0
 15  2  1  0
 32 16  1  0
 10  5  2  0
 29 19  1  0
  1 34  1  0
  1 35  1  0
  4 36  1  0
 12 37  1  0
 14 38  1  0
 14 39  1  0
 14 40  1  0
 17 41  1  0
 20 42  1  0
 20 43  1  0
 21 44  1  0
 21 45  1  0
 22 46  1  0
 26 47  1  0
 26 48  1  0
 27 49  1  0
 27 50  1  0
 27 51  1  0
 28 52  1  0
 28 53  1  0
 29 54  1  0
 29 55  1  0
 30 56  1  0
 31 57  1  0
M  CHG  4   6  -1   9  -1  11  -1  22   1
M  END
>  <UniqueID>  (90) 
80

>  <SMILES>  (90) 
C=c1c(=Cc2[n-]c(=O)[n-]c2[O-])cc(C)n1-c1cc(N2CC[NH+](C(=O)OCC)CC2)ccc1F

>  <Energy>  (90) 
144.4393524359582

>  <Genealogy>  (90) 
C=c1c(=Cc2[n-]c(=O)[n-]c2[O-])cc(C)n1-c1cc(N2CC[NH+](C(=O)OCC)CC2)ccc1F (protonated)
C=c1c(=Cc2[n-]c(=O)[n-]c2[O-])cc(C)n1-c1cc(N2CC[NH+](C(=O)OCC)CC2)ccc1F (3D coordinates assigned)
C=c1c(=Cc2[n-]c(=O)[n-]c2[O-])cc(C)n1-c1cc(N2CC[NH+](C(=O)OCC)CC2)ccc1F (nonaromatic ring conformer: 144.4393524359582 kcal/mol)

>  <smiles>  (90) 
C=c1c(=Cc2[nH]c(=O)[nH]c2O)cc(C)n1-c1cc(N2CCN(C(=O)OCC)CC2)ccc1F

>  <score_type>  (90) 
oracle

>  <origin>  (90) 
adg

>  <m_score__min__energy>  (90) 
-15.039999999999999

>  <m_primary>  (90) 
energy

$$$$
90:0
     RDKit          3D

 54 56  0  0  0  0  0  0  0  0999 V2000
   57.2860   29.9890   51.3240 O   0  0  0  0  0  0  0  0  0  0  0  0
   56.3180   30.5500   51.9020 C   0  0  0  0  0  0  0  0  0  0  0  0
   56.2920   32.0510   52.0430 C   0  0  0  0  0  0  0  0  0  0  0  0
   57.1720   32.5030   53.1180 N   0  0  0  0  0  0  0  0  0  0  0  0
   58.3690   33.2790   52.9670 C   0  0  0  0  0  0  0  0  0  0  0  0
   58.5220   34.2960   53.6950 O   0  0  0  0  0  0  0  0  0  0  0  0
   59.4660   32.9010   51.9990 C   0  0  2  0  0  0  0  0  0  0  0  0
   60.8270   33.4300   52.4880 C   0  0  0  0  0  0  0  0  0  0  0  0
   61.9520   32.9590   51.6050 C   0  0  0  0  0  0  0  0  0  0  0  0
   62.7760   33.8930   50.9560 C   0  0  0  0  0  0  0  0  0  0  0  0
   63.8190   33.4570   50.1320 C   0  0  0  0  0  0  0  0  0  0  0  0
   64.0230   32.0910   49.9240 C   0  0  0  0  0  0  0  0  0  0  0  0
   63.1930   31.1570   50.5480 C   0  0  0  0  0  0  0  0  0  0  0  0
   62.1610   31.5860   51.3890 C   0  0  0  0  0  0  0  0  0  0  0  0
   59.1560   33.4640   50.6860 N   0  0  0  0  0  0  0  0  0  0  0  0
   58.9040   32.6870   49.5080 C   0  0  0  0  0  0  0  0  0  0  0  0
   57.7150   32.4350   49.1820 O   0  0  0  0  0  0  0  0  0  0  0  0
   60.0050   32.1620   48.6790 C   0  0  0  0  0  0  0  0  0  0  0  0
   60.9360   33.0600   48.1350 C   0  0  0  0  0  0  0  0  0  0  0  0
   61.9890   32.5960   47.3440 C   0  0  0  0  0  0  0  0  0  0  0  0
   62.1230   31.2300   47.0910 C   0  0  0  0  0  0  0  0  0  0  0  0
   61.2080   30.3250   47.6340 C   0  0  0  0  0  0  0  0  0  0  0  0
   60.1480   30.7780   48.4290 C   0  0  0  0  0  0  0  0  0  0  0  0
   59.2480   29.8400   48.9370 O   0  0  0  0  0  0  0  0  0  0  0  0
   55.2680   29.7290   52.4260 N   0  0  0  0  0  0  0  0  0  0  0  0
   54.0480   29.3580   51.7160 C   0  0  0  0  0  0  0  0  0  0  0  0
   52.9940   30.4210   51.8680 C   0  0  0  0  0  0  0  0  0  0  0  0
   52.5630   30.8220   53.1450 C   0  0  0  0  0  0  0  0  0  0  0  0
   51.6240   31.8480   53.2800 C   0  0  0  0  0  0  0  0  0  0  0  0
   51.1040   32.4790   52.1460 C   0  0  0  0  0  0  0  0  0  0  0  0
   50.1720   33.5000   52.2880 O   0  0  0  0  0  0  0  0  0  0  0  0
   51.5260   32.0840   50.8710 C   0  0  0  0  0  0  0  0  0  0  0  0
   51.0170   32.7120   49.7400 O   0  0  0  0  0  0  0  0  0  0  0  0
   52.4700   31.0610   50.7330 C   0  0  0  0  0  0  0  0  0  0  0  0
   56.6216   32.5047   51.0967 H   0  0  0  0  0  0  0  0  0  0  0  0
   55.2639   32.3570   52.2868 H   0  0  0  0  0  0  0  0  0  0  0  0
   59.5267   31.8047   51.9318 H   0  0  0  0  0  0  0  0  0  0  0  0
   60.8055   34.5298   52.4834 H   0  0  0  0  0  0  0  0  0  0  0  0
   61.0017   33.0458   53.5038 H   0  0  0  0  0  0  0  0  0  0  0  0
   62.6008   34.9699   51.0960 H   0  0  0  0  0  0  0  0  0  0  0  0
   64.4794   34.1910   49.6472 H   0  0  0  0  0  0  0  0  0  0  0  0
   64.8379   31.7506   49.2683 H   0  0  0  0  0  0  0  0  0  0  0  0
   63.3512   30.0818   50.3777 H   0  0  0  0  0  0  0  0  0  0  0  0
   61.5118   30.8475   51.8822 H   0  0  0  0  0  0  0  0  0  0  0  0
   60.8356   34.1373   48.3331 H   0  0  0  0  0  0  0  0  0  0  0  0
   62.7131   33.3073   46.9201 H   0  0  0  0  0  0  0  0  0  0  0  0
   62.9498   30.8658   46.4635 H   0  0  0  0  0  0  0  0  0  0  0  0
   61.3209   29.2489   47.4357 H   0  0  0  0  0  0  0  0  0  0  0  0
   58.4420   30.0980   49.4940 H   0  0  0  0  0  0  0  0  0  0  0  0
   54.2779   29.2289   50.6481 H   0  0  0  0  0  0  0  0  0  0  0  0
   53.6647   28.4194   52.1427 H   0  0  0  0  0  0  0  0  0  0  0  0
   52.9663   30.3265   54.0405 H   0  0  0  0  0  0  0  0  0  0  0  0
   51.2930   32.1601   54.2815 H   0  0  0  0  0  0  0  0  0  0  0  0
   52.8037   30.7562   49.7301 H   0  0  0  0  0  0  0  0  0  0  0  0
  1  2  2  0
  2  3  1  0
  3  4  1  0
  4  5  1  0
  5  6  2  0
  5  7  1  0
  7  8  1  0
  8  9  1  0
  9 10  2  0
 10 11  1  0
 11 12  2  0
 12 13  1  0
 13 14  2  0
  7 15  1  0
 15 16  1  0
 16 17  2  0
 16 18  1  0
 18 19  2  0
 19 20  1  0
 20 21  2  0
 21 22  1  0
 22 23  2  0
 23 24  1  0
  2 25  1  0
 25 26  1  0
 26 27  1  0
 27 28  2  0
 28 29  1  0
 29 30  2  0
 30 31  1  0
 30 32  1  0
 32 33  1  0
 32 34  2  0
 14  9  1  0
 23 18  1  0
 34 27  1  0
  3 35  1  0
  3 36  1  0
  7 37  1  6
  8 38  1  0
  8 39  1  0
 10 40  1  0
 11 41  1  0
 12 42  1  0
 13 43  1  0
 14 44  1  0
 19 45  1  0
 20 46  1  0
 21 47  1  0
 22 48  1  0
 24 49  1  0
 26 50  1  0
 26 51  1  0
 28 52  1  0
 29 53  1  0
 34 54  1  0
M  CHG  5   4  -1  15  -1  25  -1  31  -1  33  -1
M  END
>  <UniqueID>  (91) 
81

>  <SMILES>  (91) 
O=C(C[N-]C(=O)[C@H](Cc1ccccc1)[N-]C(=O)c1ccccc1O)[N-]Cc1ccc([O-])c([O-])c1

>  <Energy>  (91) 
49.81787590822138

>  <Genealogy>  (91) 
O=C(C[N-]C(=O)C(Cc1ccccc1)[N-]C(=O)c1ccccc1O)[N-]Cc1ccc([O-])c([O-])c1 (protonated)
O=C(C[N-]C(=O)[C@H](Cc1ccccc1)[N-]C(=O)c1ccccc1O)[N-]Cc1ccc([O-])c([O-])c1 (chirality)
O=C(C[N-]C(=O)[C@H](Cc1ccccc1)[N-]C(=O)c1ccccc1O)[N-]Cc1ccc([O-])c([O-])c1 (3D coordinates assigned)
O=C(C[N-]C(=O)[C@H](Cc1ccccc1)[N-]C(=O)c1ccccc1O)[N-]Cc1ccc([O-])c([O-])c1 (optimized conformer: 49.81787590822138 kcal/mol)

>  <smiles>  (91) 
O=C(CNC(=O)C(Cc1ccccc1)NC(=O)c1ccccc1O)NCc1ccc(O)c(O)c1

>  <score_type>  (91) 
oracle

>  <origin>  (91) 
adg

>  <m_score__min__energy>  (91) 
-21.100000000000001

>  <m_primary>  (91) 
energy

$$$$
91:0
     RDKit          3D

 59 62  0  0  1  0  0  0  0  0999 V2000
   58.7580   27.5750   44.7930 O   0  0  0  0  0  0  0  0  0  0  0  0
   57.8650   28.3280   45.7650 S   0  0  0  0  0  0  0  0  0  0  0  0
   56.7330   27.4750   46.2040 O   0  0  0  0  0  0  0  0  0  0  0  0
   58.9090   28.7840   47.1180 C   0  0  0  0  0  0  0  0  0  0  0  0
   59.8270   27.8800   47.6340 C   0  0  0  0  0  0  0  0  0  0  0  0
   60.6090   28.2930   48.6840 C   0  0  0  0  0  0  0  0  0  0  0  0
   60.4970   29.5740   49.2250 C   0  0  0  0  0  0  0  0  0  0  0  0
   63.8640   32.4950   47.5030 N   0  0  0  0  0  0  0  0  0  0  0  0
   63.6950   32.0260   48.7000 C   0  0  0  0  0  0  0  0  0  0  0  0
   63.2110   30.9820   51.1180 N   0  0  0  0  0  0  0  0  0  0  0  0
   64.2910   31.7700   50.9590 C   0  0  0  0  0  0  0  0  0  0  0  0
   64.5600   32.3160   49.7390 C   0  0  0  0  0  0  0  0  0  0  0  0
   62.3600   30.6900   50.1170 C   0  0  0  0  0  0  0  0  0  0  0  0
   61.3320   29.9280   50.3020 N   0  0  0  0  0  0  0  0  0  0  0  0
   63.4080   33.8160   47.1820 C   0  0  0  0  0  0  0  0  0  0  0  0
   62.1240   33.8420   46.3910 C   0  0  0  0  0  0  0  0  0  0  0  0
   60.9990   34.1610   47.3560 C   0  0  0  0  0  0  0  0  0  0  0  0
   59.6600   34.0360   46.7340 C   0  0  0  0  0  0  0  0  0  0  0  0
   58.6160   33.3760   47.3350 C   0  0  0  0  0  0  0  0  0  0  0  0
   57.3740   33.2740   46.7290 C   0  0  0  0  0  0  0  0  0  0  0  0
   57.1270   33.8400   45.4790 C   0  0  0  0  0  0  0  0  0  0  0  0
   58.1840   34.5040   44.8800 C   0  0  0  0  0  0  0  0  0  0  0  0
   59.4240   34.6060   45.4820 C   0  0  0  0  0  0  0  0  0  0  0  0
   62.6450   31.2430   48.9090 N   0  0  0  0  0  0  0  0  0  0  0  0
   59.5630   30.4520   48.6790 C   0  0  0  0  0  0  0  0  0  0  0  0
   58.7680   30.0590   47.6250 C   0  0  0  0  0  0  0  0  0  0  0  0
   57.3280   29.7390   44.9320 N   0  0  0  0  0  0  0  0  0  0  0  0
   58.4850   30.4680   44.4450 C   0  0  0  0  0  0  0  0  0  0  0  0
   58.1670   31.4620   43.3830 C   0  0  0  0  0  0  0  0  0  0  0  0
   56.8120   31.5010   43.0600 O   0  0  0  0  0  0  0  0  0  0  0  0
   56.4760   30.2090   42.6630 C   0  0  0  0  0  0  0  0  0  0  0  0
   56.4380   29.3430   43.8880 C   0  0  0  0  0  0  0  0  0  0  0  0
   59.9246   26.8672   47.2159 H   0  0  0  0  0  0  0  0  0  0  0  0
   61.3441   27.5947   49.1105 H   0  0  0  0  0  0  0  0  0  0  0  0
   63.0580   30.5940   52.0730 H   0  0  0  0  0  0  0  0  0  0  0  0
   64.9553   31.9730   51.8120 H   0  0  0  0  0  0  0  0  0  0  0  0
   65.4350   32.9649   49.5865 H   0  0  0  0  0  0  0  0  0  0  0  0
   63.2476   34.3652   48.1215 H   0  0  0  0  0  0  0  0  0  0  0  0
   64.1820   34.2773   46.5511 H   0  0  0  0  0  0  0  0  0  0  0  0
   62.1796   34.6152   45.6105 H   0  0  0  0  0  0  0  0  0  0  0  0
   61.9510   32.8718   45.9023 H   0  0  0  0  0  0  0  0  0  0  0  0
   61.0579   33.4667   48.2072 H   0  0  0  0  0  0  0  0  0  0  0  0
   61.1211   35.2066   47.6750 H   0  0  0  0  0  0  0  0  0  0  0  0
   58.7698   32.9167   48.3226 H   0  0  0  0  0  0  0  0  0  0  0  0
   56.5658   32.7350   47.2451 H   0  0  0  0  0  0  0  0  0  0  0  0
   56.1429   33.7630   44.9936 H   0  0  0  0  0  0  0  0  0  0  0  0
   58.0320   34.9653   43.8930 H   0  0  0  0  0  0  0  0  0  0  0  0
   60.2348   35.1430   44.9680 H   0  0  0  0  0  0  0  0  0  0  0  0
   61.9740   31.0060   48.1440 H   0  0  0  0  0  0  0  0  0  0  0  0
   59.4598   31.4661   49.0925 H   0  0  0  0  0  0  0  0  0  0  0  0
   58.0310   30.7523   47.1936 H   0  0  0  0  0  0  0  0  0  0  0  0
   58.9412   31.0004   45.2926 H   0  0  0  0  0  0  0  0  0  0  0  0
   59.1643   29.7277   43.9972 H   0  0  0  0  0  0  0  0  0  0  0  0
   58.4723   32.4589   43.7336 H   0  0  0  0  0  0  0  0  0  0  0  0
   58.7121   31.1599   42.4766 H   0  0  0  0  0  0  0  0  0  0  0  0
   55.4890   30.2124   42.1774 H   0  0  0  0  0  0  0  0  0  0  0  0
   57.2164   29.8247   41.9459 H   0  0  0  0  0  0  0  0  0  0  0  0
   55.4132   29.3609   44.2875 H   0  0  0  0  0  0  0  0  0  0  0  0
   56.7633   28.3420   43.5684 H   0  0  0  0  0  0  0  0  0  0  0  0
  1  2  2  0
  2  3  2  0
  2  4  1  0
  4  5  2  0
  5  6  1  0
  6  7  2  0
  7  8  1  0
  8  9  2  0
  9 10  1  0
 10 11  1  0
 11 12  2  0
 12 13  1  0
 13 14  2  0
 14 15  1  0
 15 16  1  0
 16 17  1  0
 17 18  1  0
 18 19  2  0
 19 20  1  0
 20 21  2  0
 21 22  1  0
 22 23  2  0
 13 24  1  0
  7 25  1  0
 25 26  2  0
  2 27  1  0
 27 28  1  0
 28 29  1  0
 29 30  1  0
 30 31  1  0
 31 32  1  0
 26  4  1  0
 32 27  1  0
 24  9  1  0
 23 18  1  0
  5 33  1  0
  6 34  1  0
 10 35  1  0
 11 36  1  0
 12 37  1  0
 15 38  1  0
 15 39  1  0
 16 40  1  0
 16 41  1  0
 17 42  1  0
 17 43  1  0
 19 44  1  0
 20 45  1  0
 21 46  1  0
 22 47  1  0
 23 48  1  0
 24 49  1  0
 25 50  1  0
 26 51  1  0
 28 52  1  0
 28 53  1  0
 29 54  1  0
 29 55  1  0
 31 56  1  0
 31 57  1  0
 32 58  1  0
 32 59  1  0
M  END
>  <smiles>  (92) 
O=S(=O)(c1ccc(N=c2[nH]ccc(=NCCCc3ccccc3)[nH]2)cc1)N1CCOCC1

>  <score_type>  (92) 
oracle

>  <origin>  (92) 
adg

>  <m_score__min__energy>  (92) 
-10

>  <m_primary>  (92) 
energy

$$$$
