0:0
     RDKit          3D

 32 34  0  0  0  0  0  0  0  0999 V2000
   57.3420   31.3170   42.9420 O   0  0  0  0  0  0  0  0  0  0  0  0
   56.7470   30.8090   43.9290 C   0  0  0  0  0  0  0  0  0  0  0  0
   55.7290   29.7340   43.6880 C   0  0  0  0  0  0  0  0  0  0  0  0
   55.5190   28.9810   44.9170 N   0  0  0  0  0  0  0  0  0  0  0  0
   56.3750   27.9630   45.4570 C   0  0  0  0  0  0  0  0  0  0  0  0
   55.8340   26.9290   45.9320 O   0  0  0  0  0  0  0  0  0  0  0  0
   57.8530   28.0550   45.4710 C   0  0  0  0  0  0  0  0  0  0  0  0
   58.6480   28.2070   44.3370 C   0  0  0  0  0  0  0  0  0  0  0  0
   60.0220   28.2180   44.6070 C   0  0  0  0  0  0  0  0  0  0  0  0
   60.3270   28.0630   45.9520 C   0  0  0  0  0  0  0  0  0  0  0  0
   58.8840   27.9100   46.7970 S   0  0  0  0  0  0  0  0  0  0  0  0
   57.0160   31.3270   45.2390 N   0  0  0  0  0  0  0  0  0  0  0  0
   58.1970   32.0250   45.6570 C   0  0  0  0  0  0  0  0  0  0  0  0
   58.2760   33.4420   45.6120 C   0  0  0  0  0  0  0  0  0  0  0  0
   59.4340   34.1100   46.0490 C   0  0  0  0  0  0  0  0  0  0  0  0
   60.4850   33.3420   46.5430 C   0  0  0  0  0  0  0  0  0  0  0  0
   61.6630   33.7960   47.0100 N   0  0  0  0  0  0  0  0  0  0  0  0
   62.3200   32.6690   47.3770 C   0  0  0  0  0  0  0  0  0  0  0  0
   63.5990   32.6770   47.9210 O   0  0  0  0  0  0  0  0  0  0  0  0
   61.5790   31.5180   47.1500 C   0  0  0  0  0  0  0  0  0  0  0  0
   60.4010   31.9760   46.6140 C   0  0  0  0  0  0  0  0  0  0  0  0
   59.2700   31.2830   46.1890 C   0  0  0  0  0  0  0  0  0  0  0  0
   54.7801   30.1917   43.3715 H   0  0  0  0  0  0  0  0  0  0  0  0
   56.0899   29.0569   42.8998 H   0  0  0  0  0  0  0  0  0  0  0  0
   58.2344   28.3090   43.3228 H   0  0  0  0  0  0  0  0  0  0  0  0
   60.7876   28.3382   43.8264 H   0  0  0  0  0  0  0  0  0  0  0  0
   61.3367   28.0438   46.3880 H   0  0  0  0  0  0  0  0  0  0  0  0
   57.4230   34.0231   45.2316 H   0  0  0  0  0  0  0  0  0  0  0  0
   59.5071   35.2066   46.0019 H   0  0  0  0  0  0  0  0  0  0  0  0
   64.3960   32.3740   47.3730 H   0  0  0  0  0  0  0  0  0  0  0  0
   61.8691   30.4766   47.3531 H   0  0  0  0  0  0  0  0  0  0  0  0
   59.2161   30.1871   46.2666 H   0  0  0  0  0  0  0  0  0  0  0  0
  1  2  2  0
  2  3  1  0
  3  4  1  0
  4  5  1  0
  5  6  2  0
  5  7  1  0
  7  8  2  0
  8  9  1  0
  9 10  2  0
 10 11  1  0
  2 12  1  0
 12 13  1  0
 13 14  2  0
 14 15  1  0
 15 16  2  0
 16 17  1  0
 17 18  1  0
 18 19  1  0
 18 20  2  0
 20 21  1  0
 21 22  2  0
 11  7  1  0
 22 13  1  0
 21 16  1  0
  3 23  1  0
  3 24  1  0
  8 25  1  0
  9 26  1  0
 10 27  1  0
 14 28  1  0
 15 29  1  0
 19 30  1  0
 20 31  1  0
 22 32  1  0
M  CHG  3   4  -1  12  -1  17  -1
M  END
>  <UniqueID>  (1) 
1

>  <SMILES>  (1) 
O=C(C[N-]C(=O)c1cccs1)[N-]c1ccc2[n-]c(O)cc2c1

>  <Energy>  (1) 
96.50663453482949

>  <Genealogy>  (1) 
O=C(C[N-]C(=O)c1cccs1)[N-]c1ccc2[n-]c(O)cc2c1 (protonated)
O=C(C[N-]C(=O)c1cccs1)[N-]c1ccc2[n-]c(O)cc2c1 (3D coordinates assigned)
O=C(C[N-]C(=O)c1cccs1)[N-]c1ccc2[n-]c(O)cc2c1 (optimized conformer: 96.50663453482949 kcal/mol)

>  <smiles>  (1) 
O=C(CNC(=O)c1cccs1)Nc1ccc2[nH]c(O)cc2c1

>  <score_type>  (1) 
oracle

>  <origin>  (1) 
adg

>  <m_score__min__energy>  (1) 
-12.300000000000001

>  <m_primary>  (1) 
energy

$$$$
1:0
     RDKit          3D

 52 56  0  0  0  0  0  0  0  0999 V2000
   57.0140   34.0210   44.8700 C   0  0  0  0  0  0  0  0  0  0  0  0
   58.1410   33.8650   45.9050 C   0  0  2  0  0  0  0  0  0  0  0  0
   59.2430   34.9090   45.6320 C   0  0  0  0  0  0  0  0  0  0  0  0
   60.4780   34.7650   46.5520 C   0  0  0  0  0  0  0  0  0  0  0  0
   60.4720   33.4670   47.3880 C   0  0  2  0  0  0  0  0  0  0  0  0
   61.8070   33.2180   48.0520 C   0  0  0  0  0  0  0  0  0  0  0  0
   62.7410   32.3050   47.5270 C   0  0  0  0  0  0  0  0  0  0  0  0
   63.9270   32.1100   48.1630 N   0  0  0  0  0  0  0  0  0  0  0  0
   64.2280   32.7800   49.3070 C   0  0  0  0  0  0  0  0  0  0  0  0
   65.4520   32.5720   49.9550 C   0  0  0  0  0  0  0  0  0  0  0  0
   65.7380   33.2640   51.1380 C   0  0  0  0  0  0  0  0  0  0  0  0
   64.8060   34.1620   51.6740 C   0  0  0  0  0  0  0  0  0  0  0  0
   63.5830   34.3740   51.0270 C   0  0  0  0  0  0  0  0  0  0  0  0
   63.2920   33.6860   49.8450 C   0  0  0  0  0  0  0  0  0  0  0  0
   62.1100   33.8800   49.2020 N   0  0  0  0  0  0  0  0  0  0  0  0
   60.0260   32.2580   46.5460 C   0  0  0  0  0  0  0  0  0  0  0  0
   58.7330   32.5100   45.8960 N   0  0  0  0  0  0  0  0  0  0  0  0
   57.9780   31.3680   45.4740 C   0  0  0  0  0  0  0  0  0  0  0  0
   58.4690   30.0800   45.7000 C   0  0  0  0  0  0  0  0  0  0  0  0
   57.7030   28.9810   45.2770 C   0  0  0  0  0  0  0  0  0  0  0  0
   58.1660   27.5830   45.4790 C   0  0  0  0  0  0  0  0  0  0  0  0
   59.3520   27.2970   46.1860 C   0  0  0  0  0  0  0  0  0  0  0  0
   59.7730   25.9740   46.3590 C   0  0  0  0  0  0  0  0  0  0  0  0
   59.0210   24.9230   45.8260 C   0  0  0  0  0  0  0  0  0  0  0  0
   59.4310   23.6420   45.9970 F   0  0  0  0  0  0  0  0  0  0  0  0
   57.8500   25.1940   45.1150 C   0  0  0  0  0  0  0  0  0  0  0  0
   57.4250   26.5150   44.9370 C   0  0  0  0  0  0  0  0  0  0  0  0
   56.4970   29.2080   44.6840 N   0  0  0  0  0  0  0  0  0  0  0  0
   56.0330   30.4680   44.4790 C   0  0  0  0  0  0  0  0  0  0  0  0
   56.7720   31.5370   44.8680 N   0  0  0  0  0  0  0  0  0  0  0  0
   56.0540   34.1539   45.3904 H   0  0  0  0  0  0  0  0  0  0  0  0
   57.2141   34.9000   44.2397 H   0  0  0  0  0  0  0  0  0  0  0  0
   56.9678   33.1207   44.2397 H   0  0  0  0  0  0  0  0  0  0  0  0
   57.6974   34.0252   46.8987 H   0  0  0  0  0  0  0  0  0  0  0  0
   59.5730   34.8007   44.5883 H   0  0  0  0  0  0  0  0  0  0  0  0
   58.8057   35.8980   45.8336 H   0  0  0  0  0  0  0  0  0  0  0  0
   61.3822   34.7720   45.9255 H   0  0  0  0  0  0  0  0  0  0  0  0
   60.4557   35.6070   47.2595 H   0  0  0  0  0  0  0  0  0  0  0  0
   59.7329   33.6024   48.1914 H   0  0  0  0  0  0  0  0  0  0  0  0
   62.5121   31.7508   46.6048 H   0  0  0  0  0  0  0  0  0  0  0  0
   66.1858   31.8677   49.5361 H   0  0  0  0  0  0  0  0  0  0  0  0
   66.6986   33.1019   51.6487 H   0  0  0  0  0  0  0  0  0  0  0  0
   65.0356   34.7014   52.6048 H   0  0  0  0  0  0  0  0  0  0  0  0
   62.8522   35.0805   51.4476 H   0  0  0  0  0  0  0  0  0  0  0  0
   60.7834   32.0603   45.7732 H   0  0  0  0  0  0  0  0  0  0  0  0
   59.9166   31.3906   47.2135 H   0  0  0  0  0  0  0  0  0  0  0  0
   59.4372   29.9291   46.1998 H   0  0  0  0  0  0  0  0  0  0  0  0
   59.9504   28.1197   46.6044 H   0  0  0  0  0  0  0  0  0  0  0  0
   60.6975   25.7604   46.9155 H   0  0  0  0  0  0  0  0  0  0  0  0
   57.2602   24.3666   44.6938 H   0  0  0  0  0  0  0  0  0  0  0  0
   56.5054   26.7210   44.3696 H   0  0  0  0  0  0  0  0  0  0  0  0
   55.0564   30.6218   43.9968 H   0  0  0  0  0  0  0  0  0  0  0  0
  1  2  1  0
  2  3  1  0
  3  4  1  0
  4  5  1  0
  5  6  1  0
  6  7  2  0
  7  8  1  0
  8  9  2  0
  9 10  1  0
 10 11  2  0
 11 12  1  0
 12 13  2  0
 13 14  1  0
 14 15  2  0
  5 16  1  0
 16 17  1  0
 17 18  1  0
 18 19  2  0
 19 20  1  0
 20 21  1  0
 21 22  2  0
 22 23  1  0
 23 24  2  0
 24 25  1  0
 24 26  1  0
 26 27  2  0
 20 28  2  0
 28 29  1  0
 29 30  2  0
 17  2  1  0
 30 18  1  0
 15  6  1  0
 27 21  1  0
 14  9  1  0
  1 31  1  0
  1 32  1  0
  1 33  1  0
  2 34  1  1
  3 35  1  0
  3 36  1  0
  4 37  1  0
  4 38  1  0
  5 39  1  1
  7 40  1  0
 10 41  1  0
 11 42  1  0
 12 43  1  0
 13 44  1  0
 16 45  1  0
 16 46  1  0
 19 47  1  0
 22 48  1  0
 23 49  1  0
 26 50  1  0
 27 51  1  0
 29 52  1  0
M  END
>  <UniqueID>  (2) 
2

>  <SMILES>  (2) 
C[C@@H]1CC[C@H](c2cnc3ccccc3n2)CN1c1cc(-c2ccc(F)cc2)ncn1

>  <Energy>  (2) 
75.37624154758316

>  <Genealogy>  (2) 
C[C@@H]1CC[C@H](c2cnc3ccccc3n2)CN1c1cc(-c2ccc(F)cc2)ncn1 (chirality)
C[C@@H]1CC[C@H](c2cnc3ccccc3n2)CN1c1cc(-c2ccc(F)cc2)ncn1 (3D coordinates assigned)
C[C@@H]1CC[C@H](c2cnc3ccccc3n2)CN1c1cc(-c2ccc(F)cc2)ncn1 (nonaromatic ring conformer: 75.37624154758316 kcal/mol)

>  <smiles>  (2) 
CC1CCC(c2cnc3ccccc3n2)CN1c1cc(-c2ccc(F)cc2)ncn1

>  <score_type>  (2) 
oracle

>  <origin>  (2) 
adg

>  <m_score__min__energy>  (2) 
-9.6999999999999993

>  <m_primary>  (2) 
energy

$$$$
2:0
     RDKit          3D

 50 52  0  0  0  0  0  0  0  0999 V2000
   58.8420   33.0740   44.8490 C   0  0  0  0  0  0  0  0  0  0  0  0
   58.3080   32.9020   46.2820 C   0  0  2  0  0  0  0  0  0  0  0  0
   58.9610   33.8580   47.3200 C   0  0  0  0  0  0  0  0  0  0  0  0
   60.4660   33.7920   47.4680 C   0  0  0  0  0  0  0  0  0  0  0  0
   61.0520   33.8370   48.7460 C   0  0  0  0  0  0  0  0  0  0  0  0
   62.4420   33.8440   48.8910 C   0  0  0  0  0  0  0  0  0  0  0  0
   63.2630   33.8280   47.7610 C   0  0  0  0  0  0  0  0  0  0  0  0
   62.6940   33.8300   46.4860 C   0  0  0  0  0  0  0  0  0  0  0  0
   61.3040   33.8330   46.3390 C   0  0  0  0  0  0  0  0  0  0  0  0
   58.1350   31.3990   46.7140 C   0  0  2  0  0  0  0  0  0  0  0  0
   59.2520   31.0160   47.6920 C   0  0  0  0  0  0  0  0  0  0  0  0
   59.2300   31.5280   48.8040 O   0  0  0  0  0  0  0  0  0  0  0  0
   60.3920   30.0410   47.3660 C   0  0  0  0  0  0  0  0  0  0  0  0
   60.5180   28.9880   48.4990 C   0  0  0  0  0  0  0  0  0  0  0  0
   61.7240   30.8230   47.3400 C   0  0  0  0  0  0  0  0  0  0  0  0
   60.1890   29.3330   45.9890 C   0  0  0  0  0  0  0  0  0  0  0  0
   58.7090   29.1430   45.5990 C   0  0  2  0  0  0  0  0  0  0  0  0
   57.9620   28.1810   46.5560 C   0  0  0  0  0  0  0  0  0  0  0  0
   58.5440   28.6170   44.1470 C   0  0  0  0  0  0  0  0  0  0  0  0
   57.2540   29.2680   43.6290 C   0  0  0  0  0  0  0  0  0  0  0  0
   57.0650   30.4000   44.5650 C   0  0  0  0  0  0  0  0  0  0  0  0
   56.0710   31.1670   44.5190 O   0  0  0  0  0  0  0  0  0  0  0  0
   58.0480   30.4420   45.5940 N   0  0  0  0  0  0  0  0  0  0  0  0
   59.8884   33.4111   44.8856 H   0  0  0  0  0  0  0  0  0  0  0  0
   58.7850   32.1121   44.3185 H   0  0  0  0  0  0  0  0  0  0  0  0
   58.2343   33.8218   44.3185 H   0  0  0  0  0  0  0  0  0  0  0  0
   57.2693   33.2635   46.2647 H   0  0  0  0  0  0  0  0  0  0  0  0
   58.7014   34.8873   47.0315 H   0  0  0  0  0  0  0  0  0  0  0  0
   58.5651   33.5335   48.2937 H   0  0  0  0  0  0  0  0  0  0  0  0
   60.4106   33.8669   49.6391 H   0  0  0  0  0  0  0  0  0  0  0  0
   62.8898   33.8621   49.8956 H   0  0  0  0  0  0  0  0  0  0  0  0
   64.3569   33.8138   47.8756 H   0  0  0  0  0  0  0  0  0  0  0  0
   63.3405   33.8292   45.5960 H   0  0  0  0  0  0  0  0  0  0  0  0
   60.8619   33.8677   45.3324 H   0  0  0  0  0  0  0  0  0  0  0  0
   57.1562   31.3275   47.2108 H   0  0  0  0  0  0  0  0  0  0  0  0
   60.4578   29.4910   49.4754 H   0  0  0  0  0  0  0  0  0  0  0  0
   59.7010   28.2566   48.4123 H   0  0  0  0  0  0  0  0  0  0  0  0
   61.4845   28.4700   48.4123 H   0  0  0  0  0  0  0  0  0  0  0  0
   62.0552   31.0174   48.3708 H   0  0  0  0  0  0  0  0  0  0  0  0
   62.4873   30.2297   46.8154 H   0  0  0  0  0  0  0  0  0  0  0  0
   61.5779   31.7787   46.8154 H   0  0  0  0  0  0  0  0  0  0  0  0
   60.6773   29.9394   45.2119 H   0  0  0  0  0  0  0  0  0  0  0  0
   60.6285   28.3285   46.0773 H   0  0  0  0  0  0  0  0  0  0  0  0
   58.1782   28.4594   47.5980 H   0  0  0  0  0  0  0  0  0  0  0  0
   56.8793   28.2511   46.3748 H   0  0  0  0  0  0  0  0  0  0  0  0
   58.2981   27.1494   46.3748 H   0  0  0  0  0  0  0  0  0  0  0  0
   59.4028   28.9162   43.5281 H   0  0  0  0  0  0  0  0  0  0  0  0
   58.4946   27.5187   44.1100 H   0  0  0  0  0  0  0  0  0  0  0  0
   57.3761   29.6236   42.5953 H   0  0  0  0  0  0  0  0  0  0  0  0
   56.3977   28.5782   43.5981 H   0  0  0  0  0  0  0  0  0  0  0  0
  1  2  1  0
  2  3  1  0
  3  4  1  0
  4  5  2  0
  5  6  1  0
  6  7  2  0
  7  8  1  0
  8  9  2  0
  2 10  1  0
 10 11  1  0
 11 12  2  0
 11 13  1  0
 13 14  1  0
 13 15  1  0
 13 16  1  0
 16 17  1  0
 17 18  1  1
 17 19  1  0
 19 20  1  0
 20 21  1  0
 21 22  2  0
 21 23  1  0
  9  4  1  0
 23 10  1  0
 23 17  1  0
  1 24  1  0
  1 25  1  0
  1 26  1  0
  2 27  1  6
  3 28  1  0
  3 29  1  0
  5 30  1  0
  6 31  1  0
  7 32  1  0
  8 33  1  0
  9 34  1  0
 10 35  1  1
 14 36  1  0
 14 37  1  0
 14 38  1  0
 15 39  1  0
 15 40  1  0
 15 41  1  0
 16 42  1  0
 16 43  1  0
 18 44  1  0
 18 45  1  0
 18 46  1  0
 19 47  1  0
 19 48  1  0
 20 49  1  0
 20 50  1  0
M  END
>  <UniqueID>  (3) 
3

>  <SMILES>  (3) 
C[C@H](Cc1ccccc1)[C@@H]1C(=O)C(C)(C)CC2(C)CCC(=O)N12

>  <Energy>  (3) 
68.01955470028267

>  <Genealogy>  (3) 
C[C@H](Cc1ccccc1)[C@@H]1C(=O)C(C)(C)CC2(C)CCC(=O)N12 (chirality)
C[C@H](Cc1ccccc1)[C@@H]1C(=O)C(C)(C)CC2(C)CCC(=O)N12 (3D coordinates assigned)
C[C@H](Cc1ccccc1)[C@@H]1C(=O)C(C)(C)CC2(C)CCC(=O)N12 (nonaromatic ring conformer: 68.01955470028267 kcal/mol)

>  <smiles>  (3) 
CC(Cc1ccccc1)C1C(=O)C(C)(C)CC2(C)CCC(=O)N12

>  <score_type>  (3) 
oracle

>  <origin>  (3) 
adg

>  <m_score__min__energy>  (3) 
-8.3800000000000008

>  <m_primary>  (3) 
energy

$$$$
3:0
     RDKit          3D

 61 65  0  0  0  0  0  0  0  0999 V2000
   54.3520   23.1122   43.8245 H   0  0  0  0  0  0  0  0  0  0  0  0
   55.4150   23.2630   44.0640 C   0  0  0  0  0  0  0  0  0  0  0  0
   55.8490   24.4930   44.5680 C   0  0  0  0  0  0  0  0  0  0  0  0
   55.1245   25.3060   44.7233 H   0  0  0  0  0  0  0  0  0  0  0  0
   57.2070   24.6980   44.8780 C   0  0  0  0  0  0  0  0  0  0  0  0
   57.6700   26.0060   45.4110 C   0  0  0  0  0  0  0  0  0  0  0  0
   58.6830   26.0590   46.3860 C   0  0  0  0  0  0  0  0  0  0  0  0
   59.1321   25.1255   46.7558 H   0  0  0  0  0  0  0  0  0  0  0  0
   59.1240   27.2850   46.8890 C   0  0  0  0  0  0  0  0  0  0  0  0
   59.9163   27.3112   47.6516 H   0  0  0  0  0  0  0  0  0  0  0  0
   58.5610   28.4820   46.4260 C   0  0  0  0  0  0  0  0  0  0  0  0
   58.9930   29.7180   46.9240 C   0  0  0  0  0  0  0  0  0  0  0  0
   59.7781   29.7607   47.6932 H   0  0  0  0  0  0  0  0  0  0  0  0
   58.4150   30.9080   46.4330 C   0  0  0  0  0  0  0  0  0  0  0  0
   58.7680   32.0890   46.8590 N   0  0  0  0  0  0  0  0  0  0  0  0
   59.9570   32.4400   47.5830 C   0  0  0  0  0  0  0  0  0  0  0  0
   59.8810   33.4030   48.5950 C   0  0  0  0  0  0  0  0  0  0  0  0
   58.9102   33.8535   48.8491 H   0  0  0  0  0  0  0  0  0  0  0  0
   61.0310   33.7960   49.2850 C   0  0  0  0  0  0  0  0  0  0  0  0
   60.9552   34.5337   50.0974 H   0  0  0  0  0  0  0  0  0  0  0  0
   62.2840   33.2550   48.9480 C   0  0  0  0  0  0  0  0  0  0  0  0
   63.4670   33.6450   49.6730 N   0  0  0  0  0  0  0  0  0  0  0  0
   63.3690   34.5890   50.7930 C   0  0  0  0  0  0  0  0  0  0  0  0
   62.4768   34.3493   51.3901 H   0  0  0  0  0  0  0  0  0  0  0  0
   63.2957   35.6097   50.3894 H   0  0  0  0  0  0  0  0  0  0  0  0
   64.6110   34.5010   51.6870 C   0  0  0  0  0  0  0  0  0  0  0  0
   64.3807   34.9180   52.6785 H   0  0  0  0  0  0  0  0  0  0  0  0
   65.4335   35.0736   51.2335 H   0  0  0  0  0  0  0  0  0  0  0  0
   65.0100   33.0880   51.8270 N   0  0  0  0  0  0  0  0  0  0  0  0
   66.0180   32.9370   52.9000 C   0  0  0  0  0  0  0  0  0  0  0  0
   66.4209   33.9292   53.1514 H   0  0  0  0  0  0  0  0  0  0  0  0
   66.8101   32.2686   52.5315 H   0  0  0  0  0  0  0  0  0  0  0  0
   65.4170   32.3090   54.1680 C   0  0  0  0  0  0  0  0  0  0  0  0
   65.5395   33.0107   55.0062 H   0  0  0  0  0  0  0  0  0  0  0  0
   65.9437   31.3638   54.3661 H   0  0  0  0  0  0  0  0  0  0  0  0
   63.9940   32.0130   54.0010 N   0  0  0  0  0  0  0  0  0  0  0  0
   63.8190   31.7240   53.0110 H   0  0  0  0  0  0  0  0  0  0  0  0
   63.4200   32.8620   54.2080 H   0  0  0  0  0  0  0  0  0  0  0  0
   63.7100   31.2320   54.6360 H   0  0  0  0  0  0  0  0  0  0  0  0
   65.4940   32.5230   50.5390 C   0  0  0  0  0  0  0  0  0  0  0  0
   65.3172   31.4373   50.5452 H   0  0  0  0  0  0  0  0  0  0  0  0
   66.5633   32.7674   50.4565 H   0  0  0  0  0  0  0  0  0  0  0  0
   64.7900   33.1270   49.3070 C   0  0  0  0  0  0  0  0  0  0  0  0
   64.6739   32.3484   48.5386 H   0  0  0  0  0  0  0  0  0  0  0  0
   65.4011   33.9552   48.9188 H   0  0  0  0  0  0  0  0  0  0  0  0
   62.3620   32.3110   47.9110 C   0  0  0  0  0  0  0  0  0  0  0  0
   63.3356   31.8772   47.6390 H   0  0  0  0  0  0  0  0  0  0  0  0
   61.2100   31.9190   47.2220 C   0  0  0  0  0  0  0  0  0  0  0  0
   61.2857   31.1993   46.3935 H   0  0  0  0  0  0  0  0  0  0  0  0
   57.4210   30.8260   45.5080 N   0  0  0  0  0  0  0  0  0  0  0  0
   56.9780   29.6430   45.0110 C   0  0  0  0  0  0  0  0  0  0  0  0
   56.1745   29.6299   44.2598 H   0  0  0  0  0  0  0  0  0  0  0  0
   57.5410   28.4400   45.4520 C   0  0  0  0  0  0  0  0  0  0  0  0
   57.1020   27.2070   44.9500 C   0  0  0  0  0  0  0  0  0  0  0  0
   56.3074   27.1787   44.1899 H   0  0  0  0  0  0  0  0  0  0  0  0
   58.1180   23.6460   44.6710 C   0  0  0  0  0  0  0  0  0  0  0  0
   59.1827   23.7909   44.9065 H   0  0  0  0  0  0  0  0  0  0  0  0
   57.6790   22.4180   44.1680 C   0  0  0  0  0  0  0  0  0  0  0  0
   58.3986   21.6010   44.0110 H   0  0  0  0  0  0  0  0  0  0  0  0
   56.3290   22.2250   43.8640 C   0  0  0  0  0  0  0  0  0  0  0  0
   55.8960   21.0040   43.3620 O   0  0  0  0  0  0  0  0  0  0  0  0
  1  2  1  0
  2  3  2  0
  3  4  1  0
  3  5  1  0
  5  6  1  0
  6  7  1  0
  7  8  1  0
  7  9  2  0
  9 10  1  0
  9 11  1  0
 11 12  2  0
 12 13  1  0
 12 14  1  0
 14 15  2  0
 15 16  1  0
 16 17  2  0
 17 18  1  0
 17 19  1  0
 19 20  1  0
 19 21  2  0
 21 22  1  0
 22 23  1  0
 23 24  1  0
 23 25  1  0
 23 26  1  0
 26 27  1  0
 26 28  1  0
 26 29  1  0
 29 30  1  0
 30 31  1  0
 30 32  1  0
 30 33  1  0
 33 34  1  0
 33 35  1  0
 33 36  1  0
 36 37  1  0
 36 38  1  0
 36 39  1  0
 29 40  1  0
 40 41  1  0
 40 42  1  0
 40 43  1  0
 43 44  1  0
 43 45  1  0
 21 46  1  0
 46 47  1  0
 46 48  2  0
 48 49  1  0
 14 50  1  0
 50 51  1  0
 51 52  1  0
 51 53  2  0
 53 54  1  0
 54 55  1  0
  5 56  2  0
 56 57  1  0
 56 58  1  0
 58 59  1  0
 58 60  2  0
 60 61  1  0
 60  2  1  0
 54  6  2  0
 53 11  1  0
 48 16  1  0
 43 22  1  0
M  CHG  3  36   1  50  -1  61  -1
M  END
>  <UniqueID>  (4) 
4

>  <SMILES>  (4) 
[NH3+]CCN1CCN(c2ccc(/N=c3\cc4ccc(-c5ccc([O-])cc5)cc4c[n-]3)cc2)CC1

>  <Energy>  (4) 
92.82344083081553

>  <Genealogy>  (4) 
[NH3+]CCN1CCN(c2ccc(N=c3cc4ccc(-c5ccc([O-])cc5)cc4c[n-]3)cc2)CC1 (protonated)
[NH3+]CCN1CCN(c2ccc(/N=c3\cc4ccc(-c5ccc([O-])cc5)cc4c[n-]3)cc2)CC1 (cis-trans isomerization)
[NH3+]CCN1CCN(c2ccc(/N=c3\cc4ccc(-c5ccc([O-])cc5)cc4c[n-]3)cc2)CC1 (3D coordinates assigned)
[NH3+]CCN1CCN(c2ccc(/N=c3\cc4ccc(-c5ccc([O-])cc5)cc4c[n-]3)cc2)CC1 (nonaromatic ring conformer: 92.82344083081553 kcal/mol)

>  <smiles>  (4) 
NCCN1CCN(c2ccc(N=c3cc4ccc(-c5ccc(O)cc5)cc4c[nH]3)cc2)CC1

>  <score_type>  (4) 
oracle

>  <origin>  (4) 
adg

>  <m_score__min__energy>  (4) 
-9.4199999999999999

>  <m_primary>  (4) 
energy

$$$$
4:0
     RDKit          3D

 39 40  0  0  0  0  0  0  0  0999 V2000
   55.5270   29.7870   44.1540 C   0  0  0  0  0  0  0  0  0  0  0  0
   56.7610   29.7520   43.6450 C   0  0  0  0  0  0  0  0  0  0  0  0
   57.8950   30.5110   44.2740 C   0  0  0  0  0  0  0  0  0  0  0  0
   58.0510   31.8350   43.6190 N   0  0  0  0  0  0  0  0  0  0  0  0
   57.4110   31.8680   42.2820 C   0  0  0  0  0  0  0  0  0  0  0  0
   58.2320   32.6800   41.2810 C   0  0  0  0  0  0  0  0  0  0  0  0
   57.5050   32.9160   44.4680 C   0  0  0  0  0  0  0  0  0  0  0  0
   58.6100   33.5900   45.2230 C   0  0  0  0  0  0  0  0  0  0  0  0
   58.8990   34.9350   45.2040 C   0  0  0  0  0  0  0  0  0  0  0  0
   59.9630   35.1150   45.9460 O   0  0  0  0  0  0  0  0  0  0  0  0
   60.3270   33.9360   46.4030 C   0  0  0  0  0  0  0  0  0  0  0  0
   61.4970   33.7240   47.2790 C   0  0  0  0  0  0  0  0  0  0  0  0
   62.7550   33.4190   46.7320 C   0  0  0  0  0  0  0  0  0  0  0  0
   63.8600   33.2200   47.5660 C   0  0  0  0  0  0  0  0  0  0  0  0
   63.7200   33.3100   48.9580 C   0  0  0  0  0  0  0  0  0  0  0  0
   64.9130   33.1350   49.8510 C   0  0  0  0  0  0  0  0  0  0  0  0
   62.4690   33.6310   49.5050 C   0  0  0  0  0  0  0  0  0  0  0  0
   61.3640   33.8300   48.6720 C   0  0  0  0  0  0  0  0  0  0  0  0
   59.5160   32.9420   45.9790 N   0  0  0  0  0  0  0  0  0  0  0  0
   54.7167   29.2208   43.6714 H   0  0  0  0  0  0  0  0  0  0  0  0
   55.3207   30.3821   45.0559 H   0  0  0  0  0  0  0  0  0  0  0  0
   56.9521   29.1526   42.7427 H   0  0  0  0  0  0  0  0  0  0  0  0
   57.6853   30.6572   45.3439 H   0  0  0  0  0  0  0  0  0  0  0  0
   58.8248   29.9366   44.1489 H   0  0  0  0  0  0  0  0  0  0  0  0
   57.3118   30.8379   41.9090 H   0  0  0  0  0  0  0  0  0  0  0  0
   56.4262   32.3469   42.3855 H   0  0  0  0  0  0  0  0  0  0  0  0
   58.9120   33.3525   41.8245 H   0  0  0  0  0  0  0  0  0  0  0  0
   58.8191   31.9974   40.6490 H   0  0  0  0  0  0  0  0  0  0  0  0
   57.5559   33.2746   40.6490 H   0  0  0  0  0  0  0  0  0  0  0  0
   56.9960   33.6553   43.8321 H   0  0  0  0  0  0  0  0  0  0  0  0
   56.7924   32.4832   45.1855 H   0  0  0  0  0  0  0  0  0  0  0  0
   58.3401   35.7145   44.6655 H   0  0  0  0  0  0  0  0  0  0  0  0
   62.8714   33.3363   45.6413 H   0  0  0  0  0  0  0  0  0  0  0  0
   64.8429   32.9920   47.1279 H   0  0  0  0  0  0  0  0  0  0  0  0
   64.5938   33.1818   50.9026 H   0  0  0  0  0  0  0  0  0  0  0  0
   65.3795   32.1588   49.6525 H   0  0  0  0  0  0  0  0  0  0  0  0
   65.6402   33.9361   49.6525 H   0  0  0  0  0  0  0  0  0  0  0  0
   62.3567   33.7267   50.5951 H   0  0  0  0  0  0  0  0  0  0  0  0
   60.3846   34.0711   49.1110 H   0  0  0  0  0  0  0  0  0  0  0  0
  1  2  2  0
  2  3  1  0
  3  4  1  0
  4  5  1  0
  5  6  1  0
  4  7  1  0
  7  8  1  0
  8  9  2  0
  9 10  1  0
 10 11  1  0
 11 12  1  0
 12 13  2  0
 13 14  1  0
 14 15  2  0
 15 16  1  0
 15 17  1  0
 17 18  2  0
 11 19  2  0
 19  8  1  0
 18 12  1  0
  1 20  1  0
  1 21  1  0
  2 22  1  0
  3 23  1  0
  3 24  1  0
  5 25  1  0
  5 26  1  0
  6 27  1  0
  6 28  1  0
  6 29  1  0
  7 30  1  0
  7 31  1  0
  9 32  1  0
 13 33  1  0
 14 34  1  0
 16 35  1  0
 16 36  1  0
 16 37  1  0
 17 38  1  0
 18 39  1  0
M  END
>  <UniqueID>  (5) 
5

>  <SMILES>  (5) 
C=CCN(CC)Cc1coc(-c2ccc(C)cc2)n1

>  <Energy>  (5) 
64.5889157758042

>  <Genealogy>  (5) 
C=CCN(CC)Cc1coc(-c2ccc(C)cc2)n1 (3D coordinates assigned)
C=CCN(CC)Cc1coc(-c2ccc(C)cc2)n1 (optimized conformer: 64.5889157758042 kcal/mol)

>  <smiles>  (5) 
C=CCN(CC)Cc1coc(-c2ccc(C)cc2)n1

>  <score_type>  (5) 
oracle

>  <origin>  (5) 
adg

>  <m_score__min__energy>  (5) 
-6.3499999999999996

>  <m_primary>  (5) 
energy

$$$$
5:0
     RDKit          3D

 33 35  0  0  0  0  0  0  0  0999 V2000
   55.8880   28.3100   45.2500 O   0  0  0  0  0  0  0  0  0  0  0  0
   56.9700   28.6080   44.6770 C   0  0  0  0  0  0  0  0  0  0  0  0
   57.8620   27.5790   44.2220 N   0  0  0  0  0  0  0  0  0  0  0  0
   57.7530   26.1950   44.5980 C   0  0  0  0  0  0  0  0  0  0  0  0
   58.0570   25.7620   45.9030 C   0  0  0  0  0  0  0  0  0  0  0  0
   57.9660   24.4070   46.2350 C   0  0  0  0  0  0  0  0  0  0  0  0
   57.5870   23.4710   45.2690 C   0  0  0  0  0  0  0  0  0  0  0  0
   57.5030   22.1570   45.5930 F   0  0  0  0  0  0  0  0  0  0  0  0
   57.3070   23.8900   43.9650 C   0  0  0  0  0  0  0  0  0  0  0  0
   57.3970   25.2440   43.6300 C   0  0  0  0  0  0  0  0  0  0  0  0
   57.2970   30.0230   44.4380 C   0  0  0  0  0  0  0  0  0  0  0  0
   57.1210   30.7080   43.2520 C   0  0  0  0  0  0  0  0  0  0  0  0
   57.5590   31.9920   43.4920 C   0  0  0  0  0  0  0  0  0  0  0  0
   57.9750   32.0130   44.8150 C   0  0  0  0  0  0  0  0  0  0  0  0
   58.5320   33.1670   45.5590 C   0  0  0  0  0  0  0  0  0  0  0  0
   58.4990   33.1660   46.9650 C   0  0  0  0  0  0  0  0  0  0  0  0
   59.0190   34.2450   47.6880 C   0  0  0  0  0  0  0  0  0  0  0  0
   59.5770   35.3340   47.0160 C   0  0  0  0  0  0  0  0  0  0  0  0
   59.6170   35.3460   45.6200 C   0  0  0  0  0  0  0  0  0  0  0  0
   59.0980   34.2700   44.8920 C   0  0  0  0  0  0  0  0  0  0  0  0
   57.8050   30.8220   45.3470 O   0  0  0  0  0  0  0  0  0  0  0  0
   58.5810   27.8350   43.5060 H   0  0  0  0  0  0  0  0  0  0  0  0
   58.3673   26.4929   46.6643 H   0  0  0  0  0  0  0  0  0  0  0  0
   58.1933   24.0768   47.2593 H   0  0  0  0  0  0  0  0  0  0  0  0
   57.0156   23.1534   43.2018 H   0  0  0  0  0  0  0  0  0  0  0  0
   57.1871   25.5664   42.5995 H   0  0  0  0  0  0  0  0  0  0  0  0
   56.7149   30.3106   42.3101 H   0  0  0  0  0  0  0  0  0  0  0  0
   57.5754   32.8299   42.7795 H   0  0  0  0  0  0  0  0  0  0  0  0
   58.0611   32.3105   47.5002 H   0  0  0  0  0  0  0  0  0  0  0  0
   58.9881   34.2353   48.7875 H   0  0  0  0  0  0  0  0  0  0  0  0
   59.9849   36.1820   47.5856 H   0  0  0  0  0  0  0  0  0  0  0  0
   60.0579   36.2040   45.0914 H   0  0  0  0  0  0  0  0  0  0  0  0
   59.1323   34.2859   43.7926 H   0  0  0  0  0  0  0  0  0  0  0  0
  1  2  2  0
  2  3  1  0
  3  4  1  0
  4  5  2  0
  5  6  1  0
  6  7  2  0
  7  8  1  0
  7  9  1  0
  9 10  2  0
  2 11  1  0
 11 12  2  0
 12 13  1  0
 13 14  2  0
 14 15  1  0
 15 16  2  0
 16 17  1  0
 17 18  2  0
 18 19  1  0
 19 20  2  0
 14 21  1  0
 10  4  1  0
 21 11  1  0
 20 15  1  0
  3 22  1  0
  5 23  1  0
  6 24  1  0
  9 25  1  0
 10 26  1  0
 12 27  1  0
 13 28  1  0
 16 29  1  0
 17 30  1  0
 18 31  1  0
 19 32  1  0
 20 33  1  0
M  END
>  <UniqueID>  (6) 
6

>  <SMILES>  (6) 
O=C(Nc1ccc(F)cc1)c1ccc(-c2ccccc2)o1

>  <Energy>  (6) 
65.46097320266102

>  <Genealogy>  (6) 
O=C(Nc1ccc(F)cc1)c1ccc(-c2ccccc2)o1 (3D coordinates assigned)
O=C(Nc1ccc(F)cc1)c1ccc(-c2ccccc2)o1 (optimized conformer: 65.46097320266102 kcal/mol)

>  <smiles>  (6) 
O=C(Nc1ccc(F)cc1)c1ccc(-c2ccccc2)o1

>  <score_type>  (6) 
oracle

>  <origin>  (6) 
adg

>  <m_score__min__energy>  (6) 
-7.1699999999999999

>  <m_primary>  (6) 
energy

$$$$
6:0
     RDKit          3D

 42 44  0  0  1  0  0  0  0  0999 V2000
   56.1880   28.9650   42.5560 F   0  0  0  0  0  0  0  0  0  0  0  0
   56.4230   29.3600   43.8590 C   0  0  0  0  0  0  0  0  0  0  0  0
   55.2160   29.3930   44.5230 F   0  0  0  0  0  0  0  0  0  0  0  0
   57.2500   28.4160   44.4680 F   0  0  0  0  0  0  0  0  0  0  0  0
   57.0890   30.6770   43.8190 C   0  0  0  0  0  0  0  0  0  0  0  0
   57.3650   31.2230   42.5930 C   0  0  0  0  0  0  0  0  0  0  0  0
   57.9820   32.4430   42.5660 C   0  0  0  0  0  0  0  0  0  0  0  0
   58.3140   33.1010   43.7570 C   0  0  0  0  0  0  0  0  0  0  0  0
   58.0460   32.5770   44.9970 C   0  0  0  0  0  0  0  0  0  0  0  0
   58.2220   33.2120   46.2650 C   0  0  0  0  0  0  0  0  0  0  0  0
   58.4420   34.4860   46.5020 C   0  0  0  0  0  0  0  0  0  0  0  0
   59.7060   35.1530   46.7820 C   0  0  0  0  0  0  0  0  0  0  0  0
   60.3260   34.5640   48.0120 N   0  0  0  0  0  0  0  0  0  0  0  0
   61.5290   34.1040   47.9600 C   0  0  0  0  0  0  0  0  0  0  0  0
   62.2490   33.7850   49.0820 C   0  0  0  0  0  0  0  0  0  0  0  0
   63.5340   33.2980   48.9330 C   0  0  0  0  0  0  0  0  0  0  0  0
   64.0630   33.1440   47.6920 N   0  0  0  0  0  0  0  0  0  0  0  0
   63.3410   33.4630   46.5860 C   0  0  0  0  0  0  0  0  0  0  0  0
   62.0730   33.9440   46.7320 N   0  0  0  0  0  0  0  0  0  0  0  0
   58.1760   32.3220   47.4900 C   0  0  0  0  0  0  0  0  0  0  0  0
   59.3970   31.5810   47.6380 N   0  0  0  0  0  0  0  0  0  0  0  0
   59.8420   31.1550   48.8570 C   0  0  0  0  0  0  0  0  0  0  0  0
   61.0060   30.4620   48.7370 C   0  0  0  0  0  0  0  0  0  0  0  0
   61.2870   30.4580   47.4060 N   0  0  0  0  0  0  0  0  0  0  0  0
   60.3020   31.1400   46.7610 C   0  0  0  0  0  0  0  0  0  0  0  0
   57.4170   31.3290   44.9890 C   0  0  0  0  0  0  0  0  0  0  0  0
   57.0996   30.6984   41.6633 H   0  0  0  0  0  0  0  0  0  0  0  0
   58.2198   32.9120   41.5998 H   0  0  0  0  0  0  0  0  0  0  0  0
   58.8112   34.0803   43.6960 H   0  0  0  0  0  0  0  0  0  0  0  0
   57.5536   35.1344   46.4868 H   0  0  0  0  0  0  0  0  0  0  0  0
   60.3872   35.0185   45.9289 H   0  0  0  0  0  0  0  0  0  0  0  0
   59.5239   36.2257   46.9438 H   0  0  0  0  0  0  0  0  0  0  0  0
   61.8119   33.9143   50.0831 H   0  0  0  0  0  0  0  0  0  0  0  0
   64.1285   33.0350   49.8204 H   0  0  0  0  0  0  0  0  0  0  0  0
   65.0340   32.7770   47.5430 H   0  0  0  0  0  0  0  0  0  0  0  0
   63.7746   33.3347   45.5832 H   0  0  0  0  0  0  0  0  0  0  0  0
   58.0249   32.9470   48.3825 H   0  0  0  0  0  0  0  0  0  0  0  0
   57.3470   31.6086   47.3721 H   0  0  0  0  0  0  0  0  0  0  0  0
   59.3270   31.3470   49.8098 H   0  0  0  0  0  0  0  0  0  0  0  0
   61.5950   30.0025   49.5444 H   0  0  0  0  0  0  0  0  0  0  0  0
   60.2577   31.3043   45.6742 H   0  0  0  0  0  0  0  0  0  0  0  0
   57.1752   30.8502   45.9493 H   0  0  0  0  0  0  0  0  0  0  0  0
  1  2  1  0
  2  3  1  0
  2  4  1  0
  2  5  1  0
  5  6  2  0
  6  7  1  0
  7  8  2  0
  8  9  1  0
  9 10  1  0
 10 11  2  0
 11 12  1  0
 12 13  1  0
 13 14  2  0
 14 15  1  0
 15 16  2  0
 16 17  1  0
 17 18  1  0
 18 19  2  0
 10 20  1  0
 20 21  1  0
 21 22  1  0
 22 23  2  0
 23 24  1  0
 24 25  2  0
  9 26  2  0
 26  5  1  0
 19 14  1  0
 25 21  1  0
  6 27  1  0
  7 28  1  0
  8 29  1  0
 11 30  1  0
 12 31  1  0
 12 32  1  0
 15 33  1  0
 16 34  1  0
 17 35  1  0
 18 36  1  0
 20 37  1  0
 20 38  1  0
 22 39  1  0
 23 40  1  0
 25 41  1  0
 26 42  1  0
M  END
>  <smiles>  (7) 
FC(F)(F)c1cccc(C(=CCN=c2cc[nH]cn2)Cn2ccnc2)c1

>  <score_type>  (7) 
oracle

>  <origin>  (7) 
adg

>  <m_score__min__energy>  (7) 
-7.2599999999999998

>  <m_primary>  (7) 
energy

$$$$
7:0
     RDKit          3D

 28 28  0  0  0  0  0  0  0  0999 V2000
   57.1000   33.1640   45.6760 C   0  0  0  0  0  0  0  0  0  0  0  0
   57.4730   31.7980   45.1960 C   0  0  0  0  0  0  0  0  0  0  0  0
   58.7520   31.2850   45.4450 C   0  0  0  0  0  0  0  0  0  0  0  0
   59.0750   30.0030   44.9980 C   0  0  0  0  0  0  0  0  0  0  0  0
   58.1230   29.2390   44.3060 C   0  0  0  0  0  0  0  0  0  0  0  0
   58.4470   27.8420   43.8340 C   0  0  0  0  0  0  0  0  0  0  0  0
   57.3920   26.8790   44.1950 N   0  0  0  0  0  0  0  0  0  0  0  0
   57.8350   25.9430   45.2430 C   0  0  0  0  0  0  0  0  0  0  0  0
   56.7700   25.7770   46.3330 C   0  0  0  0  0  0  0  0  0  0  0  0
   55.5560   26.5120   45.9910 N   0  0  0  0  0  0  0  0  0  0  0  0
   56.8510   29.7870   44.0870 C   0  0  0  0  0  0  0  0  0  0  0  0
   56.5590   31.0390   44.5310 N   0  0  0  0  0  0  0  0  0  0  0  0
   57.0962   33.1778   46.7759 H   0  0  0  0  0  0  0  0  0  0  0  0
   57.8311   33.8962   45.3026 H   0  0  0  0  0  0  0  0  0  0  0  0
   56.0982   33.4230   45.3026 H   0  0  0  0  0  0  0  0  0  0  0  0
   59.4954   31.8871   45.9880 H   0  0  0  0  0  0  0  0  0  0  0  0
   60.0770   29.5910   45.1884 H   0  0  0  0  0  0  0  0  0  0  0  0
   58.5579   27.8536   42.7397 H   0  0  0  0  0  0  0  0  0  0  0  0
   59.3789   27.5250   44.3250 H   0  0  0  0  0  0  0  0  0  0  0  0
   57.1460   26.3380   43.3340 H   0  0  0  0  0  0  0  0  0  0  0  0
   56.5370   27.3930   44.5150 H   0  0  0  0  0  0  0  0  0  0  0  0
   58.0347   24.9626   44.7858 H   0  0  0  0  0  0  0  0  0  0  0  0
   58.7449   26.3502   45.7080 H   0  0  0  0  0  0  0  0  0  0  0  0
   56.5268   24.7095   46.4394 H   0  0  0  0  0  0  0  0  0  0  0  0
   57.1684   26.1762   47.2774 H   0  0  0  0  0  0  0  0  0  0  0  0
   54.8600   26.3500   46.7540 H   0  0  0  0  0  0  0  0  0  0  0  0
   55.1510   26.0900   45.1240 H   0  0  0  0  0  0  0  0  0  0  0  0
   56.0866   29.2023   43.5542 H   0  0  0  0  0  0  0  0  0  0  0  0
  1  2  1  0
  2  3  2  0
  3  4  1  0
  4  5  2  0
  5  6  1  0
  6  7  1  0
  7  8  1  0
  8  9  1  0
  9 10  1  0
  5 11  1  0
 11 12  2  0
 12  2  1  0
  1 13  1  0
  1 14  1  0
  1 15  1  0
  3 16  1  0
  4 17  1  0
  6 18  1  0
  6 19  1  0
  7 20  1  0
  7 21  1  0
  8 22  1  0
  8 23  1  0
  9 24  1  0
  9 25  1  0
 10 26  1  0
 10 27  1  0
 11 28  1  0
M  CHG  1   7   1
M  END
>  <UniqueID>  (8) 
7

>  <SMILES>  (8) 
Cc1ccc(C[NH2+]CCN)cn1

>  <Energy>  (8) 
21.557728037786813

>  <Genealogy>  (8) 
Cc1ccc(C[NH2+]CCN)cn1 (protonated)
Cc1ccc(C[NH2+]CCN)cn1 (3D coordinates assigned)
Cc1ccc(C[NH2+]CCN)cn1 (optimized conformer: 21.557728037786813 kcal/mol)

>  <smiles>  (8) 
Cc1ccc(CNCCN)cn1

>  <score_type>  (8) 
oracle

>  <origin>  (8) 
adg

>  <m_score__min__energy>  (8) 
-4.0300000000000002

>  <m_primary>  (8) 
energy

$$$$
8:0
     RDKit          3D

 38 40  0  0  0  0  0  0  0  0999 V2000
   59.1031   31.3018   48.7178 H   0  0  0  0  0  0  0  0  0  0  0  0
   59.6410   31.8760   47.9490 C   0  0  0  0  0  0  0  0  0  0  0  0
   60.6390   32.6160   48.3410 N   0  0  0  0  0  0  0  0  0  0  0  0
   61.7760   32.8970   47.5650 N   0  0  0  0  0  0  0  0  0  0  0  0
   63.0570   32.7190   47.9450 C   0  0  0  0  0  0  0  0  0  0  0  0
   63.4880   31.9430   49.1480 C   0  0  0  0  0  0  0  0  0  0  0  0
   63.1885   32.4822   50.0588 H   0  0  0  0  0  0  0  0  0  0  0  0
   63.0111   30.9518   49.1352 H   0  0  0  0  0  0  0  0  0  0  0  0
   64.5815   31.8240   49.1352 H   0  0  0  0  0  0  0  0  0  0  0  0
   63.8990   33.4650   47.2020 N   0  0  0  0  0  0  0  0  0  0  0  0
   63.1560   34.1700   46.3580 N   0  0  0  0  0  0  0  0  0  0  0  0
   61.8770   33.8450   46.6190 C   0  0  0  0  0  0  0  0  0  0  0  0
   60.8920   34.4200   46.0860 O   0  0  0  0  0  0  0  0  0  0  0  0
   59.1620   31.7440   46.5140 C   0  0  1  0  0  0  0  0  0  0  0  0
   60.0689   31.7347   45.8915 H   0  0  0  0  0  0  0  0  0  0  0  0
   58.4470   30.4410   46.2520 C   0  0  0  0  0  0  0  0  0  0  0  0
   58.9080   29.3240   46.8750 N   0  0  0  0  0  0  0  0  0  0  0  0
   58.2890   28.1310   46.7470 C   0  0  0  0  0  0  0  0  0  0  0  0
   58.7175   27.2366   47.2229 H   0  0  0  0  0  0  0  0  0  0  0  0
   57.1080   28.0300   46.0130 C   0  0  0  0  0  0  0  0  0  0  0  0
   56.3790   26.7350   45.9550 C   0  0  0  0  0  0  0  0  0  0  0  0
   55.1210   26.7100   46.0170 O   0  0  0  0  0  0  0  0  0  0  0  0
   57.0640   25.5310   45.8370 O   0  0  0  0  0  0  0  0  0  0  0  0
   56.6520   29.1860   45.3450 C   0  0  0  0  0  0  0  0  0  0  0  0
   55.5500   29.1510   44.7310 O   0  0  0  0  0  0  0  0  0  0  0  0
   57.3880   30.3520   45.3720 N   0  0  0  0  0  0  0  0  0  0  0  0
   56.9920   31.4910   44.4910 C   0  0  2  0  0  0  0  0  0  0  0  0
   55.9755   31.7547   44.8184 H   0  0  0  0  0  0  0  0  0  0  0  0
   57.0110   31.0770   43.0040 C   0  0  0  0  0  0  0  0  0  0  0  0
   57.0613   29.9807   42.9292 H   0  0  0  0  0  0  0  0  0  0  0  0
   56.0954   31.4365   42.5116 H   0  0  0  0  0  0  0  0  0  0  0  0
   57.8898   31.5188   42.5116 H   0  0  0  0  0  0  0  0  0  0  0  0
   57.8910   32.7420   44.6410 C   0  0  0  0  0  0  0  0  0  0  0  0
   57.3315   33.6279   44.3061 H   0  0  0  0  0  0  0  0  0  0  0  0
   58.7930   32.5978   44.0281 H   0  0  0  0  0  0  0  0  0  0  0  0
   58.3170   32.9420   46.0810 C   0  0  0  0  0  0  0  0  0  0  0  0
   57.4270   33.0184   46.7229 H   0  0  0  0  0  0  0  0  0  0  0  0
   58.9047   33.8673   46.1725 H   0  0  0  0  0  0  0  0  0  0  0  0
  1  2  1  0
  2  3  2  0
  3  4  1  0
  4  5  1  0
  5  6  1  0
  6  7  1  0
  6  8  1  0
  6  9  1  0
  5 10  2  0
 10 11  1  0
 11 12  1  0
 12 13  2  0
  2 14  1  0
 14 15  1  6
 14 16  1  0
 16 17  2  0
 17 18  1  0
 18 19  1  0
 18 20  2  0
 20 21  1  0
 21 22  2  0
 21 23  1  0
 20 24  1  0
 24 25  2  0
 24 26  1  0
 26 27  1  0
 27 28  1  1
 27 29  1  0
 29 30  1  0
 29 31  1  0
 29 32  1  0
 27 33  1  0
 33 34  1  0
 33 35  1  0
 33 36  1  0
 36 37  1  0
 36 38  1  0
 12  4  1  0
 36 14  1  0
 26 16  1  0
M  CHG  2  11  -1  23  -1
M  END
>  <UniqueID>  (9) 
8

>  <SMILES>  (9) 
Cc1n[n-]c(=O)n1/N=C\[C@@H]1CC[C@@H](C)n2c1ncc(C(=O)[O-])c2=O

>  <Energy>  (9) 
94.95719926182839

>  <Genealogy>  (9) 
Cc1n[n-]c(=O)n1N=CC1CCC(C)n2c1ncc(C(=O)[O-])c2=O (protonated)
Cc1n[n-]c(=O)n1N=C[C@@H]1CC[C@@H](C)n2c1ncc(C(=O)[O-])c2=O (chirality)
Cc1n[n-]c(=O)n1/N=C\[C@@H]1CC[C@@H](C)n2c1ncc(C(=O)[O-])c2=O (cis-trans isomerization)
Cc1n[n-]c(=O)n1/N=C\[C@@H]1CC[C@@H](C)n2c1ncc(C(=O)[O-])c2=O (3D coordinates assigned)
Cc1n[n-]c(=O)n1/N=C\[C@@H]1CC[C@@H](C)n2c1ncc(C(=O)[O-])c2=O (nonaromatic ring conformer: 94.95719926182839 kcal/mol)

>  <smiles>  (9) 
Cc1n[nH]c(=O)n1N=CC1CCC(C)n2c1ncc(C(=O)O)c2=O

>  <score_type>  (9) 
oracle

>  <origin>  (9) 
adg

>  <m_score__min__energy>  (9) 
-11.07

>  <m_primary>  (9) 
energy

$$$$
9:0
     RDKit          3D

 31 32  0  0  0  0  0  0  0  0999 V2000
   54.7420   28.5820   44.4930 H   0  0  0  0  0  0  0  0  0  0  0  0
   55.3140   29.3800   44.1340 N   0  0  0  0  0  0  0  0  0  0  0  0
   56.3310   29.8240   44.7970 C   0  0  0  0  0  0  0  0  0  0  0  0
   56.7230   31.1120   44.7920 N   0  0  0  0  0  0  0  0  0  0  0  0
   57.7990   31.0790   45.6150 C   0  0  0  0  0  0  0  0  0  0  0  0
   58.6490   32.2560   45.9400 C   0  0  0  0  0  0  0  0  0  0  0  0
   59.9380   32.0220   46.4580 C   0  0  0  0  0  0  0  0  0  0  0  0
   60.2710   30.9882   46.6323 H   0  0  0  0  0  0  0  0  0  0  0  0
   60.8030   33.0830   46.7550 C   0  0  0  0  0  0  0  0  0  0  0  0
   62.1610   32.8100   47.3340 C   0  0  0  0  0  0  0  0  0  0  0  0
   62.1005   32.8222   48.4323 H   0  0  0  0  0  0  0  0  0  0  0  0
   62.5117   31.8234   46.9970 H   0  0  0  0  0  0  0  0  0  0  0  0
   62.8657   33.5844   46.9970 H   0  0  0  0  0  0  0  0  0  0  0  0
   60.3700   34.3980   46.5660 C   0  0  0  0  0  0  0  0  0  0  0  0
   61.0386   35.2356   46.8138 H   0  0  0  0  0  0  0  0  0  0  0  0
   59.0950   34.6530   46.0650 C   0  0  0  0  0  0  0  0  0  0  0  0
   58.7709   35.6927   45.9099 H   0  0  0  0  0  0  0  0  0  0  0  0
   58.2170   33.5990   45.7550 C   0  0  0  0  0  0  0  0  0  0  0  0
   56.8390   33.9420   45.2510 C   0  0  0  0  0  0  0  0  0  0  0  0
   56.1671   34.1093   46.1057 H   0  0  0  0  0  0  0  0  0  0  0  0
   56.8889   34.8551   44.6397 H   0  0  0  0  0  0  0  0  0  0  0  0
   56.4550   33.1120   44.6397 H   0  0  0  0  0  0  0  0  0  0  0  0
   58.0510   29.8340   46.0850 N   0  0  0  0  0  0  0  0  0  0  0  0
   57.1180   29.0590   45.5650 N   0  0  0  0  0  0  0  0  0  0  0  0
   56.9840   27.3560   45.8500 S   0  0  0  0  0  0  0  0  0  0  0  0
   55.5390   26.9480   45.7900 O   0  0  0  0  0  0  0  0  0  0  0  0
   57.5490   27.0270   47.2030 O   0  0  0  0  0  0  0  0  0  0  0  0
   57.8930   26.4650   44.6060 C   0  0  0  0  0  0  0  0  0  0  0  0
   58.5979   25.7740   45.0914 H   0  0  0  0  0  0  0  0  0  0  0  0
   57.1927   25.8937   43.9789 H   0  0  0  0  0  0  0  0  0  0  0  0
   58.4501   27.1766   43.9789 H   0  0  0  0  0  0  0  0  0  0  0  0
  1  2  1  0
  2  3  2  0
  3  4  1  0
  4  5  2  0
  5  6  1  0
  6  7  2  0
  7  8  1  0
  7  9  1  0
  9 10  1  0
 10 11  1  0
 10 12  1  0
 10 13  1  0
  9 14  2  0
 14 15  1  0
 14 16  1  0
 16 17  1  0
 16 18  2  0
 18 19  1  0
 19 20  1  0
 19 21  1  0
 19 22  1  0
  5 23  1  0
 23 24  1  0
 24 25  1  0
 25 26  2  0
 25 27  2  0
 25 28  1  0
 28 29  1  0
 28 30  1  0
 28 31  1  0
 24  3  1  0
 18  6  1  0
M  CHG  1  23  -1
M  END
>  <UniqueID>  (10) 
9

>  <SMILES>  (10) 
[H]/N=c1\nc(-c2cc(C)ccc2C)[n-]n1S(C)(=O)=O

>  <Energy>  (10) 
65.91920001245131

>  <Genealogy>  (10) 
Cc1ccc(C)c(-c2nc(=N)n(S(C)(=O)=O)[n-]2)c1 (protonated)
[H]/N=c1\nc(-c2cc(C)ccc2C)[n-]n1S(C)(=O)=O (cis-trans isomerization)
[H]/N=c1\nc(-c2cc(C)ccc2C)[n-]n1S(C)(=O)=O (3D coordinates assigned)
[H]/N=c1\nc(-c2cc(C)ccc2C)[n-]n1S(C)(=O)=O (optimized conformer: 65.91920001245131 kcal/mol)

>  <smiles>  (10) 
Cc1ccc(C)c(-c2nc(=N)n(S(C)(=O)=O)[nH]2)c1

>  <score_type>  (10) 
oracle

>  <origin>  (10) 
adg

>  <m_score__min__energy>  (10) 
-9.2799999999999994

>  <m_primary>  (10) 
energy

$$$$
10:0
     RDKit          3D

 14 14  0  0  0  0  0  0  0  0999 V2000
   53.9250   29.6500   52.2080 C   0  0  0  0  0  0  0  0  0  0  0  0
   52.8520   30.4480   51.5280 C   0  0  0  0  0  0  0  0  0  0  0  0
   52.3720   30.0550   50.2730 C   0  0  0  0  0  0  0  0  0  0  0  0
   51.3990   30.8400   49.6540 C   0  0  0  0  0  0  0  0  0  0  0  0
   50.9400   30.5100   48.5300 O   0  0  0  0  0  0  0  0  0  0  0  0
   50.9480   31.9660   50.2650 N   0  0  0  0  0  0  0  0  0  0  0  0
   51.4330   32.3470   51.4760 C   0  0  0  0  0  0  0  0  0  0  0  0
   51.0010   33.3970   52.0180 O   0  0  0  0  0  0  0  0  0  0  0  0
   52.3820   31.5950   52.0980 N   0  0  0  0  0  0  0  0  0  0  0  0
   53.8100   29.7355   53.2986 H   0  0  0  0  0  0  0  0  0  0  0  0
   53.8399   28.5940   51.9120 H   0  0  0  0  0  0  0  0  0  0  0  0
   54.9118   30.0354   51.9120 H   0  0  0  0  0  0  0  0  0  0  0  0
   52.7541   29.1462   49.7851 H   0  0  0  0  0  0  0  0  0  0  0  0
   52.7530   31.9050   53.0250 H   0  0  0  0  0  0  0  0  0  0  0  0
  1  2  1  0
  2  3  2  0
  3  4  1  0
  4  5  2  0
  4  6  1  0
  6  7  1  0
  7  8  2  0
  7  9  1  0
  9  2  1  0
  1 10  1  0
  1 11  1  0
  1 12  1  0
  3 13  1  0
  9 14  1  0
M  CHG  1   6  -1
M  END
>  <UniqueID>  (11) 
10

>  <SMILES>  (11) 
Cc1cc(=O)[n-]c(=O)[nH]1

>  <Energy>  (11) 
12.430571488929179

>  <Genealogy>  (11) 
Cc1cc(=O)[n-]c(=O)[nH]1 (protonated)
Cc1cc(=O)[n-]c(=O)[nH]1 (3D coordinates assigned)
Cc1cc(=O)[n-]c(=O)[nH]1 (optimized conformer: 12.430571488929179 kcal/mol)

>  <smiles>  (11) 
Cc1cc(=O)[nH]c(=O)[nH]1

>  <score_type>  (11) 
oracle

>  <origin>  (11) 
adg

>  <m_score__min__energy>  (11) 
-7.0499999999999998

>  <m_primary>  (11) 
energy

$$$$
11:0
     RDKit          3D

 38 40  0  0  0  0  0  0  0  0999 V2000
   56.2048   29.3304   44.8689 H   0  0  0  0  0  0  0  0  0  0  0  0
   56.6260   28.5200   45.4820 C   0  0  0  0  0  0  0  0  0  0  0  0
   55.9430   27.3530   45.6200 N   0  0  0  0  0  0  0  0  0  0  0  0
   56.4080   26.3200   46.3720 C   0  0  0  0  0  0  0  0  0  0  0  0
   55.6860   25.2360   46.4510 N   0  0  0  0  0  0  0  0  0  0  0  0
   54.8680   24.6400   45.3940 C   0  0  0  0  0  0  0  0  0  0  0  0
   54.5403   25.4303   44.7026 H   0  0  0  0  0  0  0  0  0  0  0  0
   53.9979   24.1500   45.8554 H   0  0  0  0  0  0  0  0  0  0  0  0
   55.6480   23.6150   44.6330 C   0  0  0  0  0  0  0  0  0  0  0  0
   55.1840   22.9370   43.6080 O   0  0  0  0  0  0  0  0  0  0  0  0
   56.0810   22.1120   43.1500 N   0  0  0  0  0  0  0  0  0  0  0  0
   57.1820   22.2730   43.9110 C   0  0  0  0  0  0  0  0  0  0  0  0
   58.4260   21.4650   43.7610 C   0  0  0  0  0  0  0  0  0  0  0  0
   58.8194   21.2095   44.7559 H   0  0  0  0  0  0  0  0  0  0  0  0
   58.1990   20.5415   43.2082 H   0  0  0  0  0  0  0  0  0  0  0  0
   59.1774   22.0479   43.2082 H   0  0  0  0  0  0  0  0  0  0  0  0
   56.9430   23.2180   44.8860 C   0  0  0  0  0  0  0  0  0  0  0  0
   57.6227   23.5703   45.6759 H   0  0  0  0  0  0  0  0  0  0  0  0
   57.6420   26.4590   47.0350 C   0  0  0  0  0  0  0  0  0  0  0  0
   58.0365   25.6359   47.6489 H   0  0  0  0  0  0  0  0  0  0  0  0
   58.3620   27.6490   46.9080 C   0  0  0  0  0  0  0  0  0  0  0  0
   59.3230   27.7652   47.4305 H   0  0  0  0  0  0  0  0  0  0  0  0
   57.8660   28.6980   46.1170 C   0  0  0  0  0  0  0  0  0  0  0  0
   58.6010   29.9760   45.9670 C   0  0  0  0  0  0  0  0  0  0  0  0
   59.7700   29.9570   45.4950 O   0  0  0  0  0  0  0  0  0  0  0  0
   58.0000   31.2300   46.3420 N   0  0  0  0  0  0  0  0  0  0  0  0
   57.0150   31.2420   46.6870 H   0  0  0  0  0  0  0  0  0  0  0  0
   58.6780   32.4940   46.2390 C   0  0  0  0  0  0  0  0  0  0  0  0
   59.3320   33.0480   47.3550 C   0  0  0  0  0  0  0  0  0  0  0  0
   59.3463   32.4999   48.3086 H   0  0  0  0  0  0  0  0  0  0  0  0
   59.9640   34.2920   47.2580 C   0  0  0  0  0  0  0  0  0  0  0  0
   60.4811   34.7146   48.1321 H   0  0  0  0  0  0  0  0  0  0  0  0
   59.9400   34.9980   46.0550 C   0  0  0  0  0  0  0  0  0  0  0  0
   60.4408   35.9745   45.9804 H   0  0  0  0  0  0  0  0  0  0  0  0
   59.2800   34.4650   44.9450 C   0  0  0  0  0  0  0  0  0  0  0  0
   59.2606   35.0247   43.9982 H   0  0  0  0  0  0  0  0  0  0  0  0
   58.6430   33.2210   45.0330 C   0  0  0  0  0  0  0  0  0  0  0  0
   57.8380   32.5800   43.6060 Cl  0  0  0  0  0  0  0  0  0  0  0  0
  1  2  1  0
  2  3  1  0
  3  4  1  0
  4  5  2  0
  5  6  1  0
  6  7  1  0
  6  8  1  0
  6  9  1  0
  9 10  1  0
 10 11  1  0
 11 12  2  0
 12 13  1  0
 13 14  1  0
 13 15  1  0
 13 16  1  0
 12 17  1  0
 17 18  1  0
  4 19  1  0
 19 20  1  0
 19 21  2  0
 21 22  1  0
 21 23  1  0
 23 24  1  0
 24 25  2  0
 24 26  1  0
 26 27  1  0
 26 28  1  0
 28 29  2  0
 29 30  1  0
 29 31  1  0
 31 32  1  0
 31 33  2  0
 33 34  1  0
 33 35  1  0
 35 36  1  0
 35 37  2  0
 37 38  1  0
 23  2  2  0
 37 28  1  0
 17  9  2  0
M  CHG  1   3  -1
M  END
>  <UniqueID>  (12) 
11

>  <SMILES>  (12) 
Cc1cc(C/N=c2\ccc(C(=O)Nc3ccccc3Cl)c[n-]2)on1

>  <Energy>  (12) 
78.6444101450746

>  <Genealogy>  (12) 
Cc1cc(CN=c2ccc(C(=O)Nc3ccccc3Cl)c[n-]2)on1 (protonated)
Cc1cc(C/N=c2\ccc(C(=O)Nc3ccccc3Cl)c[n-]2)on1 (cis-trans isomerization)
Cc1cc(C/N=c2\ccc(C(=O)Nc3ccccc3Cl)c[n-]2)on1 (3D coordinates assigned)
Cc1cc(C/N=c2\ccc(C(=O)Nc3ccccc3Cl)c[n-]2)on1 (optimized conformer: 78.6444101450746 kcal/mol)

>  <smiles>  (12) 
Cc1cc(CN=c2ccc(C(=O)Nc3ccccc3Cl)c[nH]2)on1

>  <score_type>  (12) 
oracle

>  <origin>  (12) 
adg

>  <m_score__min__energy>  (12) 
-10.25

>  <m_primary>  (12) 
energy

$$$$
12:0
     RDKit          3D

 36 37  0  0  0  0  0  0  0  0999 V2000
   60.0370   26.7880   47.6290 C   0  0  0  0  0  0  0  0  0  0  0  0
   59.4660   26.5150   46.3100 N   0  0  0  0  0  0  0  0  0  0  0  0
   59.2760   25.1190   45.9180 C   0  0  0  0  0  0  0  0  0  0  0  0
   58.7400   27.5500   45.6240 C   0  0  0  0  0  0  0  0  0  0  0  0
   59.4230   28.4570   44.8630 N   0  0  0  0  0  0  0  0  0  0  0  0
   58.7870   29.4350   44.1650 C   0  0  0  0  0  0  0  0  0  0  0  0
   57.3980   29.5320   44.2040 C   0  0  0  0  0  0  0  0  0  0  0  0
   56.6700   28.6310   44.9750 C   0  0  0  0  0  0  0  0  0  0  0  0
   57.3300   27.6420   45.7240 C   0  0  0  0  0  0  0  0  0  0  0  0
   56.5220   26.6960   46.5870 C   0  0  0  0  0  0  0  0  0  0  0  0
   55.2160   26.4230   45.9910 N   0  0  0  0  0  0  0  0  0  0  0  0
   54.7660   25.1280   45.5740 C   0  0  0  0  0  0  0  0  0  0  0  0
   53.5440   24.8420   45.6740 O   0  0  0  0  0  0  0  0  0  0  0  0
   55.7010   24.1120   45.0600 C   0  0  0  0  0  0  0  0  0  0  0  0
   55.9590   24.0580   43.6810 C   0  0  0  0  0  0  0  0  0  0  0  0
   56.8580   23.1200   43.1700 C   0  0  0  0  0  0  0  0  0  0  0  0
   57.5110   22.2340   44.0310 C   0  0  0  0  0  0  0  0  0  0  0  0
   57.2620   22.2820   45.4050 C   0  0  0  0  0  0  0  0  0  0  0  0
   56.3610   23.2190   45.9270 C   0  0  0  0  0  0  0  0  0  0  0  0
   56.1080   23.2790   47.8280 Br  0  0  0  0  0  0  0  0  0  0  0  0
   59.3365   26.4531   48.4082 H   0  0  0  0  0  0  0  0  0  0  0  0
   60.9893   26.2478   47.7353 H   0  0  0  0  0  0  0  0  0  0  0  0
   60.2145   27.8684   47.7353 H   0  0  0  0  0  0  0  0  0  0  0  0
   59.1909   24.4935   46.8189 H   0  0  0  0  0  0  0  0  0  0  0  0
   58.3572   25.0278   45.3201 H   0  0  0  0  0  0  0  0  0  0  0  0
   60.1370   24.7856   45.3201 H   0  0  0  0  0  0  0  0  0  0  0  0
   60.4630   28.3930   44.7910 H   0  0  0  0  0  0  0  0  0  0  0  0
   59.3706   30.1513   43.5681 H   0  0  0  0  0  0  0  0  0  0  0  0
   56.8807   30.3147   43.6298 H   0  0  0  0  0  0  0  0  0  0  0  0
   55.5720   28.6932   44.9983 H   0  0  0  0  0  0  0  0  0  0  0  0
   57.0723   25.7497   46.6946 H   0  0  0  0  0  0  0  0  0  0  0  0
   56.3656   27.1671   47.5686 H   0  0  0  0  0  0  0  0  0  0  0  0
   55.4510   24.7573   43.0007 H   0  0  0  0  0  0  0  0  0  0  0  0
   57.0526   23.0783   42.0881 H   0  0  0  0  0  0  0  0  0  0  0  0
   58.2217   21.4981   43.6267 H   0  0  0  0  0  0  0  0  0  0  0  0
   57.7756   21.5811   46.0796 H   0  0  0  0  0  0  0  0  0  0  0  0
  1  2  1  0
  2  3  1  0
  2  4  1  0
  4  5  2  0
  5  6  1  0
  6  7  2  0
  7  8  1  0
  8  9  2  0
  9 10  1  0
 10 11  1  0
 11 12  1  0
 12 13  2  0
 12 14  1  0
 14 15  2  0
 15 16  1  0
 16 17  2  0
 17 18  1  0
 18 19  2  0
 19 20  1  0
  9  4  1  0
 19 14  1  0
  1 21  1  0
  1 22  1  0
  1 23  1  0
  3 24  1  0
  3 25  1  0
  3 26  1  0
  5 27  1  0
  6 28  1  0
  7 29  1  0
  8 30  1  0
 10 31  1  0
 10 32  1  0
 15 33  1  0
 16 34  1  0
 17 35  1  0
 18 36  1  0
M  CHG  2   5   1  11  -1
M  END
>  <UniqueID>  (13) 
12

>  <SMILES>  (13) 
CN(C)c1[nH+]cccc1C[N-]C(=O)c1ccccc1Br

>  <Energy>  (13) 
43.54321601566409

>  <Genealogy>  (13) 
CN(C)c1[nH+]cccc1C[N-]C(=O)c1ccccc1Br (protonated)
CN(C)c1[nH+]cccc1C[N-]C(=O)c1ccccc1Br (3D coordinates assigned)
CN(C)c1[nH+]cccc1C[N-]C(=O)c1ccccc1Br (optimized conformer: 43.54321601566409 kcal/mol)

>  <smiles>  (13) 
CN(C)c1ncccc1CNC(=O)c1ccccc1Br

>  <score_type>  (13) 
oracle

>  <origin>  (13) 
adg

>  <m_score__min__energy>  (13) 
-6.7000000000000002

>  <m_primary>  (13) 
energy

$$$$
13:0
     RDKit          3D

 51 55  0  0  0  0  0  0  0  0999 V2000
   61.0810   29.0570   49.8970 C   0  0  0  0  0  0  0  0  0  0  0  0
   60.3110   30.1570   49.3080 N   0  0  0  0  0  0  0  0  0  0  0  0
   60.2730   31.4510   49.7090 C   0  0  0  0  0  0  0  0  0  0  0  0
   60.9570   32.0290   50.7870 C   0  0  0  0  0  0  0  0  0  0  0  0
   60.8070   33.4040   51.0140 C   0  0  0  0  0  0  0  0  0  0  0  0
   59.9960   34.1810   50.1700 C   0  0  0  0  0  0  0  0  0  0  0  0
   59.3220   33.5940   49.0870 C   0  0  0  0  0  0  0  0  0  0  0  0
   59.4630   32.2140   48.8770 C   0  0  0  0  0  0  0  0  0  0  0  0
   58.9790   31.3310   47.9060 C   0  0  0  0  0  0  0  0  0  0  0  0
   59.5350   30.1060   48.1960 C   0  0  0  0  0  0  0  0  0  0  0  0
   59.2980   29.0200   47.3560 C   0  0  0  0  0  0  0  0  0  0  0  0
   59.8310   27.9000   47.5860 O   0  0  0  0  0  0  0  0  0  0  0  0
   58.4960   29.2010   46.2580 N   0  0  0  0  0  0  0  0  0  0  0  0
   58.2510   28.0920   45.3690 C   0  0  0  0  0  0  0  0  0  0  0  0
   58.5710   28.1930   44.0050 C   0  0  0  0  0  0  0  0  0  0  0  0
   58.3310   27.1180   43.1430 C   0  0  0  0  0  0  0  0  0  0  0  0
   57.7700   25.9370   43.6380 C   0  0  0  0  0  0  0  0  0  0  0  0
   57.4480   25.8290   44.9940 C   0  0  0  0  0  0  0  0  0  0  0  0
   57.6870   26.9020   45.8580 C   0  0  0  0  0  0  0  0  0  0  0  0
   57.9280   30.4300   45.9950 C   0  0  0  0  0  0  0  0  0  0  0  0
   57.1920   30.5630   44.9750 O   0  0  0  0  0  0  0  0  0  0  0  0
   58.1450   31.5100   46.8290 N   0  0  0  0  0  0  0  0  0  0  0  0
   57.4900   32.8000   46.5390 C   0  0  0  0  0  0  0  0  0  0  0  0
   58.3340   33.6430   45.6290 C   0  0  0  0  0  0  0  0  0  0  0  0
   57.8140   34.5870   44.9750 O   0  0  0  0  0  0  0  0  0  0  0  0
   59.7420   33.4070   45.5580 N   0  0  0  0  0  0  0  0  0  0  0  0
   60.7170   34.2560   46.2270 C   0  0  0  0  0  0  0  0  0  0  0  0
   61.8190   33.4090   46.7680 C   0  0  0  0  0  0  0  0  0  0  0  0
   63.0380   33.8650   47.2280 C   0  0  0  0  0  0  0  0  0  0  0  0
   63.7140   32.7440   47.6580 C   0  0  0  0  0  0  0  0  0  0  0  0
   62.8660   31.6780   47.4390 C   0  0  0  0  0  0  0  0  0  0  0  0
   61.7430   32.1060   46.9100 O   0  0  0  0  0  0  0  0  0  0  0  0
   61.0346   29.1232   50.9940 H   0  0  0  0  0  0  0  0  0  0  0  0
   60.6572   28.0962   49.5694 H   0  0  0  0  0  0  0  0  0  0  0  0
   62.1288   29.1263   49.5694 H   0  0  0  0  0  0  0  0  0  0  0  0
   61.5970   31.4175   51.4401 H   0  0  0  0  0  0  0  0  0  0  0  0
   61.3279   33.8781   51.8589 H   0  0  0  0  0  0  0  0  0  0  0  0
   59.8880   35.2592   50.3593 H   0  0  0  0  0  0  0  0  0  0  0  0
   58.6968   34.2031   48.4176 H   0  0  0  0  0  0  0  0  0  0  0  0
   59.0122   29.1214   43.6132 H   0  0  0  0  0  0  0  0  0  0  0  0
   58.5836   27.2018   42.0757 H   0  0  0  0  0  0  0  0  0  0  0  0
   57.5818   25.0918   42.9596 H   0  0  0  0  0  0  0  0  0  0  0  0
   57.0063   24.8991   45.3816 H   0  0  0  0  0  0  0  0  0  0  0  0
   57.4325   26.8140   46.9245 H   0  0  0  0  0  0  0  0  0  0  0  0
   56.5205   32.6097   46.0555 H   0  0  0  0  0  0  0  0  0  0  0  0
   57.3506   33.3413   47.4864 H   0  0  0  0  0  0  0  0  0  0  0  0
   61.1288   34.9797   45.5081 H   0  0  0  0  0  0  0  0  0  0  0  0
   60.2300   34.7978   47.0512 H   0  0  0  0  0  0  0  0  0  0  0  0
   63.3949   34.9053   47.2472 H   0  0  0  0  0  0  0  0  0  0  0  0
   64.7254   32.7066   48.0888 H   0  0  0  0  0  0  0  0  0  0  0  0
   63.0960   30.6279   47.6723 H   0  0  0  0  0  0  0  0  0  0  0  0
  1  2  1  0
  2  3  1  0
  3  4  2  0
  4  5  1  0
  5  6  2  0
  6  7  1  0
  7  8  2  0
  8  9  1  0
  9 10  2  0
 10 11  1  0
 11 12  2  0
 11 13  1  0
 13 14  1  0
 14 15  2  0
 15 16  1  0
 16 17  2  0
 17 18  1  0
 18 19  2  0
 13 20  1  0
 20 21  2  0
 20 22  1  0
 22 23  1  0
 23 24  1  0
 24 25  2  0
 24 26  1  0
 26 27  1  0
 27 28  1  0
 28 29  2  0
 29 30  1  0
 30 31  2  0
 31 32  1  0
 10  2  1  0
 19 14  1  0
 32 28  1  0
  8  3  1  0
 22  9  1  0
  1 33  1  0
  1 34  1  0
  1 35  1  0
  4 36  1  0
  5 37  1  0
  6 38  1  0
  7 39  1  0
 15 40  1  0
 16 41  1  0
 17 42  1  0
 18 43  1  0
 19 44  1  0
 23 45  1  0
 23 46  1  0
 27 47  1  0
 27 48  1  0
 29 49  1  0
 30 50  1  0
 31 51  1  0
M  CHG  1  26  -1
M  END
>  <UniqueID>  (14) 
13

>  <SMILES>  (14) 
Cn1c2ccccc2c2c1c(=O)n(-c1ccccc1)c(=O)n2CC(=O)[N-]Cc1ccco1

>  <Energy>  (14) 
141.5518201861669

>  <Genealogy>  (14) 
Cn1c2ccccc2c2c1c(=O)n(-c1ccccc1)c(=O)n2CC(=O)[N-]Cc1ccco1 (protonated)
Cn1c2ccccc2c2c1c(=O)n(-c1ccccc1)c(=O)n2CC(=O)[N-]Cc1ccco1 (3D coordinates assigned)
Cn1c2ccccc2c2c1c(=O)n(-c1ccccc1)c(=O)n2CC(=O)[N-]Cc1ccco1 (optimized conformer: 141.5518201861669 kcal/mol)

>  <smiles>  (14) 
Cn1c2ccccc2c2c1c(=O)n(-c1ccccc1)c(=O)n2CC(=O)NCc1ccco1

>  <score_type>  (14) 
oracle

>  <origin>  (14) 
adg

>  <m_score__min__energy>  (14) 
-10.65

>  <m_primary>  (14) 
energy

$$$$
14:0
     RDKit          3D

 50 53  0  0  0  0  0  0  0  0999 V2000
   58.0950   27.7320   47.0440 C   0  0  0  0  0  0  0  0  0  0  0  0
   57.7130   28.6150   45.8890 C   0  0  0  0  0  0  0  0  0  0  0  0
   56.4500   28.6850   45.5840 N   0  0  0  0  0  0  0  0  0  0  0  0
   55.9730   29.4010   44.4450 C   0  0  0  0  0  0  0  0  0  0  0  0
   54.7620   29.3250   44.1130 O   0  0  0  0  0  0  0  0  0  0  0  0
   56.8780   30.1880   43.6740 N   0  0  0  0  0  0  0  0  0  0  0  0
   58.2350   30.4360   44.1470 C   0  0  1  0  0  0  0  0  0  0  0  0
   58.2870   31.7560   44.9030 C   0  0  0  0  0  0  0  0  0  0  0  0
   58.5220   32.9520   44.2020 C   0  0  0  0  0  0  0  0  0  0  0  0
   58.6030   34.1690   44.8850 C   0  0  0  0  0  0  0  0  0  0  0  0
   58.4700   34.2050   46.2740 C   0  0  0  0  0  0  0  0  0  0  0  0
   58.2640   33.0240   46.9940 C   0  0  0  0  0  0  0  0  0  0  0  0
   58.1360   33.0970   48.3890 O   0  0  0  0  0  0  0  0  0  0  0  0
   59.1990   33.2310   49.2960 C   0  0  0  0  0  0  0  0  0  0  0  0
   59.0840   32.6400   50.5600 C   0  0  0  0  0  0  0  0  0  0  0  0
   60.1200   32.7540   51.4920 C   0  0  0  0  0  0  0  0  0  0  0  0
   61.2700   33.4810   51.1740 C   0  0  0  0  0  0  0  0  0  0  0  0
   61.3850   34.0960   49.9240 C   0  0  0  0  0  0  0  0  0  0  0  0
   60.3540   33.9770   48.9870 C   0  0  0  0  0  0  0  0  0  0  0  0
   58.1510   31.8050   46.3020 C   0  0  0  0  0  0  0  0  0  0  0  0
   58.7720   29.2250   44.9680 C   0  0  1  0  0  0  0  0  0  0  0  0
   60.0490   29.5950   45.6890 C   0  0  0  0  0  0  0  0  0  0  0  0
   61.1670   29.3510   45.1570 O   0  0  0  0  0  0  0  0  0  0  0  0
   59.9870   30.1090   47.0270 N   0  0  0  0  0  0  0  0  0  0  0  0
   61.1410   30.5870   47.7380 C   0  0  0  0  0  0  0  0  0  0  0  0
   62.0610   31.4430   47.1070 C   0  0  0  0  0  0  0  0  0  0  0  0
   63.1690   31.9300   47.8030 C   0  0  0  0  0  0  0  0  0  0  0  0
   63.3670   31.5760   49.1400 C   0  0  0  0  0  0  0  0  0  0  0  0
   62.4550   30.7340   49.7810 C   0  0  0  0  0  0  0  0  0  0  0  0
   61.3420   30.2400   49.0900 C   0  0  0  0  0  0  0  0  0  0  0  0
   60.2400   29.1540   49.9240 Cl  0  0  0  0  0  0  0  0  0  0  0  0
   57.8718   28.2480   47.9895 H   0  0  0  0  0  0  0  0  0  0  0  0
   57.5221   26.7943   46.9938 H   0  0  0  0  0  0  0  0  0  0  0  0
   59.1707   27.5076   46.9938 H   0  0  0  0  0  0  0  0  0  0  0  0
   58.9138   30.5342   43.2870 H   0  0  0  0  0  0  0  0  0  0  0  0
   58.6429   32.9299   43.1089 H   0  0  0  0  0  0  0  0  0  0  0  0
   58.7721   35.1012   44.3261 H   0  0  0  0  0  0  0  0  0  0  0  0
   58.5275   35.1668   46.8047 H   0  0  0  0  0  0  0  0  0  0  0  0
   58.1726   32.0823   50.8216 H   0  0  0  0  0  0  0  0  0  0  0  0
   60.0296   32.2711   52.4762 H   0  0  0  0  0  0  0  0  0  0  0  0
   62.0850   33.5694   51.9074 H   0  0  0  0  0  0  0  0  0  0  0  0
   62.2876   34.6742   49.6772 H   0  0  0  0  0  0  0  0  0  0  0  0
   60.4447   34.4669   48.0063 H   0  0  0  0  0  0  0  0  0  0  0  0
   57.9539   30.8787   46.8616 H   0  0  0  0  0  0  0  0  0  0  0  0
   59.0196   28.4226   44.2574 H   0  0  0  0  0  0  0  0  0  0  0  0
   59.0750   30.0540   47.5330 H   0  0  0  0  0  0  0  0  0  0  0  0
   61.9065   31.7312   46.0567 H   0  0  0  0  0  0  0  0  0  0  0  0
   63.8869   32.5932   47.2982 H   0  0  0  0  0  0  0  0  0  0  0  0
   64.2404   31.9600   49.6875 H   0  0  0  0  0  0  0  0  0  0  0  0
   62.6121   30.4577   50.8341 H   0  0  0  0  0  0  0  0  0  0  0  0
  1  2  1  0
  2  3  2  0
  3  4  1  0
  4  5  2  0
  4  6  1  0
  6  7  1  0
  7  8  1  0
  8  9  2  0
  9 10  1  0
 10 11  2  0
 11 12  1  0
 12 13  1  0
 13 14  1  0
 14 15  2  0
 15 16  1  0
 16 17  2  0
 17 18  1  0
 18 19  2  0
 12 20  2  0
  7 21  1  0
 21 22  1  0
 22 23  2  0
 22 24  1  0
 24 25  1  0
 25 26  2  0
 26 27  1  0
 27 28  2  0
 28 29  1  0
 29 30  2  0
 30 31  1  0
 21  2  1  0
 30 25  1  0
 20  8  1  0
 19 14  1  0
  1 32  1  0
  1 33  1  0
  1 34  1  0
  7 35  1  6
  9 36  1  0
 10 37  1  0
 11 38  1  0
 15 39  1  0
 16 40  1  0
 17 41  1  0
 18 42  1  0
 19 43  1  0
 20 44  1  0
 21 45  1  6
 24 46  1  0
 26 47  1  0
 27 48  1  0
 28 49  1  0
 29 50  1  0
M  CHG  1   6  -1
M  END
>  <UniqueID>  (15) 
14

>  <SMILES>  (15) 
CC1=NC(=O)[N-][C@@H](c2cccc(Oc3ccccc3)c2)[C@H]1C(=O)Nc1ccccc1Cl

>  <Energy>  (15) 
65.37092880035382

>  <Genealogy>  (15) 
CC1=NC(=O)[N-]C(c2cccc(Oc3ccccc3)c2)C1C(=O)Nc1ccccc1Cl (protonated)
CC1=NC(=O)[N-][C@@H](c2cccc(Oc3ccccc3)c2)[C@H]1C(=O)Nc1ccccc1Cl (chirality)
CC1=NC(=O)[N-][C@@H](c2cccc(Oc3ccccc3)c2)[C@H]1C(=O)Nc1ccccc1Cl (3D coordinates assigned)
CC1=NC(=O)[N-][C@@H](c2cccc(Oc3ccccc3)c2)[C@H]1C(=O)Nc1ccccc1Cl (nonaromatic ring conformer: 65.37092880035382 kcal/mol)

>  <smiles>  (15) 
CC1=NC(=O)NC(c2cccc(Oc3ccccc3)c2)C1C(=O)Nc1ccccc1Cl

>  <score_type>  (15) 
oracle

>  <origin>  (15) 
adg

>  <m_score__min__energy>  (15) 
-10.09

>  <m_primary>  (15) 
energy

$$$$
15:0
     RDKit          3D

 37 39  0  0  0  0  0  0  0  0999 V2000
   55.6730   29.5670   44.7660 O   0  0  0  0  0  0  0  0  0  0  0  0
   56.8570   29.9880   44.6590 C   0  0  0  0  0  0  0  0  0  0  0  0
   57.8920   29.1220   44.1750 N   0  0  0  0  0  0  0  0  0  0  0  0
   57.7630   27.6950   44.0460 C   0  0  0  0  0  0  0  0  0  0  0  0
   57.9270   27.0520   42.8040 C   0  0  0  0  0  0  0  0  0  0  0  0
   57.7710   25.6660   42.7020 C   0  0  0  0  0  0  0  0  0  0  0  0
   57.4400   24.9130   43.8310 C   0  0  0  0  0  0  0  0  0  0  0  0
   57.2530   25.5450   45.0620 C   0  0  0  0  0  0  0  0  0  0  0  0
   57.4060   26.9310   45.1680 C   0  0  0  0  0  0  0  0  0  0  0  0
   57.1620   31.3300   44.9150 O   0  0  0  0  0  0  0  0  0  0  0  0
   58.2590   31.7840   45.6630 C   0  0  0  0  0  0  0  0  0  0  0  0
   58.5860   33.1470   45.7700 C   0  0  0  0  0  0  0  0  0  0  0  0
   59.6830   33.5520   46.5350 C   0  0  0  0  0  0  0  0  0  0  0  0
   60.4670   32.6060   47.2190 C   0  0  0  0  0  0  0  0  0  0  0  0
   61.6320   33.0370   48.0320 C   0  0  0  0  0  0  0  0  0  0  0  0
   61.4450   33.7920   49.2050 C   0  0  0  0  0  0  0  0  0  0  0  0
   62.5440   34.1990   49.9690 C   0  0  0  0  0  0  0  0  0  0  0  0
   63.8380   33.8560   49.5740 C   0  0  0  0  0  0  0  0  0  0  0  0
   64.0380   33.1070   48.4120 C   0  0  0  0  0  0  0  0  0  0  0  0
   62.9430   32.6990   47.6440 C   0  0  0  0  0  0  0  0  0  0  0  0
   60.1240   31.2460   47.1240 C   0  0  0  0  0  0  0  0  0  0  0  0
   59.0260   30.8430   46.3590 C   0  0  0  0  0  0  0  0  0  0  0  0
   58.7690   29.5730   43.8270 H   0  0  0  0  0  0  0  0  0  0  0  0
   58.1788   27.6422   41.9105 H   0  0  0  0  0  0  0  0  0  0  0  0
   57.9092   25.1679   41.7310 H   0  0  0  0  0  0  0  0  0  0  0  0
   57.3266   23.8218   43.7503 H   0  0  0  0  0  0  0  0  0  0  0  0
   56.9851   24.9522   45.9490 H   0  0  0  0  0  0  0  0  0  0  0  0
   57.2455   27.4258   46.1372 H   0  0  0  0  0  0  0  0  0  0  0  0
   57.9751   33.8987   45.2488 H   0  0  0  0  0  0  0  0  0  0  0  0
   59.9355   34.6205   46.6028 H   0  0  0  0  0  0  0  0  0  0  0  0
   60.4277   34.0639   49.5232 H   0  0  0  0  0  0  0  0  0  0  0  0
   62.3880   34.7907   50.8831 H   0  0  0  0  0  0  0  0  0  0  0  0
   64.7003   34.1755   50.1777 H   0  0  0  0  0  0  0  0  0  0  0  0
   65.0581   32.8378   48.1007 H   0  0  0  0  0  0  0  0  0  0  0  0
   63.1068   32.1096   46.7298 H   0  0  0  0  0  0  0  0  0  0  0  0
   60.7244   30.4933   47.6559 H   0  0  0  0  0  0  0  0  0  0  0  0
   58.7623   29.7765   46.3035 H   0  0  0  0  0  0  0  0  0  0  0  0
  1  2  2  0
  2  3  1  0
  3  4  1  0
  4  5  2  0
  5  6  1  0
  6  7  2  0
  7  8  1  0
  8  9  2  0
  2 10  1  0
 10 11  1  0
 11 12  2  0
 12 13  1  0
 13 14  2  0
 14 15  1  0
 15 16  2  0
 16 17  1  0
 17 18  2  0
 18 19  1  0
 19 20  2  0
 14 21  1  0
 21 22  2  0
  9  4  1  0
 22 11  1  0
 20 15  1  0
  3 23  1  0
  5 24  1  0
  6 25  1  0
  7 26  1  0
  8 27  1  0
  9 28  1  0
 12 29  1  0
 13 30  1  0
 16 31  1  0
 17 32  1  0
 18 33  1  0
 19 34  1  0
 20 35  1  0
 21 36  1  0
 22 37  1  0
M  END
>  <UniqueID>  (16) 
15

>  <SMILES>  (16) 
O=C(Nc1ccccc1)Oc1ccc(-c2ccccc2)cc1

>  <Energy>  (16) 
52.81724510644796

>  <Genealogy>  (16) 
O=C(Nc1ccccc1)Oc1ccc(-c2ccccc2)cc1 (3D coordinates assigned)
O=C(Nc1ccccc1)Oc1ccc(-c2ccccc2)cc1 (optimized conformer: 52.81724510644796 kcal/mol)

>  <smiles>  (16) 
O=C(Nc1ccccc1)Oc1ccc(-c2ccccc2)cc1

>  <score_type>  (16) 
oracle

>  <origin>  (16) 
adg

>  <m_score__min__energy>  (16) 
-7.4800000000000004

>  <m_primary>  (16) 
energy

$$$$
16:0
     RDKit          3D

 53 55  0  0  0  0  0  0  0  0999 V2000
   60.7550   27.3070   49.4220 C   0  0  0  0  0  0  0  0  0  0  0  0
   59.9700   26.7000   48.4010 O   0  0  0  0  0  0  0  0  0  0  0  0
   59.4930   27.3700   47.2650 C   0  0  0  0  0  0  0  0  0  0  0  0
   60.3060   28.2220   46.4950 C   0  0  0  0  0  0  0  0  0  0  0  0
   59.7890   28.8510   45.3600 C   0  0  0  0  0  0  0  0  0  0  0  0
   58.4570   28.6440   44.9700 C   0  0  0  0  0  0  0  0  0  0  0  0
   57.9640   29.2950   43.7860 N   0  0  0  0  0  0  0  0  0  0  0  0
   56.9750   30.7230   43.7980 S   0  0  0  0  0  0  0  0  0  0  0  0
   55.6830   30.4190   44.5010 O   0  0  0  0  0  0  0  0  0  0  0  0
   56.6780   31.1280   42.3810 O   0  0  0  0  0  0  0  0  0  0  0  0
   57.7910   32.0260   44.6560 C   0  0  0  0  0  0  0  0  0  0  0  0
   58.2420   33.1530   43.9630 C   0  0  0  0  0  0  0  0  0  0  0  0
   58.8720   34.1950   44.6470 C   0  0  0  0  0  0  0  0  0  0  0  0
   59.0850   34.1170   46.0330 C   0  0  0  0  0  0  0  0  0  0  0  0
   59.6610   35.3160   46.7400 C   0  0  0  0  0  0  0  0  0  0  0  0
   58.6400   32.9700   46.7340 C   0  0  0  0  0  0  0  0  0  0  0  0
   58.8440   32.8100   48.1870 C   0  0  0  0  0  0  0  0  0  0  0  0
   58.9570   33.8380   48.9040 O   0  0  0  0  0  0  0  0  0  0  0  0
   58.8770   31.5190   48.8090 N   0  0  0  0  0  0  0  0  0  0  0  0
   60.0130   30.9530   49.5360 C   0  0  0  0  0  0  0  0  0  0  0  0
   61.1440   30.5400   48.5890 C   0  0  0  0  0  0  0  0  0  0  0  0
   62.0620   31.6920   48.2760 C   0  0  0  0  0  0  0  0  0  0  0  0
   61.9110   32.4140   47.0810 C   0  0  0  0  0  0  0  0  0  0  0  0
   62.7620   33.4850   46.7920 C   0  0  0  0  0  0  0  0  0  0  0  0
   63.7660   33.8440   47.6960 C   0  0  0  0  0  0  0  0  0  0  0  0
   63.9170   33.1370   48.8910 C   0  0  0  0  0  0  0  0  0  0  0  0
   63.0650   32.0700   49.1850 C   0  0  0  0  0  0  0  0  0  0  0  0
   57.9730   31.9480   46.0420 C   0  0  0  0  0  0  0  0  0  0  0  0
   57.6430   27.8030   45.7520 C   0  0  0  0  0  0  0  0  0  0  0  0
   58.1610   27.1750   46.8880 C   0  0  0  0  0  0  0  0  0  0  0  0
   60.3688   27.0084   50.4077 H   0  0  0  0  0  0  0  0  0  0  0  0
   61.8007   26.9803   49.3235 H   0  0  0  0  0  0  0  0  0  0  0  0
   60.7019   28.4013   49.3235 H   0  0  0  0  0  0  0  0  0  0  0  0
   61.3524   28.3933   46.7879 H   0  0  0  0  0  0  0  0  0  0  0  0
   60.4329   29.5158   44.7655 H   0  0  0  0  0  0  0  0  0  0  0  0
   58.1420   28.8540   42.8550 H   0  0  0  0  0  0  0  0  0  0  0  0
   58.1001   33.2195   42.8742 H   0  0  0  0  0  0  0  0  0  0  0  0
   59.2048   35.0860   44.0945 H   0  0  0  0  0  0  0  0  0  0  0  0
   59.5904   35.1691   47.8279 H   0  0  0  0  0  0  0  0  0  0  0  0
   60.7162   35.4383   46.4542 H   0  0  0  0  0  0  0  0  0  0  0  0
   59.0970   36.2161   46.4542 H   0  0  0  0  0  0  0  0  0  0  0  0
   60.3956   31.7057   50.2410 H   0  0  0  0  0  0  0  0  0  0  0  0
   59.6662   30.0546   50.0676 H   0  0  0  0  0  0  0  0  0  0  0  0
   61.7289   29.7374   49.0620 H   0  0  0  0  0  0  0  0  0  0  0  0
   60.6920   30.1979   47.6463 H   0  0  0  0  0  0  0  0  0  0  0  0
   61.1198   32.1357   46.3693 H   0  0  0  0  0  0  0  0  0  0  0  0
   62.6415   34.0452   45.8531 H   0  0  0  0  0  0  0  0  0  0  0  0
   64.4378   34.6841   47.4660 H   0  0  0  0  0  0  0  0  0  0  0  0
   64.7076   33.4207   49.6012 H   0  0  0  0  0  0  0  0  0  0  0  0
   63.1796   31.5230   50.1324 H   0  0  0  0  0  0  0  0  0  0  0  0
   57.5894   31.0771   46.5936 H   0  0  0  0  0  0  0  0  0  0  0  0
   56.5932   27.6391   45.4673 H   0  0  0  0  0  0  0  0  0  0  0  0
   57.5143   26.5209   47.4913 H   0  0  0  0  0  0  0  0  0  0  0  0
  1  2  1  0
  2  3  1  0
  3  4  2  0
  4  5  1  0
  5  6  2  0
  6  7  1  0
  7  8  1  0
  8  9  2  0
  8 10  2  0
  8 11  1  0
 11 12  2  0
 12 13  1  0
 13 14  2  0
 14 15  1  0
 14 16  1  0
 16 17  1  0
 17 18  2  0
 17 19  1  0
 19 20  1  0
 20 21  1  0
 21 22  1  0
 22 23  2  0
 23 24  1  0
 24 25  2  0
 25 26  1  0
 26 27  2  0
 16 28  2  0
  6 29  1  0
 29 30  2  0
 30  3  1  0
 28 11  1  0
 27 22  1  0
  1 31  1  0
  1 32  1  0
  1 33  1  0
  4 34  1  0
  5 35  1  0
  7 36  1  0
 12 37  1  0
 13 38  1  0
 15 39  1  0
 15 40  1  0
 15 41  1  0
 20 42  1  0
 20 43  1  0
 21 44  1  0
 21 45  1  0
 23 46  1  0
 24 47  1  0
 25 48  1  0
 26 49  1  0
 27 50  1  0
 28 51  1  0
 29 52  1  0
 30 53  1  0
M  CHG  1  19  -1
M  END
>  <UniqueID>  (17) 
16

>  <SMILES>  (17) 
COc1ccc(NS(=O)(=O)c2ccc(C)c(C(=O)[N-]CCc3ccccc3)c2)cc1

>  <Energy>  (17) 
53.608477276837625

>  <Genealogy>  (17) 
COc1ccc(NS(=O)(=O)c2ccc(C)c(C(=O)[N-]CCc3ccccc3)c2)cc1 (protonated)
COc1ccc(NS(=O)(=O)c2ccc(C)c(C(=O)[N-]CCc3ccccc3)c2)cc1 (3D coordinates assigned)
COc1ccc(NS(=O)(=O)c2ccc(C)c(C(=O)[N-]CCc3ccccc3)c2)cc1 (optimized conformer: 53.608477276837625 kcal/mol)

>  <smiles>  (17) 
COc1ccc(NS(=O)(=O)c2ccc(C)c(C(=O)NCCc3ccccc3)c2)cc1

>  <score_type>  (17) 
oracle

>  <origin>  (17) 
adg

>  <m_score__min__energy>  (17) 
-11.84

>  <m_primary>  (17) 
energy

$$$$
17:0
     RDKit          3D

 53 57  0  0  0  0  0  0  0  0999 V2000
   58.1050   31.4480   44.9680 C   0  0  0  0  0  0  0  0  0  0  0  0
   58.7470   32.5760   45.7180 C   0  0  0  0  0  0  0  0  0  0  0  0
   58.2620   33.8820   45.5840 C   0  0  0  0  0  0  0  0  0  0  0  0
   58.8960   34.9240   46.2620 C   0  0  0  0  0  0  0  0  0  0  0  0
   59.9880   34.6770   47.0350 N   0  0  0  0  0  0  0  0  0  0  0  0
   60.5040   33.4190   47.1630 C   0  0  0  0  0  0  0  0  0  0  0  0
   61.7120   33.1860   47.9910 C   0  0  0  0  0  0  0  0  0  0  0  0
   62.9800   33.3180   47.4090 C   0  0  0  0  0  0  0  0  0  0  0  0
   64.0950   33.0230   48.1220 N   0  0  0  0  0  0  0  0  0  0  0  0
   64.0190   32.5960   49.4100 C   0  0  0  0  0  0  0  0  0  0  0  0
   65.2510   32.2710   50.1680 C   0  0  0  0  0  0  0  0  0  0  0  0
   66.3710   33.1210   50.1250 C   0  0  0  0  0  0  0  0  0  0  0  0
   67.5240   32.8020   50.8450 C   0  0  0  0  0  0  0  0  0  0  0  0
   67.5550   31.6320   51.6050 C   0  0  0  0  0  0  0  0  0  0  0  0
   66.4690   30.8170   51.6410 N   0  0  0  0  0  0  0  0  0  0  0  0
   65.3330   31.1030   50.9500 C   0  0  0  0  0  0  0  0  0  0  0  0
   62.8000   32.4780   50.0010 N   0  0  0  0  0  0  0  0  0  0  0  0
   61.6470   32.7690   49.3410 C   0  0  0  0  0  0  0  0  0  0  0  0
   60.3730   32.6610   50.0870 C   0  0  0  0  0  0  0  0  0  0  0  0
   60.0760   33.5890   51.0970 C   0  0  0  0  0  0  0  0  0  0  0  0
   58.8720   33.5060   51.8020 C   0  0  0  0  0  0  0  0  0  0  0  0
   57.9330   32.5080   51.4870 C   0  0  0  0  0  0  0  0  0  0  0  0
   56.7220   32.3810   52.1840 O   0  0  0  0  0  0  0  0  0  0  0  0
   56.0160   31.1840   52.3760 C   0  0  0  0  0  0  0  0  0  0  0  0
   56.5990   30.0670   53.0050 C   0  0  0  0  0  0  0  0  0  0  0  0
   55.8550   28.8990   53.1930 C   0  0  0  0  0  0  0  0  0  0  0  0
   54.5250   28.8390   52.7670 C   0  0  0  0  0  0  0  0  0  0  0  0
   53.9350   29.9510   52.1610 C   0  0  0  0  0  0  0  0  0  0  0  0
   54.6760   31.1210   51.9730 C   0  0  0  0  0  0  0  0  0  0  0  0
   58.2280   31.5840   50.4800 C   0  0  0  0  0  0  0  0  0  0  0  0
   59.4310   31.6660   49.7730 C   0  0  0  0  0  0  0  0  0  0  0  0
   59.8840   32.3460   46.5040 C   0  0  0  0  0  0  0  0  0  0  0  0
   57.6913   30.7211   45.6825 H   0  0  0  0  0  0  0  0  0  0  0  0
   57.2957   31.8418   44.3356 H   0  0  0  0  0  0  0  0  0  0  0  0
   58.8569   30.9533   44.3356 H   0  0  0  0  0  0  0  0  0  0  0  0
   57.3873   34.0856   44.9488 H   0  0  0  0  0  0  0  0  0  0  0  0
   58.5109   35.9503   46.1710 H   0  0  0  0  0  0  0  0  0  0  0  0
   60.4280   35.4770   47.5420 H   0  0  0  0  0  0  0  0  0  0  0  0
   63.0712   33.6627   46.3684 H   0  0  0  0  0  0  0  0  0  0  0  0
   66.3384   34.0404   49.5219 H   0  0  0  0  0  0  0  0  0  0  0  0
   68.3998   33.4668   50.8135 H   0  0  0  0  0  0  0  0  0  0  0  0
   68.4587   31.3699   52.1748 H   0  0  0  0  0  0  0  0  0  0  0  0
   64.4737   30.4182   51.0023 H   0  0  0  0  0  0  0  0  0  0  0  0
   60.7951   34.3865   51.3353 H   0  0  0  0  0  0  0  0  0  0  0  0
   58.6581   34.2246   52.6069 H   0  0  0  0  0  0  0  0  0  0  0  0
   57.6427   30.1140   53.3492 H   0  0  0  0  0  0  0  0  0  0  0  0
   56.3167   28.0257   53.6769 H   0  0  0  0  0  0  0  0  0  0  0  0
   53.9430   27.9164   52.9089 H   0  0  0  0  0  0  0  0  0  0  0  0
   52.8865   29.9056   51.8316 H   0  0  0  0  0  0  0  0  0  0  0  0
   54.2040   31.9978   51.5057 H   0  0  0  0  0  0  0  0  0  0  0  0
   57.5082   30.7868   50.2424 H   0  0  0  0  0  0  0  0  0  0  0  0
   59.6417   30.9481   48.9666 H   0  0  0  0  0  0  0  0  0  0  0  0
   60.2892   31.3283   46.6042 H   0  0  0  0  0  0  0  0  0  0  0  0
  1  2  1  0
  2  3  2  0
  3  4  1  0
  4  5  2  0
  5  6  1  0
  6  7  1  0
  7  8  2  0
  8  9  1  0
  9 10  2  0
 10 11  1  0
 11 12  2  0
 12 13  1  0
 13 14  2  0
 14 15  1  0
 15 16  2  0
 10 17  1  0
 17 18  2  0
 18 19  1  0
 19 20  2  0
 20 21  1  0
 21 22  2  0
 22 23  1  0
 23 24  1  0
 24 25  2  0
 25 26  1  0
 26 27  2  0
 27 28  1  0
 28 29  2  0
 22 30  1  0
 30 31  2  0
  6 32  2  0
 32  2  1  0
 18  7  1  0
 31 19  1  0
 16 11  1  0
 29 24  1  0
  1 33  1  0
  1 34  1  0
  1 35  1  0
  3 36  1  0
  4 37  1  0
  5 38  1  0
  8 39  1  0
 12 40  1  0
 13 41  1  0
 14 42  1  0
 16 43  1  0
 20 44  1  0
 21 45  1  0
 25 46  1  0
 26 47  1  0
 27 48  1  0
 28 49  1  0
 29 50  1  0
 30 51  1  0
 31 52  1  0
 32 53  1  0
M  CHG  1   5   1
M  END
>  <UniqueID>  (18) 
17

>  <SMILES>  (18) 
Cc1cc[nH+]c(-c2cnc(-c3cccnc3)nc2-c2ccc(Oc3ccccc3)cc2)c1

>  <Energy>  (18) 
80.17031870694015

>  <Genealogy>  (18) 
Cc1cc[nH+]c(-c2cnc(-c3cccnc3)nc2-c2ccc(Oc3ccccc3)cc2)c1 (protonated)
Cc1cc[nH+]c(-c2cnc(-c3cccnc3)nc2-c2ccc(Oc3ccccc3)cc2)c1 (3D coordinates assigned)
Cc1cc[nH+]c(-c2cnc(-c3cccnc3)nc2-c2ccc(Oc3ccccc3)cc2)c1 (optimized conformer: 80.17031870694015 kcal/mol)

>  <smiles>  (18) 
Cc1ccnc(-c2cnc(-c3cccnc3)nc2-c2ccc(Oc3ccccc3)cc2)c1

>  <score_type>  (18) 
oracle

>  <origin>  (18) 
adg

>  <m_score__min__energy>  (18) 
-6.8200000000000003

>  <m_primary>  (18) 
energy

$$$$
18:0
     RDKit          3D

 35 37  0  0  0  0  0  0  0  0999 V2000
   53.7510   26.7010   46.3640 H   0  0  0  0  0  0  0  0  0  0  0  0
   54.4040   26.1030   45.8120 N   0  0  0  0  0  0  0  0  0  0  0  0
   55.7710   25.9660   46.1940 C   0  0  0  0  0  0  0  0  0  0  0  0
   56.1800   24.8740   46.6710 O   0  0  0  0  0  0  0  0  0  0  0  0
   56.7010   27.0900   46.0340 C   0  0  0  0  0  0  0  0  0  0  0  0
   56.4340   28.1830   45.2910 N   0  0  0  0  0  0  0  0  0  0  0  0
   57.4820   28.9890   45.3640 N   0  0  0  0  0  0  0  0  0  0  0  0
   57.5520   30.2510   44.6720 C   0  0  0  0  0  0  0  0  0  0  0  0
   57.4000   30.3260   43.2740 C   0  0  0  0  0  0  0  0  0  0  0  0
   57.2189   29.4094   42.6935 H   0  0  0  0  0  0  0  0  0  0  0  0
   57.4780   31.5590   42.6200 C   0  0  0  0  0  0  0  0  0  0  0  0
   57.3494   31.6110   41.5288 H   0  0  0  0  0  0  0  0  0  0  0  0
   57.7190   32.7250   43.3500 C   0  0  0  0  0  0  0  0  0  0  0  0
   57.7750   33.6949   42.8341 H   0  0  0  0  0  0  0  0  0  0  0  0
   57.8890   32.6600   44.7350 C   0  0  0  0  0  0  0  0  0  0  0  0
   58.0844   33.5782   45.3084 H   0  0  0  0  0  0  0  0  0  0  0  0
   57.8110   31.4290   45.3930 C   0  0  0  0  0  0  0  0  0  0  0  0
   57.9534   31.3822   46.4827 H   0  0  0  0  0  0  0  0  0  0  0  0
   58.4290   28.4130   46.1400 C   0  0  0  0  0  0  0  0  0  0  0  0
   59.6020   28.9420   46.3490 N   0  0  0  0  0  0  0  0  0  0  0  0
   60.1010   29.5880   47.5310 C   0  0  0  0  0  0  0  0  0  0  0  0
   60.7110   28.9430   48.4260 O   0  0  0  0  0  0  0  0  0  0  0  0
   59.8900   31.0320   47.6960 C   0  0  0  0  0  0  0  0  0  0  0  0
   60.5790   32.2290   46.7330 S   0  0  0  0  0  0  0  0  0  0  0  0
   59.8740   33.5240   47.5410 C   0  0  0  0  0  0  0  0  0  0  0  0
   60.0030   34.9570   47.1450 C   0  0  0  0  0  0  0  0  0  0  0  0
   60.0594   35.5832   48.0476 H   0  0  0  0  0  0  0  0  0  0  0  0
   60.9169   35.0915   46.5477 H   0  0  0  0  0  0  0  0  0  0  0  0
   59.1278   35.2526   46.5477 H   0  0  0  0  0  0  0  0  0  0  0  0
   59.0680   33.0340   48.5620 C   0  0  0  0  0  0  0  0  0  0  0  0
   58.4773   33.6786   49.2294 H   0  0  0  0  0  0  0  0  0  0  0  0
   59.0840   31.6380   48.6550 C   0  0  0  0  0  0  0  0  0  0  0  0
   58.5161   31.0756   49.4108 H   0  0  0  0  0  0  0  0  0  0  0  0
   57.9610   27.1900   46.5980 C   0  0  0  0  0  0  0  0  0  0  0  0
   58.4710   26.4697   47.2545 H   0  0  0  0  0  0  0  0  0  0  0  0
  1  2  1  0
  2  3  1  0
  3  4  2  0
  3  5  1  0
  5  6  1  0
  6  7  1  0
  7  8  1  0
  8  9  2  0
  9 10  1  0
  9 11  1  0
 11 12  1  0
 11 13  2  0
 13 14  1  0
 13 15  1  0
 15 16  1  0
 15 17  2  0
 17 18  1  0
  7 19  1  0
 19 20  2  0
 20 21  1  0
 21 22  2  0
 21 23  1  0
 23 24  1  0
 24 25  1  0
 25 26  1  0
 26 27  1  0
 26 28  1  0
 26 29  1  0
 25 30  2  0
 30 31  1  0
 30 32  1  0
 32 33  1  0
 19 34  1  0
 34 35  1  0
 34  5  2  0
 17  8  1  0
 32 23  2  0
M  CHG  2   2  -1   6  -1
M  END
>  <UniqueID>  (19) 
18

>  <SMILES>  (19) 
Cc1ccc(C(=O)/N=c2\cc(C([NH-])=O)[n-]n2-c2ccccc2)s1

>  <Energy>  (19) 
99.19977560985502

>  <Genealogy>  (19) 
Cc1ccc(C(=O)N=c2cc(C([NH-])=O)[n-]n2-c2ccccc2)s1 (protonated)
Cc1ccc(C(=O)/N=c2\cc(C([NH-])=O)[n-]n2-c2ccccc2)s1 (cis-trans isomerization)
Cc1ccc(C(=O)/N=c2\cc(C([NH-])=O)[n-]n2-c2ccccc2)s1 (3D coordinates assigned)
Cc1ccc(C(=O)/N=c2\cc(C([NH-])=O)[n-]n2-c2ccccc2)s1 (optimized conformer: 99.19977560985502 kcal/mol)

>  <smiles>  (19) 
Cc1ccc(C(=O)N=c2cc(C(N)=O)[nH]n2-c2ccccc2)s1

>  <score_type>  (19) 
oracle

>  <origin>  (19) 
adg

>  <m_score__min__energy>  (19) 
-12.5

>  <m_primary>  (19) 
energy

$$$$
19:0
     RDKit          3D

 44 46  0  0  1  0  0  0  0  0999 V2000
   56.8200   26.8710   45.6380 C   0  0  0  0  0  0  0  0  0  0  0  0
   55.9100   27.9010   45.2860 O   0  0  0  0  0  0  0  0  0  0  0  0
   56.4500   29.1120   44.8720 C   0  0  0  0  0  0  0  0  0  0  0  0
   57.3830   29.7190   45.7110 C   0  0  0  0  0  0  0  0  0  0  0  0
   57.9540   30.9300   45.3470 C   0  0  0  0  0  0  0  0  0  0  0  0
   57.6110   31.5570   44.1420 C   0  0  0  0  0  0  0  0  0  0  0  0
   58.2500   32.8590   43.7910 C   0  0  0  0  0  0  0  0  0  0  0  0
   57.7390   33.8720   44.8170 C   0  0  0  0  0  0  0  0  0  0  0  0
   58.8810   34.6730   45.1890 N   0  0  0  0  0  0  0  0  0  0  0  0
   59.6600   34.4250   46.1820 C   0  0  0  0  0  0  0  0  0  0  0  0
   60.9070   33.9740   45.9670 N   0  0  0  0  0  0  0  0  0  0  0  0
   61.7220   33.7150   47.0300 C   0  0  0  0  0  0  0  0  0  0  0  0
   61.2470   33.9230   48.3080 C   0  0  0  0  0  0  0  0  0  0  0  0
   59.9540   34.3920   48.5200 C   0  0  0  0  0  0  0  0  0  0  0  0
   59.4970   34.5900   49.7120 N   0  0  0  0  0  0  0  0  0  0  0  0
   59.1900   34.6300   47.4260 N   0  0  0  0  0  0  0  0  0  0  0  0
   62.0590   33.6710   49.5290 C   0  0  0  0  0  0  0  0  0  0  0  0
   63.5140   33.6770   49.1040 C   0  0  0  0  0  0  0  0  0  0  0  0
   63.7180   32.6500   47.9930 C   0  0  0  0  0  0  0  0  0  0  0  0
   63.0910   33.2190   46.7390 C   0  0  0  0  0  0  0  0  0  0  0  0
   56.6790   30.9450   43.3090 C   0  0  0  0  0  0  0  0  0  0  0  0
   56.1100   29.7270   43.6860 C   0  0  0  0  0  0  0  0  0  0  0  0
   56.8848   26.7976   46.7336 H   0  0  0  0  0  0  0  0  0  0  0  0
   56.4673   25.9137   45.2266 H   0  0  0  0  0  0  0  0  0  0  0  0
   57.8134   27.1031   45.2266 H   0  0  0  0  0  0  0  0  0  0  0  0
   57.6659   29.2391   46.6595 H   0  0  0  0  0  0  0  0  0  0  0  0
   58.6875   31.4052   46.0150 H   0  0  0  0  0  0  0  0  0  0  0  0
   59.3452   32.7750   43.8500 H   0  0  0  0  0  0  0  0  0  0  0  0
   58.0004   33.1656   42.7645 H   0  0  0  0  0  0  0  0  0  0  0  0
   56.9569   34.5049   44.3723 H   0  0  0  0  0  0  0  0  0  0  0  0
   57.2963   33.3717   45.6909 H   0  0  0  0  0  0  0  0  0  0  0  0
   61.2150   33.8350   44.9860 H   0  0  0  0  0  0  0  0  0  0  0  0
   59.1030   35.5170   49.9680 H   0  0  0  0  0  0  0  0  0  0  0  0
   58.2170   34.9830   47.5790 H   0  0  0  0  0  0  0  0  0  0  0  0
   61.8794   34.4622   50.2718 H   0  0  0  0  0  0  0  0  0  0  0  0
   61.7886   32.7086   49.9880 H   0  0  0  0  0  0  0  0  0  0  0  0
   63.7850   34.6770   48.7346 H   0  0  0  0  0  0  0  0  0  0  0  0
   64.1507   33.4218   49.9639 H   0  0  0  0  0  0  0  0  0  0  0  0
   64.7923   32.4767   47.8322 H   0  0  0  0  0  0  0  0  0  0  0  0
   63.2555   31.6883   48.2597 H   0  0  0  0  0  0  0  0  0  0  0  0
   63.7082   34.0513   46.3696 H   0  0  0  0  0  0  0  0  0  0  0  0
   63.0318   32.4283   45.9766 H   0  0  0  0  0  0  0  0  0  0  0  0
   56.3921   31.4185   42.3585 H   0  0  0  0  0  0  0  0  0  0  0  0
   55.3748   29.2480   43.0226 H   0  0  0  0  0  0  0  0  0  0  0  0
  1  2  1  0
  2  3  1  0
  3  4  2  0
  4  5  1  0
  5  6  2  0
  6  7  1  0
  7  8  1  0
  8  9  1  0
  9 10  2  0
 10 11  1  0
 11 12  1  0
 12 13  2  0
 13 14  1  0
 14 15  2  3
 14 16  1  0
 13 17  1  0
 17 18  1  0
 18 19  1  0
 19 20  1  0
  6 21  1  0
 21 22  2  0
 22  3  1  0
 16 10  1  0
 20 12  1  0
  1 23  1  0
  1 24  1  0
  1 25  1  0
  4 26  1  0
  5 27  1  0
  7 28  1  0
  7 29  1  0
  8 30  1  0
  8 31  1  0
 11 32  1  0
 15 33  1  0
 16 34  1  0
 17 35  1  0
 17 36  1  0
 18 37  1  0
 18 38  1  0
 19 39  1  0
 19 40  1  0
 20 41  1  0
 20 42  1  0
 21 43  1  0
 22 44  1  0
M  END
>  <smiles>  (20) 
COc1ccc(CCN=c2[nH]c3c(c(=N)[nH]2)CCCC3)cc1

>  <score_type>  (20) 
oracle

>  <origin>  (20) 
adg

>  <m_score__min__energy>  (20) 
-7.9900000000000002

>  <m_primary>  (20) 
energy

$$$$
20:0
     RDKit          3D

 43 45  0  0  0  0  0  0  0  0999 V2000
   55.5370   28.6060   45.2520 O   0  0  0  0  0  0  0  0  0  0  0  0
   56.6670   27.8080   45.4010 C   0  0  0  0  0  0  0  0  0  0  0  0
   56.5220   26.4990   45.8760 C   0  0  0  0  0  0  0  0  0  0  0  0
   57.6420   25.6790   46.0320 C   0  0  0  0  0  0  0  0  0  0  0  0
   58.9120   26.1650   45.7160 C   0  0  0  0  0  0  0  0  0  0  0  0
   59.0660   27.4700   45.2420 C   0  0  0  0  0  0  0  0  0  0  0  0
   57.9460   28.3060   45.0820 C   0  0  0  0  0  0  0  0  0  0  0  0
   58.1220   29.7090   44.5400 C   0  0  0  0  0  0  0  0  0  0  0  0
   57.5470   30.7370   45.4450 N   0  0  0  0  0  0  0  0  0  0  0  0
   57.5280   32.0760   44.7930 C   0  0  0  0  0  0  0  0  0  0  0  0
   57.5370   33.2160   45.8230 C   0  0  0  0  0  0  0  0  0  0  0  0
   58.7430   33.1690   46.6820 N   0  0  0  0  0  0  0  0  0  0  0  0
   59.7340   34.2390   46.4150 C   0  0  0  0  0  0  0  0  0  0  0  0
   61.0530   34.0550   47.1440 C   0  0  0  0  0  0  0  0  0  0  0  0
   62.2310   33.7810   46.4240 C   0  0  0  0  0  0  0  0  0  0  0  0
   63.4430   33.5920   47.0920 C   0  0  0  0  0  0  0  0  0  0  0  0
   63.4990   33.6930   48.4830 C   0  0  0  0  0  0  0  0  0  0  0  0
   62.3450   33.9960   49.2080 C   0  0  0  0  0  0  0  0  0  0  0  0
   61.1280   34.1860   48.5460 C   0  0  0  0  0  0  0  0  0  0  0  0
   60.0250   34.4970   49.2730 F   0  0  0  0  0  0  0  0  0  0  0  0
   59.3430   31.8230   46.8210 C   0  0  0  0  0  0  0  0  0  0  0  0
   58.2600   30.7370   46.7550 C   0  0  0  0  0  0  0  0  0  0  0  0
   55.5224   26.1149   46.1273 H   0  0  0  0  0  0  0  0  0  0  0  0
   57.5233   24.6505   46.4038 H   0  0  0  0  0  0  0  0  0  0  0  0
   59.7935   25.5188   45.8405 H   0  0  0  0  0  0  0  0  0  0  0  0
   60.0691   27.8462   44.9924 H   0  0  0  0  0  0  0  0  0  0  0  0
   59.1966   29.9082   44.4152 H   0  0  0  0  0  0  0  0  0  0  0  0
   57.5892   29.7690   43.5795 H   0  0  0  0  0  0  0  0  0  0  0  0
   56.5540   30.4650   45.6430 H   0  0  0  0  0  0  0  0  0  0  0  0
   58.4155   32.1709   44.1500 H   0  0  0  0  0  0  0  0  0  0  0  0
   56.6016   32.1554   44.2053 H   0  0  0  0  0  0  0  0  0  0  0  0
   57.5162   34.1781   45.2901 H   0  0  0  0  0  0  0  0  0  0  0  0
   56.6526   33.1030   46.4672 H   0  0  0  0  0  0  0  0  0  0  0  0
   59.9364   34.2611   45.3340 H   0  0  0  0  0  0  0  0  0  0  0  0
   59.2953   35.1782   46.7831 H   0  0  0  0  0  0  0  0  0  0  0  0
   62.1968   33.7152   45.3265 H   0  0  0  0  0  0  0  0  0  0  0  0
   64.3549   33.3632   46.5209 H   0  0  0  0  0  0  0  0  0  0  0  0
   64.4524   33.5339   49.0080 H   0  0  0  0  0  0  0  0  0  0  0  0
   62.3932   34.0855   50.3033 H   0  0  0  0  0  0  0  0  0  0  0  0
   60.0646   31.6634   46.0063 H   0  0  0  0  0  0  0  0  0  0  0  0
   59.8483   31.7599   47.7960 H   0  0  0  0  0  0  0  0  0  0  0  0
   58.7328   29.7547   46.9019 H   0  0  0  0  0  0  0  0  0  0  0  0
   57.5217   30.9454   47.5434 H   0  0  0  0  0  0  0  0  0  0  0  0
  1  2  1  0
  2  3  2  0
  3  4  1  0
  4  5  2  0
  5  6  1  0
  6  7  2  0
  7  8  1  0
  8  9  1  0
  9 10  1  0
 10 11  1  0
 11 12  1  0
 12 13  1  0
 13 14  1  0
 14 15  2  0
 15 16  1  0
 16 17  2  0
 17 18  1  0
 18 19  2  0
 19 20  1  0
 12 21  1  0
 21 22  1  0
  7  2  1  0
 22  9  1  0
 19 14  1  0
  3 23  1  0
  4 24  1  0
  5 25  1  0
  6 26  1  0
  8 27  1  0
  8 28  1  0
  9 29  1  0
 10 30  1  0
 10 31  1  0
 11 32  1  0
 11 33  1  0
 13 34  1  0
 13 35  1  0
 15 36  1  0
 16 37  1  0
 17 38  1  0
 18 39  1  0
 21 40  1  0
 21 41  1  0
 22 42  1  0
 22 43  1  0
M  CHG  2   1  -1   9   1
M  END
>  <UniqueID>  (21) 
19

>  <SMILES>  (21) 
[O-]c1ccccc1C[NH+]1CCN(Cc2ccccc2F)CC1

>  <Energy>  (21) 
61.55970438224141

>  <Genealogy>  (21) 
[O-]c1ccccc1C[NH+]1CCN(Cc2ccccc2F)CC1 (protonated)
[O-]c1ccccc1C[NH+]1CCN(Cc2ccccc2F)CC1 (3D coordinates assigned)
[O-]c1ccccc1C[NH+]1CCN(Cc2ccccc2F)CC1 (nonaromatic ring conformer: 61.55970438224141 kcal/mol)

>  <smiles>  (21) 
Oc1ccccc1CN1CCN(Cc2ccccc2F)CC1

>  <score_type>  (21) 
oracle

>  <origin>  (21) 
adg

>  <m_score__min__energy>  (21) 
-9.7799999999999994

>  <m_primary>  (21) 
energy

$$$$
21:0
     RDKit          3D

 38 39  0  0  0  0  0  0  0  0999 V2000
   55.9020   30.1020   44.8600 O   0  0  0  0  0  0  0  0  0  0  0  0
   56.9520   30.4160   43.8310 S   0  0  0  0  0  0  0  0  0  0  0  0
   56.3990   30.1270   42.4620 O   0  0  0  0  0  0  0  0  0  0  0  0
   57.3990   32.0950   43.9510 N   0  0  0  0  0  0  0  0  0  0  0  0
   56.8990   32.6900   45.1920 C   0  0  0  0  0  0  0  0  0  0  0  0
   58.0140   33.3510   45.9570 C   0  0  0  0  0  0  0  0  0  0  0  0
   58.3100   32.9370   47.2670 C   0  0  0  0  0  0  0  0  0  0  0  0
   59.3380   33.5560   47.9850 C   0  0  0  0  0  0  0  0  0  0  0  0
   60.0760   34.5900   47.4030 C   0  0  0  0  0  0  0  0  0  0  0  0
   59.7870   35.0070   46.0990 C   0  0  0  0  0  0  0  0  0  0  0  0
   58.7600   34.3900   45.3770 C   0  0  0  0  0  0  0  0  0  0  0  0
   58.3570   29.4270   44.1360 N   0  0  1  0  0  0  0  0  0  0  0  0
   59.2070   30.0420   45.1780 C   0  0  0  0  0  0  0  0  0  0  0  0
   60.3780   29.1330   45.5710 C   0  0  0  0  0  0  0  0  0  0  0  0
   60.2600   28.6940   47.2940 Cl  0  0  0  0  0  0  0  0  0  0  0  0
   57.9500   28.0730   44.4700 C   0  0  0  0  0  0  0  0  0  0  0  0
   58.1520   27.0300   43.5440 C   0  0  0  0  0  0  0  0  0  0  0  0
   57.7640   25.7220   43.8480 C   0  0  0  0  0  0  0  0  0  0  0  0
   57.1680   25.4360   45.0770 C   0  0  0  0  0  0  0  0  0  0  0  0
   56.9570   26.4560   46.0060 C   0  0  0  0  0  0  0  0  0  0  0  0
   57.3440   27.7660   45.7090 C   0  0  0  0  0  0  0  0  0  0  0  0
   56.1340   33.4419   44.9484 H   0  0  0  0  0  0  0  0  0  0  0  0
   56.4686   31.8928   45.8159 H   0  0  0  0  0  0  0  0  0  0  0  0
   57.7313   32.1236   47.7289 H   0  0  0  0  0  0  0  0  0  0  0  0
   59.5661   33.2283   49.0100 H   0  0  0  0  0  0  0  0  0  0  0  0
   60.8838   35.0760   47.9698 H   0  0  0  0  0  0  0  0  0  0  0  0
   60.3681   35.8210   45.6411 H   0  0  0  0  0  0  0  0  0  0  0  0
   58.5360   34.7196   44.3517 H   0  0  0  0  0  0  0  0  0  0  0  0
   58.9030   29.4250   43.2410 H   0  0  0  0  0  0  0  0  0  0  0  0
   59.6075   30.9923   44.7951 H   0  0  0  0  0  0  0  0  0  0  0  0
   58.5867   30.2044   46.0718 H   0  0  0  0  0  0  0  0  0  0  0  0
   60.3501   28.2189   44.9598 H   0  0  0  0  0  0  0  0  0  0  0  0
   61.3233   29.6688   45.3996 H   0  0  0  0  0  0  0  0  0  0  0  0
   58.6196   27.2474   42.5724 H   0  0  0  0  0  0  0  0  0  0  0  0
   57.9288   24.9166   43.1171 H   0  0  0  0  0  0  0  0  0  0  0  0
   56.8642   24.4056   45.3138 H   0  0  0  0  0  0  0  0  0  0  0  0
   56.4854   26.2287   46.9734 H   0  0  0  0  0  0  0  0  0  0  0  0
   57.1753   28.5648   46.4462 H   0  0  0  0  0  0  0  0  0  0  0  0
  1  2  2  0
  2  3  2  0
  2  4  1  0
  4  5  1  0
  5  6  1  0
  6  7  2  0
  7  8  1  0
  8  9  2  0
  9 10  1  0
 10 11  2  0
  2 12  1  0
 12 13  1  0
 13 14  1  0
 14 15  1  0
 12 16  1  0
 16 17  2  0
 17 18  1  0
 18 19  2  0
 19 20  1  0
 20 21  2  0
 11  6  1  0
 21 16  1  0
  5 22  1  0
  5 23  1  0
  7 24  1  0
  8 25  1  0
  9 26  1  0
 10 27  1  0
 11 28  1  0
 12 29  1  6
 13 30  1  0
 13 31  1  0
 14 32  1  0
 14 33  1  0
 17 34  1  0
 18 35  1  0
 19 36  1  0
 20 37  1  0
 21 38  1  0
M  CHG  2   4  -1  12   1
M  END
>  <UniqueID>  (22) 
20

>  <SMILES>  (22) 
O=S(=O)([N-]Cc1ccccc1)[N@@H+](CCCl)c1ccccc1

>  <Energy>  (22) 
35.577431474525554

>  <Genealogy>  (22) 
O=S(=O)([N-]Cc1ccccc1)[NH+](CCCl)c1ccccc1 (protonated)
O=S(=O)([N-]Cc1ccccc1)[N@@H+](CCCl)c1ccccc1 (chirality)
O=S(=O)([N-]Cc1ccccc1)[N@@H+](CCCl)c1ccccc1 (3D coordinates assigned)
O=S(=O)([N-]Cc1ccccc1)[N@@H+](CCCl)c1ccccc1 (optimized conformer: 35.577431474525554 kcal/mol)

>  <smiles>  (22) 
O=S(=O)(NCc1ccccc1)N(CCCl)c1ccccc1

>  <score_type>  (22) 
oracle

>  <origin>  (22) 
adg

>  <m_score__min__energy>  (22) 
-8.1300000000000008

>  <m_primary>  (22) 
energy

$$$$
22:0
     RDKit          3D

 51 54  0  0  0  0  0  0  0  0999 V2000
   58.6390   33.2590   47.1170 C   0  0  0  0  0  0  0  0  0  0  0  0
   58.3230   32.7230   45.7510 C   0  0  0  0  0  0  0  0  0  0  0  0
   58.7680   33.3990   44.6050 C   0  0  0  0  0  0  0  0  0  0  0  0
   58.5100   32.8740   43.3370 C   0  0  0  0  0  0  0  0  0  0  0  0
   57.8130   31.6700   43.2040 C   0  0  0  0  0  0  0  0  0  0  0  0
   57.3430   30.9950   44.3400 C   0  0  0  0  0  0  0  0  0  0  0  0
   56.4750   29.4640   44.1710 S   0  0  0  0  0  0  0  0  0  0  0  0
   55.3800   29.4050   45.2020 O   0  0  0  0  0  0  0  0  0  0  0  0
   55.8260   29.4310   42.8160 O   0  0  0  0  0  0  0  0  0  0  0  0
   57.5050   28.0540   44.3380 N   0  0  0  0  0  0  0  0  0  0  0  0
   58.9040   28.3040   43.9090 C   0  0  0  0  0  0  0  0  0  0  0  0
   59.9280   28.1480   45.0410 C   0  0  0  0  0  0  0  0  0  0  0  0
   59.3620   28.6840   46.2810 N   0  0  0  0  0  0  0  0  0  0  0  0
   59.9640   29.7670   47.0210 C   0  0  0  0  0  0  0  0  0  0  0  0
   59.6270   30.0330   48.3540 C   0  0  0  0  0  0  0  0  0  0  0  0
   60.2870   31.0490   49.0390 C   0  0  0  0  0  0  0  0  0  0  0  0
   61.2890   31.7840   48.3930 C   0  0  0  0  0  0  0  0  0  0  0  0
   62.0320   32.8490   49.1130 C   0  0  0  0  0  0  0  0  0  0  0  0
   61.8130   34.2190   49.0610 C   0  0  0  0  0  0  0  0  0  0  0  0
   62.6980   34.8460   49.8600 N   0  0  0  0  0  0  0  0  0  0  0  0
   63.4730   33.9210   50.4020 N   0  0  0  0  0  0  0  0  0  0  0  0
   64.5130   34.2040   51.3810 C   0  0  0  0  0  0  0  0  0  0  0  0
   63.0970   32.6980   49.9860 C   0  0  0  0  0  0  0  0  0  0  0  0
   61.5800   31.4860   47.0930 N   0  0  0  0  0  0  0  0  0  0  0  0
   60.9430   30.5130   46.4400 N   0  0  0  0  0  0  0  0  0  0  0  0
   58.1250   28.0690   46.7750 C   0  0  0  0  0  0  0  0  0  0  0  0
   57.3540   27.3710   45.6390 C   0  0  0  0  0  0  0  0  0  0  0  0
   57.6240   31.5130   45.6130 C   0  0  0  0  0  0  0  0  0  0  0  0
   58.2369   32.5769   47.8806 H   0  0  0  0  0  0  0  0  0  0  0  0
   59.7295   33.3403   47.2357 H   0  0  0  0  0  0  0  0  0  0  0  0
   58.1822   34.2526   47.2357 H   0  0  0  0  0  0  0  0  0  0  0  0
   59.3212   34.3444   44.7055 H   0  0  0  0  0  0  0  0  0  0  0  0
   58.8562   33.4094   42.4407 H   0  0  0  0  0  0  0  0  0  0  0  0
   57.6322   31.2498   42.2036 H   0  0  0  0  0  0  0  0  0  0  0  0
   59.1562   27.5906   43.1105 H   0  0  0  0  0  0  0  0  0  0  0  0
   58.9561   29.3482   43.5670 H   0  0  0  0  0  0  0  0  0  0  0  0
   60.1672   27.0829   45.1763 H   0  0  0  0  0  0  0  0  0  0  0  0
   60.8462   28.6977   44.7865 H   0  0  0  0  0  0  0  0  0  0  0  0
   58.8461   29.4430   48.8561 H   0  0  0  0  0  0  0  0  0  0  0  0
   60.0229   31.2737   50.0829 H   0  0  0  0  0  0  0  0  0  0  0  0
   61.0368   34.7157   48.4603 H   0  0  0  0  0  0  0  0  0  0  0  0
   64.1021   34.0922   52.3952 H   0  0  0  0  0  0  0  0  0  0  0  0
   65.3471   33.5002   51.2437 H   0  0  0  0  0  0  0  0  0  0  0  0
   64.8755   35.2334   51.2437 H   0  0  0  0  0  0  0  0  0  0  0  0
   63.5554   31.7443   50.2867 H   0  0  0  0  0  0  0  0  0  0  0  0
   62.3160   32.0160   46.5780 H   0  0  0  0  0  0  0  0  0  0  0  0
   58.3774   27.3260   47.5459 H   0  0  0  0  0  0  0  0  0  0  0  0
   57.4861   28.8614   47.1921 H   0  0  0  0  0  0  0  0  0  0  0  0
   57.7293   26.3417   45.5408 H   0  0  0  0  0  0  0  0  0  0  0  0
   56.2861   27.3938   45.9020 H   0  0  0  0  0  0  0  0  0  0  0  0
   57.2944   30.9674   46.5095 H   0  0  0  0  0  0  0  0  0  0  0  0
  1  2  1  0
  2  3  2  0
  3  4  1  0
  4  5  2  0
  5  6  1  0
  6  7  1  0
  7  8  2  0
  7  9  2  0
  7 10  1  0
 10 11  1  0
 11 12  1  0
 12 13  1  0
 13 14  1  0
 14 15  2  0
 15 16  1  0
 16 17  2  0
 17 18  1  0
 18 19  1  0
 19 20  2  0
 20 21  1  0
 21 22  1  0
 21 23  1  0
 17 24  1  0
 24 25  2  0
 13 26  1  0
 26 27  1  0
  6 28  2  0
 28  2  1  0
 27 10  1  0
 25 14  1  0
 23 18  2  0
  1 29  1  0
  1 30  1  0
  1 31  1  0
  3 32  1  0
  4 33  1  0
  5 34  1  0
 11 35  1  0
 11 36  1  0
 12 37  1  0
 12 38  1  0
 15 39  1  0
 16 40  1  0
 19 41  1  0
 22 42  1  0
 22 43  1  0
 22 44  1  0
 23 45  1  0
 24 46  1  0
 26 47  1  0
 26 48  1  0
 27 49  1  0
 27 50  1  0
 28 51  1  0
M  CHG  1  24   1
M  END
>  <UniqueID>  (23) 
21

>  <SMILES>  (23) 
Cc1cccc(S(=O)(=O)N2CCN(c3ccc(-c4cnn(C)c4)[nH+]n3)CC2)c1

>  <Energy>  (23) 
91.17837900583997

>  <Genealogy>  (23) 
Cc1cccc(S(=O)(=O)N2CCN(c3ccc(-c4cnn(C)c4)[nH+]n3)CC2)c1 (protonated)
Cc1cccc(S(=O)(=O)N2CCN(c3ccc(-c4cnn(C)c4)[nH+]n3)CC2)c1 (3D coordinates assigned)
Cc1cccc(S(=O)(=O)N2CCN(c3ccc(-c4cnn(C)c4)[nH+]n3)CC2)c1 (nonaromatic ring conformer: 91.17837900583997 kcal/mol)

>  <smiles>  (23) 
Cc1cccc(S(=O)(=O)N2CCN(c3ccc(-c4cnn(C)c4)nn3)CC2)c1

>  <score_type>  (23) 
oracle

>  <origin>  (23) 
adg

>  <m_score__min__energy>  (23) 
-7.79

>  <m_primary>  (23) 
energy

$$$$
23:0
     RDKit          3D

 39 41  0  0  1  0  0  0  0  0999 V2000
   59.2930   34.4850   46.2720 C   0  0  0  0  0  0  0  0  0  0  0  0
   59.0740   33.4430   47.2080 O   0  0  0  0  0  0  0  0  0  0  0  0
   59.3120   32.1270   46.8610 C   0  0  0  0  0  0  0  0  0  0  0  0
   58.3040   31.3910   46.2720 C   0  0  0  0  0  0  0  0  0  0  0  0
   58.4870   30.0720   45.9040 C   0  0  0  0  0  0  0  0  0  0  0  0
   57.4980   29.3100   45.3120 C   0  0  0  0  0  0  0  0  0  0  0  0
   56.3520   29.8210   45.0810 N   0  0  0  0  0  0  0  0  0  0  0  0
   55.8920   30.2910   43.8100 C   0  0  0  0  0  0  0  0  0  0  0  0
   56.2990   29.7150   42.5200 C   0  0  0  0  0  0  0  0  0  0  0  0
   57.0210   30.9170   42.9810 C   0  0  0  0  0  0  0  0  0  0  0  0
   57.7020   28.0240   44.9620 N   0  0  0  0  0  0  0  0  0  0  0  0
   58.9240   27.4770   45.2060 C   0  0  0  0  0  0  0  0  0  0  0  0
   59.8840   28.2230   45.7830 N   0  0  0  0  0  0  0  0  0  0  0  0
   59.7240   29.5100   46.1480 C   0  0  0  0  0  0  0  0  0  0  0  0
   60.7250   30.2550   46.7380 C   0  0  0  0  0  0  0  0  0  0  0  0
   60.5570   31.5660   47.1090 C   0  0  0  0  0  0  0  0  0  0  0  0
   61.5040   32.3570   47.6960 O   0  0  0  0  0  0  0  0  0  0  0  0
   62.8580   32.4510   47.3210 C   0  0  0  0  0  0  0  0  0  0  0  0
   63.0380   33.8240   46.6600 C   0  0  0  0  0  0  0  0  0  0  0  0
   63.7720   32.3750   48.5360 C   0  0  0  0  0  0  0  0  0  0  0  0
   59.4905   35.4246   46.8088 H   0  0  0  0  0  0  0  0  0  0  0  0
   60.1582   34.2347   45.6405 H   0  0  0  0  0  0  0  0  0  0  0  0
   58.4003   34.6042   45.6405 H   0  0  0  0  0  0  0  0  0  0  0  0
   57.3291   31.8672   46.0908 H   0  0  0  0  0  0  0  0  0  0  0  0
   54.8930   30.5248   44.2066 H   0  0  0  0  0  0  0  0  0  0  0  0
   56.8182   28.7455   42.4988 H   0  0  0  0  0  0  0  0  0  0  0  0
   55.7591   29.4588   41.5965 H   0  0  0  0  0  0  0  0  0  0  0  0
   58.0649   30.8408   43.3194 H   0  0  0  0  0  0  0  0  0  0  0  0
   57.2341   31.9139   42.5676 H   0  0  0  0  0  0  0  0  0  0  0  0
   56.9340   27.4470   44.5070 H   0  0  0  0  0  0  0  0  0  0  0  0
   59.1260   26.4307   44.9331 H   0  0  0  0  0  0  0  0  0  0  0  0
   61.6994   29.7776   46.9187 H   0  0  0  0  0  0  0  0  0  0  0  0
   63.1178   31.6222   46.6460 H   0  0  0  0  0  0  0  0  0  0  0  0
   63.1391   34.5951   47.4380 H   0  0  0  0  0  0  0  0  0  0  0  0
   63.9425   33.8139   46.0341 H   0  0  0  0  0  0  0  0  0  0  0  0
   62.1614   34.0474   46.0341 H   0  0  0  0  0  0  0  0  0  0  0  0
   63.1673   32.4253   49.4535 H   0  0  0  0  0  0  0  0  0  0  0  0
   64.3302   31.4273   48.5162 H   0  0  0  0  0  0  0  0  0  0  0  0
   64.4790   33.2175   48.5162 H   0  0  0  0  0  0  0  0  0  0  0  0
  1  2  1  0
  2  3  1  0
  3  4  2  0
  4  5  1  0
  5  6  1  0
  6  7  2  0
  7  8  1  0
  8  9  1  0
  9 10  1  0
  6 11  1  0
 11 12  1  0
 12 13  2  0
 13 14  1  0
 14 15  1  0
 15 16  2  0
 16 17  1  0
 17 18  1  0
 18 19  1  0
 18 20  1  0
 16  3  1  0
 14  5  2  0
 10  8  1  0
  1 21  1  0
  1 22  1  0
  1 23  1  0
  4 24  1  0
  8 25  1  0
  9 26  1  0
  9 27  1  0
 10 28  1  0
 10 29  1  0
 11 30  1  0
 12 31  1  0
 15 32  1  0
 18 33  1  0
 19 34  1  0
 19 35  1  0
 19 36  1  0
 20 37  1  0
 20 38  1  0
 20 39  1  0
M  END
>  <smiles>  (24) 
COc1cc2c(=NC3CC3)[nH]cnc2cc1OC(C)C

>  <score_type>  (24) 
oracle

>  <origin>  (24) 
adg

>  <m_score__min__energy>  (24) 
-6.2599999999999998

>  <m_primary>  (24) 
energy

$$$$
24:0
     RDKit          3D

 36 38  0  0  0  0  0  0  0  0999 V2000
   58.3570   25.4756   45.5516 H   0  0  0  0  0  0  0  0  0  0  0  0
   58.2970   26.5730   45.5980 C   0  0  0  0  0  0  0  0  0  0  0  0
   59.4170   27.3150   45.9650 C   0  0  0  0  0  0  0  0  0  0  0  0
   60.3605   26.8034   46.2061 H   0  0  0  0  0  0  0  0  0  0  0  0
   59.3430   28.7070   46.0270 C   0  0  0  0  0  0  0  0  0  0  0  0
   60.2306   29.2865   46.3208 H   0  0  0  0  0  0  0  0  0  0  0  0
   58.1460   29.3770   45.7180 C   0  0  0  0  0  0  0  0  0  0  0  0
   58.1200   30.8580   45.7960 C   0  0  0  0  0  0  0  0  0  0  0  0
   57.1810   31.6480   45.2290 N   0  0  0  0  0  0  0  0  0  0  0  0
   57.5230   32.8890   45.5360 N   0  0  0  0  0  0  0  0  0  0  0  0
   57.0020   33.7450   45.2440 H   0  0  0  0  0  0  0  0  0  0  0  0
   58.6410   32.8180   46.2720 C   0  0  0  0  0  0  0  0  0  0  0  0
   59.2660   33.8620   46.7300 N   0  0  0  0  0  0  0  0  0  0  0  0
   60.5570   33.8720   47.3620 C   0  0  0  0  0  0  0  0  0  0  0  0
   61.7360   33.5090   46.6790 C   0  0  0  0  0  0  0  0  0  0  0  0
   61.6888   33.2233   45.6178 H   0  0  0  0  0  0  0  0  0  0  0  0
   62.9650   33.5110   47.3460 C   0  0  0  0  0  0  0  0  0  0  0  0
   63.8835   33.2403   46.8047 H   0  0  0  0  0  0  0  0  0  0  0  0
   63.0290   33.8560   48.6980 C   0  0  0  0  0  0  0  0  0  0  0  0
   64.2220   33.8550   49.3430 F   0  0  0  0  0  0  0  0  0  0  0  0
   61.8620   34.1900   49.3890 C   0  0  0  0  0  0  0  0  0  0  0  0
   61.9116   34.4541   50.4557 H   0  0  0  0  0  0  0  0  0  0  0  0
   60.6300   34.1890   48.7260 C   0  0  0  0  0  0  0  0  0  0  0  0
   59.7122   34.4386   49.2786 H   0  0  0  0  0  0  0  0  0  0  0  0
   59.0210   31.5750   46.4350 O   0  0  0  0  0  0  0  0  0  0  0  0
   57.0070   28.6250   45.3410 C   0  0  0  0  0  0  0  0  0  0  0  0
   55.8090   29.2980   45.0370 O   0  0  0  0  0  0  0  0  0  0  0  0
   55.4000   29.7410   43.7420 C   0  0  0  0  0  0  0  0  0  0  0  0
   55.0073   30.7657   43.8186 H   0  0  0  0  0  0  0  0  0  0  0  0
   54.6222   29.0603   43.3656 H   0  0  0  0  0  0  0  0  0  0  0  0
   56.5740   29.7270   42.7700 C   0  0  0  0  0  0  0  0  0  0  0  0
   57.5177   29.7157   43.3350 H   0  0  0  0  0  0  0  0  0  0  0  0
   56.5151   28.8295   42.1367 H   0  0  0  0  0  0  0  0  0  0  0  0
   56.5365   30.6257   42.1367 H   0  0  0  0  0  0  0  0  0  0  0  0
   57.0990   27.2180   45.2890 C   0  0  0  0  0  0  0  0  0  0  0  0
   56.2184   26.6243   45.0023 H   0  0  0  0  0  0  0  0  0  0  0  0
  1  2  1  0
  2  3  2  0
  3  4  1  0
  3  5  1  0
  5  6  1  0
  5  7  2  0
  7  8  1  0
  8  9  2  0
  9 10  1  0
 10 11  1  0
 10 12  1  0
 12 13  2  0
 13 14  1  0
 14 15  2  0
 15 16  1  0
 15 17  1  0
 17 18  1  0
 17 19  2  0
 19 20  1  0
 19 21  1  0
 21 22  1  0
 21 23  2  0
 23 24  1  0
 12 25  1  0
  7 26  1  0
 26 27  1  0
 27 28  1  0
 28 29  1  0
 28 30  1  0
 28 31  1  0
 31 32  1  0
 31 33  1  0
 31 34  1  0
 26 35  2  0
 35 36  1  0
 35  2  1  0
 25  8  1  0
 23 14  1  0
M  END
>  <UniqueID>  (25) 
22

>  <SMILES>  (25) 
CCOc1ccccc1-c1n[nH]/c(=N/c2ccc(F)cc2)o1

>  <Energy>  (25) 
79.1178498297044

>  <Genealogy>  (25) 
CCOc1ccccc1-c1n[nH]/c(=N/c2ccc(F)cc2)o1 (cis-trans isomerization)
CCOc1ccccc1-c1n[nH]/c(=N/c2ccc(F)cc2)o1 (3D coordinates assigned)
CCOc1ccccc1-c1n[nH]/c(=N/c2ccc(F)cc2)o1 (optimized conformer: 79.1178498297044 kcal/mol)

>  <smiles>  (25) 
CCOc1ccccc1-c1n[nH]c(=Nc2ccc(F)cc2)o1

>  <score_type>  (25) 
oracle

>  <origin>  (25) 
adg

>  <m_score__min__energy>  (25) 
-7.1799999999999997

>  <m_primary>  (25) 
energy

$$$$
25:0
     RDKit          3D

 56 60  0  0  0  0  0  0  0  0999 V2000
   60.5411   30.1918   47.7597 H   0  0  0  0  0  0  0  0  0  0  0  0
   61.0740   31.1460   47.8840 C   0  0  0  0  0  0  0  0  0  0  0  0
   62.2260   31.1880   48.6080 N   0  0  0  0  0  0  0  0  0  0  0  0
   62.9140   32.3430   48.7960 C   0  0  0  0  0  0  0  0  0  0  0  0
   64.1180   32.3340   49.5610 N   0  0  0  0  0  0  0  0  0  0  0  0
   64.7230   31.5070   50.6200 C   0  0  0  0  0  0  0  0  0  0  0  0
   64.1320   31.5064   51.5478 H   0  0  0  0  0  0  0  0  0  0  0  0
   64.8255   30.4306   50.4176 H   0  0  0  0  0  0  0  0  0  0  0  0
   65.9830   32.2990   50.7400 C   0  0  0  0  0  0  0  0  0  0  0  0
   66.1351   32.8059   51.7043 H   0  0  0  0  0  0  0  0  0  0  0  0
   66.9910   31.8642   50.6698 H   0  0  0  0  0  0  0  0  0  0  0  0
   65.3560   33.1280   49.6680 C   0  0  0  0  0  0  0  0  0  0  0  0
   65.1697   34.1642   49.9867 H   0  0  0  0  0  0  0  0  0  0  0  0
   65.9368   33.2775   48.7459 H   0  0  0  0  0  0  0  0  0  0  0  0
   62.4380   33.5340   48.2420 C   0  0  0  0  0  0  0  0  0  0  0  0
   62.9870   34.4748   48.3952 H   0  0  0  0  0  0  0  0  0  0  0  0
   61.2610   33.5210   47.4930 C   0  0  0  0  0  0  0  0  0  0  0  0
   60.8785   34.4554   47.0565 H   0  0  0  0  0  0  0  0  0  0  0  0
   60.5610   32.3150   47.2940 C   0  0  0  0  0  0  0  0  0  0  0  0
   59.2990   32.2620   46.5120 C   0  0  0  0  0  0  0  0  0  0  0  0
   59.1090   31.2470   45.6250 N   0  0  0  0  0  0  0  0  0  0  0  0
   57.9710   31.1430   44.8850 C   0  0  0  0  0  0  0  0  0  0  0  0
   57.8080   30.1760   44.0290 N   0  0  0  0  0  0  0  0  0  0  0  0
   57.6610   28.7760   44.3240 C   0  0  0  0  0  0  0  0  0  0  0  0
   56.9870   28.3200   45.4720 C   0  0  0  0  0  0  0  0  0  0  0  0
   56.5754   29.0452   46.1895 H   0  0  0  0  0  0  0  0  0  0  0  0
   56.8380   26.9490   45.7050 C   0  0  0  0  0  0  0  0  0  0  0  0
   56.3242   26.6013   46.6134 H   0  0  0  0  0  0  0  0  0  0  0  0
   57.3400   26.0150   44.7870 C   0  0  0  0  0  0  0  0  0  0  0  0
   57.1830   24.6040   45.0230 N   0  0  0  0  0  0  0  0  0  0  0  0
   55.8150   24.0540   45.0760 C   0  0  0  0  0  0  0  0  0  0  0  0
   55.1019   24.8805   44.9407 H   0  0  0  0  0  0  0  0  0  0  0  0
   55.7018   23.5613   46.0530 H   0  0  0  0  0  0  0  0  0  0  0  0
   55.5390   22.9910   43.9980 C   0  0  0  0  0  0  0  0  0  0  0  0
   56.1368   23.2337   43.1071 H   0  0  0  0  0  0  0  0  0  0  0  0
   54.4590   23.0104   43.7900 H   0  0  0  0  0  0  0  0  0  0  0  0
   55.8760   21.6240   44.4290 N   0  0  0  0  0  0  0  0  0  0  0  0
   55.5750   20.9650   43.6740 H   0  0  0  0  0  0  0  0  0  0  0  0
   57.3020   21.3870   44.7120 C   0  0  0  0  0  0  0  0  0  0  0  0
   57.5906   20.4256   44.2622 H   0  0  0  0  0  0  0  0  0  0  0  0
   57.4182   21.3891   45.8058 H   0  0  0  0  0  0  0  0  0  0  0  0
   58.2320   22.4830   44.1570 C   0  0  0  0  0  0  0  0  0  0  0  0
   57.8376   22.8011   43.1806 H   0  0  0  0  0  0  0  0  0  0  0  0
   59.2341   22.0326   44.1019 H   0  0  0  0  0  0  0  0  0  0  0  0
   58.3760   23.7390   45.0460 C   0  0  0  0  0  0  0  0  0  0  0  0
   59.2382   24.3224   44.6906 H   0  0  0  0  0  0  0  0  0  0  0  0
   58.5107   23.3938   46.0817 H   0  0  0  0  0  0  0  0  0  0  0  0
   57.9840   26.4710   43.6260 C   0  0  0  0  0  0  0  0  0  0  0  0
   58.3741   25.7464   42.8960 H   0  0  0  0  0  0  0  0  0  0  0  0
   58.1320   27.8410   43.3930 C   0  0  0  0  0  0  0  0  0  0  0  0
   58.6222   28.1879   42.4714 H   0  0  0  0  0  0  0  0  0  0  0  0
   57.0040   32.0880   45.0090 N   0  0  0  0  0  0  0  0  0  0  0  0
   57.1460   33.1270   45.8700 C   0  0  0  0  0  0  0  0  0  0  0  0
   56.3497   33.8808   45.9577 H   0  0  0  0  0  0  0  0  0  0  0  0
   58.3010   33.2400   46.6440 C   0  0  0  0  0  0  0  0  0  0  0  0
   58.4271   34.0791   47.3440 H   0  0  0  0  0  0  0  0  0  0  0  0
  1  2  1  0
  2  3  2  0
  3  4  1  0
  4  5  1  0
  5  6  1  0
  6  7  1  0
  6  8  1  0
  6  9  1  0
  9 10  1  0
  9 11  1  0
  9 12  1  0
 12 13  1  0
 12 14  1  0
  4 15  2  0
 15 16  1  0
 15 17  1  0
 17 18  1  0
 17 19  2  0
 19 20  1  0
 20 21  2  0
 21 22  1  0
 22 23  2  0
 23 24  1  0
 24 25  2  0
 25 26  1  0
 25 27  1  0
 27 28  1  0
 27 29  2  0
 29 30  1  0
 30 31  1  0
 31 32  1  0
 31 33  1  0
 31 34  1  0
 34 35  1  0
 34 36  1  0
 34 37  1  0
 37 38  1  0
 37 39  1  0
 39 40  1  0
 39 41  1  0
 39 42  1  0
 42 43  1  0
 42 44  1  0
 42 45  1  0
 45 46  1  0
 45 47  1  0
 29 48  1  0
 48 49  1  0
 48 50  2  0
 50 51  1  0
 22 52  1  0
 52 53  1  0
 53 54  1  0
 53 55  2  0
 55 56  1  0
 19  2  1  0
 55 20  1  0
 12  5  1  0
 50 24  1  0
 45 30  1  0
M  CHG  1  52  -1
M  END
>  <UniqueID>  (26) 
23

>  <SMILES>  (26) 
c1cc(-c2ccc(N3CCC3)nc2)n/c(=N\c2ccc(N3CCCNCC3)cc2)[n-]1

>  <Energy>  (26) 
128.33091175553977

>  <Genealogy>  (26) 
c1cc(-c2ccc(N3CCC3)nc2)nc(=Nc2ccc(N3CCCNCC3)cc2)[n-]1 (protonated)
c1cc(-c2ccc(N3CCC3)nc2)n/c(=N\c2ccc(N3CCCNCC3)cc2)[n-]1 (cis-trans isomerization)
c1cc(-c2ccc(N3CCC3)nc2)n/c(=N\c2ccc(N3CCCNCC3)cc2)[n-]1 (3D coordinates assigned)
c1cc(-c2ccc(N3CCC3)nc2)n/c(=N\c2ccc(N3CCCNCC3)cc2)[n-]1 (nonaromatic ring conformer: 128.33091175553977 kcal/mol)

>  <smiles>  (26) 
c1cc(-c2ccc(N3CCC3)nc2)nc(=Nc2ccc(N3CCCNCC3)cc2)[nH]1

>  <score_type>  (26) 
oracle

>  <origin>  (26) 
adg

>  <m_score__min__energy>  (26) 
-7.6799999999999997

>  <m_primary>  (26) 
energy

$$$$
26:0
     RDKit          3D

 61 65  0  0  0  0  0  0  0  0999 V2000
   60.2654   35.5786   47.8720 H   0  0  0  0  0  0  0  0  0  0  0  0
   59.6710   34.8790   47.2660 C   0  0  0  0  0  0  0  0  0  0  0  0
   58.9480   33.8600   47.8870 C   0  0  0  0  0  0  0  0  0  0  0  0
   58.9742   33.7558   48.9817 H   0  0  0  0  0  0  0  0  0  0  0  0
   58.1900   32.9710   47.1180 C   0  0  0  0  0  0  0  0  0  0  0  0
   57.6210   32.1687   47.6106 H   0  0  0  0  0  0  0  0  0  0  0  0
   58.1520   33.0980   45.7190 C   0  0  0  0  0  0  0  0  0  0  0  0
   57.3090   32.1570   44.8960 C   0  0  0  0  0  0  0  0  0  0  0  0
   56.7606   32.7389   44.1405 H   0  0  0  0  0  0  0  0  0  0  0  0
   56.6168   31.6368   45.5744 H   0  0  0  0  0  0  0  0  0  0  0  0
   58.1680   31.0930   44.1800 C   0  0  0  0  0  0  0  0  0  0  0  0
   59.2084   31.4482   44.1437 H   0  0  0  0  0  0  0  0  0  0  0  0
   57.7481   30.9527   43.1730 H   0  0  0  0  0  0  0  0  0  0  0  0
   58.1410   29.7720   44.8630 N   0  0  1  0  0  0  0  0  0  0  0  0
   57.2860   29.2540   44.5520 H   0  0  0  0  0  0  0  0  0  0  0  0
   59.3230   28.9360   44.4930 C   0  0  0  0  0  0  0  0  0  0  0  0
   58.9895   27.8964   44.3583 H   0  0  0  0  0  0  0  0  0  0  0  0
   59.7459   29.3529   43.5671 H   0  0  0  0  0  0  0  0  0  0  0  0
   60.4290   28.9620   45.5580 C   0  0  0  0  0  0  0  0  0  0  0  0
   61.2733   28.3471   45.2128 H   0  0  0  0  0  0  0  0  0  0  0  0
   60.7427   30.0057   45.7071 H   0  0  0  0  0  0  0  0  0  0  0  0
   59.9220   28.4080   46.9080 C   0  0  1  0  0  0  0  0  0  0  0  0
   60.0279   27.3131   46.9172 H   0  0  0  0  0  0  0  0  0  0  0  0
   60.7240   29.0030   47.9770 N   0  0  0  0  0  0  0  0  0  0  0  0
   61.2370   30.1940   48.1400 C   0  0  0  0  0  0  0  0  0  0  0  0
   61.7480   30.8530   47.0680 N   0  0  0  0  0  0  0  0  0  0  0  0
   62.1810   32.0110   47.5870 C   0  0  0  0  0  0  0  0  0  0  0  0
   62.8190   33.0510   46.9160 C   0  0  0  0  0  0  0  0  0  0  0  0
   63.0002   33.0014   45.8322 H   0  0  0  0  0  0  0  0  0  0  0  0
   63.2240   34.1670   47.6700 C   0  0  0  0  0  0  0  0  0  0  0  0
   63.7303   35.0081   47.1739 H   0  0  0  0  0  0  0  0  0  0  0  0
   62.9840   34.2130   49.0600 C   0  0  0  0  0  0  0  0  0  0  0  0
   63.3048   35.0901   49.6413 H   0  0  0  0  0  0  0  0  0  0  0  0
   62.3370   33.1440   49.7070 C   0  0  0  0  0  0  0  0  0  0  0  0
   62.1492   33.1666   50.7906 H   0  0  0  0  0  0  0  0  0  0  0  0
   61.9400   32.0510   48.9280 C   0  0  0  0  0  0  0  0  0  0  0  0
   61.3350   30.9080   49.3140 N   0  0  0  0  0  0  0  0  0  0  0  0
   61.0760   30.5570   50.7210 C   0  0  0  0  0  0  0  0  0  0  0  0
   61.8308   31.0404   51.3587 H   0  0  0  0  0  0  0  0  0  0  0  0
   61.1295   29.4636   50.8285 H   0  0  0  0  0  0  0  0  0  0  0  0
   59.7010   31.0200   51.1420 C   0  0  0  0  0  0  0  0  0  0  0  0
   59.4660   32.3810   51.4110 C   0  0  0  0  0  0  0  0  0  0  0  0
   60.2823   33.1098   51.2990 H   0  0  0  0  0  0  0  0  0  0  0  0
   58.2000   32.8120   51.8200 C   0  0  0  0  0  0  0  0  0  0  0  0
   58.0236   33.8768   52.0323 H   0  0  0  0  0  0  0  0  0  0  0  0
   57.1590   31.8900   51.9590 C   0  0  0  0  0  0  0  0  0  0  0  0
   55.9350   32.3090   52.3650 F   0  0  0  0  0  0  0  0  0  0  0  0
   57.3810   30.5380   51.6880 C   0  0  0  0  0  0  0  0  0  0  0  0
   56.5600   29.8141   51.7973 H   0  0  0  0  0  0  0  0  0  0  0  0
   58.6450   30.1030   51.2780 C   0  0  0  0  0  0  0  0  0  0  0  0
   58.8135   29.0379   51.0609 H   0  0  0  0  0  0  0  0  0  0  0  0
   58.4200   28.7210   47.1170 C   0  0  0  0  0  0  0  0  0  0  0  0
   57.8242   27.8617   46.7756 H   0  0  0  0  0  0  0  0  0  0  0  0
   58.2511   28.9117   48.1871 H   0  0  0  0  0  0  0  0  0  0  0  0
   57.9950   29.9670   46.3310 C   0  0  0  0  0  0  0  0  0  0  0  0
   56.9416   30.1885   46.5575 H   0  0  0  0  0  0  0  0  0  0  0  0
   58.6481   30.7995   46.6315 H   0  0  0  0  0  0  0  0  0  0  0  0
   58.8840   34.1270   45.1020 C   0  0  0  0  0  0  0  0  0  0  0  0
   58.8611   34.2362   44.0077 H   0  0  0  0  0  0  0  0  0  0  0  0
   59.6410   35.0120   45.8750 C   0  0  0  0  0  0  0  0  0  0  0  0
   60.2141   35.8145   45.3877 H   0  0  0  0  0  0  0  0  0  0  0  0
  1  2  1  0
  2  3  2  0
  3  4  1  0
  3  5  1  0
  5  6  1  0
  5  7  2  0
  7  8  1  0
  8  9  1  0
  8 10  1  0
  8 11  1  0
 11 12  1  0
 11 13  1  0
 11 14  1  0
 14 15  1  6
 14 16  1  0
 16 17  1  0
 16 18  1  0
 16 19  1  0
 19 20  1  0
 19 21  1  0
 19 22  1  0
 22 23  1  6
 22 24  1  0
 24 25  2  0
 25 26  1  0
 26 27  1  0
 27 28  2  0
 28 29  1  0
 28 30  1  0
 30 31  1  0
 30 32  2  0
 32 33  1  0
 32 34  1  0
 34 35  1  0
 34 36  2  0
 36 37  1  0
 37 38  1  0
 38 39  1  0
 38 40  1  0
 38 41  1  0
 41 42  2  0
 42 43  1  0
 42 44  1  0
 44 45  1  0
 44 46  2  0
 46 47  1  0
 46 48  1  0
 48 49  1  0
 48 50  2  0
 50 51  1  0
 22 52  1  0
 52 53  1  0
 52 54  1  0
 52 55  1  0
 55 56  1  0
 55 57  1  0
  7 58  1  0
 58 59  1  0
 58 60  2  0
 60 61  1  0
 60  2  1  0
 55 14  1  0
 37 25  1  0
 50 41  1  0
 36 27  1  0
M  CHG  2  14   1  26  -1
M  END
>  <UniqueID>  (27) 
24

>  <SMILES>  (27) 
Fc1ccc(Cn2/c(=N\C3CC[NH+](CCc4ccccc4)CC3)[n-]c3ccccc32)cc1

>  <Energy>  (27) 
121.82203310299398

>  <Genealogy>  (27) 
Fc1ccc(Cn2c(=NC3CC[NH+](CCc4ccccc4)CC3)[n-]c3ccccc32)cc1 (protonated)
Fc1ccc(Cn2/c(=N\C3CC[NH+](CCc4ccccc4)CC3)[n-]c3ccccc32)cc1 (cis-trans isomerization)
Fc1ccc(Cn2/c(=N\C3CC[NH+](CCc4ccccc4)CC3)[n-]c3ccccc32)cc1 (3D coordinates assigned)
Fc1ccc(Cn2/c(=N\C3CC[NH+](CCc4ccccc4)CC3)[n-]c3ccccc32)cc1 (nonaromatic ring conformer: 121.82203310299398 kcal/mol)

>  <smiles>  (27) 
Fc1ccc(Cn2c(=NC3CCN(CCc4ccccc4)CC3)[nH]c3ccccc32)cc1

>  <score_type>  (27) 
oracle

>  <origin>  (27) 
adg

>  <m_score__min__energy>  (27) 
-8.5700000000000003

>  <m_primary>  (27) 
energy

$$$$
27:0
     RDKit          3D

 41 44  0  0  0  0  0  0  0  0999 V2000
   63.3960   33.8390   46.1780 C   0  0  0  0  0  0  0  0  0  0  0  0
   62.4010   33.5470   47.2500 C   0  0  0  0  0  0  0  0  0  0  0  0
   62.6490   33.9490   48.5370 N   0  0  0  0  0  0  0  0  0  0  0  0
   61.7440   33.7380   49.5410 C   0  0  0  0  0  0  0  0  0  0  0  0
   61.9930   34.1540   50.8530 O   0  0  0  0  0  0  0  0  0  0  0  0
   62.5830   33.3120   51.8410 C   0  0  0  0  0  0  0  0  0  0  0  0
   63.9130   32.7940   51.3660 C   0  0  0  0  0  0  0  0  0  0  0  0
   64.4660   31.6480   51.9560 C   0  0  0  0  0  0  0  0  0  0  0  0
   65.7140   31.1920   51.5300 C   0  0  0  0  0  0  0  0  0  0  0  0
   66.4000   31.8800   50.5290 C   0  0  0  0  0  0  0  0  0  0  0  0
   65.8240   33.0200   49.9660 C   0  0  0  0  0  0  0  0  0  0  0  0
   64.6050   33.4530   50.3910 N   0  0  0  0  0  0  0  0  0  0  0  0
   60.5560   33.1010   49.2120 C   0  0  0  0  0  0  0  0  0  0  0  0
   59.4460   32.7590   49.9580 C   0  0  0  0  0  0  0  0  0  0  0  0
   58.5700   32.1630   49.0500 C   0  0  0  0  0  0  0  0  0  0  0  0
   59.1160   32.1380   47.8090 N   0  0  0  0  0  0  0  0  0  0  0  0
   58.5140   31.6150   46.6160 C   0  0  0  0  0  0  0  0  0  0  0  0
   58.4470   30.2230   46.4080 C   0  0  0  0  0  0  0  0  0  0  0  0
   59.0570   29.0900   47.6060 Cl  0  0  0  0  0  0  0  0  0  0  0  0
   57.8560   29.7180   45.2430 C   0  0  0  0  0  0  0  0  0  0  0  0
   57.3330   30.5880   44.2840 C   0  0  0  0  0  0  0  0  0  0  0  0
   56.5940   29.9480   42.8280 Cl  0  0  0  0  0  0  0  0  0  0  0  0
   57.3990   31.9700   44.4840 C   0  0  0  0  0  0  0  0  0  0  0  0
   57.9860   32.4870   45.6440 C   0  0  0  0  0  0  0  0  0  0  0  0
   58.0890   34.2330   45.8320 Cl  0  0  0  0  0  0  0  0  0  0  0  0
   60.3230   32.7140   47.9290 C   0  0  0  0  0  0  0  0  0  0  0  0
   61.2190   32.9350   46.9350 N   0  0  0  0  0  0  0  0  0  0  0  0
   64.3559   34.1207   46.6355 H   0  0  0  0  0  0  0  0  0  0  0  0
   63.5359   32.9440   45.5539 H   0  0  0  0  0  0  0  0  0  0  0  0
   63.0301   34.6676   45.5539 H   0  0  0  0  0  0  0  0  0  0  0  0
   62.7285   33.8876   52.7670 H   0  0  0  0  0  0  0  0  0  0  0  0
   61.9144   32.4584   52.0261 H   0  0  0  0  0  0  0  0  0  0  0  0
   63.9206   31.1134   52.7477 H   0  0  0  0  0  0  0  0  0  0  0  0
   66.1559   30.2920   51.9825 H   0  0  0  0  0  0  0  0  0  0  0  0
   67.3844   31.5279   50.1870 H   0  0  0  0  0  0  0  0  0  0  0  0
   66.3566   33.5704   49.1764 H   0  0  0  0  0  0  0  0  0  0  0  0
   64.2030   34.3140   49.9540 H   0  0  0  0  0  0  0  0  0  0  0  0
   59.2867   32.9211   51.0343 H   0  0  0  0  0  0  0  0  0  0  0  0
   57.5754   31.7685   49.3052 H   0  0  0  0  0  0  0  0  0  0  0  0
   57.8035   28.6310   45.0827 H   0  0  0  0  0  0  0  0  0  0  0  0
   56.9879   32.6535   43.7265 H   0  0  0  0  0  0  0  0  0  0  0  0
  1  2  1  0
  2  3  2  0
  3  4  1  0
  4  5  1  0
  5  6  1  0
  6  7  1  0
  7  8  2  0
  8  9  1  0
  9 10  2  0
 10 11  1  0
 11 12  2  0
  4 13  2  0
 13 14  1  0
 14 15  2  0
 15 16  1  0
 16 17  1  0
 17 18  2  0
 18 19  1  0
 18 20  1  0
 20 21  2  0
 21 22  1  0
 21 23  1  0
 23 24  2  0
 24 25  1  0
 16 26  1  0
 26 27  2  0
 27  2  1  0
 12  7  1  0
 26 13  1  0
 24 17  1  0
  1 28  1  0
  1 29  1  0
  1 30  1  0
  6 31  1  0
  6 32  1  0
  8 33  1  0
  9 34  1  0
 10 35  1  0
 11 36  1  0
 12 37  1  0
 14 38  1  0
 15 39  1  0
 20 40  1  0
 23 41  1  0
M  CHG  1  12   1
M  END
>  <UniqueID>  (28) 
25

>  <SMILES>  (28) 
Cc1nc(OCc2cccc[nH+]2)c2ccn(-c3c(Cl)cc(Cl)cc3Cl)c2n1

>  <Energy>  (28) 
85.40883854123668

>  <Genealogy>  (28) 
Cc1nc(OCc2cccc[nH+]2)c2ccn(-c3c(Cl)cc(Cl)cc3Cl)c2n1 (protonated)
Cc1nc(OCc2cccc[nH+]2)c2ccn(-c3c(Cl)cc(Cl)cc3Cl)c2n1 (3D coordinates assigned)
Cc1nc(OCc2cccc[nH+]2)c2ccn(-c3c(Cl)cc(Cl)cc3Cl)c2n1 (optimized conformer: 85.40883854123668 kcal/mol)

>  <smiles>  (28) 
Cc1nc(OCc2ccccn2)c2ccn(-c3c(Cl)cc(Cl)cc3Cl)c2n1

>  <score_type>  (28) 
oracle

>  <origin>  (28) 
adg

>  <m_score__min__energy>  (28) 
-6.29

>  <m_primary>  (28) 
energy

$$$$
28:0
     RDKit          3D

 52 54  0  0  0  0  0  0  0  0999 V2000
   55.9710   29.0770   43.2320 H   0  0  0  0  0  0  0  0  0  0  0  0
   56.2620   29.7840   42.5210 N   0  0  0  0  0  0  0  0  0  0  0  0
   56.9360   30.8360   42.8610 C   0  0  0  0  0  0  0  0  0  0  0  0
   57.5510   31.9650   41.7830 S   0  0  0  0  0  0  0  0  0  0  0  0
   58.2540   32.8960   43.0040 C   0  0  0  0  0  0  0  0  0  0  0  0
   58.8212   33.8268   42.8562 H   0  0  0  0  0  0  0  0  0  0  0  0
   57.9940   32.2850   44.2340 C   0  0  0  0  0  0  0  0  0  0  0  0
   58.4700   32.8460   45.5200 C   0  0  0  0  0  0  0  0  0  0  0  0
   58.5800   32.0220   46.6540 C   0  0  0  0  0  0  0  0  0  0  0  0
   58.3212   30.9553   46.5825 H   0  0  0  0  0  0  0  0  0  0  0  0
   59.0170   32.5520   47.8730 C   0  0  0  0  0  0  0  0  0  0  0  0
   59.1060   31.9007   48.7550 H   0  0  0  0  0  0  0  0  0  0  0  0
   59.3400   33.9060   47.9710 C   0  0  0  0  0  0  0  0  0  0  0  0
   59.6856   34.3203   48.9296 H   0  0  0  0  0  0  0  0  0  0  0  0
   59.2250   34.7360   46.8530 C   0  0  0  0  0  0  0  0  0  0  0  0
   59.4769   35.8037   46.9333 H   0  0  0  0  0  0  0  0  0  0  0  0
   58.7900   34.2110   45.6320 C   0  0  0  0  0  0  0  0  0  0  0  0
   58.6977   34.8687   44.7551 H   0  0  0  0  0  0  0  0  0  0  0  0
   57.2450   31.1450   44.1390 N   0  0  0  0  0  0  0  0  0  0  0  0
   56.8060   30.4010   45.2470 N   0  0  0  0  0  0  0  0  0  0  0  0
   56.6790   28.9750   45.2210 C   0  0  0  0  0  0  0  0  0  0  0  0
   55.5300   28.4650   45.2430 O   0  0  0  0  0  0  0  0  0  0  0  0
   57.8830   28.0790   45.1550 C   0  0  0  0  0  0  0  0  0  0  0  0
   58.0317   27.6015   46.1348 H   0  0  0  0  0  0  0  0  0  0  0  0
   57.7140   27.3168   44.3801 H   0  0  0  0  0  0  0  0  0  0  0  0
   59.0510   28.8260   44.8160 O   0  0  0  0  0  0  0  0  0  0  0  0
   60.1140   29.0400   45.7040 C   0  0  0  0  0  0  0  0  0  0  0  0
   61.2610   29.3360   45.2650 O   0  0  0  0  0  0  0  0  0  0  0  0
   59.8630   28.9960   47.1900 C   0  0  2  0  0  0  0  0  0  0  0  0
   58.9216   29.5302   47.3860 H   0  0  0  0  0  0  0  0  0  0  0  0
   60.9570   29.6520   47.9120 N   0  0  0  0  0  0  0  0  0  0  0  0
   61.8050   29.9460   47.3740 H   0  0  0  0  0  0  0  0  0  0  0  0
   60.8540   30.0450   49.2890 C   0  0  0  0  0  0  0  0  0  0  0  0
   59.8050   29.8060   49.9460 O   0  0  0  0  0  0  0  0  0  0  0  0
   62.0140   30.7060   49.9690 C   0  0  0  0  0  0  0  0  0  0  0  0
   61.6969   31.0723   50.9566 H   0  0  0  0  0  0  0  0  0  0  0  0
   62.8282   29.9756   50.0858 H   0  0  0  0  0  0  0  0  0  0  0  0
   62.5030   31.8620   49.1430 C   0  0  0  0  0  0  0  0  0  0  0  0
   62.2480   33.1830   49.5460 C   0  0  0  0  0  0  0  0  0  0  0  0
   61.7126   33.3747   50.4876 H   0  0  0  0  0  0  0  0  0  0  0  0
   62.6720   34.2560   48.7550 C   0  0  0  0  0  0  0  0  0  0  0  0
   62.4760   35.2885   49.0799 H   0  0  0  0  0  0  0  0  0  0  0  0
   63.3440   34.0190   47.5530 C   0  0  0  0  0  0  0  0  0  0  0  0
   63.6785   34.8643   46.9336 H   0  0  0  0  0  0  0  0  0  0  0  0
   63.5910   32.7070   47.1380 C   0  0  0  0  0  0  0  0  0  0  0  0
   64.1175   32.5203   46.1904 H   0  0  0  0  0  0  0  0  0  0  0  0
   63.1690   31.6310   47.9270 C   0  0  0  0  0  0  0  0  0  0  0  0
   63.3593   30.6000   47.5941 H   0  0  0  0  0  0  0  0  0  0  0  0
   59.7210   27.5550   47.6830 C   0  0  0  0  0  0  0  0  0  0  0  0
   59.7197   27.5422   48.7829 H   0  0  0  0  0  0  0  0  0  0  0  0
   58.7768   27.1313   47.3103 H   0  0  0  0  0  0  0  0  0  0  0  0
   60.5644   26.9552   47.3103 H   0  0  0  0  0  0  0  0  0  0  0  0
  1  2  1  0
  2  3  2  0
  3  4  1  0
  4  5  1  0
  5  6  1  0
  5  7  2  0
  7  8  1  0
  8  9  2  0
  9 10  1  0
  9 11  1  0
 11 12  1  0
 11 13  2  0
 13 14  1  0
 13 15  1  0
 15 16  1  0
 15 17  2  0
 17 18  1  0
  7 19  1  0
 19 20  1  0
 20 21  1  0
 21 22  2  0
 21 23  1  0
 23 24  1  0
 23 25  1  0
 23 26  1  0
 26 27  1  0
 27 28  2  0
 27 29  1  0
 29 30  1  6
 29 31  1  0
 31 32  1  0
 31 33  1  0
 33 34  2  0
 33 35  1  0
 35 36  1  0
 35 37  1  0
 35 38  1  0
 38 39  2  0
 39 40  1  0
 39 41  1  0
 41 42  1  0
 41 43  2  0
 43 44  1  0
 43 45  1  0
 45 46  1  0
 45 47  2  0
 47 48  1  0
 29 49  1  0
 49 50  1  0
 49 51  1  0
 49 52  1  0
 19  3  1  0
 47 38  1  0
 17  8  1  0
M  CHG  1  20  -1
M  END
>  <UniqueID>  (29) 
26

>  <SMILES>  (29) 
[H]/N=c1\scc(-c2ccccc2)n1[N-]C(=O)COC(=O)[C@@H](C)NC(=O)Cc1ccccc1

>  <Energy>  (29) 
88.15643437966078

>  <Genealogy>  (29) 
CC(NC(=O)Cc1ccccc1)C(=O)OCC(=O)[N-]n1c(-c2ccccc2)csc1=N (protonated)
C[C@@H](NC(=O)Cc1ccccc1)C(=O)OCC(=O)[N-]n1c(-c2ccccc2)csc1=N (chirality)
[H]/N=c1\scc(-c2ccccc2)n1[N-]C(=O)COC(=O)[C@@H](C)NC(=O)Cc1ccccc1 (cis-trans isomerization)
[H]/N=c1\scc(-c2ccccc2)n1[N-]C(=O)COC(=O)[C@@H](C)NC(=O)Cc1ccccc1 (3D coordinates assigned)
[H]/N=c1\scc(-c2ccccc2)n1[N-]C(=O)COC(=O)[C@@H](C)NC(=O)Cc1ccccc1 (optimized conformer: 88.15643437966078 kcal/mol)

>  <smiles>  (29) 
CC(NC(=O)Cc1ccccc1)C(=O)OCC(=O)Nn1c(-c2ccccc2)csc1=N

>  <score_type>  (29) 
oracle

>  <origin>  (29) 
adg

>  <m_score__min__energy>  (29) 
-9.5

>  <m_primary>  (29) 
energy

$$$$
29:0
     RDKit          3D

 33 35  0  0  0  0  0  0  0  0999 V2000
   58.9447   26.4505   45.6551 H   0  0  0  0  0  0  0  0  0  0  0  0
   57.8670   26.2900   45.8060 C   0  0  0  0  0  0  0  0  0  0  0  0
   57.2910   25.1070   46.0980 N   0  0  0  0  0  0  0  0  0  0  0  0
   55.9780   25.4000   46.1910 C   0  0  0  0  0  0  0  0  0  0  0  0
   55.0860   24.4970   46.4750 N   0  0  0  0  0  0  0  0  0  0  0  0
   55.3050   23.0520   46.4460 C   0  0  0  0  0  0  0  0  0  0  0  0
   56.0174   22.7796   47.2386 H   0  0  0  0  0  0  0  0  0  0  0  0
   54.3411   22.5468   46.6061 H   0  0  0  0  0  0  0  0  0  0  0  0
   55.8600   22.6200   45.1140 C   0  0  0  0  0  0  0  0  0  0  0  0
   56.8070   21.5830   45.0470 C   0  0  0  0  0  0  0  0  0  0  0  0
   57.1388   21.0841   45.9695 H   0  0  0  0  0  0  0  0  0  0  0  0
   57.3290   21.1830   43.8130 C   0  0  0  0  0  0  0  0  0  0  0  0
   58.0665   20.3682   43.7666 H   0  0  0  0  0  0  0  0  0  0  0  0
   56.9150   21.8170   42.6390 C   0  0  0  0  0  0  0  0  0  0  0  0
   57.3235   21.4984   41.6686 H   0  0  0  0  0  0  0  0  0  0  0  0
   55.9820   22.8560   42.6970 C   0  0  0  0  0  0  0  0  0  0  0  0
   55.6588   23.3564   41.7723 H   0  0  0  0  0  0  0  0  0  0  0  0
   55.4590   23.2600   43.9290 C   0  0  0  0  0  0  0  0  0  0  0  0
   54.7301   24.0828   43.9709 H   0  0  0  0  0  0  0  0  0  0  0  0
   55.7000   26.7020   45.9680 N   0  0  0  0  0  0  0  0  0  0  0  0
   54.7680   27.1710   45.9930 H   0  0  0  0  0  0  0  0  0  0  0  0
   56.8950   27.2720   45.7250 C   0  0  0  0  0  0  0  0  0  0  0  0
   57.1070   28.7110   45.4280 C   0  0  0  0  0  0  0  0  0  0  0  0
   56.3520   29.3570   44.4310 C   0  0  0  0  0  0  0  0  0  0  0  0
   55.5980   28.7907   43.8646 H   0  0  0  0  0  0  0  0  0  0  0  0
   56.5530   30.7130   44.1550 C   0  0  0  0  0  0  0  0  0  0  0  0
   55.9571   31.2078   43.3739 H   0  0  0  0  0  0  0  0  0  0  0  0
   57.5080   31.4410   44.8680 C   0  0  0  0  0  0  0  0  0  0  0  0
   57.7790   33.2930   44.4890 Br  0  0  0  0  0  0  0  0  0  0  0  0
   58.2650   30.8110   45.8590 C   0  0  0  0  0  0  0  0  0  0  0  0
   59.0178   31.3835   46.4207 H   0  0  0  0  0  0  0  0  0  0  0  0
   58.0690   29.4560   46.1390 C   0  0  0  0  0  0  0  0  0  0  0  0
   58.6700   28.9674   46.9201 H   0  0  0  0  0  0  0  0  0  0  0  0
  1  2  1  0
  2  3  1  0
  3  4  1  0
  4  5  2  0
  5  6  1  0
  6  7  1  0
  6  8  1  0
  6  9  1  0
  9 10  2  0
 10 11  1  0
 10 12  1  0
 12 13  1  0
 12 14  2  0
 14 15  1  0
 14 16  1  0
 16 17  1  0
 16 18  2  0
 18 19  1  0
  4 20  1  0
 20 21  1  0
 20 22  1  0
 22 23  1  0
 23 24  2  0
 24 25  1  0
 24 26  1  0
 26 27  1  0
 26 28  2  0
 28 29  1  0
 28 30  1  0
 30 31  1  0
 30 32  2  0
 32 33  1  0
 22  2  2  0
 32 23  1  0
 18  9  1  0
M  CHG  1   3  -1
M  END
>  <UniqueID>  (30) 
27

>  <SMILES>  (30) 
Brc1ccc(-c2c[n-]/c(=N/Cc3ccccc3)[nH]2)cc1

>  <Energy>  (30) 
66.54479414710319

>  <Genealogy>  (30) 
Brc1ccc(-c2c[n-]c(=NCc3ccccc3)[nH]2)cc1 (protonated)
Brc1ccc(-c2c[n-]/c(=N/Cc3ccccc3)[nH]2)cc1 (cis-trans isomerization)
Brc1ccc(-c2c[n-]/c(=N/Cc3ccccc3)[nH]2)cc1 (3D coordinates assigned)
Brc1ccc(-c2c[n-]/c(=N/Cc3ccccc3)[nH]2)cc1 (optimized conformer: 66.54479414710319 kcal/mol)

>  <smiles>  (30) 
Brc1ccc(-c2c[nH]c(=NCc3ccccc3)[nH]2)cc1

>  <score_type>  (30) 
oracle

>  <origin>  (30) 
adg

>  <m_score__min__energy>  (30) 
-9.5500000000000007

>  <m_primary>  (30) 
energy

$$$$
30:0
     RDKit          3D

 29 30  0  0  0  0  0  0  0  0999 V2000
   57.3220   31.3010   43.3920 C   0  0  0  0  0  0  0  0  0  0  0  0
   56.5320   30.8400   44.4800 O   0  0  0  0  0  0  0  0  0  0  0  0
   56.3080   29.4820   44.7280 C   0  0  0  0  0  0  0  0  0  0  0  0
   55.1680   28.9820   44.5160 O   0  0  0  0  0  0  0  0  0  0  0  0
   57.4270   28.6300   45.2020 C   0  0  0  0  0  0  0  0  0  0  0  0
   57.4050   27.2580   44.8930 C   0  0  0  0  0  0  0  0  0  0  0  0
   58.4040   26.4040   45.3620 C   0  0  0  0  0  0  0  0  0  0  0  0
   59.4440   26.9060   46.1400 C   0  0  0  0  0  0  0  0  0  0  0  0
   59.4940   28.2670   46.4460 C   0  0  0  0  0  0  0  0  0  0  0  0
   58.4940   29.1420   45.9860 C   0  0  0  0  0  0  0  0  0  0  0  0
   58.6230   30.5530   46.2350 N   0  0  0  0  0  0  0  0  0  0  0  0
   58.9330   31.0870   47.5320 C   0  0  0  0  0  0  0  0  0  0  0  0
   58.8730   30.3430   48.5500 O   0  0  0  0  0  0  0  0  0  0  0  0
   59.2940   32.5050   47.7070 C   0  0  0  0  0  0  0  0  0  0  0  0
   59.7810   33.1120   48.8630 C   0  0  0  0  0  0  0  0  0  0  0  0
   60.0150   34.4850   48.7110 C   0  0  0  0  0  0  0  0  0  0  0  0
   59.7130   34.9680   47.4450 C   0  0  0  0  0  0  0  0  0  0  0  0
   59.1540   33.6860   46.5150 S   0  0  0  0  0  0  0  0  0  0  0  0
   58.2114   31.8200   43.7787 H   0  0  0  0  0  0  0  0  0  0  0  0
   57.6356   30.4441   42.7776 H   0  0  0  0  0  0  0  0  0  0  0  0
   56.7303   31.9956   42.7776 H   0  0  0  0  0  0  0  0  0  0  0  0
   56.5905   26.8533   44.2742 H   0  0  0  0  0  0  0  0  0  0  0  0
   58.3698   25.3323   45.1166 H   0  0  0  0  0  0  0  0  0  0  0  0
   60.2268   26.2295   46.5137 H   0  0  0  0  0  0  0  0  0  0  0  0
   60.3236   28.6588   47.0528 H   0  0  0  0  0  0  0  0  0  0  0  0
   58.4480   31.2080   45.4430 H   0  0  0  0  0  0  0  0  0  0  0  0
   59.9635   32.5675   49.8012 H   0  0  0  0  0  0  0  0  0  0  0  0
   60.4023   35.1216   49.5202 H   0  0  0  0  0  0  0  0  0  0  0  0
   59.8211   36.0099   47.1091 H   0  0  0  0  0  0  0  0  0  0  0  0
  1  2  1  0
  2  3  1  0
  3  4  2  0
  3  5  1  0
  5  6  2  0
  6  7  1  0
  7  8  2  0
  8  9  1  0
  9 10  2  0
 10 11  1  0
 11 12  1  0
 12 13  2  0
 12 14  1  0
 14 15  2  0
 15 16  1  0
 16 17  2  0
 17 18  1  0
 10  5  1  0
 18 14  1  0
  1 19  1  0
  1 20  1  0
  1 21  1  0
  6 22  1  0
  7 23  1  0
  8 24  1  0
  9 25  1  0
 11 26  1  0
 15 27  1  0
 16 28  1  0
 17 29  1  0
M  END
>  <UniqueID>  (31) 
28

>  <SMILES>  (31) 
COC(=O)c1ccccc1NC(=O)c1cccs1

>  <Energy>  (31) 
60.86759472817819

>  <Genealogy>  (31) 
COC(=O)c1ccccc1NC(=O)c1cccs1 (3D coordinates assigned)
COC(=O)c1ccccc1NC(=O)c1cccs1 (optimized conformer: 60.86759472817819 kcal/mol)

>  <smiles>  (31) 
COC(=O)c1ccccc1NC(=O)c1cccs1

>  <score_type>  (31) 
oracle

>  <origin>  (31) 
adg

>  <m_score__min__energy>  (31) 
-5.8600000000000003

>  <m_primary>  (31) 
energy

$$$$
31:0
     RDKit          3D

 40 43  0  0  0  0  0  0  0  0999 V2000
   50.0290   32.7390   52.0210 O   0  0  0  0  0  0  0  0  0  0  0  0
   51.2390   32.0740   52.1680 C   0  0  0  0  0  0  0  0  0  0  0  0
   51.6030   31.5490   53.4120 C   0  0  0  0  0  0  0  0  0  0  0  0
   52.8210   30.8800   53.5620 C   0  0  0  0  0  0  0  0  0  0  0  0
   53.6930   30.7340   52.4680 C   0  0  0  0  0  0  0  0  0  0  0  0
   55.0070   29.9910   52.6350 C   0  0  1  0  0  0  0  0  0  0  0  0
   56.0240   30.9080   53.3480 C   0  0  0  0  0  0  0  0  0  0  0  0
   57.3190   30.1590   53.7000 C   0  0  2  0  0  0  0  0  0  0  0  0
   58.1620   29.8830   52.4680 C   0  0  0  0  0  0  0  0  0  0  0  0
   57.8200   30.5030   51.2530 C   0  0  0  0  0  0  0  0  0  0  0  0
   58.5550   30.2440   50.0910 C   0  0  0  0  0  0  0  0  0  0  0  0
   59.6330   29.3590   50.1270 C   0  0  0  0  0  0  0  0  0  0  0  0
   60.3440   29.1080   49.0000 F   0  0  0  0  0  0  0  0  0  0  0  0
   59.9780   28.7290   51.3260 C   0  0  0  0  0  0  0  0  0  0  0  0
   59.2470   28.9840   52.4900 C   0  0  0  0  0  0  0  0  0  0  0  0
   57.0250   28.9630   54.4270 O   0  0  0  0  0  0  0  0  0  0  0  0
   55.8610   28.2100   54.2280 C   0  0  0  0  0  0  0  0  0  0  0  0
   55.7250   26.9830   54.8870 C   0  0  0  0  0  0  0  0  0  0  0  0
   54.6020   26.1830   54.6620 C   0  0  0  0  0  0  0  0  0  0  0  0
   54.4740   24.9650   55.3160 O   0  0  0  0  0  0  0  0  0  0  0  0
   53.6130   26.6050   53.7690 C   0  0  0  0  0  0  0  0  0  0  0  0
   53.7370   27.8320   53.1140 C   0  0  0  0  0  0  0  0  0  0  0  0
   54.8410   28.6680   53.3670 C   0  0  0  0  0  0  0  0  0  0  0  0
   53.3130   31.2590   51.2180 C   0  0  0  0  0  0  0  0  0  0  0  0
   52.0940   31.9280   51.0720 C   0  0  0  0  0  0  0  0  0  0  0  0
   50.9294   31.6628   54.2742 H   0  0  0  0  0  0  0  0  0  0  0  0
   53.0994   30.4650   54.5419 H   0  0  0  0  0  0  0  0  0  0  0  0
   55.3860   29.7347   51.6346 H   0  0  0  0  0  0  0  0  0  0  0  0
   56.2692   31.7509   52.6852 H   0  0  0  0  0  0  0  0  0  0  0  0
   55.5679   31.2612   54.2846 H   0  0  0  0  0  0  0  0  0  0  0  0
   57.9222   30.8085   54.3514 H   0  0  0  0  0  0  0  0  0  0  0  0
   56.9676   31.1973   51.2159 H   0  0  0  0  0  0  0  0  0  0  0  0
   58.2824   30.7391   49.1473 H   0  0  0  0  0  0  0  0  0  0  0  0
   60.8273   28.0304   51.3538 H   0  0  0  0  0  0  0  0  0  0  0  0
   59.5204   28.4799   53.4287 H   0  0  0  0  0  0  0  0  0  0  0  0
   56.5057   26.6469   55.5852 H   0  0  0  0  0  0  0  0  0  0  0  0
   52.7351   25.9692   53.5818 H   0  0  0  0  0  0  0  0  0  0  0  0
   52.9665   28.1476   52.3952 H   0  0  0  0  0  0  0  0  0  0  0  0
   53.9795   31.1421   50.3507 H   0  0  0  0  0  0  0  0  0  0  0  0
   51.8074   32.3400   50.0932 H   0  0  0  0  0  0  0  0  0  0  0  0
  1  2  1  0
  2  3  2  0
  3  4  1  0
  4  5  2  0
  5  6  1  0
  6  7  1  0
  7  8  1  0
  8  9  1  0
  9 10  2  0
 10 11  1  0
 11 12  2  0
 12 13  1  0
 12 14  1  0
 14 15  2  0
  8 16  1  0
 16 17  1  0
 17 18  2  0
 18 19  1  0
 19 20  1  0
 19 21  2  0
 21 22  1  0
 22 23  2  0
  5 24  1  0
 24 25  2  0
 25  2  1  0
 23  6  1  0
 15  9  1  0
 23 17  1  0
  3 26  1  0
  4 27  1  0
  6 28  1  6
  7 29  1  0
  7 30  1  0
  8 31  1  1
 10 32  1  0
 11 33  1  0
 14 34  1  0
 15 35  1  0
 18 36  1  0
 21 37  1  0
 22 38  1  0
 24 39  1  0
 25 40  1  0
M  CHG  2   1  -1  20  -1
M  END
>  <UniqueID>  (32) 
29

>  <SMILES>  (32) 
[O-]c1ccc([C@H]2C[C@H](c3ccc(F)cc3)Oc3cc([O-])ccc32)cc1

>  <Energy>  (32) 
48.136293740566735

>  <Genealogy>  (32) 
[O-]c1ccc(C2CC(c3ccc(F)cc3)Oc3cc([O-])ccc32)cc1 (protonated)
[O-]c1ccc([C@H]2C[C@H](c3ccc(F)cc3)Oc3cc([O-])ccc32)cc1 (chirality)
[O-]c1ccc([C@H]2C[C@H](c3ccc(F)cc3)Oc3cc([O-])ccc32)cc1 (3D coordinates assigned)
[O-]c1ccc([C@H]2C[C@H](c3ccc(F)cc3)Oc3cc([O-])ccc32)cc1 (nonaromatic ring conformer: 48.136293740566735 kcal/mol)

>  <smiles>  (32) 
Oc1ccc(C2CC(c3ccc(F)cc3)Oc3cc(O)ccc32)cc1

>  <score_type>  (32) 
oracle

>  <origin>  (32) 
adg

>  <m_score__min__energy>  (32) 
-10.630000000000001

>  <m_primary>  (32) 
energy

$$$$
32:0
     RDKit          3D

 36 39  0  0  0  0  0  0  0  0999 V2000
   57.2620   26.7010   46.6510 O   0  0  0  0  0  0  0  0  0  0  0  0
   57.1260   27.8150   46.0800 C   0  0  0  0  0  0  0  0  0  0  0  0
   55.9910   28.0410   45.2470 N   0  0  0  0  0  0  0  0  0  0  0  0
   55.8180   29.2950   44.5910 C   0  0  0  0  0  0  0  0  0  0  0  0
   54.8100   29.4740   43.8570 O   0  0  0  0  0  0  0  0  0  0  0  0
   56.8240   30.3650   44.7820 C   0  0  0  0  0  0  0  0  0  0  0  0
   56.6700   31.6020   44.1420 C   0  0  0  0  0  0  0  0  0  0  0  0
   57.6050   32.6160   44.3250 C   0  0  0  0  0  0  0  0  0  0  0  0
   58.7250   32.4280   45.1490 C   0  0  0  0  0  0  0  0  0  0  0  0
   59.6370   33.5190   45.3660 N   0  0  0  0  0  0  0  0  0  0  0  0
   59.8200   34.2940   46.9080 S   0  0  0  0  0  0  0  0  0  0  0  0
   58.7290   33.8190   47.8260 O   0  0  0  0  0  0  0  0  0  0  0  0
   59.6940   35.7810   46.7310 O   0  0  0  0  0  0  0  0  0  0  0  0
   61.3980   33.9200   47.5910 C   0  0  0  0  0  0  0  0  0  0  0  0
   61.6220   34.0620   48.9680 C   0  0  0  0  0  0  0  0  0  0  0  0
   62.8770   33.7590   49.5090 C   0  0  0  0  0  0  0  0  0  0  0  0
   63.9090   33.3180   48.6780 C   0  0  0  0  0  0  0  0  0  0  0  0
   63.6920   33.1810   47.3050 C   0  0  0  0  0  0  0  0  0  0  0  0
   62.4390   33.4830   46.7600 C   0  0  0  0  0  0  0  0  0  0  0  0
   58.9100   31.1760   45.7920 C   0  0  0  0  0  0  0  0  0  0  0  0
   60.0450   30.9190   46.5880 C   0  0  0  0  0  0  0  0  0  0  0  0
   60.2100   29.6850   47.2170 C   0  0  0  0  0  0  0  0  0  0  0  0
   59.2590   28.6810   47.0600 C   0  0  0  0  0  0  0  0  0  0  0  0
   58.1280   28.8930   46.2590 C   0  0  0  0  0  0  0  0  0  0  0  0
   57.9480   30.1410   45.6110 C   0  0  0  0  0  0  0  0  0  0  0  0
   55.8017   31.7730   43.4887 H   0  0  0  0  0  0  0  0  0  0  0  0
   57.4639   33.5806   43.8155 H   0  0  0  0  0  0  0  0  0  0  0  0
   60.2310   33.8710   44.5830 H   0  0  0  0  0  0  0  0  0  0  0  0
   60.8109   34.4118   49.6235 H   0  0  0  0  0  0  0  0  0  0  0  0
   63.0504   33.8684   50.5897 H   0  0  0  0  0  0  0  0  0  0  0  0
   64.8939   33.0782   49.1052 H   0  0  0  0  0  0  0  0  0  0  0  0
   64.5067   32.8354   46.6516 H   0  0  0  0  0  0  0  0  0  0  0  0
   62.2707   33.3774   45.6781 H   0  0  0  0  0  0  0  0  0  0  0  0
   60.8089   31.7003   46.7144 H   0  0  0  0  0  0  0  0  0  0  0  0
   61.0975   29.5042   47.8412 H   0  0  0  0  0  0  0  0  0  0  0  0
   59.3956   27.7148   47.5677 H   0  0  0  0  0  0  0  0  0  0  0  0
  1  2  2  0
  2  3  1  0
  3  4  1  0
  4  5  2  0
  4  6  1  0
  6  7  1  0
  7  8  2  0
  8  9  1  0
  9 10  1  0
 10 11  1  0
 11 12  2  0
 11 13  2  0
 11 14  1  0
 14 15  2  0
 15 16  1  0
 16 17  2  0
 17 18  1  0
 18 19  2  0
  9 20  2  0
 20 21  1  0
 21 22  2  0
 22 23  1  0
 23 24  2  0
 24 25  1  0
 24  2  1  0
 25  6  2  0
 19 14  1  0
 25 20  1  0
  7 26  1  0
  8 27  1  0
 10 28  1  0
 15 29  1  0
 16 30  1  0
 17 31  1  0
 18 32  1  0
 19 33  1  0
 21 34  1  0
 22 35  1  0
 23 36  1  0
M  CHG  1   3  -1
M  END
>  <UniqueID>  (33) 
30

>  <SMILES>  (33) 
O=C1[N-]C(=O)c2ccc(NS(=O)(=O)c3ccccc3)c3cccc1c23

>  <Energy>  (33) 
53.014444637311996

>  <Genealogy>  (33) 
O=C1[N-]C(=O)c2ccc(NS(=O)(=O)c3ccccc3)c3cccc1c23 (protonated)
O=C1[N-]C(=O)c2ccc(NS(=O)(=O)c3ccccc3)c3cccc1c23 (3D coordinates assigned)
O=C1[N-]C(=O)c2ccc(NS(=O)(=O)c3ccccc3)c3cccc1c23 (nonaromatic ring conformer: 53.014444637311996 kcal/mol)

>  <smiles>  (33) 
O=C1NC(=O)c2ccc(NS(=O)(=O)c3ccccc3)c3cccc1c23

>  <score_type>  (33) 
oracle

>  <origin>  (33) 
adg

>  <m_score__min__energy>  (33) 
-10.67

>  <m_primary>  (33) 
energy

$$$$
33:0
     RDKit          3D

 48 51  0  0  1  0  0  0  0  0999 V2000
   57.7930   32.3440   41.0610 C   0  0  0  0  0  0  0  0  0  0  0  0
   57.3960   32.3410   42.4240 N   0  0  0  0  0  0  0  0  0  0  0  0
   57.3770   31.3550   43.2320 C   0  0  0  0  0  0  0  0  0  0  0  0
   56.8700   30.1980   42.7510 N   0  0  0  0  0  0  0  0  0  0  0  0
   56.9000   29.0620   43.4700 C   0  0  0  0  0  0  0  0  0  0  0  0
   57.4820   29.1320   44.7410 C   0  0  0  0  0  0  0  0  0  0  0  0
   57.5020   27.8810   45.4910 C   0  0  0  0  0  0  0  0  0  0  0  0
   58.6430   27.3440   46.0460 C   0  0  0  0  0  0  0  0  0  0  0  0
   58.6180   26.1540   46.7510 C   0  0  0  0  0  0  0  0  0  0  0  0
   57.4250   25.4470   46.9250 C   0  0  0  0  0  0  0  0  0  0  0  0
   56.3070   26.0180   46.3540 C   0  0  0  0  0  0  0  0  0  0  0  0
   56.3600   27.1900   45.6660 N   0  0  0  0  0  0  0  0  0  0  0  0
   57.9930   30.3120   45.2260 C   0  0  0  0  0  0  0  0  0  0  0  0
   57.9480   31.5030   44.4520 C   0  0  0  0  0  0  0  0  0  0  0  0
   58.3150   32.6940   45.1610 C   0  0  0  0  0  0  0  0  0  0  0  0
   58.4510   32.9050   46.4660 N   0  0  0  0  0  0  0  0  0  0  0  0
   58.9440   34.0020   47.0380 C   0  0  0  0  0  0  0  0  0  0  0  0
   59.0400   34.1260   48.2930 N   0  0  0  0  0  0  0  0  0  0  0  0
   60.0100   33.6200   49.1870 C   0  0  0  0  0  0  0  0  0  0  0  0
   61.2390   33.1050   48.5080 C   0  0  0  0  0  0  0  0  0  0  0  0
   61.3440   31.7750   48.0820 C   0  0  0  0  0  0  0  0  0  0  0  0
   62.4490   31.2750   47.4630 C   0  0  0  0  0  0  0  0  0  0  0  0
   63.5400   32.0820   47.2240 C   0  0  0  0  0  0  0  0  0  0  0  0
   63.4810   33.3860   47.6220 C   0  0  0  0  0  0  0  0  0  0  0  0
   62.3410   33.8900   48.2580 C   0  0  0  0  0  0  0  0  0  0  0  0
   59.3590   35.0270   46.2390 C   0  0  0  0  0  0  0  0  0  0  0  0
   59.8570   36.1400   46.7440 F   0  0  0  0  0  0  0  0  0  0  0  0
   59.2450   34.8710   44.8830 C   0  0  0  0  0  0  0  0  0  0  0  0
   58.7400   33.7430   44.3710 N   0  0  0  0  0  0  0  0  0  0  0  0
   58.8912   32.3523   40.9990 H   0  0  0  0  0  0  0  0  0  0  0  0
   57.4045   31.4429   40.5639 H   0  0  0  0  0  0  0  0  0  0  0  0
   57.3909   33.2391   40.5639 H   0  0  0  0  0  0  0  0  0  0  0  0
   56.4400   30.1450   41.8090 H   0  0  0  0  0  0  0  0  0  0  0  0
   56.4863   28.1214   43.0775 H   0  0  0  0  0  0  0  0  0  0  0  0
   59.5986   27.8753   45.9254 H   0  0  0  0  0  0  0  0  0  0  0  0
   59.5502   25.7586   47.1807 H   0  0  0  0  0  0  0  0  0  0  0  0
   57.3807   24.4985   47.4803 H   0  0  0  0  0  0  0  0  0  0  0  0
   55.3383   25.5075   46.4587 H   0  0  0  0  0  0  0  0  0  0  0  0
   58.4439   30.3350   46.2291 H   0  0  0  0  0  0  0  0  0  0  0  0
   60.3045   34.4271   49.8739 H   0  0  0  0  0  0  0  0  0  0  0  0
   59.5516   32.7696   49.7129 H   0  0  0  0  0  0  0  0  0  0  0  0
   60.4921   31.1013   48.2560 H   0  0  0  0  0  0  0  0  0  0  0  0
   62.4708   30.2202   47.1518 H   0  0  0  0  0  0  0  0  0  0  0  0
   64.4362   31.6850   46.7248 H   0  0  0  0  0  0  0  0  0  0  0  0
   64.3399   34.0489   47.4407 H   0  0  0  0  0  0  0  0  0  0  0  0
   62.3254   34.9455   48.5674 H   0  0  0  0  0  0  0  0  0  0  0  0
   59.5708   35.6784   44.2107 H   0  0  0  0  0  0  0  0  0  0  0  0
   58.6800   33.6840   43.3310 H   0  0  0  0  0  0  0  0  0  0  0  0
  1  2  1  0
  2  3  2  0
  3  4  1  0
  4  5  1  0
  5  6  2  0
  6  7  1  0
  7  8  2  0
  8  9  1  0
  9 10  2  0
 10 11  1  0
 11 12  2  0
  6 13  1  0
 13 14  2  0
 14 15  1  0
 15 16  2  0
 16 17  1  0
 17 18  2  0
 18 19  1  0
 19 20  1  0
 20 21  2  0
 21 22  1  0
 22 23  2  0
 23 24  1  0
 24 25  2  0
 17 26  1  0
 26 27  1  0
 26 28  2  0
 28 29  1  0
 14  3  1  0
 29 15  1  0
 12  7  1  0
 25 20  1  0
  1 30  1  0
  1 31  1  0
  1 32  1  0
  4 33  1  0
  5 34  1  0
  8 35  1  0
  9 36  1  0
 10 37  1  0
 11 38  1  0
 13 39  1  0
 19 40  1  0
 19 41  1  0
 21 42  1  0
 22 43  1  0
 23 44  1  0
 24 45  1  0
 25 46  1  0
 28 47  1  0
 29 48  1  0
M  END
>  <smiles>  (34) 
CN=c1[nH]cc(-c2ccccn2)cc1-c1nc(=NCc2ccccc2)c(F)c[nH]1

>  <score_type>  (34) 
oracle

>  <origin>  (34) 
adg

>  <m_score__min__energy>  (34) 
-8.4800000000000004

>  <m_primary>  (34) 
energy

$$$$
34:0
     RDKit          3D

 69 73  0  0  0  0  0  0  0  0999 V2000
   61.2450   25.0990   52.1000 C   0  0  0  0  0  0  0  0  0  0  0  0
   60.8330   25.6010   50.8330 O   0  0  0  0  0  0  0  0  0  0  0  0
   60.8470   26.9570   50.4760 C   0  0  0  0  0  0  0  0  0  0  0  0
   60.4260   27.4100   49.2120 C   0  0  0  0  0  0  0  0  0  0  0  0
   60.4690   28.7720   48.9000 C   0  0  0  0  0  0  0  0  0  0  0  0
   60.9230   29.7070   49.8460 C   0  0  0  0  0  0  0  0  0  0  0  0
   60.9830   31.1090   49.5140 N   0  0  0  0  0  0  0  0  0  0  0  0
   60.0740   32.0680   50.1500 C   0  0  0  0  0  0  0  0  0  0  0  0
   59.6170   33.0840   49.1010 C   0  0  0  0  0  0  0  0  0  0  0  0
   60.7500   33.8220   48.4860 N   0  0  0  0  0  0  0  0  0  0  0  0
   60.3680   34.2760   46.8360 S   0  0  0  0  0  0  0  0  0  0  0  0
   59.9420   35.7170   46.7890 O   0  0  0  0  0  0  0  0  0  0  0  0
   61.6010   34.1290   45.9880 O   0  0  0  0  0  0  0  0  0  0  0  0
   59.0810   33.2690   46.1660 C   0  0  0  0  0  0  0  0  0  0  0  0
   57.8290   33.8310   45.8770 C   0  0  0  0  0  0  0  0  0  0  0  0
   56.8360   33.0650   45.2610 C   0  0  0  0  0  0  0  0  0  0  0  0
   57.0870   31.7340   44.9180 C   0  0  0  0  0  0  0  0  0  0  0  0
   56.1270   31.0040   44.2910 N   0  0  0  0  0  0  0  0  0  0  0  0
   56.3320   29.7120   43.9250 C   0  0  0  0  0  0  0  0  0  0  0  0
   57.5560   29.0890   44.1930 C   0  0  0  0  0  0  0  0  0  0  0  0
   57.7650   27.6880   43.7890 C   0  0  0  0  0  0  0  0  0  0  0  0
   58.3600   27.4680   42.6980 O   0  0  0  0  0  0  0  0  0  0  0  0
   57.3260   26.5820   44.6150 N   0  0  0  0  0  0  0  0  0  0  0  0
   57.7910   25.2230   44.3080 C   0  0  0  0  0  0  0  0  0  0  0  0
   57.2010   24.2340   45.3220 C   0  0  0  0  0  0  0  0  0  0  0  0
   57.9560   24.1580   46.6660 C   0  0  0  0  0  0  0  0  0  0  0  0
   57.7070   25.2970   47.6770 C   0  0  0  0  0  0  0  0  0  0  0  0
   57.6610   26.7080   47.0620 C   0  0  0  0  0  0  0  0  0  0  0  0
   56.6580   26.8040   45.9040 C   0  0  0  0  0  0  0  0  0  0  0  0
   58.5700   29.8120   44.8400 C   0  0  0  0  0  0  0  0  0  0  0  0
   59.6820   29.2630   45.0790 O   0  0  0  0  0  0  0  0  0  0  0  0
   58.3400   31.1500   45.2140 C   0  0  0  0  0  0  0  0  0  0  0  0
   59.3260   31.9240   45.8550 C   0  0  0  0  0  0  0  0  0  0  0  0
   62.0650   33.1320   48.5640 C   0  0  0  0  0  0  0  0  0  0  0  0
   61.9570   31.5960   48.5280 C   0  0  0  0  0  0  0  0  0  0  0  0
   61.3360   29.2510   51.1090 C   0  0  0  0  0  0  0  0  0  0  0  0
   61.2990   27.8890   51.4170 C   0  0  0  0  0  0  0  0  0  0  0  0
   60.7656   25.6831   52.8994 H   0  0  0  0  0  0  0  0  0  0  0  0
   60.9496   24.0432   52.1898 H   0  0  0  0  0  0  0  0  0  0  0  0
   62.3381   25.1828   52.1898 H   0  0  0  0  0  0  0  0  0  0  0  0
   60.0613   26.6888   48.4657 H   0  0  0  0  0  0  0  0  0  0  0  0
   60.1449   29.1146   47.9062 H   0  0  0  0  0  0  0  0  0  0  0  0
   59.2003   31.5365   50.5553 H   0  0  0  0  0  0  0  0  0  0  0  0
   60.5914   32.5855   50.9712 H   0  0  0  0  0  0  0  0  0  0  0  0
   59.0727   32.5504   48.3079 H   0  0  0  0  0  0  0  0  0  0  0  0
   58.9771   33.8207   49.6087 H   0  0  0  0  0  0  0  0  0  0  0  0
   60.8500   34.7250   49.0080 H   0  0  0  0  0  0  0  0  0  0  0  0
   57.6276   34.8808   46.1367 H   0  0  0  0  0  0  0  0  0  0  0  0
   55.8539   33.5111   45.0455 H   0  0  0  0  0  0  0  0  0  0  0  0
   55.5327   29.1533   43.4160 H   0  0  0  0  0  0  0  0  0  0  0  0
   57.4659   24.9454   43.2945 H   0  0  0  0  0  0  0  0  0  0  0  0
   58.8891   25.1918   44.3648 H   0  0  0  0  0  0  0  0  0  0  0  0
   56.1632   24.5342   45.5289 H   0  0  0  0  0  0  0  0  0  0  0  0
   57.2811   23.2367   44.8648 H   0  0  0  0  0  0  0  0  0  0  0  0
   57.6709   23.2140   47.1534 H   0  0  0  0  0  0  0  0  0  0  0  0
   59.0201   24.2409   46.4000 H   0  0  0  0  0  0  0  0  0  0  0  0
   56.7439   25.1088   48.1741 H   0  0  0  0  0  0  0  0  0  0  0  0
   58.5618   25.2888   48.3693 H   0  0  0  0  0  0  0  0  0  0  0  0
   57.3697   27.4255   47.8432 H   0  0  0  0  0  0  0  0  0  0  0  0
   58.6605   26.9347   46.6624 H   0  0  0  0  0  0  0  0  0  0  0  0
   55.8758   26.0428   46.0405 H   0  0  0  0  0  0  0  0  0  0  0  0
   56.2163   27.8114   45.9031 H   0  0  0  0  0  0  0  0  0  0  0  0
   60.2944   31.4708   46.1134 H   0  0  0  0  0  0  0  0  0  0  0  0
   62.6800   33.4577   47.7121 H   0  0  0  0  0  0  0  0  0  0  0  0
   62.5146   33.4018   49.5310 H   0  0  0  0  0  0  0  0  0  0  0  0
   61.6380   31.2821   47.5232 H   0  0  0  0  0  0  0  0  0  0  0  0
   62.9420   31.1716   48.7722 H   0  0  0  0  0  0  0  0  0  0  0  0
   61.6910   29.9715   51.8606 H   0  0  0  0  0  0  0  0  0  0  0  0
   61.6283   27.5457   52.4088 H   0  0  0  0  0  0  0  0  0  0  0  0
  1  2  1  0
  2  3  1  0
  3  4  2  0
  4  5  1  0
  5  6  2  0
  6  7  1  0
  7  8  1  0
  8  9  1  0
  9 10  1  0
 10 11  1  0
 11 12  2  0
 11 13  2  0
 11 14  1  0
 14 15  2  0
 15 16  1  0
 16 17  2  0
 17 18  1  0
 18 19  1  0
 19 20  2  0
 20 21  1  0
 21 22  2  0
 21 23  1  0
 23 24  1  0
 24 25  1  0
 25 26  1  0
 26 27  1  0
 27 28  1  0
 28 29  1  0
 20 30  1  0
 30 31  2  0
 30 32  1  0
 32 33  2  0
 10 34  1  0
 34 35  1  0
  6 36  1  0
 36 37  2  0
 37  3  1  0
 35  7  1  0
 33 14  1  0
 32 17  1  0
 29 23  1  0
  1 38  1  0
  1 39  1  0
  1 40  1  0
  4 41  1  0
  5 42  1  0
  8 43  1  0
  8 44  1  0
  9 45  1  0
  9 46  1  0
 10 47  1  0
 15 48  1  0
 16 49  1  0
 19 50  1  0
 24 51  1  0
 24 52  1  0
 25 53  1  0
 25 54  1  0
 26 55  1  0
 26 56  1  0
 27 57  1  0
 27 58  1  0
 28 59  1  0
 28 60  1  0
 29 61  1  0
 29 62  1  0
 33 63  1  0
 34 64  1  0
 34 65  1  0
 35 66  1  0
 35 67  1  0
 36 68  1  0
 37 69  1  0
M  CHG  2  10   1  18  -1
M  END
>  <UniqueID>  (35) 
31

>  <SMILES>  (35) 
COc1ccc(N2CC[NH+](S(=O)(=O)c3ccc4[n-]cc(C(=O)N5CCCCCC5)c(=O)c4c3)CC2)cc1

>  <Energy>  (35) 
95.12796384910948

>  <Genealogy>  (35) 
COc1ccc(N2CC[NH+](S(=O)(=O)c3ccc4[n-]cc(C(=O)N5CCCCCC5)c(=O)c4c3)CC2)cc1 (protonated)
COc1ccc(N2CC[NH+](S(=O)(=O)c3ccc4[n-]cc(C(=O)N5CCCCCC5)c(=O)c4c3)CC2)cc1 (3D coordinates assigned)
COc1ccc(N2CC[NH+](S(=O)(=O)c3ccc4[n-]cc(C(=O)N5CCCCCC5)c(=O)c4c3)CC2)cc1 (nonaromatic ring conformer: 95.12796384910948 kcal/mol)

>  <smiles>  (35) 
COc1ccc(N2CCN(S(=O)(=O)c3ccc4[nH]cc(C(=O)N5CCCCCC5)c(=O)c4c3)CC2)cc1

>  <score_type>  (35) 
oracle

>  <origin>  (35) 
adg

>  <m_score__min__energy>  (35) 
-8.4600000000000009

>  <m_primary>  (35) 
energy

$$$$
35:0
     RDKit          3D

 46 48  0  0  0  0  0  0  0  0999 V2000
   64.3370   29.3920   51.8870 C   0  0  0  0  0  0  0  0  0  0  0  0
   64.7380   30.6930   51.2570 C   0  0  0  0  0  0  0  0  0  0  0  0
   66.0930   31.0000   51.0680 C   0  0  0  0  0  0  0  0  0  0  0  0
   66.4640   32.2310   50.5220 C   0  0  0  0  0  0  0  0  0  0  0  0
   65.4890   33.1630   50.1640 C   0  0  0  0  0  0  0  0  0  0  0  0
   64.1280   32.8700   50.3430 C   0  0  0  0  0  0  0  0  0  0  0  0
   63.0850   33.8600   49.9930 C   0  0  0  0  0  0  0  0  0  0  0  0
   63.1060   34.9730   50.5870 O   0  0  0  0  0  0  0  0  0  0  0  0
   62.0420   33.5880   49.0240 N   0  0  0  0  0  0  0  0  0  0  0  0
   62.4560   33.0850   47.6980 C   0  0  0  0  0  0  0  0  0  0  0  0
   61.9370   33.9150   46.5130 C   0  0  0  0  0  0  0  0  0  0  0  0
   60.4990   33.6000   46.0450 C   0  0  0  0  0  0  0  0  0  0  0  0
   59.4350   33.8290   47.0430 N   0  0  0  0  0  0  0  0  0  0  0  0
   58.0490   33.8110   46.5330 C   0  0  0  0  0  0  0  0  0  0  0  0
   57.7730   32.4870   45.8970 C   0  0  0  0  0  0  0  0  0  0  0  0
   56.6480   32.2060   45.2080 N   0  0  0  0  0  0  0  0  0  0  0  0
   56.7610   30.9540   44.8720 O   0  0  0  0  0  0  0  0  0  0  0  0
   57.8910   30.4710   45.3310 C   0  0  0  0  0  0  0  0  0  0  0  0
   58.3500   29.0650   45.1450 C   0  0  0  0  0  0  0  0  0  0  0  0
   58.5760   31.4120   46.0010 N   0  0  0  0  0  0  0  0  0  0  0  0
   59.6350   33.2430   48.3840 C   0  0  0  0  0  0  0  0  0  0  0  0
   60.6460   33.9890   49.2790 C   0  0  0  0  0  0  0  0  0  0  0  0
   63.7610   31.6400   50.9130 C   0  0  0  0  0  0  0  0  0  0  0  0
   64.3673   29.4902   52.9822 H   0  0  0  0  0  0  0  0  0  0  0  0
   63.3165   29.1304   51.5704 H   0  0  0  0  0  0  0  0  0  0  0  0
   65.0331   28.6013   51.5704 H   0  0  0  0  0  0  0  0  0  0  0  0
   66.8657   30.2697   51.3504 H   0  0  0  0  0  0  0  0  0  0  0  0
   67.5282   32.4665   50.3737 H   0  0  0  0  0  0  0  0  0  0  0  0
   65.7886   34.1324   49.7393 H   0  0  0  0  0  0  0  0  0  0  0  0
   63.5553   33.0808   47.6597 H   0  0  0  0  0  0  0  0  0  0  0  0
   62.0191   32.0810   47.5930 H   0  0  0  0  0  0  0  0  0  0  0  0
   61.9718   34.9753   46.8037 H   0  0  0  0  0  0  0  0  0  0  0  0
   62.5882   33.6599   45.6640 H   0  0  0  0  0  0  0  0  0  0  0  0
   60.2828   34.2307   45.1701 H   0  0  0  0  0  0  0  0  0  0  0  0
   60.4830   32.5208   45.8327 H   0  0  0  0  0  0  0  0  0  0  0  0
   57.3489   33.9713   47.3662 H   0  0  0  0  0  0  0  0  0  0  0  0
   57.9201   34.6108   45.7889 H   0  0  0  0  0  0  0  0  0  0  0  0
   58.5031   28.5962   46.1282 H   0  0  0  0  0  0  0  0  0  0  0  0
   57.5890   28.5019   44.5848 H   0  0  0  0  0  0  0  0  0  0  0  0
   59.2966   29.0594   44.5848 H   0  0  0  0  0  0  0  0  0  0  0  0
   59.4960   31.3250   46.4870 H   0  0  0  0  0  0  0  0  0  0  0  0
   58.6639   33.2343   48.9006 H   0  0  0  0  0  0  0  0  0  0  0  0
   60.0527   32.2386   48.2206 H   0  0  0  0  0  0  0  0  0  0  0  0
   60.5510   35.0687   49.0916 H   0  0  0  0  0  0  0  0  0  0  0  0
   60.4143   33.7333   50.3235 H   0  0  0  0  0  0  0  0  0  0  0  0
   62.6987   31.4170   51.0913 H   0  0  0  0  0  0  0  0  0  0  0  0
  1  2  1  0
  2  3  2  0
  3  4  1  0
  4  5  2  0
  5  6  1  0
  6  7  1  0
  7  8  2  0
  7  9  1  0
  9 10  1  0
 10 11  1  0
 11 12  1  0
 12 13  1  0
 13 14  1  0
 14 15  1  0
 15 16  2  0
 16 17  1  0
 17 18  1  0
 18 19  1  0
 18 20  2  0
 13 21  1  0
 21 22  1  0
  6 23  2  0
 23  2  1  0
 22  9  1  0
 20 15  1  0
  1 24  1  0
  1 25  1  0
  1 26  1  0
  3 27  1  0
  4 28  1  0
  5 29  1  0
 10 30  1  0
 10 31  1  0
 11 32  1  0
 11 33  1  0
 12 34  1  0
 12 35  1  0
 14 36  1  0
 14 37  1  0
 19 38  1  0
 19 39  1  0
 19 40  1  0
 20 41  1  0
 21 42  1  0
 21 43  1  0
 22 44  1  0
 22 45  1  0
 23 46  1  0
M  CHG  1  20   1
M  END
>  <UniqueID>  (36) 
32

>  <SMILES>  (36) 
Cc1cccc(C(=O)N2CCCN(Cc3noc(C)[nH+]3)CC2)c1

>  <Energy>  (36) 
100.97846045626679

>  <Genealogy>  (36) 
Cc1cccc(C(=O)N2CCCN(Cc3noc(C)[nH+]3)CC2)c1 (protonated)
Cc1cccc(C(=O)N2CCCN(Cc3noc(C)[nH+]3)CC2)c1 (3D coordinates assigned)
Cc1cccc(C(=O)N2CCCN(Cc3noc(C)[nH+]3)CC2)c1 (nonaromatic ring conformer: 100.97846045626679 kcal/mol)

>  <smiles>  (36) 
Cc1cccc(C(=O)N2CCCN(Cc3noc(C)n3)CC2)c1

>  <score_type>  (36) 
oracle

>  <origin>  (36) 
adg

>  <m_score__min__energy>  (36) 
-4.4699999999999998

>  <m_primary>  (36) 
energy

$$$$
36:0
     RDKit          3D

 48 49  0  0  0  0  0  0  0  0999 V2000
   53.1285   25.2281   45.4606 H   0  0  0  0  0  0  0  0  0  0  0  0
   54.2160   25.1980   45.6230 C   0  0  0  0  0  0  0  0  0  0  0  0
   54.8870   26.3390   45.9260 N   0  0  0  0  0  0  0  0  0  0  0  0
   56.2330   26.3450   46.1330 C   0  0  0  0  0  0  0  0  0  0  0  0
   56.9120   27.5600   46.4610 N   0  0  0  0  0  0  0  0  0  0  0  0
   58.2800   28.1360   45.5700 S   0  0  0  0  0  0  0  0  0  0  0  0
   59.4830   27.3040   45.9130 O   0  0  0  0  0  0  0  0  0  0  0  0
   57.9940   28.0010   44.1000 O   0  0  0  0  0  0  0  0  0  0  0  0
   58.6080   29.8200   45.9950 C   0  0  0  0  0  0  0  0  0  0  0  0
   59.7620   30.1430   46.7190 C   0  0  0  0  0  0  0  0  0  0  0  0
   60.4478   29.3430   47.0347 H   0  0  0  0  0  0  0  0  0  0  0  0
   60.0540   31.4790   47.0470 C   0  0  0  0  0  0  0  0  0  0  0  0
   61.2030   31.8360   47.7680 O   0  0  0  0  0  0  0  0  0  0  0  0
   62.3170   32.5360   47.2200 C   0  0  0  0  0  0  0  0  0  0  0  0
   62.9412   32.9282   48.0364 H   0  0  0  0  0  0  0  0  0  0  0  0
   62.9126   31.8495   46.6003 H   0  0  0  0  0  0  0  0  0  0  0  0
   61.9569   33.3705   46.6003 H   0  0  0  0  0  0  0  0  0  0  0  0
   59.1770   32.4980   46.6470 C   0  0  0  0  0  0  0  0  0  0  0  0
   59.4970   33.8220   46.9890 O   0  0  0  0  0  0  0  0  0  0  0  0
   59.5780   34.8990   46.0620 C   0  0  0  0  0  0  0  0  0  0  0  0
   59.6495   35.8500   46.6102 H   0  0  0  0  0  0  0  0  0  0  0  0
   60.4692   34.7723   45.4297 H   0  0  0  0  0  0  0  0  0  0  0  0
   58.6779   34.9070   45.4297 H   0  0  0  0  0  0  0  0  0  0  0  0
   58.0150   32.1720   45.9220 C   0  0  0  0  0  0  0  0  0  0  0  0
   57.3272   32.9712   45.6087 H   0  0  0  0  0  0  0  0  0  0  0  0
   57.7240   30.8360   45.5940 C   0  0  0  0  0  0  0  0  0  0  0  0
   56.5710   30.4840   44.8700 O   0  0  0  0  0  0  0  0  0  0  0  0
   56.4880   30.4370   43.4500 C   0  0  0  0  0  0  0  0  0  0  0  0
   55.5662   29.9150   43.1537 H   0  0  0  0  0  0  0  0  0  0  0  0
   56.4743   31.4614   43.0494 H   0  0  0  0  0  0  0  0  0  0  0  0
   57.3594   29.8983   43.0494 H   0  0  0  0  0  0  0  0  0  0  0  0
   56.9580   25.1540   46.0330 C   0  0  0  0  0  0  0  0  0  0  0  0
   58.0457   25.1552   46.1973 H   0  0  0  0  0  0  0  0  0  0  0  0
   56.2960   23.9590   45.7230 C   0  0  0  0  0  0  0  0  0  0  0  0
   56.9940   22.8610   45.6400 N   0  0  0  0  0  0  0  0  0  0  0  0
   57.8660   22.4760   44.5320 C   0  0  0  0  0  0  0  0  0  0  0  0
   58.3825   21.5380   44.7836 H   0  0  0  0  0  0  0  0  0  0  0  0
   58.6043   23.2729   44.3591 H   0  0  0  0  0  0  0  0  0  0  0  0
   57.0390   22.2740   43.2640 C   0  0  0  0  0  0  0  0  0  0  0  0
   57.6566   21.7690   42.5067 H   0  0  0  0  0  0  0  0  0  0  0  0
   56.7111   23.2571   42.8953 H   0  0  0  0  0  0  0  0  0  0  0  0
   55.8950   21.4840   43.5330 O   0  0  0  0  0  0  0  0  0  0  0  0
   56.2570   20.3160   44.2370 C   0  0  0  0  0  0  0  0  0  0  0  0
   56.1979   20.5067   45.3187 H   0  0  0  0  0  0  0  0  0  0  0  0
   55.5698   19.4995   43.9706 H   0  0  0  0  0  0  0  0  0  0  0  0
   57.2856   20.0312   43.9706 H   0  0  0  0  0  0  0  0  0  0  0  0
   54.9020   23.9870   45.5170 C   0  0  0  0  0  0  0  0  0  0  0  0
   54.3588   23.0617   45.2746 H   0  0  0  0  0  0  0  0  0  0  0  0
  1  2  1  0
  2  3  1  0
  3  4  1  0
  4  5  1  0
  5  6  1  0
  6  7  2  0
  6  8  2  0
  6  9  1  0
  9 10  2  0
 10 11  1  0
 10 12  1  0
 12 13  1  0
 13 14  1  0
 14 15  1  0
 14 16  1  0
 14 17  1  0
 12 18  2  0
 18 19  1  0
 19 20  1  0
 20 21  1  0
 20 22  1  0
 20 23  1  0
 18 24  1  0
 24 25  1  0
 24 26  2  0
 26 27  1  0
 27 28  1  0
 28 29  1  0
 28 30  1  0
 28 31  1  0
  4 32  2  0
 32 33  1  0
 32 34  1  0
 34 35  2  0
 35 36  1  0
 36 37  1  0
 36 38  1  0
 36 39  1  0
 39 40  1  0
 39 41  1  0
 39 42  1  0
 42 43  1  0
 43 44  1  0
 43 45  1  0
 43 46  1  0
 34 47  1  0
 47 48  1  0
 47  2  2  0
 26  9  1  0
M  CHG  2   3  -1   5  -1
M  END
>  <UniqueID>  (37) 
33

>  <SMILES>  (37) 
COCC/N=c1\cc[n-]c([N-]S(=O)(=O)c2cc(OC)c(OC)cc2OC)c1

>  <Energy>  (37) 
49.80914727534086

>  <Genealogy>  (37) 
COCCN=c1cc[n-]c([N-]S(=O)(=O)c2cc(OC)c(OC)cc2OC)c1 (protonated)
COCC/N=c1\cc[n-]c([N-]S(=O)(=O)c2cc(OC)c(OC)cc2OC)c1 (cis-trans isomerization)
COCC/N=c1\cc[n-]c([N-]S(=O)(=O)c2cc(OC)c(OC)cc2OC)c1 (3D coordinates assigned)
COCC/N=c1\cc[n-]c([N-]S(=O)(=O)c2cc(OC)c(OC)cc2OC)c1 (optimized conformer: 49.80914727534086 kcal/mol)

>  <smiles>  (37) 
COCCN=c1cc[nH]c(NS(=O)(=O)c2cc(OC)c(OC)cc2OC)c1

>  <score_type>  (37) 
oracle

>  <origin>  (37) 
adg

>  <m_score__min__energy>  (37) 
-10.92

>  <m_primary>  (37) 
energy

$$$$
37:0
     RDKit          3D

 34 35  0  0  0  0  0  0  0  0999 V2000
   59.4510   34.8640   47.6670 C   0  0  0  0  0  0  0  0  0  0  0  0
   59.3480   35.0970   46.1900 C   0  0  0  0  0  0  0  0  0  0  0  0
   60.0040   36.0400   45.6750 O   0  0  0  0  0  0  0  0  0  0  0  0
   58.5550   34.2560   45.3400 N   0  0  0  0  0  0  0  0  0  0  0  0
   58.3980   32.8350   45.4540 C   0  0  0  0  0  0  0  0  0  0  0  0
   57.4550   32.1390   44.6870 C   0  0  0  0  0  0  0  0  0  0  0  0
   57.3350   30.7550   44.8090 C   0  0  0  0  0  0  0  0  0  0  0  0
   58.1580   30.0420   45.6980 C   0  0  0  0  0  0  0  0  0  0  0  0
   58.0250   28.6170   45.8350 N   0  0  0  0  0  0  0  0  0  0  0  0
   56.8340   27.8520   45.5950 C   0  0  0  0  0  0  0  0  0  0  0  0
   55.7890   28.4600   45.2440 O   0  0  0  0  0  0  0  0  0  0  0  0
   56.8230   26.3710   45.6880 C   0  0  0  0  0  0  0  0  0  0  0  0
   58.0270   25.6510   45.5740 C   0  0  0  0  0  0  0  0  0  0  0  0
   58.0310   24.2560   45.6690 C   0  0  0  0  0  0  0  0  0  0  0  0
   59.5420   23.3730   45.5450 Cl  0  0  0  0  0  0  0  0  0  0  0  0
   56.8320   23.5650   45.8620 C   0  0  0  0  0  0  0  0  0  0  0  0
   55.6290   24.2670   45.9590 C   0  0  0  0  0  0  0  0  0  0  0  0
   55.6170   25.6640   45.8740 C   0  0  0  0  0  0  0  0  0  0  0  0
   54.4070   26.3380   45.9940 O   0  0  0  0  0  0  0  0  0  0  0  0
   59.1550   30.7270   46.4260 C   0  0  0  0  0  0  0  0  0  0  0  0
   60.0710   29.9680   47.3620 C   0  0  0  0  0  0  0  0  0  0  0  0
   60.7040   28.9540   46.6650 F   0  0  0  0  0  0  0  0  0  0  0  0
   61.0260   30.8270   47.8750 F   0  0  0  0  0  0  0  0  0  0  0  0
   59.3780   29.4050   48.4190 F   0  0  0  0  0  0  0  0  0  0  0  0
   59.2630   32.1250   46.2930 C   0  0  0  0  0  0  0  0  0  0  0  0
   59.0630   35.7417   48.2046 H   0  0  0  0  0  0  0  0  0  0  0  0
   58.8613   33.9765   47.9402 H   0  0  0  0  0  0  0  0  0  0  0  0
   60.5043   34.7028   47.9402 H   0  0  0  0  0  0  0  0  0  0  0  0
   56.8070   32.6858   43.9862 H   0  0  0  0  0  0  0  0  0  0  0  0
   56.5901   30.2167   44.2045 H   0  0  0  0  0  0  0  0  0  0  0  0
   58.9718   26.1897   45.4090 H   0  0  0  0  0  0  0  0  0  0  0  0
   56.8359   22.4676   45.9375 H   0  0  0  0  0  0  0  0  0  0  0  0
   54.6859   23.7194   46.1029 H   0  0  0  0  0  0  0  0  0  0  0  0
   60.0378   32.6656   46.8564 H   0  0  0  0  0  0  0  0  0  0  0  0
  1  2  1  0
  2  3  2  0
  2  4  1  0
  4  5  1  0
  5  6  2  0
  6  7  1  0
  7  8  2  0
  8  9  1  0
  9 10  1  0
 10 11  2  0
 10 12  1  0
 12 13  2  0
 13 14  1  0
 14 15  1  0
 14 16  2  0
 16 17  1  0
 17 18  2  0
 18 19  1  0
  8 20  1  0
 20 21  1  0
 21 22  1  0
 21 23  1  0
 21 24  1  0
 20 25  2  0
 25  5  1  0
 18 12  1  0
  1 26  1  0
  1 27  1  0
  1 28  1  0
  6 29  1  0
  7 30  1  0
 13 31  1  0
 16 32  1  0
 17 33  1  0
 25 34  1  0
M  CHG  3   4  -1   9  -1  19  -1
M  END
>  <UniqueID>  (38) 
34

>  <SMILES>  (38) 
CC(=O)[N-]c1ccc([N-]C(=O)c2cc(Cl)ccc2[O-])c(C(F)(F)F)c1

>  <Energy>  (38) 
47.08361773072264

>  <Genealogy>  (38) 
CC(=O)[N-]c1ccc([N-]C(=O)c2cc(Cl)ccc2[O-])c(C(F)(F)F)c1 (protonated)
CC(=O)[N-]c1ccc([N-]C(=O)c2cc(Cl)ccc2[O-])c(C(F)(F)F)c1 (3D coordinates assigned)
CC(=O)[N-]c1ccc([N-]C(=O)c2cc(Cl)ccc2[O-])c(C(F)(F)F)c1 (optimized conformer: 47.08361773072264 kcal/mol)

>  <smiles>  (38) 
CC(=O)Nc1ccc(NC(=O)c2cc(Cl)ccc2O)c(C(F)(F)F)c1

>  <score_type>  (38) 
oracle

>  <origin>  (38) 
adg

>  <m_score__min__energy>  (38) 
-13.07

>  <m_primary>  (38) 
energy

$$$$
38:0
     RDKit          3D

 39 40  0  0  0  0  0  0  0  0999 V2000
   56.2177   30.3247   42.3073 H   0  0  0  0  0  0  0  0  0  0  0  0
   56.7390   30.3670   43.2750 C   0  0  0  0  0  0  0  0  0  0  0  0
   56.3890   29.3480   44.2850 C   0  0  0  0  0  0  0  0  0  0  0  0
   55.2540   29.4080   44.8320 O   0  0  0  0  0  0  0  0  0  0  0  0
   57.3300   28.3240   44.6860 N   0  0  0  0  0  0  0  0  0  0  0  0
   57.3120   27.7450   46.0380 C   0  0  0  0  0  0  0  0  0  0  0  0
   58.3335   27.4459   46.3155 H   0  0  0  0  0  0  0  0  0  0  0  0
   56.9296   28.5011   46.7395 H   0  0  0  0  0  0  0  0  0  0  0  0
   56.4130   26.5390   46.0930 C   0  0  0  0  0  0  0  0  0  0  0  0
   55.1650   26.6920   46.0080 O   0  0  0  0  0  0  0  0  0  0  0  0
   56.9310   25.2160   46.2790 N   0  0  0  0  0  0  0  0  0  0  0  0
   56.9230   24.1510   45.3160 C   0  0  0  0  0  0  0  0  0  0  0  0
   57.9610   23.2040   45.2560 C   0  0  0  0  0  0  0  0  0  0  0  0
   58.7840   23.2455   45.9847 H   0  0  0  0  0  0  0  0  0  0  0  0
   57.9500   22.2090   44.2720 C   0  0  0  0  0  0  0  0  0  0  0  0
   58.7564   21.4616   44.2372 H   0  0  0  0  0  0  0  0  0  0  0  0
   56.9150   22.1640   43.3330 C   0  0  0  0  0  0  0  0  0  0  0  0
   56.9110   21.2060   42.3720 F   0  0  0  0  0  0  0  0  0  0  0  0
   55.8940   23.1190   43.3730 C   0  0  0  0  0  0  0  0  0  0  0  0
   55.0832   23.0880   42.6303 H   0  0  0  0  0  0  0  0  0  0  0  0
   55.9030   24.1130   44.3560 C   0  0  0  0  0  0  0  0  0  0  0  0
   55.1048   24.8696   44.3759 H   0  0  0  0  0  0  0  0  0  0  0  0
   58.4020   27.9200   43.7640 C   0  0  0  0  0  0  0  0  0  0  0  0
   59.2470   27.5209   44.3442 H   0  0  0  0  0  0  0  0  0  0  0  0
   58.7214   28.7981   43.1835 H   0  0  0  0  0  0  0  0  0  0  0  0
   57.9030   26.8470   42.8010 C   0  0  0  0  0  0  0  0  0  0  0  0
   57.5070   25.9956   43.3740 H   0  0  0  0  0  0  0  0  0  0  0  0
   57.1067   27.2646   42.1674 H   0  0  0  0  0  0  0  0  0  0  0  0
   58.7355   26.5072   42.1674 H   0  0  0  0  0  0  0  0  0  0  0  0
   57.6460   31.3410   43.4500 C   0  0  0  0  0  0  0  0  0  0  0  0
   58.3349   31.5349   42.6146 H   0  0  0  0  0  0  0  0  0  0  0  0
   57.8080   32.1790   44.6590 C   0  0  0  0  0  0  0  0  0  0  0  0
   57.4290   33.8130   44.8440 S   0  0  0  0  0  0  0  0  0  0  0  0
   58.0360   33.9790   46.4040 C   0  0  0  0  0  0  0  0  0  0  0  0
   58.0174   34.8968   47.0100 H   0  0  0  0  0  0  0  0  0  0  0  0
   58.5640   32.7570   46.7930 C   0  0  0  0  0  0  0  0  0  0  0  0
   59.0278   32.5872   47.7759 H   0  0  0  0  0  0  0  0  0  0  0  0
   58.4510   31.7590   45.8160 C   0  0  0  0  0  0  0  0  0  0  0  0
   58.8359   30.7376   45.9528 H   0  0  0  0  0  0  0  0  0  0  0  0
  1  2  1  0
  2  3  1  0
  3  4  2  0
  3  5  1  0
  5  6  1  0
  6  7  1  0
  6  8  1  0
  6  9  1  0
  9 10  2  0
  9 11  1  0
 11 12  1  0
 12 13  2  0
 13 14  1  0
 13 15  1  0
 15 16  1  0
 15 17  2  0
 17 18  1  0
 17 19  1  0
 19 20  1  0
 19 21  2  0
 21 22  1  0
  5 23  1  0
 23 24  1  0
 23 25  1  0
 23 26  1  0
 26 27  1  0
 26 28  1  0
 26 29  1  0
  2 30  2  0
 30 31  1  0
 30 32  1  0
 32 33  1  0
 33 34  1  0
 34 35  1  0
 34 36  2  0
 36 37  1  0
 36 38  1  0
 38 39  1  0
 21 12  1  0
 38 32  2  0
M  CHG  1  11  -1
M  END
>  <UniqueID>  (39) 
35

>  <SMILES>  (39) 
CCN(CC(=O)[N-]c1ccc(F)cc1)C(=O)/C=C\c1cccs1

>  <Energy>  (39) 
73.50370165846333

>  <Genealogy>  (39) 
CCN(CC(=O)[N-]c1ccc(F)cc1)C(=O)C=Cc1cccs1 (protonated)
CCN(CC(=O)[N-]c1ccc(F)cc1)C(=O)/C=C\c1cccs1 (cis-trans isomerization)
CCN(CC(=O)[N-]c1ccc(F)cc1)C(=O)/C=C\c1cccs1 (3D coordinates assigned)
CCN(CC(=O)[N-]c1ccc(F)cc1)C(=O)/C=C\c1cccs1 (optimized conformer: 73.50370165846333 kcal/mol)

>  <smiles>  (39) 
CCN(CC(=O)Nc1ccc(F)cc1)C(=O)C=Cc1cccs1

>  <score_type>  (39) 
oracle

>  <origin>  (39) 
adg

>  <m_score__min__energy>  (39) 
-9.5199999999999996

>  <m_primary>  (39) 
energy

$$$$
39:0
     RDKit          3D

 45 48  0  0  0  0  0  0  0  0999 V2000
   54.9620   26.3070   45.9920 O   0  0  0  0  0  0  0  0  0  0  0  0
   56.1740   26.2170   46.3270 C   0  0  0  0  0  0  0  0  0  0  0  0
   56.6160   25.0580   46.9560 O   0  0  0  0  0  0  0  0  0  0  0  0
   57.1130   27.3250   46.0550 C   0  0  0  0  0  0  0  0  0  0  0  0
   57.3640   27.7380   44.7220 C   0  0  0  0  0  0  0  0  0  0  0  0
   58.2530   28.7920   44.4570 C   0  0  0  0  0  0  0  0  0  0  0  0
   58.8790   29.4140   45.5330 C   0  0  0  0  0  0  0  0  0  0  0  0
   58.6500   29.0290   46.8170 C   0  0  0  0  0  0  0  0  0  0  0  0
   57.7690   27.9890   47.1170 C   0  0  0  0  0  0  0  0  0  0  0  0
   59.4290   29.8830   47.7500 C   0  0  0  0  0  0  0  0  0  0  0  0
   60.2440   30.8140   46.7790 C   0  0  2  0  0  0  0  0  0  0  0  0
   61.7600   30.5200   46.8300 C   0  0  0  0  0  0  0  0  0  0  0  0
   62.3780   31.1450   47.9560 O   0  0  0  0  0  0  0  0  0  0  0  0
   63.3220   32.1750   47.8700 C   0  0  0  0  0  0  0  0  0  0  0  0
   63.7970   32.5110   46.7500 O   0  0  0  0  0  0  0  0  0  0  0  0
   63.7550   32.8730   49.0990 C   0  0  0  0  0  0  0  0  0  0  0  0
   62.8670   33.7040   49.8070 C   0  0  0  0  0  0  0  0  0  0  0  0
   63.2880   34.3680   50.9630 C   0  0  0  0  0  0  0  0  0  0  0  0
   64.5970   34.2110   51.4240 C   0  0  0  0  0  0  0  0  0  0  0  0
   65.4880   33.3900   50.7290 C   0  0  0  0  0  0  0  0  0  0  0  0
   65.0720   32.7240   49.5720 C   0  0  0  0  0  0  0  0  0  0  0  0
   59.9880   32.2970   47.0450 C   0  0  0  0  0  0  0  0  0  0  0  0
   59.9730   33.2280   45.9860 C   0  0  0  0  0  0  0  0  0  0  0  0
   59.7880   34.5910   46.2380 C   0  0  0  0  0  0  0  0  0  0  0  0
   59.6360   35.0470   47.5480 C   0  0  0  0  0  0  0  0  0  0  0  0
   59.6750   34.1430   48.6110 C   0  0  0  0  0  0  0  0  0  0  0  0
   59.8560   32.7790   48.3640 C   0  0  0  0  0  0  0  0  0  0  0  0
   59.7750   30.4580   45.4720 O   0  0  0  0  0  0  0  0  0  0  0  0
   56.8581   27.2285   43.8886 H   0  0  0  0  0  0  0  0  0  0  0  0
   58.4497   29.1178   43.4249 H   0  0  0  0  0  0  0  0  0  0  0  0
   57.5883   27.6914   48.1604 H   0  0  0  0  0  0  0  0  0  0  0  0
   58.7624   30.4726   48.3966 H   0  0  0  0  0  0  0  0  0  0  0  0
   60.0673   29.3064   48.4357 H   0  0  0  0  0  0  0  0  0  0  0  0
   61.9109   29.4325   46.8977 H   0  0  0  0  0  0  0  0  0  0  0  0
   62.2203   30.9237   45.9161 H   0  0  0  0  0  0  0  0  0  0  0  0
   61.8349   33.8319   49.4485 H   0  0  0  0  0  0  0  0  0  0  0  0
   62.5870   35.0153   51.5105 H   0  0  0  0  0  0  0  0  0  0  0  0
   64.9262   34.7338   52.3341 H   0  0  0  0  0  0  0  0  0  0  0  0
   66.5189   33.2671   51.0925 H   0  0  0  0  0  0  0  0  0  0  0  0
   65.7785   32.0797   49.0282 H   0  0  0  0  0  0  0  0  0  0  0  0
   60.1081   32.8787   44.9517 H   0  0  0  0  0  0  0  0  0  0  0  0
   59.7622   35.3052   45.4018 H   0  0  0  0  0  0  0  0  0  0  0  0
   59.4854   36.1190   47.7431 H   0  0  0  0  0  0  0  0  0  0  0  0
   59.5632   34.5043   49.6439 H   0  0  0  0  0  0  0  0  0  0  0  0
   59.8959   32.0740   49.2074 H   0  0  0  0  0  0  0  0  0  0  0  0
  1  2  2  0
  2  3  1  0
  2  4  1  0
  4  5  2  0
  5  6  1  0
  6  7  2  0
  7  8  1  0
  8  9  2  0
  8 10  1  0
 10 11  1  0
 11 12  1  6
 12 13  1  0
 13 14  1  0
 14 15  2  0
 14 16  1  0
 16 17  2  0
 17 18  1  0
 18 19  2  0
 19 20  1  0
 20 21  2  0
 11 22  1  0
 22 23  2  0
 23 24  1  0
 24 25  2  0
 25 26  1  0
 26 27  2  0
 11 28  1  0
  9  4  1  0
 21 16  1  0
 27 22  1  0
 28  7  1  0
  5 29  1  0
  6 30  1  0
  9 31  1  0
 10 32  1  0
 10 33  1  0
 12 34  1  0
 12 35  1  0
 17 36  1  0
 18 37  1  0
 19 38  1  0
 20 39  1  0
 21 40  1  0
 23 41  1  0
 24 42  1  0
 25 43  1  0
 26 44  1  0
 27 45  1  0
M  CHG  1   3  -1
M  END
>  <UniqueID>  (40) 
36

>  <SMILES>  (40) 
O=C([O-])c1ccc2c(c1)C[C@](COC(=O)c1ccccc1)(c1ccccc1)O2

>  <Energy>  (40) 
68.61879725952429

>  <Genealogy>  (40) 
O=C([O-])c1ccc2c(c1)CC(COC(=O)c1ccccc1)(c1ccccc1)O2 (protonated)
O=C([O-])c1ccc2c(c1)C[C@](COC(=O)c1ccccc1)(c1ccccc1)O2 (chirality)
O=C([O-])c1ccc2c(c1)C[C@](COC(=O)c1ccccc1)(c1ccccc1)O2 (3D coordinates assigned)
O=C([O-])c1ccc2c(c1)C[C@](COC(=O)c1ccccc1)(c1ccccc1)O2 (nonaromatic ring conformer: 68.61879725952429 kcal/mol)

>  <smiles>  (40) 
O=C(O)c1ccc2c(c1)CC(COC(=O)c1ccccc1)(c1ccccc1)O2

>  <score_type>  (40) 
oracle

>  <origin>  (40) 
adg

>  <m_score__min__energy>  (40) 
-10.460000000000001

>  <m_primary>  (40) 
energy

$$$$
40:0
     RDKit          3D

 26 27  0  0  0  0  0  0  0  0999 V2000
   55.4330   29.0800   44.8750 O   0  0  0  0  0  0  0  0  0  0  0  0
   56.5930   29.9040   44.3900 S   0  0  0  0  0  0  0  0  0  0  0  0
   56.7100   29.7570   42.8990 O   0  0  0  0  0  0  0  0  0  0  0  0
   56.3030   31.5700   44.7740 N   0  0  0  0  0  0  0  0  0  0  0  0
   57.3100   32.5260   45.1360 C   0  0  0  0  0  0  0  0  0  0  0  0
   57.4070   33.0430   46.4430 C   0  0  0  0  0  0  0  0  0  0  0  0
   58.3940   33.9800   46.7600 C   0  0  0  0  0  0  0  0  0  0  0  0
   59.2940   34.4080   45.7830 C   0  0  0  0  0  0  0  0  0  0  0  0
   59.2090   33.9000   44.4850 C   0  0  0  0  0  0  0  0  0  0  0  0
   58.2230   32.9620   44.1580 C   0  0  0  0  0  0  0  0  0  0  0  0
   58.1420   32.3460   42.5140 Cl  0  0  0  0  0  0  0  0  0  0  0  0
   58.0600   29.3450   45.1870 C   0  0  0  0  0  0  0  0  0  0  0  0
   59.0380   28.6510   44.4600 C   0  0  0  0  0  0  0  0  0  0  0  0
   60.2080   28.2180   45.0940 C   0  0  0  0  0  0  0  0  0  0  0  0
   60.4030   28.4730   46.4560 C   0  0  0  0  0  0  0  0  0  0  0  0
   59.4270   29.1610   47.1850 C   0  0  0  0  0  0  0  0  0  0  0  0
   59.6720   29.4810   48.8920 Cl  0  0  0  0  0  0  0  0  0  0  0  0
   58.2560   29.5940   46.5530 C   0  0  0  0  0  0  0  0  0  0  0  0
   56.7021   32.7073   47.2179 H   0  0  0  0  0  0  0  0  0  0  0  0
   58.4618   34.3812   47.7820 H   0  0  0  0  0  0  0  0  0  0  0  0
   60.0702   35.1454   46.0354 H   0  0  0  0  0  0  0  0  0  0  0  0
   59.9197   34.2383   43.7166 H   0  0  0  0  0  0  0  0  0  0  0  0
   58.8852   28.4467   43.3900 H   0  0  0  0  0  0  0  0  0  0  0  0
   60.9752   27.6766   44.5211 H   0  0  0  0  0  0  0  0  0  0  0  0
   61.3233   28.1327   46.9533 H   0  0  0  0  0  0  0  0  0  0  0  0
   57.4877   30.1308   47.1289 H   0  0  0  0  0  0  0  0  0  0  0  0
  1  2  2  0
  2  3  2  0
  2  4  1  0
  4  5  1  0
  5  6  2  0
  6  7  1  0
  7  8  2  0
  8  9  1  0
  9 10  2  0
 10 11  1  0
  2 12  1  0
 12 13  2  0
 13 14  1  0
 14 15  2  0
 15 16  1  0
 16 17  1  0
 16 18  2  0
 10  5  1  0
 18 12  1  0
  6 19  1  0
  7 20  1  0
  8 21  1  0
  9 22  1  0
 13 23  1  0
 14 24  1  0
 15 25  1  0
 18 26  1  0
M  CHG  1   4  -1
M  END
>  <UniqueID>  (41) 
37

>  <SMILES>  (41) 
O=S(=O)([N-]c1ccccc1Cl)c1cccc(Cl)c1

>  <Energy>  (41) 
30.089238508744955

>  <Genealogy>  (41) 
O=S(=O)([N-]c1ccccc1Cl)c1cccc(Cl)c1 (protonated)
O=S(=O)([N-]c1ccccc1Cl)c1cccc(Cl)c1 (3D coordinates assigned)
O=S(=O)([N-]c1ccccc1Cl)c1cccc(Cl)c1 (optimized conformer: 30.089238508744955 kcal/mol)

>  <smiles>  (41) 
O=S(=O)(Nc1ccccc1Cl)c1cccc(Cl)c1

>  <score_type>  (41) 
oracle

>  <origin>  (41) 
adg

>  <m_score__min__energy>  (41) 
-9.0899999999999999

>  <m_primary>  (41) 
energy

$$$$
41:0
     RDKit          3D

 28 29  0  0  0  0  0  0  0  0999 V2000
   58.0626   34.2438   47.6568 H   0  0  0  0  0  0  0  0  0  0  0  0
   58.0910   33.8450   46.6320 C   0  0  0  0  0  0  0  0  0  0  0  0
   57.2410   32.8550   46.2650 N   0  0  0  0  0  0  0  0  0  0  0  0
   57.2130   32.3100   45.0170 C   0  0  0  0  0  0  0  0  0  0  0  0
   56.3560   31.3360   44.8450 N   0  0  0  0  0  0  0  0  0  0  0  0
   56.4260   29.7470   44.1380 S   0  0  0  0  0  0  0  0  0  0  0  0
   55.1570   29.0300   44.5000 O   0  0  0  0  0  0  0  0  0  0  0  0
   56.4980   29.8350   42.6410 O   0  0  0  0  0  0  0  0  0  0  0  0
   57.7610   28.8090   44.8010 C   0  0  0  0  0  0  0  0  0  0  0  0
   57.5100   27.6420   45.5380 C   0  0  0  0  0  0  0  0  0  0  0  0
   56.4749   27.3066   45.6995 H   0  0  0  0  0  0  0  0  0  0  0  0
   58.5740   26.9040   46.0680 C   0  0  0  0  0  0  0  0  0  0  0  0
   58.3742   25.9916   46.6490 H   0  0  0  0  0  0  0  0  0  0  0  0
   59.8910   27.3250   45.8600 C   0  0  0  0  0  0  0  0  0  0  0  0
   60.9200   26.6080   46.3740 F   0  0  0  0  0  0  0  0  0  0  0  0
   60.1460   28.4820   45.1190 C   0  0  0  0  0  0  0  0  0  0  0  0
   61.1825   28.8105   44.9522 H   0  0  0  0  0  0  0  0  0  0  0  0
   59.0840   29.2230   44.5890 C   0  0  0  0  0  0  0  0  0  0  0  0
   59.2873   30.1325   44.0046 H   0  0  0  0  0  0  0  0  0  0  0  0
   58.1160   32.8260   44.0310 C   0  0  0  0  0  0  0  0  0  0  0  0
   58.1360   32.4360   42.5760 C   0  0  0  0  0  0  0  0  0  0  0  0
   58.1922   31.3408   42.4907 H   0  0  0  0  0  0  0  0  0  0  0  0
   57.2183   32.7952   42.0874 H   0  0  0  0  0  0  0  0  0  0  0  0
   59.0122   32.8872   42.0874 H   0  0  0  0  0  0  0  0  0  0  0  0
   59.0040   33.8490   44.4190 C   0  0  0  0  0  0  0  0  0  0  0  0
   59.7155   34.2548   43.6847 H   0  0  0  0  0  0  0  0  0  0  0  0
   58.9960   34.3540   45.7140 C   0  0  0  0  0  0  0  0  0  0  0  0
   59.6992   35.1477   46.0066 H   0  0  0  0  0  0  0  0  0  0  0  0
  1  2  1  0
  2  3  1  0
  3  4  1  0
  4  5  2  0
  5  6  1  0
  6  7  2  0
  6  8  2  0
  6  9  1  0
  9 10  2  0
 10 11  1  0
 10 12  1  0
 12 13  1  0
 12 14  2  0
 14 15  1  0
 14 16  1  0
 16 17  1  0
 16 18  2  0
 18 19  1  0
  4 20  1  0
 20 21  1  0
 21 22  1  0
 21 23  1  0
 21 24  1  0
 20 25  2  0
 25 26  1  0
 25 27  1  0
 27 28  1  0
 27  2  2  0
 18  9  1  0
M  CHG  1   3  -1
M  END
>  <UniqueID>  (42) 
38

>  <SMILES>  (42) 
Cc1ccc[n-]/c1=N/S(=O)(=O)c1ccc(F)cc1

>  <Energy>  (42) 
47.8515505604862

>  <Genealogy>  (42) 
Cc1ccc[n-]c1=NS(=O)(=O)c1ccc(F)cc1 (protonated)
Cc1ccc[n-]/c1=N/S(=O)(=O)c1ccc(F)cc1 (cis-trans isomerization)
Cc1ccc[n-]/c1=N/S(=O)(=O)c1ccc(F)cc1 (3D coordinates assigned)
Cc1ccc[n-]/c1=N/S(=O)(=O)c1ccc(F)cc1 (optimized conformer: 47.8515505604862 kcal/mol)

>  <smiles>  (42) 
Cc1ccc[nH]c1=NS(=O)(=O)c1ccc(F)cc1

>  <score_type>  (42) 
oracle

>  <origin>  (42) 
adg

>  <m_score__min__energy>  (42) 
-8.6999999999999993

>  <m_primary>  (42) 
energy

$$$$
42:0
     RDKit          3D

 38 40  0  0  0  0  0  0  0  0999 V2000
   60.9050   27.8150   45.5340 C   0  0  0  0  0  0  0  0  0  0  0  0
   59.6910   27.1700   46.1310 C   0  0  0  0  0  0  0  0  0  0  0  0
   59.6780   26.5070   47.3430 C   0  0  0  0  0  0  0  0  0  0  0  0
   58.3870   26.0690   47.5360 C   0  0  0  0  0  0  0  0  0  0  0  0
   57.6590   26.4840   46.4350 C   0  0  0  0  0  0  0  0  0  0  0  0
   56.2570   26.2050   46.2540 N   0  0  0  0  0  0  0  0  0  0  0  0
   55.5310   27.0440   45.6840 O   0  0  0  0  0  0  0  0  0  0  0  0
   55.6800   25.0510   46.7270 O   0  0  0  0  0  0  0  0  0  0  0  0
   58.4540   27.1750   45.5760 N   0  0  0  0  0  0  0  0  0  0  0  0
   58.1050   27.7630   44.2760 C   0  0  0  0  0  0  0  0  0  0  0  0
   57.6770   29.1850   44.4530 C   0  0  0  0  0  0  0  0  0  0  0  0
   56.4210   29.6280   44.2490 N   0  0  0  0  0  0  0  0  0  0  0  0
   56.4300   30.9200   44.5330 N   0  0  0  0  0  0  0  0  0  0  0  0
   57.6930   31.2110   44.9050 C   0  0  0  0  0  0  0  0  0  0  0  0
   58.1350   32.5190   45.3020 N   0  0  0  0  0  0  0  0  0  0  0  0
   58.2500   32.8610   46.7260 C   0  0  0  0  0  0  0  0  0  0  0  0
   59.5440   33.6450   46.9830 C   0  0  0  0  0  0  0  0  0  0  0  0
   59.8060   34.7690   45.9540 C   0  0  0  0  0  0  0  0  0  0  0  0
   58.7000   34.9030   44.8990 C   0  0  0  0  0  0  0  0  0  0  0  0
   58.3730   33.5420   44.2750 C   0  0  0  0  0  0  0  0  0  0  0  0
   58.4640   30.1520   44.8590 O   0  0  0  0  0  0  0  0  0  0  0  0
   61.5668   28.1666   46.3392 H   0  0  0  0  0  0  0  0  0  0  0  0
   61.4410   27.0827   44.9123 H   0  0  0  0  0  0  0  0  0  0  0  0
   60.5982   28.6690   44.9123 H   0  0  0  0  0  0  0  0  0  0  0  0
   60.5315   26.3582   48.0208 H   0  0  0  0  0  0  0  0  0  0  0  0
   58.0081   25.4999   48.3977 H   0  0  0  0  0  0  0  0  0  0  0  0
   58.9822   27.7269   43.6132 H   0  0  0  0  0  0  0  0  0  0  0  0
   57.2769   27.1905   43.8327 H   0  0  0  0  0  0  0  0  0  0  0  0
   57.3879   33.4767   47.0220 H   0  0  0  0  0  0  0  0  0  0  0  0
   58.2709   31.9330   47.3162 H   0  0  0  0  0  0  0  0  0  0  0  0
   59.4825   34.0979   47.9835 H   0  0  0  0  0  0  0  0  0  0  0  0
   60.3752   32.9299   46.8957 H   0  0  0  0  0  0  0  0  0  0  0  0
   59.8890   35.7234   46.4945 H   0  0  0  0  0  0  0  0  0  0  0  0
   60.7323   34.5097   45.4205 H   0  0  0  0  0  0  0  0  0  0  0  0
   57.7949   35.3078   45.3753 H   0  0  0  0  0  0  0  0  0  0  0  0
   59.0509   35.5788   44.1052 H   0  0  0  0  0  0  0  0  0  0  0  0
   57.4702   33.6415   43.6544 H   0  0  0  0  0  0  0  0  0  0  0  0
   59.2343   33.2261   43.6681 H   0  0  0  0  0  0  0  0  0  0  0  0
  1  2  1  0
  2  3  2  0
  3  4  1  0
  4  5  2  0
  5  6  1  0
  6  7  2  0
  6  8  1  0
  5  9  1  0
  9 10  1  0
 10 11  1  0
 11 12  2  0
 12 13  1  0
 13 14  2  0
 14 15  1  0
 15 16  1  0
 16 17  1  0
 17 18  1  0
 18 19  1  0
 19 20  1  0
 14 21  1  0
  9  2  1  0
 21 11  1  0
 20 15  1  0
  1 22  1  0
  1 23  1  0
  1 24  1  0
  3 25  1  0
  4 26  1  0
 10 27  1  0
 10 28  1  0
 16 29  1  0
 16 30  1  0
 17 31  1  0
 17 32  1  0
 18 33  1  0
 18 34  1  0
 19 35  1  0
 19 36  1  0
 20 37  1  0
 20 38  1  0
M  CHG  2   6   1   8  -1
M  END
>  <UniqueID>  (43) 
39

>  <SMILES>  (43) 
Cc1ccc([N+](=O)[O-])n1Cc1nnc(N2CCCCC2)o1

>  <Energy>  (43) 
99.99425825348554

>  <Genealogy>  (43) 
Cc1ccc([N+](=O)[O-])n1Cc1nnc(N2CCCCC2)o1 (3D coordinates assigned)
Cc1ccc([N+](=O)[O-])n1Cc1nnc(N2CCCCC2)o1 (nonaromatic ring conformer: 99.99425825348554 kcal/mol)

>  <smiles>  (43) 
Cc1ccc([N+](=O)[O-])n1Cc1nnc(N2CCCCC2)o1

>  <score_type>  (43) 
oracle

>  <origin>  (43) 
adg

>  <m_score__min__energy>  (43) 
-9.1400000000000006

>  <m_primary>  (43) 
energy

$$$$
43:0
     RDKit          3D

 67 69  0  0  0  0  0  0  0  0999 V2000
   56.4700   25.9070   45.9990 C   0  0  0  0  0  0  0  0  0  0  0  0
   57.8530   25.9760   45.3570 C   0  0  0  0  0  0  0  0  0  0  0  0
   58.1930   27.3640   44.9930 N   0  0  0  0  0  0  0  0  0  0  0  0
   57.8490   27.8620   43.6490 C   0  0  0  0  0  0  0  0  0  0  0  0
   58.0900   26.7890   42.5940 C   0  0  0  0  0  0  0  0  0  0  0  0
   58.8500   28.2310   45.9530 C   0  0  0  0  0  0  0  0  0  0  0  0
   60.1340   28.7480   45.6940 C   0  0  0  0  0  0  0  0  0  0  0  0
   60.7540   29.6050   46.6090 C   0  0  0  0  0  0  0  0  0  0  0  0
   60.1020   29.9670   47.7960 C   0  0  0  0  0  0  0  0  0  0  0  0
   60.7560   30.9240   48.7570 C   0  0  0  0  0  0  0  0  0  0  0  0
   60.3540   32.3230   48.4860 N   0  0  0  0  0  0  0  0  0  0  0  0
   60.7580   32.7620   47.1290 C   0  0  0  0  0  0  0  0  0  0  0  0
   59.5850   33.0340   46.2040 C   0  0  0  0  0  0  0  0  0  0  0  0
   59.1890   34.3510   45.9230 C   0  0  0  0  0  0  0  0  0  0  0  0
   58.1010   34.5960   45.0840 C   0  0  0  0  0  0  0  0  0  0  0  0
   57.4010   33.5320   44.5120 C   0  0  0  0  0  0  0  0  0  0  0  0
   57.7860   32.2060   44.7680 C   0  0  0  0  0  0  0  0  0  0  0  0
   57.0660   31.1110   44.1740 N   0  0  0  0  0  0  0  0  0  0  0  0
   56.2800   30.4200   44.8550 O   0  0  0  0  0  0  0  0  0  0  0  0
   57.2270   30.8090   42.8410 O   0  0  0  0  0  0  0  0  0  0  0  0
   58.8870   31.9670   45.6130 C   0  0  0  0  0  0  0  0  0  0  0  0
   58.9180   32.5720   48.7560 C   0  0  0  0  0  0  0  0  0  0  0  0
   58.5920   32.2560   50.1920 C   0  0  0  0  0  0  0  0  0  0  0  0
   59.0520   33.1000   51.2110 C   0  0  0  0  0  0  0  0  0  0  0  0
   58.7360   32.8340   52.5430 C   0  0  0  0  0  0  0  0  0  0  0  0
   57.9530   31.7140   52.8810 C   0  0  0  0  0  0  0  0  0  0  0  0
   57.6140   31.4140   54.2090 O   0  0  0  0  0  0  0  0  0  0  0  0
   58.4760   31.6120   55.3250 C   0  0  0  0  0  0  0  0  0  0  0  0
   57.4970   30.8570   51.8670 C   0  0  0  0  0  0  0  0  0  0  0  0
   56.7440   29.7320   52.2360 O   0  0  0  0  0  0  0  0  0  0  0  0
   55.4180   29.7810   52.7530 C   0  0  0  0  0  0  0  0  0  0  0  0
   57.8070   31.1410   50.5220 C   0  0  0  0  0  0  0  0  0  0  0  0
   58.8270   29.4490   48.0630 C   0  0  0  0  0  0  0  0  0  0  0  0
   58.2100   28.5840   47.1560 C   0  0  0  0  0  0  0  0  0  0  0  0
   56.5734   25.9122   47.0941 H   0  0  0  0  0  0  0  0  0  0  0  0
   55.8752   26.7766   45.6828 H   0  0  0  0  0  0  0  0  0  0  0  0
   55.9647   24.9825   45.6828 H   0  0  0  0  0  0  0  0  0  0  0  0
   58.6005   25.5966   46.0692 H   0  0  0  0  0  0  0  0  0  0  0  0
   57.8486   25.3631   44.4436 H   0  0  0  0  0  0  0  0  0  0  0  0
   56.7879   28.1513   43.6327 H   0  0  0  0  0  0  0  0  0  0  0  0
   58.4868   28.7288   43.4212 H   0  0  0  0  0  0  0  0  0  0  0  0
   58.3053   25.8303   43.0886 H   0  0  0  0  0  0  0  0  0  0  0  0
   57.1930   26.6843   41.9660 H   0  0  0  0  0  0  0  0  0  0  0  0
   58.9456   27.0779   41.9660 H   0  0  0  0  0  0  0  0  0  0  0  0
   60.6540   28.4754   44.7638 H   0  0  0  0  0  0  0  0  0  0  0  0
   61.7593   29.9973   46.3959 H   0  0  0  0  0  0  0  0  0  0  0  0
   60.4598   30.6591   49.7827 H   0  0  0  0  0  0  0  0  0  0  0  0
   61.8463   30.8475   48.6327 H   0  0  0  0  0  0  0  0  0  0  0  0
   61.3479   33.6856   47.2235 H   0  0  0  0  0  0  0  0  0  0  0  0
   61.3369   31.9399   46.6829 H   0  0  0  0  0  0  0  0  0  0  0  0
   59.7390   35.1942   46.3663 H   0  0  0  0  0  0  0  0  0  0  0  0
   57.7939   35.6309   44.8727 H   0  0  0  0  0  0  0  0  0  0  0  0
   56.5415   33.7339   43.8559 H   0  0  0  0  0  0  0  0  0  0  0  0
   59.2044   30.9329   45.8128 H   0  0  0  0  0  0  0  0  0  0  0  0
   58.6896   33.6294   48.5566 H   0  0  0  0  0  0  0  0  0  0  0  0
   58.3143   31.9254   48.1021 H   0  0  0  0  0  0  0  0  0  0  0  0
   59.6658   33.9774   50.9591 H   0  0  0  0  0  0  0  0  0  0  0  0
   59.1012   33.5041   53.3352 H   0  0  0  0  0  0  0  0  0  0  0  0
   57.9058   31.4810   56.2565 H   0  0  0  0  0  0  0  0  0  0  0  0
   59.2951   30.8786   55.2903 H   0  0  0  0  0  0  0  0  0  0  0  0
   58.8930   32.6293   55.2903 H   0  0  0  0  0  0  0  0  0  0  0  0
   55.4528   29.7797   53.8524 H   0  0  0  0  0  0  0  0  0  0  0  0
   54.9216   30.6981   52.4029 H   0  0  0  0  0  0  0  0  0  0  0  0
   54.8553   28.9030   52.4029 H   0  0  0  0  0  0  0  0  0  0  0  0
   57.4306   30.4834   49.7246 H   0  0  0  0  0  0  0  0  0  0  0  0
   58.3088   29.7255   48.9931 H   0  0  0  0  0  0  0  0  0  0  0  0
   57.2147   28.1749   47.3840 H   0  0  0  0  0  0  0  0  0  0  0  0
  1  2  1  0
  2  3  1  0
  3  4  1  0
  4  5  1  0
  3  6  1  0
  6  7  2  0
  7  8  1  0
  8  9  2  0
  9 10  1  0
 10 11  1  0
 11 12  1  0
 12 13  1  0
 13 14  2  0
 14 15  1  0
 15 16  2  0
 16 17  1  0
 17 18  1  0
 18 19  2  0
 18 20  1  0
 17 21  2  0
 11 22  1  0
 22 23  1  0
 23 24  2  0
 24 25  1  0
 25 26  2  0
 26 27  1  0
 27 28  1  0
 26 29  1  0
 29 30  1  0
 30 31  1  0
 29 32  2  0
  9 33  1  0
 33 34  2  0
 34  6  1  0
 21 13  1  0
 32 23  1  0
  1 35  1  0
  1 36  1  0
  1 37  1  0
  2 38  1  0
  2 39  1  0
  4 40  1  0
  4 41  1  0
  5 42  1  0
  5 43  1  0
  5 44  1  0
  7 45  1  0
  8 46  1  0
 10 47  1  0
 10 48  1  0
 12 49  1  0
 12 50  1  0
 14 51  1  0
 15 52  1  0
 16 53  1  0
 21 54  1  0
 22 55  1  0
 22 56  1  0
 24 57  1  0
 25 58  1  0
 28 59  1  0
 28 60  1  0
 28 61  1  0
 31 62  1  0
 31 63  1  0
 31 64  1  0
 32 65  1  0
 33 66  1  0
 34 67  1  0
M  CHG  2  18   1  20  -1
M  END
>  <UniqueID>  (44) 
40

>  <SMILES>  (44) 
CCN(CC)c1ccc(CN(Cc2cccc([N+](=O)[O-])c2)Cc2ccc(OC)c(OC)c2)cc1

>  <Energy>  (44) 
64.7363250959805

>  <Genealogy>  (44) 
CCN(CC)c1ccc(CN(Cc2cccc([N+](=O)[O-])c2)Cc2ccc(OC)c(OC)c2)cc1 (3D coordinates assigned)
CCN(CC)c1ccc(CN(Cc2cccc([N+](=O)[O-])c2)Cc2ccc(OC)c(OC)c2)cc1 (optimized conformer: 64.7363250959805 kcal/mol)

>  <smiles>  (44) 
CCN(CC)c1ccc(CN(Cc2cccc([N+](=O)[O-])c2)Cc2ccc(OC)c(OC)c2)cc1

>  <score_type>  (44) 
oracle

>  <origin>  (44) 
adg

>  <m_score__min__energy>  (44) 
-8.75

>  <m_primary>  (44) 
energy

$$$$
44:0
     RDKit          3D

 30 31  0  0  0  0  0  0  0  0999 V2000
   60.0510   29.2580   45.4960 C   0  0  0  0  0  0  0  0  0  0  0  0
   58.6400   28.8100   45.4190 C   0  0  0  0  0  0  0  0  0  0  0  0
   58.3780   27.5060   45.6200 N   0  0  0  0  0  0  0  0  0  0  0  0
   57.1050   27.0460   45.5610 C   0  0  0  0  0  0  0  0  0  0  0  0
   56.8700   25.7950   45.7540 N   0  0  0  0  0  0  0  0  0  0  0  0
   56.1090   27.9220   45.2960 N   0  0  0  0  0  0  0  0  0  0  0  0
   56.3330   29.2340   45.0910 C   0  0  0  0  0  0  0  0  0  0  0  0
   55.3810   30.0690   44.8390 N   0  0  0  0  0  0  0  0  0  0  0  0
   57.6280   29.7080   45.1500 C   0  0  0  0  0  0  0  0  0  0  0  0
   57.9740   31.1110   44.9420 C   0  0  0  0  0  0  0  0  0  0  0  0
   57.8020   31.6160   43.6660 C   0  0  0  0  0  0  0  0  0  0  0  0
   58.1050   32.9350   43.3780 C   0  0  0  0  0  0  0  0  0  0  0  0
   58.5890   33.7350   44.4150 C   0  0  0  0  0  0  0  0  0  0  0  0
   58.7640   33.2420   45.6870 C   0  0  0  0  0  0  0  0  0  0  0  0
   59.2760   34.0960   46.7760 C   0  0  0  0  0  0  0  0  0  0  0  0
   58.5000   33.9650   47.9150 F   0  0  0  0  0  0  0  0  0  0  0  0
   60.5900   33.7100   47.0190 F   0  0  0  0  0  0  0  0  0  0  0  0
   59.2710   35.4190   46.3850 F   0  0  0  0  0  0  0  0  0  0  0  0
   58.4550   31.9240   45.9480 C   0  0  0  0  0  0  0  0  0  0  0  0
   60.3487   29.3525   46.5507 H   0  0  0  0  0  0  0  0  0  0  0  0
   60.6975   28.5209   44.9972 H   0  0  0  0  0  0  0  0  0  0  0  0
   60.1539   30.2330   44.9972 H   0  0  0  0  0  0  0  0  0  0  0  0
   59.1380   26.8390   45.8200 H   0  0  0  0  0  0  0  0  0  0  0  0
   56.4650   25.2360   44.9490 H   0  0  0  0  0  0  0  0  0  0  0  0
   55.1440   27.5350   45.2590 H   0  0  0  0  0  0  0  0  0  0  0  0
   54.7900   30.4710   45.5960 H   0  0  0  0  0  0  0  0  0  0  0  0
   57.4194   30.9606   42.8698 H   0  0  0  0  0  0  0  0  0  0  0  0
   57.9689   33.3404   42.3645 H   0  0  0  0  0  0  0  0  0  0  0  0
   58.8368   34.7868   44.2093 H   0  0  0  0  0  0  0  0  0  0  0  0
   58.5923   31.5191   46.9615 H   0  0  0  0  0  0  0  0  0  0  0  0
  1  2  1  0
  2  3  1  0
  3  4  1  0
  4  5  2  3
  4  6  1  0
  6  7  1  0
  7  8  2  3
  7  9  1  0
  9 10  1  0
 10 11  2  0
 11 12  1  0
 12 13  2  0
 13 14  1  0
 14 15  1  0
 15 16  1  0
 15 17  1  0
 15 18  1  0
 14 19  2  0
  9  2  2  0
 19 10  1  0
  1 20  1  0
  1 21  1  0
  1 22  1  0
  3 23  1  0
  5 24  1  0
  6 25  1  0
  8 26  1  0
 11 27  1  0
 12 28  1  0
 13 29  1  0
 19 30  1  0
M  END
>  <smiles>  (45) 
Cc1[nH]c(=N)[nH]c(=N)c1-c1cccc(C(F)(F)F)c1

>  <score_type>  (45) 
oracle

>  <origin>  (45) 
adg

>  <m_score__min__energy>  (45) 
-6.4500000000000002

>  <m_primary>  (45) 
energy

$$$$
45:0
     RDKit          3D

 48 50  0  0  0  0  0  0  0  0999 V2000
   62.7186   32.1859   48.5168 H   0  0  0  0  0  0  0  0  0  0  0  0
   61.9460   31.4200   48.3540 C   0  0  0  0  0  0  0  0  0  0  0  0
   61.8450   30.7850   47.1200 C   0  0  0  0  0  0  0  0  0  0  0  0
   62.5371   31.0560   46.3091 H   0  0  0  0  0  0  0  0  0  0  0  0
   60.8720   29.8060   46.9020 C   0  0  0  0  0  0  0  0  0  0  0  0
   60.8110   29.0550   45.3090 Cl  0  0  0  0  0  0  0  0  0  0  0  0
   59.9870   29.4420   47.9430 C   0  0  0  0  0  0  0  0  0  0  0  0
   59.0060   28.2990   47.7700 C   0  0  0  0  0  0  0  0  0  0  0  0
   58.4847   28.1193   48.7218 H   0  0  0  0  0  0  0  0  0  0  0  0
   59.5551   27.3948   47.4685 H   0  0  0  0  0  0  0  0  0  0  0  0
   57.9970   28.6420   46.7060 C   0  0  0  0  0  0  0  0  0  0  0  0
   57.9620   29.9100   46.2170 N   0  0  0  0  0  0  0  0  0  0  0  0
   57.0810   30.2970   45.2550 C   0  0  0  0  0  0  0  0  0  0  0  0
   57.0540   31.5290   44.8270 N   0  0  0  0  0  0  0  0  0  0  0  0
   57.8720   32.6080   45.3030 C   0  0  0  0  0  0  0  0  0  0  0  0
   58.3840   33.5860   44.4310 C   0  0  0  0  0  0  0  0  0  0  0  0
   58.1672   33.5274   43.3542 H   0  0  0  0  0  0  0  0  0  0  0  0
   59.1680   34.6330   44.9280 C   0  0  0  0  0  0  0  0  0  0  0  0
   59.5705   35.3921   44.2412 H   0  0  0  0  0  0  0  0  0  0  0  0
   59.4400   34.7150   46.2960 C   0  0  0  0  0  0  0  0  0  0  0  0
   60.0690   35.5297   46.6841 H   0  0  0  0  0  0  0  0  0  0  0  0
   58.9100   33.7570   47.1750 C   0  0  0  0  0  0  0  0  0  0  0  0
   59.2730   33.8500   48.9290 S   0  0  0  0  0  0  0  0  0  0  0  0
   60.9550   34.5020   48.6710 C   0  0  0  0  0  0  0  0  0  0  0  0
   61.4303   34.6863   49.6457 H   0  0  0  0  0  0  0  0  0  0  0  0
   61.5496   33.7692   48.1058 H   0  0  0  0  0  0  0  0  0  0  0  0
   60.9004   35.4441   48.1058 H   0  0  0  0  0  0  0  0  0  0  0  0
   58.1240   32.7120   46.6770 C   0  0  0  0  0  0  0  0  0  0  0  0
   57.7016   31.9680   47.3684 H   0  0  0  0  0  0  0  0  0  0  0  0
   56.1660   29.3550   44.7580 C   0  0  0  0  0  0  0  0  0  0  0  0
   55.1780   29.7030   43.6880 C   0  0  0  0  0  0  0  0  0  0  0  0
   54.2371   30.0344   44.1515 H   0  0  0  0  0  0  0  0  0  0  0  0
   55.5839   30.5122   43.0632 H   0  0  0  0  0  0  0  0  0  0  0  0
   54.9872   28.8180   43.0632 H   0  0  0  0  0  0  0  0  0  0  0  0
   56.2030   28.0850   45.2390 N   0  0  0  0  0  0  0  0  0  0  0  0
   57.0910   27.6980   46.1970 C   0  0  0  0  0  0  0  0  0  0  0  0
   57.0950   26.3840   46.6700 O   0  0  0  0  0  0  0  0  0  0  0  0
   57.7240   25.3220   45.9620 C   0  0  0  0  0  0  0  0  0  0  0  0
   57.4168   25.3535   44.9062 H   0  0  0  0  0  0  0  0  0  0  0  0
   57.4244   24.3605   46.4044 H   0  0  0  0  0  0  0  0  0  0  0  0
   59.2330   25.4710   46.0540 C   0  0  0  0  0  0  0  0  0  0  0  0
   59.5347   25.5008   47.1114 H   0  0  0  0  0  0  0  0  0  0  0  0
   59.7167   24.6163   45.5586 H   0  0  0  0  0  0  0  0  0  0  0  0
   59.5402   26.4038   45.5586 H   0  0  0  0  0  0  0  0  0  0  0  0
   60.0970   30.1000   49.1920 C   0  0  0  0  0  0  0  0  0  0  0  0
   59.0540   29.7020   50.5550 Cl  0  0  0  0  0  0  0  0  0  0  0  0
   61.0690   31.0860   49.3830 C   0  0  0  0  0  0  0  0  0  0  0  0
   61.1417   31.6014   50.3521 H   0  0  0  0  0  0  0  0  0  0  0  0
  1  2  1  0
  2  3  2  0
  3  4  1  0
  3  5  1  0
  5  6  1  0
  5  7  2  0
  7  8  1  0
  8  9  1  0
  8 10  1  0
  8 11  1  0
 11 12  1  0
 12 13  1  0
 13 14  2  0
 14 15  1  0
 15 16  2  0
 16 17  1  0
 16 18  1  0
 18 19  1  0
 18 20  2  0
 20 21  1  0
 20 22  1  0
 22 23  1  0
 23 24  1  0
 24 25  1  0
 24 26  1  0
 24 27  1  0
 22 28  2  0
 28 29  1  0
 13 30  1  0
 30 31  1  0
 31 32  1  0
 31 33  1  0
 31 34  1  0
 30 35  2  0
 35 36  1  0
 36 37  1  0
 37 38  1  0
 38 39  1  0
 38 40  1  0
 38 41  1  0
 41 42  1  0
 41 43  1  0
 41 44  1  0
  7 45  1  0
 45 46  1  0
 45 47  2  0
 47 48  1  0
 47  2  1  0
 36 11  2  0
 28 15  1  0
M  CHG  1  12  -1
M  END
>  <UniqueID>  (46) 
41

>  <SMILES>  (46) 
CCOc1nc(C)/c(=N/c2cccc(SC)c2)[n-]c1Cc1c(Cl)cccc1Cl

>  <Energy>  (46) 
48.425476035084785

>  <Genealogy>  (46) 
CCOc1nc(C)c(=Nc2cccc(SC)c2)[n-]c1Cc1c(Cl)cccc1Cl (protonated)
CCOc1nc(C)/c(=N/c2cccc(SC)c2)[n-]c1Cc1c(Cl)cccc1Cl (cis-trans isomerization)
CCOc1nc(C)/c(=N/c2cccc(SC)c2)[n-]c1Cc1c(Cl)cccc1Cl (3D coordinates assigned)
CCOc1nc(C)/c(=N/c2cccc(SC)c2)[n-]c1Cc1c(Cl)cccc1Cl (optimized conformer: 48.425476035084785 kcal/mol)

>  <smiles>  (46) 
CCOc1nc(C)c(=Nc2cccc(SC)c2)[nH]c1Cc1c(Cl)cccc1Cl

>  <score_type>  (46) 
oracle

>  <origin>  (46) 
adg

>  <m_score__min__energy>  (46) 
-9.4100000000000001

>  <m_primary>  (46) 
energy

$$$$
46:0
     RDKit          3D

 32 34  0  0  0  0  0  0  0  0999 V2000
   57.7610   27.3900   45.5210 O   0  0  0  0  0  0  0  0  0  0  0  0
   56.5120   27.5370   45.5980 C   0  0  0  0  0  0  0  0  0  0  0  0
   55.6910   26.4880   46.1270 N   0  0  0  0  0  0  0  0  0  0  0  0
   55.8600   25.0800   45.9080 C   0  0  0  0  0  0  0  0  0  0  0  0
   55.9110   24.2310   47.0200 C   0  0  0  0  0  0  0  0  0  0  0  0
   56.0570   22.8500   46.8580 C   0  0  0  0  0  0  0  0  0  0  0  0
   56.1350   22.2980   45.5710 C   0  0  0  0  0  0  0  0  0  0  0  0
   56.2800   20.9170   45.3900 C   0  0  0  0  0  0  0  0  0  0  0  0
   56.3450   20.4000   44.0940 C   0  0  0  0  0  0  0  0  0  0  0  0
   56.2660   21.2310   43.0210 N   0  0  0  0  0  0  0  0  0  0  0  0
   56.1260   22.5750   43.1620 C   0  0  0  0  0  0  0  0  0  0  0  0
   56.0600   23.1440   44.4430 C   0  0  0  0  0  0  0  0  0  0  0  0
   55.9150   24.5290   44.6140 C   0  0  0  0  0  0  0  0  0  0  0  0
   55.9060   28.7880   45.2480 N   0  0  0  0  0  0  0  0  0  0  0  0
   56.5790   29.8440   44.5420 C   0  0  0  0  0  0  0  0  0  0  0  0
   56.3440   30.0810   43.1740 C   0  0  0  0  0  0  0  0  0  0  0  0
   56.9950   31.1310   42.5190 C   0  0  0  0  0  0  0  0  0  0  0  0
   57.8730   31.9600   43.2210 C   0  0  0  0  0  0  0  0  0  0  0  0
   58.5020   32.9790   42.5830 F   0  0  0  0  0  0  0  0  0  0  0  0
   58.0950   31.7460   44.5840 C   0  0  0  0  0  0  0  0  0  0  0  0
   57.4450   30.6980   45.2430 C   0  0  0  0  0  0  0  0  0  0  0  0
   55.8354   24.6551   48.0322 H   0  0  0  0  0  0  0  0  0  0  0  0
   56.1107   22.1958   47.7407 H   0  0  0  0  0  0  0  0  0  0  0  0
   56.3421   20.2462   46.2596 H   0  0  0  0  0  0  0  0  0  0  0  0
   56.4605   19.3168   43.9411 H   0  0  0  0  0  0  0  0  0  0  0  0
   56.0643   23.2176   42.2713 H   0  0  0  0  0  0  0  0  0  0  0  0
   55.8441   25.1859   43.7345 H   0  0  0  0  0  0  0  0  0  0  0  0
   54.9360   28.9660   45.5980 H   0  0  0  0  0  0  0  0  0  0  0  0
   55.6457   29.4377   42.6185 H   0  0  0  0  0  0  0  0  0  0  0  0
   56.8151   31.3046   41.4478 H   0  0  0  0  0  0  0  0  0  0  0  0
   58.7815   32.4024   45.1388 H   0  0  0  0  0  0  0  0  0  0  0  0
   57.6135   30.5416   46.3187 H   0  0  0  0  0  0  0  0  0  0  0  0
  1  2  2  0
  2  3  1  0
  3  4  1  0
  4  5  2  0
  5  6  1  0
  6  7  2  0
  7  8  1  0
  8  9  2  0
  9 10  1  0
 10 11  2  0
 11 12  1  0
 12 13  2  0
  2 14  1  0
 14 15  1  0
 15 16  2  0
 16 17  1  0
 17 18  2  0
 18 19  1  0
 18 20  1  0
 20 21  2  0
 13  4  1  0
 21 15  1  0
 12  7  1  0
  5 22  1  0
  6 23  1  0
  8 24  1  0
  9 25  1  0
 11 26  1  0
 13 27  1  0
 14 28  1  0
 16 29  1  0
 17 30  1  0
 20 31  1  0
 21 32  1  0
M  CHG  1   3  -1
M  END
>  <UniqueID>  (47) 
42

>  <SMILES>  (47) 
O=C([N-]c1ccc2ccncc2c1)Nc1ccc(F)cc1

>  <Energy>  (47) 
45.37223345207221

>  <Genealogy>  (47) 
O=C([N-]c1ccc2ccncc2c1)Nc1ccc(F)cc1 (protonated)
O=C([N-]c1ccc2ccncc2c1)Nc1ccc(F)cc1 (3D coordinates assigned)
O=C([N-]c1ccc2ccncc2c1)Nc1ccc(F)cc1 (optimized conformer: 45.37223345207221 kcal/mol)

>  <smiles>  (47) 
O=C(Nc1ccc(F)cc1)Nc1ccc2ccncc2c1

>  <score_type>  (47) 
oracle

>  <origin>  (47) 
adg

>  <m_score__min__energy>  (47) 
-9.0999999999999996

>  <m_primary>  (47) 
energy

$$$$
47:0
     RDKit          3D

 42 44  0  0  0  0  0  0  0  0999 V2000
   59.2660   35.2830   44.9100 C   0  0  0  0  0  0  0  0  0  0  0  0
   59.1470   34.4860   46.1830 C   0  0  0  0  0  0  0  0  0  0  0  0
   59.9890   34.8040   47.2640 C   0  0  0  0  0  0  0  0  0  0  0  0
   59.9100   34.0930   48.4600 C   0  0  0  0  0  0  0  0  0  0  0  0
   58.9920   33.0540   48.5950 C   0  0  0  0  0  0  0  0  0  0  0  0
   58.1470   32.7230   47.5350 C   0  0  0  0  0  0  0  0  0  0  0  0
   58.2070   33.4280   46.3130 C   0  0  0  0  0  0  0  0  0  0  0  0
   57.3300   33.0780   45.2190 N   0  0  0  0  0  0  0  0  0  0  0  0
   57.7600   32.2790   44.0690 C   0  0  0  0  0  0  0  0  0  0  0  0
   57.3190   30.8540   44.2230 C   0  0  0  0  0  0  0  0  0  0  0  0
   56.2180   30.6020   44.7840 O   0  0  0  0  0  0  0  0  0  0  0  0
   58.1550   29.7900   43.7490 N   0  0  0  0  0  0  0  0  0  0  0  0
   57.9720   28.4200   44.1240 C   0  0  0  0  0  0  0  0  0  0  0  0
   57.8000   27.1630   43.0180 S   0  0  0  0  0  0  0  0  0  0  0  0
   57.7290   25.9430   44.1730 C   0  0  0  0  0  0  0  0  0  0  0  0
   57.9070   26.4940   45.4400 C   0  0  0  0  0  0  0  0  0  0  0  0
   58.0310   27.8950   45.4180 C   0  0  0  0  0  0  0  0  0  0  0  0
   58.2960   28.6820   46.5980 C   0  0  0  0  0  0  0  0  0  0  0  0
   58.5070   29.3130   47.5440 N   0  0  0  0  0  0  0  0  0  0  0  0
   57.8870   25.6460   46.6860 C   0  0  0  0  0  0  0  0  0  0  0  0
   58.1500   24.1630   46.3640 C   0  0  0  0  0  0  0  0  0  0  0  0
   57.3080   23.6900   45.1680 C   0  0  0  0  0  0  0  0  0  0  0  0
   57.6640   24.4720   43.8940 C   0  0  0  0  0  0  0  0  0  0  0  0
   59.4244   36.3436   45.1549 H   0  0  0  0  0  0  0  0  0  0  0  0
   60.1186   34.9110   44.3228 H   0  0  0  0  0  0  0  0  0  0  0  0
   58.3420   35.1763   44.3228 H   0  0  0  0  0  0  0  0  0  0  0  0
   60.7173   35.6223   47.1643 H   0  0  0  0  0  0  0  0  0  0  0  0
   60.5733   34.3525   49.2983 H   0  0  0  0  0  0  0  0  0  0  0  0
   58.9331   32.4931   49.5394 H   0  0  0  0  0  0  0  0  0  0  0  0
   57.4245   31.9019   47.6529 H   0  0  0  0  0  0  0  0  0  0  0  0
   56.3390   33.4060   45.2340 H   0  0  0  0  0  0  0  0  0  0  0  0
   57.3183   32.6973   43.1525 H   0  0  0  0  0  0  0  0  0  0  0  0
   58.8580   32.3063   44.0084 H   0  0  0  0  0  0  0  0  0  0  0  0
   58.8610   30.0050   43.0090 H   0  0  0  0  0  0  0  0  0  0  0  0
   58.6651   26.0055   47.3755 H   0  0  0  0  0  0  0  0  0  0  0  0
   56.8900   25.7282   47.1434 H   0  0  0  0  0  0  0  0  0  0  0  0
   59.2158   24.0323   46.1252 H   0  0  0  0  0  0  0  0  0  0  0  0
   57.8701   23.5634   47.2427 H   0  0  0  0  0  0  0  0  0  0  0  0
   57.4971   22.6200   44.9968 H   0  0  0  0  0  0  0  0  0  0  0  0
   56.2466   23.8642   45.3985 H   0  0  0  0  0  0  0  0  0  0  0  0
   58.6422   24.1317   43.5235 H   0  0  0  0  0  0  0  0  0  0  0  0
   56.8844   24.2904   43.1395 H   0  0  0  0  0  0  0  0  0  0  0  0
  1  2  1  0
  2  3  2  0
  3  4  1  0
  4  5  2  0
  5  6  1  0
  6  7  2  0
  7  8  1  0
  8  9  1  0
  9 10  1  0
 10 11  2  0
 10 12  1  0
 12 13  1  0
 13 14  1  0
 14 15  1  0
 15 16  2  0
 16 17  1  0
 17 18  1  0
 18 19  3  0
 16 20  1  0
 20 21  1  0
 21 22  1  0
 22 23  1  0
  7  2  1  0
 17 13  2  0
 23 15  1  0
  1 24  1  0
  1 25  1  0
  1 26  1  0
  3 27  1  0
  4 28  1  0
  5 29  1  0
  6 30  1  0
  8 31  1  0
  9 32  1  0
  9 33  1  0
 12 34  1  0
 20 35  1  0
 20 36  1  0
 21 37  1  0
 21 38  1  0
 22 39  1  0
 22 40  1  0
 23 41  1  0
 23 42  1  0
M  END
>  <UniqueID>  (48) 
43

>  <SMILES>  (48) 
Cc1ccccc1NCC(=O)Nc1sc2c(c1C#N)CCCC2

>  <Energy>  (48) 
71.99443627750271

>  <Genealogy>  (48) 
Cc1ccccc1NCC(=O)Nc1sc2c(c1C#N)CCCC2 (3D coordinates assigned)
Cc1ccccc1NCC(=O)Nc1sc2c(c1C#N)CCCC2 (nonaromatic ring conformer: 71.99443627750271 kcal/mol)

>  <smiles>  (48) 
Cc1ccccc1NCC(=O)Nc1sc2c(c1C#N)CCCC2

>  <score_type>  (48) 
oracle

>  <origin>  (48) 
adg

>  <m_score__min__energy>  (48) 
-7.9000000000000004

>  <m_primary>  (48) 
energy

$$$$
48:0
     RDKit          3D

 53 55  0  0  0  0  0  0  0  0999 V2000
   58.3818   33.2744   41.9366 H   0  0  0  0  0  0  0  0  0  0  0  0
   58.1570   32.7590   42.8820 C   0  0  0  0  0  0  0  0  0  0  0  0
   58.2100   33.4620   44.0900 C   0  0  0  0  0  0  0  0  0  0  0  0
   58.4756   34.5295   44.0900 H   0  0  0  0  0  0  0  0  0  0  0  0
   57.9260   32.8130   45.3040 C   0  0  0  0  0  0  0  0  0  0  0  0
   57.9610   33.5610   46.5850 C   0  0  0  0  0  0  0  0  0  0  0  0
   57.0040   33.4510   47.3980 O   0  0  0  0  0  0  0  0  0  0  0  0
   59.0240   34.4780   46.8880 N   0  0  0  0  0  0  0  0  0  0  0  0
   60.2250   34.1780   47.3040 C   0  0  0  0  0  0  0  0  0  0  0  0
   60.5750   34.1910   48.6700 C   0  0  0  0  0  0  0  0  0  0  0  0
   59.8284   34.4689   49.4285 H   0  0  0  0  0  0  0  0  0  0  0  0
   61.8720   33.8500   49.0560 C   0  0  0  0  0  0  0  0  0  0  0  0
   62.1471   33.8502   50.1210 H   0  0  0  0  0  0  0  0  0  0  0  0
   62.8220   33.5080   48.0880 C   0  0  0  0  0  0  0  0  0  0  0  0
   64.2030   33.0800   48.4870 C   0  0  0  0  0  0  0  0  0  0  0  0
   64.2771   33.0570   49.5843 H   0  0  0  0  0  0  0  0  0  0  0  0
   64.4065   32.0766   48.0847 H   0  0  0  0  0  0  0  0  0  0  0  0
   64.9383   33.7924   48.0847 H   0  0  0  0  0  0  0  0  0  0  0  0
   62.4440   33.5110   46.7410 C   0  0  0  0  0  0  0  0  0  0  0  0
   63.1752   33.2328   45.9677 H   0  0  0  0  0  0  0  0  0  0  0  0
   61.1770   33.8560   46.3810 N   0  0  0  0  0  0  0  0  0  0  0  0
   60.9300   33.8480   45.3660 H   0  0  0  0  0  0  0  0  0  0  0  0
   57.6090   31.4430   45.2860 C   0  0  0  0  0  0  0  0  0  0  0  0
   57.4148   30.9167   46.2322 H   0  0  0  0  0  0  0  0  0  0  0  0
   57.5380   30.7420   44.0760 C   0  0  0  0  0  0  0  0  0  0  0  0
   57.1080   29.0350   44.0770 S   0  0  0  0  0  0  0  0  0  0  0  0
   55.8770   28.8080   44.9090 O   0  0  0  0  0  0  0  0  0  0  0  0
   56.8330   28.6080   42.6620 O   0  0  0  0  0  0  0  0  0  0  0  0
   58.4160   28.1040   44.7460 N   0  0  0  0  0  0  0  0  0  0  0  0
   58.1410   26.8680   45.4240 C   0  0  0  0  0  0  0  0  0  0  0  0
   58.2780   26.7850   46.8170 C   0  0  0  0  0  0  0  0  0  0  0  0
   58.5872   27.6717   47.3898 H   0  0  0  0  0  0  0  0  0  0  0  0
   58.0240   25.5820   47.4820 C   0  0  0  0  0  0  0  0  0  0  0  0
   58.1391   25.5249   48.5745 H   0  0  0  0  0  0  0  0  0  0  0  0
   57.6210   24.4420   46.7580 C   0  0  0  0  0  0  0  0  0  0  0  0
   57.3520   23.2130   47.3780 O   0  0  0  0  0  0  0  0  0  0  0  0
   56.0700   22.5940   47.4110 C   0  0  0  0  0  0  0  0  0  0  0  0
   55.7615   22.4451   48.4563 H   0  0  0  0  0  0  0  0  0  0  0  0
   55.3386   23.2382   46.9011 H   0  0  0  0  0  0  0  0  0  0  0  0
   56.1196   21.6206   46.9011 H   0  0  0  0  0  0  0  0  0  0  0  0
   57.4800   24.5320   45.3680 C   0  0  0  0  0  0  0  0  0  0  0  0
   57.1602   23.6497   44.7942 H   0  0  0  0  0  0  0  0  0  0  0  0
   57.7420   25.7330   44.7030 C   0  0  0  0  0  0  0  0  0  0  0  0
   57.6349   25.7884   43.6096 H   0  0  0  0  0  0  0  0  0  0  0  0
   59.7980   28.5440   44.5280 C   0  0  0  0  0  0  0  0  0  0  0  0
   59.8372   29.1830   43.6335 H   0  0  0  0  0  0  0  0  0  0  0  0
   60.4350   27.6578   44.3904 H   0  0  0  0  0  0  0  0  0  0  0  0
   60.3050   29.3320   45.7290 C   0  0  0  0  0  0  0  0  0  0  0  0
   59.9846   28.8340   46.6560 H   0  0  0  0  0  0  0  0  0  0  0  0
   61.4036   29.3795   45.6991 H   0  0  0  0  0  0  0  0  0  0  0  0
   59.8929   30.3515   45.6991 H   0  0  0  0  0  0  0  0  0  0  0  0
   57.8190   31.4030   42.8740 C   0  0  0  0  0  0  0  0  0  0  0  0
   57.7736   30.8540   41.9219 H   0  0  0  0  0  0  0  0  0  0  0  0
  1  2  1  0
  2  3  2  0
  3  4  1  0
  3  5  1  0
  5  6  1  0
  6  7  2  0
  6  8  1  0
  8  9  2  0
  9 10  1  0
 10 11  1  0
 10 12  2  0
 12 13  1  0
 12 14  1  0
 14 15  1  0
 15 16  1  0
 15 17  1  0
 15 18  1  0
 14 19  2  0
 19 20  1  0
 19 21  1  0
 21 22  1  0
  5 23  2  0
 23 24  1  0
 23 25  1  0
 25 26  1  0
 26 27  2  0
 26 28  2  0
 26 29  1  0
 29 30  1  0
 30 31  2  0
 31 32  1  0
 31 33  1  0
 33 34  1  0
 33 35  2  0
 35 36  1  0
 36 37  1  0
 37 38  1  0
 37 39  1  0
 37 40  1  0
 35 41  1  0
 41 42  1  0
 41 43  2  0
 43 44  1  0
 29 45  1  0
 45 46  1  0
 45 47  1  0
 45 48  1  0
 48 49  1  0
 48 50  1  0
 48 51  1  0
 25 52  2  0
 52 53  1  0
 52  2  1  0
 21  9  1  0
 43 30  1  0
M  END
>  <UniqueID>  (49) 
44

>  <SMILES>  (49) 
CCN(c1ccc(OC)cc1)S(=O)(=O)c1cccc(C(=O)/N=c2\ccc(C)c[nH]2)c1

>  <Energy>  (49) 
62.89622318445622

>  <Genealogy>  (49) 
CCN(c1ccc(OC)cc1)S(=O)(=O)c1cccc(C(=O)/N=c2\ccc(C)c[nH]2)c1 (cis-trans isomerization)
CCN(c1ccc(OC)cc1)S(=O)(=O)c1cccc(C(=O)/N=c2\ccc(C)c[nH]2)c1 (3D coordinates assigned)
CCN(c1ccc(OC)cc1)S(=O)(=O)c1cccc(C(=O)/N=c2\ccc(C)c[nH]2)c1 (optimized conformer: 62.89622318445622 kcal/mol)

>  <smiles>  (49) 
CCN(c1ccc(OC)cc1)S(=O)(=O)c1cccc(C(=O)N=c2ccc(C)c[nH]2)c1

>  <score_type>  (49) 
oracle

>  <origin>  (49) 
adg

>  <m_score__min__energy>  (49) 
-9.0999999999999996

>  <m_primary>  (49) 
energy

$$$$
49:0
     RDKit          3D

 37 39  0  0  0  0  0  0  0  0999 V2000
   59.9790   26.0330   46.3210 C   0  0  0  0  0  0  0  0  0  0  0  0
   60.2790   27.1290   47.1790 O   0  0  0  0  0  0  0  0  0  0  0  0
   59.9310   28.4610   46.9120 C   0  0  0  0  0  0  0  0  0  0  0  0
   60.6730   29.5570   47.4280 C   0  0  0  0  0  0  0  0  0  0  0  0
   60.3030   30.8770   47.1260 C   0  0  0  0  0  0  0  0  0  0  0  0
   59.1840   31.0790   46.3170 C   0  0  0  0  0  0  0  0  0  0  0  0
   58.4480   30.0260   45.8280 C   0  0  0  0  0  0  0  0  0  0  0  0
   58.8080   28.7030   46.0980 C   0  0  0  0  0  0  0  0  0  0  0  0
   57.4310   30.5710   45.0500 C   0  0  0  0  0  0  0  0  0  0  0  0
   56.3560   29.8810   44.3040 C   0  0  0  0  0  0  0  0  0  0  0  0
   55.1320   29.5450   44.9600 N   0  0  0  0  0  0  0  0  0  0  0  0
   56.6070   29.3480   42.7740 S   0  0  0  0  0  0  0  0  0  0  0  0
   57.6200   31.9510   45.1030 C   0  0  0  0  0  0  0  0  0  0  0  0
   58.6830   32.2480   45.8810 N   0  0  0  0  0  0  0  0  0  0  0  0
   59.2970   33.8390   46.1990 S   0  0  0  0  0  0  0  0  0  0  0  0
   58.2480   34.6260   46.9340 O   0  0  0  0  0  0  0  0  0  0  0  0
   59.6150   34.5330   44.9040 O   0  0  0  0  0  0  0  0  0  0  0  0
   60.7650   33.7210   47.1620 C   0  0  0  0  0  0  0  0  0  0  0  0
   60.6950   33.8110   48.5590 C   0  0  0  0  0  0  0  0  0  0  0  0
   61.8600   33.7280   49.3280 C   0  0  0  0  0  0  0  0  0  0  0  0
   63.1000   33.5480   48.7050 C   0  0  0  0  0  0  0  0  0  0  0  0
   64.5610   33.4440   49.6700 Cl  0  0  0  0  0  0  0  0  0  0  0  0
   63.1730   33.4520   47.3100 C   0  0  0  0  0  0  0  0  0  0  0  0
   62.0090   33.5360   46.5400 C   0  0  0  0  0  0  0  0  0  0  0  0
   59.7368   25.1480   46.9277 H   0  0  0  0  0  0  0  0  0  0  0  0
   59.1180   26.2893   45.6862 H   0  0  0  0  0  0  0  0  0  0  0  0
   60.8505   25.8150   45.6862 H   0  0  0  0  0  0  0  0  0  0  0  0
   61.5460   29.3695   48.0705 H   0  0  0  0  0  0  0  0  0  0  0  0
   60.8793   31.7288   47.5163 H   0  0  0  0  0  0  0  0  0  0  0  0
   58.2256   27.8673   45.6828 H   0  0  0  0  0  0  0  0  0  0  0  0
   54.9310   29.8780   45.9290 H   0  0  0  0  0  0  0  0  0  0  0  0
   54.3960   28.9930   44.4650 H   0  0  0  0  0  0  0  0  0  0  0  0
   56.9931   32.6919   44.5853 H   0  0  0  0  0  0  0  0  0  0  0  0
   59.7210   33.9473   49.0518 H   0  0  0  0  0  0  0  0  0  0  0  0
   61.8016   33.8043   50.4238 H   0  0  0  0  0  0  0  0  0  0  0  0
   64.1472   33.3103   46.8193 H   0  0  0  0  0  0  0  0  0  0  0  0
   62.0686   33.4569   45.4445 H   0  0  0  0  0  0  0  0  0  0  0  0
  1  2  1  0
  2  3  1  0
  3  4  2  0
  4  5  1  0
  5  6  2  0
  6  7  1  0
  7  8  2  0
  7  9  1  0
  9 10  1  0
 10 11  1  0
 10 12  2  0
  9 13  2  0
 13 14  1  0
 14 15  1  0
 15 16  2  0
 15 17  2  0
 15 18  1  0
 18 19  2  0
 19 20  1  0
 20 21  2  0
 21 22  1  0
 21 23  1  0
 23 24  2  0
  8  3  1  0
 24 18  1  0
 14  6  1  0
  1 25  1  0
  1 26  1  0
  1 27  1  0
  4 28  1  0
  5 29  1  0
  8 30  1  0
 11 31  1  0
 11 32  1  0
 13 33  1  0
 19 34  1  0
 20 35  1  0
 23 36  1  0
 24 37  1  0
M  END
>  <UniqueID>  (50) 
45

>  <SMILES>  (50) 
COc1ccc2c(c1)c(C(N)=S)cn2S(=O)(=O)c1ccc(Cl)cc1

>  <Energy>  (50) 
76.0348309000908

>  <Genealogy>  (50) 
COc1ccc2c(c1)c(C(N)=S)cn2S(=O)(=O)c1ccc(Cl)cc1 (3D coordinates assigned)
COc1ccc2c(c1)c(C(N)=S)cn2S(=O)(=O)c1ccc(Cl)cc1 (optimized conformer: 76.0348309000908 kcal/mol)

>  <smiles>  (50) 
COc1ccc2c(c1)c(C(N)=S)cn2S(=O)(=O)c1ccc(Cl)cc1

>  <score_type>  (50) 
oracle

>  <origin>  (50) 
adg

>  <m_score__min__energy>  (50) 
-9.0099999999999998

>  <m_primary>  (50) 
energy

$$$$
50:0
     RDKit          3D

 41 44  0  0  0  0  0  0  0  0999 V2000
   56.7910   21.8420   42.6310 C   0  0  0  0  0  0  0  0  0  0  0  0
   55.8940   22.4600   43.5490 O   0  0  0  0  0  0  0  0  0  0  0  0
   55.9380   22.2930   44.9430 C   0  0  0  0  0  0  0  0  0  0  0  0
   55.5110   21.0990   45.5590 C   0  0  0  0  0  0  0  0  0  0  0  0
   55.5160   20.9810   46.9510 C   0  0  0  0  0  0  0  0  0  0  0  0
   55.9390   22.0480   47.7430 C   0  0  0  0  0  0  0  0  0  0  0  0
   56.3720   23.2330   47.1450 C   0  0  0  0  0  0  0  0  0  0  0  0
   56.3980   23.3570   45.7480 C   0  0  0  0  0  0  0  0  0  0  0  0
   56.8480   24.5930   45.1670 N   0  0  0  0  0  0  0  0  0  0  0  0
   56.4930   25.8800   45.6980 C   0  0  0  0  0  0  0  0  0  0  0  0
   55.5550   25.9790   46.5350 O   0  0  0  0  0  0  0  0  0  0  0  0
   57.1900   27.1000   45.2550 C   0  0  0  0  0  0  0  0  0  0  0  0
   58.5130   27.1940   44.8280 C   0  0  0  0  0  0  0  0  0  0  0  0
   58.8930   28.4960   44.4790 C   0  0  0  0  0  0  0  0  0  0  0  0
   57.8760   29.4290   44.6510 C   0  0  0  0  0  0  0  0  0  0  0  0
   57.9620   30.8200   44.2960 N   0  0  0  0  0  0  0  0  0  0  0  0
   57.6790   31.3310   43.0720 C   0  0  0  0  0  0  0  0  0  0  0  0
   57.8230   32.7120   43.0670 C   0  0  0  0  0  0  0  0  0  0  0  0
   58.2200   33.0390   44.3430 C   0  0  0  0  0  0  0  0  0  0  0  0
   58.5340   34.2810   44.8920 C   0  0  0  0  0  0  0  0  0  0  0  0
   58.9540   34.3200   46.2320 C   0  0  0  0  0  0  0  0  0  0  0  0
   59.2720   35.5070   46.8060 F   0  0  0  0  0  0  0  0  0  0  0  0
   59.0630   33.1280   46.9800 C   0  0  0  0  0  0  0  0  0  0  0  0
   58.7420   31.8880   46.3990 C   0  0  0  0  0  0  0  0  0  0  0  0
   58.3010   31.8760   45.0690 C   0  0  0  0  0  0  0  0  0  0  0  0
   56.4970   28.6340   45.2010 S   0  0  0  0  0  0  0  0  0  0  0  0
   57.5722   21.3038   43.1877 H   0  0  0  0  0  0  0  0  0  0  0  0
   56.2371   21.1329   41.9982 H   0  0  0  0  0  0  0  0  0  0  0  0
   57.2563   22.6121   41.9982 H   0  0  0  0  0  0  0  0  0  0  0  0
   55.1719   20.2553   44.9400 H   0  0  0  0  0  0  0  0  0  0  0  0
   55.1855   20.0442   47.4234 H   0  0  0  0  0  0  0  0  0  0  0  0
   55.9315   21.9560   48.8391 H   0  0  0  0  0  0  0  0  0  0  0  0
   56.6951   24.0756   47.7740 H   0  0  0  0  0  0  0  0  0  0  0  0
   57.3040   24.5500   44.2290 H   0  0  0  0  0  0  0  0  0  0  0  0
   59.1921   26.3306   44.7707 H   0  0  0  0  0  0  0  0  0  0  0  0
   59.8951   28.7547   44.1063 H   0  0  0  0  0  0  0  0  0  0  0  0
   57.3761   30.7320   42.2005 H   0  0  0  0  0  0  0  0  0  0  0  0
   57.6555   33.3978   42.2234 H   0  0  0  0  0  0  0  0  0  0  0  0
   58.4554   35.2015   44.2950 H   0  0  0  0  0  0  0  0  0  0  0  0
   59.4017   33.1692   48.0257 H   0  0  0  0  0  0  0  0  0  0  0  0
   58.8345   30.9539   46.9725 H   0  0  0  0  0  0  0  0  0  0  0  0
  1  2  1  0
  2  3  1  0
  3  4  2  0
  4  5  1  0
  5  6  2  0
  6  7  1  0
  7  8  2  0
  8  9  1  0
  9 10  1  0
 10 11  2  0
 10 12  1  0
 12 13  2  0
 13 14  1  0
 14 15  2  0
 15 16  1  0
 16 17  1  0
 17 18  2  0
 18 19  1  0
 19 20  2  0
 20 21  1  0
 21 22  1  0
 21 23  2  0
 23 24  1  0
 24 25  2  0
 15 26  1  0
  8  3  1  0
 26 12  1  0
 25 16  1  0
 25 19  1  0
  1 27  1  0
  1 28  1  0
  1 29  1  0
  4 30  1  0
  5 31  1  0
  6 32  1  0
  7 33  1  0
  9 34  1  0
 13 35  1  0
 14 36  1  0
 17 37  1  0
 18 38  1  0
 20 39  1  0
 23 40  1  0
 24 41  1  0
M  END
>  <UniqueID>  (51) 
46

>  <SMILES>  (51) 
COc1ccccc1NC(=O)c1ccc(-n2ccc3cc(F)ccc32)s1

>  <Energy>  (51) 
114.25418318633376

>  <Genealogy>  (51) 
COc1ccccc1NC(=O)c1ccc(-n2ccc3cc(F)ccc32)s1 (3D coordinates assigned)
COc1ccccc1NC(=O)c1ccc(-n2ccc3cc(F)ccc32)s1 (optimized conformer: 114.25418318633376 kcal/mol)

>  <smiles>  (51) 
COc1ccccc1NC(=O)c1ccc(-n2ccc3cc(F)ccc32)s1

>  <score_type>  (51) 
oracle

>  <origin>  (51) 
adg

>  <m_score__min__energy>  (51) 
-7.8799999999999999

>  <m_primary>  (51) 
energy

$$$$
51:0
     RDKit          3D

 34 36  0  0  0  0  0  0  0  0999 V2000
   55.6743   29.2003   43.8314 H   0  0  0  0  0  0  0  0  0  0  0  0
   56.2730   30.1220   43.7870 C   0  0  0  0  0  0  0  0  0  0  0  0
   56.2990   30.9670   44.8520 N   0  0  0  0  0  0  0  0  0  0  0  0
   57.0300   32.1160   44.8530 C   0  0  0  0  0  0  0  0  0  0  0  0
   56.9880   32.8750   45.9120 N   0  0  0  0  0  0  0  0  0  0  0  0
   58.0910   33.3140   46.7190 C   0  0  0  0  0  0  0  0  0  0  0  0
   58.3490   32.7360   47.9740 C   0  0  0  0  0  0  0  0  0  0  0  0
   57.7253   31.9040   48.3329 H   0  0  0  0  0  0  0  0  0  0  0  0
   59.3960   33.2150   48.7680 C   0  0  0  0  0  0  0  0  0  0  0  0
   59.5996   32.7510   49.7444 H   0  0  0  0  0  0  0  0  0  0  0  0
   60.1900   34.2880   48.3230 C   0  0  0  0  0  0  0  0  0  0  0  0
   61.2390   34.8050   49.0960 O   0  0  0  0  0  0  0  0  0  0  0  0
   62.4570   34.1580   49.3500 C   0  0  0  0  0  0  0  0  0  0  0  0
   63.0240   34.2680   50.6250 C   0  0  0  0  0  0  0  0  0  0  0  0
   62.5059   34.8454   51.4049 H   0  0  0  0  0  0  0  0  0  0  0  0
   64.2450   33.6490   50.9150 C   0  0  0  0  0  0  0  0  0  0  0  0
   64.6779   33.7318   51.9228 H   0  0  0  0  0  0  0  0  0  0  0  0
   64.9160   32.9240   49.9220 C   0  0  0  0  0  0  0  0  0  0  0  0
   66.1720   32.2870   50.2190 C   0  0  0  0  0  0  0  0  0  0  0  0
   67.1820   31.7750   50.4590 N   0  0  0  0  0  0  0  0  0  0  0  0
   64.3650   32.8260   48.6390 C   0  0  0  0  0  0  0  0  0  0  0  0
   64.8934   32.2618   47.8564 H   0  0  0  0  0  0  0  0  0  0  0  0
   63.1440   33.4440   48.3500 C   0  0  0  0  0  0  0  0  0  0  0  0
   62.7191   33.3719   47.3379 H   0  0  0  0  0  0  0  0  0  0  0  0
   59.8930   34.8950   47.0980 C   0  0  0  0  0  0  0  0  0  0  0  0
   60.4874   35.7554   46.7568 H   0  0  0  0  0  0  0  0  0  0  0  0
   58.8460   34.4160   46.3040 C   0  0  0  0  0  0  0  0  0  0  0  0
   58.6150   34.9086   45.3480 H   0  0  0  0  0  0  0  0  0  0  0  0
   57.7630   32.4590   43.6970 C   0  0  0  0  0  0  0  0  0  0  0  0
   58.3404   33.3947   43.6644 H   0  0  0  0  0  0  0  0  0  0  0  0
   57.7500   31.6020   42.5950 C   0  0  0  0  0  0  0  0  0  0  0  0
   58.3267   31.8560   41.6934 H   0  0  0  0  0  0  0  0  0  0  0  0
   57.0050   30.4230   42.6380 C   0  0  0  0  0  0  0  0  0  0  0  0
   56.9949   29.7391   41.7765 H   0  0  0  0  0  0  0  0  0  0  0  0
  1  2  1  0
  2  3  1  0
  3  4  1  0
  4  5  2  0
  5  6  1  0
  6  7  2  0
  7  8  1  0
  7  9  1  0
  9 10  1  0
  9 11  2  0
 11 12  1  0
 12 13  1  0
 13 14  2  0
 14 15  1  0
 14 16  1  0
 16 17  1  0
 16 18  2  0
 18 19  1  0
 19 20  3  0
 18 21  1  0
 21 22  1  0
 21 23  2  0
 23 24  1  0
 11 25  1  0
 25 26  1  0
 25 27  2  0
 27 28  1  0
  4 29  1  0
 29 30  1  0
 29 31  2  0
 31 32  1  0
 31 33  1  0
 33 34  1  0
 33  2  2  0
 27  6  1  0
 23 13  1  0
M  CHG  1   3  -1
M  END
>  <UniqueID>  (52) 
47

>  <SMILES>  (52) 
N#Cc1ccc(Oc2ccc(/N=c3\cccc[n-]3)cc2)cc1

>  <Energy>  (52) 
52.9190851447413

>  <Genealogy>  (52) 
N#Cc1ccc(Oc2ccc(N=c3cccc[n-]3)cc2)cc1 (protonated)
N#Cc1ccc(Oc2ccc(/N=c3\cccc[n-]3)cc2)cc1 (cis-trans isomerization)
N#Cc1ccc(Oc2ccc(/N=c3\cccc[n-]3)cc2)cc1 (3D coordinates assigned)
N#Cc1ccc(Oc2ccc(/N=c3\cccc[n-]3)cc2)cc1 (optimized conformer: 52.9190851447413 kcal/mol)

>  <smiles>  (52) 
N#Cc1ccc(Oc2ccc(N=c3cccc[nH]3)cc2)cc1

>  <score_type>  (52) 
oracle

>  <origin>  (52) 
adg

>  <m_score__min__energy>  (52) 
-8.7599999999999998

>  <m_primary>  (52) 
energy

$$$$
52:0
     RDKit          3D

 39 40  0  0  0  0  0  0  0  0999 V2000
   57.0210   31.2310   42.5460 C   0  0  0  0  0  0  0  0  0  0  0  0
   56.2930   30.0020   43.0950 C   0  0  0  0  0  0  0  0  0  0  0  0
   57.1820   28.8330   43.2140 N   0  0  0  0  0  0  0  0  0  0  0  0
   57.7460   28.7210   44.5440 C   0  0  0  0  0  0  0  0  0  0  0  0
   58.1810   29.8860   45.2050 C   0  0  0  0  0  0  0  0  0  0  0  0
   58.7300   29.8240   46.4910 C   0  0  0  0  0  0  0  0  0  0  0  0
   59.2860   31.2960   47.2920 S   0  0  0  0  0  0  0  0  0  0  0  0
   60.7650   31.4510   47.0710 O   0  0  0  0  0  0  0  0  0  0  0  0
   59.0470   31.1760   48.7720 O   0  0  0  0  0  0  0  0  0  0  0  0
   58.4630   32.7130   46.6820 N   0  0  0  0  0  0  0  0  0  0  0  0
   58.8030   32.9380   45.2640 C   0  0  0  0  0  0  0  0  0  0  0  0
   58.5260   34.3960   44.8650 C   0  0  0  0  0  0  0  0  0  0  0  0
   59.2690   35.3530   45.6130 O   0  0  0  0  0  0  0  0  0  0  0  0
   59.6990   34.8810   46.8820 C   0  0  0  0  0  0  0  0  0  0  0  0
   58.7090   33.8980   47.5330 C   0  0  0  0  0  0  0  0  0  0  0  0
   58.8350   28.5880   47.1350 C   0  0  0  0  0  0  0  0  0  0  0  0
   58.4050   27.4240   46.4990 C   0  0  0  0  0  0  0  0  0  0  0  0
   57.8580   27.4700   45.2080 C   0  0  0  0  0  0  0  0  0  0  0  0
   57.4240   26.2440   44.6010 N   0  0  0  0  0  0  0  0  0  0  0  0
   57.3850   31.8456   43.3825 H   0  0  0  0  0  0  0  0  0  0  0  0
   57.8734   30.9077   41.9304 H   0  0  0  0  0  0  0  0  0  0  0  0
   56.3279   31.8232   41.9304 H   0  0  0  0  0  0  0  0  0  0  0  0
   55.8913   30.2438   44.0901 H   0  0  0  0  0  0  0  0  0  0  0  0
   55.4894   29.7436   42.3897 H   0  0  0  0  0  0  0  0  0  0  0  0
   57.9440   28.9000   42.4980 H   0  0  0  0  0  0  0  0  0  0  0  0
   56.6540   27.9630   42.9790 H   0  0  0  0  0  0  0  0  0  0  0  0
   58.0878   30.8601   44.7026 H   0  0  0  0  0  0  0  0  0  0  0  0
   59.8694   32.7173   45.1087 H   0  0  0  0  0  0  0  0  0  0  0  0
   58.1824   32.2765   44.6417 H   0  0  0  0  0  0  0  0  0  0  0  0
   58.7782   34.5172   43.8012 H   0  0  0  0  0  0  0  0  0  0  0  0
   57.4627   34.5860   45.0729 H   0  0  0  0  0  0  0  0  0  0  0  0
   60.6654   34.3710   46.7558 H   0  0  0  0  0  0  0  0  0  0  0  0
   59.7752   35.7546   47.5461 H   0  0  0  0  0  0  0  0  0  0  0  0
   59.1221   33.5638   48.4961 H   0  0  0  0  0  0  0  0  0  0  0  0
   57.7515   34.4218   47.6706 H   0  0  0  0  0  0  0  0  0  0  0  0
   59.2589   28.5332   48.1485 H   0  0  0  0  0  0  0  0  0  0  0  0
   58.4958   26.4574   47.0161 H   0  0  0  0  0  0  0  0  0  0  0  0
   56.8360   26.2630   43.7390 H   0  0  0  0  0  0  0  0  0  0  0  0
   57.6850   25.3060   44.9720 H   0  0  0  0  0  0  0  0  0  0  0  0
  1  2  1  0
  2  3  1  0
  3  4  1  0
  4  5  2  0
  5  6  1  0
  6  7  1  0
  7  8  2  0
  7  9  2  0
  7 10  1  0
 10 11  1  0
 11 12  1  0
 12 13  1  0
 13 14  1  0
 14 15  1  0
  6 16  2  0
 16 17  1  0
 17 18  2  0
 18 19  1  0
 18  4  1  0
 15 10  1  0
  1 20  1  0
  1 21  1  0
  1 22  1  0
  2 23  1  0
  2 24  1  0
  3 25  1  0
  3 26  1  0
  5 27  1  0
 11 28  1  0
 11 29  1  0
 12 30  1  0
 12 31  1  0
 14 32  1  0
 14 33  1  0
 15 34  1  0
 15 35  1  0
 16 36  1  0
 17 37  1  0
 19 38  1  0
 19 39  1  0
M  CHG  1   3   1
M  END
>  <UniqueID>  (53) 
48

>  <SMILES>  (53) 
CC[NH2+]c1cc(S(=O)(=O)N2CCOCC2)ccc1N

>  <Energy>  (53) 
49.73333298312975

>  <Genealogy>  (53) 
CC[NH2+]c1cc(S(=O)(=O)N2CCOCC2)ccc1N (protonated)
CC[NH2+]c1cc(S(=O)(=O)N2CCOCC2)ccc1N (3D coordinates assigned)
CC[NH2+]c1cc(S(=O)(=O)N2CCOCC2)ccc1N (nonaromatic ring conformer: 49.73333298312975 kcal/mol)

>  <smiles>  (53) 
CCNc1cc(S(=O)(=O)N2CCOCC2)ccc1N

>  <score_type>  (53) 
oracle

>  <origin>  (53) 
adg

>  <m_score__min__energy>  (53) 
-5.3600000000000003

>  <m_primary>  (53) 
energy

$$$$
53:0
     RDKit          3D

 30 32  0  0  0  0  0  0  0  0999 V2000
   66.7140   32.7330   48.6770 H   0  0  0  0  0  0  0  0  0  0  0  0
   66.0780   32.7200   49.5060 N   0  0  0  0  0  0  0  0  0  0  0  0
   64.8250   33.0180   49.3930 C   0  0  0  0  0  0  0  0  0  0  0  0
   63.8840   33.6860   50.6320 S   0  0  0  0  0  0  0  0  0  0  0  0
   62.5170   33.7250   49.6510 C   0  0  0  0  0  0  0  0  0  0  0  0
   61.2390   34.1710   49.9650 C   0  0  0  0  0  0  0  0  0  0  0  0
   61.0094   34.5677   50.9649 H   0  0  0  0  0  0  0  0  0  0  0  0
   60.2490   34.1020   48.9730 C   0  0  0  0  0  0  0  0  0  0  0  0
   59.2295   34.4480   49.1984 H   0  0  0  0  0  0  0  0  0  0  0  0
   60.5460   33.5920   47.6840 C   0  0  0  0  0  0  0  0  0  0  0  0
   59.4910   33.5250   46.6420 C   0  0  0  0  0  0  0  0  0  0  0  0
   59.2000   34.6500   45.8480 C   0  0  0  0  0  0  0  0  0  0  0  0
   59.7591   35.5852   45.9990 H   0  0  0  0  0  0  0  0  0  0  0  0
   58.2060   34.5860   44.8700 C   0  0  0  0  0  0  0  0  0  0  0  0
   57.9853   35.4706   44.2545 H   0  0  0  0  0  0  0  0  0  0  0  0
   57.4910   33.4040   44.6700 C   0  0  0  0  0  0  0  0  0  0  0  0
   56.7089   33.3622   43.8976 H   0  0  0  0  0  0  0  0  0  0  0  0
   57.7630   32.2720   45.4460 C   0  0  0  0  0  0  0  0  0  0  0  0
   57.0190   31.1070   45.2040 O   0  0  0  0  0  0  0  0  0  0  0  0
   56.8880   30.4860   43.9280 C   0  0  0  0  0  0  0  0  0  0  0  0
   56.6626   29.4177   44.0616 H   0  0  0  0  0  0  0  0  0  0  0  0
   56.0713   30.9659   43.3688 H   0  0  0  0  0  0  0  0  0  0  0  0
   57.8289   30.5951   43.3688 H   0  0  0  0  0  0  0  0  0  0  0  0
   58.7660   32.3370   46.4330 C   0  0  0  0  0  0  0  0  0  0  0  0
   58.9847   31.4505   47.0464 H   0  0  0  0  0  0  0  0  0  0  0  0
   61.8580   33.1470   47.4010 C   0  0  0  0  0  0  0  0  0  0  0  0
   62.1080   32.7473   46.4071 H   0  0  0  0  0  0  0  0  0  0  0  0
   62.8320   33.2210   48.3980 C   0  0  0  0  0  0  0  0  0  0  0  0
   64.1220   32.8240   48.2520 N   0  0  0  0  0  0  0  0  0  0  0  0
   64.5230   32.4230   47.3740 H   0  0  0  0  0  0  0  0  0  0  0  0
  1  2  1  0
  2  3  2  0
  3  4  1  0
  4  5  1  0
  5  6  2  0
  6  7  1  0
  6  8  1  0
  8  9  1  0
  8 10  2  0
 10 11  1  0
 11 12  2  0
 12 13  1  0
 12 14  1  0
 14 15  1  0
 14 16  2  0
 16 17  1  0
 16 18  1  0
 18 19  1  0
 19 20  1  0
 20 21  1  0
 20 22  1  0
 20 23  1  0
 18 24  2  0
 24 25  1  0
 10 26  1  0
 26 27  1  0
 26 28  2  0
 28 29  1  0
 29 30  1  0
 29  3  1  0
 28  5  1  0
 24 11  1  0
M  END
>  <UniqueID>  (54) 
49

>  <SMILES>  (54) 
[H]/N=c1/[nH]c2cc(-c3cccc(OC)c3)ccc2s1

>  <Energy>  (54) 
71.78295185168597

>  <Genealogy>  (54) 
[H]/N=c1/[nH]c2cc(-c3cccc(OC)c3)ccc2s1 (cis-trans isomerization)
[H]/N=c1/[nH]c2cc(-c3cccc(OC)c3)ccc2s1 (3D coordinates assigned)
[H]/N=c1/[nH]c2cc(-c3cccc(OC)c3)ccc2s1 (optimized conformer: 71.78295185168597 kcal/mol)

>  <smiles>  (54) 
COc1cccc(-c2ccc3sc(=N)[nH]c3c2)c1

>  <score_type>  (54) 
oracle

>  <origin>  (54) 
adg

>  <m_score__min__energy>  (54) 
-7.1799999999999997

>  <m_primary>  (54) 
energy

$$$$
54:0
     RDKit          3D

 35 37  0  0  0  0  0  0  0  0999 V2000
   58.4927   24.1485   47.3520 H   0  0  0  0  0  0  0  0  0  0  0  0
   57.9490   24.9990   46.9150 C   0  0  0  0  0  0  0  0  0  0  0  0
   58.6300   26.0270   46.3460 N   0  0  0  0  0  0  0  0  0  0  0  0
   57.9780   27.0870   45.7990 C   0  0  0  0  0  0  0  0  0  0  0  0
   58.5461   27.9116   45.3437 H   0  0  0  0  0  0  0  0  0  0  0  0
   56.5790   27.1220   45.8190 C   0  0  0  0  0  0  0  0  0  0  0  0
   55.8940   28.2490   45.2450 N   0  0  0  0  0  0  0  0  0  0  0  0
   56.4230   29.3630   44.8280 C   0  0  0  0  0  0  0  0  0  0  0  0
   57.1150   30.1770   45.6710 N   0  0  0  0  0  0  0  0  0  0  0  0
   57.6780   31.3420   45.2450 C   0  0  0  0  0  0  0  0  0  0  0  0
   57.5380   31.7080   43.8930 C   0  0  0  0  0  0  0  0  0  0  0  0
   56.8190   30.8650   43.0410 C   0  0  0  0  0  0  0  0  0  0  0  0
   56.6907   31.1315   41.9815 H   0  0  0  0  0  0  0  0  0  0  0  0
   56.2790   29.7160   43.5240 N   0  0  0  0  0  0  0  0  0  0  0  0
   58.1190   32.8900   43.4360 C   0  0  0  0  0  0  0  0  0  0  0  0
   58.0122   33.1888   42.3828 H   0  0  0  0  0  0  0  0  0  0  0  0
   58.8350   33.6890   44.3220 C   0  0  0  0  0  0  0  0  0  0  0  0
   59.3005   34.6214   43.9699 H   0  0  0  0  0  0  0  0  0  0  0  0
   58.9620   33.3050   45.6610 C   0  0  0  0  0  0  0  0  0  0  0  0
   59.6260   34.0420   46.4410 O   0  0  0  0  0  0  0  0  0  0  0  0
   58.3740   32.1460   46.1180 N   0  0  0  0  0  0  0  0  0  0  0  0
   58.5200   31.7480   47.5340 C   0  0  0  0  0  0  0  0  0  0  0  0
   57.5534   31.3759   47.9046 H   0  0  0  0  0  0  0  0  0  0  0  0
   58.8428   32.6256   48.1133 H   0  0  0  0  0  0  0  0  0  0  0  0
   59.5750   30.6450   47.6890 C   0  0  0  0  0  0  0  0  0  0  0  0
   59.0702   29.6697   47.7514 H   0  0  0  0  0  0  0  0  0  0  0  0
   60.1530   30.8371   48.6050 H   0  0  0  0  0  0  0  0  0  0  0  0
   60.4630   30.6380   46.5860 O   0  0  0  0  0  0  0  0  0  0  0  0
   60.4010   29.4000   45.9120 C   0  0  0  0  0  0  0  0  0  0  0  0
   60.3601   28.5835   46.6480 H   0  0  0  0  0  0  0  0  0  0  0  0
   59.5003   29.3706   45.2813 H   0  0  0  0  0  0  0  0  0  0  0  0
   61.2943   29.2807   45.2813 H   0  0  0  0  0  0  0  0  0  0  0  0
   55.9020   26.0890   46.3930 N   0  0  0  0  0  0  0  0  0  0  0  0
   56.5530   25.0300   46.9410 C   0  0  0  0  0  0  0  0  0  0  0  0
   55.9869   24.2061   47.4001 H   0  0  0  0  0  0  0  0  0  0  0  0
  1  2  1  0
  2  3  2  0
  3  4  1  0
  4  5  1  0
  4  6  2  0
  6  7  1  0
  7  8  2  0
  8  9  1  0
  9 10  2  0
 10 11  1  0
 11 12  2  0
 12 13  1  0
 12 14  1  0
 11 15  1  0
 15 16  1  0
 15 17  2  0
 17 18  1  0
 17 19  1  0
 19 20  2  0
 19 21  1  0
 21 22  1  0
 22 23  1  0
 22 24  1  0
 22 25  1  0
 25 26  1  0
 25 27  1  0
 25 28  1  0
 28 29  1  0
 29 30  1  0
 29 31  1  0
 29 32  1  0
  6 33  1  0
 33 34  2  0
 34 35  1  0
 34  2  1  0
 14  8  1  0
 21 10  1  0
M  CHG  1  14  -1
M  END
>  <UniqueID>  (55) 
50

>  <SMILES>  (55) 
COCCn1c(=O)ccc2c[n-]/c(=N/c3cnccn3)nc21

>  <Energy>  (55) 
48.85944998338078

>  <Genealogy>  (55) 
COCCn1c(=O)ccc2c[n-]c(=Nc3cnccn3)nc21 (protonated)
COCCn1c(=O)ccc2c[n-]/c(=N/c3cnccn3)nc21 (cis-trans isomerization)
COCCn1c(=O)ccc2c[n-]/c(=N/c3cnccn3)nc21 (3D coordinates assigned)
COCCn1c(=O)ccc2c[n-]/c(=N/c3cnccn3)nc21 (optimized conformer: 48.85944998338078 kcal/mol)

>  <smiles>  (55) 
COCCn1c(=O)ccc2c[nH]c(=Nc3cnccn3)nc21

>  <score_type>  (55) 
oracle

>  <origin>  (55) 
adg

>  <m_score__min__energy>  (55) 
-8.1199999999999992

>  <m_primary>  (55) 
energy

$$$$
55:0
     RDKit          3D

 33 34  0  0  1  0  0  0  0  0999 V2000
   57.7400   31.4640   43.5380 C   0  0  0  0  0  0  0  0  0  0  0  0
   57.3960   32.3370   44.6970 C   0  0  0  0  0  0  0  0  0  0  0  0
   57.7490   33.7710   44.5640 C   0  0  0  0  0  0  0  0  0  0  0  0
   58.8390   34.4170   45.8300 S   0  0  0  0  0  0  0  0  0  0  0  0
   60.0070   33.2410   46.4400 C   0  0  0  0  0  0  0  0  0  0  0  0
   59.5640   31.9550   46.5780 N   0  0  0  0  0  0  0  0  0  0  0  0
   60.3790   31.0350   47.0530 C   0  0  0  0  0  0  0  0  0  0  0  0
   59.9540   29.8300   47.1780 N   0  0  0  0  0  0  0  0  0  0  0  0
   59.1780   29.1450   46.2300 C   0  0  0  0  0  0  0  0  0  0  0  0
   59.7790   28.7670   45.0250 C   0  0  0  0  0  0  0  0  0  0  0  0
   59.0830   28.0950   44.0500 C   0  0  0  0  0  0  0  0  0  0  0  0
   57.7490   27.7730   44.2450 C   0  0  0  0  0  0  0  0  0  0  0  0
   57.1370   28.1360   45.4290 C   0  0  0  0  0  0  0  0  0  0  0  0
   55.8050   27.8150   45.6240 O   0  0  0  0  0  0  0  0  0  0  0  0
   57.8460   28.8190   46.4170 C   0  0  0  0  0  0  0  0  0  0  0  0
   61.6880   31.2730   47.4340 C   0  0  0  0  0  0  0  0  0  0  0  0
   62.1240   32.5870   47.2880 C   0  0  0  0  0  0  0  0  0  0  0  0
   63.7620   32.9990   47.7400 Cl  0  0  0  0  0  0  0  0  0  0  0  0
   61.2670   33.4990   46.8000 N   0  0  0  0  0  0  0  0  0  0  0  0
   58.1201   30.4994   43.9056 H   0  0  0  0  0  0  0  0  0  0  0  0
   56.8412   31.2950   42.9267 H   0  0  0  0  0  0  0  0  0  0  0  0
   58.5124   31.9536   42.9267 H   0  0  0  0  0  0  0  0  0  0  0  0
   56.3094   32.2721   44.8551 H   0  0  0  0  0  0  0  0  0  0  0  0
   57.9991   31.9621   45.5371 H   0  0  0  0  0  0  0  0  0  0  0  0
   58.2409   33.9101   43.5900 H   0  0  0  0  0  0  0  0  0  0  0  0
   56.8045   34.3255   44.6668 H   0  0  0  0  0  0  0  0  0  0  0  0
   60.8370   29.0144   44.8536 H   0  0  0  0  0  0  0  0  0  0  0  0
   59.5850   27.8120   43.1130 H   0  0  0  0  0  0  0  0  0  0  0  0
   57.1856   27.2359   43.4678 H   0  0  0  0  0  0  0  0  0  0  0  0
   55.1580   28.0010   44.8760 H   0  0  0  0  0  0  0  0  0  0  0  0
   57.3420   29.1011   47.3532 H   0  0  0  0  0  0  0  0  0  0  0  0
   62.3396   30.4780   47.8256 H   0  0  0  0  0  0  0  0  0  0  0  0
   61.6290   34.4610   46.6820 H   0  0  0  0  0  0  0  0  0  0  0  0
  1  2  1  0
  2  3  1  0
  3  4  1  0
  4  5  1  0
  5  6  2  0
  6  7  1  0
  7  8  2  0
  8  9  1  0
  9 10  2  0
 10 11  1  0
 11 12  2  0
 12 13  1  0
 13 14  1  0
 13 15  2  0
  7 16  1  0
 16 17  2  0
 17 18  1  0
 17 19  1  0
 19  5  1  0
 15  9  1  0
  1 20  1  0
  1 21  1  0
  1 22  1  0
  2 23  1  0
  2 24  1  0
  3 25  1  0
  3 26  1  0
 10 27  1  0
 11 28  1  0
 12 29  1  0
 14 30  1  0
 15 31  1  0
 16 32  1  0
 19 33  1  0
M  END
>  <smiles>  (56) 
CCCSc1nc(=Nc2cccc(O)c2)cc(Cl)[nH]1

>  <score_type>  (56) 
oracle

>  <origin>  (56) 
adg

>  <m_score__min__energy>  (56) 
-7.3099999999999996

>  <m_primary>  (56) 
energy

$$$$
56:0
     RDKit          3D

 44 47  0  0  0  0  0  0  0  0999 V2000
   56.2939   29.3767   44.4006 H   0  0  0  0  0  0  0  0  0  0  0  0
   56.7090   30.3740   44.1930 C   0  0  0  0  0  0  0  0  0  0  0  0
   56.8290   31.2810   45.1970 N   0  0  0  0  0  0  0  0  0  0  0  0
   57.3310   32.5310   44.9960 C   0  0  0  0  0  0  0  0  0  0  0  0
   57.4190   33.3270   46.0250 N   0  0  0  0  0  0  0  0  0  0  0  0
   58.5440   33.5570   46.8900 C   0  0  0  0  0  0  0  0  0  0  0  0
   58.7320   34.6870   47.4160 O   0  0  0  0  0  0  0  0  0  0  0  0
   59.4280   32.3880   47.2720 C   0  0  2  0  0  0  0  0  0  0  0  0
   59.2354   31.6200   46.5085 H   0  0  0  0  0  0  0  0  0  0  0  0
   59.0520   31.7670   48.6150 C   0  0  0  0  0  0  0  0  0  0  0  0
   58.1540   32.3670   49.5270 C   0  0  0  0  0  0  0  0  0  0  0  0
   57.7303   33.3572   49.3035 H   0  0  0  0  0  0  0  0  0  0  0  0
   57.8000   31.7130   50.7100 C   0  0  0  0  0  0  0  0  0  0  0  0
   57.1018   32.1916   51.4125 H   0  0  0  0  0  0  0  0  0  0  0  0
   58.3280   30.4560   51.0040 C   0  0  0  0  0  0  0  0  0  0  0  0
   58.0394   29.9403   51.9318 H   0  0  0  0  0  0  0  0  0  0  0  0
   59.2230   29.8540   50.1190 C   0  0  0  0  0  0  0  0  0  0  0  0
   59.6435   28.8648   50.3527 H   0  0  0  0  0  0  0  0  0  0  0  0
   59.5880   30.5060   48.9330 C   0  0  0  0  0  0  0  0  0  0  0  0
   60.5630   29.9190   48.0690 N   0  0  0  0  0  0  0  0  0  0  0  0
   60.2230   28.7170   47.3080 C   0  0  0  0  0  0  0  0  0  0  0  0
   59.9909   27.8965   48.0029 H   0  0  0  0  0  0  0  0  0  0  0  0
   59.3470   28.9197   46.6744 H   0  0  0  0  0  0  0  0  0  0  0  0
   61.0754   28.4308   46.6744 H   0  0  0  0  0  0  0  0  0  0  0  0
   61.9080   30.4950   48.0470 C   0  0  0  0  0  0  0  0  0  0  0  0
   62.2901   30.5392   49.0776 H   0  0  0  0  0  0  0  0  0  0  0  0
   62.5364   29.8544   47.4108 H   0  0  0  0  0  0  0  0  0  0  0  0
   61.9290   31.8510   47.4770 N   0  0  0  0  0  0  0  0  0  0  0  0
   63.0800   32.4870   47.1780 C   0  0  0  0  0  0  0  0  0  0  0  0
   64.0854   32.0642   47.3212 H   0  0  0  0  0  0  0  0  0  0  0  0
   62.8210   33.7380   46.6690 C   0  0  0  0  0  0  0  0  0  0  0  0
   63.5625   34.4779   46.3332 H   0  0  0  0  0  0  0  0  0  0  0  0
   61.4520   33.8830   46.6620 C   0  0  0  0  0  0  0  0  0  0  0  0
   60.8893   34.7575   46.3034 H   0  0  0  0  0  0  0  0  0  0  0  0
   60.9140   32.7150   47.1940 C   0  0  0  0  0  0  0  0  0  0  0  0
   57.7680   32.8900   43.7030 C   0  0  0  0  0  0  0  0  0  0  0  0
   58.2102   33.8813   43.5247 H   0  0  0  0  0  0  0  0  0  0  0  0
   57.6360   31.9770   42.6460 C   0  0  0  0  0  0  0  0  0  0  0  0
   58.1330   32.3310   41.2760 C   0  0  0  0  0  0  0  0  0  0  0  0
   59.0261   32.9672   41.3630 H   0  0  0  0  0  0  0  0  0  0  0  0
   58.3898   31.4112   40.7301 H   0  0  0  0  0  0  0  0  0  0  0  0
   57.3476   32.8743   40.7301 H   0  0  0  0  0  0  0  0  0  0  0  0
   57.1110   30.7050   42.9000 C   0  0  0  0  0  0  0  0  0  0  0  0
   57.0163   29.9718   42.0855 H   0  0  0  0  0  0  0  0  0  0  0  0
  1  2  1  0
  2  3  1  0
  3  4  1  0
  4  5  2  0
  5  6  1  0
  6  7  2  0
  6  8  1  0
  8  9  1  6
  8 10  1  0
 10 11  2  0
 11 12  1  0
 11 13  1  0
 13 14  1  0
 13 15  2  0
 15 16  1  0
 15 17  1  0
 17 18  1  0
 17 19  2  0
 19 20  1  0
 20 21  1  0
 21 22  1  0
 21 23  1  0
 21 24  1  0
 20 25  1  0
 25 26  1  0
 25 27  1  0
 25 28  1  0
 28 29  1  0
 29 30  1  0
 29 31  2  0
 31 32  1  0
 31 33  1  0
 33 34  1  0
 33 35  2  0
  4 36  1  0
 36 37  1  0
 36 38  2  0
 38 39  1  0
 39 40  1  0
 39 41  1  0
 39 42  1  0
 38 43  1  0
 43 44  1  0
 43  2  2  0
 35  8  1  0
 19 10  1  0
 35 28  1  0
M  CHG  1   3  -1
M  END
>  <UniqueID>  (57) 
51

>  <SMILES>  (57) 
Cc1cc[n-]/c(=N/C(=O)[C@@H]2c3ccccc3N(C)Cn3cccc32)c1

>  <Energy>  (57) 
96.91550047990171

>  <Genealogy>  (57) 
Cc1cc[n-]c(=NC(=O)C2c3ccccc3N(C)Cn3cccc32)c1 (protonated)
Cc1cc[n-]c(=NC(=O)[C@@H]2c3ccccc3N(C)Cn3cccc32)c1 (chirality)
Cc1cc[n-]/c(=N/C(=O)[C@@H]2c3ccccc3N(C)Cn3cccc32)c1 (cis-trans isomerization)
Cc1cc[n-]/c(=N/C(=O)[C@@H]2c3ccccc3N(C)Cn3cccc32)c1 (3D coordinates assigned)
Cc1cc[n-]/c(=N/C(=O)[C@@H]2c3ccccc3N(C)Cn3cccc32)c1 (nonaromatic ring conformer: 96.91550047990171 kcal/mol)

>  <smiles>  (57) 
Cc1cc[nH]c(=NC(=O)C2c3ccccc3N(C)Cn3cccc32)c1

>  <score_type>  (57) 
oracle

>  <origin>  (57) 
adg

>  <m_score__min__energy>  (57) 
-10.01

>  <m_primary>  (57) 
energy

$$$$
57:0
     RDKit          3D

 40 41  0  0  0  0  0  0  0  0999 V2000
   55.8970   30.1270   43.6260 C   0  0  0  0  0  0  0  0  0  0  0  0
   56.4960   30.4950   44.8630 O   0  0  0  0  0  0  0  0  0  0  0  0
   57.7960   30.1420   45.2550 C   0  0  0  0  0  0  0  0  0  0  0  0
   58.3150   28.8470   45.0530 C   0  0  0  0  0  0  0  0  0  0  0  0
   59.6130   28.5340   45.4670 C   0  0  0  0  0  0  0  0  0  0  0  0
   60.4060   29.5060   46.0810 C   0  0  0  0  0  0  0  0  0  0  0  0
   59.9030   30.7920   46.2840 C   0  0  0  0  0  0  0  0  0  0  0  0
   58.6020   31.1150   45.8730 C   0  0  0  0  0  0  0  0  0  0  0  0
   58.1020   32.4400   46.0960 N   0  0  0  0  0  0  0  0  0  0  0  0
   57.8380   32.8990   47.4610 C   0  0  0  0  0  0  0  0  0  0  0  0
   58.9200   33.8470   47.9030 C   0  0  0  0  0  0  0  0  0  0  0  0
   58.8950   35.0360   47.4890 O   0  0  0  0  0  0  0  0  0  0  0  0
   60.0550   33.4000   48.6580 N   0  0  0  0  0  0  0  0  0  0  0  0
   61.3990   33.2900   48.1730 C   0  0  0  0  0  0  0  0  0  0  0  0
   61.7230   33.8410   46.9260 C   0  0  0  0  0  0  0  0  0  0  0  0
   63.0310   33.7640   46.4390 C   0  0  0  0  0  0  0  0  0  0  0  0
   64.0280   33.1580   47.2080 C   0  0  0  0  0  0  0  0  0  0  0  0
   63.7210   32.6400   48.4690 C   0  0  0  0  0  0  0  0  0  0  0  0
   62.4140   32.7150   48.9570 C   0  0  0  0  0  0  0  0  0  0  0  0
   57.8980   33.5030   44.7340 S   0  0  0  0  0  0  0  0  0  0  0  0
   59.3130   34.5700   44.5790 C   0  0  0  0  0  0  0  0  0  0  0  0
   57.7450   32.7030   43.4710 O   0  0  0  0  0  0  0  0  0  0  0  0
   56.6640   34.3340   44.9290 O   0  0  0  0  0  0  0  0  0  0  0  0
   54.9744   29.5602   43.8196 H   0  0  0  0  0  0  0  0  0  0  0  0
   55.6566   31.0334   43.0510 H   0  0  0  0  0  0  0  0  0  0  0  0
   56.5969   29.5029   43.0510 H   0  0  0  0  0  0  0  0  0  0  0  0
   57.6954   28.0788   44.5671 H   0  0  0  0  0  0  0  0  0  0  0  0
   60.0104   27.5206   45.3089 H   0  0  0  0  0  0  0  0  0  0  0  0
   61.4276   29.2579   46.4048 H   0  0  0  0  0  0  0  0  0  0  0  0
   60.5298   31.5552   46.7684 H   0  0  0  0  0  0  0  0  0  0  0  0
   56.8670   33.4151   47.4905 H   0  0  0  0  0  0  0  0  0  0  0  0
   57.8197   32.0313   48.1368 H   0  0  0  0  0  0  0  0  0  0  0  0
   60.9443   34.3365   46.3275 H   0  0  0  0  0  0  0  0  0  0  0  0
   63.2754   34.1804   45.4506 H   0  0  0  0  0  0  0  0  0  0  0  0
   65.0551   33.0887   46.8205 H   0  0  0  0  0  0  0  0  0  0  0  0
   64.5090   32.1728   49.0779 H   0  0  0  0  0  0  0  0  0  0  0  0
   62.1787   32.3230   49.9575 H   0  0  0  0  0  0  0  0  0  0  0  0
   59.6768   34.8443   45.5802 H   0  0  0  0  0  0  0  0  0  0  0  0
   60.1093   34.0456   44.0305 H   0  0  0  0  0  0  0  0  0  0  0  0
   59.0278   35.4798   44.0305 H   0  0  0  0  0  0  0  0  0  0  0  0
  1  2  1  0
  2  3  1  0
  3  4  2  0
  4  5  1  0
  5  6  2  0
  6  7  1  0
  7  8  2  0
  8  9  1  0
  9 10  1  0
 10 11  1  0
 11 12  2  0
 11 13  1  0
 13 14  1  0
 14 15  2  0
 15 16  1  0
 16 17  2  0
 17 18  1  0
 18 19  2  0
  9 20  1  0
 20 21  1  0
 20 22  2  0
 20 23  2  0
  8  3  1  0
 19 14  1  0
  1 24  1  0
  1 25  1  0
  1 26  1  0
  4 27  1  0
  5 28  1  0
  6 29  1  0
  7 30  1  0
 10 31  1  0
 10 32  1  0
 15 33  1  0
 16 34  1  0
 17 35  1  0
 18 36  1  0
 19 37  1  0
 21 38  1  0
 21 39  1  0
 21 40  1  0
M  CHG  1  13  -1
M  END
>  <UniqueID>  (58) 
52

>  <SMILES>  (58) 
COc1ccccc1N(CC(=O)[N-]c1ccccc1)S(C)(=O)=O

>  <Energy>  (58) 
44.676335353698946

>  <Genealogy>  (58) 
COc1ccccc1N(CC(=O)[N-]c1ccccc1)S(C)(=O)=O (protonated)
COc1ccccc1N(CC(=O)[N-]c1ccccc1)S(C)(=O)=O (3D coordinates assigned)
COc1ccccc1N(CC(=O)[N-]c1ccccc1)S(C)(=O)=O (optimized conformer: 44.676335353698946 kcal/mol)

>  <smiles>  (58) 
COc1ccccc1N(CC(=O)Nc1ccccc1)S(C)(=O)=O

>  <score_type>  (58) 
oracle

>  <origin>  (58) 
adg

>  <m_score__min__energy>  (58) 
-8.6300000000000008

>  <m_primary>  (58) 
energy

$$$$
58:0
     RDKit          3D

 39 42  0  0  0  0  0  0  0  0999 V2000
   58.2080   32.3380   49.8350 C   0  0  0  0  0  0  0  0  0  0  0  0
   59.2580   32.8520   48.9330 N   0  0  2  0  0  0  0  0  0  0  0  0
   58.6750   33.7280   47.8770 C   0  0  0  0  0  0  0  0  0  0  0  0
   57.7680   32.9720   46.8790 C   0  0  0  0  0  0  0  0  0  0  0  0
   58.3930   31.6700   46.5050 C   0  0  0  0  0  0  0  0  0  0  0  0
   59.4110   31.0710   47.2180 C   0  0  0  0  0  0  0  0  0  0  0  0
   59.7450   29.8740   46.6830 N   0  0  0  0  0  0  0  0  0  0  0  0
   58.9090   29.7080   45.6390 C   0  0  0  0  0  0  0  0  0  0  0  0
   58.8450   28.6190   44.7720 C   0  0  0  0  0  0  0  0  0  0  0  0
   57.8800   28.6500   43.7480 C   0  0  0  0  0  0  0  0  0  0  0  0
   57.0090   29.7540   43.6150 C   0  0  0  0  0  0  0  0  0  0  0  0
   57.0950   30.8410   44.5030 C   0  0  0  0  0  0  0  0  0  0  0  0
   58.0620   30.7840   45.5050 C   0  0  0  0  0  0  0  0  0  0  0  0
   60.0920   31.7370   48.3830 C   0  0  1  0  0  0  0  0  0  0  0  0
   61.4890   32.2210   48.0160 C   0  0  0  0  0  0  0  0  0  0  0  0
   61.7240   33.0510   46.9010 C   0  0  0  0  0  0  0  0  0  0  0  0
   63.0160   33.5050   46.6160 C   0  0  0  0  0  0  0  0  0  0  0  0
   64.0830   33.1480   47.4430 C   0  0  0  0  0  0  0  0  0  0  0  0
   63.8600   32.3410   48.5610 C   0  0  0  0  0  0  0  0  0  0  0  0
   64.8960   32.0040   49.3700 F   0  0  0  0  0  0  0  0  0  0  0  0
   62.5700   31.8840   48.8500 C   0  0  0  0  0  0  0  0  0  0  0  0
   58.5163   32.4889   50.8801 H   0  0  0  0  0  0  0  0  0  0  0  0
   57.2679   32.8778   49.6484 H   0  0  0  0  0  0  0  0  0  0  0  0
   58.0576   31.2644   49.6484 H   0  0  0  0  0  0  0  0  0  0  0  0
   59.8720   33.4610   49.5270 H   0  0  0  0  0  0  0  0  0  0  0  0
   58.0774   34.5116   48.3657 H   0  0  0  0  0  0  0  0  0  0  0  0
   59.5152   34.1422   47.3004 H   0  0  0  0  0  0  0  0  0  0  0  0
   56.7895   32.7854   47.3457 H   0  0  0  0  0  0  0  0  0  0  0  0
   57.6397   33.5836   45.9737 H   0  0  0  0  0  0  0  0  0  0  0  0
   60.4920   29.2210   47.0090 H   0  0  0  0  0  0  0  0  0  0  0  0
   59.5266   27.7629   44.8843 H   0  0  0  0  0  0  0  0  0  0  0  0
   57.8034   27.8073   43.0452 H   0  0  0  0  0  0  0  0  0  0  0  0
   56.2582   29.7635   42.8112 H   0  0  0  0  0  0  0  0  0  0  0  0
   56.4223   31.7063   44.4100 H   0  0  0  0  0  0  0  0  0  0  0  0
   60.2050   30.9804   49.1735 H   0  0  0  0  0  0  0  0  0  0  0  0
   60.8861   33.3434   46.2510 H   0  0  0  0  0  0  0  0  0  0  0  0
   63.1919   34.1446   45.7385 H   0  0  0  0  0  0  0  0  0  0  0  0
   65.0989   33.5022   47.2140 H   0  0  0  0  0  0  0  0  0  0  0  0
   62.3997   31.2559   49.7368 H   0  0  0  0  0  0  0  0  0  0  0  0
  1  2  1  0
  2  3  1  0
  3  4  1  0
  4  5  1  0
  5  6  2  0
  6  7  1  0
  7  8  1  0
  8  9  2  0
  9 10  1  0
 10 11  2  0
 11 12  1  0
 12 13  2  0
  6 14  1  0
 14 15  1  0
 15 16  2  0
 16 17  1  0
 17 18  2  0
 18 19  1  0
 19 20  1  0
 19 21  2  0
 14  2  1  0
 21 15  1  0
 13  5  1  0
 13  8  1  0
  1 22  1  0
  1 23  1  0
  1 24  1  0
  2 25  1  1
  3 26  1  0
  3 27  1  0
  4 28  1  0
  4 29  1  0
  7 30  1  0
  9 31  1  0
 10 32  1  0
 11 33  1  0
 12 34  1  0
 14 35  1  1
 16 36  1  0
 17 37  1  0
 18 38  1  0
 21 39  1  0
M  CHG  1   2   1
M  END
>  <UniqueID>  (59) 
53

>  <SMILES>  (59) 
C[N@@H+]1CCc2c([nH]c3ccccc23)[C@H]1c1cccc(F)c1

>  <Energy>  (59) 
84.38178996040683

>  <Genealogy>  (59) 
C[NH+]1CCc2c([nH]c3ccccc23)C1c1cccc(F)c1 (protonated)
C[N@@H+]1CCc2c([nH]c3ccccc23)[C@H]1c1cccc(F)c1 (chirality)
C[N@@H+]1CCc2c([nH]c3ccccc23)[C@H]1c1cccc(F)c1 (3D coordinates assigned)
C[N@@H+]1CCc2c([nH]c3ccccc23)[C@H]1c1cccc(F)c1 (nonaromatic ring conformer: 84.38178996040683 kcal/mol)

>  <smiles>  (59) 
CN1CCc2c([nH]c3ccccc23)C1c1cccc(F)c1

>  <score_type>  (59) 
oracle

>  <origin>  (59) 
adg

>  <m_score__min__energy>  (59) 
-5.4000000000000004

>  <m_primary>  (59) 
energy

$$$$
59:0
     RDKit          3D

 27 28  0  0  0  0  0  0  0  0999 V2000
   57.0100   34.2630   44.8990 O   0  0  0  0  0  0  0  0  0  0  0  0
   58.3930   33.6750   44.9100 S   0  0  0  0  0  0  0  0  0  0  0  0
   59.3390   34.6330   44.2440 O   0  0  0  0  0  0  0  0  0  0  0  0
   58.3800   32.1790   44.0290 N   0  0  0  0  0  0  0  0  0  0  0  0
   57.6730   31.0010   44.4560 C   0  0  0  0  0  0  0  0  0  0  0  0
   56.3270   30.8390   44.0890 C   0  0  0  0  0  0  0  0  0  0  0  0
   55.6150   29.7030   44.4790 C   0  0  0  0  0  0  0  0  0  0  0  0
   56.2370   28.7130   45.2440 C   0  0  0  0  0  0  0  0  0  0  0  0
   55.5190   27.5840   45.6240 O   0  0  0  0  0  0  0  0  0  0  0  0
   57.5760   28.8640   45.6250 C   0  0  0  0  0  0  0  0  0  0  0  0
   58.4490   27.5230   46.6730 Br  0  0  0  0  0  0  0  0  0  0  0  0
   58.2890   30.0040   45.2360 C   0  0  0  0  0  0  0  0  0  0  0  0
   58.9390   33.3960   46.5610 C   0  0  0  0  0  0  0  0  0  0  0  0
   58.1030   32.7360   47.4730 C   0  0  0  0  0  0  0  0  0  0  0  0
   58.5250   32.5250   48.7890 C   0  0  0  0  0  0  0  0  0  0  0  0
   59.7860   32.9690   49.1980 C   0  0  0  0  0  0  0  0  0  0  0  0
   60.6260   33.6220   48.2920 C   0  0  0  0  0  0  0  0  0  0  0  0
   60.2050   33.8350   46.9740 C   0  0  0  0  0  0  0  0  0  0  0  0
   58.9850   32.1260   43.1790 H   0  0  0  0  0  0  0  0  0  0  0  0
   55.8290   31.6145   43.4886 H   0  0  0  0  0  0  0  0  0  0  0  0
   54.5619   29.5872   44.1833 H   0  0  0  0  0  0  0  0  0  0  0  0
   59.3389   30.1218   45.5422 H   0  0  0  0  0  0  0  0  0  0  0  0
   57.1119   32.3831   47.1519 H   0  0  0  0  0  0  0  0  0  0  0  0
   57.8651   32.0098   49.5025 H   0  0  0  0  0  0  0  0  0  0  0  0
   60.1173   32.8042   50.2339 H   0  0  0  0  0  0  0  0  0  0  0  0
   61.6187   33.9689   48.6147 H   0  0  0  0  0  0  0  0  0  0  0  0
   60.8682   34.3474   46.2615 H   0  0  0  0  0  0  0  0  0  0  0  0
  1  2  2  0
  2  3  2  0
  2  4  1  0
  4  5  1  0
  5  6  2  0
  6  7  1  0
  7  8  2  0
  8  9  1  0
  8 10  1  0
 10 11  1  0
 10 12  2  0
  2 13  1  0
 13 14  2  0
 14 15  1  0
 15 16  2  0
 16 17  1  0
 17 18  2  0
 12  5  1  0
 18 13  1  0
  4 19  1  0
  6 20  1  0
  7 21  1  0
 12 22  1  0
 14 23  1  0
 15 24  1  0
 16 25  1  0
 17 26  1  0
 18 27  1  0
M  CHG  1   9  -1
M  END
>  <UniqueID>  (60) 
54

>  <SMILES>  (60) 
O=S(=O)(Nc1ccc([O-])c(Br)c1)c1ccccc1

>  <Energy>  (60) 
30.601295637458772

>  <Genealogy>  (60) 
O=S(=O)(Nc1ccc([O-])c(Br)c1)c1ccccc1 (protonated)
O=S(=O)(Nc1ccc([O-])c(Br)c1)c1ccccc1 (3D coordinates assigned)
O=S(=O)(Nc1ccc([O-])c(Br)c1)c1ccccc1 (optimized conformer: 30.601295637458772 kcal/mol)

>  <smiles>  (60) 
O=S(=O)(Nc1ccc(O)c(Br)c1)c1ccccc1

>  <score_type>  (60) 
oracle

>  <origin>  (60) 
adg

>  <m_score__min__energy>  (60) 
-10.4

>  <m_primary>  (60) 
energy

$$$$
60:0
     RDKit          3D

 39 41  0  0  0  0  0  0  0  0999 V2000
   56.0740   30.4590   44.4960 O   0  0  0  0  0  0  0  0  0  0  0  0
   57.3290   30.5820   44.5570 C   0  0  0  0  0  0  0  0  0  0  0  0
   57.8750   31.8760   45.0090 C   0  0  0  0  0  0  0  0  0  0  0  0
   58.1160   32.9140   44.0950 C   0  0  0  0  0  0  0  0  0  0  0  0
   58.6620   34.1250   44.5340 C   0  0  0  0  0  0  0  0  0  0  0  0
   58.9510   34.3120   45.8890 C   0  0  0  0  0  0  0  0  0  0  0  0
   59.4810   35.4860   46.3130 F   0  0  0  0  0  0  0  0  0  0  0  0
   58.6830   33.2930   46.8070 C   0  0  0  0  0  0  0  0  0  0  0  0
   58.1400   32.0800   46.3710 C   0  0  0  0  0  0  0  0  0  0  0  0
   58.1770   29.4680   44.1650 N   0  0  0  0  0  0  0  0  0  0  0  0
   57.6330   28.1510   44.5950 C   0  0  0  0  0  0  0  0  0  0  0  0
   57.9780   27.7810   46.0530 C   0  0  0  0  0  0  0  0  0  0  0  0
   59.3360   28.1990   46.4120 N   0  0  0  0  0  0  0  0  0  0  0  0
   59.6990   28.3820   47.7980 C   0  0  0  0  0  0  0  0  0  0  0  0
   59.2570   29.5170   48.5040 C   0  0  0  0  0  0  0  0  0  0  0  0
   59.5680   29.6790   49.8570 C   0  0  0  0  0  0  0  0  0  0  0  0
   60.3280   28.7150   50.5200 C   0  0  0  0  0  0  0  0  0  0  0  0
   60.7800   27.5870   49.8310 C   0  0  0  0  0  0  0  0  0  0  0  0
   60.4690   27.4170   48.4780 C   0  0  0  0  0  0  0  0  0  0  0  0
   60.9490   26.3260   47.8310 F   0  0  0  0  0  0  0  0  0  0  0  0
   60.2440   28.5840   45.3310 C   0  0  0  0  0  0  0  0  0  0  0  0
   59.6080   29.7140   44.5140 C   0  0  0  0  0  0  0  0  0  0  0  0
   57.8749   32.7748   43.0308 H   0  0  0  0  0  0  0  0  0  0  0  0
   58.8640   34.9305   43.8126 H   0  0  0  0  0  0  0  0  0  0  0  0
   58.8995   33.4452   47.8747 H   0  0  0  0  0  0  0  0  0  0  0  0
   57.9203   31.2843   47.0980 H   0  0  0  0  0  0  0  0  0  0  0  0
   58.1340   29.4390   43.1170 H   0  0  0  0  0  0  0  0  0  0  0  0
   56.5380   28.1783   44.4939 H   0  0  0  0  0  0  0  0  0  0  0  0
   58.0961   27.3877   43.9524 H   0  0  0  0  0  0  0  0  0  0  0  0
   57.2628   28.2774   46.7254 H   0  0  0  0  0  0  0  0  0  0  0  0
   57.9187   26.6871   46.1522 H   0  0  0  0  0  0  0  0  0  0  0  0
   58.6615   30.2833   47.9861 H   0  0  0  0  0  0  0  0  0  0  0  0
   59.2131   30.5676   50.3997 H   0  0  0  0  0  0  0  0  0  0  0  0
   60.5712   28.8432   51.5851 H   0  0  0  0  0  0  0  0  0  0  0  0
   61.3825   26.8299   50.3543 H   0  0  0  0  0  0  0  0  0  0  0  0
   61.1971   28.9302   45.7574 H   0  0  0  0  0  0  0  0  0  0  0  0
   60.4297   27.7174   44.6794 H   0  0  0  0  0  0  0  0  0  0  0  0
   59.6682   30.6430   45.1000 H   0  0  0  0  0  0  0  0  0  0  0  0
   60.1640   29.7794   43.5671 H   0  0  0  0  0  0  0  0  0  0  0  0
  1  2  2  0
  2  3  1  0
  3  4  2  0
  4  5  1  0
  5  6  2  0
  6  7  1  0
  6  8  1  0
  8  9  2  0
  2 10  1  0
 10 11  1  0
 11 12  1  0
 12 13  1  0
 13 14  1  0
 14 15  2  0
 15 16  1  0
 16 17  2  0
 17 18  1  0
 18 19  2  0
 19 20  1  0
 13 21  1  0
 21 22  1  0
  9  3  1  0
 22 10  1  0
 19 14  1  0
  4 23  1  0
  5 24  1  0
  8 25  1  0
  9 26  1  0
 10 27  1  0
 11 28  1  0
 11 29  1  0
 12 30  1  0
 12 31  1  0
 15 32  1  0
 16 33  1  0
 17 34  1  0
 18 35  1  0
 21 36  1  0
 21 37  1  0
 22 38  1  0
 22 39  1  0
M  CHG  1  10   1
M  END
>  <UniqueID>  (61) 
55

>  <SMILES>  (61) 
O=C(c1ccc(F)cc1)[NH+]1CCN(c2ccccc2F)CC1

>  <Energy>  (61) 
63.26653114134583

>  <Genealogy>  (61) 
O=C(c1ccc(F)cc1)[NH+]1CCN(c2ccccc2F)CC1 (protonated)
O=C(c1ccc(F)cc1)[NH+]1CCN(c2ccccc2F)CC1 (3D coordinates assigned)
O=C(c1ccc(F)cc1)[NH+]1CCN(c2ccccc2F)CC1 (nonaromatic ring conformer: 63.26653114134583 kcal/mol)

>  <smiles>  (61) 
O=C(c1ccc(F)cc1)N1CCN(c2ccccc2F)CC1

>  <score_type>  (61) 
oracle

>  <origin>  (61) 
adg

>  <m_score__min__energy>  (61) 
-5.6500000000000004

>  <m_primary>  (61) 
energy

$$$$
61:0
     RDKit          3D

 33 34  0  0  0  0  0  0  0  0999 V2000
   54.1712   23.9916   43.8660 H   0  0  0  0  0  0  0  0  0  0  0  0
   53.9810   23.7720   44.9270 C   0  0  0  0  0  0  0  0  0  0  0  0
   53.0940   22.9410   45.2510 O   0  0  0  0  0  0  0  0  0  0  0  0
   54.7410   24.4300   45.9440 N   0  0  0  0  0  0  0  0  0  0  0  0
   55.5900   25.3840   45.7110 C   0  0  0  0  0  0  0  0  0  0  0  0
   55.3610   26.6870   45.9960 N   0  0  0  0  0  0  0  0  0  0  0  0
   56.4200   27.4640   45.6470 C   0  0  0  0  0  0  0  0  0  0  0  0
   56.4323   28.5541   45.7934 H   0  0  0  0  0  0  0  0  0  0  0  0
   57.4860   26.7680   45.0900 C   0  0  0  0  0  0  0  0  0  0  0  0
   59.0270   27.4900   44.5290 S   0  0  0  0  0  0  0  0  0  0  0  0
   59.1290   28.7070   45.8870 C   0  0  0  0  0  0  0  0  0  0  0  0
   60.1842   28.8587   46.1580 H   0  0  0  0  0  0  0  0  0  0  0  0
   58.5659   28.3230   46.7504 H   0  0  0  0  0  0  0  0  0  0  0  0
   58.5370   30.0130   45.4680 C   0  0  0  0  0  0  0  0  0  0  0  0
   57.6210   30.1330   44.4840 N   0  0  0  0  0  0  0  0  0  0  0  0
   57.3960   31.4600   44.4290 C   0  0  0  0  0  0  0  0  0  0  0  0
   56.7003   31.9619   43.7404 H   0  0  0  0  0  0  0  0  0  0  0  0
   58.1800   32.0890   45.3770 C   0  0  0  0  0  0  0  0  0  0  0  0
   58.2630   33.5760   45.6520 C   0  0  0  0  0  0  0  0  0  0  0  0
   58.4820   33.8030   47.1600 C   0  0  0  0  0  0  0  0  0  0  0  0
   57.8293   33.1265   47.7312 H   0  0  0  0  0  0  0  0  0  0  0  0
   59.5329   33.5987   47.4127 H   0  0  0  0  0  0  0  0  0  0  0  0
   58.2401   34.8459   47.4127 H   0  0  0  0  0  0  0  0  0  0  0  0
   59.4350   34.1830   44.8580 C   0  0  0  0  0  0  0  0  0  0  0  0
   60.1887   34.5734   45.5577 H   0  0  0  0  0  0  0  0  0  0  0  0
   59.8897   33.4070   44.2246 H   0  0  0  0  0  0  0  0  0  0  0  0
   59.0636   35.0021   44.2246 H   0  0  0  0  0  0  0  0  0  0  0  0
   56.9520   34.2650   45.2240 C   0  0  0  0  0  0  0  0  0  0  0  0
   56.3853   34.5628   46.1185 H   0  0  0  0  0  0  0  0  0  0  0  0
   57.1855   35.1569   44.6240 H   0  0  0  0  0  0  0  0  0  0  0  0
   56.3498   33.5669   44.6240 H   0  0  0  0  0  0  0  0  0  0  0  0
   58.8700   31.1660   46.0020 O   0  0  0  0  0  0  0  0  0  0  0  0
   57.1020   25.1320   45.0200 S   0  0  0  0  0  0  0  0  0  0  0  0
  1  2  1  0
  2  3  2  0
  2  4  1  0
  4  5  2  0
  5  6  1  0
  6  7  1  0
  7  8  1  0
  7  9  2  0
  9 10  1  0
 10 11  1  0
 11 12  1  0
 11 13  1  0
 11 14  1  0
 14 15  2  0
 15 16  1  0
 16 17  1  0
 16 18  2  0
 18 19  1  0
 19 20  1  0
 20 21  1  0
 20 22  1  0
 20 23  1  0
 19 24  1  0
 24 25  1  0
 24 26  1  0
 24 27  1  0
 19 28  1  0
 28 29  1  0
 28 30  1  0
 28 31  1  0
 18 32  1  0
  9 33  1  0
 33  5  1  0
 32 14  1  0
M  CHG  1   6  -1
M  END
>  <UniqueID>  (62) 
56

>  <SMILES>  (62) 
CC(C)(C)c1cnc(CSc2c[n-]/c(=N\C=O)s2)o1

>  <Energy>  (62) 
82.11664458289933

>  <Genealogy>  (62) 
CC(C)(C)c1cnc(CSc2c[n-]c(=NC=O)s2)o1 (protonated)
CC(C)(C)c1cnc(CSc2c[n-]/c(=N\C=O)s2)o1 (cis-trans isomerization)
CC(C)(C)c1cnc(CSc2c[n-]/c(=N\C=O)s2)o1 (3D coordinates assigned)
CC(C)(C)c1cnc(CSc2c[n-]/c(=N\C=O)s2)o1 (optimized conformer: 82.11664458289933 kcal/mol)

>  <smiles>  (62) 
CC(C)(C)c1cnc(CSc2c[nH]c(=NC=O)s2)o1

>  <score_type>  (62) 
oracle

>  <origin>  (62) 
adg

>  <m_score__min__energy>  (62) 
-9.25

>  <m_primary>  (62) 
energy

$$$$
62:0
     RDKit          3D

 33 34  0  0  0  0  0  0  0  0999 V2000
   56.9790   21.0740   42.9940 C   0  0  0  0  0  0  0  0  0  0  0  0
   56.0180   22.0540   43.3670 O   0  0  0  0  0  0  0  0  0  0  0  0
   56.2920   23.0710   44.2870 C   0  0  0  0  0  0  0  0  0  0  0  0
   55.3130   24.0280   44.5650 C   0  0  0  0  0  0  0  0  0  0  0  0
   55.5870   25.0460   45.4820 C   0  0  0  0  0  0  0  0  0  0  0  0
   54.6400   25.9750   45.7590 F   0  0  0  0  0  0  0  0  0  0  0  0
   56.8380   25.1110   46.1030 C   0  0  0  0  0  0  0  0  0  0  0  0
   57.0870   26.1320   47.0320 O   0  0  0  0  0  0  0  0  0  0  0  0
   57.7710   27.3270   46.7640 C   0  0  0  0  0  0  0  0  0  0  0  0
   58.5530   27.8950   47.7750 C   0  0  0  0  0  0  0  0  0  0  0  0
   59.2460   29.0860   47.5480 C   0  0  0  0  0  0  0  0  0  0  0  0
   59.1460   29.7320   46.3130 C   0  0  0  0  0  0  0  0  0  0  0  0
   58.3300   29.1990   45.2990 C   0  0  0  0  0  0  0  0  0  0  0  0
   58.2150   29.8360   44.0140 N   0  0  0  0  0  0  0  0  0  0  0  0
   57.2890   30.8920   43.7180 C   0  0  0  0  0  0  0  0  0  0  0  0
   57.3810   31.6190   42.4170 C   0  0  0  0  0  0  0  0  0  0  0  0
   56.3430   31.1590   44.5090 O   0  0  0  0  0  0  0  0  0  0  0  0
   57.6550   27.9900   45.5280 C   0  0  0  0  0  0  0  0  0  0  0  0
   57.7900   24.1190   45.8100 C   0  0  0  0  0  0  0  0  0  0  0  0
   57.4990   23.1370   44.9170 N   0  0  0  0  0  0  0  0  0  0  0  0
   57.4172   20.6272   43.8986 H   0  0  0  0  0  0  0  0  0  0  0  0
   56.4903   20.2896   42.3974 H   0  0  0  0  0  0  0  0  0  0  0  0
   57.7728   21.5473   42.3974 H   0  0  0  0  0  0  0  0  0  0  0  0
   54.3339   23.9805   44.0658 H   0  0  0  0  0  0  0  0  0  0  0  0
   58.6226   27.4005   48.7551 H   0  0  0  0  0  0  0  0  0  0  0  0
   59.8721   29.5166   48.3433 H   0  0  0  0  0  0  0  0  0  0  0  0
   59.7075   30.6607   46.1332 H   0  0  0  0  0  0  0  0  0  0  0  0
   58.7820   29.4540   43.2240 H   0  0  0  0  0  0  0  0  0  0  0  0
   57.5170   32.6940   42.6065 H   0  0  0  0  0  0  0  0  0  0  0  0
   58.2379   31.2365   41.8430 H   0  0  0  0  0  0  0  0  0  0  0  0
   56.4558   31.4620   41.8430 H   0  0  0  0  0  0  0  0  0  0  0  0
   57.0293   27.5565   44.7339 H   0  0  0  0  0  0  0  0  0  0  0  0
   58.7724   24.1378   46.3046 H   0  0  0  0  0  0  0  0  0  0  0  0
  1  2  1  0
  2  3  1  0
  3  4  2  0
  4  5  1  0
  5  6  1  0
  5  7  2  0
  7  8  1  0
  8  9  1  0
  9 10  2  0
 10 11  1  0
 11 12  2  0
 12 13  1  0
 13 14  1  0
 14 15  1  0
 15 16  1  0
 15 17  2  0
 13 18  2  0
  7 19  1  0
 19 20  2  0
 20  3  1  0
 18  9  1  0
  1 21  1  0
  1 22  1  0
  1 23  1  0
  4 24  1  0
 10 25  1  0
 11 26  1  0
 12 27  1  0
 14 28  1  0
 16 29  1  0
 16 30  1  0
 16 31  1  0
 18 32  1  0
 19 33  1  0
M  END
>  <UniqueID>  (63) 
57

>  <SMILES>  (63) 
COc1cc(F)c(Oc2cccc(NC(C)=O)c2)cn1

>  <Energy>  (63) 
40.06442668533914

>  <Genealogy>  (63) 
COc1cc(F)c(Oc2cccc(NC(C)=O)c2)cn1 (3D coordinates assigned)
COc1cc(F)c(Oc2cccc(NC(C)=O)c2)cn1 (optimized conformer: 40.06442668533914 kcal/mol)

>  <smiles>  (63) 
COc1cc(F)c(Oc2cccc(NC(C)=O)c2)cn1

>  <score_type>  (63) 
oracle

>  <origin>  (63) 
adg

>  <m_score__min__energy>  (63) 
-6.8700000000000001

>  <m_primary>  (63) 
energy

$$$$
63:0
     RDKit          3D

 57 60  0  0  0  0  0  0  0  0999 V2000
   57.5170   30.5110   43.7890 C   0  0  0  0  0  0  0  0  0  0  0  0
   56.9830   29.3700   44.6480 C   0  0  0  0  0  0  0  0  0  0  0  0
   58.0740   28.4580   45.0180 N   0  0  0  0  0  0  0  0  0  0  0  0
   58.3790   27.2980   44.1730 C   0  0  0  0  0  0  0  0  0  0  0  0
   57.4900   26.1430   44.5380 C   0  0  0  0  0  0  0  0  0  0  0  0
   56.7280   26.1890   45.7180 C   0  0  0  0  0  0  0  0  0  0  0  0
   55.8920   25.1170   46.0520 C   0  0  0  0  0  0  0  0  0  0  0  0
   55.8170   23.9970   45.2180 C   0  0  0  0  0  0  0  0  0  0  0  0
   56.5690   23.9490   44.0390 C   0  0  0  0  0  0  0  0  0  0  0  0
   56.4780   22.5410   42.9960 Cl  0  0  0  0  0  0  0  0  0  0  0  0
   57.3980   25.0220   43.6940 C   0  0  0  0  0  0  0  0  0  0  0  0
   58.7800   28.6350   46.2580 C   0  0  0  0  0  0  0  0  0  0  0  0
   59.5480   27.5950   46.8010 C   0  0  0  0  0  0  0  0  0  0  0  0
   60.3020   27.8090   47.9580 C   0  0  0  0  0  0  0  0  0  0  0  0
   60.3090   29.0670   48.5710 C   0  0  0  0  0  0  0  0  0  0  0  0
   59.5520   30.1170   48.0390 C   0  0  0  0  0  0  0  0  0  0  0  0
   59.6320   31.3790   48.6520 O   0  0  0  0  0  0  0  0  0  0  0  0
   58.6110   32.3780   48.6030 C   0  0  0  0  0  0  0  0  0  0  0  0
   58.6150   33.0940   47.2650 C   0  0  0  0  0  0  0  0  0  0  0  0
   57.4210   33.1390   46.5240 C   0  0  0  0  0  0  0  0  0  0  0  0
   57.3420   33.8830   45.3470 C   0  0  0  0  0  0  0  0  0  0  0  0
   58.4530   34.5850   44.8860 C   0  0  0  0  0  0  0  0  0  0  0  0
   59.6590   34.5220   45.5860 C   0  0  0  0  0  0  0  0  0  0  0  0
   59.7640   33.7620   46.7630 C   0  0  0  0  0  0  0  0  0  0  0  0
   61.0790   33.6800   47.4380 C   0  0  0  0  0  0  0  0  0  0  0  0
   62.1720   33.0760   46.7930 C   0  0  0  0  0  0  0  0  0  0  0  0
   63.4150   33.0070   47.4300 C   0  0  0  0  0  0  0  0  0  0  0  0
   63.5690   33.5270   48.7190 C   0  0  0  0  0  0  0  0  0  0  0  0
   62.4810   34.1120   49.3750 C   0  0  0  0  0  0  0  0  0  0  0  0
   61.2380   34.1850   48.7400 C   0  0  0  0  0  0  0  0  0  0  0  0
   58.7600   29.8820   46.8990 C   0  0  0  0  0  0  0  0  0  0  0  0
   57.8931   31.3146   44.4393 H   0  0  0  0  0  0  0  0  0  0  0  0
   58.3350   30.1401   43.1540 H   0  0  0  0  0  0  0  0  0  0  0  0
   56.7081   30.9015   43.1540 H   0  0  0  0  0  0  0  0  0  0  0  0
   56.5304   29.7840   45.5611 H   0  0  0  0  0  0  0  0  0  0  0  0
   56.2287   28.8120   44.0739 H   0  0  0  0  0  0  0  0  0  0  0  0
   58.2152   27.5636   43.1182 H   0  0  0  0  0  0  0  0  0  0  0  0
   59.4283   27.0066   44.3280 H   0  0  0  0  0  0  0  0  0  0  0  0
   56.7885   27.0665   46.3785 H   0  0  0  0  0  0  0  0  0  0  0  0
   55.2922   25.1558   46.9733 H   0  0  0  0  0  0  0  0  0  0  0  0
   55.1661   23.1528   45.4892 H   0  0  0  0  0  0  0  0  0  0  0  0
   57.9790   24.9886   42.7606 H   0  0  0  0  0  0  0  0  0  0  0  0
   59.5570   26.6082   46.3150 H   0  0  0  0  0  0  0  0  0  0  0  0
   60.8918   26.9861   48.3882 H   0  0  0  0  0  0  0  0  0  0  0  0
   60.9127   29.2314   49.4757 H   0  0  0  0  0  0  0  0  0  0  0  0
   57.6319   31.8994   48.7520 H   0  0  0  0  0  0  0  0  0  0  0  0
   58.8038   33.1156   49.3959 H   0  0  0  0  0  0  0  0  0  0  0  0
   56.5403   32.5818   46.8761 H   0  0  0  0  0  0  0  0  0  0  0  0
   56.3993   33.9154   44.7811 H   0  0  0  0  0  0  0  0  0  0  0  0
   58.3801   35.1894   43.9698 H   0  0  0  0  0  0  0  0  0  0  0  0
   60.5352   35.0724   45.2127 H   0  0  0  0  0  0  0  0  0  0  0  0
   62.0493   32.6561   45.7837 H   0  0  0  0  0  0  0  0  0  0  0  0
   64.2711   32.5440   46.9175 H   0  0  0  0  0  0  0  0  0  0  0  0
   64.5479   33.4758   49.2181 H   0  0  0  0  0  0  0  0  0  0  0  0
   62.6036   34.5148   50.3912 H   0  0  0  0  0  0  0  0  0  0  0  0
   60.3819   34.6389   49.2606 H   0  0  0  0  0  0  0  0  0  0  0  0
   58.1187   30.6851   46.5070 H   0  0  0  0  0  0  0  0  0  0  0  0
  1  2  1  0
  2  3  1  0
  3  4  1  0
  4  5  1  0
  5  6  2  0
  6  7  1  0
  7  8  2  0
  8  9  1  0
  9 10  1  0
  9 11  2  0
  3 12  1  0
 12 13  2  0
 13 14  1  0
 14 15  2  0
 15 16  1  0
 16 17  1  0
 17 18  1  0
 18 19  1  0
 19 20  2  0
 20 21  1  0
 21 22  2  0
 22 23  1  0
 23 24  2  0
 24 25  1  0
 25 26  2  0
 26 27  1  0
 27 28  2  0
 28 29  1  0
 29 30  2  0
 16 31  2  0
 11  5  1  0
 31 12  1  0
 24 19  1  0
 30 25  1  0
  1 32  1  0
  1 33  1  0
  1 34  1  0
  2 35  1  0
  2 36  1  0
  4 37  1  0
  4 38  1  0
  6 39  1  0
  7 40  1  0
  8 41  1  0
 11 42  1  0
 13 43  1  0
 14 44  1  0
 15 45  1  0
 18 46  1  0
 18 47  1  0
 20 48  1  0
 21 49  1  0
 22 50  1  0
 23 51  1  0
 26 52  1  0
 27 53  1  0
 28 54  1  0
 29 55  1  0
 30 56  1  0
 31 57  1  0
M  END
>  <UniqueID>  (64) 
58

>  <SMILES>  (64) 
CCN(Cc1cccc(Cl)c1)c1cccc(OCc2ccccc2-c2ccccc2)c1

>  <Energy>  (64) 
65.90804765223649

>  <Genealogy>  (64) 
CCN(Cc1cccc(Cl)c1)c1cccc(OCc2ccccc2-c2ccccc2)c1 (3D coordinates assigned)
CCN(Cc1cccc(Cl)c1)c1cccc(OCc2ccccc2-c2ccccc2)c1 (optimized conformer: 65.90804765223649 kcal/mol)

>  <smiles>  (64) 
CCN(Cc1cccc(Cl)c1)c1cccc(OCc2ccccc2-c2ccccc2)c1

>  <score_type>  (64) 
oracle

>  <origin>  (64) 
adg

>  <m_score__min__energy>  (64) 
-9.3599999999999994

>  <m_primary>  (64) 
energy

$$$$
64:0
     RDKit          3D

 55 58  0  0  0  0  0  0  0  0999 V2000
   57.6278   33.0733   44.0945 H   0  0  0  0  0  0  0  0  0  0  0  0
   58.1580   32.3820   44.7660 C   0  0  0  0  0  0  0  0  0  0  0  0
   58.4020   31.1470   44.2980 C   0  0  0  0  0  0  0  0  0  0  0  0
   59.1558   31.0456   43.5033 H   0  0  0  0  0  0  0  0  0  0  0  0
   57.7360   29.9120   44.7680 C   0  0  0  0  0  0  0  0  0  0  0  0
   56.3620   29.7800   44.5080 C   0  0  0  0  0  0  0  0  0  0  0  0
   55.8355   30.5721   43.9553 H   0  0  0  0  0  0  0  0  0  0  0  0
   55.6770   28.6900   44.9290 N   0  0  0  0  0  0  0  0  0  0  0  0
   56.2800   27.6920   45.6180 C   0  0  0  0  0  0  0  0  0  0  0  0
   55.6944   26.8183   45.9401 H   0  0  0  0  0  0  0  0  0  0  0  0
   57.6420   27.7660   45.9220 C   0  0  0  0  0  0  0  0  0  0  0  0
   58.2470   26.6800   46.6590 C   0  0  0  0  0  0  0  0  0  0  0  0
   58.7310   25.8110   47.2490 N   0  0  0  0  0  0  0  0  0  0  0  0
   58.3990   28.8820   45.5040 C   0  0  0  0  0  0  0  0  0  0  0  0
   59.6770   28.8900   45.8010 N   0  0  0  0  0  0  0  0  0  0  0  0
   60.3750   29.6560   46.7910 C   0  0  0  0  0  0  0  0  0  0  0  0
   61.3910   30.5280   46.3790 C   0  0  0  0  0  0  0  0  0  0  0  0
   61.6431   30.6076   45.3112 H   0  0  0  0  0  0  0  0  0  0  0  0
   62.0860   31.2970   47.3150 C   0  0  0  0  0  0  0  0  0  0  0  0
   62.8941   31.9666   46.9854 H   0  0  0  0  0  0  0  0  0  0  0  0
   61.7550   31.2160   48.6700 C   0  0  0  0  0  0  0  0  0  0  0  0
   62.6320   32.1790   49.8460 Cl  0  0  0  0  0  0  0  0  0  0  0  0
   60.7160   30.3780   49.0860 C   0  0  0  0  0  0  0  0  0  0  0  0
   60.4523   30.3254   50.1526 H   0  0  0  0  0  0  0  0  0  0  0  0
   60.0060   29.6030   48.1550 C   0  0  0  0  0  0  0  0  0  0  0  0
   58.8720   28.7490   48.6490 C   0  0  0  0  0  0  0  0  0  0  0  0
   58.8676   28.7457   49.7490 H   0  0  0  0  0  0  0  0  0  0  0  0
   57.9189   29.1556   48.2798 H   0  0  0  0  0  0  0  0  0  0  0  0
   58.9995   27.7207   48.2798 H   0  0  0  0  0  0  0  0  0  0  0  0
   58.5360   32.9020   46.1030 C   0  0  0  0  0  0  0  0  0  0  0  0
   58.1430   32.1790   47.2390 C   0  0  0  0  0  0  0  0  0  0  0  0
   57.5377   31.2679   47.1224 H   0  0  0  0  0  0  0  0  0  0  0  0
   58.5130   32.6050   48.5170 C   0  0  0  0  0  0  0  0  0  0  0  0
   58.1736   32.0421   49.3990 H   0  0  0  0  0  0  0  0  0  0  0  0
   59.3140   33.7450   48.6850 C   0  0  0  0  0  0  0  0  0  0  0  0
   59.7390   34.1920   50.0720 C   0  0  0  0  0  0  0  0  0  0  0  0
   60.7764   34.5529   50.0129 H   0  0  0  0  0  0  0  0  0  0  0  0
   59.0267   34.9719   50.3793 H   0  0  0  0  0  0  0  0  0  0  0  0
   59.6760   33.1330   51.1110 N   0  0  0  0  0  0  0  0  0  0  0  0
   60.5170   33.3940   52.2840 C   0  0  0  0  0  0  0  0  0  0  0  0
   61.0113   32.4648   52.6038 H   0  0  0  0  0  0  0  0  0  0  0  0
   61.2930   34.1352   52.0421 H   0  0  0  0  0  0  0  0  0  0  0  0
   59.6170   33.9120   53.3990 C   0  0  0  0  0  0  0  0  0  0  0  0
   59.8639   33.4194   54.3510 H   0  0  0  0  0  0  0  0  0  0  0  0
   59.7433   34.9939   53.5527 H   0  0  0  0  0  0  0  0  0  0  0  0
   58.1990   33.5680   52.9770 C   0  0  0  0  0  0  0  0  0  0  0  0
   57.7349   32.8912   53.7095 H   0  0  0  0  0  0  0  0  0  0  0  0
   57.5653   34.4652   52.9179 H   0  0  0  0  0  0  0  0  0  0  0  0
   58.3240   32.8800   51.6240 C   0  0  0  0  0  0  0  0  0  0  0  0
   58.1647   31.7977   51.7392 H   0  0  0  0  0  0  0  0  0  0  0  0
   57.5701   33.2709   50.9248 H   0  0  0  0  0  0  0  0  0  0  0  0
   59.6970   34.4780   47.5510 C   0  0  0  0  0  0  0  0  0  0  0  0
   60.2910   35.3962   47.6700 H   0  0  0  0  0  0  0  0  0  0  0  0
   59.3300   34.0510   46.2720 C   0  0  0  0  0  0  0  0  0  0  0  0
   59.6645   34.6177   45.3905 H   0  0  0  0  0  0  0  0  0  0  0  0
  1  2  1  0
  2  3  2  0
  3  4  1  0
  3  5  1  0
  5  6  2  0
  6  7  1  0
  6  8  1  0
  8  9  1  0
  9 10  1  0
  9 11  2  0
 11 12  1  0
 12 13  3  0
 11 14  1  0
 14 15  2  0
 15 16  1  0
 16 17  2  0
 17 18  1  0
 17 19  1  0
 19 20  1  0
 19 21  2  0
 21 22  1  0
 21 23  1  0
 23 24  1  0
 23 25  2  0
 25 26  1  0
 26 27  1  0
 26 28  1  0
 26 29  1  0
  2 30  1  0
 30 31  2  0
 31 32  1  0
 31 33  1  0
 33 34  1  0
 33 35  2  0
 35 36  1  0
 36 37  1  0
 36 38  1  0
 36 39  1  0
 39 40  1  0
 40 41  1  0
 40 42  1  0
 40 43  1  0
 43 44  1  0
 43 45  1  0
 43 46  1  0
 46 47  1  0
 46 48  1  0
 46 49  1  0
 49 50  1  0
 49 51  1  0
 35 52  1  0
 52 53  1  0
 52 54  2  0
 54 55  1  0
 14  5  1  0
 25 16  1  0
 54 30  1  0
 49 39  1  0
M  CHG  1   8  -1
M  END
>  <UniqueID>  (65) 
59

>  <SMILES>  (65) 
Cc1cc(Cl)ccc1/N=c1/c(C#N)c[n-]cc1/C=C\c1ccc(CN2CCCC2)cc1

>  <Energy>  (65) 
90.05331572799982

>  <Genealogy>  (65) 
Cc1cc(Cl)ccc1N=c1c(C#N)c[n-]cc1C=Cc1ccc(CN2CCCC2)cc1 (protonated)
Cc1cc(Cl)ccc1/N=c1/c(C#N)c[n-]cc1/C=C\c1ccc(CN2CCCC2)cc1 (cis-trans isomerization)
Cc1cc(Cl)ccc1/N=c1/c(C#N)c[n-]cc1/C=C\c1ccc(CN2CCCC2)cc1 (3D coordinates assigned)
Cc1cc(Cl)ccc1/N=c1/c(C#N)c[n-]cc1/C=C\c1ccc(CN2CCCC2)cc1 (nonaromatic ring conformer: 90.05331572799982 kcal/mol)

>  <smiles>  (65) 
Cc1cc(Cl)ccc1N=c1c(C#N)c[nH]cc1C=Cc1ccc(CN2CCCC2)cc1

>  <score_type>  (65) 
oracle

>  <origin>  (65) 
adg

>  <m_score__min__energy>  (65) 
-10.57

>  <m_primary>  (65) 
energy

$$$$
65:0
     RDKit          3D

 42 44  0  0  0  0  0  0  0  0999 V2000
   59.0380   31.2470   48.0580 C   0  0  0  0  0  0  0  0  0  0  0  0
   58.7420   30.7440   46.6700 C   0  0  0  0  0  0  0  0  0  0  0  0
   58.7020   29.3590   46.4470 C   0  0  0  0  0  0  0  0  0  0  0  0
   58.3750   28.8530   45.1900 C   0  0  0  0  0  0  0  0  0  0  0  0
   58.0780   29.7210   44.1410 C   0  0  0  0  0  0  0  0  0  0  0  0
   58.1120   31.1110   44.3330 C   0  0  0  0  0  0  0  0  0  0  0  0
   57.7360   32.0040   43.1820 C   0  0  0  0  0  0  0  0  0  0  0  0
   58.4230   31.6320   45.6140 C   0  0  0  0  0  0  0  0  0  0  0  0
   58.4270   33.0540   45.8460 N   0  0  0  0  0  0  0  0  0  0  0  0
   57.2750   33.6490   46.5360 C   0  0  0  0  0  0  0  0  0  0  0  0
   59.6260   33.8400   45.4960 C   0  0  1  0  0  0  0  0  0  0  0  0
   59.2790   35.3090   45.2280 C   0  0  0  0  0  0  0  0  0  0  0  0
   60.6800   33.7330   46.5650 C   0  0  0  0  0  0  0  0  0  0  0  0
   61.9050   33.1820   46.3700 N   0  0  0  0  0  0  0  0  0  0  0  0
   62.5130   33.2890   47.5370 N   0  0  0  0  0  0  0  0  0  0  0  0
   63.7710   32.8920   47.8490 C   0  0  0  0  0  0  0  0  0  0  0  0
   64.2270   33.1160   49.1580 C   0  0  0  0  0  0  0  0  0  0  0  0
   65.4810   32.7450   49.5170 F   0  0  0  0  0  0  0  0  0  0  0  0
   63.3740   33.7350   50.0940 C   0  0  0  0  0  0  0  0  0  0  0  0
   62.0760   34.1270   49.7230 C   0  0  0  0  0  0  0  0  0  0  0  0
   61.6870   33.8780   48.4090 C   0  0  0  0  0  0  0  0  0  0  0  0
   60.5090   34.1730   47.8370 N   0  0  0  0  0  0  0  0  0  0  0  0
   58.6252   30.5455   48.7980 H   0  0  0  0  0  0  0  0  0  0  0  0
   60.1266   31.3260   48.1950 H   0  0  0  0  0  0  0  0  0  0  0  0
   58.5784   32.2370   48.1950 H   0  0  0  0  0  0  0  0  0  0  0  0
   58.9306   28.6670   47.2710 H   0  0  0  0  0  0  0  0  0  0  0  0
   58.3513   27.7656   45.0256 H   0  0  0  0  0  0  0  0  0  0  0  0
   57.8146   29.3133   43.1539 H   0  0  0  0  0  0  0  0  0  0  0  0
   57.3365   32.9529   43.5694 H   0  0  0  0  0  0  0  0  0  0  0  0
   58.6261   32.2046   42.5675 H   0  0  0  0  0  0  0  0  0  0  0  0
   56.9705   31.5075   42.5675 H   0  0  0  0  0  0  0  0  0  0  0  0
   57.4203   33.5740   47.6238 H   0  0  0  0  0  0  0  0  0  0  0  0
   57.1831   34.7073   46.2505 H   0  0  0  0  0  0  0  0  0  0  0  0
   56.3588   33.1113   46.2505 H   0  0  0  0  0  0  0  0  0  0  0  0
   60.0329   33.4138   44.5672 H   0  0  0  0  0  0  0  0  0  0  0  0
   59.1543   35.8368   46.1850 H   0  0  0  0  0  0  0  0  0  0  0  0
   60.0909   35.7786   44.6533 H   0  0  0  0  0  0  0  0  0  0  0  0
   58.3428   35.3657   44.6533 H   0  0  0  0  0  0  0  0  0  0  0  0
   64.4151   32.4090   47.0994 H   0  0  0  0  0  0  0  0  0  0  0  0
   63.7261   33.9124   51.1209 H   0  0  0  0  0  0  0  0  0  0  0  0
   61.3961   34.6101   50.4403 H   0  0  0  0  0  0  0  0  0  0  0  0
   59.6750   34.6340   48.2640 H   0  0  0  0  0  0  0  0  0  0  0  0
  1  2  1  0
  2  3  2  0
  3  4  1  0
  4  5  2  0
  5  6  1  0
  6  7  1  0
  6  8  2  0
  8  9  1  0
  9 10  1  0
  9 11  1  0
 11 12  1  0
 11 13  1  0
 13 14  2  0
 14 15  1  0
 15 16  1  0
 16 17  2  0
 17 18  1  0
 17 19  1  0
 19 20  2  0
 20 21  1  0
 21 22  2  0
  8  2  1  0
 22 13  1  0
 21 15  1  0
  1 23  1  0
  1 24  1  0
  1 25  1  0
  3 26  1  0
  4 27  1  0
  5 28  1  0
  7 29  1  0
  7 30  1  0
  7 31  1  0
 10 32  1  0
 10 33  1  0
 10 34  1  0
 11 35  1  6
 12 36  1  0
 12 37  1  0
 12 38  1  0
 16 39  1  0
 19 40  1  0
 20 41  1  0
 22 42  1  0
M  CHG  1  22   1
M  END
>  <UniqueID>  (66) 
60

>  <SMILES>  (66) 
Cc1cccc(C)c1N(C)[C@@H](C)c1nn2cc(F)ccc2[nH+]1

>  <Energy>  (66) 
87.25068716960466

>  <Genealogy>  (66) 
Cc1cccc(C)c1N(C)C(C)c1nn2cc(F)ccc2[nH+]1 (protonated)
Cc1cccc(C)c1N(C)[C@@H](C)c1nn2cc(F)ccc2[nH+]1 (chirality)
Cc1cccc(C)c1N(C)[C@@H](C)c1nn2cc(F)ccc2[nH+]1 (3D coordinates assigned)
Cc1cccc(C)c1N(C)[C@@H](C)c1nn2cc(F)ccc2[nH+]1 (optimized conformer: 87.25068716960466 kcal/mol)

>  <smiles>  (66) 
Cc1cccc(C)c1N(C)C(C)c1nc2ccc(F)cn2n1

>  <score_type>  (66) 
oracle

>  <origin>  (66) 
adg

>  <m_score__min__energy>  (66) 
-5.7199999999999998

>  <m_primary>  (66) 
energy

$$$$
66:0
     RDKit          3D

 38 41  0  0  0  0  0  0  0  0999 V2000
   54.1010   24.5370   45.5440 C   0  0  0  0  0  0  0  0  0  0  0  0
   55.3520   24.6560   46.3650 C   0  0  0  0  0  0  0  0  0  0  0  0
   55.8020   23.5910   47.1760 C   0  0  0  0  0  0  0  0  0  0  0  0
   57.0010   23.7090   47.9140 C   0  0  0  0  0  0  0  0  0  0  0  0
   57.7690   24.8860   47.8430 C   0  0  0  0  0  0  0  0  0  0  0  0
   57.3070   25.9110   47.0240 C   0  0  0  0  0  0  0  0  0  0  0  0
   57.8810   27.1010   46.7990 N   0  0  0  0  0  0  0  0  0  0  0  0
   57.0190   27.6900   45.9270 C   0  0  0  0  0  0  0  0  0  0  0  0
   57.2330   29.0480   45.3770 C   0  0  0  0  0  0  0  0  0  0  0  0
   56.6670   29.4140   44.1440 C   0  0  0  0  0  0  0  0  0  0  0  0
   56.8670   30.6970   43.6270 C   0  0  0  0  0  0  0  0  0  0  0  0
   57.6340   31.6260   44.3310 C   0  0  0  0  0  0  0  0  0  0  0  0
   58.2190   31.2770   45.5590 C   0  0  0  0  0  0  0  0  0  0  0  0
   59.0230   32.2650   46.3190 C   0  0  0  0  0  0  0  0  0  0  0  0
   60.1630   31.8250   47.0150 C   0  0  0  0  0  0  0  0  0  0  0  0
   60.9370   32.7250   47.7500 C   0  0  0  0  0  0  0  0  0  0  0  0
   60.5870   34.0740   47.7970 C   0  0  0  0  0  0  0  0  0  0  0  0
   59.4650   34.5310   47.1040 C   0  0  0  0  0  0  0  0  0  0  0  0
   58.6780   33.6390   46.3620 C   0  0  0  0  0  0  0  0  0  0  0  0
   57.5580   34.1610   45.6180 C   0  0  0  0  0  0  0  0  0  0  0  0
   56.6580   34.5800   45.0220 N   0  0  0  0  0  0  0  0  0  0  0  0
   58.0060   29.9890   46.0810 C   0  0  0  0  0  0  0  0  0  0  0  0
   55.9440   26.9230   45.6020 N   0  0  0  0  0  0  0  0  0  0  0  0
   56.1520   25.8030   46.3120 C   0  0  0  0  0  0  0  0  0  0  0  0
   53.2307   24.4542   46.2117 H   0  0  0  0  0  0  0  0  0  0  0  0
   53.9927   25.4289   44.9093 H   0  0  0  0  0  0  0  0  0  0  0  0
   54.1628   23.6407   44.9093 H   0  0  0  0  0  0  0  0  0  0  0  0
   55.2146   22.6627   47.2335 H   0  0  0  0  0  0  0  0  0  0  0  0
   57.3364   22.8752   48.5483 H   0  0  0  0  0  0  0  0  0  0  0  0
   58.7024   24.9918   48.4154 H   0  0  0  0  0  0  0  0  0  0  0  0
   56.0629   28.6863   43.5823 H   0  0  0  0  0  0  0  0  0  0  0  0
   56.4183   30.9753   42.6620 H   0  0  0  0  0  0  0  0  0  0  0  0
   57.7811   32.6365   43.9221 H   0  0  0  0  0  0  0  0  0  0  0  0
   60.4473   30.7629   46.9800 H   0  0  0  0  0  0  0  0  0  0  0  0
   61.8249   32.3691   48.2932 H   0  0  0  0  0  0  0  0  0  0  0  0
   61.1963   34.7792   48.3813 H   0  0  0  0  0  0  0  0  0  0  0  0
   59.1966   35.5971   47.1402 H   0  0  0  0  0  0  0  0  0  0  0  0
   58.4484   29.7143   47.0499 H   0  0  0  0  0  0  0  0  0  0  0  0
  1  2  1  0
  2  3  2  0
  3  4  1  0
  4  5  2  0
  5  6  1  0
  6  7  1  0
  7  8  1  0
  8  9  1  0
  9 10  2  0
 10 11  1  0
 11 12  2  0
 12 13  1  0
 13 14  1  0
 14 15  2  0
 15 16  1  0
 16 17  2  0
 17 18  1  0
 18 19  2  0
 19 20  1  0
 20 21  3  0
 13 22  2  0
  8 23  2  0
 23 24  1  0
 24  2  1  0
 24  6  2  0
 22  9  1  0
 19 14  1  0
  1 25  1  0
  1 26  1  0
  1 27  1  0
  3 28  1  0
  4 29  1  0
  5 30  1  0
 10 31  1  0
 11 32  1  0
 12 33  1  0
 15 34  1  0
 16 35  1  0
 17 36  1  0
 18 37  1  0
 22 38  1  0
M  CHG  1   7  -1
M  END
>  <UniqueID>  (67) 
61

>  <SMILES>  (67) 
Cc1cccc2[n-]c(-c3cccc(-c4ccccc4C#N)c3)nc12

>  <Energy>  (67) 
84.27516248451006

>  <Genealogy>  (67) 
Cc1cccc2[n-]c(-c3cccc(-c4ccccc4C#N)c3)nc12 (protonated)
Cc1cccc2[n-]c(-c3cccc(-c4ccccc4C#N)c3)nc12 (3D coordinates assigned)
Cc1cccc2[n-]c(-c3cccc(-c4ccccc4C#N)c3)nc12 (optimized conformer: 84.27516248451006 kcal/mol)

>  <smiles>  (67) 
Cc1cccc2[nH]c(-c3cccc(-c4ccccc4C#N)c3)nc12

>  <score_type>  (67) 
oracle

>  <origin>  (67) 
adg

>  <m_score__min__energy>  (67) 
-9.4600000000000009

>  <m_primary>  (67) 
energy

$$$$
67:0
     RDKit          3D

 33 33  0  0  0  0  0  0  0  0999 V2000
   55.1490   29.5880   44.8590 N   0  0  0  0  0  0  0  0  0  0  0  0
   56.4050   29.3690   44.2230 C   0  0  0  0  0  0  0  0  0  0  0  0
   56.7160   30.0390   43.2000 O   0  0  0  0  0  0  0  0  0  0  0  0
   57.2990   28.3770   44.7440 N   0  0  0  0  0  0  0  0  0  0  0  0
   58.5880   28.0720   44.1240 C   0  0  0  0  0  0  0  0  0  0  0  0
   59.5300   27.3570   45.1060 C   0  0  0  0  0  0  0  0  0  0  0  0
   58.8990   26.0840   45.7190 C   0  0  0  0  0  0  0  0  0  0  0  0
   58.4170   26.2920   47.1700 C   0  0  2  0  0  0  0  0  0  0  0  0
   56.9770   26.0470   47.2630 N   0  0  0  0  0  0  0  0  0  0  0  0
   56.0840   25.8580   46.1570 C   0  0  0  0  0  0  0  0  0  0  0  0
   55.1910   26.7220   45.9460 O   0  0  0  0  0  0  0  0  0  0  0  0
   56.1500   24.6770   45.2780 C   0  0  0  0  0  0  0  0  0  0  0  0
   56.6700   24.7010   43.9850 C   0  0  0  0  0  0  0  0  0  0  0  0
   56.6250   23.1280   43.3900 S   0  0  0  0  0  0  0  0  0  0  0  0
   55.9570   22.4820   44.7890 C   0  0  0  0  0  0  0  0  0  0  0  0
   55.7720   23.4440   45.7210 N   0  0  0  0  0  0  0  0  0  0  0  0
   58.7200   27.6990   47.6390 C   0  0  0  0  0  0  0  0  0  0  0  0
   57.9150   28.5860   47.3960 O   0  0  0  0  0  0  0  0  0  0  0  0
   59.9650   28.0530   48.4150 C   0  0  0  0  0  0  0  0  0  0  0  0
   60.6960   26.9040   48.6590 F   0  0  0  0  0  0  0  0  0  0  0  0
   59.6030   28.6220   49.6230 F   0  0  0  0  0  0  0  0  0  0  0  0
   60.7610   28.9500   47.7240 F   0  0  0  0  0  0  0  0  0  0  0  0
   54.8260   28.9680   45.6340 H   0  0  0  0  0  0  0  0  0  0  0  0
   57.0040   27.8200   45.5800 H   0  0  0  0  0  0  0  0  0  0  0  0
   58.4206   27.4225   43.2521 H   0  0  0  0  0  0  0  0  0  0  0  0
   59.0586   29.0193   43.8219 H   0  0  0  0  0  0  0  0  0  0  0  0
   60.4471   27.0719   44.5696 H   0  0  0  0  0  0  0  0  0  0  0  0
   59.7411   28.0535   45.9308 H   0  0  0  0  0  0  0  0  0  0  0  0
   58.0379   25.7871   45.1022 H   0  0  0  0  0  0  0  0  0  0  0  0
   59.6766   25.3062   45.7377 H   0  0  0  0  0  0  0  0  0  0  0  0
   58.9526   25.5792   47.8143 H   0  0  0  0  0  0  0  0  0  0  0  0
   57.0422   25.5875   43.4506 H   0  0  0  0  0  0  0  0  0  0  0  0
   55.7043   21.4205   44.9282 H   0  0  0  0  0  0  0  0  0  0  0  0
  1  2  1  0
  2  3  2  0
  2  4  1  0
  4  5  1  0
  5  6  1  0
  6  7  1  0
  7  8  1  0
  8  9  1  0
  9 10  1  0
 10 11  2  0
 10 12  1  0
 12 13  2  0
 13 14  1  0
 14 15  1  0
 15 16  2  0
  8 17  1  0
 17 18  2  0
 17 19  1  0
 19 20  1  0
 19 21  1  0
 19 22  1  0
 16 12  1  0
  1 23  1  0
  4 24  1  0
  5 25  1  0
  5 26  1  0
  6 27  1  0
  6 28  1  0
  7 29  1  0
  7 30  1  0
  8 31  1  1
 13 32  1  0
 15 33  1  0
M  CHG  2   1  -1   9  -1
M  END
>  <UniqueID>  (68) 
62

>  <SMILES>  (68) 
[NH-]C(=O)NCCC[C@H]([N-]C(=O)c1cscn1)C(=O)C(F)(F)F

>  <Energy>  (68) 
55.36547314664367

>  <Genealogy>  (68) 
[NH-]C(=O)NCCCC([N-]C(=O)c1cscn1)C(=O)C(F)(F)F (protonated)
[NH-]C(=O)NCCC[C@H]([N-]C(=O)c1cscn1)C(=O)C(F)(F)F (chirality)
[NH-]C(=O)NCCC[C@H]([N-]C(=O)c1cscn1)C(=O)C(F)(F)F (3D coordinates assigned)
[NH-]C(=O)NCCC[C@H]([N-]C(=O)c1cscn1)C(=O)C(F)(F)F (optimized conformer: 55.36547314664367 kcal/mol)

>  <smiles>  (68) 
NC(=O)NCCCC(NC(=O)c1cscn1)C(=O)C(F)(F)F

>  <score_type>  (68) 
oracle

>  <origin>  (68) 
adg

>  <m_score__min__energy>  (68) 
-10.039999999999999

>  <m_primary>  (68) 
energy

$$$$
68:0
     RDKit          3D

 24 25  0  0  0  0  0  0  0  0999 V2000
   56.7180   30.5670   42.6440 O   0  0  0  0  0  0  0  0  0  0  0  0
   57.0570   30.3160   43.8330 C   0  0  0  0  0  0  0  0  0  0  0  0
   56.7710   31.2150   44.8690 O   0  0  0  0  0  0  0  0  0  0  0  0
   57.5530   32.3250   45.2210 C   0  0  0  0  0  0  0  0  0  0  0  0
   57.7530   32.7130   46.5610 C   0  0  0  0  0  0  0  0  0  0  0  0
   58.5320   33.8360   46.8590 C   0  0  0  0  0  0  0  0  0  0  0  0
   59.1060   34.5860   45.8300 C   0  0  0  0  0  0  0  0  0  0  0  0
   59.8590   35.6750   46.1220 F   0  0  0  0  0  0  0  0  0  0  0  0
   58.8950   34.2170   44.4980 C   0  0  0  0  0  0  0  0  0  0  0  0
   58.1160   33.0960   44.1960 C   0  0  0  0  0  0  0  0  0  0  0  0
   57.7070   29.0380   44.1500 C   0  0  0  0  0  0  0  0  0  0  0  0
   58.6780   28.8270   45.1120 C   0  0  0  0  0  0  0  0  0  0  0  0
   58.9400   27.4750   45.0020 C   0  0  0  0  0  0  0  0  0  0  0  0
   59.8810   26.7350   45.7820 N   0  0  0  0  0  0  0  0  0  0  0  0
   61.0210   27.2000   45.9920 O   0  0  0  0  0  0  0  0  0  0  0  0
   59.5410   25.5110   46.3080 O   0  0  0  0  0  0  0  0  0  0  0  0
   58.1880   26.9520   44.0620 O   0  0  0  0  0  0  0  0  0  0  0  0
   57.4350   27.8720   43.5330 N   0  0  0  0  0  0  0  0  0  0  0  0
   57.2953   32.1312   47.3747 H   0  0  0  0  0  0  0  0  0  0  0  0
   58.6930   34.1293   47.9069 H   0  0  0  0  0  0  0  0  0  0  0  0
   59.3426   34.8096   43.6865 H   0  0  0  0  0  0  0  0  0  0  0  0
   57.9440   32.8175   43.1458 H   0  0  0  0  0  0  0  0  0  0  0  0
   59.1314   29.5578   45.7978 H   0  0  0  0  0  0  0  0  0  0  0  0
   56.7470   27.7090   42.7650 H   0  0  0  0  0  0  0  0  0  0  0  0
  1  2  2  0
  2  3  1  0
  3  4  1  0
  4  5  2  0
  5  6  1  0
  6  7  2  0
  7  8  1  0
  7  9  1  0
  9 10  2  0
  2 11  1  0
 11 12  1  0
 12 13  2  0
 13 14  1  0
 14 15  2  0
 14 16  1  0
 13 17  1  0
 17 18  1  0
 10  4  1  0
 18 11  2  0
  5 19  1  0
  6 20  1  0
  9 21  1  0
 10 22  1  0
 12 23  1  0
 18 24  1  0
M  CHG  3  14   1  16  -1  18   1
M  END
>  <UniqueID>  (69) 
63

>  <SMILES>  (69) 
O=C(Oc1ccc(F)cc1)c1cc([N+](=O)[O-])o[nH+]1

>  <Energy>  (69) 
59.1140084245648

>  <Genealogy>  (69) 
O=C(Oc1ccc(F)cc1)c1cc([N+](=O)[O-])o[nH+]1 (protonated)
O=C(Oc1ccc(F)cc1)c1cc([N+](=O)[O-])o[nH+]1 (3D coordinates assigned)
O=C(Oc1ccc(F)cc1)c1cc([N+](=O)[O-])o[nH+]1 (optimized conformer: 59.1140084245648 kcal/mol)

>  <smiles>  (69) 
O=C(Oc1ccc(F)cc1)c1cc([N+](=O)[O-])on1

>  <score_type>  (69) 
oracle

>  <origin>  (69) 
adg

>  <m_score__min__energy>  (69) 
-5.2199999999999998

>  <m_primary>  (69) 
energy

$$$$
69:0
     RDKit          3D

 46 48  0  0  0  0  0  0  0  0999 V2000
   55.6870   28.3960   44.3770 H   0  0  0  0  0  0  0  0  0  0  0  0
   55.4930   29.3900   44.6360 N   0  0  0  0  0  0  0  0  0  0  0  0
   56.2920   30.3460   44.2940 C   0  0  0  0  0  0  0  0  0  0  0  0
   56.4460   30.6740   42.9840 N   0  0  0  0  0  0  0  0  0  0  0  0
   57.2840   31.6760   42.6060 C   0  0  0  0  0  0  0  0  0  0  0  0
   57.4000   32.0400   41.1590 C   0  0  0  0  0  0  0  0  0  0  0  0
   57.7329   33.0846   41.0692 H   0  0  0  0  0  0  0  0  0  0  0  0
   58.1319   31.3788   40.6721 H   0  0  0  0  0  0  0  0  0  0  0  0
   56.4204   31.9242   40.6721 H   0  0  0  0  0  0  0  0  0  0  0  0
   57.9890   32.3930   43.5780 C   0  0  0  0  0  0  0  0  0  0  0  0
   58.6557   33.2192   43.2900 H   0  0  0  0  0  0  0  0  0  0  0  0
   57.8310   32.0400   44.9280 C   0  0  0  0  0  0  0  0  0  0  0  0
   58.5540   32.7500   46.0130 C   0  0  0  0  0  0  0  0  0  0  0  0
   58.2690   32.4510   47.3580 C   0  0  0  0  0  0  0  0  0  0  0  0
   57.4897   31.7131   47.5991 H   0  0  0  0  0  0  0  0  0  0  0  0
   58.9670   33.0830   48.3900 C   0  0  0  0  0  0  0  0  0  0  0  0
   58.7170   32.8575   49.4372 H   0  0  0  0  0  0  0  0  0  0  0  0
   59.9810   34.0000   48.1000 C   0  0  0  0  0  0  0  0  0  0  0  0
   60.7290   34.5780   49.1790 N   0  0  0  0  0  0  0  0  0  0  0  0
   62.0650   34.2110   49.5570 C   0  0  0  0  0  0  0  0  0  0  0  0
   62.7100   34.9680   50.3280 O   0  0  0  0  0  0  0  0  0  0  0  0
   62.6870   33.0090   49.0810 N   0  0  0  0  0  0  0  0  0  0  0  0
   61.9990   31.8430   48.6080 C   0  0  0  0  0  0  0  0  0  0  0  0
   61.3300   30.9790   49.4870 C   0  0  0  0  0  0  0  0  0  0  0  0
   61.3757   31.1592   50.5712 H   0  0  0  0  0  0  0  0  0  0  0  0
   60.6060   29.8910   48.9940 C   0  0  0  0  0  0  0  0  0  0  0  0
   60.0740   29.2293   49.6934 H   0  0  0  0  0  0  0  0  0  0  0  0
   60.5500   29.6320   47.6090 C   0  0  0  0  0  0  0  0  0  0  0  0
   59.7680   28.5270   47.0890 N   0  0  0  0  0  0  0  0  0  0  0  0
   59.6040   27.2950   47.8730 C   0  0  0  0  0  0  0  0  0  0  0  0
   59.6361   27.5361   48.9458 H   0  0  0  0  0  0  0  0  0  0  0  0
   58.6363   26.8319   47.6300 H   0  0  0  0  0  0  0  0  0  0  0  0
   60.4169   26.5948   47.6300 H   0  0  0  0  0  0  0  0  0  0  0  0
   59.1050   28.6340   45.7850 C   0  0  0  0  0  0  0  0  0  0  0  0
   58.0290   28.8076   45.9339 H   0  0  0  0  0  0  0  0  0  0  0  0
   59.5375   29.4740   45.2216 H   0  0  0  0  0  0  0  0  0  0  0  0
   59.2513   27.7006   45.2216 H   0  0  0  0  0  0  0  0  0  0  0  0
   61.2670   30.4800   46.7400 C   0  0  0  0  0  0  0  0  0  0  0  0
   61.2570   30.2835   45.6577 H   0  0  0  0  0  0  0  0  0  0  0  0
   61.9900   31.5670   47.2380 C   0  0  0  0  0  0  0  0  0  0  0  0
   62.5557   32.2096   46.5473 H   0  0  0  0  0  0  0  0  0  0  0  0
   60.2510   34.3290   46.7620 C   0  0  0  0  0  0  0  0  0  0  0  0
   61.0162   35.0837   46.5274 H   0  0  0  0  0  0  0  0  0  0  0  0
   59.5520   33.7020   45.7270 C   0  0  0  0  0  0  0  0  0  0  0  0
   59.7828   33.9537   44.6814 H   0  0  0  0  0  0  0  0  0  0  0  0
   56.9780   31.0260   45.2470 N   0  0  0  0  0  0  0  0  0  0  0  0
  1  2  1  0
  2  3  2  0
  3  4  1  0
  4  5  2  0
  5  6  1  0
  6  7  1  0
  6  8  1  0
  6  9  1  0
  5 10  1  0
 10 11  1  0
 10 12  2  0
 12 13  1  0
 13 14  2  0
 14 15  1  0
 14 16  1  0
 16 17  1  0
 16 18  2  0
 18 19  1  0
 19 20  1  0
 20 21  2  0
 20 22  1  0
 22 23  1  0
 23 24  2  0
 24 25  1  0
 24 26  1  0
 26 27  1  0
 26 28  2  0
 28 29  1  0
 29 30  1  0
 30 31  1  0
 30 32  1  0
 30 33  1  0
 29 34  1  0
 34 35  1  0
 34 36  1  0
 34 37  1  0
 28 38  1  0
 38 39  1  0
 38 40  2  0
 40 41  1  0
 18 42  1  0
 42 43  1  0
 42 44  2  0
 44 45  1  0
 12 46  1  0
 46  3  1  0
 44 13  1  0
 40 23  1  0
M  CHG  3  19  -1  22  -1  46  -1
M  END
>  <UniqueID>  (70) 
64

>  <SMILES>  (70) 
[H]/N=c1\nc(C)cc(-c2ccc([N-]C(=O)[N-]c3ccc(N(C)C)cc3)cc2)[n-]1

>  <Energy>  (70) 
59.63065673210606

>  <Genealogy>  (70) 
Cc1cc(-c2ccc([N-]C(=O)[N-]c3ccc(N(C)C)cc3)cc2)[n-]c(=N)n1 (protonated)
[H]/N=c1\nc(C)cc(-c2ccc([N-]C(=O)[N-]c3ccc(N(C)C)cc3)cc2)[n-]1 (cis-trans isomerization)
[H]/N=c1\nc(C)cc(-c2ccc([N-]C(=O)[N-]c3ccc(N(C)C)cc3)cc2)[n-]1 (3D coordinates assigned)
[H]/N=c1\nc(C)cc(-c2ccc([N-]C(=O)[N-]c3ccc(N(C)C)cc3)cc2)[n-]1 (optimized conformer: 59.63065673210606 kcal/mol)

>  <smiles>  (70) 
Cc1cc(-c2ccc(NC(=O)Nc3ccc(N(C)C)cc3)cc2)[nH]c(=N)n1

>  <score_type>  (70) 
oracle

>  <origin>  (70) 
adg

>  <m_score__min__energy>  (70) 
-11.74

>  <m_primary>  (70) 
energy

$$$$
70:0
     RDKit          3D

 63 66  0  0  0  0  0  0  0  0999 V2000
   57.3660   21.1180   42.9970 C   0  0  0  0  0  0  0  0  0  0  0  0
   56.1910   21.8270   43.5340 N   0  0  0  0  0  0  0  0  0  0  0  0
   55.9300   21.3650   44.9060 C   0  0  0  0  0  0  0  0  0  0  0  0
   56.3980   23.2890   43.5230 C   0  0  0  0  0  0  0  0  0  0  0  0
   55.8080   23.9680   44.7660 C   0  0  0  0  0  0  0  0  0  0  0  0
   57.0760   24.4100   46.0100 S   0  0  0  0  0  0  0  0  0  0  0  0
   57.4130   26.0470   45.3540 C   0  0  0  0  0  0  0  0  0  0  0  0
   57.8200   26.2030   44.0250 C   0  0  0  0  0  0  0  0  0  0  0  0
   58.0460   27.4810   43.5050 C   0  0  0  0  0  0  0  0  0  0  0  0
   57.8410   28.6190   44.3050 C   0  0  0  0  0  0  0  0  0  0  0  0
   58.0570   29.9440   43.7930 N   0  0  0  0  0  0  0  0  0  0  0  0
   57.1700   31.0490   44.0330 C   0  0  0  0  0  0  0  0  0  0  0  0
   56.2090   30.9400   44.8410 O   0  0  0  0  0  0  0  0  0  0  0  0
   57.4100   32.3670   43.3540 C   0  0  0  0  0  0  0  0  0  0  0  0
   58.6360   33.0850   43.9310 C   0  0  0  0  0  0  0  0  0  0  0  0
   58.2660   34.1640   44.8830 N   0  0  0  0  0  0  0  0  0  0  0  0
   57.0730   33.8110   45.6930 C   0  0  0  0  0  0  0  0  0  0  0  0
   57.3980   33.1440   47.0500 C   0  0  0  0  0  0  0  0  0  0  0  0
   58.7720   32.6300   47.0940 N   0  0  0  0  0  0  0  0  0  0  0  0
   59.0640   31.3960   47.7750 C   0  0  0  0  0  0  0  0  0  0  0  0
   59.8050   30.3690   47.1460 C   0  0  0  0  0  0  0  0  0  0  0  0
   60.0770   29.1600   47.8230 C   0  0  0  0  0  0  0  0  0  0  0  0
   59.6130   28.9550   49.1340 C   0  0  0  0  0  0  0  0  0  0  0  0
   58.8840   29.9810   49.7310 C   0  0  0  0  0  0  0  0  0  0  0  0
   58.3550   30.0030   50.9660 N   0  0  0  0  0  0  0  0  0  0  0  0
   57.7820   31.2330   50.9920 C   0  0  0  0  0  0  0  0  0  0  0  0
   57.1590   31.6750   51.9930 O   0  0  0  0  0  0  0  0  0  0  0  0
   57.9360   31.9260   49.8780 O   0  0  0  0  0  0  0  0  0  0  0  0
   58.6220   31.1510   49.0800 C   0  0  0  0  0  0  0  0  0  0  0  0
   59.8790   33.4950   46.6720 C   0  0  0  0  0  0  0  0  0  0  0  0
   59.3790   34.6150   45.7480 C   0  0  0  0  0  0  0  0  0  0  0  0
   57.4650   28.4510   45.6450 C   0  0  0  0  0  0  0  0  0  0  0  0
   57.2390   27.1730   46.1630 C   0  0  0  0  0  0  0  0  0  0  0  0
   57.9819   20.7463   43.8292 H   0  0  0  0  0  0  0  0  0  0  0  0
   57.0326   20.2702   42.3805 H   0  0  0  0  0  0  0  0  0  0  0  0
   57.9606   21.8082   42.3805 H   0  0  0  0  0  0  0  0  0  0  0  0
   56.3407   22.0920   45.6221 H   0  0  0  0  0  0  0  0  0  0  0  0
   54.8451   21.2705   45.0609 H   0  0  0  0  0  0  0  0  0  0  0  0
   56.4090   20.3870   45.0609 H   0  0  0  0  0  0  0  0  0  0  0  0
   57.4782   23.4934   43.4870 H   0  0  0  0  0  0  0  0  0  0  0  0
   55.8835   23.6960   42.6400 H   0  0  0  0  0  0  0  0  0  0  0  0
   55.2907   24.8864   44.4514 H   0  0  0  0  0  0  0  0  0  0  0  0
   55.1207   23.2503   45.2377 H   0  0  0  0  0  0  0  0  0  0  0  0
   57.9626   25.3181   43.3874 H   0  0  0  0  0  0  0  0  0  0  0  0
   58.3858   27.5968   42.4652 H   0  0  0  0  0  0  0  0  0  0  0  0
   58.9810   30.1500   43.3500 H   0  0  0  0  0  0  0  0  0  0  0  0
   57.5720   32.1910   42.2803 H   0  0  0  0  0  0  0  0  0  0  0  0
   56.5289   33.0044   43.5194 H   0  0  0  0  0  0  0  0  0  0  0  0
   59.2610   32.3487   44.4575 H   0  0  0  0  0  0  0  0  0  0  0  0
   59.1775   33.5487   43.0933 H   0  0  0  0  0  0  0  0  0  0  0  0
   56.5054   34.7325   45.8896 H   0  0  0  0  0  0  0  0  0  0  0  0
   56.5032   33.0735   45.1086 H   0  0  0  0  0  0  0  0  0  0  0  0
   57.2709   33.8874   47.8508 H   0  0  0  0  0  0  0  0  0  0  0  0
   56.7125   32.2942   47.1841 H   0  0  0  0  0  0  0  0  0  0  0  0
   60.1731   30.5132   46.1195 H   0  0  0  0  0  0  0  0  0  0  0  0
   60.6569   28.3720   47.3203 H   0  0  0  0  0  0  0  0  0  0  0  0
   59.8185   28.0167   49.6700 H   0  0  0  0  0  0  0  0  0  0  0  0
   60.3448   33.9435   47.5619 H   0  0  0  0  0  0  0  0  0  0  0  0
   60.6103   32.8855   46.1209 H   0  0  0  0  0  0  0  0  0  0  0  0
   59.0306   35.4560   46.3655 H   0  0  0  0  0  0  0  0  0  0  0  0
   60.2134   34.9176   45.0983 H   0  0  0  0  0  0  0  0  0  0  0  0
   57.3470   29.3317   46.2935 H   0  0  0  0  0  0  0  0  0  0  0  0
   56.9234   27.0531   47.2099 H   0  0  0  0  0  0  0  0  0  0  0  0
  1  2  1  0
  2  3  1  0
  2  4  1  0
  4  5  1  0
  5  6  1  0
  6  7  1  0
  7  8  2  0
  8  9  1  0
  9 10  2  0
 10 11  1  0
 11 12  1  0
 12 13  2  0
 12 14  1  0
 14 15  1  0
 15 16  1  0
 16 17  1  0
 17 18  1  0
 18 19  1  0
 19 20  1  0
 20 21  2  0
 21 22  1  0
 22 23  2  0
 23 24  1  0
 24 25  1  0
 25 26  1  0
 26 27  2  0
 26 28  1  0
 28 29  1  0
 19 30  1  0
 30 31  1  0
 10 32  1  0
 32 33  2  0
 33  7  1  0
 31 16  1  0
 29 20  1  0
 29 24  2  0
  1 34  1  0
  1 35  1  0
  1 36  1  0
  3 37  1  0
  3 38  1  0
  3 39  1  0
  4 40  1  0
  4 41  1  0
  5 42  1  0
  5 43  1  0
  8 44  1  0
  9 45  1  0
 11 46  1  0
 14 47  1  0
 14 48  1  0
 15 49  1  0
 15 50  1  0
 17 51  1  0
 17 52  1  0
 18 53  1  0
 18 54  1  0
 21 55  1  0
 22 56  1  0
 23 57  1  0
 30 58  1  0
 30 59  1  0
 31 60  1  0
 31 61  1  0
 32 62  1  0
 33 63  1  0
M  CHG  1  25  -1
M  END
>  <UniqueID>  (71) 
65

>  <SMILES>  (71) 
CN(C)CCSc1ccc(NC(=O)CCN2CCN(c3cccc4[n-]c(=O)oc34)CC2)cc1

>  <Energy>  (71) 
112.96864954263312

>  <Genealogy>  (71) 
CN(C)CCSc1ccc(NC(=O)CCN2CCN(c3cccc4[n-]c(=O)oc34)CC2)cc1 (protonated)
CN(C)CCSc1ccc(NC(=O)CCN2CCN(c3cccc4[n-]c(=O)oc34)CC2)cc1 (3D coordinates assigned)
CN(C)CCSc1ccc(NC(=O)CCN2CCN(c3cccc4[n-]c(=O)oc34)CC2)cc1 (nonaromatic ring conformer: 112.96864954263312 kcal/mol)

>  <smiles>  (71) 
CN(C)CCSc1ccc(NC(=O)CCN2CCN(c3cccc4[nH]c(=O)oc34)CC2)cc1

>  <score_type>  (71) 
oracle

>  <origin>  (71) 
adg

>  <m_score__min__energy>  (71) 
-11.109999999999999

>  <m_primary>  (71) 
energy

$$$$
71:0
     RDKit          3D

 34 36  0  0  0  0  0  0  0  0999 V2000
   59.5100   31.0480   48.4150 C   0  0  0  0  0  0  0  0  0  0  0  0
   58.4470   31.7280   47.7560 O   0  0  0  0  0  0  0  0  0  0  0  0
   58.6200   32.7550   46.8150 C   0  0  0  0  0  0  0  0  0  0  0  0
   59.2070   33.9880   47.1620 C   0  0  0  0  0  0  0  0  0  0  0  0
   59.4010   34.9780   46.1950 C   0  0  0  0  0  0  0  0  0  0  0  0
   59.0160   34.7490   44.8740 C   0  0  0  0  0  0  0  0  0  0  0  0
   58.4280   33.5340   44.5170 C   0  0  0  0  0  0  0  0  0  0  0  0
   58.2140   32.5380   45.4820 C   0  0  0  0  0  0  0  0  0  0  0  0
   57.5690   31.2760   45.0790 C   0  0  0  0  0  0  0  0  0  0  0  0
   56.2920   31.1980   44.8680 N   0  0  0  0  0  0  0  0  0  0  0  0
   55.9270   29.8760   44.7430 O   0  0  0  0  0  0  0  0  0  0  0  0
   57.0750   29.0560   44.6730 C   0  0  2  0  0  0  0  0  0  0  0  0
   57.0150   27.6820   45.3410 C   0  0  0  0  0  0  0  0  0  0  0  0
   58.4550   27.1880   45.6870 C   0  0  0  0  0  0  0  0  0  0  0  0
   59.5890   27.9050   44.8880 C   0  0  0  0  0  0  0  0  0  0  0  0
   59.5060   29.4660   44.9020 C   0  0  0  0  0  0  0  0  0  0  0  0
   58.1180   29.9140   45.3650 C   0  0  1  0  0  0  0  0  0  0  0  0
   59.3794   31.1316   49.5040 H   0  0  0  0  0  0  0  0  0  0  0  0
   59.5020   29.9869   48.1251 H   0  0  0  0  0  0  0  0  0  0  0  0
   60.4700   31.5001   48.1251 H   0  0  0  0  0  0  0  0  0  0  0  0
   59.5148   34.1727   48.2018 H   0  0  0  0  0  0  0  0  0  0  0  0
   59.8576   35.9386   46.4758 H   0  0  0  0  0  0  0  0  0  0  0  0
   59.1758   35.5266   44.1126 H   0  0  0  0  0  0  0  0  0  0  0  0
   58.1307   33.3565   43.4729 H   0  0  0  0  0  0  0  0  0  0  0  0
   57.2583   28.7808   43.6239 H   0  0  0  0  0  0  0  0  0  0  0  0
   56.4231   27.7529   46.2655 H   0  0  0  0  0  0  0  0  0  0  0  0
   56.5464   26.9665   44.6493 H   0  0  0  0  0  0  0  0  0  0  0  0
   58.6291   27.3577   46.7598 H   0  0  0  0  0  0  0  0  0  0  0  0
   58.4984   26.1243   45.4102 H   0  0  0  0  0  0  0  0  0  0  0  0
   60.5552   27.6086   45.3223 H   0  0  0  0  0  0  0  0  0  0  0  0
   59.4754   27.5955   43.8386 H   0  0  0  0  0  0  0  0  0  0  0  0
   60.2656   29.8647   45.5905 H   0  0  0  0  0  0  0  0  0  0  0  0
   59.6867   29.8456   43.8855 H   0  0  0  0  0  0  0  0  0  0  0  0
   58.2862   29.8543   46.4504 H   0  0  0  0  0  0  0  0  0  0  0  0
  1  2  1  0
  2  3  1  0
  3  4  2  0
  4  5  1  0
  5  6  2  0
  6  7  1  0
  7  8  2  0
  8  9  1  0
  9 10  2  0
 10 11  1  0
 11 12  1  0
 12 13  1  0
 13 14  1  0
 14 15  1  0
 15 16  1  0
 16 17  1  0
  8  3  1  0
 17  9  1  0
 17 12  1  0
  1 18  1  0
  1 19  1  0
  1 20  1  0
  4 21  1  0
  5 22  1  0
  6 23  1  0
  7 24  1  0
 12 25  1  6
 13 26  1  0
 13 27  1  0
 14 28  1  0
 14 29  1  0
 15 30  1  0
 15 31  1  0
 16 32  1  0
 16 33  1  0
 17 34  1  1
M  END
>  <UniqueID>  (72) 
66

>  <SMILES>  (72) 
COc1ccccc1C1=NO[C@@H]2CCCC[C@@H]12

>  <Energy>  (72) 
73.84981274003607

>  <Genealogy>  (72) 
COc1ccccc1C1=NO[C@@H]2CCCC[C@@H]12 (chirality)
COc1ccccc1C1=NO[C@@H]2CCCC[C@@H]12 (3D coordinates assigned)
COc1ccccc1C1=NO[C@@H]2CCCC[C@@H]12 (nonaromatic ring conformer: 73.84981274003607 kcal/mol)

>  <smiles>  (72) 
COc1ccccc1C1=NOC2CCCCC12

>  <score_type>  (72) 
oracle

>  <origin>  (72) 
adg

>  <m_score__min__energy>  (72) 
-7.54

>  <m_primary>  (72) 
energy

$$$$
72:0
     RDKit          3D

 51 53  0  0  0  0  0  0  0  0999 V2000
   60.9140   26.3330   46.5360 C   0  0  0  0  0  0  0  0  0  0  0  0
   59.8260   27.2250   46.0180 C   0  0  0  0  0  0  0  0  0  0  0  0
   58.5090   27.0780   46.4810 C   0  0  0  0  0  0  0  0  0  0  0  0
   57.4880   27.8840   45.9710 C   0  0  0  0  0  0  0  0  0  0  0  0
   57.7700   28.8400   44.9850 C   0  0  0  0  0  0  0  0  0  0  0  0
   56.4900   29.8510   44.3180 S   0  0  0  0  0  0  0  0  0  0  0  0
   55.1640   29.3430   44.8100 O   0  0  0  0  0  0  0  0  0  0  0  0
   56.5000   29.7830   42.8160 O   0  0  0  0  0  0  0  0  0  0  0  0
   56.7010   31.4960   44.8410 N   0  0  0  0  0  0  0  0  0  0  0  0
   58.1000   31.9130   44.7330 C   0  0  0  0  0  0  0  0  0  0  0  0
   58.1930   33.2930   44.0720 C   0  0  0  0  0  0  0  0  0  0  0  0
   58.8100   34.3170   44.9890 C   0  0  0  0  0  0  0  0  0  0  0  0
   59.2660   35.3890   44.5040 O   0  0  0  0  0  0  0  0  0  0  0  0
   58.8520   34.1060   46.4130 N   0  0  0  0  0  0  0  0  0  0  0  0
   59.8790   34.7800   47.2170 C   0  0  0  0  0  0  0  0  0  0  0  0
   60.3410   33.8730   48.3600 C   0  0  0  0  0  0  0  0  0  0  0  0
   59.1800   33.3030   49.0560 N   0  0  0  0  0  0  0  0  0  0  0  0
   59.1940   33.1250   50.4840 C   0  0  0  0  0  0  0  0  0  0  0  0
   59.3950   31.8530   51.0440 C   0  0  0  0  0  0  0  0  0  0  0  0
   59.3990   31.7050   52.4310 C   0  0  0  0  0  0  0  0  0  0  0  0
   59.2050   32.8180   53.2480 C   0  0  0  0  0  0  0  0  0  0  0  0
   59.0100   34.0690   52.6620 C   0  0  0  0  0  0  0  0  0  0  0  0
   59.0070   34.2000   51.3080 N   0  0  0  0  0  0  0  0  0  0  0  0
   58.1590   32.6290   48.2460 C   0  0  0  0  0  0  0  0  0  0  0  0
   57.6910   33.5530   47.1240 C   0  0  0  0  0  0  0  0  0  0  0  0
   59.0790   28.9740   44.5060 C   0  0  0  0  0  0  0  0  0  0  0  0
   60.1020   28.1670   45.0160 C   0  0  0  0  0  0  0  0  0  0  0  0
   60.9030   26.3420   47.6359 H   0  0  0  0  0  0  0  0  0  0  0  0
   60.7492   25.3067   46.1761 H   0  0  0  0  0  0  0  0  0  0  0  0
   61.8881   26.6958   46.1761 H   0  0  0  0  0  0  0  0  0  0  0  0
   58.2797   26.3246   47.2490 H   0  0  0  0  0  0  0  0  0  0  0  0
   56.4598   27.7681   46.3442 H   0  0  0  0  0  0  0  0  0  0  0  0
   58.5431   31.9615   45.7386 H   0  0  0  0  0  0  0  0  0  0  0  0
   58.6450   31.1829   44.1165 H   0  0  0  0  0  0  0  0  0  0  0  0
   58.8094   33.2114   43.1646 H   0  0  0  0  0  0  0  0  0  0  0  0
   57.1721   33.6239   43.8307 H   0  0  0  0  0  0  0  0  0  0  0  0
   60.7396   35.0228   46.5763 H   0  0  0  0  0  0  0  0  0  0  0  0
   59.4527   35.7008   47.6417 H   0  0  0  0  0  0  0  0  0  0  0  0
   60.9558   33.0577   47.9511 H   0  0  0  0  0  0  0  0  0  0  0  0
   60.9312   34.4669   49.0734 H   0  0  0  0  0  0  0  0  0  0  0  0
   59.5482   30.9794   50.3934 H   0  0  0  0  0  0  0  0  0  0  0  0
   59.5548   30.7126   52.8791 H   0  0  0  0  0  0  0  0  0  0  0  0
   59.2057   32.7109   54.3428 H   0  0  0  0  0  0  0  0  0  0  0  0
   58.8580   34.9536   53.2979 H   0  0  0  0  0  0  0  0  0  0  0  0
   58.8790   35.1520   50.8990 H   0  0  0  0  0  0  0  0  0  0  0  0
   58.5852   31.7133   47.8103 H   0  0  0  0  0  0  0  0  0  0  0  0
   57.3012   32.3728   48.8851 H   0  0  0  0  0  0  0  0  0  0  0  0
   57.0688   32.9832   46.4182 H   0  0  0  0  0  0  0  0  0  0  0  0
   57.1047   34.3777   47.5555 H   0  0  0  0  0  0  0  0  0  0  0  0
   59.3038   29.7163   43.7260 H   0  0  0  0  0  0  0  0  0  0  0  0
   61.1266   28.2717   44.6297 H   0  0  0  0  0  0  0  0  0  0  0  0
  1  2  1  0
  2  3  2  0
  3  4  1  0
  4  5  2  0
  5  6  1  0
  6  7  2  0
  6  8  2  0
  6  9  1  0
  9 10  1  0
 10 11  1  0
 11 12  1  0
 12 13  2  0
 12 14  1  0
 14 15  1  0
 15 16  1  0
 16 17  1  0
 17 18  1  0
 18 19  2  0
 19 20  1  0
 20 21  2  0
 21 22  1  0
 22 23  2  0
 17 24  1  0
 24 25  1  0
  5 26  1  0
 26 27  2  0
 27  2  1  0
 25 14  1  0
 23 18  1  0
  1 28  1  0
  1 29  1  0
  1 30  1  0
  3 31  1  0
  4 32  1  0
 10 33  1  0
 10 34  1  0
 11 35  1  0
 11 36  1  0
 15 37  1  0
 15 38  1  0
 16 39  1  0
 16 40  1  0
 19 41  1  0
 20 42  1  0
 21 43  1  0
 22 44  1  0
 23 45  1  0
 24 46  1  0
 24 47  1  0
 25 48  1  0
 25 49  1  0
 26 50  1  0
 27 51  1  0
M  CHG  2   9  -1  23   1
M  END
>  <UniqueID>  (73) 
67

>  <SMILES>  (73) 
Cc1ccc(S(=O)(=O)[N-]CCC(=O)N2CCN(c3cccc[nH+]3)CC2)cc1

>  <Energy>  (73) 
54.146850362083796

>  <Genealogy>  (73) 
Cc1ccc(S(=O)(=O)[N-]CCC(=O)N2CCN(c3cccc[nH+]3)CC2)cc1 (protonated)
Cc1ccc(S(=O)(=O)[N-]CCC(=O)N2CCN(c3cccc[nH+]3)CC2)cc1 (3D coordinates assigned)
Cc1ccc(S(=O)(=O)[N-]CCC(=O)N2CCN(c3cccc[nH+]3)CC2)cc1 (nonaromatic ring conformer: 54.146850362083796 kcal/mol)

>  <smiles>  (73) 
Cc1ccc(S(=O)(=O)NCCC(=O)N2CCN(c3ccccn3)CC2)cc1

>  <score_type>  (73) 
oracle

>  <origin>  (73) 
adg

>  <m_score__min__energy>  (73) 
-9.3200000000000003

>  <m_primary>  (73) 
energy

$$$$
73:0
     RDKit          3D

 40 41  0  0  0  0  0  0  0  0999 V2000
   54.7850   28.5310   44.5680 H   0  0  0  0  0  0  0  0  0  0  0  0
   55.6440   28.7500   45.0580 O   0  0  0  0  0  0  0  0  0  0  0  0
   56.4340   27.7500   45.6260 C   0  0  0  0  0  0  0  0  0  0  0  0
   57.8090   27.9530   45.8160 C   0  0  0  0  0  0  0  0  0  0  0  0
   58.2672   28.9041   45.5071 H   0  0  0  0  0  0  0  0  0  0  0  0
   58.6060   26.9530   46.3970 C   0  0  0  0  0  0  0  0  0  0  0  0
   60.0580   27.2130   46.5700 C   0  0  0  0  0  0  0  0  0  0  0  0
   60.5863   27.7579   45.7737 H   0  0  0  0  0  0  0  0  0  0  0  0
   60.7610   26.8210   47.6420 C   0  0  0  0  0  0  0  0  0  0  0  0
   61.3600   25.9006   47.5784 H   0  0  0  0  0  0  0  0  0  0  0  0
   60.7570   27.5880   48.9100 C   0  0  0  0  0  0  0  0  0  0  0  0
   60.6350   26.9830   50.0090 O   0  0  0  0  0  0  0  0  0  0  0  0
   60.8740   29.0170   48.9290 N   0  0  0  0  0  0  0  0  0  0  0  0
   59.8980   29.9620   48.3950 C   0  0  0  0  0  0  0  0  0  0  0  0
   59.5052   30.5789   49.2167 H   0  0  0  0  0  0  0  0  0  0  0  0
   59.0825   29.3979   47.9187 H   0  0  0  0  0  0  0  0  0  0  0  0
   60.5450   30.8720   47.3480 C   0  0  0  0  0  0  0  0  0  0  0  0
   60.9940   30.2522   46.5579 H   0  0  0  0  0  0  0  0  0  0  0  0
   61.3182   31.4826   47.8372 H   0  0  0  0  0  0  0  0  0  0  0  0
   59.5180   31.7870   46.7360 C   0  0  0  0  0  0  0  0  0  0  0  0
   59.6300   33.1760   46.8970 C   0  0  0  0  0  0  0  0  0  0  0  0
   60.4544   33.5938   47.4935 H   0  0  0  0  0  0  0  0  0  0  0  0
   58.6990   34.0300   46.3030 C   0  0  0  0  0  0  0  0  0  0  0  0
   58.7868   35.1179   46.4402 H   0  0  0  0  0  0  0  0  0  0  0  0
   57.6550   33.5060   45.5340 C   0  0  0  0  0  0  0  0  0  0  0  0
   56.7350   34.3680   44.9480 O   0  0  0  0  0  0  0  0  0  0  0  0
   57.5360   32.1220   45.3490 C   0  0  0  0  0  0  0  0  0  0  0  0
   56.4770   31.6390   44.5640 O   0  0  0  0  0  0  0  0  0  0  0  0
   56.6380   30.8260   43.4070 C   0  0  0  0  0  0  0  0  0  0  0  0
   56.8433   29.7895   43.7129 H   0  0  0  0  0  0  0  0  0  0  0  0
   55.7166   30.8556   42.8070 H   0  0  0  0  0  0  0  0  0  0  0  0
   57.4786   31.2045   42.8070 H   0  0  0  0  0  0  0  0  0  0  0  0
   58.4780   31.2640   45.9510 C   0  0  0  0  0  0  0  0  0  0  0  0
   58.3979   30.1767   45.8048 H   0  0  0  0  0  0  0  0  0  0  0  0
   58.0070   25.7290   46.7620 C   0  0  0  0  0  0  0  0  0  0  0  0
   58.6208   24.9278   47.1994 H   0  0  0  0  0  0  0  0  0  0  0  0
   56.6360   25.5300   46.5700 C   0  0  0  0  0  0  0  0  0  0  0  0
   56.1748   24.5758   46.8646 H   0  0  0  0  0  0  0  0  0  0  0  0
   55.8500   26.5370   46.0060 C   0  0  0  0  0  0  0  0  0  0  0  0
   54.4880   26.3290   45.8220 O   0  0  0  0  0  0  0  0  0  0  0  0
  1  2  1  0
  2  3  1  0
  3  4  2  0
  4  5  1  0
  4  6  1  0
  6  7  1  0
  7  8  1  0
  7  9  2  0
  9 10  1  0
  9 11  1  0
 11 12  2  0
 11 13  1  0
 13 14  1  0
 14 15  1  0
 14 16  1  0
 14 17  1  0
 17 18  1  0
 17 19  1  0
 17 20  1  0
 20 21  2  0
 21 22  1  0
 21 23  1  0
 23 24  1  0
 23 25  2  0
 25 26  1  0
 25 27  1  0
 27 28  1  0
 28 29  1  0
 29 30  1  0
 29 31  1  0
 29 32  1  0
 27 33  2  0
 33 34  1  0
  6 35  2  0
 35 36  1  0
 35 37  1  0
 37 38  1  0
 37 39  2  0
 39 40  1  0
 39  3  1  0
 33 20  1  0
M  CHG  3  13  -1  26  -1  40  -1
M  END
>  <UniqueID>  (74) 
68

>  <SMILES>  (74) 
COc1cc(CC[N-]C(=O)/C=C/c2ccc([O-])c(O)c2)ccc1[O-]

>  <Energy>  (74) 
37.66713499386776

>  <Genealogy>  (74) 
COc1cc(CC[N-]C(=O)C=Cc2ccc([O-])c(O)c2)ccc1[O-] (protonated)
COc1cc(CC[N-]C(=O)/C=C/c2ccc([O-])c(O)c2)ccc1[O-] (cis-trans isomerization)
COc1cc(CC[N-]C(=O)/C=C/c2ccc([O-])c(O)c2)ccc1[O-] (3D coordinates assigned)
COc1cc(CC[N-]C(=O)/C=C/c2ccc([O-])c(O)c2)ccc1[O-] (optimized conformer: 37.66713499386776 kcal/mol)

>  <smiles>  (74) 
COc1cc(CCNC(=O)C=Cc2ccc(O)c(O)c2)ccc1O

>  <score_type>  (74) 
oracle

>  <origin>  (74) 
adg

>  <m_score__min__energy>  (74) 
-12.84

>  <m_primary>  (74) 
energy

$$$$
74:0
     RDKit          3D

 35 37  0  0  0  0  0  0  0  0999 V2000
   58.5070   28.6730   46.1760 O   0  0  0  0  0  0  0  0  0  0  0  0
   57.4170   28.2980   45.6670 C   0  0  0  0  0  0  0  0  0  0  0  0
   56.7890   29.0780   44.6360 N   0  0  0  0  0  0  0  0  0  0  0  0
   57.1700   30.4250   44.3020 C   0  0  0  0  0  0  0  0  0  0  0  0
   57.3780   30.8180   42.9680 C   0  0  0  0  0  0  0  0  0  0  0  0
   57.7610   32.1280   42.6720 C   0  0  0  0  0  0  0  0  0  0  0  0
   57.9590   33.0530   43.7000 C   0  0  0  0  0  0  0  0  0  0  0  0
   57.7940   32.6650   45.0380 C   0  0  0  0  0  0  0  0  0  0  0  0
   57.9780   33.6640   46.1430 C   0  0  0  0  0  0  0  0  0  0  0  0
   58.6250   33.0300   47.2430 O   0  0  0  0  0  0  0  0  0  0  0  0
   60.0080   32.8130   47.3320 C   0  0  0  0  0  0  0  0  0  0  0  0
   60.4600   31.6670   47.9990 C   0  0  0  0  0  0  0  0  0  0  0  0
   61.8290   31.4070   48.1150 C   0  0  0  0  0  0  0  0  0  0  0  0
   62.7590   32.2930   47.5640 C   0  0  0  0  0  0  0  0  0  0  0  0
   64.0860   32.0380   47.6790 F   0  0  0  0  0  0  0  0  0  0  0  0
   62.3200   33.4410   46.8960 C   0  0  0  0  0  0  0  0  0  0  0  0
   63.2210   34.3010   46.3610 F   0  0  0  0  0  0  0  0  0  0  0  0
   60.9510   33.7040   46.7790 C   0  0  0  0  0  0  0  0  0  0  0  0
   57.3930   31.3520   45.3320 C   0  0  0  0  0  0  0  0  0  0  0  0
   56.8120   27.0320   46.1090 C   0  0  0  0  0  0  0  0  0  0  0  0
   57.3760   26.0870   46.9320 C   0  0  0  0  0  0  0  0  0  0  0  0
   56.4750   25.1000   47.0740 N   0  0  0  0  0  0  0  0  0  0  0  0
   55.4390   25.4580   46.3690 O   0  0  0  0  0  0  0  0  0  0  0  0
   55.5840   26.6050   45.7690 N   0  0  0  0  0  0  0  0  0  0  0  0
   56.0740   28.6110   44.0340 H   0  0  0  0  0  0  0  0  0  0  0  0
   57.2385   30.0909   42.1545 H   0  0  0  0  0  0  0  0  0  0  0  0
   57.9074   32.4327   41.6252 H   0  0  0  0  0  0  0  0  0  0  0  0
   58.2449   34.0877   43.4598 H   0  0  0  0  0  0  0  0  0  0  0  0
   58.5963   34.5001   45.7843 H   0  0  0  0  0  0  0  0  0  0  0  0
   56.9978   34.0484   46.4615 H   0  0  0  0  0  0  0  0  0  0  0  0
   59.7325   30.9664   48.4348 H   0  0  0  0  0  0  0  0  0  0  0  0
   62.1743   30.5044   48.6404 H   0  0  0  0  0  0  0  0  0  0  0  0
   60.6091   34.6083   46.2542 H   0  0  0  0  0  0  0  0  0  0  0  0
   57.2523   31.0469   46.3794 H   0  0  0  0  0  0  0  0  0  0  0  0
   58.3760   26.1302   47.3883 H   0  0  0  0  0  0  0  0  0  0  0  0
  1  2  2  0
  2  3  1  0
  3  4  1  0
  4  5  2  0
  5  6  1  0
  6  7  2  0
  7  8  1  0
  8  9  1  0
  9 10  1  0
 10 11  1  0
 11 12  2  0
 12 13  1  0
 13 14  2  0
 14 15  1  0
 14 16  1  0
 16 17  1  0
 16 18  2  0
  8 19  2  0
  2 20  1  0
 20 21  1  0
 21 22  2  0
 22 23  1  0
 23 24  1  0
 19  4  1  0
 24 20  2  0
 18 11  1  0
  3 25  1  0
  5 26  1  0
  6 27  1  0
  7 28  1  0
  9 29  1  0
  9 30  1  0
 12 31  1  0
 13 32  1  0
 18 33  1  0
 19 34  1  0
 21 35  1  0
M  END
>  <UniqueID>  (75) 
69

>  <SMILES>  (75) 
O=C(Nc1cccc(COc2ccc(F)c(F)c2)c1)c1cnon1

>  <Energy>  (75) 
73.76708771830867

>  <Genealogy>  (75) 
O=C(Nc1cccc(COc2ccc(F)c(F)c2)c1)c1cnon1 (3D coordinates assigned)
O=C(Nc1cccc(COc2ccc(F)c(F)c2)c1)c1cnon1 (optimized conformer: 73.76708771830867 kcal/mol)

>  <smiles>  (75) 
O=C(Nc1cccc(COc2ccc(F)c(F)c2)c1)c1cnon1

>  <score_type>  (75) 
oracle

>  <origin>  (75) 
adg

>  <m_score__min__energy>  (75) 
-8.6799999999999997

>  <m_primary>  (75) 
energy

$$$$
75:0
     RDKit          3D

 37 40  0  0  0  0  0  0  0  0999 V2000
   56.2550   31.3530   44.7610 O   0  0  0  0  0  0  0  0  0  0  0  0
   57.4940   31.5610   44.6340 C   0  0  0  0  0  0  0  0  0  0  0  0
   58.3280   30.5970   43.8210 C   0  0  0  0  0  0  0  0  0  0  0  0
   58.8020   29.3760   44.6270 C   0  0  1  0  0  0  0  0  0  0  0  0
   57.8520   29.0310   45.8150 C   0  0  0  0  0  0  0  0  0  0  0  0
   57.4320   27.6410   45.5010 C   0  0  0  0  0  0  0  0  0  0  0  0
   56.5810   26.8050   46.2260 C   0  0  0  0  0  0  0  0  0  0  0  0
   56.3210   25.5170   45.7240 C   0  0  0  0  0  0  0  0  0  0  0  0
   55.5150   24.6950   46.3890 O   0  0  0  0  0  0  0  0  0  0  0  0
   55.2340   23.4670   45.9610 C   0  0  0  0  0  0  0  0  0  0  0  0
   54.4630   22.7350   46.6360 O   0  0  0  0  0  0  0  0  0  0  0  0
   55.7870   22.9870   44.7680 C   0  0  0  0  0  0  0  0  0  0  0  0
   56.6380   23.8110   44.0340 C   0  0  0  0  0  0  0  0  0  0  0  0
   56.9200   25.0970   44.5030 C   0  0  0  0  0  0  0  0  0  0  0  0
   57.7730   25.9670   43.7970 C   0  0  0  0  0  0  0  0  0  0  0  0
   58.0050   27.2340   44.3300 C   0  0  0  0  0  0  0  0  0  0  0  0
   58.8010   28.2190   43.7900 O   0  0  0  0  0  0  0  0  0  0  0  0
   58.1080   32.7200   45.3330 C   0  0  0  0  0  0  0  0  0  0  0  0
   58.1670   32.7410   46.7400 C   0  0  0  0  0  0  0  0  0  0  0  0
   58.7430   33.8240   47.4100 C   0  0  0  0  0  0  0  0  0  0  0  0
   59.2720   34.8950   46.6880 C   0  0  0  0  0  0  0  0  0  0  0  0
   59.2280   34.8840   45.2930 C   0  0  0  0  0  0  0  0  0  0  0  0
   58.6520   33.8040   44.6160 C   0  0  0  0  0  0  0  0  0  0  0  0
   57.7246   30.2427   42.9723 H   0  0  0  0  0  0  0  0  0  0  0  0
   59.2264   31.1397   43.4918 H   0  0  0  0  0  0  0  0  0  0  0  0
   59.8015   29.6346   45.0065 H   0  0  0  0  0  0  0  0  0  0  0  0
   58.3851   29.0772   46.7761 H   0  0  0  0  0  0  0  0  0  0  0  0
   57.0090   29.7300   45.9182 H   0  0  0  0  0  0  0  0  0  0  0  0
   56.1247   27.1453   47.1673 H   0  0  0  0  0  0  0  0  0  0  0  0
   55.5527   21.9721   44.4143 H   0  0  0  0  0  0  0  0  0  0  0  0
   57.0836   23.4526   43.0943 H   0  0  0  0  0  0  0  0  0  0  0  0
   58.2427   25.6558   42.8522 H   0  0  0  0  0  0  0  0  0  0  0  0
   57.7566   31.8986   47.3161 H   0  0  0  0  0  0  0  0  0  0  0  0
   58.7795   33.8323   48.5094 H   0  0  0  0  0  0  0  0  0  0  0  0
   59.7231   35.7469   47.2179 H   0  0  0  0  0  0  0  0  0  0  0  0
   59.6475   35.7270   44.7244 H   0  0  0  0  0  0  0  0  0  0  0  0
   58.6236   33.8010   43.5164 H   0  0  0  0  0  0  0  0  0  0  0  0
  1  2  2  0
  2  3  1  0
  3  4  1  0
  4  5  1  0
  5  6  1  0
  6  7  2  0
  7  8  1  0
  8  9  1  0
  9 10  1  0
 10 11  2  0
 10 12  1  0
 12 13  2  0
 13 14  1  0
 14 15  1  0
 15 16  2  0
 16 17  1  0
  2 18  1  0
 18 19  2  0
 19 20  1  0
 20 21  2  0
 21 22  1  0
 22 23  2  0
 17  4  1  0
 23 18  1  0
 16  6  1  0
 14  8  2  0
  3 24  1  0
  3 25  1  0
  4 26  1  1
  5 27  1  0
  5 28  1  0
  7 29  1  0
 12 30  1  0
 13 31  1  0
 15 32  1  0
 19 33  1  0
 20 34  1  0
 21 35  1  0
 22 36  1  0
 23 37  1  0
M  END
>  <UniqueID>  (76) 
70

>  <SMILES>  (76) 
O=C(C[C@H]1Cc2cc3oc(=O)ccc3cc2O1)c1ccccc1

>  <Energy>  (76) 
62.28509252743972

>  <Genealogy>  (76) 
O=C(C[C@H]1Cc2cc3oc(=O)ccc3cc2O1)c1ccccc1 (chirality)
O=C(C[C@H]1Cc2cc3oc(=O)ccc3cc2O1)c1ccccc1 (3D coordinates assigned)
O=C(C[C@H]1Cc2cc3oc(=O)ccc3cc2O1)c1ccccc1 (nonaromatic ring conformer: 62.28509252743972 kcal/mol)

>  <smiles>  (76) 
O=C(CC1Cc2cc3oc(=O)ccc3cc2O1)c1ccccc1

>  <score_type>  (76) 
oracle

>  <origin>  (76) 
adg

>  <m_score__min__energy>  (76) 
-7.9199999999999999

>  <m_primary>  (76) 
energy

$$$$
76:0
     RDKit          3D

 46 48  0  0  0  0  0  0  0  0999 V2000
   59.8410   35.9660   45.9020 C   0  0  0  0  0  0  0  0  0  0  0  0
   59.6920   34.4820   46.0560 C   0  0  0  0  0  0  0  0  0  0  0  0
   60.7360   33.7170   46.5980 C   0  0  0  0  0  0  0  0  0  0  0  0
   60.5880   32.3330   46.7650 C   0  0  0  0  0  0  0  0  0  0  0  0
   61.6940   31.5190   47.3710 C   0  0  0  0  0  0  0  0  0  0  0  0
   59.3710   31.7200   46.4290 C   0  0  0  0  0  0  0  0  0  0  0  0
   58.3070   32.4830   45.9170 C   0  0  0  0  0  0  0  0  0  0  0  0
   57.0380   31.8990   45.5910 N   0  0  0  0  0  0  0  0  0  0  0  0
   56.7860   30.6640   44.3990 S   0  0  0  0  0  0  0  0  0  0  0  0
   57.2740   31.1540   43.0630 O   0  0  0  0  0  0  0  0  0  0  0  0
   55.3180   30.3650   44.2980 O   0  0  0  0  0  0  0  0  0  0  0  0
   57.6330   29.2000   44.8840 C   0  0  0  0  0  0  0  0  0  0  0  0
   57.8800   28.1960   43.9390 C   0  0  0  0  0  0  0  0  0  0  0  0
   58.4990   27.0030   44.3230 C   0  0  0  0  0  0  0  0  0  0  0  0
   58.8540   26.7910   45.6590 C   0  0  0  0  0  0  0  0  0  0  0  0
   59.4820   25.5560   46.0280 N   0  0  0  0  0  0  0  0  0  0  0  0
   59.0600   24.2540   45.6070 C   0  0  0  0  0  0  0  0  0  0  0  0
   59.8980   23.3150   45.6140 O   0  0  0  0  0  0  0  0  0  0  0  0
   57.7110   24.0270   45.1560 N   0  0  0  0  0  0  0  0  0  0  0  0
   57.2090   22.7580   44.7110 C   0  0  0  0  0  0  0  0  0  0  0  0
   57.2810   21.6070   45.5140 C   0  0  0  0  0  0  0  0  0  0  0  0
   56.8090   20.3860   45.0300 C   0  0  0  0  0  0  0  0  0  0  0  0
   56.2820   20.3190   43.7400 C   0  0  0  0  0  0  0  0  0  0  0  0
   56.2410   21.4330   42.9630 N   0  0  0  0  0  0  0  0  0  0  0  0
   56.6940   22.6340   43.4120 C   0  0  0  0  0  0  0  0  0  0  0  0
   58.6420   27.8130   46.6010 C   0  0  0  0  0  0  0  0  0  0  0  0
   58.0310   29.0090   46.2140 C   0  0  0  0  0  0  0  0  0  0  0  0
   58.4780   33.8600   45.7300 C   0  0  0  0  0  0  0  0  0  0  0  0
   59.8881   36.4349   46.8959 H   0  0  0  0  0  0  0  0  0  0  0  0
   60.7658   36.1862   45.3485 H   0  0  0  0  0  0  0  0  0  0  0  0
   58.9785   36.3656   45.3485 H   0  0  0  0  0  0  0  0  0  0  0  0
   61.6759   34.2061   46.8935 H   0  0  0  0  0  0  0  0  0  0  0  0
   61.6270   31.5683   48.4678 H   0  0  0  0  0  0  0  0  0  0  0  0
   61.6004   30.4727   47.0446 H   0  0  0  0  0  0  0  0  0  0  0  0
   62.6652   31.9194   47.0446 H   0  0  0  0  0  0  0  0  0  0  0  0
   59.2489   30.6356   46.5672 H   0  0  0  0  0  0  0  0  0  0  0  0
   57.5855   28.3471   42.8900 H   0  0  0  0  0  0  0  0  0  0  0  0
   58.7078   26.2276   43.5712 H   0  0  0  0  0  0  0  0  0  0  0  0
   57.0280   24.8150   45.2130 H   0  0  0  0  0  0  0  0  0  0  0  0
   57.7098   21.6684   46.5251 H   0  0  0  0  0  0  0  0  0  0  0  0
   56.8521   19.4851   45.6597 H   0  0  0  0  0  0  0  0  0  0  0  0
   55.8994   19.3636   43.3516 H   0  0  0  0  0  0  0  0  0  0  0  0
   56.6564   23.5136   42.7526 H   0  0  0  0  0  0  0  0  0  0  0  0
   58.9578   27.6710   47.6451 H   0  0  0  0  0  0  0  0  0  0  0  0
   57.8619   29.8032   46.9561 H   0  0  0  0  0  0  0  0  0  0  0  0
   57.6512   34.4605   45.3230 H   0  0  0  0  0  0  0  0  0  0  0  0
  1  2  1  0
  2  3  2  0
  3  4  1  0
  4  5  1  0
  4  6  2  0
  6  7  1  0
  7  8  1  0
  8  9  1  0
  9 10  2  0
  9 11  2  0
  9 12  1  0
 12 13  2  0
 13 14  1  0
 14 15  2  0
 15 16  1  0
 16 17  1  0
 17 18  2  0
 17 19  1  0
 19 20  1  0
 20 21  2  0
 21 22  1  0
 22 23  2  0
 23 24  1  0
 24 25  2  0
 15 26  1  0
 26 27  2  0
  7 28  2  0
 28  2  1  0
 27 12  1  0
 25 20  1  0
  1 29  1  0
  1 30  1  0
  1 31  1  0
  3 32  1  0
  5 33  1  0
  5 34  1  0
  5 35  1  0
  6 36  1  0
 13 37  1  0
 14 38  1  0
 19 39  1  0
 21 40  1  0
 22 41  1  0
 23 42  1  0
 25 43  1  0
 26 44  1  0
 27 45  1  0
 28 46  1  0
M  CHG  2   8  -1  16  -1
M  END
>  <UniqueID>  (77) 
71

>  <SMILES>  (77) 
Cc1cc(C)cc([N-]S(=O)(=O)c2ccc([N-]C(=O)Nc3cccnc3)cc2)c1

>  <Energy>  (77) 
58.559680191881064

>  <Genealogy>  (77) 
Cc1cc(C)cc([N-]S(=O)(=O)c2ccc([N-]C(=O)Nc3cccnc3)cc2)c1 (protonated)
Cc1cc(C)cc([N-]S(=O)(=O)c2ccc([N-]C(=O)Nc3cccnc3)cc2)c1 (3D coordinates assigned)
Cc1cc(C)cc([N-]S(=O)(=O)c2ccc([N-]C(=O)Nc3cccnc3)cc2)c1 (optimized conformer: 58.559680191881064 kcal/mol)

>  <smiles>  (77) 
Cc1cc(C)cc(NS(=O)(=O)c2ccc(NC(=O)Nc3cccnc3)cc2)c1

>  <score_type>  (77) 
oracle

>  <origin>  (77) 
adg

>  <m_score__min__energy>  (77) 
-11.1

>  <m_primary>  (77) 
energy

$$$$
77:0
     RDKit          3D

 25 26  0  0  0  0  0  0  0  0999 V2000
   59.1140   30.3700   53.6470 C   0  0  0  0  0  0  0  0  0  0  0  0
   57.6920   30.1670   53.2000 C   0  0  0  0  0  0  0  0  0  0  0  0
   57.0230   28.9740   53.5140 C   0  0  0  0  0  0  0  0  0  0  0  0
   55.7030   28.7720   53.1010 C   0  0  0  0  0  0  0  0  0  0  0  0
   55.0250   29.7630   52.3810 C   0  0  0  0  0  0  0  0  0  0  0  0
   53.6770   29.5210   51.9430 N   0  0  0  0  0  0  0  0  0  0  0  0
   52.6510   30.5230   51.8650 C   0  0  0  0  0  0  0  0  0  0  0  0
   51.9690   30.9660   53.0080 C   0  0  0  0  0  0  0  0  0  0  0  0
   50.9610   31.9200   52.8560 C   0  0  0  0  0  0  0  0  0  0  0  0
   50.3350   32.3460   53.8620 O   0  0  0  0  0  0  0  0  0  0  0  0
   50.6500   32.3860   51.6200 N   0  0  0  0  0  0  0  0  0  0  0  0
   51.3030   31.9330   50.5190 C   0  0  0  0  0  0  0  0  0  0  0  0
   50.9960   32.3710   49.3800 O   0  0  0  0  0  0  0  0  0  0  0  0
   52.2880   31.0060   50.6470 N   0  0  0  0  0  0  0  0  0  0  0  0
   55.7010   30.9460   52.0400 C   0  0  0  0  0  0  0  0  0  0  0  0
   57.0230   31.1550   52.4500 C   0  0  0  0  0  0  0  0  0  0  0  0
   57.8150   32.6620   52.0000 Cl  0  0  0  0  0  0  0  0  0  0  0  0
   59.1555   30.3759   54.7462 H   0  0  0  0  0  0  0  0  0  0  0  0
   59.7401   29.5521   53.2608 H   0  0  0  0  0  0  0  0  0  0  0  0
   59.4862   31.3304   53.2608 H   0  0  0  0  0  0  0  0  0  0  0  0
   57.5410   28.1924   54.0891 H   0  0  0  0  0  0  0  0  0  0  0  0
   55.1933   27.8278   53.3434 H   0  0  0  0  0  0  0  0  0  0  0  0
   53.4210   28.5480   51.6570 H   0  0  0  0  0  0  0  0  0  0  0  0
   52.2229   30.5703   54.0025 H   0  0  0  0  0  0  0  0  0  0  0  0
   55.1868   31.7154   51.4453 H   0  0  0  0  0  0  0  0  0  0  0  0
  1  2  1  0
  2  3  2  0
  3  4  1  0
  4  5  2  0
  5  6  1  0
  6  7  1  0
  7  8  2  0
  8  9  1  0
  9 10  2  0
  9 11  1  0
 11 12  1  0
 12 13  2  0
 12 14  1  0
  5 15  1  0
 15 16  2  0
 16 17  1  0
 16  2  1  0
 14  7  1  0
  1 18  1  0
  1 19  1  0
  1 20  1  0
  3 21  1  0
  4 22  1  0
  6 23  1  0
  8 24  1  0
 15 25  1  0
M  CHG  2  11  -1  14  -1
M  END
>  <UniqueID>  (78) 
72

>  <SMILES>  (78) 
Cc1ccc(Nc2cc(=O)[n-]c(=O)[n-]2)cc1Cl

>  <Energy>  (78) 
32.43550728034229

>  <Genealogy>  (78) 
Cc1ccc(Nc2cc(=O)[n-]c(=O)[n-]2)cc1Cl (protonated)
Cc1ccc(Nc2cc(=O)[n-]c(=O)[n-]2)cc1Cl (3D coordinates assigned)
Cc1ccc(Nc2cc(=O)[n-]c(=O)[n-]2)cc1Cl (optimized conformer: 32.43550728034229 kcal/mol)

>  <smiles>  (78) 
Cc1ccc(Nc2cc(=O)[nH]c(=O)[nH]2)cc1Cl

>  <score_type>  (78) 
oracle

>  <origin>  (78) 
adg

>  <m_score__min__energy>  (78) 
-11.470000000000001

>  <m_primary>  (78) 
energy

$$$$
78:0
     RDKit          3D

 57 61  0  0  0  0  0  0  0  0999 V2000
   55.1410   26.6530   45.9940 N   0  0  0  0  0  0  0  0  0  0  0  0
   56.6310   25.8020   46.1880 S   0  0  0  0  0  0  0  0  0  0  0  0
   56.5840   25.0580   47.4960 O   0  0  0  0  0  0  0  0  0  0  0  0
   56.7940   24.8030   45.0770 O   0  0  0  0  0  0  0  0  0  0  0  0
   57.9950   26.9370   46.1760 C   0  0  0  0  0  0  0  0  0  0  0  0
   58.6460   27.2170   47.3900 C   0  0  0  0  0  0  0  0  0  0  0  0
   59.7240   28.1030   47.4350 C   0  0  0  0  0  0  0  0  0  0  0  0
   60.3410   28.3550   48.6150 F   0  0  0  0  0  0  0  0  0  0  0  0
   60.1670   28.7260   46.2680 C   0  0  0  0  0  0  0  0  0  0  0  0
   61.2180   29.5830   46.3110 F   0  0  0  0  0  0  0  0  0  0  0  0
   59.5330   28.4630   45.0530 C   0  0  0  0  0  0  0  0  0  0  0  0
   58.4540   27.5610   44.9850 C   0  0  0  0  0  0  0  0  0  0  0  0
   57.7960   27.3380   43.6480 C   0  0  0  0  0  0  0  0  0  0  0  0
   57.1180   28.5580   43.2300 N   0  0  0  0  0  0  0  0  0  0  0  0
   56.6180   29.5520   44.1330 C   0  0  0  0  0  0  0  0  0  0  0  0
   55.5720   29.3100   44.7920 O   0  0  0  0  0  0  0  0  0  0  0  0
   57.3220   30.8310   44.3440 C   0  0  0  0  0  0  0  0  0  0  0  0
   57.9440   31.0800   45.5740 C   0  0  0  0  0  0  0  0  0  0  0  0
   58.6540   32.2840   45.8200 C   0  0  0  0  0  0  0  0  0  0  0  0
   59.3500   32.5510   47.1850 C   0  0  2  0  0  0  0  0  0  0  0  0
   58.9670   31.4960   48.2790 C   0  0  0  0  0  0  0  0  0  0  0  0
   59.6730   31.7950   49.6200 C   0  0  1  0  0  0  0  0  0  0  0  0
   61.2010   31.7530   49.4150 C   0  0  0  0  0  0  0  0  0  0  0  0
   61.6040   32.8070   48.3640 C   0  0  2  0  0  0  0  0  0  0  0  0
   61.1830   34.2100   48.8540 C   0  0  0  0  0  0  0  0  0  0  0  0
   59.6550   34.2490   49.0700 C   0  0  2  0  0  0  0  0  0  0  0  0
   59.2550   33.1920   50.1180 C   0  0  0  0  0  0  0  0  0  0  0  0
   58.9350   33.9520   47.7370 C   0  0  0  0  0  0  0  0  0  0  0  0
   60.9030   32.4960   47.0230 C   0  0  0  0  0  0  0  0  0  0  0  0
   58.7040   33.2380   44.7620 C   0  0  0  0  0  0  0  0  0  0  0  0
   59.3930   34.4420   44.9060 O   0  0  0  0  0  0  0  0  0  0  0  0
   58.0560   32.9860   43.5450 C   0  0  0  0  0  0  0  0  0  0  0  0
   57.3600   31.8000   43.3380 C   0  0  0  0  0  0  0  0  0  0  0  0
   56.6920   31.6020   42.1330 O   0  0  0  0  0  0  0  0  0  0  0  0
   55.1840   27.1270   45.0690 H   0  0  0  0  0  0  0  0  0  0  0  0
   58.3020   26.7322   48.3156 H   0  0  0  0  0  0  0  0  0  0  0  0
   59.8800   28.9659   44.1383 H   0  0  0  0  0  0  0  0  0  0  0  0
   58.5602   27.0699   42.9036 H   0  0  0  0  0  0  0  0  0  0  0  0
   57.0631   26.5220   43.7319 H   0  0  0  0  0  0  0  0  0  0  0  0
   57.8806   30.3231   46.3696 H   0  0  0  0  0  0  0  0  0  0  0  0
   57.8783   31.5202   48.4342 H   0  0  0  0  0  0  0  0  0  0  0  0
   59.2891   30.5033   47.9313 H   0  0  0  0  0  0  0  0  0  0  0  0
   59.3841   31.0401   50.3661 H   0  0  0  0  0  0  0  0  0  0  0  0
   61.7056   31.9724   50.3675 H   0  0  0  0  0  0  0  0  0  0  0  0
   61.4984   30.7530   49.0664 H   0  0  0  0  0  0  0  0  0  0  0  0
   62.6942   32.7811   48.2197 H   0  0  0  0  0  0  0  0  0  0  0  0
   61.6922   34.4339   49.8030 H   0  0  0  0  0  0  0  0  0  0  0  0
   61.4633   34.9589   48.0986 H   0  0  0  0  0  0  0  0  0  0  0  0
   59.3633   35.2476   49.4274 H   0  0  0  0  0  0  0  0  0  0  0  0
   59.7613   33.4090   51.0701 H   0  0  0  0  0  0  0  0  0  0  0  0
   58.1657   33.2178   50.2692 H   0  0  0  0  0  0  0  0  0  0  0  0
   57.8477   33.9671   47.9028 H   0  0  0  0  0  0  0  0  0  0  0  0
   59.2200   34.7198   47.0026 H   0  0  0  0  0  0  0  0  0  0  0  0
   61.2141   33.2376   46.2726 H   0  0  0  0  0  0  0  0  0  0  0  0
   61.1890   31.4838   46.7012 H   0  0  0  0  0  0  0  0  0  0  0  0
   60.2350   34.6460   44.3790 H   0  0  0  0  0  0  0  0  0  0  0  0
   58.0986   33.7369   42.7423 H   0  0  0  0  0  0  0  0  0  0  0  0
  1  2  1  0
  2  3  2  0
  2  4  2  0
  2  5  1  0
  5  6  2  0
  6  7  1  0
  7  8  1  0
  7  9  2  0
  9 10  1  0
  9 11  1  0
 11 12  2  0
 12 13  1  0
 13 14  1  0
 14 15  1  0
 15 16  2  0
 15 17  1  0
 17 18  2  0
 18 19  1  0
 20 19  1  6
 20 21  1  0
 21 22  1  0
 22 23  1  0
 23 24  1  0
 24 25  1  0
 25 26  1  0
 26 27  1  0
 26 28  1  0
 24 29  1  0
 19 30  2  0
 30 31  1  0
 30 32  1  0
 32 33  2  0
 33 34  1  0
 12  5  1  0
 33 17  1  0
 28 20  1  0
 29 20  1  0
 27 22  1  0
  1 35  1  0
  6 36  1  0
 11 37  1  0
 13 38  1  0
 13 39  1  0
 18 40  1  0
 21 41  1  0
 21 42  1  0
 22 43  1  1
 23 44  1  0
 23 45  1  0
 24 46  1  6
 25 47  1  0
 25 48  1  0
 26 49  1  1
 27 50  1  0
 27 51  1  0
 28 52  1  0
 28 53  1  0
 29 54  1  0
 29 55  1  0
 31 56  1  0
 32 57  1  0
M  CHG  3   1  -1  14  -1  34  -1
M  END
>  <UniqueID>  (79) 
73

>  <SMILES>  (79) 
[NH-]S(=O)(=O)c1cc(F)c(F)cc1C[N-]C(=O)c1cc(C23CC4CC(CC(C4)C2)C3)c(O)cc1[O-]

>  <Energy>  (79) 
74.7602837981148

>  <Genealogy>  (79) 
[NH-]S(=O)(=O)c1cc(F)c(F)cc1C[N-]C(=O)c1cc(C23CC4CC(CC(C4)C2)C3)c(O)cc1[O-] (protonated)
[NH-]S(=O)(=O)c1cc(F)c(F)cc1C[N-]C(=O)c1cc(C23CC4CC(CC(C4)C2)C3)c(O)cc1[O-] (3D coordinates assigned)
[NH-]S(=O)(=O)c1cc(F)c(F)cc1C[N-]C(=O)c1cc(C23CC4CC(CC(C4)C2)C3)c(O)cc1[O-] (nonaromatic ring conformer: 74.7602837981148 kcal/mol)

>  <smiles>  (79) 
NS(=O)(=O)c1cc(F)c(F)cc1CNC(=O)c1cc(C23CC4CC(CC(C4)C2)C3)c(O)cc1O

>  <score_type>  (79) 
oracle

>  <origin>  (79) 
adg

>  <m_score__min__energy>  (79) 
-15.140000000000001

>  <m_primary>  (79) 
energy

$$$$
79:0
     RDKit          3D

 51 55  0  0  0  0  0  0  0  0999 V2000
   55.5110   29.7290   43.3670 C   0  0  0  0  0  0  0  0  0  0  0  0
   56.6510   29.9970   44.3040 C   0  0  0  0  0  0  0  0  0  0  0  0
   57.0010   29.0550   45.2790 C   0  0  0  0  0  0  0  0  0  0  0  0
   58.0870   29.2870   46.1270 C   0  0  0  0  0  0  0  0  0  0  0  0
   58.8550   30.4630   46.0100 C   0  0  0  0  0  0  0  0  0  0  0  0
   60.0560   30.6680   46.9360 C   0  0  2  0  0  0  0  0  0  0  0  0
   60.7780   29.3280   47.2220 C   0  0  0  0  0  0  0  0  0  0  0  0
   60.2060   28.5960   48.4050 C   0  0  0  0  0  0  0  0  0  0  0  0
   60.0910   27.3800   48.3670 O   0  0  0  0  0  0  0  0  0  0  0  0
   59.8730   29.3350   49.6680 C   0  0  0  0  0  0  0  0  0  0  0  0
   59.0780   30.6190   49.3620 C   0  0  1  0  0  0  0  0  0  0  0  0
   58.7480   31.4020   50.6330 C   0  0  0  0  0  0  0  0  0  0  0  0
   57.4020   31.6630   50.9560 C   0  0  0  0  0  0  0  0  0  0  0  0
   57.0740   32.4070   52.0920 C   0  0  0  0  0  0  0  0  0  0  0  0
   58.0820   32.9060   52.9190 C   0  0  0  0  0  0  0  0  0  0  0  0
   59.4200   32.6620   52.6100 C   0  0  0  0  0  0  0  0  0  0  0  0
   59.7560   31.9170   51.4760 C   0  0  0  0  0  0  0  0  0  0  0  0
   59.7280   31.4960   48.2370 C   0  0  2  0  0  0  0  0  0  0  0  0
   58.8250   32.6820   47.9240 C   0  0  0  0  0  0  0  0  0  0  0  0
   57.6250   32.5760   47.5560 O   0  0  0  0  0  0  0  0  0  0  0  0
   59.4230   33.9520   48.1540 N   0  0  0  0  0  0  0  0  0  0  0  0
   60.7140   33.6350   48.6300 C   0  0  0  0  0  0  0  0  0  0  0  0
   61.6810   34.5690   48.9950 C   0  0  0  0  0  0  0  0  0  0  0  0
   62.9280   34.1080   49.4390 C   0  0  0  0  0  0  0  0  0  0  0  0
   63.1880   32.7270   49.5040 C   0  0  0  0  0  0  0  0  0  0  0  0
   64.8910   32.1090   50.1060 Br  0  0  0  0  0  0  0  0  0  0  0  0
   62.2020   31.8010   49.1290 C   0  0  0  0  0  0  0  0  0  0  0  0
   60.9500   32.2730   48.7030 C   0  0  0  0  0  0  0  0  0  0  0  0
   58.5080   31.3930   45.0110 C   0  0  0  0  0  0  0  0  0  0  0  0
   57.4200   31.1590   44.1640 C   0  0  0  0  0  0  0  0  0  0  0  0
   54.6016   29.5152   43.9477 H   0  0  0  0  0  0  0  0  0  0  0  0
   55.3421   30.6119   42.7330 H   0  0  0  0  0  0  0  0  0  0  0  0
   55.7532   28.8633   42.7330 H   0  0  0  0  0  0  0  0  0  0  0  0
   56.4180   28.1275   45.3779 H   0  0  0  0  0  0  0  0  0  0  0  0
   58.3456   28.5431   46.8949 H   0  0  0  0  0  0  0  0  0  0  0  0
   60.7660   31.3070   46.3904 H   0  0  0  0  0  0  0  0  0  0  0  0
   60.6885   28.6846   46.3343 H   0  0  0  0  0  0  0  0  0  0  0  0
   61.8276   29.5614   47.4541 H   0  0  0  0  0  0  0  0  0  0  0  0
   59.2692   28.6840   50.3174 H   0  0  0  0  0  0  0  0  0  0  0  0
   60.8116   29.6144   50.1689 H   0  0  0  0  0  0  0  0  0  0  0  0
   58.1140   30.2976   48.9409 H   0  0  0  0  0  0  0  0  0  0  0  0
   56.6015   31.2773   50.3076 H   0  0  0  0  0  0  0  0  0  0  0  0
   56.0188   32.6001   52.3355 H   0  0  0  0  0  0  0  0  0  0  0  0
   57.8213   33.4910   53.8133 H   0  0  0  0  0  0  0  0  0  0  0  0
   60.2137   33.0572   53.2610 H   0  0  0  0  0  0  0  0  0  0  0  0
   60.8139   31.7307   51.2389 H   0  0  0  0  0  0  0  0  0  0  0  0
   61.4701   35.6470   48.9359 H   0  0  0  0  0  0  0  0  0  0  0  0
   63.7048   34.8275   49.7372 H   0  0  0  0  0  0  0  0  0  0  0  0
   62.4072   30.7210   49.1683 H   0  0  0  0  0  0  0  0  0  0  0  0
   59.0991   32.3135   44.8956 H   0  0  0  0  0  0  0  0  0  0  0  0
   57.1669   31.8917   43.3836 H   0  0  0  0  0  0  0  0  0  0  0  0
  1  2  1  0
  2  3  2  0
  3  4  1  0
  4  5  2  0
  5  6  1  0
  6  7  1  0
  7  8  1  0
  8  9  2  0
  8 10  1  0
 10 11  1  0
 11 12  1  0
 12 13  2  0
 13 14  1  0
 14 15  2  0
 15 16  1  0
 16 17  2  0
 11 18  1  0
 18 19  1  6
 19 20  2  0
 19 21  1  0
 21 22  1  0
 22 23  2  0
 23 24  1  0
 24 25  2  0
 25 26  1  0
 25 27  1  0
 27 28  2  0
  5 29  1  0
 29 30  2  0
 30  2  1  0
 18  6  1  0
 28 22  1  0
 17 12  1  0
 28 18  1  0
  1 31  1  0
  1 32  1  0
  1 33  1  0
  3 34  1  0
  4 35  1  0
  6 36  1  6
  7 37  1  0
  7 38  1  0
 10 39  1  0
 10 40  1  0
 11 41  1  6
 13 42  1  0
 14 43  1  0
 15 44  1  0
 16 45  1  0
 17 46  1  0
 23 47  1  0
 24 48  1  0
 27 49  1  0
 29 50  1  0
 30 51  1  0
M  CHG  1  21  -1
M  END
>  <UniqueID>  (80) 
74

>  <SMILES>  (80) 
Cc1ccc([C@@H]2CC(=O)C[C@@H](c3ccccc3)C23C(=O)[N-]c2ccc(Br)cc23)cc1

>  <Energy>  (80) 
83.53458919615557

>  <Genealogy>  (80) 
Cc1ccc(C2CC(=O)CC(c3ccccc3)C23C(=O)[N-]c2ccc(Br)cc23)cc1 (protonated)
Cc1ccc([C@@H]2CC(=O)C[C@@H](c3ccccc3)C23C(=O)[N-]c2ccc(Br)cc23)cc1 (chirality)
Cc1ccc([C@@H]2CC(=O)C[C@@H](c3ccccc3)C23C(=O)[N-]c2ccc(Br)cc23)cc1 (3D coordinates assigned)
Cc1ccc([C@@H]2CC(=O)C[C@@H](c3ccccc3)C23C(=O)[N-]c2ccc(Br)cc23)cc1 (nonaromatic ring conformer: 83.53458919615557 kcal/mol)

>  <smiles>  (80) 
Cc1ccc(C2CC(=O)CC(c3ccccc3)C23C(=O)Nc2ccc(Br)cc23)cc1

>  <score_type>  (80) 
oracle

>  <origin>  (80) 
adg

>  <m_score__min__energy>  (80) 
-9.6999999999999993

>  <m_primary>  (80) 
energy

$$$$
80:0
     RDKit          3D

 52 55  0  0  0  0  0  0  0  0999 V2000
   59.3710   30.2820   51.3650 C   0  0  0  0  0  0  0  0  0  0  0  0
   59.9900   31.1840   50.3220 C   0  0  0  0  0  0  0  0  0  0  0  0
   60.2180   32.4600   50.6730 C   0  0  0  0  0  0  0  0  0  0  0  0
   61.4940   33.1700   50.3930 C   0  0  0  0  0  0  0  0  0  0  0  0
   61.5360   33.5140   48.9010 C   0  0  2  0  0  0  0  0  0  0  0  0
   60.1880   34.0910   48.4080 C   0  0  0  0  0  0  0  0  0  0  0  0
   60.2190   34.5580   46.9430 C   0  0  0  0  0  0  0  0  0  0  0  0
   58.9840   34.1660   46.1870 C   0  0  0  0  0  0  0  0  0  0  0  0
   57.9130   33.4500   46.6770 C   0  0  0  0  0  0  0  0  0  0  0  0
   57.0050   33.3930   45.6400 C   0  0  0  0  0  0  0  0  0  0  0  0
   57.4800   34.0340   44.5950 O   0  0  0  0  0  0  0  0  0  0  0  0
   58.6650   34.5150   44.8910 C   0  0  0  0  0  0  0  0  0  0  0  0
   61.8200   32.3350   48.1580 O   0  0  0  0  0  0  0  0  0  0  0  0
   61.0170   31.1930   47.9800 C   0  0  0  0  0  0  0  0  0  0  0  0
   60.1680   30.6600   48.9200 C   0  0  0  0  0  0  0  0  0  0  0  0
   59.3520   29.4080   48.5990 C   0  0  0  0  0  0  0  0  0  0  0  0
   59.3850   29.0610   47.1770 N   0  0  0  0  0  0  0  0  0  0  0  0
   58.1820   28.7660   46.4390 C   0  0  0  0  0  0  0  0  0  0  0  0
   57.4390   27.8190   46.8190 O   0  0  0  0  0  0  0  0  0  0  0  0
   57.7870   29.5600   45.2520 C   0  0  0  0  0  0  0  0  0  0  0  0
   58.7030   30.4630   44.6850 C   0  0  0  0  0  0  0  0  0  0  0  0
   58.3300   31.2210   43.5760 C   0  0  0  0  0  0  0  0  0  0  0  0
   57.0510   31.0840   43.0420 C   0  0  0  0  0  0  0  0  0  0  0  0
   56.1590   30.1860   43.6290 C   0  0  0  0  0  0  0  0  0  0  0  0
   56.5310   29.4480   44.7130 N   0  0  0  0  0  0  0  0  0  0  0  0
   55.6230   28.5560   45.2390 O   0  0  0  0  0  0  0  0  0  0  0  0
   60.6730   29.1680   46.5090 C   0  0  0  0  0  0  0  0  0  0  0  0
   61.1200   30.6160   46.5870 C   0  0  0  0  0  0  0  0  0  0  0  0
   59.6258   30.6533   52.3686 H   0  0  0  0  0  0  0  0  0  0  0  0
   58.2778   30.2764   51.2427 H   0  0  0  0  0  0  0  0  0  0  0  0
   59.7589   29.2600   51.2427 H   0  0  0  0  0  0  0  0  0  0  0  0
   59.4196   33.0082   51.1946 H   0  0  0  0  0  0  0  0  0  0  0  0
   61.5445   34.0931   50.9891 H   0  0  0  0  0  0  0  0  0  0  0  0
   62.3492   32.5312   50.6587 H   0  0  0  0  0  0  0  0  0  0  0  0
   62.3170   34.2743   48.7525 H   0  0  0  0  0  0  0  0  0  0  0  0
   59.4182   33.3117   48.5087 H   0  0  0  0  0  0  0  0  0  0  0  0
   59.9700   34.9754   49.0247 H   0  0  0  0  0  0  0  0  0  0  0  0
   60.3106   35.6540   46.9243 H   0  0  0  0  0  0  0  0  0  0  0  0
   61.0767   34.0712   46.4559 H   0  0  0  0  0  0  0  0  0  0  0  0
   57.8051   33.0160   47.6820 H   0  0  0  0  0  0  0  0  0  0  0  0
   56.0293   32.8868   45.6813 H   0  0  0  0  0  0  0  0  0  0  0  0
   59.3021   35.1027   44.2136 H   0  0  0  0  0  0  0  0  0  0  0  0
   59.7592   28.5650   49.1765 H   0  0  0  0  0  0  0  0  0  0  0  0
   58.3054   29.6162   48.8659 H   0  0  0  0  0  0  0  0  0  0  0  0
   59.7099   30.5711   45.1145 H   0  0  0  0  0  0  0  0  0  0  0  0
   59.0439   31.9253   43.1240 H   0  0  0  0  0  0  0  0  0  0  0  0
   56.7474   31.6774   42.1669 H   0  0  0  0  0  0  0  0  0  0  0  0
   55.1468   30.0726   43.2135 H   0  0  0  0  0  0  0  0  0  0  0  0
   61.4089   28.5222   47.0104 H   0  0  0  0  0  0  0  0  0  0  0  0
   60.5881   28.8492   45.4596 H   0  0  0  0  0  0  0  0  0  0  0  0
   62.1682   30.6771   46.2592 H   0  0  0  0  0  0  0  0  0  0  0  0
   60.4514   31.2015   45.9387 H   0  0  0  0  0  0  0  0  0  0  0  0
  1  2  1  0
  2  3  2  0
  3  4  1  0
  4  5  1  0
  5  6  1  0
  6  7  1  0
  7  8  1  0
  8  9  1  0
  9 10  2  0
 10 11  1  0
 11 12  1  0
  5 13  1  0
 13 14  1  0
 14 15  2  0
 15 16  1  0
 16 17  1  0
 17 18  1  0
 18 19  2  0
 18 20  1  0
 20 21  2  0
 21 22  1  0
 22 23  2  0
 23 24  1  0
 24 25  2  0
 25 26  1  0
 17 27  1  0
 27 28  1  0
 15  2  1  0
 25 20  1  0
 12  8  2  0
 28 14  1  0
  1 29  1  0
  1 30  1  0
  1 31  1  0
  3 32  1  0
  4 33  1  0
  4 34  1  0
  5 35  1  1
  6 36  1  0
  6 37  1  0
  7 38  1  0
  7 39  1  0
  9 40  1  0
 10 41  1  0
 12 42  1  0
 16 43  1  0
 16 44  1  0
 21 45  1  0
 22 46  1  0
 23 47  1  0
 24 48  1  0
 27 49  1  0
 27 50  1  0
 28 51  1  0
 28 52  1  0
M  CHG  2  25   1  26  -1
M  END
>  <UniqueID>  (81) 
75

>  <SMILES>  (81) 
CC1=CC[C@H](CCc2ccoc2)OC2=C1CN(C(=O)c1cccc[n+]1[O-])CC2

>  <Energy>  (81) 
99.81247754617183

>  <Genealogy>  (81) 
CC1=CC[C@H](CCc2ccoc2)OC2=C1CN(C(=O)c1cccc[n+]1[O-])CC2 (chirality)
CC1=CC[C@H](CCc2ccoc2)OC2=C1CN(C(=O)c1cccc[n+]1[O-])CC2 (3D coordinates assigned)
CC1=CC[C@H](CCc2ccoc2)OC2=C1CN(C(=O)c1cccc[n+]1[O-])CC2 (nonaromatic ring conformer: 99.81247754617183 kcal/mol)

>  <smiles>  (81) 
CC1=CCC(CCc2ccoc2)OC2=C1CN(C(=O)c1cccc[n+]1[O-])CC2

>  <score_type>  (81) 
oracle

>  <origin>  (81) 
adg

>  <m_score__min__energy>  (81) 
-8.0600000000000005

>  <m_primary>  (81) 
energy

$$$$
81:0
     RDKit          3D

 37 38  0  0  0  0  0  0  0  0999 V2000
   59.9230   35.8050   46.0740 C   0  0  0  0  0  0  0  0  0  0  0  0
   59.3570   34.4440   45.7850 C   0  0  0  0  0  0  0  0  0  0  0  0
   58.8700   34.1410   44.5130 C   0  0  0  0  0  0  0  0  0  0  0  0
   58.3750   32.8610   44.2130 C   0  0  0  0  0  0  0  0  0  0  0  0
   57.8220   32.6320   42.8310 C   0  0  0  0  0  0  0  0  0  0  0  0
   58.4250   31.8370   45.2000 C   0  0  0  0  0  0  0  0  0  0  0  0
   57.9320   30.1570   44.8300 S   0  0  0  0  0  0  0  0  0  0  0  0
   57.7260   29.9290   43.3590 O   0  0  0  0  0  0  0  0  0  0  0  0
   56.6450   29.8620   45.5470 O   0  0  0  0  0  0  0  0  0  0  0  0
   59.1310   29.0540   45.3520 O   0  0  0  0  0  0  0  0  0  0  0  0
   58.8860   27.7230   45.7200 C   0  0  0  0  0  0  0  0  0  0  0  0
   59.9190   26.8030   45.9770 C   0  0  0  0  0  0  0  0  0  0  0  0
   59.6150   25.4930   46.3510 C   0  0  0  0  0  0  0  0  0  0  0  0
   58.2850   25.0860   46.4730 C   0  0  0  0  0  0  0  0  0  0  0  0
   57.2390   25.9890   46.2200 C   0  0  0  0  0  0  0  0  0  0  0  0
   55.8680   25.5680   46.3460 N   0  0  0  0  0  0  0  0  0  0  0  0
   54.9360   26.3210   45.9940 O   0  0  0  0  0  0  0  0  0  0  0  0
   55.5610   24.3280   46.8570 O   0  0  0  0  0  0  0  0  0  0  0  0
   57.5550   27.3080   45.8430 C   0  0  0  0  0  0  0  0  0  0  0  0
   58.8740   32.1690   46.5070 C   0  0  0  0  0  0  0  0  0  0  0  0
   58.8840   31.1740   47.6410 C   0  0  0  0  0  0  0  0  0  0  0  0
   59.3660   33.4570   46.7710 C   0  0  0  0  0  0  0  0  0  0  0  0
   59.9845   35.9530   47.1623 H   0  0  0  0  0  0  0  0  0  0  0  0
   60.9288   35.8845   45.6357 H   0  0  0  0  0  0  0  0  0  0  0  0
   59.2702   36.5742   45.6357 H   0  0  0  0  0  0  0  0  0  0  0  0
   58.8737   34.9166   43.7329 H   0  0  0  0  0  0  0  0  0  0  0  0
   56.8081   32.2121   42.9067 H   0  0  0  0  0  0  0  0  0  0  0  0
   57.7834   33.5881   42.2885 H   0  0  0  0  0  0  0  0  0  0  0  0
   58.4706   31.9285   42.2885 H   0  0  0  0  0  0  0  0  0  0  0  0
   60.9690   27.1169   45.8829 H   0  0  0  0  0  0  0  0  0  0  0  0
   60.4269   24.7781   46.5505 H   0  0  0  0  0  0  0  0  0  0  0  0
   58.0548   24.0519   46.7690 H   0  0  0  0  0  0  0  0  0  0  0  0
   56.7437   28.0232   45.6421 H   0  0  0  0  0  0  0  0  0  0  0  0
   58.8786   31.7117   48.6006 H   0  0  0  0  0  0  0  0  0  0  0  0
   57.9922   30.5334   47.5746 H   0  0  0  0  0  0  0  0  0  0  0  0
   59.7884   30.5515   47.5746 H   0  0  0  0  0  0  0  0  0  0  0  0
   59.7642   33.6913   47.7693 H   0  0  0  0  0  0  0  0  0  0  0  0
  1  2  1  0
  2  3  2  0
  3  4  1  0
  4  5  1  0
  4  6  2  0
  6  7  1  0
  7  8  2  0
  7  9  2  0
  7 10  1  0
 10 11  1  0
 11 12  2  0
 12 13  1  0
 13 14  2  0
 14 15  1  0
 15 16  1  0
 16 17  2  0
 16 18  1  0
 15 19  2  0
  6 20  1  0
 20 21  1  0
 20 22  2  0
 22  2  1  0
 19 11  1  0
  1 23  1  0
  1 24  1  0
  1 25  1  0
  3 26  1  0
  5 27  1  0
  5 28  1  0
  5 29  1  0
 12 30  1  0
 13 31  1  0
 14 32  1  0
 19 33  1  0
 21 34  1  0
 21 35  1  0
 21 36  1  0
 22 37  1  0
M  CHG  2  16   1  18  -1
M  END
>  <UniqueID>  (82) 
76

>  <SMILES>  (82) 
Cc1cc(C)c(S(=O)(=O)Oc2cccc([N+](=O)[O-])c2)c(C)c1

>  <Energy>  (82) 
42.665336215534666

>  <Genealogy>  (82) 
Cc1cc(C)c(S(=O)(=O)Oc2cccc([N+](=O)[O-])c2)c(C)c1 (3D coordinates assigned)
Cc1cc(C)c(S(=O)(=O)Oc2cccc([N+](=O)[O-])c2)c(C)c1 (optimized conformer: 42.665336215534666 kcal/mol)

>  <smiles>  (82) 
Cc1cc(C)c(S(=O)(=O)Oc2cccc([N+](=O)[O-])c2)c(C)c1

>  <score_type>  (82) 
oracle

>  <origin>  (82) 
adg

>  <m_score__min__energy>  (82) 
-8.8399999999999999

>  <m_primary>  (82) 
energy

$$$$
82:0
     RDKit          3D

 38 39  0  0  0  0  0  0  0  0999 V2000
   55.5680   30.0540   44.1090 C   0  0  0  0  0  0  0  0  0  0  0  0
   56.7320   30.5490   44.8620 N   0  0  0  0  0  0  0  0  0  0  0  0
   57.4540   29.4180   45.4680 C   0  0  0  0  0  0  0  0  0  0  0  0
   57.6250   31.3650   44.0040 C   0  0  0  0  0  0  0  0  0  0  0  0
   57.3920   32.8550   44.2720 C   0  0  0  0  0  0  0  0  0  0  0  0
   58.2110   33.3390   45.4390 C   0  0  0  0  0  0  0  0  0  0  0  0
   58.1710   32.6550   46.6640 C   0  0  0  0  0  0  0  0  0  0  0  0
   58.9690   33.0730   47.7320 C   0  0  0  0  0  0  0  0  0  0  0  0
   59.8360   34.1640   47.5870 C   0  0  0  0  0  0  0  0  0  0  0  0
   60.6360   34.5860   48.7040 N   0  0  0  0  0  0  0  0  0  0  0  0
   61.9720   34.1210   48.9670 C   0  0  0  0  0  0  0  0  0  0  0  0
   62.7590   33.5440   47.9530 C   0  0  0  0  0  0  0  0  0  0  0  0
   64.0430   33.0730   48.2400 C   0  0  0  0  0  0  0  0  0  0  0  0
   64.5480   33.1600   49.5410 C   0  0  0  0  0  0  0  0  0  0  0  0
   63.7630   33.7100   50.5580 C   0  0  0  0  0  0  0  0  0  0  0  0
   62.4780   34.1820   50.2750 C   0  0  0  0  0  0  0  0  0  0  0  0
   59.8630   34.8620   46.3660 C   0  0  0  0  0  0  0  0  0  0  0  0
   59.0640   34.4450   45.2980 C   0  0  0  0  0  0  0  0  0  0  0  0
   54.7899   29.7231   44.8126 H   0  0  0  0  0  0  0  0  0  0  0  0
   55.1707   30.8610   43.4759 H   0  0  0  0  0  0  0  0  0  0  0  0
   55.8736   29.2080   43.4759 H   0  0  0  0  0  0  0  0  0  0  0  0
   57.4041   29.4961   46.5641 H   0  0  0  0  0  0  0  0  0  0  0  0
   56.9916   28.4732   45.1463 H   0  0  0  0  0  0  0  0  0  0  0  0
   58.5057   29.4397   45.1463 H   0  0  0  0  0  0  0  0  0  0  0  0
   58.6727   31.1144   44.2267 H   0  0  0  0  0  0  0  0  0  0  0  0
   57.4060   31.1498   42.9477 H   0  0  0  0  0  0  0  0  0  0  0  0
   57.6728   33.4278   43.3759 H   0  0  0  0  0  0  0  0  0  0  0  0
   56.3284   33.0010   44.5118 H   0  0  0  0  0  0  0  0  0  0  0  0
   57.5080   31.7854   46.7838 H   0  0  0  0  0  0  0  0  0  0  0  0
   58.9162   32.5416   48.6937 H   0  0  0  0  0  0  0  0  0  0  0  0
   60.2170   35.2710   49.3730 H   0  0  0  0  0  0  0  0  0  0  0  0
   62.3618   33.4634   46.9304 H   0  0  0  0  0  0  0  0  0  0  0  0
   64.6576   32.6330   47.4409 H   0  0  0  0  0  0  0  0  0  0  0  0
   65.5619   32.7960   49.7637 H   0  0  0  0  0  0  0  0  0  0  0  0
   64.1570   33.7716   51.5832 H   0  0  0  0  0  0  0  0  0  0  0  0
   61.8600   34.6035   51.0815 H   0  0  0  0  0  0  0  0  0  0  0  0
   60.5159   35.7399   46.2514 H   0  0  0  0  0  0  0  0  0  0  0  0
   59.1037   34.9865   44.3413 H   0  0  0  0  0  0  0  0  0  0  0  0
  1  2  1  0
  2  3  1  0
  2  4  1  0
  4  5  1  0
  5  6  1  0
  6  7  2  0
  7  8  1  0
  8  9  2  0
  9 10  1  0
 10 11  1  0
 11 12  2  0
 12 13  1  0
 13 14  2  0
 14 15  1  0
 15 16  2  0
  9 17  1  0
 17 18  2  0
 18  6  1  0
 16 11  1  0
  1 19  1  0
  1 20  1  0
  1 21  1  0
  3 22  1  0
  3 23  1  0
  3 24  1  0
  4 25  1  0
  4 26  1  0
  5 27  1  0
  5 28  1  0
  7 29  1  0
  8 30  1  0
 10 31  1  0
 12 32  1  0
 13 33  1  0
 14 34  1  0
 15 35  1  0
 16 36  1  0
 17 37  1  0
 18 38  1  0
M  END
>  <UniqueID>  (83) 
77

>  <SMILES>  (83) 
CN(C)CCc1ccc(Nc2ccccc2)cc1

>  <Energy>  (83) 
42.157929221182776

>  <Genealogy>  (83) 
CN(C)CCc1ccc(Nc2ccccc2)cc1 (3D coordinates assigned)
CN(C)CCc1ccc(Nc2ccccc2)cc1 (optimized conformer: 42.157929221182776 kcal/mol)

>  <smiles>  (83) 
CN(C)CCc1ccc(Nc2ccccc2)cc1

>  <score_type>  (83) 
oracle

>  <origin>  (83) 
adg

>  <m_score__min__energy>  (83) 
-6.7199999999999998

>  <m_primary>  (83) 
energy

$$$$
83:0
     RDKit          3D

 52 57  0  0  0  0  0  0  0  0999 V2000
   63.7630   34.2920   47.4900 O   0  0  0  0  0  0  0  0  0  0  0  0
   62.8270   33.8390   48.2000 C   0  0  0  0  0  0  0  0  0  0  0  0
   61.4740   33.6280   47.7770 C   0  0  0  0  0  0  0  0  0  0  0  0
   60.8760   33.3090   46.5810 C   0  0  0  0  0  0  0  0  0  0  0  0
   59.8010   32.4870   46.9400 C   0  0  0  0  0  0  0  0  0  0  0  0
   58.8980   31.8020   45.9810 C   0  0  0  0  0  0  0  0  0  0  0  0
   58.6860   30.4130   46.0540 C   0  0  0  0  0  0  0  0  0  0  0  0
   57.8400   29.7770   45.1410 C   0  0  0  0  0  0  0  0  0  0  0  0
   57.1980   30.5180   44.1440 C   0  0  0  0  0  0  0  0  0  0  0  0
   56.1440   29.7170   42.9960 Cl  0  0  0  0  0  0  0  0  0  0  0  0
   57.3960   31.8970   44.0640 C   0  0  0  0  0  0  0  0  0  0  0  0
   58.2400   32.5370   44.9760 C   0  0  0  0  0  0  0  0  0  0  0  0
   59.7910   32.2780   48.2830 N   0  0  0  0  0  0  0  0  0  0  0  0
   60.8180   33.0000   48.7700 C   0  0  0  0  0  0  0  0  0  0  0  0
   61.6970   32.7580   49.9830 C   0  0  2  0  0  0  0  0  0  0  0  0
   61.8830   31.2320   50.2440 C   0  0  0  0  0  0  0  0  0  0  0  0
   60.8650   30.5940   51.2270 C   0  0  0  0  0  0  0  0  0  0  0  0
   59.6770   31.4650   51.5650 C   0  0  0  0  0  0  0  0  0  0  0  0
   58.4580   30.8770   51.9400 C   0  0  0  0  0  0  0  0  0  0  0  0
   57.3820   31.6780   52.3300 C   0  0  0  0  0  0  0  0  0  0  0  0
   57.5190   33.0680   52.3650 C   0  0  0  0  0  0  0  0  0  0  0  0
   58.7310   33.6620   52.0080 C   0  0  0  0  0  0  0  0  0  0  0  0
   59.8120   32.8650   51.6040 C   0  0  0  0  0  0  0  0  0  0  0  0
   61.1240   33.4820   51.2150 C   0  0  0  0  0  0  0  0  0  0  0  0
   62.9740   33.3810   49.5480 N   0  0  0  0  0  0  0  0  0  0  0  0
   64.2320   33.3110   50.2380 C   0  0  0  0  0  0  0  0  0  0  0  0
   65.2300   32.4340   49.7880 C   0  0  0  0  0  0  0  0  0  0  0  0
   66.4510   32.3730   50.4660 C   0  0  0  0  0  0  0  0  0  0  0  0
   66.6710   33.1660   51.5490 N   0  0  0  0  0  0  0  0  0  0  0  0
   65.7230   34.0400   51.9920 C   0  0  0  0  0  0  0  0  0  0  0  0
   64.4900   34.1310   51.3410 C   0  0  0  0  0  0  0  0  0  0  0  0
   61.1744   33.6273   45.5712 H   0  0  0  0  0  0  0  0  0  0  0  0
   59.1893   29.8237   46.8347 H   0  0  0  0  0  0  0  0  0  0  0  0
   57.6789   28.6909   45.2070 H   0  0  0  0  0  0  0  0  0  0  0  0
   56.8875   32.4808   43.2826 H   0  0  0  0  0  0  0  0  0  0  0  0
   58.3916   33.6244   44.9081 H   0  0  0  0  0  0  0  0  0  0  0  0
   59.1950   31.6090   48.8180 H   0  0  0  0  0  0  0  0  0  0  0  0
   61.7959   30.7100   49.2797 H   0  0  0  0  0  0  0  0  0  0  0  0
   62.8696   31.1245   50.7185 H   0  0  0  0  0  0  0  0  0  0  0  0
   60.4896   29.6642   50.7747 H   0  0  0  0  0  0  0  0  0  0  0  0
   61.4069   30.4308   52.1703 H   0  0  0  0  0  0  0  0  0  0  0  0
   58.3502   29.7824   51.9266 H   0  0  0  0  0  0  0  0  0  0  0  0
   56.4250   31.2135   52.6101 H   0  0  0  0  0  0  0  0  0  0  0  0
   56.6703   33.6956   52.6744 H   0  0  0  0  0  0  0  0  0  0  0  0
   58.8382   34.7562   52.0436 H   0  0  0  0  0  0  0  0  0  0  0  0
   60.9709   34.5446   50.9754 H   0  0  0  0  0  0  0  0  0  0  0  0
   61.8313   33.3885   52.0523 H   0  0  0  0  0  0  0  0  0  0  0  0
   65.0531   31.7986   48.9077 H   0  0  0  0  0  0  0  0  0  0  0  0
   67.2354   31.6823   50.1230 H   0  0  0  0  0  0  0  0  0  0  0  0
   67.5880   33.1080   52.0470 H   0  0  0  0  0  0  0  0  0  0  0  0
   65.9296   34.6760   52.8654 H   0  0  0  0  0  0  0  0  0  0  0  0
   63.7283   34.8421   51.6934 H   0  0  0  0  0  0  0  0  0  0  0  0
  1  2  2  0
  2  3  1  0
  3  4  1  0
  4  5  2  0
  5  6  1  0
  6  7  2  0
  7  8  1  0
  8  9  2  0
  9 10  1  0
  9 11  1  0
 11 12  2  0
  5 13  1  0
 13 14  1  0
 14 15  1  0
 15 16  1  0
 16 17  1  0
 17 18  1  0
 18 19  2  0
 19 20  1  0
 20 21  2  0
 21 22  1  0
 22 23  2  0
 23 24  1  0
 15 25  1  6
 25 26  1  0
 26 27  2  0
 27 28  1  0
 28 29  2  0
 29 30  1  0
 30 31  2  0
 25  2  1  0
 31 26  1  0
 14  3  2  0
 24 15  1  0
 12  6  1  0
 23 18  1  0
  4 32  1  0
  7 33  1  0
  8 34  1  0
 11 35  1  0
 12 36  1  0
 13 37  1  0
 16 38  1  0
 16 39  1  0
 17 40  1  0
 17 41  1  0
 19 42  1  0
 20 43  1  0
 21 44  1  0
 22 45  1  0
 24 46  1  0
 24 47  1  0
 27 48  1  0
 28 49  1  0
 29 50  1  0
 30 51  1  0
 31 52  1  0
M  CHG  1  29   1
M  END
>  <UniqueID>  (84) 
78

>  <SMILES>  (84) 
O=C1c2cc(-c3ccc(Cl)cc3)[nH]c2[C@@]2(CCc3ccccc3C2)N1c1cc[nH+]cc1

>  <Energy>  (84) 
139.30457494720525

>  <Genealogy>  (84) 
O=C1c2cc(-c3ccc(Cl)cc3)[nH]c2C2(CCc3ccccc3C2)N1c1cc[nH+]cc1 (protonated)
O=C1c2cc(-c3ccc(Cl)cc3)[nH]c2[C@@]2(CCc3ccccc3C2)N1c1cc[nH+]cc1 (chirality)
O=C1c2cc(-c3ccc(Cl)cc3)[nH]c2[C@@]2(CCc3ccccc3C2)N1c1cc[nH+]cc1 (3D coordinates assigned)
O=C1c2cc(-c3ccc(Cl)cc3)[nH]c2[C@@]2(CCc3ccccc3C2)N1c1cc[nH+]cc1 (nonaromatic ring conformer: 139.30457494720525 kcal/mol)

>  <smiles>  (84) 
O=C1c2cc(-c3ccc(Cl)cc3)[nH]c2C2(CCc3ccccc3C2)N1c1ccncc1

>  <score_type>  (84) 
oracle

>  <origin>  (84) 
adg

>  <m_score__min__energy>  (84) 
-7.8799999999999999

>  <m_primary>  (84) 
energy

$$$$
84:0
     RDKit          3D

 36 38  0  0  0  0  0  0  0  0999 V2000
   55.3680   23.2830   45.0260 C   0  0  0  0  0  0  0  0  0  0  0  0
   55.6650   24.6880   45.4260 C   0  0  0  0  0  0  0  0  0  0  0  0
   56.9060   25.2900   45.3990 C   0  0  0  0  0  0  0  0  0  0  0  0
   56.6380   26.5880   45.7820 C   0  0  0  0  0  0  0  0  0  0  0  0
   57.6110   27.6760   45.9280 C   0  0  0  0  0  0  0  0  0  0  0  0
   58.1750   28.4010   44.8820 C   0  0  0  0  0  0  0  0  0  0  0  0
   59.0790   29.3780   45.3130 C   0  0  0  0  0  0  0  0  0  0  0  0
   59.2210   29.4150   46.6920 C   0  0  0  0  0  0  0  0  0  0  0  0
   60.2790   30.4910   47.5830 S   0  0  0  0  0  0  0  0  0  0  0  0
   61.4930   30.8030   46.7540 O   0  0  0  0  0  0  0  0  0  0  0  0
   60.7250   29.8270   48.8570 O   0  0  0  0  0  0  0  0  0  0  0  0
   59.4280   31.9610   47.9680 N   0  0  0  0  0  0  0  0  0  0  0  0
   59.1940   32.2960   49.3730 C   0  0  0  0  0  0  0  0  0  0  0  0
   59.0050   32.8620   46.9220 C   0  0  0  0  0  0  0  0  0  0  0  0
   57.8370   32.6050   46.1790 C   0  0  0  0  0  0  0  0  0  0  0  0
   57.4370   33.4750   45.1600 C   0  0  0  0  0  0  0  0  0  0  0  0
   58.1990   34.6080   44.8670 C   0  0  0  0  0  0  0  0  0  0  0  0
   59.3630   34.8720   45.5910 C   0  0  0  0  0  0  0  0  0  0  0  0
   59.7680   34.0050   46.6110 C   0  0  0  0  0  0  0  0  0  0  0  0
   58.2360   28.2450   47.3860 S   0  0  0  0  0  0  0  0  0  0  0  0
   55.3470   26.7120   45.9940 O   0  0  0  0  0  0  0  0  0  0  0  0
   54.7270   25.5870   45.7820 N   0  0  0  0  0  0  0  0  0  0  0  0
   55.2374   22.6652   45.9267 H   0  0  0  0  0  0  0  0  0  0  0  0
   54.4450   23.2593   44.4281 H   0  0  0  0  0  0  0  0  0  0  0  0
   56.2025   22.8878   44.4281 H   0  0  0  0  0  0  0  0  0  0  0  0
   57.8758   24.8427   45.1355 H   0  0  0  0  0  0  0  0  0  0  0  0
   57.9342   28.2237   43.8234 H   0  0  0  0  0  0  0  0  0  0  0  0
   59.6210   30.0475   44.6289 H   0  0  0  0  0  0  0  0  0  0  0  0
   59.7056   31.5636   50.0147 H   0  0  0  0  0  0  0  0  0  0  0  0
   59.5865   33.3025   49.5803 H   0  0  0  0  0  0  0  0  0  0  0  0
   58.1139   32.2738   49.5803 H   0  0  0  0  0  0  0  0  0  0  0  0
   57.2341   31.7124   46.4020 H   0  0  0  0  0  0  0  0  0  0  0  0
   56.5207   33.2666   44.5883 H   0  0  0  0  0  0  0  0  0  0  0  0
   57.8821   35.2922   44.0660 H   0  0  0  0  0  0  0  0  0  0  0  0
   59.9631   35.7641   45.3587 H   0  0  0  0  0  0  0  0  0  0  0  0
   60.6887   34.2169   47.1744 H   0  0  0  0  0  0  0  0  0  0  0  0
  1  2  1  0
  2  3  1  0
  3  4  2  0
  4  5  1  0
  5  6  2  0
  6  7  1  0
  7  8  2  0
  8  9  1  0
  9 10  2  0
  9 11  2  0
  9 12  1  0
 12 13  1  0
 12 14  1  0
 14 15  2  0
 15 16  1  0
 16 17  2  0
 17 18  1  0
 18 19  2  0
  8 20  1  0
  4 21  1  0
 21 22  1  0
 22  2  2  0
 20  5  1  0
 19 14  1  0
  1 23  1  0
  1 24  1  0
  1 25  1  0
  3 26  1  0
  6 27  1  0
  7 28  1  0
 13 29  1  0
 13 30  1  0
 13 31  1  0
 15 32  1  0
 16 33  1  0
 17 34  1  0
 18 35  1  0
 19 36  1  0
M  END
>  <UniqueID>  (85) 
79

>  <SMILES>  (85) 
Cc1cc(-c2ccc(S(=O)(=O)N(C)c3ccccc3)s2)on1

>  <Energy>  (85) 
96.53712087483507

>  <Genealogy>  (85) 
Cc1cc(-c2ccc(S(=O)(=O)N(C)c3ccccc3)s2)on1 (3D coordinates assigned)
Cc1cc(-c2ccc(S(=O)(=O)N(C)c3ccccc3)s2)on1 (optimized conformer: 96.53712087483507 kcal/mol)

>  <smiles>  (85) 
Cc1cc(-c2ccc(S(=O)(=O)N(C)c3ccccc3)s2)on1

>  <score_type>  (85) 
oracle

>  <origin>  (85) 
adg

>  <m_score__min__energy>  (85) 
-8.3100000000000005

>  <m_primary>  (85) 
energy

$$$$
85:0
     RDKit          3D

 44 47  0  0  0  0  0  0  0  0999 V2000
   56.7040   33.6890   44.8920 O   0  0  0  0  0  0  0  0  0  0  0  0
   57.7990   32.6740   45.0660 S   0  0  0  0  0  0  0  0  0  0  0  0
   58.4880   32.4810   43.7420 O   0  0  0  0  0  0  0  0  0  0  0  0
   58.9790   33.2600   46.2350 C   0  0  0  0  0  0  0  0  0  0  0  0
   60.3010   33.4980   45.8330 C   0  0  0  0  0  0  0  0  0  0  0  0
   61.2490   33.9430   46.7610 C   0  0  0  0  0  0  0  0  0  0  0  0
   60.8820   34.1470   48.0940 C   0  0  0  0  0  0  0  0  0  0  0  0
   61.8020   34.5770   48.9930 F   0  0  0  0  0  0  0  0  0  0  0  0
   59.5660   33.9040   48.5020 C   0  0  0  0  0  0  0  0  0  0  0  0
   58.6160   33.4600   47.5770 C   0  0  0  0  0  0  0  0  0  0  0  0
   57.1290   31.1550   45.6070 N   0  0  0  0  0  0  0  0  0  0  0  0
   56.4430   30.4720   44.4860 C   0  0  0  0  0  0  0  0  0  0  0  0
   56.3130   28.9670   44.7360 C   0  0  0  0  0  0  0  0  0  0  0  0
   57.7160   28.3040   44.7760 C   0  0  0  0  0  0  0  0  0  0  0  0
   58.1510   27.8510   43.3450 C   0  0  0  0  0  0  0  0  0  0  0  0
   57.8610   26.3470   43.2340 C   0  0  0  0  0  0  0  0  0  0  0  0
   57.7020   25.9220   44.6410 C   0  0  0  0  0  0  0  0  0  0  0  0
   57.5920   24.6070   45.1000 C   0  0  0  0  0  0  0  0  0  0  0  0
   57.4110   24.3840   46.4730 C   0  0  0  0  0  0  0  0  0  0  0  0
   57.3310   25.4710   47.3590 C   0  0  0  0  0  0  0  0  0  0  0  0
   57.4330   26.7840   46.8770 C   0  0  0  0  0  0  0  0  0  0  0  0
   57.6290   26.9920   45.5040 C   0  0  0  0  0  0  0  0  0  0  0  0
   58.7810   29.2590   45.4000 C   0  0  0  0  0  0  0  0  0  0  0  0
   58.1500   30.3340   46.3030 C   0  0  0  0  0  0  0  0  0  0  0  0
   60.5937   33.3345   44.7853 H   0  0  0  0  0  0  0  0  0  0  0  0
   62.2842   34.1325   46.4410 H   0  0  0  0  0  0  0  0  0  0  0  0
   59.2783   34.0624   49.5518 H   0  0  0  0  0  0  0  0  0  0  0  0
   57.5826   33.2670   47.9009 H   0  0  0  0  0  0  0  0  0  0  0  0
   55.4375   30.9022   44.3679 H   0  0  0  0  0  0  0  0  0  0  0  0
   57.0431   30.6184   43.5758 H   0  0  0  0  0  0  0  0  0  0  0  0
   55.8059   28.8015   45.6980 H   0  0  0  0  0  0  0  0  0  0  0  0
   55.7284   28.5180   43.9195 H   0  0  0  0  0  0  0  0  0  0  0  0
   57.5774   28.4020   42.5852 H   0  0  0  0  0  0  0  0  0  0  0  0
   59.2193   28.0547   43.1801 H   0  0  0  0  0  0  0  0  0  0  0  0
   56.9393   26.1654   42.6618 H   0  0  0  0  0  0  0  0  0  0  0  0
   58.6532   25.7955   42.7065 H   0  0  0  0  0  0  0  0  0  0  0  0
   57.6463   23.7622   44.3977 H   0  0  0  0  0  0  0  0  0  0  0  0
   57.3316   23.3561   46.8565 H   0  0  0  0  0  0  0  0  0  0  0  0
   57.1878   25.2917   48.4348 H   0  0  0  0  0  0  0  0  0  0  0  0
   57.3603   27.6384   47.5659 H   0  0  0  0  0  0  0  0  0  0  0  0
   59.4826   28.6612   46.0003 H   0  0  0  0  0  0  0  0  0  0  0  0
   59.2934   29.7742   44.5742 H   0  0  0  0  0  0  0  0  0  0  0  0
   57.6732   29.8353   47.1597 H   0  0  0  0  0  0  0  0  0  0  0  0
   58.9569   31.0124   46.6170 H   0  0  0  0  0  0  0  0  0  0  0  0
  1  2  2  0
  2  3  2  0
  2  4  1  0
  4  5  2  0
  5  6  1  0
  6  7  2  0
  7  8  1  0
  7  9  1  0
  9 10  2  0
  2 11  1  0
 11 12  1  0
 12 13  1  0
 13 14  1  0
 14 15  1  0
 15 16  1  0
 16 17  1  0
 17 18  2  0
 18 19  1  0
 19 20  2  0
 20 21  1  0
 21 22  2  0
 14 23  1  0
 23 24  1  0
 10  4  1  0
 24 11  1  0
 22 14  1  0
 22 17  1  0
  5 25  1  0
  6 26  1  0
  9 27  1  0
 10 28  1  0
 12 29  1  0
 12 30  1  0
 13 31  1  0
 13 32  1  0
 15 33  1  0
 15 34  1  0
 16 35  1  0
 16 36  1  0
 18 37  1  0
 19 38  1  0
 20 39  1  0
 21 40  1  0
 23 41  1  0
 23 42  1  0
 24 43  1  0
 24 44  1  0
M  END
>  <UniqueID>  (86) 
80

>  <SMILES>  (86) 
O=S(=O)(c1ccc(F)cc1)N1CCC2(CCc3ccccc32)CC1

>  <Energy>  (86) 
64.374225273343

>  <Genealogy>  (86) 
O=S(=O)(c1ccc(F)cc1)N1CCC2(CCc3ccccc32)CC1 (3D coordinates assigned)
O=S(=O)(c1ccc(F)cc1)N1CCC2(CCc3ccccc32)CC1 (nonaromatic ring conformer: 64.374225273343 kcal/mol)

>  <smiles>  (86) 
O=S(=O)(c1ccc(F)cc1)N1CCC2(CCc3ccccc32)CC1

>  <score_type>  (86) 
oracle

>  <origin>  (86) 
adg

>  <m_score__min__energy>  (86) 
-8.9399999999999995

>  <m_primary>  (86) 
energy

$$$$
86:0
     RDKit          3D

 29 30  0  0  0  0  0  0  0  0999 V2000
   55.2690   29.3360   44.8850 O   0  0  0  0  0  0  0  0  0  0  0  0
   56.4560   30.1050   44.3740 S   0  0  0  0  0  0  0  0  0  0  0  0
   56.4640   30.0260   42.8750 O   0  0  0  0  0  0  0  0  0  0  0  0
   56.3320   31.7680   44.8580 N   0  0  0  0  0  0  0  0  0  0  0  0
   57.4030   32.5450   44.2420 C   0  0  0  0  0  0  0  0  0  0  0  0
   58.1880   33.2410   45.3180 C   0  0  0  0  0  0  0  0  0  0  0  0
   58.1170   32.7950   46.6480 C   0  0  0  0  0  0  0  0  0  0  0  0
   58.8200   33.4670   47.6530 C   0  0  0  0  0  0  0  0  0  0  0  0
   59.5880   34.5910   47.3400 C   0  0  0  0  0  0  0  0  0  0  0  0
   59.6500   35.0500   46.0210 C   0  0  0  0  0  0  0  0  0  0  0  0
   58.9480   34.3820   45.0130 C   0  0  0  0  0  0  0  0  0  0  0  0
   57.9490   29.4020   44.9920 C   0  0  0  0  0  0  0  0  0  0  0  0
   58.1140   29.1820   46.3670 C   0  0  0  0  0  0  0  0  0  0  0  0
   59.3120   28.6410   46.8340 C   0  0  0  0  0  0  0  0  0  0  0  0
   60.3310   28.3270   45.9340 C   0  0  0  0  0  0  0  0  0  0  0  0
   60.1350   28.5640   44.5720 C   0  0  0  0  0  0  0  0  0  0  0  0
   58.9610   29.0930   44.1300 N   0  0  0  0  0  0  0  0  0  0  0  0
   58.0670   31.8739   43.6774 H   0  0  0  0  0  0  0  0  0  0  0  0
   56.9728   33.2902   43.5567 H   0  0  0  0  0  0  0  0  0  0  0  0
   57.5069   31.9150   46.8997 H   0  0  0  0  0  0  0  0  0  0  0  0
   58.7680   33.1097   48.6921 H   0  0  0  0  0  0  0  0  0  0  0  0
   60.1440   35.1150   48.1314 H   0  0  0  0  0  0  0  0  0  0  0  0
   60.2517   35.9376   45.7759 H   0  0  0  0  0  0  0  0  0  0  0  0
   58.9911   34.7513   43.9778 H   0  0  0  0  0  0  0  0  0  0  0  0
   57.3067   29.4336   47.0705 H   0  0  0  0  0  0  0  0  0  0  0  0
   59.4531   28.4622   47.9102 H   0  0  0  0  0  0  0  0  0  0  0  0
   61.2779   27.8977   46.2934 H   0  0  0  0  0  0  0  0  0  0  0  0
   60.9321   28.3224   43.8535 H   0  0  0  0  0  0  0  0  0  0  0  0
   58.8410   29.2660   43.1080 H   0  0  0  0  0  0  0  0  0  0  0  0
  1  2  2  0
  2  3  2  0
  2  4  1  0
  4  5  1  0
  5  6  1  0
  6  7  2  0
  7  8  1  0
  8  9  2  0
  9 10  1  0
 10 11  2  0
  2 12  1  0
 12 13  2  0
 13 14  1  0
 14 15  2  0
 15 16  1  0
 16 17  2  0
 11  6  1  0
 17 12  1  0
  5 18  1  0
  5 19  1  0
  7 20  1  0
  8 21  1  0
  9 22  1  0
 10 23  1  0
 11 24  1  0
 13 25  1  0
 14 26  1  0
 15 27  1  0
 16 28  1  0
 17 29  1  0
M  CHG  2   4  -1  17   1
M  END
>  <UniqueID>  (87) 
81

>  <SMILES>  (87) 
O=S(=O)([N-]Cc1ccccc1)c1cccc[nH+]1

>  <Energy>  (87) 
27.279599592863633

>  <Genealogy>  (87) 
O=S(=O)([N-]Cc1ccccc1)c1cccc[nH+]1 (protonated)
O=S(=O)([N-]Cc1ccccc1)c1cccc[nH+]1 (3D coordinates assigned)
O=S(=O)([N-]Cc1ccccc1)c1cccc[nH+]1 (optimized conformer: 27.279599592863633 kcal/mol)

>  <smiles>  (87) 
O=S(=O)(NCc1ccccc1)c1ccccn1

>  <score_type>  (87) 
oracle

>  <origin>  (87) 
adg

>  <m_score__min__energy>  (87) 
-7.3499999999999996

>  <m_primary>  (87) 
energy

$$$$
87:0
     RDKit          3D

 42 43  0  0  0  0  0  0  0  0999 V2000
   57.9850   32.5170   41.0880 C   0  0  0  0  0  0  0  0  0  0  0  0
   57.0140   31.6170   41.8460 C   0  0  0  0  0  0  0  0  0  0  0  0
   57.4920   31.3870   43.2500 C   0  0  0  0  0  0  0  0  0  0  0  0
   57.6730   30.0880   43.7410 C   0  0  0  0  0  0  0  0  0  0  0  0
   58.1530   29.9220   45.0470 C   0  0  0  0  0  0  0  0  0  0  0  0
   58.3480   28.6140   45.6110 N   0  0  0  0  0  0  0  0  0  0  0  0
   57.3440   27.6540   45.9020 C   0  0  0  0  0  0  0  0  0  0  0  0
   56.1310   27.7950   45.5910 O   0  0  0  0  0  0  0  0  0  0  0  0
   57.8540   26.5050   46.5700 N   0  0  0  0  0  0  0  0  0  0  0  0
   57.0490   25.3530   46.9710 C   0  0  0  0  0  0  0  0  0  0  0  0
   59.2990   26.6850   46.7680 C   0  0  0  0  0  0  0  0  0  0  0  0
   60.0900   25.6100   46.0100 C   0  0  0  0  0  0  0  0  0  0  0  0
   59.6450   26.6970   48.2640 C   0  0  0  0  0  0  0  0  0  0  0  0
   59.5390   28.0440   46.1570 C   0  0  0  0  0  0  0  0  0  0  0  0
   60.6520   28.6370   46.1750 O   0  0  0  0  0  0  0  0  0  0  0  0
   58.4190   31.0230   45.7990 N   0  0  0  0  0  0  0  0  0  0  0  0
   58.2490   32.2830   45.3110 C   0  0  0  0  0  0  0  0  0  0  0  0
   58.5510   33.4270   46.1330 N   0  0  0  0  0  0  0  0  0  0  0  0
   58.4020   33.3350   47.5880 C   0  0  0  0  0  0  0  0  0  0  0  0
   59.0040   34.6730   45.5070 C   0  0  0  0  0  0  0  0  0  0  0  0
   57.7940   32.4500   44.0400 N   0  0  0  0  0  0  0  0  0  0  0  0
   58.5963   33.0836   41.8058 H   0  0  0  0  0  0  0  0  0  0  0  0
   58.6400   31.8995   40.4558 H   0  0  0  0  0  0  0  0  0  0  0  0
   57.4189   33.2169   40.4558 H   0  0  0  0  0  0  0  0  0  0  0  0
   56.0245   32.0966   41.8752 H   0  0  0  0  0  0  0  0  0  0  0  0
   56.9525   30.6478   41.3294 H   0  0  0  0  0  0  0  0  0  0  0  0
   57.4427   29.2145   43.1133 H   0  0  0  0  0  0  0  0  0  0  0  0
   57.0100   25.2972   48.0689 H   0  0  0  0  0  0  0  0  0  0  0  0
   56.0293   25.4618   46.5730 H   0  0  0  0  0  0  0  0  0  0  0  0
   57.5017   24.4329   46.5730 H   0  0  0  0  0  0  0  0  0  0  0  0
   60.5825   24.9407   46.7307 H   0  0  0  0  0  0  0  0  0  0  0  0
   59.4038   25.0272   45.3780 H   0  0  0  0  0  0  0  0  0  0  0  0
   60.8506   26.0918   45.3780 H   0  0  0  0  0  0  0  0  0  0  0  0
   58.7178   26.6648   48.8550 H   0  0  0  0  0  0  0  0  0  0  0  0
   60.2636   25.8198   48.5043 H   0  0  0  0  0  0  0  0  0  0  0  0
   60.2014   27.6150   48.5043 H   0  0  0  0  0  0  0  0  0  0  0  0
   59.2408   33.8529   48.0760 H   0  0  0  0  0  0  0  0  0  0  0  0
   57.4548   33.8057   47.8901 H   0  0  0  0  0  0  0  0  0  0  0  0
   58.3985   32.2773   47.8901 H   0  0  0  0  0  0  0  0  0  0  0  0
   59.2686   35.4008   46.2883 H   0  0  0  0  0  0  0  0  0  0  0  0
   59.8857   34.4697   44.8815 H   0  0  0  0  0  0  0  0  0  0  0  0
   58.1976   35.0834   44.8815 H   0  0  0  0  0  0  0  0  0  0  0  0
  1  2  1  0
  2  3  1  0
  3  4  2  0
  4  5  1  0
  5  6  1  0
  6  7  1  0
  7  8  2  0
  7  9  1  0
  9 10  1  0
  9 11  1  0
 11 12  1  0
 11 13  1  0
 11 14  1  0
 14 15  2  0
  5 16  2  0
 16 17  1  0
 17 18  1  0
 18 19  1  0
 18 20  1  0
 17 21  2  0
 21  3  1  0
 14  6  1  0
  1 22  1  0
  1 23  1  0
  1 24  1  0
  2 25  1  0
  2 26  1  0
  4 27  1  0
 10 28  1  0
 10 29  1  0
 10 30  1  0
 12 31  1  0
 12 32  1  0
 12 33  1  0
 13 34  1  0
 13 35  1  0
 13 36  1  0
 19 37  1  0
 19 38  1  0
 19 39  1  0
 20 40  1  0
 20 41  1  0
 20 42  1  0
M  END
>  <UniqueID>  (88) 
82

>  <SMILES>  (88) 
CCc1cc(N2C(=O)N(C)C(C)(C)C2=O)nc(N(C)C)n1

>  <Energy>  (88) 
52.023669760986664

>  <Genealogy>  (88) 
CCc1cc(N2C(=O)N(C)C(C)(C)C2=O)nc(N(C)C)n1 (3D coordinates assigned)
CCc1cc(N2C(=O)N(C)C(C)(C)C2=O)nc(N(C)C)n1 (nonaromatic ring conformer: 52.023669760986664 kcal/mol)

>  <smiles>  (88) 
CCc1cc(N2C(=O)N(C)C(C)(C)C2=O)nc(N(C)C)n1

>  <score_type>  (88) 
oracle

>  <origin>  (88) 
adg

>  <m_score__min__energy>  (88) 
-6.3399999999999999

>  <m_primary>  (88) 
energy

$$$$
88:0
     RDKit          3D

 39 40  0  0  0  0  0  0  0  0999 V2000
   54.7540   26.7280   47.1300 H   0  0  0  0  0  0  0  0  0  0  0  0
   55.1700   26.4220   46.2580 O   0  0  0  0  0  0  0  0  0  0  0  0
   56.5090   26.0450   46.1810 C   0  0  0  0  0  0  0  0  0  0  0  0
   56.8640   24.6930   46.1080 C   0  0  0  0  0  0  0  0  0  0  0  0
   56.0821   23.9194   46.1226 H   0  0  0  0  0  0  0  0  0  0  0  0
   58.2180   24.3200   46.0160 C   0  0  0  0  0  0  0  0  0  0  0  0
   58.6240   22.9800   45.9320 O   0  0  0  0  0  0  0  0  0  0  0  0
   58.8870   22.2930   44.7140 C   0  0  0  0  0  0  0  0  0  0  0  0
   59.2722   21.2869   44.9363 H   0  0  0  0  0  0  0  0  0  0  0  0
   57.9573   22.2094   44.1321 H   0  0  0  0  0  0  0  0  0  0  0  0
   59.6349   22.8516   44.1321 H   0  0  0  0  0  0  0  0  0  0  0  0
   59.2030   25.3150   46.0050 C   0  0  0  0  0  0  0  0  0  0  0  0
   60.2616   25.0277   45.9230 H   0  0  0  0  0  0  0  0  0  0  0  0
   58.8610   26.6740   46.0970 C   0  0  0  0  0  0  0  0  0  0  0  0
   59.9510   27.6820   46.0720 C   0  0  0  0  0  0  0  0  0  0  0  0
   60.8360   27.4737   45.4528 H   0  0  0  0  0  0  0  0  0  0  0  0
   59.9180   28.8330   46.7620 C   0  0  0  0  0  0  0  0  0  0  0  0
   60.4159   28.8658   47.7423 H   0  0  0  0  0  0  0  0  0  0  0  0
   59.2470   30.0630   46.2750 C   0  0  0  0  0  0  0  0  0  0  0  0
   58.0630   29.9320   45.5310 C   0  0  0  0  0  0  0  0  0  0  0  0
   57.6619   28.9298   45.3195 H   0  0  0  0  0  0  0  0  0  0  0  0
   57.3840   31.0680   45.0530 C   0  0  0  0  0  0  0  0  0  0  0  0
   56.2050   30.9780   44.2980 O   0  0  0  0  0  0  0  0  0  0  0  0
   55.8660   29.8750   43.4620 C   0  0  0  0  0  0  0  0  0  0  0  0
   55.6000   29.0096   44.0867 H   0  0  0  0  0  0  0  0  0  0  0  0
   55.0096   30.1458   42.8270 H   0  0  0  0  0  0  0  0  0  0  0  0
   56.7267   29.6181   42.8270 H   0  0  0  0  0  0  0  0  0  0  0  0
   57.8940   32.3380   45.3350 C   0  0  0  0  0  0  0  0  0  0  0  0
   57.3698   33.2284   44.9576 H   0  0  0  0  0  0  0  0  0  0  0  0
   59.0610   32.4940   46.0900 C   0  0  0  0  0  0  0  0  0  0  0  0
   59.5120   33.7970   46.3490 O   0  0  0  0  0  0  0  0  0  0  0  0
   59.3870   34.4590   47.6040 C   0  0  0  0  0  0  0  0  0  0  0  0
   59.5244   33.7315   48.4176 H   0  0  0  0  0  0  0  0  0  0  0  0
   60.1526   35.2450   47.6818 H   0  0  0  0  0  0  0  0  0  0  0  0
   58.3875   34.9117   47.6818 H   0  0  0  0  0  0  0  0  0  0  0  0
   59.7340   31.3520   46.5640 C   0  0  0  0  0  0  0  0  0  0  0  0
   60.6479   31.4677   47.1651 H   0  0  0  0  0  0  0  0  0  0  0  0
   57.5010   27.0310   46.1720 C   0  0  0  0  0  0  0  0  0  0  0  0
   57.2168   28.0924   46.2239 H   0  0  0  0  0  0  0  0  0  0  0  0
  1  2  1  0
  2  3  1  0
  3  4  2  0
  4  5  1  0
  4  6  1  0
  6  7  1  0
  7  8  1  0
  8  9  1  0
  8 10  1  0
  8 11  1  0
  6 12  2  0
 12 13  1  0
 12 14  1  0
 14 15  1  0
 15 16  1  0
 15 17  2  0
 17 18  1  0
 17 19  1  0
 19 20  2  0
 20 21  1  0
 20 22  1  0
 22 23  1  0
 23 24  1  0
 24 25  1  0
 24 26  1  0
 24 27  1  0
 22 28  2  0
 28 29  1  0
 28 30  1  0
 30 31  1  0
 31 32  1  0
 32 33  1  0
 32 34  1  0
 32 35  1  0
 30 36  2  0
 36 37  1  0
 14 38  2  0
 38 39  1  0
 38  3  1  0
 36 19  1  0
M  END
>  <UniqueID>  (89) 
83

>  <SMILES>  (89) 
COc1cc(O)cc(/C=C/c2cc(OC)cc(OC)c2)c1

>  <Energy>  (89) 
42.1613801200225

>  <Genealogy>  (89) 
COc1cc(O)cc(/C=C/c2cc(OC)cc(OC)c2)c1 (cis-trans isomerization)
COc1cc(O)cc(/C=C/c2cc(OC)cc(OC)c2)c1 (3D coordinates assigned)
COc1cc(O)cc(/C=C/c2cc(OC)cc(OC)c2)c1 (optimized conformer: 42.1613801200225 kcal/mol)

>  <smiles>  (89) 
COc1cc(O)cc(C=Cc2cc(OC)cc(OC)c2)c1

>  <score_type>  (89) 
oracle

>  <origin>  (89) 
adg

>  <m_score__min__energy>  (89) 
-7.3099999999999996

>  <m_primary>  (89) 
energy

$$$$
89:0
     RDKit          3D

 32 34  0  0  0  0  0  0  0  0999 V2000
   59.2620   34.0480   47.3360 C   0  0  0  0  0  0  0  0  0  0  0  0
   59.5470   32.8500   46.4350 C   0  0  0  0  0  0  0  0  0  0  0  0
   58.6150   31.6670   46.7770 C   0  0  0  0  0  0  0  0  0  0  0  0
   57.4730   31.4790   45.8460 N   0  0  0  0  0  0  0  0  0  0  0  0
   57.1370   32.6920   45.0830 C   0  0  0  0  0  0  0  0  0  0  0  0
   57.7890   32.5580   43.3860 S   0  0  0  0  0  0  0  0  0  0  0  0
   58.0620   30.7710   43.5560 C   0  0  0  0  0  0  0  0  0  0  0  0
   57.5010   30.3280   44.9110 C   0  0  2  0  0  0  0  0  0  0  0  0
   56.0840   29.8070   44.7650 C   0  0  0  0  0  0  0  0  0  0  0  0
   55.1380   30.4710   44.2630 O   0  0  0  0  0  0  0  0  0  0  0  0
   55.8950   28.4810   45.2440 N   0  0  0  0  0  0  0  0  0  0  0  0
   57.1910   28.0800   45.6400 C   0  0  0  0  0  0  0  0  0  0  0  0
   57.5290   26.8050   46.0910 C   0  0  0  0  0  0  0  0  0  0  0  0
   58.8780   26.5160   46.3370 C   0  0  0  0  0  0  0  0  0  0  0  0
   59.8640   27.4900   46.1040 C   0  0  0  0  0  0  0  0  0  0  0  0
   59.5040   28.7650   45.6390 C   0  0  0  0  0  0  0  0  0  0  0  0
   58.1460   29.0620   45.4460 C   0  0  0  0  0  0  0  0  0  0  0  0
   59.3352   33.7401   48.3895 H   0  0  0  0  0  0  0  0  0  0  0  0
   59.9964   34.8416   47.1340 H   0  0  0  0  0  0  0  0  0  0  0  0
   58.2489   34.4259   47.1340 H   0  0  0  0  0  0  0  0  0  0  0  0
   59.3876   33.1423   45.3866 H   0  0  0  0  0  0  0  0  0  0  0  0
   60.5885   32.5328   46.5922 H   0  0  0  0  0  0  0  0  0  0  0  0
   59.2161   30.7458   46.7703 H   0  0  0  0  0  0  0  0  0  0  0  0
   58.1766   31.8948   47.7598 H   0  0  0  0  0  0  0  0  0  0  0  0
   56.0438   32.8082   45.0456 H   0  0  0  0  0  0  0  0  0  0  0  0
   57.5872   33.5662   45.5760 H   0  0  0  0  0  0  0  0  0  0  0  0
   57.5443   30.2365   42.7459 H   0  0  0  0  0  0  0  0  0  0  0  0
   59.1366   30.5434   43.4968 H   0  0  0  0  0  0  0  0  0  0  0  0
   56.7531   26.0418   46.2504 H   0  0  0  0  0  0  0  0  0  0  0  0
   59.1661   25.5235   46.7137 H   0  0  0  0  0  0  0  0  0  0  0  0
   60.9224   27.2524   46.2867 H   0  0  0  0  0  0  0  0  0  0  0  0
   60.2755   29.5204   45.4289 H   0  0  0  0  0  0  0  0  0  0  0  0
  1  2  1  0
  2  3  1  0
  3  4  1  0
  4  5  1  0
  5  6  1  0
  6  7  1  0
  7  8  1  0
  8  9  1  0
  9 10  2  0
  9 11  1  0
 11 12  1  0
 12 13  2  0
 13 14  1  0
 14 15  2  0
 15 16  1  0
 16 17  2  0
  8  4  1  1
 17 12  1  0
 17  8  1  0
  1 18  1  0
  1 19  1  0
  1 20  1  0
  2 21  1  0
  2 22  1  0
  3 23  1  0
  3 24  1  0
  5 25  1  0
  5 26  1  0
  7 27  1  0
  7 28  1  0
 13 29  1  0
 14 30  1  0
 15 31  1  0
 16 32  1  0
M  CHG  1  11  -1
M  END
>  <UniqueID>  (90) 
84

>  <SMILES>  (90) 
CCCN1CSC[C@]12C(=O)[N-]c1ccccc12

>  <Energy>  (90) 
60.26994442892053

>  <Genealogy>  (90) 
CCCN1CSCC12C(=O)[N-]c1ccccc12 (protonated)
CCCN1CSC[C@]12C(=O)[N-]c1ccccc12 (chirality)
CCCN1CSC[C@]12C(=O)[N-]c1ccccc12 (3D coordinates assigned)
CCCN1CSC[C@]12C(=O)[N-]c1ccccc12 (nonaromatic ring conformer: 60.26994442892053 kcal/mol)

>  <smiles>  (90) 
CCCN1CSCC12C(=O)Nc1ccccc12

>  <score_type>  (90) 
oracle

>  <origin>  (90) 
adg

>  <m_score__min__energy>  (90) 
-9.0199999999999996

>  <m_primary>  (90) 
energy

$$$$
90:0
     RDKit          3D

 37 38  0  0  0  0  0  0  0  0999 V2000
   59.6290   34.5630   45.7430 C   0  0  0  0  0  0  0  0  0  0  0  0
   60.0110   33.8660   46.9250 O   0  0  0  0  0  0  0  0  0  0  0  0
   61.2730   33.2860   47.1350 C   0  0  0  0  0  0  0  0  0  0  0  0
   62.4300   34.0690   47.3240 C   0  0  0  0  0  0  0  0  0  0  0  0
   63.6690   33.4590   47.5300 C   0  0  0  0  0  0  0  0  0  0  0  0
   63.7680   32.0680   47.5600 C   0  0  0  0  0  0  0  0  0  0  0  0
   62.6300   31.2810   47.3750 C   0  0  0  0  0  0  0  0  0  0  0  0
   61.3780   31.8810   47.1450 C   0  0  0  0  0  0  0  0  0  0  0  0
   60.1960   31.0770   46.9850 N   0  0  0  0  0  0  0  0  0  0  0  0
   60.1650   29.8490   46.2330 C   0  0  0  0  0  0  0  0  0  0  0  0
   61.2010   29.4550   45.6290 O   0  0  0  0  0  0  0  0  0  0  0  0
   58.9310   29.0330   46.1450 C   0  0  0  0  0  0  0  0  0  0  0  0
   58.8330   27.8340   46.8710 C   0  0  0  0  0  0  0  0  0  0  0  0
   57.6790   27.0490   46.7990 C   0  0  0  0  0  0  0  0  0  0  0  0
   56.6010   27.4450   45.9900 C   0  0  0  0  0  0  0  0  0  0  0  0
   55.3970   26.6730   45.8830 N   0  0  0  0  0  0  0  0  0  0  0  0
   55.2930   24.9430   45.9210 S   0  0  0  0  0  0  0  0  0  0  0  0
   56.2060   24.2440   44.5630 C   0  0  0  0  0  0  0  0  0  0  0  0
   53.8550   24.5110   45.8660 O   0  0  0  0  0  0  0  0  0  0  0  0
   55.8950   24.4530   47.2080 O   0  0  0  0  0  0  0  0  0  0  0  0
   56.7020   28.6300   45.2520 C   0  0  0  0  0  0  0  0  0  0  0  0
   57.8550   29.4170   45.3240 C   0  0  0  0  0  0  0  0  0  0  0  0
   59.1170   35.4971   46.0174 H   0  0  0  0  0  0  0  0  0  0  0  0
   60.5251   34.7967   45.1494 H   0  0  0  0  0  0  0  0  0  0  0  0
   58.9499   33.9334   45.1494 H   0  0  0  0  0  0  0  0  0  0  0  0
   62.3563   35.1664   47.3091 H   0  0  0  0  0  0  0  0  0  0  0  0
   64.5686   34.0765   47.6689 H   0  0  0  0  0  0  0  0  0  0  0  0
   64.7443   31.5905   47.7297 H   0  0  0  0  0  0  0  0  0  0  0  0
   62.7124   30.1846   47.4092 H   0  0  0  0  0  0  0  0  0  0  0  0
   59.3140   31.4380   47.4110 H   0  0  0  0  0  0  0  0  0  0  0  0
   59.6733   27.5099   47.5026 H   0  0  0  0  0  0  0  0  0  0  0  0
   57.6145   26.1164   47.3787 H   0  0  0  0  0  0  0  0  0  0  0  0
   57.0226   23.6188   44.9533 H   0  0  0  0  0  0  0  0  0  0  0  0
   55.5339   23.6274   43.9481 H   0  0  0  0  0  0  0  0  0  0  0  0
   56.6259   25.0537   43.9481 H   0  0  0  0  0  0  0  0  0  0  0  0
   55.8665   28.9448   44.6095 H   0  0  0  0  0  0  0  0  0  0  0  0
   57.9215   30.3433   44.7345 H   0  0  0  0  0  0  0  0  0  0  0  0
  1  2  1  0
  2  3  1  0
  3  4  2  0
  4  5  1  0
  5  6  2  0
  6  7  1  0
  7  8  2  0
  8  9  1  0
  9 10  1  0
 10 11  2  0
 10 12  1  0
 12 13  2  0
 13 14  1  0
 14 15  2  0
 15 16  1  0
 16 17  1  0
 17 18  1  0
 17 19  2  0
 17 20  2  0
 15 21  1  0
 21 22  2  0
  8  3  1  0
 22 12  1  0
  1 23  1  0
  1 24  1  0
  1 25  1  0
  4 26  1  0
  5 27  1  0
  6 28  1  0
  7 29  1  0
  9 30  1  0
 13 31  1  0
 14 32  1  0
 18 33  1  0
 18 34  1  0
 18 35  1  0
 21 36  1  0
 22 37  1  0
M  CHG  1  16  -1
M  END
>  <UniqueID>  (91) 
85

>  <SMILES>  (91) 
COc1ccccc1NC(=O)c1ccc([N-]S(C)(=O)=O)cc1

>  <Energy>  (91) 
43.198523343495445

>  <Genealogy>  (91) 
COc1ccccc1NC(=O)c1ccc([N-]S(C)(=O)=O)cc1 (protonated)
COc1ccccc1NC(=O)c1ccc([N-]S(C)(=O)=O)cc1 (3D coordinates assigned)
COc1ccccc1NC(=O)c1ccc([N-]S(C)(=O)=O)cc1 (optimized conformer: 43.198523343495445 kcal/mol)

>  <smiles>  (91) 
COc1ccccc1NC(=O)c1ccc(NS(C)(=O)=O)cc1

>  <score_type>  (91) 
oracle

>  <origin>  (91) 
adg

>  <m_score__min__energy>  (91) 
-8.7100000000000009

>  <m_primary>  (91) 
energy

$$$$
91:0
     RDKit          3D

 37 38  0  0  0  0  0  0  0  0999 V2000
   60.7997   30.7226   45.1820 H   0  0  0  0  0  0  0  0  0  0  0  0
   59.8890   30.2860   45.6180 C   0  0  0  0  0  0  0  0  0  0  0  0
   59.2000   29.4010   44.8850 C   0  0  0  0  0  0  0  0  0  0  0  0
   59.1321   29.5527   43.7976 H   0  0  0  0  0  0  0  0  0  0  0  0
   58.5270   28.2270   45.4840 C   0  0  0  0  0  0  0  0  0  0  0  0
   57.1900   27.8630   45.3990 C   0  0  0  0  0  0  0  0  0  0  0  0
   56.1120   28.6000   44.8050 N   0  0  0  0  0  0  0  0  0  0  0  0
   55.1420   28.2230   44.8880 H   0  0  0  0  0  0  0  0  0  0  0  0
   56.2580   30.0010   44.4290 C   0  0  0  0  0  0  0  0  0  0  0  0
   56.3224   30.6194   45.3364 H   0  0  0  0  0  0  0  0  0  0  0  0
   57.1742   30.1272   43.8334 H   0  0  0  0  0  0  0  0  0  0  0  0
   55.3875   30.3134   43.8334 H   0  0  0  0  0  0  0  0  0  0  0  0
   57.0990   26.6640   46.0860 C   0  0  0  0  0  0  0  0  0  0  0  0
   55.9160   25.8960   46.3390 N   0  0  0  0  0  0  0  0  0  0  0  0
   55.9760   24.7970   46.9270 O   0  0  0  0  0  0  0  0  0  0  0  0
   54.7010   26.3460   45.8770 O   0  0  0  0  0  0  0  0  0  0  0  0
   58.3110   26.3300   46.5720 N   0  0  0  0  0  0  0  0  0  0  0  0
   59.1640   27.2760   46.2060 N   0  0  0  0  0  0  0  0  0  0  0  0
   60.5830   27.2500   46.5470 C   0  0  0  0  0  0  0  0  0  0  0  0
   60.6972   27.2479   47.6411 H   0  0  0  0  0  0  0  0  0  0  0  0
   61.0441   26.3433   46.1285 H   0  0  0  0  0  0  0  0  0  0  0  0
   61.0770   28.1392   46.1285 H   0  0  0  0  0  0  0  0  0  0  0  0
   59.4950   30.7110   46.9830 C   0  0  0  0  0  0  0  0  0  0  0  0
   58.8820   31.9510   47.2460 C   0  0  0  0  0  0  0  0  0  0  0  0
   58.6841   32.6490   46.4192 H   0  0  0  0  0  0  0  0  0  0  0  0
   58.5230   32.3010   48.5520 C   0  0  0  0  0  0  0  0  0  0  0  0
   58.0515   33.2756   48.7467 H   0  0  0  0  0  0  0  0  0  0  0  0
   58.7610   31.4150   49.6170 C   0  0  0  0  0  0  0  0  0  0  0  0
   58.4220   31.7220   50.9440 O   0  0  0  0  0  0  0  0  0  0  0  0
   57.3040   31.1730   51.6340 C   0  0  0  0  0  0  0  0  0  0  0  0
   57.4672   31.2531   52.7189 H   0  0  0  0  0  0  0  0  0  0  0  0
   56.3947   31.7271   51.3581 H   0  0  0  0  0  0  0  0  0  0  0  0
   57.1864   30.1147   51.3581 H   0  0  0  0  0  0  0  0  0  0  0  0
   59.3570   30.1770   49.3540 C   0  0  0  0  0  0  0  0  0  0  0  0
   59.5455   29.4757   50.1802 H   0  0  0  0  0  0  0  0  0  0  0  0
   59.7150   29.8240   48.0490 C   0  0  0  0  0  0  0  0  0  0  0  0
   60.1730   28.8427   47.8559 H   0  0  0  0  0  0  0  0  0  0  0  0
  1  2  1  0
  2  3  2  0
  3  4  1  0
  3  5  1  0
  5  6  2  0
  6  7  1  0
  7  8  1  0
  7  9  1  0
  9 10  1  0
  9 11  1  0
  9 12  1  0
  6 13  1  0
 13 14  1  0
 14 15  2  0
 14 16  1  0
 13 17  2  0
 17 18  1  0
 18 19  1  0
 19 20  1  0
 19 21  1  0
 19 22  1  0
  2 23  1  0
 23 24  2  0
 24 25  1  0
 24 26  1  0
 26 27  1  0
 26 28  2  0
 28 29  1  0
 29 30  1  0
 30 31  1  0
 30 32  1  0
 30 33  1  0
 28 34  1  0
 34 35  1  0
 34 36  2  0
 36 37  1  0
 18  5  1  0
 36 23  1  0
M  CHG  2  14   1  16  -1
M  END
>  <UniqueID>  (92) 
86

>  <SMILES>  (92) 
CNc1c([N+](=O)[O-])nn(C)c1/C=C/c1ccc(OC)cc1

>  <Energy>  (92) 
76.0866689071922

>  <Genealogy>  (92) 
CNc1c([N+](=O)[O-])nn(C)c1/C=C/c1ccc(OC)cc1 (cis-trans isomerization)
CNc1c([N+](=O)[O-])nn(C)c1/C=C/c1ccc(OC)cc1 (3D coordinates assigned)
CNc1c([N+](=O)[O-])nn(C)c1/C=C/c1ccc(OC)cc1 (optimized conformer: 76.0866689071922 kcal/mol)

>  <smiles>  (92) 
CNc1c([N+](=O)[O-])nn(C)c1C=Cc1ccc(OC)cc1

>  <score_type>  (92) 
oracle

>  <origin>  (92) 
adg

>  <m_score__min__energy>  (92) 
-8.0700000000000003

>  <m_primary>  (92) 
energy

$$$$
92:0
     RDKit          3D

 38 40  0  0  0  0  0  0  0  0999 V2000
   64.8830   32.3480   50.7060 C   0  0  0  0  0  0  0  0  0  0  0  0
   63.5590   32.6930   50.3090 O   0  0  0  0  0  0  0  0  0  0  0  0
   63.1750   33.0820   49.0140 C   0  0  0  0  0  0  0  0  0  0  0  0
   64.0940   33.0020   47.9520 C   0  0  0  0  0  0  0  0  0  0  0  0
   63.7350   33.3860   46.6670 C   0  0  0  0  0  0  0  0  0  0  0  0
   62.4540   33.8500   46.4060 C   0  0  0  0  0  0  0  0  0  0  0  0
   61.4950   33.9360   47.4330 C   0  0  0  0  0  0  0  0  0  0  0  0
   60.1880   34.3960   47.1600 C   0  0  0  0  0  0  0  0  0  0  0  0
   59.6320   34.8470   45.5050 S   0  0  0  0  0  0  0  0  0  0  0  0
   58.8230   33.2670   45.2360 C   0  0  0  0  0  0  0  0  0  0  0  0
   58.9910   32.2240   46.1530 C   0  0  0  0  0  0  0  0  0  0  0  0
   58.3560   30.9970   45.9440 C   0  0  0  0  0  0  0  0  0  0  0  0
   57.5330   30.8030   44.8210 C   0  0  0  0  0  0  0  0  0  0  0  0
   56.8860   29.4630   44.5690 C   0  0  0  0  0  0  0  0  0  0  0  0
   55.5380   29.5070   44.8830 F   0  0  0  0  0  0  0  0  0  0  0  0
   57.0090   29.1040   43.2390 F   0  0  0  0  0  0  0  0  0  0  0  0
   57.5000   28.5060   45.3550 F   0  0  0  0  0  0  0  0  0  0  0  0
   57.3980   31.8450   43.8860 C   0  0  0  0  0  0  0  0  0  0  0  0
   58.0350   33.0710   44.0970 C   0  0  0  0  0  0  0  0  0  0  0  0
   59.2750   34.5080   48.2040 C   0  0  0  0  0  0  0  0  0  0  0  0
   59.6260   34.1560   49.4610 N   0  0  0  0  0  0  0  0  0  0  0  0
   60.8590   33.6880   49.7830 C   0  0  0  0  0  0  0  0  0  0  0  0
   61.0860   33.3380   51.2270 C   0  0  0  0  0  0  0  0  0  0  0  0
   61.8530   33.5600   48.7650 C   0  0  0  0  0  0  0  0  0  0  0  0
   64.9441   32.3321   51.8042 H   0  0  0  0  0  0  0  0  0  0  0  0
   65.1371   31.3536   50.3102 H   0  0  0  0  0  0  0  0  0  0  0  0
   65.5901   33.0919   50.3102 H   0  0  0  0  0  0  0  0  0  0  0  0
   65.1115   32.6299   48.1423 H   0  0  0  0  0  0  0  0  0  0  0  0
   64.4703   33.3220   45.8514 H   0  0  0  0  0  0  0  0  0  0  0  0
   62.1842   34.1545   45.3840 H   0  0  0  0  0  0  0  0  0  0  0  0
   59.6243   32.3701   47.0404 H   0  0  0  0  0  0  0  0  0  0  0  0
   58.5011   30.1773   46.6631 H   0  0  0  0  0  0  0  0  0  0  0  0
   56.7875   31.6941   42.9835 H   0  0  0  0  0  0  0  0  0  0  0  0
   57.9164   33.8839   43.3655 H   0  0  0  0  0  0  0  0  0  0  0  0
   58.2611   34.8854   48.0052 H   0  0  0  0  0  0  0  0  0  0  0  0
   60.5992   34.0885   51.8671 H   0  0  0  0  0  0  0  0  0  0  0  0
   60.6589   32.3459   51.4353 H   0  0  0  0  0  0  0  0  0  0  0  0
   62.1660   33.3234   51.4353 H   0  0  0  0  0  0  0  0  0  0  0  0
  1  2  1  0
  2  3  1  0
  3  4  2  0
  4  5  1  0
  5  6  2  0
  6  7  1  0
  7  8  2  0
  8  9  1  0
  9 10  1  0
 10 11  2  0
 11 12  1  0
 12 13  2  0
 13 14  1  0
 14 15  1  0
 14 16  1  0
 14 17  1  0
 13 18  1  0
 18 19  2  0
  8 20  1  0
 20 21  2  0
 21 22  1  0
 22 23  1  0
 22 24  2  0
 24  3  1  0
 24  7  1  0
 19 10  1  0
  1 25  1  0
  1 26  1  0
  1 27  1  0
  4 28  1  0
  5 29  1  0
  6 30  1  0
 11 31  1  0
 12 32  1  0
 18 33  1  0
 19 34  1  0
 20 35  1  0
 23 36  1  0
 23 37  1  0
 23 38  1  0
M  END
>  <UniqueID>  (93) 
87

>  <SMILES>  (93) 
COc1cccc2c(Sc3ccc(C(F)(F)F)cc3)cnc(C)c12

>  <Energy>  (93) 
46.442532691257874

>  <Genealogy>  (93) 
COc1cccc2c(Sc3ccc(C(F)(F)F)cc3)cnc(C)c12 (3D coordinates assigned)
COc1cccc2c(Sc3ccc(C(F)(F)F)cc3)cnc(C)c12 (optimized conformer: 46.442532691257874 kcal/mol)

>  <smiles>  (93) 
COc1cccc2c(Sc3ccc(C(F)(F)F)cc3)cnc(C)c12

>  <score_type>  (93) 
oracle

>  <origin>  (93) 
adg

>  <m_score__min__energy>  (93) 
-7.4800000000000004

>  <m_primary>  (93) 
energy

$$$$
93:0
     RDKit          3D

 39 42  0  0  0  0  0  0  0  0999 V2000
   65.9770   33.0810   50.3950 C   0  0  0  0  0  0  0  0  0  0  0  0
   64.7820   33.8370   50.2300 O   0  0  0  0  0  0  0  0  0  0  0  0
   63.7080   33.4500   49.4160 C   0  0  0  0  0  0  0  0  0  0  0  0
   63.7630   32.3010   48.5810 C   0  0  0  0  0  0  0  0  0  0  0  0
   62.6680   31.9450   47.7790 C   0  0  0  0  0  0  0  0  0  0  0  0
   61.5310   32.7440   47.8350 C   0  0  0  0  0  0  0  0  0  0  0  0
   61.4580   33.8730   48.6400 C   0  0  0  0  0  0  0  0  0  0  0  0
   62.5420   34.2400   49.4380 C   0  0  0  0  0  0  0  0  0  0  0  0
   60.1350   34.5940   48.4850 C   0  0  0  0  0  0  0  0  0  0  0  0
   59.4850   33.6830   47.4960 C   0  0  0  0  0  0  0  0  0  0  0  0
   58.1630   33.7700   46.4650 S   0  0  0  0  0  0  0  0  0  0  0  0
   58.7060   32.3940   45.5920 C   0  0  0  0  0  0  0  0  0  0  0  0
   58.0930   31.8450   44.5850 N   0  0  0  0  0  0  0  0  0  0  0  0
   57.1600   30.7580   44.6660 C   0  0  0  0  0  0  0  0  0  0  0  0
   55.9350   31.0020   44.4960 O   0  0  0  0  0  0  0  0  0  0  0  0
   57.5870   29.3810   45.0150 C   0  0  0  0  0  0  0  0  0  0  0  0
   58.9260   28.9930   44.8440 C   0  0  0  0  0  0  0  0  0  0  0  0
   59.3320   27.6970   45.1670 C   0  0  0  0  0  0  0  0  0  0  0  0
   58.4070   26.7720   45.6560 C   0  0  0  0  0  0  0  0  0  0  0  0
   57.0580   27.1330   45.8220 C   0  0  0  0  0  0  0  0  0  0  0  0
   56.1010   26.1810   46.3220 N   0  0  0  0  0  0  0  0  0  0  0  0
   56.4600   25.2500   47.0720 O   0  0  0  0  0  0  0  0  0  0  0  0
   54.7700   26.2850   45.9870 O   0  0  0  0  0  0  0  0  0  0  0  0
   56.6570   28.4390   45.4920 C   0  0  0  0  0  0  0  0  0  0  0  0
   59.8810   31.9110   46.0720 N   0  0  0  0  0  0  0  0  0  0  0  0
   60.2790   32.6500   47.1310 C   0  0  0  0  0  0  0  0  0  0  0  0
   66.1832   32.9506   51.4676 H   0  0  0  0  0  0  0  0  0  0  0  0
   65.8554   32.0951   49.9224 H   0  0  0  0  0  0  0  0  0  0  0  0
   66.8157   33.6132   49.9224 H   0  0  0  0  0  0  0  0  0  0  0  0
   64.6737   31.6843   48.5633 H   0  0  0  0  0  0  0  0  0  0  0  0
   62.7077   31.0608   47.1258 H   0  0  0  0  0  0  0  0  0  0  0  0
   62.4868   35.1344   50.0759 H   0  0  0  0  0  0  0  0  0  0  0  0
   59.5771   34.6398   49.4319 H   0  0  0  0  0  0  0  0  0  0  0  0
   60.2046   35.6489   48.1810 H   0  0  0  0  0  0  0  0  0  0  0  0
   59.6588   29.7144   44.4534 H   0  0  0  0  0  0  0  0  0  0  0  0
   60.3840   27.4034   45.0359 H   0  0  0  0  0  0  0  0  0  0  0  0
   58.7358   25.7542   45.9130 H   0  0  0  0  0  0  0  0  0  0  0  0
   55.6022   28.7285   45.6082 H   0  0  0  0  0  0  0  0  0  0  0  0
   60.4230   31.1200   45.6560 H   0  0  0  0  0  0  0  0  0  0  0  0
  1  2  1  0
  2  3  1  0
  3  4  2  0
  4  5  1  0
  5  6  2  0
  6  7  1  0
  7  8  2  0
  7  9  1  0
  9 10  1  0
 10 11  1  0
 11 12  1  0
 12 13  2  3
 13 14  1  0
 14 15  2  0
 14 16  1  0
 16 17  2  0
 17 18  1  0
 18 19  2  0
 19 20  1  0
 20 21  1  0
 21 22  2  0
 21 23  1  0
 20 24  2  0
 12 25  1  0
 25 26  1  0
  8  3  1  0
 26 10  2  0
 26  6  1  0
 24 16  1  0
  1 27  1  0
  1 28  1  0
  1 29  1  0
  4 30  1  0
  5 31  1  0
  8 32  1  0
  9 33  1  0
  9 34  1  0
 17 35  1  0
 18 36  1  0
 19 37  1  0
 24 38  1  0
 25 39  1  0
M  CHG  2  21   1  23  -1
M  END
>  <UniqueID>  (94) 
88

>  <SMILES>  (94) 
COc1ccc2c(c1)Cc1sc(=NC(=O)c3cccc([N+](=O)[O-])c3)[nH]c1-2

>  <Energy>  (94) 
117.35367616920752

>  <Genealogy>  (94) 
COc1ccc2c(c1)Cc1sc(=NC(=O)c3cccc([N+](=O)[O-])c3)[nH]c1-2 (3D coordinates assigned)
COc1ccc2c(c1)Cc1sc(=NC(=O)c3cccc([N+](=O)[O-])c3)[nH]c1-2 (nonaromatic ring conformer: 117.35367616920752 kcal/mol)

>  <smiles>  (94) 
COc1ccc2c(c1)Cc1sc(=NC(=O)c3cccc([N+](=O)[O-])c3)[nH]c1-2

>  <score_type>  (94) 
oracle

>  <origin>  (94) 
adg

>  <m_score__min__energy>  (94) 
-9.3699999999999992

>  <m_primary>  (94) 
energy

$$$$
94:0
     RDKit          3D

 45 48  0  0  0  0  0  0  0  0999 V2000
   55.7480   30.4590   44.5430 O   0  0  0  0  0  0  0  0  0  0  0  0
   57.0270   30.8720   43.8700 S   0  0  0  0  0  0  0  0  0  0  0  0
   56.7240   31.2860   42.4570 O   0  0  0  0  0  0  0  0  0  0  0  0
   58.1200   29.5240   43.8440 N   0  0  0  0  0  0  0  0  0  0  0  0
   58.1130   28.4680   44.8220 C   0  0  0  0  0  0  0  0  0  0  0  0
   58.1690   28.7340   46.2120 C   0  0  0  0  0  0  0  0  0  0  0  0
   58.1500   27.6820   47.1390 C   0  0  0  0  0  0  0  0  0  0  0  0
   58.0870   26.3700   46.6690 C   0  0  0  0  0  0  0  0  0  0  0  0
   58.0410   26.1010   45.3270 C   0  0  0  0  0  0  0  0  0  0  0  0
   58.0510   27.1300   44.3830 C   0  0  0  0  0  0  0  0  0  0  0  0
   57.9500   24.6490   45.0520 C   0  0  0  0  0  0  0  0  0  0  0  0
   58.1290   23.9940   46.4410 C   0  0  2  0  0  0  0  0  0  0  0  0
   57.1100   22.9460   46.6420 N   0  0  0  0  0  0  0  0  0  0  0  0
   55.9250   23.4170   47.3780 C   0  0  0  0  0  0  0  0  0  0  0  0
   54.7220   23.5480   46.4920 C   0  0  0  0  0  0  0  0  0  0  0  0
   53.9340   22.5180   46.0360 C   0  0  0  0  0  0  0  0  0  0  0  0
   52.9760   23.0240   45.2420 N   0  0  0  0  0  0  0  0  0  0  0  0
   53.2150   24.3530   45.2410 C   0  0  0  0  0  0  0  0  0  0  0  0
   54.2780   24.7130   45.9920 N   0  0  0  0  0  0  0  0  0  0  0  0
   58.0380   25.1380   47.4870 C   0  0  0  0  0  0  0  0  0  0  0  0
   57.7380   32.2050   44.7740 C   0  0  0  0  0  0  0  0  0  0  0  0
   57.9450   33.4420   44.1480 C   0  0  0  0  0  0  0  0  0  0  0  0
   58.4960   34.5080   44.8630 C   0  0  0  0  0  0  0  0  0  0  0  0
   58.8480   34.3430   46.2060 C   0  0  0  0  0  0  0  0  0  0  0  0
   58.6500   33.1090   46.8350 C   0  0  0  0  0  0  0  0  0  0  0  0
   59.0930   32.9030   48.5190 Cl  0  0  0  0  0  0  0  0  0  0  0  0
   58.0970   32.0410   46.1200 C   0  0  0  0  0  0  0  0  0  0  0  0
   58.7580   29.4470   43.0210 H   0  0  0  0  0  0  0  0  0  0  0  0
   58.2278   29.7735   46.5670 H   0  0  0  0  0  0  0  0  0  0  0  0
   58.1842   27.8879   48.2190 H   0  0  0  0  0  0  0  0  0  0  0  0
   58.0109   26.8989   43.3083 H   0  0  0  0  0  0  0  0  0  0  0  0
   56.9704   24.3930   44.6222 H   0  0  0  0  0  0  0  0  0  0  0  0
   58.6999   24.3081   44.3231 H   0  0  0  0  0  0  0  0  0  0  0  0
   59.1008   23.4883   46.5405 H   0  0  0  0  0  0  0  0  0  0  0  0
   56.8280   22.5090   45.7330 H   0  0  0  0  0  0  0  0  0  0  0  0
   55.6977   22.6991   48.1799 H   0  0  0  0  0  0  0  0  0  0  0  0
   56.1544   24.4129   47.7849 H   0  0  0  0  0  0  0  0  0  0  0  0
   54.0663   21.4539   46.2812 H   0  0  0  0  0  0  0  0  0  0  0  0
   52.6016   25.0744   44.6812 H   0  0  0  0  0  0  0  0  0  0  0  0
   57.0952   25.0793   48.0507 H   0  0  0  0  0  0  0  0  0  0  0  0
   58.8417   25.0933   48.2368 H   0  0  0  0  0  0  0  0  0  0  0  0
   57.6727   33.5737   43.0904 H   0  0  0  0  0  0  0  0  0  0  0  0
   58.6531   35.4782   44.3690 H   0  0  0  0  0  0  0  0  0  0  0  0
   59.2807   35.1836   46.7683 H   0  0  0  0  0  0  0  0  0  0  0  0
   57.9434   31.0705   46.6146 H   0  0  0  0  0  0  0  0  0  0  0  0
  1  2  2  0
  2  3  2  0
  2  4  1  0
  4  5  1  0
  5  6  2  0
  6  7  1  0
  7  8  2  0
  8  9  1  0
  9 10  2  0
  9 11  1  0
 11 12  1  0
 12 13  1  0
 13 14  1  0
 14 15  1  0
 15 16  2  0
 16 17  1  0
 17 18  1  0
 18 19  2  0
 12 20  1  0
  2 21  1  0
 21 22  2  0
 22 23  1  0
 23 24  2  0
 24 25  1  0
 25 26  1  0
 25 27  2  0
 10  5  1  0
 19 15  1  0
 27 21  1  0
 20  8  1  0
  4 28  1  0
  6 29  1  0
  7 30  1  0
 10 31  1  0
 11 32  1  0
 11 33  1  0
 12 34  1  6
 13 35  1  0
 14 36  1  0
 14 37  1  0
 16 38  1  0
 18 39  1  0
 20 40  1  0
 20 41  1  0
 22 42  1  0
 23 43  1  0
 24 44  1  0
 27 45  1  0
M  CHG  1  17  -1
M  END
>  <UniqueID>  (95) 
89

>  <SMILES>  (95) 
O=S(=O)(Nc1ccc2c(c1)C[C@H](NCc1c[n-]cn1)C2)c1cccc(Cl)c1

>  <Energy>  (95) 
87.57006325992634

>  <Genealogy>  (95) 
O=S(=O)(Nc1ccc2c(c1)CC(NCc1c[n-]cn1)C2)c1cccc(Cl)c1 (protonated)
O=S(=O)(Nc1ccc2c(c1)C[C@H](NCc1c[n-]cn1)C2)c1cccc(Cl)c1 (chirality)
O=S(=O)(Nc1ccc2c(c1)C[C@H](NCc1c[n-]cn1)C2)c1cccc(Cl)c1 (3D coordinates assigned)
O=S(=O)(Nc1ccc2c(c1)C[C@H](NCc1c[n-]cn1)C2)c1cccc(Cl)c1 (nonaromatic ring conformer: 87.57006325992634 kcal/mol)

>  <smiles>  (95) 
O=S(=O)(Nc1ccc2c(c1)CC(NCc1c[nH]cn1)C2)c1cccc(Cl)c1

>  <score_type>  (95) 
oracle

>  <origin>  (95) 
adg

>  <m_score__min__energy>  (95) 
-11.35

>  <m_primary>  (95) 
energy

$$$$
