0:0
     RDKit          3D

 30 32  0  0  0  0  0  0  0  0999 V2000
   57.7220   24.9380   47.8110 C   0  0  0  0  0  0  0  0  0  0  0  0
   57.8940   26.2480   47.1550 N   0  0  0  0  0  0  0  0  0  0  0  0
   56.8740   26.7780   46.4170 C   0  0  0  0  0  0  0  0  0  0  0  0
   55.7970   26.1330   46.2650 O   0  0  0  0  0  0  0  0  0  0  0  0
   57.0100   28.0470   45.8370 C   0  0  0  0  0  0  0  0  0  0  0  0
   56.0030   28.5830   45.0860 N   0  0  0  0  0  0  0  0  0  0  0  0
   56.0850   29.8280   44.5520 C   0  0  0  0  0  0  0  0  0  0  0  0
   55.1470   30.2500   43.8210 O   0  0  0  0  0  0  0  0  0  0  0  0
   57.1820   30.6500   44.8530 C   0  0  0  0  0  0  0  0  0  0  0  0
   57.2220   31.9870   44.4080 C   0  0  0  0  0  0  0  0  0  0  0  0
   58.2350   32.8420   44.8360 C   0  0  0  0  0  0  0  0  0  0  0  0
   59.1920   32.3890   45.7390 C   0  0  0  0  0  0  0  0  0  0  0  0
   59.1760   31.0620   46.1720 C   0  0  0  0  0  0  0  0  0  0  0  0
   58.2290   30.1410   45.6680 C   0  0  0  0  0  0  0  0  0  0  0  0
   58.2120   28.7600   46.0390 C   0  0  0  0  0  0  0  0  0  0  0  0
   59.3020   28.0760   46.5480 N   0  0  0  0  0  0  0  0  0  0  0  0
   60.6930   28.4890   46.2800 C   0  0  0  0  0  0  0  0  0  0  0  0
   59.1140   26.8690   47.1760 C   0  0  0  0  0  0  0  0  0  0  0  0
   60.0890   26.3080   47.7570 O   0  0  0  0  0  0  0  0  0  0  0  0
   57.7393   25.0697   48.9030 H   0  0  0  0  0  0  0  0  0  0  0  0
   56.7587   24.5007   47.5096 H   0  0  0  0  0  0  0  0  0  0  0  0
   58.5397   24.2668   47.5096 H   0  0  0  0  0  0  0  0  0  0  0  0
   55.1380   28.0270   44.8930 H   0  0  0  0  0  0  0  0  0  0  0  0
   56.4488   32.3573   43.7188 H   0  0  0  0  0  0  0  0  0  0  0  0
   58.2784   33.8749   44.4603 H   0  0  0  0  0  0  0  0  0  0  0  0
   59.9633   33.0786   46.1127 H   0  0  0  0  0  0  0  0  0  0  0  0
   59.9123   30.7274   46.9176 H   0  0  0  0  0  0  0  0  0  0  0  0
   61.2192   28.6452   47.2332 H   0  0  0  0  0  0  0  0  0  0  0  0
   61.2040   27.7038   45.7035 H   0  0  0  0  0  0  0  0  0  0  0  0
   60.6927   29.4258   45.7035 H   0  0  0  0  0  0  0  0  0  0  0  0
  1  2  1  0
  2  3  1  0
  3  4  2  0
  3  5  1  0
  5  6  1  0
  6  7  1  0
  7  8  2  0
  7  9  1  0
  9 10  2  0
 10 11  1  0
 11 12  2  0
 12 13  1  0
 13 14  2  0
 14 15  1  0
 15 16  1  0
 16 17  1  0
 16 18  1  0
 18 19  2  0
 18  2  1  0
 15  5  2  0
 14  9  1  0
  1 20  1  0
  1 21  1  0
  1 22  1  0
  6 23  1  0
 10 24  1  0
 11 25  1  0
 12 26  1  0
 13 27  1  0
 17 28  1  0
 17 29  1  0
 17 30  1  0
M  END
>  <UniqueID>  (1) 
1

>  <SMILES>  (1) 
Cn1c(=O)c2[nH]c(=O)c3ccccc3c2n(C)c1=O

>  <Energy>  (1) 
66.7456236685728

>  <Genealogy>  (1) 
Cn1c(=O)c2[nH]c(=O)c3ccccc3c2n(C)c1=O (3D coordinates assigned)
Cn1c(=O)c2[nH]c(=O)c3ccccc3c2n(C)c1=O (optimized conformer: 66.7456236685728 kcal/mol)

>  <smiles>  (1) 
Cn1c(=O)c2[nH]c(=O)c3ccccc3c2n(C)c1=O

>  <score_type>  (1) 
oracle

>  <origin>  (1) 
adg

>  <m_score__min__energy>  (1) 
-7.0899999999999999

>  <m_primary>  (1) 
energy

$$$$
1:0
     RDKit          3D

 50 53  0  0  0  0  0  0  0  0999 V2000
   60.0000   35.8050   46.0020 C   0  0  0  0  0  0  0  0  0  0  0  0
   59.3890   34.6110   45.3470 C   0  0  0  0  0  0  0  0  0  0  0  0
   58.6900   33.6070   45.9810 C   0  0  0  0  0  0  0  0  0  0  0  0
   58.3930   32.7240   44.9590 C   0  0  0  0  0  0  0  0  0  0  0  0
   57.6280   31.4590   45.0540 C   0  0  0  0  0  0  0  0  0  0  0  0
   56.3950   31.3010   44.4000 C   0  0  0  0  0  0  0  0  0  0  0  0
   55.7050   30.0900   44.4780 C   0  0  0  0  0  0  0  0  0  0  0  0
   56.2310   29.0210   45.2080 C   0  0  0  0  0  0  0  0  0  0  0  0
   55.5220   27.8280   45.2590 O   0  0  0  0  0  0  0  0  0  0  0  0
   57.4610   29.1650   45.8760 C   0  0  0  0  0  0  0  0  0  0  0  0
   58.1600   27.8650   46.8490 S   0  0  0  0  0  0  0  0  0  0  0  0
   59.5320   27.5540   46.3250 O   0  0  0  0  0  0  0  0  0  0  0  0
   57.3300   26.6140   46.7930 O   0  0  0  0  0  0  0  0  0  0  0  0
   58.2880   28.3790   48.5000 N   0  0  0  0  0  0  0  0  0  0  0  0
   59.3540   29.1780   49.0340 C   0  0  0  0  0  0  0  0  0  0  0  0
   60.5000   28.6050   49.6160 C   0  0  0  0  0  0  0  0  0  0  0  0
   61.5180   29.4210   50.1160 C   0  0  0  0  0  0  0  0  0  0  0  0
   61.4070   30.8120   50.0350 C   0  0  0  0  0  0  0  0  0  0  0  0
   60.2710   31.3930   49.4570 C   0  0  0  0  0  0  0  0  0  0  0  0
   60.1370   33.1420   49.3040 S   0  0  0  0  0  0  0  0  0  0  0  0
   58.7890   33.4810   48.7320 O   0  0  0  0  0  0  0  0  0  0  0  0
   60.2720   33.7860   50.6580 O   0  0  0  0  0  0  0  0  0  0  0  0
   61.3880   33.7260   48.2360 N   0  0  0  0  0  0  0  0  0  0  0  0
   61.7090   32.7380   47.2080 C   0  0  0  0  0  0  0  0  0  0  0  0
   63.1380   33.0190   46.7810 C   0  0  0  0  0  0  0  0  0  0  0  0
   63.7750   33.7220   47.9690 C   0  0  0  0  0  0  0  0  0  0  0  0
   62.6400   33.9670   48.9560 C   0  0  0  0  0  0  0  0  0  0  0  0
   59.2440   30.5730   48.9670 C   0  0  0  0  0  0  0  0  0  0  0  0
   58.1510   30.3830   45.7910 C   0  0  0  0  0  0  0  0  0  0  0  0
   58.9040   33.1940   43.8430 O   0  0  0  0  0  0  0  0  0  0  0  0
   59.5160   34.3260   44.0390 N   0  0  0  0  0  0  0  0  0  0  0  0
   59.9428   35.6932   47.0948 H   0  0  0  0  0  0  0  0  0  0  0  0
   61.0533   35.8917   45.6969 H   0  0  0  0  0  0  0  0  0  0  0  0
   59.4542   36.7100   45.6969 H   0  0  0  0  0  0  0  0  0  0  0  0
   58.4300   33.5269   47.0468 H   0  0  0  0  0  0  0  0  0  0  0  0
   55.9708   32.1361   43.8232 H   0  0  0  0  0  0  0  0  0  0  0  0
   54.7406   29.9765   43.9612 H   0  0  0  0  0  0  0  0  0  0  0  0
   60.5947   27.5108   49.6775 H   0  0  0  0  0  0  0  0  0  0  0  0
   62.4091   28.9676   50.5746 H   0  0  0  0  0  0  0  0  0  0  0  0
   62.2126   31.4511   50.4256 H   0  0  0  0  0  0  0  0  0  0  0  0
   61.6268   31.7207   47.6182 H   0  0  0  0  0  0  0  0  0  0  0  0
   61.0158   32.8062   46.3566 H   0  0  0  0  0  0  0  0  0  0  0  0
   63.6665   32.0802   46.5589 H   0  0  0  0  0  0  0  0  0  0  0  0
   63.1827   33.6304   45.8676 H   0  0  0  0  0  0  0  0  0  0  0  0
   64.5481   33.0847   48.4231 H   0  0  0  0  0  0  0  0  0  0  0  0
   64.2660   34.6604   47.6717 H   0  0  0  0  0  0  0  0  0  0  0  0
   62.7247   33.2767   49.8082 H   0  0  0  0  0  0  0  0  0  0  0  0
   62.6758   34.9938   49.3489 H   0  0  0  0  0  0  0  0  0  0  0  0
   58.3450   31.0289   48.5266 H   0  0  0  0  0  0  0  0  0  0  0  0
   59.1149   30.4976   46.3084 H   0  0  0  0  0  0  0  0  0  0  0  0
  1  2  1  0
  2  3  1  0
  3  4  2  0
  4  5  1  0
  5  6  2  0
  6  7  1  0
  7  8  2  0
  8  9  1  0
  8 10  1  0
 10 11  1  0
 11 12  2  0
 11 13  2  0
 11 14  1  0
 14 15  1  0
 15 16  2  0
 16 17  1  0
 17 18  2  0
 18 19  1  0
 19 20  1  0
 20 21  2  0
 20 22  2  0
 20 23  1  0
 23 24  1  0
 24 25  1  0
 25 26  1  0
 26 27  1  0
 19 28  2  0
 10 29  2  0
  4 30  1  0
 30 31  1  0
 31  2  2  0
 29  5  1  0
 28 15  1  0
 27 23  1  0
  1 32  1  0
  1 33  1  0
  1 34  1  0
  3 35  1  0
  6 36  1  0
  7 37  1  0
 16 38  1  0
 17 39  1  0
 18 40  1  0
 24 41  1  0
 24 42  1  0
 25 43  1  0
 25 44  1  0
 26 45  1  0
 26 46  1  0
 27 47  1  0
 27 48  1  0
 28 49  1  0
 29 50  1  0
M  CHG  2   9  -1  14  -1
M  END
>  <UniqueID>  (2) 
2

>  <SMILES>  (2) 
Cc1cc(-c2ccc([O-])c(S(=O)(=O)[N-]c3cccc(S(=O)(=O)N4CCCC4)c3)c2)on1

>  <Energy>  (2) 
88.34704206972378

>  <Genealogy>  (2) 
Cc1cc(-c2ccc([O-])c(S(=O)(=O)[N-]c3cccc(S(=O)(=O)N4CCCC4)c3)c2)on1 (protonated)
Cc1cc(-c2ccc([O-])c(S(=O)(=O)[N-]c3cccc(S(=O)(=O)N4CCCC4)c3)c2)on1 (3D coordinates assigned)
Cc1cc(-c2ccc([O-])c(S(=O)(=O)[N-]c3cccc(S(=O)(=O)N4CCCC4)c3)c2)on1 (nonaromatic ring conformer: 88.34704206972378 kcal/mol)

>  <smiles>  (2) 
Cc1cc(-c2ccc(O)c(S(=O)(=O)Nc3cccc(S(=O)(=O)N4CCCC4)c3)c2)on1

>  <score_type>  (2) 
oracle

>  <origin>  (2) 
adg

>  <m_score__min__energy>  (2) 
-13.550000000000001

>  <m_primary>  (2) 
energy

$$$$
2:0
     RDKit          3D

 33 34  0  0  0  0  0  0  0  0999 V2000
   59.0470   28.3730   47.1260 C   0  0  0  0  0  0  0  0  0  0  0  0
   58.3210   28.9060   46.1250 C   0  0  0  0  0  0  0  0  0  0  0  0
   58.0830   30.2920   46.1690 C   0  0  0  0  0  0  0  0  0  0  0  0
   57.5770   30.9790   45.0640 C   0  0  0  0  0  0  0  0  0  0  0  0
   57.3200   32.7570   45.2100 S   0  0  0  0  0  0  0  0  0  0  0  0
   58.9480   33.0570   45.9660 C   0  0  0  0  0  0  0  0  0  0  0  0
   57.3010   30.2820   43.8720 C   0  0  0  0  0  0  0  0  0  0  0  0
   56.7410   30.9770   42.6520 C   0  0  0  0  0  0  0  0  0  0  0  0
   57.7460   31.9770   42.0870 C   0  0  0  0  0  0  0  0  0  0  0  0
   57.4650   28.8900   43.8430 C   0  0  0  0  0  0  0  0  0  0  0  0
   57.8980   28.1660   44.9730 C   0  0  0  0  0  0  0  0  0  0  0  0
   57.8560   26.8120   44.8850 C   0  0  0  0  0  0  0  0  0  0  0  0
   57.2930   25.8890   45.8880 C   0  0  0  0  0  0  0  0  0  0  0  0
   57.9530   24.8330   46.3900 N   0  0  0  0  0  0  0  0  0  0  0  0
   57.0510   24.2040   47.1700 C   0  0  0  0  0  0  0  0  0  0  0  0
   57.3190   23.1630   47.8250 O   0  0  0  0  0  0  0  0  0  0  0  0
   55.8320   24.7830   47.1790 N   0  0  0  0  0  0  0  0  0  0  0  0
   55.9940   25.8370   46.3550 C   0  0  0  0  0  0  0  0  0  0  0  0
   54.9690   26.7090   46.0130 O   0  0  0  0  0  0  0  0  0  0  0  0
   59.2603   27.2939   47.1366 H   0  0  0  0  0  0  0  0  0  0  0  0
   59.4268   29.0167   47.9331 H   0  0  0  0  0  0  0  0  0  0  0  0
   58.3003   30.8462   47.0940 H   0  0  0  0  0  0  0  0  0  0  0  0
   58.8523   33.0394   47.0617 H   0  0  0  0  0  0  0  0  0  0  0  0
   59.6506   32.2732   45.6466 H   0  0  0  0  0  0  0  0  0  0  0  0
   59.3251   34.0398   45.6466 H   0  0  0  0  0  0  0  0  0  0  0  0
   56.5098   30.2250   41.8832 H   0  0  0  0  0  0  0  0  0  0  0  0
   55.8300   31.5202   42.9435 H   0  0  0  0  0  0  0  0  0  0  0  0
   58.2596   32.4881   42.9147 H   0  0  0  0  0  0  0  0  0  0  0  0
   58.4849   31.4452   41.4696 H   0  0  0  0  0  0  0  0  0  0  0  0
   57.2179   32.7185   41.4696 H   0  0  0  0  0  0  0  0  0  0  0  0
   57.2496   28.3465   42.9112 H   0  0  0  0  0  0  0  0  0  0  0  0
   58.2832   26.3596   43.9779 H   0  0  0  0  0  0  0  0  0  0  0  0
   58.9440   24.5570   46.2120 H   0  0  0  0  0  0  0  0  0  0  0  0
  1  2  2  0
  2  3  1  0
  3  4  2  0
  4  5  1  0
  5  6  1  0
  4  7  1  0
  7  8  1  0
  8  9  1  0
  7 10  2  0
 10 11  1  0
 11 12  2  3
 12 13  1  0
 13 14  1  0
 14 15  1  0
 15 16  2  0
 15 17  1  0
 17 18  1  0
 18 19  1  0
 11  2  1  0
 18 13  2  0
  1 20  1  0
  1 21  1  0
  3 22  1  0
  6 23  1  0
  6 24  1  0
  6 25  1  0
  8 26  1  0
  8 27  1  0
  9 28  1  0
  9 29  1  0
  9 30  1  0
 10 31  1  0
 12 32  1  0
 14 33  1  0
M  CHG  2  17  -1  19  -1
M  END
>  <UniqueID>  (3) 
3

>  <SMILES>  (3) 
C=c1cc(SC)c(CC)cc1=Cc1[nH]c(=O)[n-]c1[O-]

>  <Energy>  (3) 
79.05260344267381

>  <Genealogy>  (3) 
C=c1cc(SC)c(CC)cc1=Cc1[nH]c(=O)[n-]c1[O-] (protonated)
C=c1cc(SC)c(CC)cc1=Cc1[nH]c(=O)[n-]c1[O-] (3D coordinates assigned)
C=c1cc(SC)c(CC)cc1=Cc1[nH]c(=O)[n-]c1[O-] (optimized conformer: 79.05260344267381 kcal/mol)

>  <smiles>  (3) 
C=c1cc(SC)c(CC)cc1=Cc1[nH]c(=O)[nH]c1O

>  <score_type>  (3) 
oracle

>  <origin>  (3) 
adg

>  <m_score__min__energy>  (3) 
-13.300000000000001

>  <m_primary>  (3) 
energy

$$$$
3:0
     RDKit          3D

 46 48  0  0  0  0  0  0  0  0999 V2000
   55.7490   26.8390   45.9890 N   0  0  0  0  0  0  0  0  0  0  0  0
   57.0310   27.4470   46.1340 C   0  0  0  0  0  0  0  0  0  0  0  0
   57.9850   26.7550   46.5830 O   0  0  0  0  0  0  0  0  0  0  0  0
   57.2530   28.8730   45.7630 C   0  0  0  0  0  0  0  0  0  0  0  0
   58.4710   29.4960   46.0770 C   0  0  0  0  0  0  0  0  0  0  0  0
   58.7170   30.8040   45.7460 N   0  0  0  0  0  0  0  0  0  0  0  0
   59.9970   31.4540   46.1360 C   0  0  0  0  0  0  0  0  0  0  0  0
   61.0580   30.4380   46.6630 C   0  0  0  0  0  0  0  0  0  0  0  0
   61.5110   30.7320   48.1000 C   0  0  0  0  0  0  0  0  0  0  0  0
   60.3490   31.0490   48.9410 N   0  0  0  0  0  0  0  0  0  0  0  0
   59.9410   30.1390   49.9830 C   0  0  0  0  0  0  0  0  0  0  0  0
   60.2390   28.9150   49.8970 O   0  0  0  0  0  0  0  0  0  0  0  0
   59.1420   30.5970   51.1410 C   0  0  0  0  0  0  0  0  0  0  0  0
   59.7290   31.4120   52.1200 C   0  0  0  0  0  0  0  0  0  0  0  0
   58.9770   31.8520   53.2120 C   0  0  0  0  0  0  0  0  0  0  0  0
   57.6350   31.4870   53.3350 C   0  0  0  0  0  0  0  0  0  0  0  0
   56.9220   31.9330   54.3990 F   0  0  0  0  0  0  0  0  0  0  0  0
   57.0310   30.6780   52.3580 C   0  0  0  0  0  0  0  0  0  0  0  0
   55.3290   30.2290   52.5100 S   0  0  0  0  0  0  0  0  0  0  0  0
   54.3240   31.2070   51.4940 N   0  0  0  0  0  0  0  0  0  0  0  0
   55.1550   28.7930   52.1020 O   0  0  0  0  0  0  0  0  0  0  0  0
   54.8980   30.3970   53.9390 O   0  0  0  0  0  0  0  0  0  0  0  0
   57.7860   30.2510   51.2550 C   0  0  0  0  0  0  0  0  0  0  0  0
   59.4630   32.1580   48.5460 C   0  0  0  0  0  0  0  0  0  0  0  0
   59.7400   32.6290   47.1080 C   0  0  0  0  0  0  0  0  0  0  0  0
   57.7280   31.5250   45.1220 C   0  0  0  0  0  0  0  0  0  0  0  0
   57.8970   32.7410   44.8320 O   0  0  0  0  0  0  0  0  0  0  0  0
   56.5460   30.9420   44.8080 N   0  0  0  0  0  0  0  0  0  0  0  0
   56.2830   29.6470   45.1040 C   0  0  0  0  0  0  0  0  0  0  0  0
   55.1650   29.1640   44.7850 O   0  0  0  0  0  0  0  0  0  0  0  0
   55.1200   27.0910   45.1950 H   0  0  0  0  0  0  0  0  0  0  0  0
   59.2478   28.9206   46.6018 H   0  0  0  0  0  0  0  0  0  0  0  0
   60.4454   31.8783   45.2256 H   0  0  0  0  0  0  0  0  0  0  0  0
   60.6215   29.4288   46.6330 H   0  0  0  0  0  0  0  0  0  0  0  0
   61.9435   30.5229   46.0159 H   0  0  0  0  0  0  0  0  0  0  0  0
   62.0248   29.8488   48.5074 H   0  0  0  0  0  0  0  0  0  0  0  0
   62.1955   31.5930   48.0925 H   0  0  0  0  0  0  0  0  0  0  0  0
   60.7850   31.7057   52.0276 H   0  0  0  0  0  0  0  0  0  0  0  0
   59.4440   32.4885   53.9780 H   0  0  0  0  0  0  0  0  0  0  0  0
   54.3120   32.1700   51.8950 H   0  0  0  0  0  0  0  0  0  0  0  0
   54.7840   31.2610   50.5570 H   0  0  0  0  0  0  0  0  0  0  0  0
   57.3115   29.6400   50.4730 H   0  0  0  0  0  0  0  0  0  0  0  0
   58.4183   31.8204   48.6147 H   0  0  0  0  0  0  0  0  0  0  0  0
   59.6518   33.0034   49.2240 H   0  0  0  0  0  0  0  0  0  0  0  0
   58.8695   33.1983   46.7500 H   0  0  0  0  0  0  0  0  0  0  0  0
   60.6490   33.2481   47.1297 H   0  0  0  0  0  0  0  0  0  0  0  0
  1  2  1  0
  2  3  2  0
  2  4  1  0
  4  5  2  0
  5  6  1  0
  6  7  1  0
  7  8  1  0
  8  9  1  0
  9 10  1  0
 10 11  1  0
 11 12  2  0
 11 13  1  0
 13 14  2  0
 14 15  1  0
 15 16  2  0
 16 17  1  0
 16 18  1  0
 18 19  1  0
 19 20  1  0
 19 21  2  0
 19 22  2  0
 18 23  2  0
 10 24  1  0
 24 25  1  0
  6 26  1  0
 26 27  2  0
 26 28  1  0
 28 29  1  0
 29 30  2  0
 29  4  1  0
 25  7  1  0
 23 13  1  0
  1 31  1  0
  5 32  1  0
  7 33  1  0
  8 34  1  0
  8 35  1  0
  9 36  1  0
  9 37  1  0
 14 38  1  0
 15 39  1  0
 20 40  1  0
 20 41  1  0
 23 42  1  0
 24 43  1  0
 24 44  1  0
 25 45  1  0
 25 46  1  0
M  CHG  2   1  -1  28  -1
M  END
>  <UniqueID>  (4) 
4

>  <SMILES>  (4) 
[NH-]C(=O)c1cn(C2CCN(C(=O)c3ccc(F)c(S(N)(=O)=O)c3)CC2)c(=O)[n-]c1=O

>  <Energy>  (4) 
62.86547886030184

>  <Genealogy>  (4) 
[NH-]C(=O)c1cn(C2CCN(C(=O)c3ccc(F)c(S(N)(=O)=O)c3)CC2)c(=O)[n-]c1=O (protonated)
[NH-]C(=O)c1cn(C2CCN(C(=O)c3ccc(F)c(S(N)(=O)=O)c3)CC2)c(=O)[n-]c1=O (3D coordinates assigned)
[NH-]C(=O)c1cn(C2CCN(C(=O)c3ccc(F)c(S(N)(=O)=O)c3)CC2)c(=O)[n-]c1=O (nonaromatic ring conformer: 62.86547886030184 kcal/mol)

>  <smiles>  (4) 
NC(=O)c1cn(C2CCN(C(=O)c3ccc(F)c(S(N)(=O)=O)c3)CC2)c(=O)[nH]c1=O

>  <score_type>  (4) 
oracle

>  <origin>  (4) 
adg

>  <m_score__min__energy>  (4) 
-12.289999999999999

>  <m_primary>  (4) 
energy

$$$$
4:0
     RDKit          3D

 61 64  0  0  0  0  0  0  0  0999 V2000
   61.8540   31.1910   47.9350 C   0  0  0  0  0  0  0  0  0  0  0  0
   60.9640   30.8370   48.9890 O   0  0  0  0  0  0  0  0  0  0  0  0
   61.3210   30.0730   50.1120 C   0  0  0  0  0  0  0  0  0  0  0  0
   62.0230   30.6370   51.1960 C   0  0  0  0  0  0  0  0  0  0  0  0
   62.3370   29.8660   52.3170 C   0  0  0  0  0  0  0  0  0  0  0  0
   61.9560   28.5260   52.3730 C   0  0  0  0  0  0  0  0  0  0  0  0
   61.2650   27.9500   51.3060 C   0  0  0  0  0  0  0  0  0  0  0  0
   60.9480   28.7100   50.1660 C   0  0  0  0  0  0  0  0  0  0  0  0
   60.2190   28.0690   49.0430 C   0  0  0  0  0  0  0  0  0  0  0  0
   60.7470   26.9360   48.4010 C   0  0  0  0  0  0  0  0  0  0  0  0
   60.0570   26.3380   47.3440 C   0  0  0  0  0  0  0  0  0  0  0  0
   58.8230   26.8510   46.9240 C   0  0  0  0  0  0  0  0  0  0  0  0
   58.1260   26.2270   45.8310 N   0  0  0  0  0  0  0  0  0  0  0  0
   58.0350   26.9510   44.5880 C   0  0  0  0  0  0  0  0  0  0  0  0
   58.1060   26.3240   43.4950 O   0  0  0  0  0  0  0  0  0  0  0  0
   57.8540   28.4190   44.5580 C   0  0  0  0  0  0  0  0  0  0  0  0
   58.9210   29.2400   44.1530 C   0  0  0  0  0  0  0  0  0  0  0  0
   58.7700   30.6280   44.1120 C   0  0  0  0  0  0  0  0  0  0  0  0
   57.5470   31.2140   44.4650 C   0  0  0  0  0  0  0  0  0  0  0  0
   57.3860   32.5970   44.4290 O   0  0  0  0  0  0  0  0  0  0  0  0
   56.4760   30.4030   44.8520 C   0  0  0  0  0  0  0  0  0  0  0  0
   56.6190   29.0130   44.8900 C   0  0  0  0  0  0  0  0  0  0  0  0
   55.5250   28.2290   45.2420 O   0  0  0  0  0  0  0  0  0  0  0  0
   57.2930   25.0240   46.0490 C   0  0  0  0  0  0  0  0  0  0  0  0
   56.2240   24.8830   44.9340 C   0  0  0  0  0  0  0  0  0  0  0  0
   54.8290   24.4990   45.4540 C   0  0  0  0  0  0  0  0  0  0  0  0
   54.9250   23.4900   46.5220 N   0  0  0  0  0  0  0  0  0  0  0  0
   54.0260   22.3560   46.5390 C   0  0  0  0  0  0  0  0  0  0  0  0
   54.1410   21.2830   47.5810 C   0  0  0  0  0  0  0  0  0  0  0  0
   53.1170   22.2550   45.6720 O   0  0  0  0  0  0  0  0  0  0  0  0
   55.8540   23.7080   47.6450 C   0  0  0  0  0  0  0  0  0  0  0  0
   56.6770   24.9880   47.4620 C   0  0  0  0  0  0  0  0  0  0  0  0
   58.2910   27.9800   47.5630 C   0  0  0  0  0  0  0  0  0  0  0  0
   58.9820   28.5830   48.6180 C   0  0  0  0  0  0  0  0  0  0  0  0
   62.7963   31.5658   48.3611 H   0  0  0  0  0  0  0  0  0  0  0  0
   62.0585   30.3058   47.3149 H   0  0  0  0  0  0  0  0  0  0  0  0
   61.3946   31.9749   47.3149 H   0  0  0  0  0  0  0  0  0  0  0  0
   62.3262   31.6937   51.1587 H   0  0  0  0  0  0  0  0  0  0  0  0
   62.8858   30.3165   53.1572 H   0  0  0  0  0  0  0  0  0  0  0  0
   62.2003   27.9220   53.2593 H   0  0  0  0  0  0  0  0  0  0  0  0
   60.9658   26.8927   51.3571 H   0  0  0  0  0  0  0  0  0  0  0  0
   61.7088   26.5178   48.7326 H   0  0  0  0  0  0  0  0  0  0  0  0
   60.4849   25.4596   46.8387 H   0  0  0  0  0  0  0  0  0  0  0  0
   59.8812   28.7862   43.8665 H   0  0  0  0  0  0  0  0  0  0  0  0
   59.6132   31.2627   43.8018 H   0  0  0  0  0  0  0  0  0  0  0  0
   56.5570   33.0430   44.8030 H   0  0  0  0  0  0  0  0  0  0  0  0
   55.5150   30.8615   45.1283 H   0  0  0  0  0  0  0  0  0  0  0  0
   57.9531   24.1463   45.9859 H   0  0  0  0  0  0  0  0  0  0  0  0
   56.1444   25.8451   44.4067 H   0  0  0  0  0  0  0  0  0  0  0  0
   56.5552   24.0667   44.2752 H   0  0  0  0  0  0  0  0  0  0  0  0
   54.3329   25.3971   45.8507 H   0  0  0  0  0  0  0  0  0  0  0  0
   54.2484   24.0750   44.6215 H   0  0  0  0  0  0  0  0  0  0  0  0
   54.0923   21.7370   48.5818 H   0  0  0  0  0  0  0  0  0  0  0  0
   53.3145   20.5669   47.4627 H   0  0  0  0  0  0  0  0  0  0  0  0
   55.1005   20.7583   47.4627 H   0  0  0  0  0  0  0  0  0  0  0  0
   55.2743   23.7874   48.5765 H   0  0  0  0  0  0  0  0  0  0  0  0
   56.5495   22.8567   47.6838 H   0  0  0  0  0  0  0  0  0  0  0  0
   56.0239   25.8629   47.5967 H   0  0  0  0  0  0  0  0  0  0  0  0
   57.4853   25.0062   48.2079 H   0  0  0  0  0  0  0  0  0  0  0  0
   57.3263   28.3928   47.2329 H   0  0  0  0  0  0  0  0  0  0  0  0
   58.5551   29.4647   49.1183 H   0  0  0  0  0  0  0  0  0  0  0  0
  1  2  1  0
  2  3  1  0
  3  4  2  0
  4  5  1  0
  5  6  2  0
  6  7  1  0
  7  8  2  0
  8  9  1  0
  9 10  2  0
 10 11  1  0
 11 12  2  0
 12 13  1  0
 13 14  1  0
 14 15  2  0
 14 16  1  0
 16 17  2  0
 17 18  1  0
 18 19  2  0
 19 20  1  0
 19 21  1  0
 21 22  2  0
 22 23  1  0
 13 24  1  0
 24 25  1  0
 25 26  1  0
 26 27  1  0
 27 28  1  0
 28 29  1  0
 28 30  2  0
 27 31  1  0
 31 32  1  0
 12 33  1  0
 33 34  2  0
  8  3  1  0
 34  9  1  0
 22 16  1  0
 32 24  1  0
  1 35  1  0
  1 36  1  0
  1 37  1  0
  4 38  1  0
  5 39  1  0
  6 40  1  0
  7 41  1  0
 10 42  1  0
 11 43  1  0
 17 44  1  0
 18 45  1  0
 20 46  1  0
 21 47  1  0
 24 48  1  0
 25 49  1  0
 25 50  1  0
 26 51  1  0
 26 52  1  0
 29 53  1  0
 29 54  1  0
 29 55  1  0
 31 56  1  0
 31 57  1  0
 32 58  1  0
 32 59  1  0
 33 60  1  0
 34 61  1  0
M  CHG  1  23  -1
M  END
>  <UniqueID>  (5) 
5

>  <SMILES>  (5) 
COc1ccccc1-c1ccc(N(C(=O)c2ccc(O)cc2[O-])C2CCN(C(C)=O)CC2)cc1

>  <Energy>  (5) 
85.65042078654301

>  <Genealogy>  (5) 
COc1ccccc1-c1ccc(N(C(=O)c2ccc(O)cc2[O-])C2CCN(C(C)=O)CC2)cc1 (protonated)
COc1ccccc1-c1ccc(N(C(=O)c2ccc(O)cc2[O-])C2CCN(C(C)=O)CC2)cc1 (3D coordinates assigned)
COc1ccccc1-c1ccc(N(C(=O)c2ccc(O)cc2[O-])C2CCN(C(C)=O)CC2)cc1 (nonaromatic ring conformer: 85.65042078654301 kcal/mol)

>  <smiles>  (5) 
COc1ccccc1-c1ccc(N(C(=O)c2ccc(O)cc2O)C2CCN(C(C)=O)CC2)cc1

>  <score_type>  (5) 
oracle

>  <origin>  (5) 
adg

>  <m_score__min__energy>  (5) 
-11.33

>  <m_primary>  (5) 
energy

$$$$
5:0
     RDKit          3D

 52 55  0  0  0  0  0  0  0  0999 V2000
   56.9490   30.4520   42.9000 C   0  0  0  0  0  0  0  0  0  0  0  0
   57.3200   30.8270   44.1290 C   0  0  0  0  0  0  0  0  0  0  0  0
   57.1230   32.4080   44.6620 S   0  0  0  0  0  0  0  0  0  0  0  0
   57.9420   32.2460   46.1080 C   0  0  0  0  0  0  0  0  0  0  0  0
   58.3800   30.9310   46.2210 C   0  0  0  0  0  0  0  0  0  0  0  0
   59.0930   30.4740   47.4320 C   0  0  0  0  0  0  0  0  0  0  0  0
   58.5630   29.4390   48.2190 C   0  0  0  0  0  0  0  0  0  0  0  0
   59.2670   28.9710   49.3310 C   0  0  0  0  0  0  0  0  0  0  0  0
   60.5140   29.5190   49.6580 C   0  0  0  0  0  0  0  0  0  0  0  0
   61.4430   28.8750   51.0120 S   0  0  0  0  0  0  0  0  0  0  0  0
   62.8620   29.3600   50.8980 O   0  0  0  0  0  0  0  0  0  0  0  0
   61.4680   27.3760   50.8920 O   0  0  0  0  0  0  0  0  0  0  0  0
   60.8020   29.2980   52.5920 N   0  0  0  0  0  0  0  0  0  0  0  0
   59.5400   28.5930   52.9140 C   0  0  0  0  0  0  0  0  0  0  0  0
   58.2810   29.3230   52.4180 C   0  0  0  0  0  0  0  0  0  0  0  0
   58.2840   30.7230   52.8670 N   0  0  0  0  0  0  0  0  0  0  0  0
   57.0540   31.3960   52.4180 C   0  0  0  0  0  0  0  0  0  0  0  0
   59.4600   31.4100   52.3140 C   0  0  0  0  0  0  0  0  0  0  0  0
   60.7450   30.7580   52.8340 C   0  0  0  0  0  0  0  0  0  0  0  0
   61.0130   30.5960   48.9110 C   0  0  0  0  0  0  0  0  0  0  0  0
   60.3060   31.0710   47.8030 C   0  0  0  0  0  0  0  0  0  0  0  0
   58.0260   30.1000   45.1200 C   0  0  0  0  0  0  0  0  0  0  0  0
   58.3800   28.7920   45.0780 C   0  0  0  0  0  0  0  0  0  0  0  0
   57.6390   27.6680   45.6830 C   0  0  0  0  0  0  0  0  0  0  0  0
   56.2390   27.6280   45.6180 C   0  0  0  0  0  0  0  0  0  0  0  0
   55.5280   28.6720   45.0380 O   0  0  0  0  0  0  0  0  0  0  0  0
   55.5650   26.5670   46.1330 N   0  0  0  0  0  0  0  0  0  0  0  0
   56.2260   25.5230   46.6970 C   0  0  0  0  0  0  0  0  0  0  0  0
   55.5810   24.5540   47.1710 O   0  0  0  0  0  0  0  0  0  0  0  0
   57.5830   25.5230   46.7430 N   0  0  0  0  0  0  0  0  0  0  0  0
   58.3030   26.5600   46.2420 C   0  0  0  0  0  0  0  0  0  0  0  0
   59.5610   26.5130   46.2780 O   0  0  0  0  0  0  0  0  0  0  0  0
   57.0896   29.4099   42.5770 H   0  0  0  0  0  0  0  0  0  0  0  0
   56.5033   31.1856   42.2122 H   0  0  0  0  0  0  0  0  0  0  0  0
   58.1072   33.0444   46.8464 H   0  0  0  0  0  0  0  0  0  0  0  0
   57.5905   28.9954   47.9591 H   0  0  0  0  0  0  0  0  0  0  0  0
   58.8407   28.1694   49.9520 H   0  0  0  0  0  0  0  0  0  0  0  0
   61.5190   28.9270   53.2600 H   0  0  0  0  0  0  0  0  0  0  0  0
   59.5700   27.5968   52.4484 H   0  0  0  0  0  0  0  0  0  0  0  0
   59.4710   28.5415   54.0106 H   0  0  0  0  0  0  0  0  0  0  0  0
   58.2570   29.2960   51.3186 H   0  0  0  0  0  0  0  0  0  0  0  0
   57.3938   28.8202   52.8304 H   0  0  0  0  0  0  0  0  0  0  0  0
   56.4702   31.7154   53.2939 H   0  0  0  0  0  0  0  0  0  0  0  0
   57.3175   32.2756   51.8123 H   0  0  0  0  0  0  0  0  0  0  0  0
   56.4553   30.6998   51.8123 H   0  0  0  0  0  0  0  0  0  0  0  0
   59.4371   31.3436   51.2162 H   0  0  0  0  0  0  0  0  0  0  0  0
   59.4401   32.4646   52.6263 H   0  0  0  0  0  0  0  0  0  0  0  0
   61.6030   31.2287   52.3317 H   0  0  0  0  0  0  0  0  0  0  0  0
   60.7681   30.9082   53.9234 H   0  0  0  0  0  0  0  0  0  0  0  0
   61.9640   31.0684   49.1982 H   0  0  0  0  0  0  0  0  0  0  0  0
   60.7024   31.9156   47.2204 H   0  0  0  0  0  0  0  0  0  0  0  0
   59.3081   28.5448   44.5418 H   0  0  0  0  0  0  0  0  0  0  0  0
  1  2  2  0
  2  3  1  0
  3  4  1  0
  4  5  2  0
  5  6  1  0
  6  7  2  0
  7  8  1  0
  8  9  2  0
  9 10  1  0
 10 11  2  0
 10 12  2  0
 10 13  1  0
 13 14  1  0
 14 15  1  0
 15 16  1  0
 16 17  1  0
 16 18  1  0
 18 19  1  0
  9 20  1  0
 20 21  2  0
  5 22  1  0
 22 23  2  3
 23 24  1  0
 24 25  2  0
 25 26  1  0
 25 27  1  0
 27 28  1  0
 28 29  2  0
 28 30  1  0
 30 31  1  0
 31 32  2  0
 22  2  1  0
 31 24  1  0
 21  6  1  0
 19 13  1  0
  1 33  1  0
  1 34  1  0
  4 35  1  0
  7 36  1  0
  8 37  1  0
 13 38  1  0
 14 39  1  0
 14 40  1  0
 15 41  1  0
 15 42  1  0
 17 43  1  0
 17 44  1  0
 17 45  1  0
 18 46  1  0
 18 47  1  0
 19 48  1  0
 19 49  1  0
 20 50  1  0
 21 51  1  0
 23 52  1  0
M  CHG  4  13   1  26  -1  27  -1  30  -1
M  END
>  <UniqueID>  (6) 
6

>  <SMILES>  (6) 
C=c1scc(-c2ccc(S(=O)(=O)[NH+]3CCN(C)CC3)cc2)c1=Cc1c([O-])[n-]c(=O)[n-]c1=O

>  <Energy>  (6) 
109.20704744392646

>  <Genealogy>  (6) 
C=c1scc(-c2ccc(S(=O)(=O)[NH+]3CCN(C)CC3)cc2)c1=Cc1c([O-])[n-]c(=O)[n-]c1=O (protonated)
C=c1scc(-c2ccc(S(=O)(=O)[NH+]3CCN(C)CC3)cc2)c1=Cc1c([O-])[n-]c(=O)[n-]c1=O (3D coordinates assigned)
C=c1scc(-c2ccc(S(=O)(=O)[NH+]3CCN(C)CC3)cc2)c1=Cc1c([O-])[n-]c(=O)[n-]c1=O (nonaromatic ring conformer: 109.20704744392646 kcal/mol)

>  <smiles>  (6) 
C=c1scc(-c2ccc(S(=O)(=O)N3CCN(C)CC3)cc2)c1=Cc1c(O)[nH]c(=O)[nH]c1=O

>  <score_type>  (6) 
oracle

>  <origin>  (6) 
adg

>  <m_score__min__energy>  (6) 
-15.359999999999999

>  <m_primary>  (6) 
energy

$$$$
6:0
     RDKit          3D

 48 50  0  0  0  0  0  0  0  0999 V2000
   57.7590   29.5170   51.6330 N   0  0  0  0  0  0  0  0  0  0  0  0
   58.1960   30.1770   50.7900 C   0  0  0  0  0  0  0  0  0  0  0  0
   58.7400   30.9980   49.7400 C   0  0  0  0  0  0  0  0  0  0  0  0
   59.1160   32.3210   50.0070 C   0  0  0  0  0  0  0  0  0  0  0  0
   59.6430   33.1200   48.9880 C   0  0  0  0  0  0  0  0  0  0  0  0
   59.8020   32.6010   47.6920 C   0  0  0  0  0  0  0  0  0  0  0  0
   60.3510   33.4610   46.5840 C   0  0  0  0  0  0  0  0  0  0  0  0
   59.3550   34.4570   46.1230 N   0  0  0  0  0  0  0  0  0  0  0  0
   59.2820   34.5800   44.6500 C   0  0  0  0  0  0  0  0  0  0  0  0
   58.7500   33.2960   44.0010 C   0  0  0  0  0  0  0  0  0  0  0  0
   57.6370   32.7310   44.7760 N   0  0  0  0  0  0  0  0  0  0  0  0
   57.0500   31.4670   44.3890 C   0  0  0  0  0  0  0  0  0  0  0  0
   55.9260   31.1300   44.8550 O   0  0  0  0  0  0  0  0  0  0  0  0
   57.7650   30.5460   43.4270 C   0  0  0  0  0  0  0  0  0  0  0  0
   57.3860   29.0690   43.6080 C   0  0  0  0  0  0  0  0  0  0  0  0
   58.0670   28.5100   44.7880 N   0  0  0  0  0  0  0  0  0  0  0  0
   59.4210   28.6770   44.9100 C   0  0  0  0  0  0  0  0  0  0  0  0
   60.1110   28.1420   45.9990 C   0  0  0  0  0  0  0  0  0  0  0  0
   59.4130   27.4200   46.9640 C   0  0  0  0  0  0  0  0  0  0  0  0
   58.0380   27.2380   46.8290 C   0  0  0  0  0  0  0  0  0  0  0  0
   57.3730   27.7860   45.7260 C   0  0  0  0  0  0  0  0  0  0  0  0
   56.1310   27.6020   45.6100 O   0  0  0  0  0  0  0  0  0  0  0  0
   56.9870   33.5700   45.7930 C   0  0  0  0  0  0  0  0  0  0  0  0
   58.0210   34.2270   46.7350 C   0  0  0  0  0  0  0  0  0  0  0  0
   59.4230   31.2740   47.4300 C   0  0  0  0  0  0  0  0  0  0  0  0
   58.8960   30.4770   48.4500 C   0  0  0  0  0  0  0  0  0  0  0  0
   58.9963   32.7318   51.0204 H   0  0  0  0  0  0  0  0  0  0  0  0
   59.9343   34.1590   49.2017 H   0  0  0  0  0  0  0  0  0  0  0  0
   61.2422   33.9909   46.9514 H   0  0  0  0  0  0  0  0  0  0  0  0
   60.6043   32.8089   45.7351 H   0  0  0  0  0  0  0  0  0  0  0  0
   58.6112   35.4134   44.3943 H   0  0  0  0  0  0  0  0  0  0  0  0
   60.2979   34.7620   44.2695 H   0  0  0  0  0  0  0  0  0  0  0  0
   58.3988   33.5267   42.9844 H   0  0  0  0  0  0  0  0  0  0  0  0
   59.5644   32.5572   43.9715 H   0  0  0  0  0  0  0  0  0  0  0  0
   57.5119   30.8485   42.4001 H   0  0  0  0  0  0  0  0  0  0  0  0
   58.8425   30.6340   43.6303 H   0  0  0  0  0  0  0  0  0  0  0  0
   56.2975   28.9872   43.7440 H   0  0  0  0  0  0  0  0  0  0  0  0
   57.6962   28.5069   42.7148 H   0  0  0  0  0  0  0  0  0  0  0  0
   59.9709   29.2392   44.1409 H   0  0  0  0  0  0  0  0  0  0  0  0
   61.1969   28.2894   46.0943 H   0  0  0  0  0  0  0  0  0  0  0  0
   59.9445   26.9955   47.8285 H   0  0  0  0  0  0  0  0  0  0  0  0
   57.4786   26.6671   47.5847 H   0  0  0  0  0  0  0  0  0  0  0  0
   56.4109   34.3600   45.2889 H   0  0  0  0  0  0  0  0  0  0  0  0
   56.3291   32.9290   46.3982 H   0  0  0  0  0  0  0  0  0  0  0  0
   57.6204   35.1984   47.0604 H   0  0  0  0  0  0  0  0  0  0  0  0
   58.1761   33.5244   47.5671 H   0  0  0  0  0  0  0  0  0  0  0  0
   59.5415   30.8603   46.4177 H   0  0  0  0  0  0  0  0  0  0  0  0
   58.6031   29.4380   48.2387 H   0  0  0  0  0  0  0  0  0  0  0  0
  1  2  3  0
  2  3  1  0
  3  4  2  0
  4  5  1  0
  5  6  2  0
  6  7  1  0
  7  8  1  0
  8  9  1  0
  9 10  1  0
 10 11  1  0
 11 12  1  0
 12 13  2  0
 12 14  1  0
 14 15  1  0
 15 16  1  0
 16 17  1  0
 17 18  2  0
 18 19  1  0
 19 20  2  0
 20 21  1  0
 21 22  2  0
 11 23  1  0
 23 24  1  0
  6 25  1  0
 25 26  2  0
 26  3  1  0
 24  8  1  0
 21 16  1  0
  4 27  1  0
  5 28  1  0
  7 29  1  0
  7 30  1  0
  9 31  1  0
  9 32  1  0
 10 33  1  0
 10 34  1  0
 14 35  1  0
 14 36  1  0
 15 37  1  0
 15 38  1  0
 17 39  1  0
 18 40  1  0
 19 41  1  0
 20 42  1  0
 23 43  1  0
 23 44  1  0
 24 45  1  0
 24 46  1  0
 25 47  1  0
 26 48  1  0
M  END
>  <UniqueID>  (7) 
7

>  <SMILES>  (7) 
N#Cc1ccc(CN2CCN(C(=O)CCn3ccccc3=O)CC2)cc1

>  <Energy>  (7) 
58.28750817226663

>  <Genealogy>  (7) 
N#Cc1ccc(CN2CCN(C(=O)CCn3ccccc3=O)CC2)cc1 (3D coordinates assigned)
N#Cc1ccc(CN2CCN(C(=O)CCn3ccccc3=O)CC2)cc1 (nonaromatic ring conformer: 58.28750817226663 kcal/mol)

>  <smiles>  (7) 
N#Cc1ccc(CN2CCN(C(=O)CCn3ccccc3=O)CC2)cc1

>  <score_type>  (7) 
oracle

>  <origin>  (7) 
adg

>  <m_score__min__energy>  (7) 
-8.0199999999999996

>  <m_primary>  (7) 
energy

$$$$
7:0
     RDKit          3D

 51 53  0  0  0  0  0  0  0  0999 V2000
   62.8130   29.9010   51.9190 C   0  0  0  0  0  0  0  0  0  0  0  0
   62.0670   29.7210   50.6350 C   0  0  0  0  0  0  0  0  0  0  0  0
   62.0400   30.6660   49.7980 O   0  0  0  0  0  0  0  0  0  0  0  0
   61.4620   28.4550   50.3320 N   0  0  0  0  0  0  0  0  0  0  0  0
   60.4800   28.2520   49.2990 C   0  0  0  0  0  0  0  0  0  0  0  0
   59.4700   29.2080   49.1160 C   0  0  0  0  0  0  0  0  0  0  0  0
   58.5200   29.0550   48.1010 C   0  0  0  0  0  0  0  0  0  0  0  0
   58.5760   27.9470   47.2430 C   0  0  0  0  0  0  0  0  0  0  0  0
   57.4040   27.7470   45.9480 S   0  0  0  0  0  0  0  0  0  0  0  0
   58.1020   27.2390   44.7210 O   0  0  0  0  0  0  0  0  0  0  0  0
   56.3480   26.7630   46.3710 O   0  0  0  0  0  0  0  0  0  0  0  0
   56.6740   29.2860   45.6220 N   0  0  0  0  0  0  0  0  0  0  0  0
   57.0000   30.1570   44.5240 C   0  0  0  0  0  0  0  0  0  0  0  0
   56.3950   29.9820   43.2630 C   0  0  0  0  0  0  0  0  0  0  0  0
   56.6680   30.8570   42.2120 C   0  0  0  0  0  0  0  0  0  0  0  0
   57.5560   31.9170   42.3960 C   0  0  0  0  0  0  0  0  0  0  0  0
   58.1820   32.0960   43.6290 C   0  0  0  0  0  0  0  0  0  0  0  0
   57.9240   31.2200   44.7080 C   0  0  0  0  0  0  0  0  0  0  0  0
   58.6430   31.4400   45.9960 C   0  0  0  0  0  0  0  0  0  0  0  0
   59.7250   30.8400   46.2400 O   0  0  0  0  0  0  0  0  0  0  0  0
   58.0780   32.3110   46.9850 N   0  0  0  0  0  0  0  0  0  0  0  0
   58.6920   32.7390   48.2090 C   0  0  0  0  0  0  0  0  0  0  0  0
   58.2330   32.2520   49.4480 C   0  0  0  0  0  0  0  0  0  0  0  0
   58.8330   32.6600   50.6420 C   0  0  0  0  0  0  0  0  0  0  0  0
   59.9000   33.5550   50.6160 C   0  0  0  0  0  0  0  0  0  0  0  0
   60.3820   34.0350   49.3960 C   0  0  0  0  0  0  0  0  0  0  0  0
   59.8010   33.6240   48.1790 C   0  0  0  0  0  0  0  0  0  0  0  0
   60.3640   34.1690   46.9120 C   0  0  0  0  0  0  0  0  0  0  0  0
   61.6880   33.7330   46.3640 C   0  0  0  0  0  0  0  0  0  0  0  0
   59.7120   35.0370   46.2720 O   0  0  0  0  0  0  0  0  0  0  0  0
   59.5950   27.0020   47.4010 C   0  0  0  0  0  0  0  0  0  0  0  0
   60.5460   27.1530   48.4190 C   0  0  0  0  0  0  0  0  0  0  0  0
   62.1305   29.7363   52.7658 H   0  0  0  0  0  0  0  0  0  0  0  0
   63.6392   29.1764   51.9677 H   0  0  0  0  0  0  0  0  0  0  0  0
   63.2179   30.9226   51.9677 H   0  0  0  0  0  0  0  0  0  0  0  0
   61.7940   27.6180   50.8680 H   0  0  0  0  0  0  0  0  0  0  0  0
   59.4247   30.0862   49.7769 H   0  0  0  0  0  0  0  0  0  0  0  0
   57.7263   29.8062   47.9753 H   0  0  0  0  0  0  0  0  0  0  0  0
   55.6989   29.1449   43.1060 H   0  0  0  0  0  0  0  0  0  0  0  0
   56.1822   30.7111   41.2360 H   0  0  0  0  0  0  0  0  0  0  0  0
   57.7624   32.6116   41.5684 H   0  0  0  0  0  0  0  0  0  0  0  0
   58.8862   32.9302   43.7639 H   0  0  0  0  0  0  0  0  0  0  0  0
   57.3928   31.5426   49.4761 H   0  0  0  0  0  0  0  0  0  0  0  0
   58.4625   32.2742   51.6032 H   0  0  0  0  0  0  0  0  0  0  0  0
   60.3637   33.8843   51.5576 H   0  0  0  0  0  0  0  0  0  0  0  0
   61.2247   34.7419   49.3847 H   0  0  0  0  0  0  0  0  0  0  0  0
   62.3725   33.5076   47.1950 H   0  0  0  0  0  0  0  0  0  0  0  0
   61.5510   32.8325   45.7473 H   0  0  0  0  0  0  0  0  0  0  0  0
   62.1128   34.5387   45.7473 H   0  0  0  0  0  0  0  0  0  0  0  0
   59.6501   26.1371   46.7236 H   0  0  0  0  0  0  0  0  0  0  0  0
   61.3488   26.4095   48.5320 H   0  0  0  0  0  0  0  0  0  0  0  0
  1  2  1  0
  2  3  2  0
  2  4  1  0
  4  5  1  0
  5  6  2  0
  6  7  1  0
  7  8  2  0
  8  9  1  0
  9 10  2  0
  9 11  2  0
  9 12  1  0
 12 13  1  0
 13 14  2  0
 14 15  1  0
 15 16  2  0
 16 17  1  0
 17 18  2  0
 18 19  1  0
 19 20  2  0
 19 21  1  0
 21 22  1  0
 22 23  2  0
 23 24  1  0
 24 25  2  0
 25 26  1  0
 26 27  2  0
 27 28  1  0
 28 29  1  0
 28 30  2  0
  8 31  1  0
 31 32  2  0
 32  5  1  0
 18 13  1  0
 27 22  1  0
  1 33  1  0
  1 34  1  0
  1 35  1  0
  4 36  1  0
  6 37  1  0
  7 38  1  0
 14 39  1  0
 15 40  1  0
 16 41  1  0
 17 42  1  0
 23 43  1  0
 24 44  1  0
 25 45  1  0
 26 46  1  0
 29 47  1  0
 29 48  1  0
 29 49  1  0
 31 50  1  0
 32 51  1  0
M  CHG  2  12  -1  21  -1
M  END
>  <UniqueID>  (8) 
8

>  <SMILES>  (8) 
CC(=O)Nc1ccc(S(=O)(=O)[N-]c2ccccc2C(=O)[N-]c2ccccc2C(C)=O)cc1

>  <Energy>  (8) 
70.22997446361418

>  <Genealogy>  (8) 
CC(=O)Nc1ccc(S(=O)(=O)[N-]c2ccccc2C(=O)[N-]c2ccccc2C(C)=O)cc1 (protonated)
CC(=O)Nc1ccc(S(=O)(=O)[N-]c2ccccc2C(=O)[N-]c2ccccc2C(C)=O)cc1 (3D coordinates assigned)
CC(=O)Nc1ccc(S(=O)(=O)[N-]c2ccccc2C(=O)[N-]c2ccccc2C(C)=O)cc1 (optimized conformer: 70.22997446361418 kcal/mol)

>  <smiles>  (8) 
CC(=O)Nc1ccc(S(=O)(=O)Nc2ccccc2C(=O)Nc2ccccc2C(C)=O)cc1

>  <score_type>  (8) 
oracle

>  <origin>  (8) 
adg

>  <m_score__min__energy>  (8) 
-13.91

>  <m_primary>  (8) 
energy

$$$$
8:0
     RDKit          3D

 47 49  0  0  0  0  0  0  0  0999 V2000
   57.6030   24.3050   46.4480 C   0  0  0  0  0  0  0  0  0  0  0  0
   56.5310   24.9510   46.9140 C   0  0  0  0  0  0  0  0  0  0  0  0
   55.5170   25.5540   45.9890 C   0  0  0  0  0  0  0  0  0  0  0  0
   55.7190   26.9960   45.9070 N   0  0  0  0  0  0  0  0  0  0  0  0
   56.8840   27.6020   45.3370 C   0  0  0  0  0  0  0  0  0  0  0  0
   57.7680   26.8700   44.8190 O   0  0  0  0  0  0  0  0  0  0  0  0
   57.0820   29.0680   45.3650 C   0  0  0  0  0  0  0  0  0  0  0  0
   58.1060   29.6770   46.1430 C   0  0  0  0  0  0  0  0  0  0  0  0
   58.9460   28.8170   47.0700 C   0  0  0  0  0  0  0  0  0  0  0  0
   58.2900   31.0960   46.0610 C   0  0  0  0  0  0  0  0  0  0  0  0
   59.3300   31.8110   46.7340 C   0  0  0  0  0  0  0  0  0  0  0  0
   60.2990   31.1190   47.4820 O   0  0  0  0  0  0  0  0  0  0  0  0
   61.6510   30.8620   47.0940 C   0  0  0  0  0  0  0  0  0  0  0  0
   62.6340   31.6950   47.9380 C   0  0  1  0  0  0  0  0  0  0  0  0
   63.4100   32.7060   47.1030 C   0  0  0  0  0  0  0  0  0  0  0  0
   63.7180   33.8350   48.0690 C   0  0  0  0  0  0  0  0  0  0  0  0
   62.8050   33.6090   49.2730 C   0  0  0  0  0  0  0  0  0  0  0  0
   61.9430   32.4620   48.9770 N   0  0  0  0  0  0  0  0  0  0  0  0
   59.3930   33.2150   46.6140 C   0  0  0  0  0  0  0  0  0  0  0  0
   58.4700   33.9120   45.8430 C   0  0  0  0  0  0  0  0  0  0  0  0
   57.4720   33.2280   45.1640 C   0  0  0  0  0  0  0  0  0  0  0  0
   57.3780   31.8380   45.2600 C   0  0  0  0  0  0  0  0  0  0  0  0
   56.3960   31.2110   44.5700 N   0  0  0  0  0  0  0  0  0  0  0  0
   56.2300   29.8700   44.5940 C   0  0  0  0  0  0  0  0  0  0  0  0
   55.3060   29.3540   43.9100 O   0  0  0  0  0  0  0  0  0  0  0  0
   58.3318   23.8718   47.1488 H   0  0  0  0  0  0  0  0  0  0  0  0
   57.7571   24.2061   45.3634 H   0  0  0  0  0  0  0  0  0  0  0  0
   56.3889   25.0427   48.0009 H   0  0  0  0  0  0  0  0  0  0  0  0
   55.6278   25.1122   44.9877 H   0  0  0  0  0  0  0  0  0  0  0  0
   54.5071   25.3501   46.3744 H   0  0  0  0  0  0  0  0  0  0  0  0
   58.7064   29.0623   48.1152 H   0  0  0  0  0  0  0  0  0  0  0  0
   58.7276   27.7552   46.8833 H   0  0  0  0  0  0  0  0  0  0  0  0
   60.0127   29.0103   46.8833 H   0  0  0  0  0  0  0  0  0  0  0  0
   61.8696   29.7935   47.2371 H   0  0  0  0  0  0  0  0  0  0  0  0
   61.7719   31.1413   46.0369 H   0  0  0  0  0  0  0  0  0  0  0  0
   63.3198   30.9569   48.3794 H   0  0  0  0  0  0  0  0  0  0  0  0
   64.3383   32.2606   46.7159 H   0  0  0  0  0  0  0  0  0  0  0  0
   62.8430   33.0482   46.2247 H   0  0  0  0  0  0  0  0  0  0  0  0
   64.7737   33.7998   48.3761 H   0  0  0  0  0  0  0  0  0  0  0  0
   63.5483   34.8201   47.6098 H   0  0  0  0  0  0  0  0  0  0  0  0
   63.4108   33.4001   50.1671 H   0  0  0  0  0  0  0  0  0  0  0  0
   62.1968   34.5051   49.4656 H   0  0  0  0  0  0  0  0  0  0  0  0
   61.0170   32.8110   48.6300 H   0  0  0  0  0  0  0  0  0  0  0  0
   61.7980   31.8760   49.8330 H   0  0  0  0  0  0  0  0  0  0  0  0
   60.1859   33.7676   47.1394 H   0  0  0  0  0  0  0  0  0  0  0  0
   58.5310   35.0080   45.7711 H   0  0  0  0  0  0  0  0  0  0  0  0
   56.7508   33.7837   44.5466 H   0  0  0  0  0  0  0  0  0  0  0  0
  1  2  2  0
  2  3  1  0
  3  4  1  0
  4  5  1  0
  5  6  2  0
  5  7  1  0
  7  8  2  0
  8  9  1  0
  8 10  1  0
 10 11  2  0
 11 12  1  0
 12 13  1  0
 13 14  1  0
 14 15  1  0
 15 16  1  0
 16 17  1  0
 17 18  1  0
 11 19  1  0
 19 20  2  0
 20 21  1  0
 21 22  2  0
 22 23  1  0
 23 24  1  0
 24 25  2  0
 24  7  1  0
 22 10  1  0
 18 14  1  0
  1 26  1  0
  1 27  1  0
  2 28  1  0
  3 29  1  0
  3 30  1  0
  9 31  1  0
  9 32  1  0
  9 33  1  0
 13 34  1  0
 13 35  1  0
 14 36  1  1
 15 37  1  0
 15 38  1  0
 16 39  1  0
 16 40  1  0
 17 41  1  0
 17 42  1  0
 18 43  1  0
 18 44  1  0
 19 45  1  0
 20 46  1  0
 21 47  1  0
M  CHG  3   4  -1  18   1  23  -1
M  END
>  <UniqueID>  (9) 
9

>  <SMILES>  (9) 
C=CC[N-]C(=O)c1c(C)c2c(OC[C@H]3CCC[NH2+]3)cccc2[n-]c1=O

>  <Energy>  (9) 
62.15908322476

>  <Genealogy>  (9) 
C=CC[N-]C(=O)c1c(C)c2c(OCC3CCC[NH2+]3)cccc2[n-]c1=O (protonated)
C=CC[N-]C(=O)c1c(C)c2c(OC[C@H]3CCC[NH2+]3)cccc2[n-]c1=O (chirality)
C=CC[N-]C(=O)c1c(C)c2c(OC[C@H]3CCC[NH2+]3)cccc2[n-]c1=O (3D coordinates assigned)
C=CC[N-]C(=O)c1c(C)c2c(OC[C@H]3CCC[NH2+]3)cccc2[n-]c1=O (nonaromatic ring conformer: 62.15908322476 kcal/mol)

>  <smiles>  (9) 
C=CCNC(=O)c1c(C)c2c(OCC3CCCN3)cccc2[nH]c1=O

>  <score_type>  (9) 
oracle

>  <origin>  (9) 
adg

>  <m_score__min__energy>  (9) 
-9.5899999999999999

>  <m_primary>  (9) 
energy

$$$$
9:0
     RDKit          3D

 54 57  0  0  0  0  0  0  0  0999 V2000
   60.1980   27.2690   47.3030 C   0  0  0  0  0  0  0  0  0  0  0  0
   59.5070   28.3620   46.9420 C   0  0  0  0  0  0  0  0  0  0  0  0
   58.3350   28.4040   46.1690 C   0  0  0  0  0  0  0  0  0  0  0  0
   57.7170   27.4490   45.4450 C   0  0  0  0  0  0  0  0  0  0  0  0
   57.1920   26.1800   45.9700 C   0  0  0  0  0  0  0  0  0  0  0  0
   57.9730   25.1760   46.4050 N   0  0  0  0  0  0  0  0  0  0  0  0
   57.0890   24.2850   46.9030 C   0  0  0  0  0  0  0  0  0  0  0  0
   57.4430   23.1830   47.3980 O   0  0  0  0  0  0  0  0  0  0  0  0
   55.7970   24.6720   46.8390 N   0  0  0  0  0  0  0  0  0  0  0  0
   55.8800   25.8800   46.2590 C   0  0  0  0  0  0  0  0  0  0  0  0
   54.7840   26.7010   46.0250 O   0  0  0  0  0  0  0  0  0  0  0  0
   57.8550   29.6970   46.2640 C   0  0  0  0  0  0  0  0  0  0  0  0
   58.7640   30.4100   47.0210 C   0  0  0  0  0  0  0  0  0  0  0  0
   58.6010   31.8600   47.3940 C   0  0  0  0  0  0  0  0  0  0  0  0
   59.7140   32.7070   46.8210 C   0  0  0  0  0  0  0  0  0  0  0  0
   59.6510   33.0390   45.6050 O   0  0  0  0  0  0  0  0  0  0  0  0
   60.8780   33.0710   47.6020 N   0  0  0  0  0  0  0  0  0  0  0  0
   62.0200   33.7380   46.9560 C   0  0  0  0  0  0  0  0  0  0  0  0
   63.3420   33.1480   47.4600 C   0  0  0  0  0  0  0  0  0  0  0  0
   63.3440   32.9800   48.9200 N   0  0  0  0  0  0  0  0  0  0  0  0
   64.5630   32.5920   49.5780 C   0  0  0  0  0  0  0  0  0  0  0  0
   65.6570   33.0870   49.1920 O   0  0  0  0  0  0  0  0  0  0  0  0
   64.5640   31.6090   50.6850 C   0  0  0  0  0  0  0  0  0  0  0  0
   63.4850   30.7190   50.8440 C   0  0  0  0  0  0  0  0  0  0  0  0
   63.4780   29.7980   51.8960 C   0  0  0  0  0  0  0  0  0  0  0  0
   64.5390   29.7620   52.8030 C   0  0  0  0  0  0  0  0  0  0  0  0
   65.6080   30.6510   52.6630 C   0  0  0  0  0  0  0  0  0  0  0  0
   65.6200   31.5740   51.6130 C   0  0  0  0  0  0  0  0  0  0  0  0
   62.1780   33.4040   49.7040 C   0  0  0  0  0  0  0  0  0  0  0  0
   60.8910   32.8720   49.0630 C   0  0  0  0  0  0  0  0  0  0  0  0
   59.7780   29.6060   47.4180 N   0  0  0  0  0  0  0  0  0  0  0  0
   60.8770   29.9770   48.3180 C   0  0  0  0  0  0  0  0  0  0  0  0
   61.1069   27.3699   47.9143 H   0  0  0  0  0  0  0  0  0  0  0  0
   59.8553   26.2725   46.9875 H   0  0  0  0  0  0  0  0  0  0  0  0
   57.5950   27.6356   44.3678 H   0  0  0  0  0  0  0  0  0  0  0  0
   56.9257   30.0844   45.8209 H   0  0  0  0  0  0  0  0  0  0  0  0
   57.6385   32.2233   47.0047 H   0  0  0  0  0  0  0  0  0  0  0  0
   58.6350   31.9406   48.4905 H   0  0  0  0  0  0  0  0  0  0  0  0
   61.9527   33.5973   45.8671 H   0  0  0  0  0  0  0  0  0  0  0  0
   61.9919   34.8096   47.2025 H   0  0  0  0  0  0  0  0  0  0  0  0
   63.4963   32.1662   46.9885 H   0  0  0  0  0  0  0  0  0  0  0  0
   64.1503   33.8455   47.1953 H   0  0  0  0  0  0  0  0  0  0  0  0
   62.6429   30.7483   50.1369 H   0  0  0  0  0  0  0  0  0  0  0  0
   62.6350   29.1005   52.0093 H   0  0  0  0  0  0  0  0  0  0  0  0
   64.5334   29.0340   53.6276 H   0  0  0  0  0  0  0  0  0  0  0  0
   66.4416   30.6245   53.3802 H   0  0  0  0  0  0  0  0  0  0  0  0
   66.4602   32.2768   51.5122 H   0  0  0  0  0  0  0  0  0  0  0  0
   62.2647   33.0099   50.7273 H   0  0  0  0  0  0  0  0  0  0  0  0
   62.1406   34.5031   49.7283 H   0  0  0  0  0  0  0  0  0  0  0  0
   60.8070   31.7960   49.2756 H   0  0  0  0  0  0  0  0  0  0  0  0
   60.0438   33.4293   49.4892 H   0  0  0  0  0  0  0  0  0  0  0  0
   60.5491   29.8663   49.3621 H   0  0  0  0  0  0  0  0  0  0  0  0
   61.7399   29.3204   48.1331 H   0  0  0  0  0  0  0  0  0  0  0  0
   61.1654   31.0223   48.1331 H   0  0  0  0  0  0  0  0  0  0  0  0
  1  2  2  0
  2  3  1  0
  3  4  2  3
  4  5  1  0
  5  6  1  0
  6  7  1  0
  7  8  2  0
  7  9  1  0
  9 10  1  0
 10 11  1  0
  3 12  1  0
 12 13  2  0
 13 14  1  0
 14 15  1  0
 15 16  2  0
 15 17  1  0
 17 18  1  0
 18 19  1  0
 19 20  1  0
 20 21  1  0
 21 22  2  0
 21 23  1  0
 23 24  2  0
 24 25  1  0
 25 26  2  0
 26 27  1  0
 27 28  2  0
 20 29  1  0
 29 30  1  0
 13 31  1  0
 31 32  1  0
 31  2  1  0
 10  5  2  0
 30 17  1  0
 28 23  1  0
  1 33  1  0
  1 34  1  0
  4 35  1  0
 12 36  1  0
 14 37  1  0
 14 38  1  0
 18 39  1  0
 18 40  1  0
 19 41  1  0
 19 42  1  0
 24 43  1  0
 25 44  1  0
 26 45  1  0
 27 46  1  0
 28 47  1  0
 29 48  1  0
 29 49  1  0
 30 50  1  0
 30 51  1  0
 32 52  1  0
 32 53  1  0
 32 54  1  0
M  CHG  3   6  -1   9  -1  11  -1
M  END
>  <UniqueID>  (10) 
10

>  <SMILES>  (10) 
C=c1c(=Cc2[n-]c(=O)[n-]c2[O-])cc(CC(=O)N2CCN(C(=O)c3ccccc3)CC2)n1C

>  <Energy>  (10) 
132.6023027661125

>  <Genealogy>  (10) 
C=c1c(=Cc2[n-]c(=O)[n-]c2[O-])cc(CC(=O)N2CCN(C(=O)c3ccccc3)CC2)n1C (protonated)
C=c1c(=Cc2[n-]c(=O)[n-]c2[O-])cc(CC(=O)N2CCN(C(=O)c3ccccc3)CC2)n1C (3D coordinates assigned)
C=c1c(=Cc2[n-]c(=O)[n-]c2[O-])cc(CC(=O)N2CCN(C(=O)c3ccccc3)CC2)n1C (nonaromatic ring conformer: 132.6023027661125 kcal/mol)

>  <smiles>  (10) 
C=c1c(=Cc2[nH]c(=O)[nH]c2O)cc(CC(=O)N2CCN(C(=O)c3ccccc3)CC2)n1C

>  <score_type>  (10) 
oracle

>  <origin>  (10) 
adg

>  <m_score__min__energy>  (10) 
-18.48

>  <m_primary>  (10) 
energy

$$$$
10:0
     RDKit          3D

 49 51  0  0  0  0  0  0  0  0999 V2000
   57.3640   31.2950   42.4960 C   0  0  0  0  0  0  0  0  0  0  0  0
   56.5320   30.4690   43.4780 C   0  0  0  0  0  0  0  0  0  0  0  0
   57.2120   29.1210   43.7440 C   0  0  0  0  0  0  0  0  0  0  0  0
   56.3960   31.2060   44.6960 O   0  0  0  0  0  0  0  0  0  0  0  0
   57.3620   32.0630   45.2510 C   0  0  0  0  0  0  0  0  0  0  0  0
   58.5260   31.4900   45.7750 C   0  0  0  0  0  0  0  0  0  0  0  0
   59.5130   32.2910   46.3520 C   0  0  0  0  0  0  0  0  0  0  0  0
   59.3470   33.6780   46.4300 C   0  0  0  0  0  0  0  0  0  0  0  0
   60.3870   34.4670   47.0320 N   0  0  0  0  0  0  0  0  0  0  0  0
   60.9790   34.2440   48.3190 C   0  0  0  0  0  0  0  0  0  0  0  0
   60.2680   34.2960   49.3600 O   0  0  0  0  0  0  0  0  0  0  0  0
   62.3940   33.9470   48.4060 N   0  0  0  0  0  0  0  0  0  0  0  0
   62.7430   33.3590   49.7110 C   0  0  0  0  0  0  0  0  0  0  0  0
   62.0370   32.0180   49.9400 C   0  0  0  0  0  0  0  0  0  0  0  0
   61.9030   31.2510   48.6940 N   0  0  0  0  0  0  0  0  0  0  0  0
   61.1560   30.0180   48.7380 C   0  0  0  0  0  0  0  0  0  0  0  0
   61.0600   29.3830   49.8250 O   0  0  0  0  0  0  0  0  0  0  0  0
   60.4320   29.5080   47.5220 C   0  0  0  0  0  0  0  0  0  0  0  0
   59.0650   28.9140   47.8310 C   0  0  0  0  0  0  0  0  0  0  0  0
   60.2190   27.9980   47.4710 C   0  0  0  0  0  0  0  0  0  0  0  0
   62.7150   31.5810   47.5130 C   0  0  0  0  0  0  0  0  0  0  0  0
   62.8760   33.1060   47.2850 C   0  0  0  0  0  0  0  0  0  0  0  0
   58.1980   34.2630   45.8730 C   0  0  0  0  0  0  0  0  0  0  0  0
   57.2110   33.4630   45.2900 C   0  0  0  0  0  0  0  0  0  0  0  0
   58.0361   31.9622   43.0556 H   0  0  0  0  0  0  0  0  0  0  0  0
   57.9600   30.6211   41.8630 H   0  0  0  0  0  0  0  0  0  0  0  0
   56.6944   31.8958   41.8630 H   0  0  0  0  0  0  0  0  0  0  0  0
   55.5374   30.2727   43.0511 H   0  0  0  0  0  0  0  0  0  0  0  0
   57.2936   28.9593   44.8290 H   0  0  0  0  0  0  0  0  0  0  0  0
   56.6133   28.3137   43.2969 H   0  0  0  0  0  0  0  0  0  0  0  0
   58.2171   29.1228   43.2969 H   0  0  0  0  0  0  0  0  0  0  0  0
   58.6645   30.3996   45.7319 H   0  0  0  0  0  0  0  0  0  0  0  0
   60.4286   31.8280   46.7485 H   0  0  0  0  0  0  0  0  0  0  0  0
   62.8970   34.8630   48.3370 H   0  0  0  0  0  0  0  0  0  0  0  0
   63.8307   33.1996   49.7499 H   0  0  0  0  0  0  0  0  0  0  0  0
   62.4162   34.0553   50.4974 H   0  0  0  0  0  0  0  0  0  0  0  0
   62.6210   31.4269   50.6607 H   0  0  0  0  0  0  0  0  0  0  0  0
   61.0271   32.2249   50.3239 H   0  0  0  0  0  0  0  0  0  0  0  0
   60.8313   30.2550   46.8202 H   0  0  0  0  0  0  0  0  0  0  0  0
   58.6785   28.9318   48.8607 H   0  0  0  0  0  0  0  0  0  0  0  0
   58.0466   29.0679   47.4449 H   0  0  0  0  0  0  0  0  0  0  0  0
   60.6694   27.3529   48.2397 H   0  0  0  0  0  0  0  0  0  0  0  0
   60.3838   27.2145   46.7167 H   0  0  0  0  0  0  0  0  0  0  0  0
   63.7144   31.1401   47.6424 H   0  0  0  0  0  0  0  0  0  0  0  0
   62.1924   31.1741   46.6348 H   0  0  0  0  0  0  0  0  0  0  0  0
   63.9437   33.3197   47.1290 H   0  0  0  0  0  0  0  0  0  0  0  0
   62.2558   33.3601   46.4128 H   0  0  0  0  0  0  0  0  0  0  0  0
   58.0742   35.3558   45.8956 H   0  0  0  0  0  0  0  0  0  0  0  0
   56.3122   33.9289   44.8597 H   0  0  0  0  0  0  0  0  0  0  0  0
  1  2  1  0
  2  3  1  0
  2  4  1  0
  4  5  1  0
  5  6  2  0
  6  7  1  0
  7  8  2  0
  8  9  1  0
  9 10  1  0
 10 11  2  0
 10 12  1  0
 12 13  1  0
 13 14  1  0
 14 15  1  0
 15 16  1  0
 16 17  2  0
 16 18  1  0
 18 19  1  0
 19 20  1  0
 15 21  1  0
 21 22  1  0
  8 23  1  0
 23 24  2  0
 24  5  1  0
 22 12  1  0
 20 18  1  0
  1 25  1  0
  1 26  1  0
  1 27  1  0
  2 28  1  0
  3 29  1  0
  3 30  1  0
  3 31  1  0
  6 32  1  0
  7 33  1  0
 12 34  1  0
 13 35  1  0
 13 36  1  0
 14 37  1  0
 14 38  1  0
 18 39  1  0
 19 40  1  0
 19 41  1  0
 20 42  1  0
 20 43  1  0
 21 44  1  0
 21 45  1  0
 22 46  1  0
 22 47  1  0
 23 48  1  0
 24 49  1  0
M  CHG  2   9  -1  12   1
M  END
>  <UniqueID>  (11) 
11

>  <SMILES>  (11) 
CC(C)Oc1ccc([N-]C(=O)[NH+]2CCN(C(=O)C3CC3)CC2)cc1

>  <Energy>  (11) 
322.75220098669985

>  <Genealogy>  (11) 
CC(C)Oc1ccc([N-]C(=O)[NH+]2CCN(C(=O)C3CC3)CC2)cc1 (protonated)
CC(C)Oc1ccc([N-]C(=O)[NH+]2CCN(C(=O)C3CC3)CC2)cc1 (3D coordinates assigned)
CC(C)Oc1ccc([N-]C(=O)[NH+]2CCN(C(=O)C3CC3)CC2)cc1 (nonaromatic ring conformer: 322.75220098669985 kcal/mol)

>  <smiles>  (11) 
CC(C)Oc1ccc(NC(=O)N2CCN(C(=O)C3CC3)CC2)cc1

>  <score_type>  (11) 
oracle

>  <origin>  (11) 
adg

>  <m_score__min__energy>  (11) 
-7.5499999999999998

>  <m_primary>  (11) 
energy

$$$$
11:0
     RDKit          3D

 75 80  0  0  0  0  0  0  0  0999 V2000
   59.9800   33.8820   45.1810 C   0  0  0  0  0  0  0  0  0  0  0  0
   58.6800   34.0460   44.5000 N   0  0  0  0  0  0  0  0  0  0  0  0
   57.5490   33.9970   45.4560 C   0  0  0  0  0  0  0  0  0  0  0  0
   57.3910   32.5990   46.0880 C   0  0  0  0  0  0  0  0  0  0  0  0
   57.7360   31.5500   45.1220 N   0  0  0  0  0  0  0  0  0  0  0  0
   58.4050   30.3540   45.5710 C   0  0  0  0  0  0  0  0  0  0  0  0
   57.6570   29.2420   45.9860 C   0  0  0  0  0  0  0  0  0  0  0  0
   58.3100   28.1160   46.4820 C   0  0  0  0  0  0  0  0  0  0  0  0
   59.7080   28.1160   46.6030 C   0  0  0  0  0  0  0  0  0  0  0  0
   60.4330   26.9270   47.1020 C   0  0  0  0  0  0  0  0  0  0  0  0
   61.0080   26.1800   46.2650 O   0  0  0  0  0  0  0  0  0  0  0  0
   60.4770   26.5520   48.4890 N   0  0  0  0  0  0  0  0  0  0  0  0
   60.6530   27.3240   49.5240 C   0  0  0  0  0  0  0  0  0  0  0  0
   61.3500   26.9830   50.6330 N   0  0  0  0  0  0  0  0  0  0  0  0
   61.4300   28.0210   51.5050 C   0  0  0  0  0  0  0  0  0  0  0  0
   60.7530   29.1680   51.1040 C   0  0  0  0  0  0  0  0  0  0  0  0
   60.6990   30.7300   51.9740 S   0  0  0  0  0  0  0  0  0  0  0  0
   58.9080   30.7170   52.1290 C   0  0  0  0  0  0  0  0  0  0  0  0
   58.2670   29.5450   52.5500 C   0  0  0  0  0  0  0  0  0  0  0  0
   56.8880   29.5320   52.7600 C   0  0  0  0  0  0  0  0  0  0  0  0
   56.1400   30.6900   52.5440 C   0  0  0  0  0  0  0  0  0  0  0  0
   56.7650   31.8600   52.1050 C   0  0  0  0  0  0  0  0  0  0  0  0
   58.1460   31.8760   51.8700 C   0  0  0  0  0  0  0  0  0  0  0  0
   58.7700   33.0990   51.3280 C   0  0  0  0  0  0  0  0  0  0  0  0
   58.7180   34.1600   52.0050 O   0  0  0  0  0  0  0  0  0  0  0  0
   59.4250   33.0970   50.0430 N   0  0  0  0  0  0  0  0  0  0  0  0
   58.9020   32.2930   48.9350 C   0  0  0  0  0  0  0  0  0  0  0  0
   60.0660   31.7090   48.1340 C   0  0  0  0  0  0  0  0  0  0  0  0
   61.0270   32.7460   47.6680 N   0  0  0  0  0  0  0  0  0  0  0  0
   62.4470   32.3300   47.4960 C   0  0  0  0  0  0  0  0  0  0  0  0
   63.4570   33.4720   47.3740 C   0  0  0  0  0  0  0  0  0  0  0  0
   64.1500   32.9840   48.6410 C   0  0  0  0  0  0  0  0  0  0  0  0
   63.1460   31.8420   48.7670 C   0  0  0  0  0  0  0  0  0  0  0  0
   60.8970   34.0830   48.2980 C   0  0  0  0  0  0  0  0  0  0  0  0
   60.5400   34.0170   49.7920 C   0  0  0  0  0  0  0  0  0  0  0  0
   60.0610   28.8940   49.6000 S   0  0  0  0  0  0  0  0  0  0  0  0
   60.4250   29.2350   46.1620 C   0  0  0  0  0  0  0  0  0  0  0  0
   59.7690   30.3130   45.6600 N   0  0  0  0  0  0  0  0  0  0  0  0
   57.6320   31.8760   43.6970 C   0  0  0  0  0  0  0  0  0  0  0  0
   58.5260   33.0920   43.3700 C   0  0  0  0  0  0  0  0  0  0  0  0
   59.8283   33.9011   46.2703 H   0  0  0  0  0  0  0  0  0  0  0  0
   60.4276   32.9203   44.8900 H   0  0  0  0  0  0  0  0  0  0  0  0
   60.6525   34.7024   44.8900 H   0  0  0  0  0  0  0  0  0  0  0  0
   57.7272   34.7309   46.2558 H   0  0  0  0  0  0  0  0  0  0  0  0
   56.6258   34.2283   44.9044 H   0  0  0  0  0  0  0  0  0  0  0  0
   58.0569   32.5198   46.9600 H   0  0  0  0  0  0  0  0  0  0  0  0
   56.3429   32.4663   46.3942 H   0  0  0  0  0  0  0  0  0  0  0  0
   56.5591   29.2593   45.9200 H   0  0  0  0  0  0  0  0  0  0  0  0
   57.7311   27.2288   46.7782 H   0  0  0  0  0  0  0  0  0  0  0  0
   61.9856   27.9596   52.4524 H   0  0  0  0  0  0  0  0  0  0  0  0
   58.8542   28.6298   52.7160 H   0  0  0  0  0  0  0  0  0  0  0  0
   56.3908   28.6099   53.0955 H   0  0  0  0  0  0  0  0  0  0  0  0
   55.0542   30.6817   52.7200 H   0  0  0  0  0  0  0  0  0  0  0  0
   56.1708   32.7715   51.9434 H   0  0  0  0  0  0  0  0  0  0  0  0
   58.2854   31.4747   49.3351 H   0  0  0  0  0  0  0  0  0  0  0  0
   58.2884   32.9282   48.2793 H   0  0  0  0  0  0  0  0  0  0  0  0
   60.6050   30.9917   48.7704 H   0  0  0  0  0  0  0  0  0  0  0  0
   59.6426   31.2264   47.2408 H   0  0  0  0  0  0  0  0  0  0  0  0
   62.2875   31.6417   46.6529 H   0  0  0  0  0  0  0  0  0  0  0  0
   64.0836   33.4243   46.4712 H   0  0  0  0  0  0  0  0  0  0  0  0
   63.1154   34.5142   47.2893 H   0  0  0  0  0  0  0  0  0  0  0  0
   65.1870   32.6523   48.4839 H   0  0  0  0  0  0  0  0  0  0  0  0
   64.3105   33.6734   49.4830 H   0  0  0  0  0  0  0  0  0  0  0  0
   63.5906   30.8396   48.6802 H   0  0  0  0  0  0  0  0  0  0  0  0
   62.5781   31.6956   49.6976 H   0  0  0  0  0  0  0  0  0  0  0  0
   61.8540   34.6146   48.1905 H   0  0  0  0  0  0  0  0  0  0  0  0
   60.0742   34.6057   47.7883 H   0  0  0  0  0  0  0  0  0  0  0  0
   61.4204   33.6720   50.3541 H   0  0  0  0  0  0  0  0  0  0  0  0
   60.2347   35.0227   50.1165 H   0  0  0  0  0  0  0  0  0  0  0  0
   61.5233   29.2409   46.2224 H   0  0  0  0  0  0  0  0  0  0  0  0
   60.3350   31.1480   45.3850 H   0  0  0  0  0  0  0  0  0  0  0  0
   57.9590   31.0118   43.1002 H   0  0  0  0  0  0  0  0  0  0  0  0
   56.5867   32.1196   43.4563 H   0  0  0  0  0  0  0  0  0  0  0  0
   59.5236   32.7233   43.0893 H   0  0  0  0  0  0  0  0  0  0  0  0
   58.0340   33.6404   42.5531 H   0  0  0  0  0  0  0  0  0  0  0  0
  1  2  1  0
  2  3  1  0
  3  4  1  0
  4  5  1  0
  5  6  1  0
  6  7  2  0
  7  8  1  0
  8  9  2  0
  9 10  1  0
 10 11  2  0
 10 12  1  0
 12 13  2  3
 13 14  1  0
 14 15  1  0
 15 16  2  0
 16 17  1  0
 17 18  1  0
 18 19  2  0
 19 20  1  0
 20 21  2  0
 21 22  1  0
 22 23  2  0
 23 24  1  0
 24 25  2  0
 24 26  1  0
 26 27  1  0
 27 28  1  0
 28 29  1  0
 29 30  1  0
 30 31  1  0
 31 32  1  0
 32 33  1  0
 29 34  1  0
 34 35  1  0
 16 36  1  0
  9 37  1  0
 37 38  2  0
  5 39  1  0
 39 40  1  0
 40  2  1  0
 38  6  1  0
 36 13  1  0
 23 18  1  0
 35 26  1  0
 33 30  1  0
  1 41  1  0
  1 42  1  0
  1 43  1  0
  3 44  1  0
  3 45  1  0
  4 46  1  0
  4 47  1  0
  7 48  1  0
  8 49  1  0
 15 50  1  0
 19 51  1  0
 20 52  1  0
 21 53  1  0
 22 54  1  0
 27 55  1  0
 27 56  1  0
 28 57  1  0
 28 58  1  0
 30 59  1  0
 31 60  1  0
 31 61  1  0
 32 62  1  0
 32 63  1  0
 33 64  1  0
 33 65  1  0
 34 66  1  0
 34 67  1  0
 35 68  1  0
 35 69  1  0
 37 70  1  0
 38 71  1  0
 39 72  1  0
 39 73  1  0
 40 74  1  0
 40 75  1  0
M  CHG  2  14  -1  38   1
M  END
>  <UniqueID>  (12) 
12

>  <SMILES>  (12) 
CN1CCN(c2ccc(C(=O)N=c3[n-]cc(Sc4ccccc4C(=O)N4CCN(C5CCC5)CC4)s3)c[nH+]2)CC1

>  <Energy>  (12) 
207.64097132522951

>  <Genealogy>  (12) 
CN1CCN(c2ccc(C(=O)N=c3[n-]cc(Sc4ccccc4C(=O)N4CCN(C5CCC5)CC4)s3)c[nH+]2)CC1 (protonated)
CN1CCN(c2ccc(C(=O)N=c3[n-]cc(Sc4ccccc4C(=O)N4CCN(C5CCC5)CC4)s3)c[nH+]2)CC1 (3D coordinates assigned)
CN1CCN(c2ccc(C(=O)N=c3[n-]cc(Sc4ccccc4C(=O)N4CCN(C5CCC5)CC4)s3)c[nH+]2)CC1 (nonaromatic ring conformer: 207.64097132522951 kcal/mol)

>  <smiles>  (12) 
CN1CCN(c2ccc(C(=O)N=c3[nH]cc(Sc4ccccc4C(=O)N4CCN(C5CCC5)CC4)s3)cn2)CC1

>  <score_type>  (12) 
oracle

>  <origin>  (12) 
adg

>  <m_score__min__energy>  (12) 
-10.4

>  <m_primary>  (12) 
energy

$$$$
12:0
     RDKit          3D

 45 47  0  0  0  0  0  0  0  0999 V2000
   55.7130   27.0170   45.9830 O   0  0  0  0  0  0  0  0  0  0  0  0
   56.9670   27.1400   45.9650 C   0  0  0  0  0  0  0  0  0  0  0  0
   57.7360   26.7060   44.7550 C   0  0  0  0  0  0  0  0  0  0  0  0
   57.8200   27.8220   43.7040 C   0  0  0  0  0  0  0  0  0  0  0  0
   57.4330   29.1610   44.2590 C   0  0  0  0  0  0  0  0  0  0  0  0
   56.1700   29.6280   44.3300 N   0  0  0  0  0  0  0  0  0  0  0  0
   56.2490   30.8400   44.8570 N   0  0  0  0  0  0  0  0  0  0  0  0
   57.5620   31.0670   45.0790 C   0  0  0  0  0  0  0  0  0  0  0  0
   58.0950   32.3020   45.6640 C   0  0  0  0  0  0  0  0  0  0  0  0
   57.3420   33.3050   45.7870 O   0  0  0  0  0  0  0  0  0  0  0  0
   59.4640   32.3650   46.0960 N   0  0  0  0  0  0  0  0  0  0  0  0
   60.0210   33.5400   46.7610 C   0  0  0  0  0  0  0  0  0  0  0  0
   61.3370   33.2120   47.3990 C   0  0  0  0  0  0  0  0  0  0  0  0
   61.9460   34.1110   48.2870 C   0  0  0  0  0  0  0  0  0  0  0  0
   63.1660   33.7710   48.8780 C   0  0  0  0  0  0  0  0  0  0  0  0
   63.7630   32.5440   48.5800 C   0  0  0  0  0  0  0  0  0  0  0  0
   63.1290   31.6740   47.6880 C   0  0  0  0  0  0  0  0  0  0  0  0
   61.9420   32.0210   47.1240 N   0  0  0  0  0  0  0  0  0  0  0  0
   58.2940   30.0420   44.7100 O   0  0  0  0  0  0  0  0  0  0  0  0
   57.6550   27.7180   47.0790 N   0  0  0  0  0  0  0  0  0  0  0  0
   59.0970   27.6070   47.2830 C   0  0  0  0  0  0  0  0  0  0  0  0
   59.5720   28.6370   48.2730 C   0  0  0  0  0  0  0  0  0  0  0  0
   60.6760   28.3660   49.0970 C   0  0  0  0  0  0  0  0  0  0  0  0
   61.1260   29.3220   50.0140 C   0  0  0  0  0  0  0  0  0  0  0  0
   60.4650   30.5480   50.1250 C   0  0  0  0  0  0  0  0  0  0  0  0
   59.3470   30.8170   49.3270 C   0  0  0  0  0  0  0  0  0  0  0  0
   58.5030   32.3480   49.4850 Cl  0  0  0  0  0  0  0  0  0  0  0  0
   58.9030   29.8660   48.4020 C   0  0  0  0  0  0  0  0  0  0  0  0
   58.7551   26.4277   45.0614 H   0  0  0  0  0  0  0  0  0  0  0  0
   57.2117   25.8502   44.3047 H   0  0  0  0  0  0  0  0  0  0  0  0
   58.8534   27.8793   43.3315 H   0  0  0  0  0  0  0  0  0  0  0  0
   57.1136   27.5766   42.8972 H   0  0  0  0  0  0  0  0  0  0  0  0
   60.0770   31.5270   45.9780 H   0  0  0  0  0  0  0  0  0  0  0  0
   60.1681   34.3391   46.0195 H   0  0  0  0  0  0  0  0  0  0  0  0
   59.3208   33.8698   47.5427 H   0  0  0  0  0  0  0  0  0  0  0  0
   61.4677   35.0747   48.5161 H   0  0  0  0  0  0  0  0  0  0  0  0
   63.6544   34.4674   49.5755 H   0  0  0  0  0  0  0  0  0  0  0  0
   64.7215   32.2652   49.0421 H   0  0  0  0  0  0  0  0  0  0  0  0
   63.5917   30.7068   47.4421 H   0  0  0  0  0  0  0  0  0  0  0  0
   59.3320   26.6026   47.6652 H   0  0  0  0  0  0  0  0  0  0  0  0
   59.6056   27.7767   46.3225 H   0  0  0  0  0  0  0  0  0  0  0  0
   61.1901   27.3965   49.0212 H   0  0  0  0  0  0  0  0  0  0  0  0
   61.9997   29.1086   50.6473 H   0  0  0  0  0  0  0  0  0  0  0  0
   60.8237   31.3027   50.8404 H   0  0  0  0  0  0  0  0  0  0  0  0
   58.0266   30.0812   47.7731 H   0  0  0  0  0  0  0  0  0  0  0  0
  1  2  2  0
  2  3  1  0
  3  4  1  0
  4  5  1  0
  5  6  2  0
  6  7  1  0
  7  8  2  0
  8  9  1  0
  9 10  2  0
  9 11  1  0
 11 12  1  0
 12 13  1  0
 13 14  2  0
 14 15  1  0
 15 16  2  0
 16 17  1  0
 17 18  2  0
  8 19  1  0
  2 20  1  0
 20 21  1  0
 21 22  1  0
 22 23  2  0
 23 24  1  0
 24 25  2  0
 25 26  1  0
 26 27  1  0
 26 28  2  0
 19  5  1  0
 28 22  1  0
 18 13  1  0
  3 29  1  0
  3 30  1  0
  4 31  1  0
  4 32  1  0
 11 33  1  0
 12 34  1  0
 12 35  1  0
 14 36  1  0
 15 37  1  0
 16 38  1  0
 17 39  1  0
 21 40  1  0
 21 41  1  0
 23 42  1  0
 24 43  1  0
 25 44  1  0
 28 45  1  0
M  CHG  1  20  -1
M  END
>  <UniqueID>  (13) 
13

>  <SMILES>  (13) 
O=C(CCc1nnc(C(=O)NCc2ccccn2)o1)[N-]Cc1cccc(Cl)c1

>  <Energy>  (13) 
72.9333434780714

>  <Genealogy>  (13) 
O=C(CCc1nnc(C(=O)NCc2ccccn2)o1)[N-]Cc1cccc(Cl)c1 (protonated)
O=C(CCc1nnc(C(=O)NCc2ccccn2)o1)[N-]Cc1cccc(Cl)c1 (3D coordinates assigned)
O=C(CCc1nnc(C(=O)NCc2ccccn2)o1)[N-]Cc1cccc(Cl)c1 (optimized conformer: 72.9333434780714 kcal/mol)

>  <smiles>  (13) 
O=C(CCc1nnc(C(=O)NCc2ccccn2)o1)NCc1cccc(Cl)c1

>  <score_type>  (13) 
oracle

>  <origin>  (13) 
adg

>  <m_score__min__energy>  (13) 
-10.300000000000001

>  <m_primary>  (13) 
energy

$$$$
13:0
     RDKit          3D

 50 52  0  0  0  0  0  0  0  0999 V2000
   56.2690   29.7260   42.7880 C   0  0  0  0  0  0  0  0  0  0  0  0
   57.1140   29.0680   43.5840 C   0  0  0  0  0  0  0  0  0  0  0  0
   57.0560   29.2280   45.0780 C   0  0  0  0  0  0  0  0  0  0  0  0
   58.4110   29.2630   45.6520 N   0  0  0  0  0  0  0  0  0  0  0  0
   59.3680   30.2800   45.1810 C   0  0  0  0  0  0  0  0  0  0  0  0
   58.8150   31.6710   45.3640 C   0  0  0  0  0  0  0  0  0  0  0  0
   58.0180   32.2480   44.3630 C   0  0  0  0  0  0  0  0  0  0  0  0
   57.5020   33.5340   44.5280 C   0  0  0  0  0  0  0  0  0  0  0  0
   57.7820   34.2600   45.6880 C   0  0  0  0  0  0  0  0  0  0  0  0
   58.5930   33.7020   46.6940 C   0  0  0  0  0  0  0  0  0  0  0  0
   58.9080   34.3920   47.8740 O   0  0  0  0  0  0  0  0  0  0  0  0
   60.1240   34.2320   48.5980 C   0  0  0  0  0  0  0  0  0  0  0  0
   59.1100   32.4130   46.5190 C   0  0  0  0  0  0  0  0  0  0  0  0
   58.7850   28.2540   46.6260 C   0  0  0  0  0  0  0  0  0  0  0  0
   60.0050   28.0790   46.8980 O   0  0  0  0  0  0  0  0  0  0  0  0
   57.7640   27.3610   47.2870 C   0  0  0  0  0  0  0  0  0  0  0  0
   57.4530   26.2020   46.4490 N   0  0  0  0  0  0  0  0  0  0  0  0
   56.2690   25.9290   45.8590 C   0  0  0  0  0  0  0  0  0  0  0  0
   55.1270   26.7120   45.9930 O   0  0  0  0  0  0  0  0  0  0  0  0
   56.3600   24.7780   45.1030 C   0  0  0  0  0  0  0  0  0  0  0  0
   57.6520   24.3340   45.2210 C   0  0  0  0  0  0  0  0  0  0  0  0
   58.3050   25.2290   46.0450 C   0  0  0  0  0  0  0  0  0  0  0  0
   59.6520   25.1520   46.3960 O   0  0  0  0  0  0  0  0  0  0  0  0
   58.1920   23.1280   44.5240 C   0  0  0  0  0  0  0  0  0  0  0  0
   57.1180   22.4110   43.7290 C   0  0  0  0  0  0  0  0  0  0  0  0
   55.8440   22.8500   43.6120 C   0  0  0  0  0  0  0  0  0  0  0  0
   55.3190   24.1150   44.2600 C   0  0  0  0  0  0  0  0  0  0  0  0
   56.3268   29.5961   41.6972 H   0  0  0  0  0  0  0  0  0  0  0  0
   55.5146   30.3984   43.2226 H   0  0  0  0  0  0  0  0  0  0  0  0
   57.8650   28.3979   43.1402 H   0  0  0  0  0  0  0  0  0  0  0  0
   56.5371   30.1671   45.3204 H   0  0  0  0  0  0  0  0  0  0  0  0
   56.5142   28.3707   45.5041 H   0  0  0  0  0  0  0  0  0  0  0  0
   60.3025   30.1866   45.7536 H   0  0  0  0  0  0  0  0  0  0  0  0
   59.5536   30.1157   44.1093 H   0  0  0  0  0  0  0  0  0  0  0  0
   57.7992   31.6839   43.4443 H   0  0  0  0  0  0  0  0  0  0  0  0
   56.8728   33.9774   43.7421 H   0  0  0  0  0  0  0  0  0  0  0  0
   57.3674   35.2709   45.8157 H   0  0  0  0  0  0  0  0  0  0  0  0
   59.9144   34.2596   49.6775 H   0  0  0  0  0  0  0  0  0  0  0  0
   60.5812   33.2659   48.3378 H   0  0  0  0  0  0  0  0  0  0  0  0
   60.8156   35.0469   48.3378 H   0  0  0  0  0  0  0  0  0  0  0  0
   59.7551   31.9761   47.2956 H   0  0  0  0  0  0  0  0  0  0  0  0
   58.1637   27.0106   48.2500 H   0  0  0  0  0  0  0  0  0  0  0  0
   56.8407   27.9396   47.4378 H   0  0  0  0  0  0  0  0  0  0  0  0
   60.2200   25.9820   46.5050 H   0  0  0  0  0  0  0  0  0  0  0  0
   58.9933   23.4414   43.8386 H   0  0  0  0  0  0  0  0  0  0  0  0
   58.5744   22.4339   45.2869 H   0  0  0  0  0  0  0  0  0  0  0  0
   57.3917   21.4771   43.2163 H   0  0  0  0  0  0  0  0  0  0  0  0
   55.1456   22.2514   43.0088 H   0  0  0  0  0  0  0  0  0  0  0  0
   55.0007   24.8134   43.4720 H   0  0  0  0  0  0  0  0  0  0  0  0
   54.4746   23.8420   44.9099 H   0  0  0  0  0  0  0  0  0  0  0  0
  1  2  2  0
  2  3  1  0
  3  4  1  0
  4  5  1  0
  5  6  1  0
  6  7  2  0
  7  8  1  0
  8  9  2  0
  9 10  1  0
 10 11  1  0
 11 12  1  0
 10 13  2  0
  4 14  1  0
 14 15  2  0
 14 16  1  0
 16 17  1  0
 17 18  1  0
 18 19  1  0
 18 20  2  0
 20 21  1  0
 21 22  2  0
 22 23  1  0
 21 24  1  0
 24 25  1  0
 25 26  2  0
 26 27  1  0
 13  6  1  0
 22 17  1  0
 27 20  1  0
  1 28  1  0
  1 29  1  0
  2 30  1  0
  3 31  1  0
  3 32  1  0
  5 33  1  0
  5 34  1  0
  7 35  1  0
  8 36  1  0
  9 37  1  0
 12 38  1  0
 12 39  1  0
 12 40  1  0
 13 41  1  0
 16 42  1  0
 16 43  1  0
 23 44  1  0
 24 45  1  0
 24 46  1  0
 25 47  1  0
 26 48  1  0
 27 49  1  0
 27 50  1  0
M  CHG  1  19  -1
M  END
>  <UniqueID>  (14) 
14

>  <SMILES>  (14) 
C=CCN(Cc1cccc(OC)c1)C(=O)Cn1c([O-])c2c(c1O)CC=CC2

>  <Energy>  (14) 
77.76473379671607

>  <Genealogy>  (14) 
C=CCN(Cc1cccc(OC)c1)C(=O)Cn1c([O-])c2c(c1O)CC=CC2 (protonated)
C=CCN(Cc1cccc(OC)c1)C(=O)Cn1c([O-])c2c(c1O)CC=CC2 (3D coordinates assigned)
C=CCN(Cc1cccc(OC)c1)C(=O)Cn1c([O-])c2c(c1O)CC=CC2 (nonaromatic ring conformer: 77.76473379671607 kcal/mol)

>  <smiles>  (14) 
C=CCN(Cc1cccc(OC)c1)C(=O)Cn1c(O)c2c(c1O)CC=CC2

>  <score_type>  (14) 
oracle

>  <origin>  (14) 
adg

>  <m_score__min__energy>  (14) 
-11.460000000000001

>  <m_primary>  (14) 
energy

$$$$
14:0
     RDKit          3D

 60 62  0  0  0  0  0  0  0  0999 V2000
   58.0180   31.1990   43.1640 O   0  0  0  0  0  0  0  0  0  0  0  0
   57.6790   31.1890   44.3790 C   0  0  0  0  0  0  0  0  0  0  0  0
   57.0200   32.3990   44.9680 C   0  0  0  0  0  0  0  0  0  0  0  0
   57.9660   33.1050   45.9010 C   0  0  0  0  0  0  0  0  0  0  0  0
   58.6170   34.2840   45.5010 C   0  0  0  0  0  0  0  0  0  0  0  0
   59.4700   34.9540   46.3850 C   0  0  0  0  0  0  0  0  0  0  0  0
   60.0960   36.0910   45.9960 F   0  0  0  0  0  0  0  0  0  0  0  0
   59.6740   34.4530   47.6750 C   0  0  0  0  0  0  0  0  0  0  0  0
   59.0260   33.2850   48.0810 C   0  0  0  0  0  0  0  0  0  0  0  0
   59.2220   32.8010   49.3330 F   0  0  0  0  0  0  0  0  0  0  0  0
   58.1720   32.6140   47.2000 C   0  0  0  0  0  0  0  0  0  0  0  0
   57.9420   30.0350   45.1960 N   0  0  0  0  0  0  0  0  0  0  0  0
   58.6760   28.8680   44.6950 C   0  0  1  0  0  0  0  0  0  0  0  0
   59.9370   28.5850   45.5400 C   0  0  0  0  0  0  0  0  0  0  0  0
   59.7080   28.7620   47.3110 S   0  0  0  0  0  0  0  0  0  0  0  0
   58.2790   29.1210   47.6080 O   0  0  0  0  0  0  0  0  0  0  0  0
   60.0450   27.4880   48.0310 O   0  0  0  0  0  0  0  0  0  0  0  0
   60.7650   30.0430   47.8950 C   0  0  0  0  0  0  0  0  0  0  0  0
   61.4040   30.9090   46.9940 C   0  0  0  0  0  0  0  0  0  0  0  0
   62.2310   31.9320   47.4690 C   0  0  0  0  0  0  0  0  0  0  0  0
   62.4280   32.0940   48.8440 C   0  0  0  0  0  0  0  0  0  0  0  0
   61.8050   31.2230   49.7450 C   0  0  0  0  0  0  0  0  0  0  0  0
   60.9770   30.2000   49.2730 C   0  0  0  0  0  0  0  0  0  0  0  0
   57.7810   27.6600   44.5810 C   0  0  0  0  0  0  0  0  0  0  0  0
   57.8690   26.9270   43.5570 O   0  0  0  0  0  0  0  0  0  0  0  0
   56.8420   27.3390   45.6130 N   0  0  0  0  0  0  0  0  0  0  0  0
   56.4210   25.9780   45.9380 C   0  0  0  0  0  0  0  0  0  0  0  0
   57.6150   25.0170   45.9620 C   0  0  0  0  0  0  0  0  0  0  0  0
   57.6260   24.1580   44.7580 N   0  0  0  0  0  0  0  0  0  0  0  0
   57.9950   22.7530   45.0650 C   0  0  0  0  0  0  0  0  0  0  0  0
   56.8100   21.7870   44.8910 C   0  0  0  0  0  0  0  0  0  0  0  0
   56.2800   21.8120   43.5750 O   0  0  0  0  0  0  0  0  0  0  0  0
   56.2070   23.1170   43.0100 C   0  0  0  0  0  0  0  0  0  0  0  0
   56.3500   24.2670   44.0260 C   0  0  0  0  0  0  0  0  0  0  0  0
   56.7294   33.0845   44.1583 H   0  0  0  0  0  0  0  0  0  0  0  0
   56.1296   32.0836   45.5316 H   0  0  0  0  0  0  0  0  0  0  0  0
   58.4554   34.6822   44.4884 H   0  0  0  0  0  0  0  0  0  0  0  0
   60.3451   34.9794   48.3696 H   0  0  0  0  0  0  0  0  0  0  0  0
   57.6593   31.6972   47.5264 H   0  0  0  0  0  0  0  0  0  0  0  0
   57.7110   30.0930   46.2140 H   0  0  0  0  0  0  0  0  0  0  0  0
   59.0228   29.1042   43.6782 H   0  0  0  0  0  0  0  0  0  0  0  0
   60.2606   27.5533   45.3377 H   0  0  0  0  0  0  0  0  0  0  0  0
   60.6832   29.3380   45.2464 H   0  0  0  0  0  0  0  0  0  0  0  0
   61.2540   30.7828   45.9116 H   0  0  0  0  0  0  0  0  0  0  0  0
   62.7275   32.6105   46.7596 H   0  0  0  0  0  0  0  0  0  0  0  0
   63.0715   32.9046   49.2167 H   0  0  0  0  0  0  0  0  0  0  0  0
   61.9670   31.3434   50.8263 H   0  0  0  0  0  0  0  0  0  0  0  0
   60.4904   29.5163   49.9841 H   0  0  0  0  0  0  0  0  0  0  0  0
   55.9410   25.9780   46.9277 H   0  0  0  0  0  0  0  0  0  0  0  0
   55.7169   25.6380   45.1643 H   0  0  0  0  0  0  0  0  0  0  0  0
   58.5466   25.6010   45.9962 H   0  0  0  0  0  0  0  0  0  0  0  0
   57.5311   24.3747   46.8510 H   0  0  0  0  0  0  0  0  0  0  0  0
   58.8055   22.4442   44.3885 H   0  0  0  0  0  0  0  0  0  0  0  0
   58.3122   22.7105   46.1174 H   0  0  0  0  0  0  0  0  0  0  0  0
   57.1512   20.7655   45.1150 H   0  0  0  0  0  0  0  0  0  0  0  0
   56.0135   22.1061   45.5793 H   0  0  0  0  0  0  0  0  0  0  0  0
   57.0121   23.2142   42.2668 H   0  0  0  0  0  0  0  0  0  0  0  0
   55.2017   23.2110   42.5735 H   0  0  0  0  0  0  0  0  0  0  0  0
   56.3212   25.2277   43.4909 H   0  0  0  0  0  0  0  0  0  0  0  0
   55.5215   24.2079   44.7472 H   0  0  0  0  0  0  0  0  0  0  0  0
  1  2  2  0
  2  3  1  0
  3  4  1  0
  4  5  2  0
  5  6  1  0
  6  7  1  0
  6  8  2  0
  8  9  1  0
  9 10  1  0
  9 11  2  0
  2 12  1  0
 12 13  1  0
 13 14  1  0
 14 15  1  0
 15 16  2  0
 15 17  2  0
 15 18  1  0
 18 19  2  0
 19 20  1  0
 20 21  2  0
 21 22  1  0
 22 23  2  0
 13 24  1  0
 24 25  2  0
 24 26  1  0
 26 27  1  0
 27 28  1  0
 28 29  1  0
 29 30  1  0
 30 31  1  0
 31 32  1  0
 32 33  1  0
 33 34  1  0
 11  4  1  0
 23 18  1  0
 34 29  1  0
  3 35  1  0
  3 36  1  0
  5 37  1  0
  8 38  1  0
 11 39  1  0
 12 40  1  0
 13 41  1  6
 14 42  1  0
 14 43  1  0
 19 44  1  0
 20 45  1  0
 21 46  1  0
 22 47  1  0
 23 48  1  0
 27 49  1  0
 27 50  1  0
 28 51  1  0
 28 52  1  0
 30 53  1  0
 30 54  1  0
 31 55  1  0
 31 56  1  0
 33 57  1  0
 33 58  1  0
 34 59  1  0
 34 60  1  0
M  CHG  1  26  -1
M  END
>  <UniqueID>  (15) 
15

>  <SMILES>  (15) 
O=C(Cc1cc(F)cc(F)c1)N[C@@H](CS(=O)(=O)c1ccccc1)C(=O)[N-]CCN1CCOCC1

>  <Energy>  (15) 
63.769900253958454

>  <Genealogy>  (15) 
O=C(Cc1cc(F)cc(F)c1)NC(CS(=O)(=O)c1ccccc1)C(=O)[N-]CCN1CCOCC1 (protonated)
O=C(Cc1cc(F)cc(F)c1)N[C@@H](CS(=O)(=O)c1ccccc1)C(=O)[N-]CCN1CCOCC1 (chirality)
O=C(Cc1cc(F)cc(F)c1)N[C@@H](CS(=O)(=O)c1ccccc1)C(=O)[N-]CCN1CCOCC1 (3D coordinates assigned)
O=C(Cc1cc(F)cc(F)c1)N[C@@H](CS(=O)(=O)c1ccccc1)C(=O)[N-]CCN1CCOCC1 (nonaromatic ring conformer: 63.769900253958454 kcal/mol)

>  <smiles>  (15) 
O=C(Cc1cc(F)cc(F)c1)NC(CS(=O)(=O)c1ccccc1)C(=O)NCCN1CCOCC1

>  <score_type>  (15) 
oracle

>  <origin>  (15) 
adg

>  <m_score__min__energy>  (15) 
-11.42

>  <m_primary>  (15) 
energy

$$$$
15:0
     RDKit          3D

 47 49  0  0  0  0  0  0  0  0999 V2000
   57.5890   25.7730   47.1210 C   0  0  0  0  0  0  0  0  0  0  0  0
   57.7180   27.2000   46.6420 C   0  0  0  0  0  0  0  0  0  0  0  0
   56.6670   27.7820   45.9030 C   0  0  0  0  0  0  0  0  0  0  0  0
   55.5040   27.0680   45.6310 O   0  0  0  0  0  0  0  0  0  0  0  0
   56.7770   29.0870   45.4320 C   0  0  0  0  0  0  0  0  0  0  0  0
   57.9260   29.8310   45.6770 C   0  0  0  0  0  0  0  0  0  0  0  0
   58.9840   29.2930   46.4220 C   0  0  0  0  0  0  0  0  0  0  0  0
   60.2040   30.1180   46.6140 C   0  0  0  0  0  0  0  0  0  0  0  0
   61.2240   29.8970   45.9020 O   0  0  0  0  0  0  0  0  0  0  0  0
   60.2170   31.1890   47.5720 N   0  0  0  0  0  0  0  0  0  0  0  0
   61.3970   31.9520   47.8770 C   0  0  0  0  0  0  0  0  0  0  0  0
   62.6360   31.3000   48.0210 C   0  0  0  0  0  0  0  0  0  0  0  0
   63.7760   32.0170   48.3890 C   0  0  0  0  0  0  0  0  0  0  0  0
   63.6960   33.3900   48.6130 C   0  0  0  0  0  0  0  0  0  0  0  0
   62.4740   34.0520   48.4720 C   0  0  0  0  0  0  0  0  0  0  0  0
   61.3110   33.3430   48.1200 C   0  0  0  0  0  0  0  0  0  0  0  0
   60.0370   34.0820   47.9350 C   0  0  0  0  0  0  0  0  0  0  0  0
   59.6720   34.9110   48.8130 O   0  0  0  0  0  0  0  0  0  0  0  0
   59.2070   33.8720   46.7790 N   0  0  0  0  0  0  0  0  0  0  0  0
   57.7570   33.7300   46.9430 C   0  0  0  0  0  0  0  0  0  0  0  0
   57.0340   34.2170   45.6830 C   0  0  0  0  0  0  0  0  0  0  0  0
   57.5790   33.6160   44.5250 O   0  0  0  0  0  0  0  0  0  0  0  0
   58.9140   34.0500   44.3490 C   0  0  0  0  0  0  0  0  0  0  0  0
   59.8010   33.5250   45.4830 C   0  0  0  0  0  0  0  0  0  0  0  0
   58.8720   27.9770   46.9500 C   0  0  0  0  0  0  0  0  0  0  0  0
   59.9800   27.4040   47.8110 C   0  0  0  0  0  0  0  0  0  0  0  0
   57.5873   25.7542   48.2208 H   0  0  0  0  0  0  0  0  0  0  0  0
   56.6484   25.3438   46.7455 H   0  0  0  0  0  0  0  0  0  0  0  0
   58.4374   25.1821   46.7455 H   0  0  0  0  0  0  0  0  0  0  0  0
   55.9489   29.5332   44.8617 H   0  0  0  0  0  0  0  0  0  0  0  0
   58.0054   30.8543   45.2812 H   0  0  0  0  0  0  0  0  0  0  0  0
   59.3330   31.4360   48.0710 H   0  0  0  0  0  0  0  0  0  0  0  0
   62.7067   30.2169   47.8422 H   0  0  0  0  0  0  0  0  0  0  0  0
   64.7388   31.4973   48.5023 H   0  0  0  0  0  0  0  0  0  0  0  0
   64.5959   33.9531   48.9011 H   0  0  0  0  0  0  0  0  0  0  0  0
   62.4206   35.1381   48.6378 H   0  0  0  0  0  0  0  0  0  0  0  0
   57.5125   32.6717   47.1166 H   0  0  0  0  0  0  0  0  0  0  0  0
   57.4310   34.3354   47.8016 H   0  0  0  0  0  0  0  0  0  0  0  0
   55.9678   33.9567   45.7561 H   0  0  0  0  0  0  0  0  0  0  0  0
   57.1586   35.3071   45.6052 H   0  0  0  0  0  0  0  0  0  0  0  0
   59.2938   33.6732   43.3879 H   0  0  0  0  0  0  0  0  0  0  0  0
   58.9357   35.1497   44.3594 H   0  0  0  0  0  0  0  0  0  0  0  0
   59.8882   32.4314   45.4022 H   0  0  0  0  0  0  0  0  0  0  0  0
   60.7983   33.9827   45.4060 H   0  0  0  0  0  0  0  0  0  0  0  0
   59.7247   27.5360   48.8728 H   0  0  0  0  0  0  0  0  0  0  0  0
   60.0971   26.3323   47.5925 H   0  0  0  0  0  0  0  0  0  0  0  0
   60.9223   27.9278   47.5925 H   0  0  0  0  0  0  0  0  0  0  0  0
  1  2  1  0
  2  3  2  0
  3  4  1  0
  3  5  1  0
  5  6  2  0
  6  7  1  0
  7  8  1  0
  8  9  2  0
  8 10  1  0
 10 11  1  0
 11 12  2  0
 12 13  1  0
 13 14  2  0
 14 15  1  0
 15 16  2  0
 16 17  1  0
 17 18  2  0
 17 19  1  0
 19 20  1  0
 20 21  1  0
 21 22  1  0
 22 23  1  0
 23 24  1  0
  7 25  2  0
 25 26  1  0
 25  2  1  0
 16 11  1  0
 24 19  1  0
  1 27  1  0
  1 28  1  0
  1 29  1  0
  5 30  1  0
  6 31  1  0
 10 32  1  0
 12 33  1  0
 13 34  1  0
 14 35  1  0
 15 36  1  0
 20 37  1  0
 20 38  1  0
 21 39  1  0
 21 40  1  0
 23 41  1  0
 23 42  1  0
 24 43  1  0
 24 44  1  0
 26 45  1  0
 26 46  1  0
 26 47  1  0
M  CHG  1   4  -1
M  END
>  <UniqueID>  (16) 
16

>  <SMILES>  (16) 
Cc1c([O-])ccc(C(=O)Nc2ccccc2C(=O)N2CCOCC2)c1C

>  <Energy>  (16) 
69.22878427905316

>  <Genealogy>  (16) 
Cc1c([O-])ccc(C(=O)Nc2ccccc2C(=O)N2CCOCC2)c1C (protonated)
Cc1c([O-])ccc(C(=O)Nc2ccccc2C(=O)N2CCOCC2)c1C (3D coordinates assigned)
Cc1c([O-])ccc(C(=O)Nc2ccccc2C(=O)N2CCOCC2)c1C (nonaromatic ring conformer: 69.22878427905316 kcal/mol)

>  <smiles>  (16) 
Cc1c(O)ccc(C(=O)Nc2ccccc2C(=O)N2CCOCC2)c1C

>  <score_type>  (16) 
oracle

>  <origin>  (16) 
adg

>  <m_score__min__energy>  (16) 
-10.859999999999999

>  <m_primary>  (16) 
energy

$$$$
16:0
     RDKit          3D

 50 53  0  0  0  0  0  0  0  0999 V2000
   55.3040   23.5110   46.6870 C   0  0  0  0  0  0  0  0  0  0  0  0
   56.3230   24.2550   46.2650 C   0  0  0  0  0  0  0  0  0  0  0  0
   57.9710   23.6080   46.0260 S   0  0  0  0  0  0  0  0  0  0  0  0
   58.4750   25.2590   45.5060 C   0  0  0  0  0  0  0  0  0  0  0  0
   57.5280   26.1990   45.5120 C   0  0  0  0  0  0  0  0  0  0  0  0
   57.7870   27.6040   45.1150 C   0  0  0  0  0  0  0  0  0  0  0  0
   59.0260   28.1920   44.8600 C   0  0  0  0  0  0  0  0  0  0  0  0
   58.9420   29.5400   44.4890 C   0  0  0  0  0  0  0  0  0  0  0  0
   57.6430   30.0380   44.4650 C   0  0  0  0  0  0  0  0  0  0  0  0
   57.2700   31.3990   44.0230 C   0  0  0  0  0  0  0  0  0  0  0  0
   57.5250   31.7330   42.8370 O   0  0  0  0  0  0  0  0  0  0  0  0
   56.6470   32.3690   44.8790 N   0  0  0  0  0  0  0  0  0  0  0  0
   57.2480   33.5710   45.4580 C   0  0  2  0  0  0  0  0  0  0  0  0
   58.6070   33.8530   44.7770 C   0  0  0  0  0  0  0  0  0  0  0  0
   59.6000   34.4850   45.7610 C   0  0  0  0  0  0  0  0  0  0  0  0
   59.9180   33.5730   46.8920 N   0  0  1  0  0  0  0  0  0  0  0  0
   60.4820   34.3570   48.0190 C   0  0  0  0  0  0  0  0  0  0  0  0
   61.8760   33.9030   48.3900 C   0  0  0  0  0  0  0  0  0  0  0  0
   62.7660   33.4430   47.4040 C   0  0  0  0  0  0  0  0  0  0  0  0
   64.0550   33.0300   47.7550 C   0  0  0  0  0  0  0  0  0  0  0  0
   64.4640   33.0680   49.0900 C   0  0  0  0  0  0  0  0  0  0  0  0
   63.5840   33.5190   50.0780 C   0  0  0  0  0  0  0  0  0  0  0  0
   62.2950   33.9340   49.7310 C   0  0  0  0  0  0  0  0  0  0  0  0
   58.7570   32.7360   47.3240 C   0  0  0  0  0  0  0  0  0  0  0  0
   57.4030   33.3730   46.9810 C   0  0  0  0  0  0  0  0  0  0  0  0
   56.6040   28.7780   44.8650 S   0  0  0  0  0  0  0  0  0  0  0  0
   56.2370   25.6680   45.9400 C   0  0  0  0  0  0  0  0  0  0  0  0
   55.1710   26.3370   46.0000 O   0  0  0  0  0  0  0  0  0  0  0  0
   54.3095   23.9630   46.8165 H   0  0  0  0  0  0  0  0  0  0  0  0
   55.4559   22.4439   46.9065 H   0  0  0  0  0  0  0  0  0  0  0  0
   59.5083   25.4797   45.2000 H   0  0  0  0  0  0  0  0  0  0  0  0
   59.9788   27.6485   44.9425 H   0  0  0  0  0  0  0  0  0  0  0  0
   59.8229   30.1496   44.2393 H   0  0  0  0  0  0  0  0  0  0  0  0
   56.6010   34.4439   45.2868 H   0  0  0  0  0  0  0  0  0  0  0  0
   59.0248   32.9062   44.4041 H   0  0  0  0  0  0  0  0  0  0  0  0
   58.4419   34.5572   43.9482 H   0  0  0  0  0  0  0  0  0  0  0  0
   60.5300   34.7229   45.2239 H   0  0  0  0  0  0  0  0  0  0  0  0
   59.1375   35.3929   46.1754 H   0  0  0  0  0  0  0  0  0  0  0  0
   60.6620   32.9200   46.5460 H   0  0  0  0  0  0  0  0  0  0  0  0
   60.5204   35.4173   47.7286 H   0  0  0  0  0  0  0  0  0  0  0  0
   59.8333   34.2046   48.8942 H   0  0  0  0  0  0  0  0  0  0  0  0
   62.4471   33.4078   46.3518 H   0  0  0  0  0  0  0  0  0  0  0  0
   64.7482   32.6745   46.9784 H   0  0  0  0  0  0  0  0  0  0  0  0
   65.4786   32.7430   49.3639 H   0  0  0  0  0  0  0  0  0  0  0  0
   63.9061   33.5474   51.1294 H   0  0  0  0  0  0  0  0  0  0  0  0
   61.6050   34.2867   50.5118 H   0  0  0  0  0  0  0  0  0  0  0  0
   58.8226   31.7590   46.8229 H   0  0  0  0  0  0  0  0  0  0  0  0
   58.8088   32.6381   48.4184 H   0  0  0  0  0  0  0  0  0  0  0  0
   56.5966   32.7173   47.3413 H   0  0  0  0  0  0  0  0  0  0  0  0
   57.3489   34.3582   47.4672 H   0  0  0  0  0  0  0  0  0  0  0  0
  1  2  2  0
  2  3  1  0
  3  4  1  0
  4  5  2  0
  5  6  1  0
  6  7  2  0
  7  8  1  0
  8  9  2  0
  9 10  1  0
 10 11  2  0
 10 12  1  0
 12 13  1  0
 13 14  1  0
 14 15  1  0
 15 16  1  0
 16 17  1  0
 17 18  1  0
 18 19  2  0
 19 20  1  0
 20 21  2  0
 21 22  1  0
 22 23  2  0
 16 24  1  0
 24 25  1  0
  9 26  1  0
  5 27  1  0
 27 28  2  0
 27  2  1  0
 26  6  1  0
 25 13  1  0
 23 18  1  0
  1 29  1  0
  1 30  1  0
  4 31  1  0
  7 32  1  0
  8 33  1  0
 13 34  1  1
 14 35  1  0
 14 36  1  0
 15 37  1  0
 15 38  1  0
 16 39  1  6
 17 40  1  0
 17 41  1  0
 19 42  1  0
 20 43  1  0
 21 44  1  0
 22 45  1  0
 23 46  1  0
 24 47  1  0
 24 48  1  0
 25 49  1  0
 25 50  1  0
M  CHG  2  12  -1  16   1
M  END
>  <UniqueID>  (17) 
17

>  <SMILES>  (17) 
C=C1SC=C(c2ccc(C(=O)[N-]C3CC[NH+](Cc4ccccc4)CC3)s2)C1=O

>  <Energy>  (17) 
111.82874172441086

>  <Genealogy>  (17) 
C=C1SC=C(c2ccc(C(=O)[N-]C3CC[NH+](Cc4ccccc4)CC3)s2)C1=O (protonated)
C=C1SC=C(c2ccc(C(=O)[N-]C3CC[NH+](Cc4ccccc4)CC3)s2)C1=O (3D coordinates assigned)
C=C1SC=C(c2ccc(C(=O)[N-]C3CC[NH+](Cc4ccccc4)CC3)s2)C1=O (nonaromatic ring conformer: 111.82874172441086 kcal/mol)

>  <smiles>  (17) 
C=C1SC=C(c2ccc(C(=O)NC3CCN(Cc4ccccc4)CC3)s2)C1=O

>  <score_type>  (17) 
oracle

>  <origin>  (17) 
adg

>  <m_score__min__energy>  (17) 
-9.9700000000000006

>  <m_primary>  (17) 
energy

$$$$
17:0
     RDKit          3D

 58 62  0  0  0  0  0  0  0  0999 V2000
   59.9734   29.8287   47.4986 H   0  0  0  0  0  0  0  0  0  0  0  0
   59.5560   28.9560   46.9750 C   0  0  0  0  0  0  0  0  0  0  0  0
   59.9533   27.9506   47.1785 H   0  0  0  0  0  0  0  0  0  0  0  0
   58.5610   29.1180   46.0870 C   0  0  0  0  0  0  0  0  0  0  0  0
   57.9350   28.1100   45.3500 C   0  0  0  0  0  0  0  0  0  0  0  0
   58.1930   26.7880   45.3940 C   0  0  0  0  0  0  0  0  0  0  0  0
   59.0261   26.4040   44.7869 H   0  0  0  0  0  0  0  0  0  0  0  0
   57.4280   25.8260   46.2050 C   0  0  0  0  0  0  0  0  0  0  0  0
   57.9670   24.7170   46.7390 N   0  0  0  0  0  0  0  0  0  0  0  0
   56.9080   24.0880   47.2930 C   0  0  0  0  0  0  0  0  0  0  0  0
   57.0160   22.9950   47.9100 O   0  0  0  0  0  0  0  0  0  0  0  0
   55.7240   24.7140   47.1230 N   0  0  0  0  0  0  0  0  0  0  0  0
   56.0670   25.8060   46.4210 C   0  0  0  0  0  0  0  0  0  0  0  0
   55.1470   26.7340   45.9470 O   0  0  0  0  0  0  0  0  0  0  0  0
   56.9720   28.7360   44.5710 C   0  0  0  0  0  0  0  0  0  0  0  0
   56.2752   28.2507   43.8717 H   0  0  0  0  0  0  0  0  0  0  0  0
   57.0590   30.0880   44.8450 C   0  0  0  0  0  0  0  0  0  0  0  0
   56.2520   31.1500   44.1620 C   0  0  0  0  0  0  0  0  0  0  0  0
   55.7686   31.7862   44.9180 H   0  0  0  0  0  0  0  0  0  0  0  0
   56.9126   31.7651   43.5333 H   0  0  0  0  0  0  0  0  0  0  0  0
   55.4824   30.6783   43.5333 H   0  0  0  0  0  0  0  0  0  0  0  0
   58.0200   30.3220   45.7650 N   0  0  0  0  0  0  0  0  0  0  0  0
   58.5090   31.6190   46.1490 C   0  0  0  0  0  0  0  0  0  0  0  0
   58.3900   32.7170   45.2880 C   0  0  0  0  0  0  0  0  0  0  0  0
   57.9166   32.5946   44.3026 H   0  0  0  0  0  0  0  0  0  0  0  0
   58.8730   33.9690   45.6810 C   0  0  0  0  0  0  0  0  0  0  0  0
   58.7701   34.8322   45.0070 H   0  0  0  0  0  0  0  0  0  0  0  0
   59.4870   34.1280   46.9290 C   0  0  0  0  0  0  0  0  0  0  0  0
   59.8581   35.1173   47.2350 H   0  0  0  0  0  0  0  0  0  0  0  0
   59.6310   33.0290   47.7920 C   0  0  0  0  0  0  0  0  0  0  0  0
   60.2800   33.1760   49.1160 C   0  0  0  0  0  0  0  0  0  0  0  0
   61.2710   33.9430   49.2510 O   0  0  0  0  0  0  0  0  0  0  0  0
   59.7820   32.4650   50.2590 N   0  0  0  0  0  0  0  0  0  0  0  0
   59.1100   33.1610   51.3470 C   0  0  0  0  0  0  0  0  0  0  0  0
   59.6712   33.0113   52.2812 H   0  0  0  0  0  0  0  0  0  0  0  0
   59.0589   34.2363   51.1208 H   0  0  0  0  0  0  0  0  0  0  0  0
   57.6950   32.6030   51.5060 C   0  0  0  0  0  0  0  0  0  0  0  0
   57.2862   32.9416   52.4694 H   0  0  0  0  0  0  0  0  0  0  0  0
   57.0890   32.9703   50.6646 H   0  0  0  0  0  0  0  0  0  0  0  0
   57.6740   31.1270   51.4720 N   0  0  0  0  0  0  0  0  0  0  0  0
   56.5200   30.4410   51.9960 C   0  0  0  0  0  0  0  0  0  0  0  0
   56.6330   29.2590   52.4200 O   0  0  0  0  0  0  0  0  0  0  0  0
   55.1730   31.1100   52.0420 C   0  0  0  0  0  0  0  0  0  0  0  0
   55.5367   32.1313   51.8559 H   0  0  0  0  0  0  0  0  0  0  0  0
   54.0330   30.2470   51.5170 C   0  0  0  0  0  0  0  0  0  0  0  0
   53.2019   30.7105   50.9653 H   0  0  0  0  0  0  0  0  0  0  0  0
   53.9647   29.3574   50.8736 H   0  0  0  0  0  0  0  0  0  0  0  0
   54.1770   30.4820   53.0090 C   0  0  0  0  0  0  0  0  0  0  0  0
   53.4503   31.1159   53.5383 H   0  0  0  0  0  0  0  0  0  0  0  0
   54.2563   29.8333   53.8938 H   0  0  0  0  0  0  0  0  0  0  0  0
   58.5360   30.3720   50.5430 C   0  0  0  0  0  0  0  0  0  0  0  0
   58.6707   29.3535   50.9360 H   0  0  0  0  0  0  0  0  0  0  0  0
   58.0417   30.3651   49.5603 H   0  0  0  0  0  0  0  0  0  0  0  0
   59.9150   31.0160   50.3650 C   0  0  0  0  0  0  0  0  0  0  0  0
   60.5456   30.7711   51.2324 H   0  0  0  0  0  0  0  0  0  0  0  0
   60.3770   30.6287   49.4449 H   0  0  0  0  0  0  0  0  0  0  0  0
   59.1280   31.7820   47.3920 C   0  0  0  0  0  0  0  0  0  0  0  0
   59.2221   30.9186   48.0671 H   0  0  0  0  0  0  0  0  0  0  0  0
  1  2  1  0
  2  3  1  0
  2  4  2  0
  4  5  1  0
  5  6  2  0
  6  7  1  0
  6  8  1  0
  8  9  1  0
  9 10  1  0
 10 11  2  0
 10 12  1  0
 12 13  1  0
 13 14  1  0
  5 15  1  0
 15 16  1  0
 15 17  2  0
 17 18  1  0
 18 19  1  0
 18 20  1  0
 18 21  1  0
 17 22  1  0
 22 23  1  0
 23 24  2  0
 24 25  1  0
 24 26  1  0
 26 27  1  0
 26 28  2  0
 28 29  1  0
 28 30  1  0
 30 31  1  0
 31 32  2  0
 31 33  1  0
 33 34  1  0
 34 35  1  0
 34 36  1  0
 34 37  1  0
 37 38  1  0
 37 39  1  0
 37 40  1  0
 40 41  1  0
 41 42  2  0
 41 43  1  0
 43 44  1  0
 43 45  1  0
 45 46  1  0
 45 47  1  0
 45 48  1  0
 48 49  1  0
 48 50  1  0
 40 51  1  0
 51 52  1  0
 51 53  1  0
 51 54  1  0
 54 55  1  0
 54 56  1  0
 30 57  2  0
 57 58  1  0
 22  4  1  0
 57 23  1  0
 13  8  2  0
 54 33  1  0
 48 43  1  0
M  CHG  3   9  -1  12  -1  14  -1
M  END
>  <UniqueID>  (18) 
18

>  <SMILES>  (18) 
C=c1/c(=C/c2[n-]c(=O)[n-]c2[O-])cc(C)n1-c1cccc(C(=O)N2CCN(C(=O)C3CC3)CC2)c1

>  <Energy>  (18) 
400.66553059469015

>  <Genealogy>  (18) 
C=c1c(=Cc2[n-]c(=O)[n-]c2[O-])cc(C)n1-c1cccc(C(=O)N2CCN(C(=O)C3CC3)CC2)c1 (protonated)
C=c1/c(=C/c2[n-]c(=O)[n-]c2[O-])cc(C)n1-c1cccc(C(=O)N2CCN(C(=O)C3CC3)CC2)c1 (cis-trans isomerization)
C=c1/c(=C/c2[n-]c(=O)[n-]c2[O-])cc(C)n1-c1cccc(C(=O)N2CCN(C(=O)C3CC3)CC2)c1 (3D coordinates assigned)
C=c1/c(=C/c2[n-]c(=O)[n-]c2[O-])cc(C)n1-c1cccc(C(=O)N2CCN(C(=O)C3CC3)CC2)c1 (nonaromatic ring conformer: 400.66553059469015 kcal/mol)

>  <smiles>  (18) 
C=c1c(=Cc2[nH]c(=O)[nH]c2O)cc(C)n1-c1cccc(C(=O)N2CCN(C(=O)C3CC3)CC2)c1

>  <score_type>  (18) 
oracle

>  <origin>  (18) 
adg

>  <m_score__min__energy>  (18) 
-17.690000000000001

>  <m_primary>  (18) 
energy

$$$$
18:0
     RDKit          3D

 46 48  0  0  0  0  0  0  0  0999 V2000
   59.3140   29.4240   49.1700 C   0  0  0  0  0  0  0  0  0  0  0  0
   60.6930   29.2120   49.7800 C   0  0  0  0  0  0  0  0  0  0  0  0
   61.2250   30.4980   50.3390 C   0  0  0  0  0  0  0  0  0  0  0  0
   60.4500   31.2830   51.2010 C   0  0  0  0  0  0  0  0  0  0  0  0
   60.9830   32.4880   51.6650 C   0  0  0  0  0  0  0  0  0  0  0  0
   60.3150   33.2180   52.4430 O   0  0  0  0  0  0  0  0  0  0  0  0
   62.2230   32.8770   51.2710 N   0  0  0  0  0  0  0  0  0  0  0  0
   62.9570   32.1090   50.4240 C   0  0  0  0  0  0  0  0  0  0  0  0
   64.5930   32.6400   49.9260 S   0  0  0  0  0  0  0  0  0  0  0  0
   64.0260   33.4480   48.3880 C   0  0  0  0  0  0  0  0  0  0  0  0
   62.5390   33.6690   48.3840 C   0  0  0  0  0  0  0  0  0  0  0  0
   61.9210   34.6430   49.0810 N   0  0  0  0  0  0  0  0  0  0  0  0
   60.6170   34.4500   48.9510 N   0  0  0  0  0  0  0  0  0  0  0  0
   60.4560   33.3560   48.1850 C   0  0  0  0  0  0  0  0  0  0  0  0
   58.8470   32.6570   47.7890 S   0  0  0  0  0  0  0  0  0  0  0  0
   58.8260   33.2370   46.0570 C   0  0  0  0  0  0  0  0  0  0  0  0
   58.0990   32.2730   45.1730 C   0  0  0  0  0  0  0  0  0  0  0  0
   57.9870   32.5180   43.9410 O   0  0  0  0  0  0  0  0  0  0  0  0
   57.5910   31.0540   45.7200 N   0  0  0  0  0  0  0  0  0  0  0  0
   58.2120   29.7700   45.5950 C   0  0  0  0  0  0  0  0  0  0  0  0
   59.8610   29.5350   45.7820 S   0  0  0  0  0  0  0  0  0  0  0  0
   59.8460   27.8830   45.4830 C   0  0  0  0  0  0  0  0  0  0  0  0
   58.5340   27.4900   45.2500 C   0  0  0  0  0  0  0  0  0  0  0  0
   57.5990   28.5380   45.3290 C   0  0  0  0  0  0  0  0  0  0  0  0
   56.1450   28.2900   45.2490 C   0  0  0  0  0  0  0  0  0  0  0  0
   55.6020   27.0700   45.7480 N   0  0  0  0  0  0  0  0  0  0  0  0
   55.3690   29.1630   44.7790 O   0  0  0  0  0  0  0  0  0  0  0  0
   61.6440   32.8330   47.8190 N   0  0  0  0  0  0  0  0  0  0  0  0
   61.9140   31.5760   47.1230 C   0  0  0  0  0  0  0  0  0  0  0  0
   62.4570   30.9330   49.9630 N   0  0  0  0  0  0  0  0  0  0  0  0
   58.5713   29.5382   49.9734 H   0  0  0  0  0  0  0  0  0  0  0  0
   59.3237   30.3312   48.5480 H   0  0  0  0  0  0  0  0  0  0  0  0
   59.0508   28.5558   48.5480 H   0  0  0  0  0  0  0  0  0  0  0  0
   60.6209   28.4689   50.5878 H   0  0  0  0  0  0  0  0  0  0  0  0
   61.3772   28.8556   48.9959 H   0  0  0  0  0  0  0  0  0  0  0  0
   59.4442   30.9583   51.5060 H   0  0  0  0  0  0  0  0  0  0  0  0
   64.5300   34.4209   48.2912 H   0  0  0  0  0  0  0  0  0  0  0  0
   64.2738   32.7863   47.5449 H   0  0  0  0  0  0  0  0  0  0  0  0
   58.3235   34.2145   46.0119 H   0  0  0  0  0  0  0  0  0  0  0  0
   59.8646   33.3185   45.7040 H   0  0  0  0  0  0  0  0  0  0  0  0
   60.7262   27.2233   45.4732 H   0  0  0  0  0  0  0  0  0  0  0  0
   58.2514   26.4513   45.0238 H   0  0  0  0  0  0  0  0  0  0  0  0
   54.8000   27.0730   46.4180 H   0  0  0  0  0  0  0  0  0  0  0  0
   62.0854   30.7780   47.8605 H   0  0  0  0  0  0  0  0  0  0  0  0
   61.0518   31.3135   46.4924 H   0  0  0  0  0  0  0  0  0  0  0  0
   62.8080   31.6907   46.4924 H   0  0  0  0  0  0  0  0  0  0  0  0
  1  2  1  0
  2  3  1  0
  3  4  2  0
  4  5  1  0
  5  6  2  0
  5  7  1  0
  7  8  1  0
  8  9  1  0
  9 10  1  0
 10 11  1  0
 11 12  2  0
 12 13  1  0
 13 14  2  0
 14 15  1  0
 15 16  1  0
 16 17  1  0
 17 18  2  0
 17 19  1  0
 19 20  1  0
 20 21  1  0
 21 22  1  0
 22 23  2  0
 23 24  1  0
 24 25  1  0
 25 26  1  0
 25 27  2  0
 14 28  1  0
 28 29  1  0
  8 30  2  0
 30  3  1  0
 28 11  1  0
 24 20  2  0
  1 31  1  0
  1 32  1  0
  1 33  1  0
  2 34  1  0
  2 35  1  0
  4 36  1  0
 10 37  1  0
 10 38  1  0
 16 39  1  0
 16 40  1  0
 22 41  1  0
 23 42  1  0
 26 43  1  0
 29 44  1  0
 29 45  1  0
 29 46  1  0
M  CHG  3   7  -1  19  -1  26  -1
M  END
>  <UniqueID>  (19) 
19

>  <SMILES>  (19) 
CCc1cc(=O)[n-]c(SCc2nnc(SCC(=O)[N-]c3sccc3C([NH-])=O)n2C)n1

>  <Energy>  (19) 
99.13866442218432

>  <Genealogy>  (19) 
CCc1cc(=O)[n-]c(SCc2nnc(SCC(=O)[N-]c3sccc3C([NH-])=O)n2C)n1 (protonated)
CCc1cc(=O)[n-]c(SCc2nnc(SCC(=O)[N-]c3sccc3C([NH-])=O)n2C)n1 (3D coordinates assigned)
CCc1cc(=O)[n-]c(SCc2nnc(SCC(=O)[N-]c3sccc3C([NH-])=O)n2C)n1 (optimized conformer: 99.13866442218432 kcal/mol)

>  <smiles>  (19) 
CCc1cc(=O)[nH]c(SCc2nnc(SCC(=O)Nc3sccc3C(N)=O)n2C)n1

>  <score_type>  (19) 
oracle

>  <origin>  (19) 
adg

>  <m_score__min__energy>  (19) 
-14.869999999999999

>  <m_primary>  (19) 
energy

$$$$
19:0
     RDKit          3D

 44 46  0  0  0  0  0  0  0  0999 V2000
   58.0740   27.2580   43.4200 C   0  0  0  0  0  0  0  0  0  0  0  0
   58.1770   27.1610   44.7560 C   0  0  0  0  0  0  0  0  0  0  0  0
   57.6660   26.1360   45.5680 C   0  0  0  0  0  0  0  0  0  0  0  0
   57.1650   24.9250   45.2540 C   0  0  0  0  0  0  0  0  0  0  0  0
   55.7400   24.5580   45.2730 C   0  0  0  0  0  0  0  0  0  0  0  0
   55.2560   23.3180   45.0860 N   0  0  0  0  0  0  0  0  0  0  0  0
   53.9360   23.4270   45.3380 C   0  0  0  0  0  0  0  0  0  0  0  0
   53.1390   22.4570   45.2580 O   0  0  0  0  0  0  0  0  0  0  0  0
   53.5460   24.6680   45.7000 N   0  0  0  0  0  0  0  0  0  0  0  0
   54.6980   25.3640   45.6700 C   0  0  0  0  0  0  0  0  0  0  0  0
   54.7970   26.7090   46.0030 O   0  0  0  0  0  0  0  0  0  0  0  0
   57.7710   26.5860   46.8740 C   0  0  0  0  0  0  0  0  0  0  0  0
   58.3970   27.8140   46.8250 C   0  0  0  0  0  0  0  0  0  0  0  0
   58.7490   28.6320   48.0300 C   0  0  0  0  0  0  0  0  0  0  0  0
   58.6440   28.1660   45.5430 N   0  0  0  0  0  0  0  0  0  0  0  0
   59.2730   29.3900   45.1130 C   0  0  0  0  0  0  0  0  0  0  0  0
   60.4210   29.3470   44.5900 O   0  0  0  0  0  0  0  0  0  0  0  0
   58.6090   30.6600   45.2830 N   0  0  0  0  0  0  0  0  0  0  0  0
   57.3850   30.8750   44.7170 C   0  0  0  0  0  0  0  0  0  0  0  0
   56.8250   29.9830   44.0230 O   0  0  0  0  0  0  0  0  0  0  0  0
   56.7620   32.0600   44.8850 N   0  0  0  0  0  0  0  0  0  0  0  0
   57.3320   33.0530   45.6040 C   0  0  0  0  0  0  0  0  0  0  0  0
   56.7030   34.1360   45.7330 O   0  0  0  0  0  0  0  0  0  0  0  0
   58.5700   32.8760   46.1750 N   0  0  0  0  0  0  0  0  0  0  0  0
   59.2190   33.9560   46.9700 C   0  0  0  0  0  0  0  0  0  0  0  0
   60.5620   34.3790   46.3600 C   0  0  0  0  0  0  0  0  0  0  0  0
   59.3580   33.5660   48.4490 C   0  0  0  0  0  0  0  0  0  0  0  0
   59.2010   31.6630   46.0070 C   0  0  0  0  0  0  0  0  0  0  0  0
   60.3300   31.4580   46.5380 O   0  0  0  0  0  0  0  0  0  0  0  0
   58.5200   28.1155   42.8948 H   0  0  0  0  0  0  0  0  0  0  0  0
   57.5437   26.4800   42.8513 H   0  0  0  0  0  0  0  0  0  0  0  0
   57.8819   24.1448   44.9585 H   0  0  0  0  0  0  0  0  0  0  0  0
   55.7860   22.4510   44.8390 H   0  0  0  0  0  0  0  0  0  0  0  0
   57.4220   26.0639   47.7771 H   0  0  0  0  0  0  0  0  0  0  0  0
   58.5055   28.0660   48.9413 H   0  0  0  0  0  0  0  0  0  0  0  0
   59.8250   28.8602   48.0167 H   0  0  0  0  0  0  0  0  0  0  0  0
   58.1750   29.5703   48.0167 H   0  0  0  0  0  0  0  0  0  0  0  0
   58.5573   34.8338   46.9303 H   0  0  0  0  0  0  0  0  0  0  0  0
   61.2761   34.6039   47.1659 H   0  0  0  0  0  0  0  0  0  0  0  0
   60.9561   33.5615   45.7384 H   0  0  0  0  0  0  0  0  0  0  0  0
   60.4165   35.2748   45.7384 H   0  0  0  0  0  0  0  0  0  0  0  0
   59.0559   34.4136   49.0817 H   0  0  0  0  0  0  0  0  0  0  0  0
   58.7128   32.7010   48.6623 H   0  0  0  0  0  0  0  0  0  0  0  0
   60.4048   33.3041   48.6623 H   0  0  0  0  0  0  0  0  0  0  0  0
  1  2  2  0
  2  3  1  0
  3  4  2  3
  4  5  1  0
  5  6  1  0
  6  7  1  0
  7  8  2  0
  7  9  1  0
  9 10  1  0
 10 11  1  0
  3 12  1  0
 12 13  2  0
 13 14  1  0
 13 15  1  0
 15 16  1  0
 16 17  2  0
 16 18  1  0
 18 19  1  0
 19 20  2  0
 19 21  1  0
 21 22  1  0
 22 23  2  0
 22 24  1  0
 24 25  1  0
 25 26  1  0
 25 27  1  0
 24 28  1  0
 28 29  2  0
 15  2  1  0
 28 18  1  0
 10  5  2  0
  1 30  1  0
  1 31  1  0
  4 32  1  0
  6 33  1  0
 12 34  1  0
 14 35  1  0
 14 36  1  0
 14 37  1  0
 25 38  1  0
 26 39  1  0
 26 40  1  0
 26 41  1  0
 27 42  1  0
 27 43  1  0
 27 44  1  0
M  CHG  3   9  -1  11  -1  21  -1
M  END
>  <UniqueID>  (20) 
20

>  <SMILES>  (20) 
C=c1c(=Cc2[nH]c(=O)[n-]c2[O-])cc(C)n1C(=O)n1c(=O)[n-]c(=O)n(C(C)C)c1=O

>  <Energy>  (20) 
131.4535278496314

>  <Genealogy>  (20) 
C=c1c(=Cc2[nH]c(=O)[n-]c2[O-])cc(C)n1C(=O)n1c(=O)[n-]c(=O)n(C(C)C)c1=O (protonated)
C=c1c(=Cc2[nH]c(=O)[n-]c2[O-])cc(C)n1C(=O)n1c(=O)[n-]c(=O)n(C(C)C)c1=O (3D coordinates assigned)
C=c1c(=Cc2[nH]c(=O)[n-]c2[O-])cc(C)n1C(=O)n1c(=O)[n-]c(=O)n(C(C)C)c1=O (optimized conformer: 131.4535278496314 kcal/mol)

>  <smiles>  (20) 
C=c1c(=Cc2[nH]c(=O)[nH]c2O)cc(C)n1C(=O)n1c(=O)[nH]c(=O)n(C(C)C)c1=O

>  <score_type>  (20) 
oracle

>  <origin>  (20) 
adg

>  <m_score__min__energy>  (20) 
-15.539999999999999

>  <m_primary>  (20) 
energy

$$$$
20:0
     RDKit          3D

 36 39  0  0  0  0  0  0  0  0999 V2000
   58.4610   21.3330   44.3940 N   0  0  0  0  0  0  0  0  0  0  0  0
   57.2610   21.9790   43.9920 C   0  0  0  0  0  0  0  0  0  0  0  0
   56.5710   21.4110   43.0920 O   0  0  0  0  0  0  0  0  0  0  0  0
   56.8400   23.2410   44.5900 C   0  0  0  0  0  0  0  0  0  0  0  0
   55.8810   23.3300   45.5770 C   0  0  0  0  0  0  0  0  0  0  0  0
   55.4900   24.5370   46.1360 C   0  0  0  0  0  0  0  0  0  0  0  0
   56.0810   25.7160   45.6910 C   0  0  0  0  0  0  0  0  0  0  0  0
   55.9220   27.0240   46.0250 N   0  0  0  0  0  0  0  0  0  0  0  0
   56.7750   27.7140   45.2490 C   0  0  0  0  0  0  0  0  0  0  0  0
   56.9700   29.1580   45.2400 C   0  0  0  0  0  0  0  0  0  0  0  0
   57.9800   29.9120   45.8110 C   0  0  0  0  0  0  0  0  0  0  0  0
   57.7710   31.2270   45.5570 C   0  0  0  0  0  0  0  0  0  0  0  0
   58.4850   32.4380   45.8990 C   0  0  0  0  0  0  0  0  0  0  0  0
   58.6180   33.4310   44.9270 C   0  0  0  0  0  0  0  0  0  0  0  0
   59.2900   34.6160   45.1850 C   0  0  0  0  0  0  0  0  0  0  0  0
   59.8630   34.8800   46.4110 C   0  0  0  0  0  0  0  0  0  0  0  0
   59.7360   33.9060   47.3770 C   0  0  0  0  0  0  0  0  0  0  0  0
   60.4490   34.2000   48.9490 Cl  0  0  0  0  0  0  0  0  0  0  0  0
   59.0570   32.7080   47.1150 C   0  0  0  0  0  0  0  0  0  0  0  0
   58.9690   31.5650   48.4130 Cl  0  0  0  0  0  0  0  0  0  0  0  0
   56.6180   31.2650   44.8250 N   0  0  0  0  0  0  0  0  0  0  0  0
   56.1620   30.0520   44.6470 N   0  0  0  0  0  0  0  0  0  0  0  0
   57.4620   26.8870   44.4380 N   0  0  0  0  0  0  0  0  0  0  0  0
   57.0450   25.6150   44.6940 C   0  0  0  0  0  0  0  0  0  0  0  0
   57.4260   24.4090   44.1470 C   0  0  0  0  0  0  0  0  0  0  0  0
   59.3050   21.5160   43.7770 H   0  0  0  0  0  0  0  0  0  0  0  0
   58.5350   20.7140   45.2340 H   0  0  0  0  0  0  0  0  0  0  0  0
   55.4065   22.4047   45.9357 H   0  0  0  0  0  0  0  0  0  0  0  0
   54.7213   24.5626   46.9224 H   0  0  0  0  0  0  0  0  0  0  0  0
   55.2640   27.3810   46.7440 H   0  0  0  0  0  0  0  0  0  0  0  0
   58.8257   29.5053   46.3850 H   0  0  0  0  0  0  0  0  0  0  0  0
   58.1787   33.2693   43.9316 H   0  0  0  0  0  0  0  0  0  0  0  0
   59.3684   35.3689   44.3869 H   0  0  0  0  0  0  0  0  0  0  0  0
   60.3954   35.8221   46.6081 H   0  0  0  0  0  0  0  0  0  0  0  0
   55.2820   29.8520   44.1080 H   0  0  0  0  0  0  0  0  0  0  0  0
   58.1942   24.3776   43.3603 H   0  0  0  0  0  0  0  0  0  0  0  0
  1  2  1  0
  2  3  2  0
  2  4  1  0
  4  5  2  0
  5  6  1  0
  6  7  2  0
  7  8  1  0
  8  9  1  0
  9 10  1  0
 10 11  2  0
 11 12  1  0
 12 13  1  0
 13 14  2  0
 14 15  1  0
 15 16  2  0
 16 17  1  0
 17 18  1  0
 17 19  2  0
 19 20  1  0
 12 21  2  0
 21 22  1  0
  9 23  2  0
 23 24  1  0
 24 25  2  0
 25  4  1  0
 24  7  1  0
 22 10  1  0
 19 13  1  0
  1 26  1  0
  1 27  1  0
  5 28  1  0
  6 29  1  0
  8 30  1  0
 11 31  1  0
 14 32  1  0
 15 33  1  0
 16 34  1  0
 22 35  1  0
 25 36  1  0
M  END
>  <smiles>  (21) 
NC(=O)c1ccc2[nH]c(-c3cc(-c4cccc(Cl)c4Cl)n[nH]3)nc2c1

>  <score_type>  (21) 
oracle

>  <origin>  (21) 
adg

>  <m_score__min__energy>  (21) 
-9.3100000000000005

>  <m_primary>  (21) 
energy

$$$$
21:0
     RDKit          3D

 51 53  0  0  1  0  0  0  0  0999 V2000
   58.4770   32.5760   48.6620 C   0  0  0  0  0  0  0  0  0  0  0  0
   58.5090   33.2880   47.3570 C   0  0  0  0  0  0  0  0  0  0  0  0
   57.3680   33.3870   46.5930 C   0  0  0  0  0  0  0  0  0  0  0  0
   57.3770   34.0360   45.3640 C   0  0  0  0  0  0  0  0  0  0  0  0
   58.5620   34.5840   44.9240 C   0  0  0  0  0  0  0  0  0  0  0  0
   59.7110   34.4890   45.6860 C   0  0  0  0  0  0  0  0  0  0  0  0
   59.6940   33.8520   46.8860 C   0  0  0  0  0  0  0  0  0  0  0  0
   60.8540   33.7020   47.7680 C   0  0  0  0  0  0  0  0  0  0  0  0
   61.1830   34.5910   48.5990 O   0  0  0  0  0  0  0  0  0  0  0  0
   61.5810   32.4770   47.6140 N   0  0  0  0  0  0  0  0  0  0  0  0
   61.6070   31.5570   48.5070 C   0  0  0  0  0  0  0  0  0  0  0  0
   60.9520   30.3430   48.4730 C   0  0  0  0  0  0  0  0  0  0  0  0
   61.2620   29.6530   49.6140 C   0  0  0  0  0  0  0  0  0  0  0  0
   60.7320   28.3010   49.9340 C   0  0  0  0  0  0  0  0  0  0  0  0
   60.1290   27.7170   48.6860 C   0  0  0  0  0  0  0  0  0  0  0  0
   58.9150   28.0330   48.4950 O   0  0  0  0  0  0  0  0  0  0  0  0
   60.8680   26.8820   47.8090 N   0  0  0  0  0  0  0  0  0  0  0  0
   60.2870   26.2990   46.5960 C   0  0  0  0  0  0  0  0  0  0  0  0
   59.3970   27.2640   45.9350 C   0  0  0  0  0  0  0  0  0  0  0  0
   58.0470   26.9430   45.8750 C   0  0  0  0  0  0  0  0  0  0  0  0
   57.1020   27.7640   45.2990 C   0  0  0  0  0  0  0  0  0  0  0  0
   57.5410   28.9560   44.7620 C   0  0  0  0  0  0  0  0  0  0  0  0
   56.3110   29.9860   44.0360 S   0  0  0  0  0  0  0  0  0  0  0  0
   56.5540   29.9720   42.3210 N   0  0  0  0  0  0  0  0  0  0  0  0
   56.3640   31.3470   44.6120 O   0  0  0  0  0  0  0  0  0  0  0  0
   54.9740   29.3460   44.3610 O   0  0  0  0  0  0  0  0  0  0  0  0
   58.8690   29.3340   44.7880 C   0  0  0  0  0  0  0  0  0  0  0  0
   59.7790   28.4590   45.3870 C   0  0  0  0  0  0  0  0  0  0  0  0
   62.0920   30.4350   50.3300 N   0  0  0  0  0  0  0  0  0  0  0  0
   62.2940   31.5710   49.6670 N   0  0  0  0  0  0  0  0  0  0  0  0
   58.5100   33.3097   49.4809 H   0  0  0  0  0  0  0  0  0  0  0  0
   57.5514   31.9861   48.7353 H   0  0  0  0  0  0  0  0  0  0  0  0
   59.3459   31.9055   48.7353 H   0  0  0  0  0  0  0  0  0  0  0  0
   56.4313   32.9440   46.9623 H   0  0  0  0  0  0  0  0  0  0  0  0
   56.4618   34.1102   44.7583 H   0  0  0  0  0  0  0  0  0  0  0  0
   58.5939   35.1032   43.9548 H   0  0  0  0  0  0  0  0  0  0  0  0
   60.6476   34.9330   45.3177 H   0  0  0  0  0  0  0  0  0  0  0  0
   60.2929   29.9897   47.6663 H   0  0  0  0  0  0  0  0  0  0  0  0
   61.5498   27.6561   50.2878 H   0  0  0  0  0  0  0  0  0  0  0  0
   59.9692   28.3724   50.7233 H   0  0  0  0  0  0  0  0  0  0  0  0
   61.8710   26.6920   48.0780 H   0  0  0  0  0  0  0  0  0  0  0  0
   61.0963   26.0209   45.9048 H   0  0  0  0  0  0  0  0  0  0  0  0
   59.7027   25.4095   46.8741 H   0  0  0  0  0  0  0  0  0  0  0  0
   57.7163   25.9875   46.3081 H   0  0  0  0  0  0  0  0  0  0  0  0
   56.0397   27.4799   45.2687 H   0  0  0  0  0  0  0  0  0  0  0  0
   57.5100   29.5460   42.1850 H   0  0  0  0  0  0  0  0  0  0  0  0
   55.8340   29.3280   41.9170 H   0  0  0  0  0  0  0  0  0  0  0  0
   59.1984   30.2891   44.3530 H   0  0  0  0  0  0  0  0  0  0  0  0
   60.8418   28.7408   45.4194 H   0  0  0  0  0  0  0  0  0  0  0  0
   62.4750   30.1360   51.2580 H   0  0  0  0  0  0  0  0  0  0  0  0
   62.9030   32.3370   50.0270 H   0  0  0  0  0  0  0  0  0  0  0  0
  1  2  1  0
  2  3  2  0
  3  4  1  0
  4  5  2  0
  5  6  1  0
  6  7  2  0
  7  8  1  0
  8  9  2  0
  8 10  1  0
 10 11  2  0
 11 12  1  0
 12 13  2  0
 13 14  1  0
 14 15  1  0
 15 16  2  0
 15 17  1  0
 17 18  1  0
 18 19  1  0
 19 20  2  0
 20 21  1  0
 21 22  2  0
 22 23  1  0
 23 24  1  0
 23 25  2  0
 23 26  2  0
 22 27  1  0
 27 28  2  0
 13 29  1  0
 29 30  1  0
  7  2  1  0
 30 11  1  0
 28 19  1  0
  1 31  1  0
  1 32  1  0
  1 33  1  0
  3 34  1  0
  4 35  1  0
  5 36  1  0
  6 37  1  0
 12 38  1  0
 14 39  1  0
 14 40  1  0
 17 41  1  0
 18 42  1  0
 18 43  1  0
 20 44  1  0
 21 45  1  0
 24 46  1  0
 24 47  1  0
 27 48  1  0
 28 49  1  0
 29 50  1  0
 30 51  1  0
M  END
>  <smiles>  (22) 
Cc1ccccc1C(=O)N=c1cc(CC(=O)NCc2ccc(S(N)(=O)=O)cc2)[nH][nH]1

>  <score_type>  (22) 
oracle

>  <origin>  (22) 
adg

>  <m_score__min__energy>  (22) 
-10.31

>  <m_primary>  (22) 
energy

$$$$
22:0
     RDKit          3D

 32 33  0  0  0  0  0  0  0  0999 V2000
   54.8250   26.3050   45.9990 N   0  0  0  0  0  0  0  0  0  0  0  0
   56.4720   25.7890   46.0870 S   0  0  0  0  0  0  0  0  0  0  0  0
   56.6780   24.6190   45.1650 O   0  0  0  0  0  0  0  0  0  0  0  0
   56.7910   25.3570   47.4910 O   0  0  0  0  0  0  0  0  0  0  0  0
   57.5300   27.1150   45.6180 C   0  0  0  0  0  0  0  0  0  0  0  0
   58.9220   26.9760   45.7070 C   0  0  0  0  0  0  0  0  0  0  0  0
   59.7580   28.0210   45.3060 C   0  0  0  0  0  0  0  0  0  0  0  0
   59.2100   29.2120   44.8200 C   0  0  0  0  0  0  0  0  0  0  0  0
   57.8180   29.3690   44.7420 C   0  0  0  0  0  0  0  0  0  0  0  0
   57.2500   30.6250   44.2130 C   0  0  0  0  0  0  0  0  0  0  0  0
   57.2360   30.8130   42.9670 O   0  0  0  0  0  0  0  0  0  0  0  0
   56.7440   31.6550   45.0710 N   0  0  0  0  0  0  0  0  0  0  0  0
   57.0290   33.0770   44.9220 C   0  0  0  0  0  0  0  0  0  0  0  0
   58.0260   33.4950   45.9630 C   0  0  0  0  0  0  0  0  0  0  0  0
   58.1370   32.7790   47.1670 C   0  0  0  0  0  0  0  0  0  0  0  0
   59.0900   33.1490   48.1210 C   0  0  0  0  0  0  0  0  0  0  0  0
   59.9460   34.2280   47.8750 C   0  0  0  0  0  0  0  0  0  0  0  0
   60.8700   34.5830   48.8000 F   0  0  0  0  0  0  0  0  0  0  0  0
   59.8520   34.9340   46.6730 C   0  0  0  0  0  0  0  0  0  0  0  0
   58.9000   34.5680   45.7160 C   0  0  0  0  0  0  0  0  0  0  0  0
   56.9820   28.3060   45.1210 C   0  0  0  0  0  0  0  0  0  0  0  0
   54.7150   27.0870   46.6830 H   0  0  0  0  0  0  0  0  0  0  0  0
   59.3569   26.0424   46.0933 H   0  0  0  0  0  0  0  0  0  0  0  0
   60.8500   27.9066   45.3728 H   0  0  0  0  0  0  0  0  0  0  0  0
   59.8726   30.0288   44.4977 H   0  0  0  0  0  0  0  0  0  0  0  0
   57.4426   33.2658   43.9204 H   0  0  0  0  0  0  0  0  0  0  0  0
   56.1009   33.6539   45.0481 H   0  0  0  0  0  0  0  0  0  0  0  0
   57.4718   31.9244   47.3597 H   0  0  0  0  0  0  0  0  0  0  0  0
   59.1668   32.5911   49.0659 H   0  0  0  0  0  0  0  0  0  0  0  0
   60.5283   35.7796   46.4789 H   0  0  0  0  0  0  0  0  0  0  0  0
   58.8350   35.1212   44.7675 H   0  0  0  0  0  0  0  0  0  0  0  0
   55.8908   28.4085   45.0274 H   0  0  0  0  0  0  0  0  0  0  0  0
  1  2  1  0
  2  3  2  0
  2  4  2  0
  2  5  1  0
  5  6  2  0
  6  7  1  0
  7  8  2  0
  8  9  1  0
  9 10  1  0
 10 11  2  0
 10 12  1  0
 12 13  1  0
 13 14  1  0
 14 15  2  0
 15 16  1  0
 16 17  2  0
 17 18  1  0
 17 19  1  0
 19 20  2  0
  9 21  2  0
 21  5  1  0
 20 14  1  0
  1 22  1  0
  6 23  1  0
  7 24  1  0
  8 25  1  0
 13 26  1  0
 13 27  1  0
 15 28  1  0
 16 29  1  0
 19 30  1  0
 20 31  1  0
 21 32  1  0
M  CHG  2   1  -1  12  -1
M  END
>  <UniqueID>  (23) 
21

>  <SMILES>  (23) 
[NH-]S(=O)(=O)c1cccc(C(=O)[N-]Cc2ccc(F)cc2)c1

>  <Energy>  (23) 
35.503382400462804

>  <Genealogy>  (23) 
[NH-]S(=O)(=O)c1cccc(C(=O)[N-]Cc2ccc(F)cc2)c1 (protonated)
[NH-]S(=O)(=O)c1cccc(C(=O)[N-]Cc2ccc(F)cc2)c1 (3D coordinates assigned)
[NH-]S(=O)(=O)c1cccc(C(=O)[N-]Cc2ccc(F)cc2)c1 (optimized conformer: 35.503382400462804 kcal/mol)

>  <smiles>  (23) 
NS(=O)(=O)c1cccc(C(=O)NCc2ccc(F)cc2)c1

>  <score_type>  (23) 
oracle

>  <origin>  (23) 
adg

>  <m_score__min__energy>  (23) 
-12.130000000000001

>  <m_primary>  (23) 
energy

$$$$
23:0
     RDKit          3D

 45 47  0  0  0  0  0  0  0  0999 V2000
   58.0558   32.7221   47.6140 H   0  0  0  0  0  0  0  0  0  0  0  0
   58.0580   32.7230   46.5140 C   0  0  0  0  0  0  0  0  0  0  0  0
   57.4160   31.7380   45.8330 N   0  0  0  0  0  0  0  0  0  0  0  0
   57.4100   31.6730   44.4740 C   0  0  0  0  0  0  0  0  0  0  0  0
   56.7460   30.7050   43.9080 N   0  0  0  0  0  0  0  0  0  0  0  0
   56.5530   29.3640   44.3830 C   0  0  0  0  0  0  0  0  0  0  0  0
   55.6510   29.0990   45.2210 O   0  0  0  0  0  0  0  0  0  0  0  0
   57.3930   28.2590   43.8210 C   0  0  0  0  0  0  0  0  0  0  0  0
   56.9552   27.2930   44.1130 H   0  0  0  0  0  0  0  0  0  0  0  0
   57.4144   28.3636   42.7262 H   0  0  0  0  0  0  0  0  0  0  0  0
   58.8420   28.3310   44.3430 C   0  0  0  0  0  0  0  0  0  0  0  0
   59.1669   27.3158   44.6146 H   0  0  0  0  0  0  0  0  0  0  0  0
   59.4586   28.7603   43.5396 H   0  0  0  0  0  0  0  0  0  0  0  0
   58.9910   29.2080   45.5310 N   0  0  0  0  0  0  0  0  0  0  0  0
   58.3980   30.0590   45.3850 H   0  0  0  0  0  0  0  0  0  0  0  0
   58.5310   28.5230   46.7760 C   0  0  0  0  0  0  0  0  0  0  0  0
   57.4690   28.7641   46.9309 H   0  0  0  0  0  0  0  0  0  0  0  0
   58.7047   27.4468   46.6292 H   0  0  0  0  0  0  0  0  0  0  0  0
   59.3100   28.9310   48.0420 C   0  0  0  0  0  0  0  0  0  0  0  0
   58.6551   28.8278   48.9197 H   0  0  0  0  0  0  0  0  0  0  0  0
   60.1882   28.2770   48.1472 H   0  0  0  0  0  0  0  0  0  0  0  0
   59.7620   30.3220   47.9370 N   0  0  0  0  0  0  0  0  0  0  0  0
   59.5130   31.2680   48.9980 C   0  0  0  0  0  0  0  0  0  0  0  0
   60.2430   32.4670   49.0710 C   0  0  0  0  0  0  0  0  0  0  0  0
   61.0111   32.6854   48.3145 H   0  0  0  0  0  0  0  0  0  0  0  0
   60.0000   33.3840   50.0980 C   0  0  0  0  0  0  0  0  0  0  0  0
   60.5776   34.3188   50.1480 H   0  0  0  0  0  0  0  0  0  0  0  0
   59.0240   33.1140   51.0610 C   0  0  0  0  0  0  0  0  0  0  0  0
   58.8398   33.8322   51.8736 H   0  0  0  0  0  0  0  0  0  0  0  0
   58.2820   31.9320   50.9920 C   0  0  0  0  0  0  0  0  0  0  0  0
   57.0530   31.5960   52.1960 Cl  0  0  0  0  0  0  0  0  0  0  0  0
   58.5210   31.0150   49.9630 C   0  0  0  0  0  0  0  0  0  0  0  0
   57.9291   30.0895   49.9080 H   0  0  0  0  0  0  0  0  0  0  0  0
   60.5320   30.7200   46.7520 C   0  0  0  0  0  0  0  0  0  0  0  0
   60.1594   31.6892   46.3889 H   0  0  0  0  0  0  0  0  0  0  0  0
   61.5931   30.7972   47.0314 H   0  0  0  0  0  0  0  0  0  0  0  0
   60.3930   29.6760   45.6330 C   0  0  0  0  0  0  0  0  0  0  0  0
   60.6941   30.1283   44.6766 H   0  0  0  0  0  0  0  0  0  0  0  0
   61.0388   28.8166   45.8661 H   0  0  0  0  0  0  0  0  0  0  0  0
   58.0820   32.6760   43.7390 C   0  0  0  0  0  0  0  0  0  0  0  0
   58.0910   32.6463   42.6394 H   0  0  0  0  0  0  0  0  0  0  0  0
   58.7350   33.7060   44.4220 C   0  0  0  0  0  0  0  0  0  0  0  0
   59.2600   34.4923   43.8597 H   0  0  0  0  0  0  0  0  0  0  0  0
   58.7210   33.7370   45.8180 C   0  0  0  0  0  0  0  0  0  0  0  0
   59.6040   35.1400   46.7650 Br  0  0  0  0  0  0  0  0  0  0  0  0
  1  2  1  0
  2  3  1  0
  3  4  1  0
  4  5  2  0
  5  6  1  0
  6  7  2  0
  6  8  1  0
  8  9  1  0
  8 10  1  0
  8 11  1  0
 11 12  1  0
 11 13  1  0
 11 14  1  0
 14 15  1  0
 14 16  1  0
 16 17  1  0
 16 18  1  0
 16 19  1  0
 19 20  1  0
 19 21  1  0
 19 22  1  0
 22 23  1  0
 23 24  2  0
 24 25  1  0
 24 26  1  0
 26 27  1  0
 26 28  2  0
 28 29  1  0
 28 30  1  0
 30 31  1  0
 30 32  2  0
 32 33  1  0
 22 34  1  0
 34 35  1  0
 34 36  1  0
 34 37  1  0
 37 38  1  0
 37 39  1  0
  4 40  1  0
 40 41  1  0
 40 42  2  0
 42 43  1  0
 42 44  1  0
 44 45  1  0
 44  2  2  0
 37 14  1  0
 32 23  1  0
M  CHG  2   3  -1  14   1
M  END
>  <UniqueID>  (24) 
22

>  <SMILES>  (24) 
O=C(CC[NH+]1CCN(c2cccc(Cl)c2)CC1)/N=c1\ccc(Br)c[n-]1

>  <Energy>  (24) 
63.44837587483528

>  <Genealogy>  (24) 
O=C(CC[NH+]1CCN(c2cccc(Cl)c2)CC1)N=c1ccc(Br)c[n-]1 (protonated)
O=C(CC[NH+]1CCN(c2cccc(Cl)c2)CC1)/N=c1\ccc(Br)c[n-]1 (cis-trans isomerization)
O=C(CC[NH+]1CCN(c2cccc(Cl)c2)CC1)/N=c1\ccc(Br)c[n-]1 (3D coordinates assigned)
O=C(CC[NH+]1CCN(c2cccc(Cl)c2)CC1)/N=c1\ccc(Br)c[n-]1 (nonaromatic ring conformer: 63.44837587483528 kcal/mol)

>  <smiles>  (24) 
O=C(CCN1CCN(c2cccc(Cl)c2)CC1)N=c1ccc(Br)c[nH]1

>  <score_type>  (24) 
oracle

>  <origin>  (24) 
adg

>  <m_score__min__energy>  (24) 
-8.1099999999999994

>  <m_primary>  (24) 
energy

$$$$
24:0
     RDKit          3D

 56 59  0  0  0  0  0  0  0  0999 V2000
   63.4510   32.9220   47.3960 N   0  0  0  0  0  0  0  0  0  0  0  0
   62.6550   32.1030   47.5810 C   0  0  0  0  0  0  0  0  0  0  0  0
   61.6650   31.0830   47.8110 C   0  0  0  0  0  0  0  0  0  0  0  0
   61.3160   30.7270   49.1190 C   0  0  0  0  0  0  0  0  0  0  0  0
   60.3500   29.7420   49.3410 C   0  0  0  0  0  0  0  0  0  0  0  0
   59.7350   29.1050   48.2590 C   0  0  0  0  0  0  0  0  0  0  0  0
   60.0870   29.4480   46.9390 C   0  0  0  0  0  0  0  0  0  0  0  0
   59.4530   28.8240   45.8080 N   0  0  0  0  0  0  0  0  0  0  0  0
   58.2250   28.0810   45.8930 C   0  0  0  0  0  0  0  0  0  0  0  0
   57.0070   28.6050   45.4010 C   0  0  0  0  0  0  0  0  0  0  0  0
   56.8820   29.9840   44.8630 C   0  0  0  0  0  0  0  0  0  0  0  0
   55.7460   30.4680   44.6130 O   0  0  0  0  0  0  0  0  0  0  0  0
   58.0570   30.7680   44.5940 N   0  0  0  0  0  0  0  0  0  0  0  0
   57.9820   32.1250   44.0570 C   0  0  0  0  0  0  0  0  0  0  0  0
   57.3250   33.0660   45.0700 C   0  0  0  0  0  0  0  0  0  0  0  0
   58.3250   33.5110   46.1060 C   0  0  0  0  0  0  0  0  0  0  0  0
   58.1760   33.1050   47.4420 C   0  0  0  0  0  0  0  0  0  0  0  0
   59.1170   33.4800   48.4150 C   0  0  0  0  0  0  0  0  0  0  0  0
   58.9530   33.0590   49.7850 N   0  0  0  0  0  0  0  0  0  0  0  0
   59.8760   33.5450   50.8160 C   0  0  0  0  0  0  0  0  0  0  0  0
   59.1720   33.5540   52.1770 C   0  0  0  0  0  0  0  0  0  0  0  0
   58.5950   32.2920   52.4530 O   0  0  0  0  0  0  0  0  0  0  0  0
   57.5660   32.0210   51.5200 C   0  0  0  0  0  0  0  0  0  0  0  0
   58.1370   31.8830   50.1060 C   0  0  0  0  0  0  0  0  0  0  0  0
   60.2250   34.2560   48.0310 C   0  0  0  0  0  0  0  0  0  0  0  0
   60.3860   34.6480   46.7020 C   0  0  0  0  0  0  0  0  0  0  0  0
   59.4460   34.2750   45.7380 C   0  0  0  0  0  0  0  0  0  0  0  0
   59.6320   34.6560   44.4490 F   0  0  0  0  0  0  0  0  0  0  0  0
   55.8920   27.8260   45.4540 N   0  0  0  0  0  0  0  0  0  0  0  0
   55.9190   26.5700   45.9640 C   0  0  0  0  0  0  0  0  0  0  0  0
   54.8650   25.8820   45.9940 O   0  0  0  0  0  0  0  0  0  0  0  0
   57.0780   26.0540   46.4400 N   0  0  0  0  0  0  0  0  0  0  0  0
   58.2270   26.7760   46.4130 C   0  0  0  0  0  0  0  0  0  0  0  0
   59.2910   26.2580   46.8430 O   0  0  0  0  0  0  0  0  0  0  0  0
   61.0480   30.4470   46.7240 C   0  0  0  0  0  0  0  0  0  0  0  0
   61.8022   31.2227   49.9722 H   0  0  0  0  0  0  0  0  0  0  0  0
   60.0728   29.4672   50.3694 H   0  0  0  0  0  0  0  0  0  0  0  0
   58.9729   28.3326   48.4394 H   0  0  0  0  0  0  0  0  0  0  0  0
   59.9020   28.9080   44.8660 H   0  0  0  0  0  0  0  0  0  0  0  0
   59.0050   30.3540   44.7440 H   0  0  0  0  0  0  0  0  0  0  0  0
   58.9981   32.4836   43.8357 H   0  0  0  0  0  0  0  0  0  0  0  0
   57.3766   32.1116   43.1387 H   0  0  0  0  0  0  0  0  0  0  0  0
   56.9335   33.9485   44.5428 H   0  0  0  0  0  0  0  0  0  0  0  0
   56.5070   32.5300   45.5736 H   0  0  0  0  0  0  0  0  0  0  0  0
   57.3130   32.4866   47.7296 H   0  0  0  0  0  0  0  0  0  0  0  0
   60.7534   32.8832   50.8626 H   0  0  0  0  0  0  0  0  0  0  0  0
   60.1969   34.5668   50.5652 H   0  0  0  0  0  0  0  0  0  0  0  0
   59.9055   33.7943   52.9608 H   0  0  0  0  0  0  0  0  0  0  0  0
   58.3730   34.3097   52.1554 H   0  0  0  0  0  0  0  0  0  0  0  0
   57.0637   31.0831   51.7993 H   0  0  0  0  0  0  0  0  0  0  0  0
   56.8505   32.8564   51.5315 H   0  0  0  0  0  0  0  0  0  0  0  0
   58.7610   30.9788   50.0503 H   0  0  0  0  0  0  0  0  0  0  0  0
   57.3097   31.8060   49.3851 H   0  0  0  0  0  0  0  0  0  0  0  0
   60.9694   34.5558   48.7833 H   0  0  0  0  0  0  0  0  0  0  0  0
   61.2571   35.2536   46.4116 H   0  0  0  0  0  0  0  0  0  0  0  0
   61.3191   30.7331   45.6971 H   0  0  0  0  0  0  0  0  0  0  0  0
  1  2  3  0
  2  3  1  0
  3  4  2  0
  4  5  1  0
  5  6  2  0
  6  7  1  0
  7  8  1  0
  8  9  1  0
  9 10  2  0
 10 11  1  0
 11 12  2  0
 11 13  1  0
 13 14  1  0
 14 15  1  0
 15 16  1  0
 16 17  2  0
 17 18  1  0
 18 19  1  0
 19 20  1  0
 20 21  1  0
 21 22  1  0
 22 23  1  0
 23 24  1  0
 18 25  2  0
 25 26  1  0
 26 27  2  0
 27 28  1  0
 10 29  1  0
 29 30  1  0
 30 31  2  0
 30 32  1  0
 32 33  1  0
 33 34  2  0
  7 35  2  0
 35  3  1  0
 33  9  1  0
 27 16  1  0
 24 19  1  0
  4 36  1  0
  5 37  1  0
  6 38  1  0
  8 39  1  0
 13 40  1  0
 14 41  1  0
 14 42  1  0
 15 43  1  0
 15 44  1  0
 17 45  1  0
 20 46  1  0
 20 47  1  0
 21 48  1  0
 21 49  1  0
 23 50  1  0
 23 51  1  0
 24 52  1  0
 24 53  1  0
 25 54  1  0
 26 55  1  0
 35 56  1  0
M  CHG  2  29  -1  32  -1
M  END
>  <UniqueID>  (25) 
23

>  <SMILES>  (25) 
N#Cc1cccc(Nc2c(C(=O)NCCc3cc(N4CCOCC4)ccc3F)[n-]c(=O)[n-]c2=O)c1

>  <Energy>  (25) 
70.6813503912421

>  <Genealogy>  (25) 
N#Cc1cccc(Nc2c(C(=O)NCCc3cc(N4CCOCC4)ccc3F)[n-]c(=O)[n-]c2=O)c1 (protonated)
N#Cc1cccc(Nc2c(C(=O)NCCc3cc(N4CCOCC4)ccc3F)[n-]c(=O)[n-]c2=O)c1 (3D coordinates assigned)
N#Cc1cccc(Nc2c(C(=O)NCCc3cc(N4CCOCC4)ccc3F)[n-]c(=O)[n-]c2=O)c1 (nonaromatic ring conformer: 70.6813503912421 kcal/mol)

>  <smiles>  (25) 
N#Cc1cccc(Nc2c(C(=O)NCCc3cc(N4CCOCC4)ccc3F)[nH]c(=O)[nH]c2=O)c1

>  <score_type>  (25) 
oracle

>  <origin>  (25) 
adg

>  <m_score__min__energy>  (25) 
-13.640000000000001

>  <m_primary>  (25) 
energy

$$$$
25:0
     RDKit          3D

 58 60  0  0  0  0  0  0  0  0999 V2000
   58.4910   21.8630   44.1540 C   0  0  0  0  0  0  0  0  0  0  0  0
   58.2550   23.0100   45.1490 C   0  0  0  0  0  0  0  0  0  0  0  0
   57.2520   24.0110   44.7150 N   0  0  0  0  0  0  0  0  0  0  0  0
   56.4760   23.6620   43.5140 C   0  0  0  0  0  0  0  0  0  0  0  0
   56.4530   24.6250   45.7980 C   0  0  0  0  0  0  0  0  0  0  0  0
   57.2750   25.4720   46.7830 C   0  0  0  0  0  0  0  0  0  0  0  0
   57.9080   26.5980   46.0740 N   0  0  0  0  0  0  0  0  0  0  0  0
   59.2650   26.6030   45.9240 C   0  0  0  0  0  0  0  0  0  0  0  0
   59.8780   27.6010   45.2450 N   0  0  0  0  0  0  0  0  0  0  0  0
   59.1700   28.6150   44.6930 C   0  0  0  0  0  0  0  0  0  0  0  0
   57.7740   28.6500   44.8090 C   0  0  0  0  0  0  0  0  0  0  0  0
   57.0100   29.7660   44.1870 C   0  0  0  0  0  0  0  0  0  0  0  0
   56.7260   29.7190   42.9600 O   0  0  0  0  0  0  0  0  0  0  0  0
   56.6470   30.9210   44.9570 N   0  0  0  0  0  0  0  0  0  0  0  0
   57.5030   32.0160   45.3110 C   0  0  0  0  0  0  0  0  0  0  0  0
   57.2850   33.3180   44.8280 C   0  0  0  0  0  0  0  0  0  0  0  0
   58.1330   34.3580   45.2100 C   0  0  0  0  0  0  0  0  0  0  0  0
   59.1890   34.1190   46.0920 C   0  0  0  0  0  0  0  0  0  0  0  0
   59.3990   32.8320   46.6180 C   0  0  0  0  0  0  0  0  0  0  0  0
   60.5150   32.6040   47.5690 C   0  0  0  0  0  0  0  0  0  0  0  0
   60.7480   31.4270   47.9620 O   0  0  0  0  0  0  0  0  0  0  0  0
   61.3260   33.6940   48.0470 N   0  0  0  0  0  0  0  0  0  0  0  0
   62.5210   33.5240   48.8280 C   0  0  0  0  0  0  0  0  0  0  0  0
   63.7380   33.1610   48.2320 C   0  0  0  0  0  0  0  0  0  0  0  0
   64.8930   33.0410   49.0050 C   0  0  0  0  0  0  0  0  0  0  0  0
   64.8560   33.2920   50.3810 C   0  0  0  0  0  0  0  0  0  0  0  0
   66.3570   33.1380   51.2890 Cl  0  0  0  0  0  0  0  0  0  0  0  0
   63.6430   33.6720   50.9990 C   0  0  0  0  0  0  0  0  0  0  0  0
   63.5890   33.9640   52.4840 C   0  0  0  0  0  0  0  0  0  0  0  0
   62.2770   34.1480   52.8770 F   0  0  0  0  0  0  0  0  0  0  0  0
   64.1270   32.8990   53.1830 F   0  0  0  0  0  0  0  0  0  0  0  0
   64.3010   35.1040   52.8100 F   0  0  0  0  0  0  0  0  0  0  0  0
   62.4860   33.7950   50.2040 C   0  0  0  0  0  0  0  0  0  0  0  0
   58.5490   31.7850   46.2160 C   0  0  0  0  0  0  0  0  0  0  0  0
   57.1510   27.5970   45.5160 C   0  0  0  0  0  0  0  0  0  0  0  0
   55.8930   27.5670   45.6260 O   0  0  0  0  0  0  0  0  0  0  0  0
   58.6826   20.9316   44.7069 H   0  0  0  0  0  0  0  0  0  0  0  0
   57.5999   21.7372   43.5214 H   0  0  0  0  0  0  0  0  0  0  0  0
   59.3594   22.0992   43.5214 H   0  0  0  0  0  0  0  0  0  0  0  0
   57.9145   22.5740   46.0997 H   0  0  0  0  0  0  0  0  0  0  0  0
   59.2112   23.5467   45.2363 H   0  0  0  0  0  0  0  0  0  0  0  0
   55.5109   23.2280   43.8143 H   0  0  0  0  0  0  0  0  0  0  0  0
   56.3002   24.5677   42.9150 H   0  0  0  0  0  0  0  0  0  0  0  0
   57.0370   22.9295   42.9150 H   0  0  0  0  0  0  0  0  0  0  0  0
   55.6899   25.2715   45.3401 H   0  0  0  0  0  0  0  0  0  0  0  0
   56.0175   23.7981   46.3781 H   0  0  0  0  0  0  0  0  0  0  0  0
   56.6117   25.8630   47.5686 H   0  0  0  0  0  0  0  0  0  0  0  0
   58.0574   24.8436   47.2335 H   0  0  0  0  0  0  0  0  0  0  0  0
   59.8650   25.7897   46.3583 H   0  0  0  0  0  0  0  0  0  0  0  0
   59.6939   29.4158   44.1505 H   0  0  0  0  0  0  0  0  0  0  0  0
   56.4441   33.5173   44.1475 H   0  0  0  0  0  0  0  0  0  0  0  0
   57.9690   35.3712   44.8145 H   0  0  0  0  0  0  0  0  0  0  0  0
   59.8605   34.9424   46.3769 H   0  0  0  0  0  0  0  0  0  0  0  0
   61.0260   34.6750   47.8530 H   0  0  0  0  0  0  0  0  0  0  0  0
   63.7817   32.9700   47.1496 H   0  0  0  0  0  0  0  0  0  0  0  0
   65.8401   32.7468   48.5291 H   0  0  0  0  0  0  0  0  0  0  0  0
   61.5401   34.1086   50.6699 H   0  0  0  0  0  0  0  0  0  0  0  0
   58.7070   30.7728   46.6166 H   0  0  0  0  0  0  0  0  0  0  0  0
  1  2  1  0
  2  3  1  0
  3  4  1  0
  3  5  1  0
  5  6  1  0
  6  7  1  0
  7  8  1  0
  8  9  2  0
  9 10  1  0
 10 11  2  0
 11 12  1  0
 12 13  2  0
 12 14  1  0
 14 15  1  0
 15 16  2  0
 16 17  1  0
 17 18  2  0
 18 19  1  0
 19 20  1  0
 20 21  2  0
 20 22  1  0
 22 23  1  0
 23 24  2  0
 24 25  1  0
 25 26  2  0
 26 27  1  0
 26 28  1  0
 28 29  1  0
 29 30  1  0
 29 31  1  0
 29 32  1  0
 28 33  2  0
 19 34  2  0
 11 35  1  0
 35 36  2  0
 35  7  1  0
 34 15  1  0
 33 23  1  0
  1 37  1  0
  1 38  1  0
  1 39  1  0
  2 40  1  0
  2 41  1  0
  4 42  1  0
  4 43  1  0
  4 44  1  0
  5 45  1  0
  5 46  1  0
  6 47  1  0
  6 48  1  0
  8 49  1  0
 10 50  1  0
 16 51  1  0
 17 52  1  0
 18 53  1  0
 22 54  1  0
 24 55  1  0
 25 56  1  0
 33 57  1  0
 34 58  1  0
M  CHG  1  14  -1
M  END
>  <UniqueID>  (26) 
24

>  <SMILES>  (26) 
CCN(C)CCn1cncc(C(=O)[N-]c2cccc(C(=O)Nc3ccc(Cl)c(C(F)(F)F)c3)c2)c1=O

>  <Energy>  (26) 
83.94979159505351

>  <Genealogy>  (26) 
CCN(C)CCn1cncc(C(=O)[N-]c2cccc(C(=O)Nc3ccc(Cl)c(C(F)(F)F)c3)c2)c1=O (protonated)
CCN(C)CCn1cncc(C(=O)[N-]c2cccc(C(=O)Nc3ccc(Cl)c(C(F)(F)F)c3)c2)c1=O (3D coordinates assigned)
CCN(C)CCn1cncc(C(=O)[N-]c2cccc(C(=O)Nc3ccc(Cl)c(C(F)(F)F)c3)c2)c1=O (optimized conformer: 83.94979159505351 kcal/mol)

>  <smiles>  (26) 
CCN(C)CCn1cncc(C(=O)Nc2cccc(C(=O)Nc3ccc(Cl)c(C(F)(F)F)c3)c2)c1=O

>  <score_type>  (26) 
oracle

>  <origin>  (26) 
adg

>  <m_score__min__energy>  (26) 
-9.6400000000000006

>  <m_primary>  (26) 
energy

$$$$
26:0
     RDKit          3D

 47 50  0  0  0  0  0  0  0  0999 V2000
   59.1610   28.0011   49.7380 H   0  0  0  0  0  0  0  0  0  0  0  0
   59.7840   28.7300   49.1990 C   0  0  0  0  0  0  0  0  0  0  0  0
   60.8090   29.8630   49.9050 S   0  0  0  0  0  0  0  0  0  0  0  0
   61.2950   30.4980   48.4210 C   0  0  0  0  0  0  0  0  0  0  0  0
   62.1570   31.4540   48.2410 N   0  0  0  0  0  0  0  0  0  0  0  0
   62.0030   32.5690   47.3490 C   0  0  0  0  0  0  0  0  0  0  0  0
   63.0390   33.1270   46.9000 O   0  0  0  0  0  0  0  0  0  0  0  0
   60.6690   33.0280   46.8900 C   0  0  0  0  0  0  0  0  0  0  0  0
   60.1620   34.2660   47.3170 C   0  0  0  0  0  0  0  0  0  0  0  0
   60.7578   34.8974   47.9925 H   0  0  0  0  0  0  0  0  0  0  0  0
   58.9060   34.7000   46.8890 C   0  0  0  0  0  0  0  0  0  0  0  0
   58.5154   35.6701   47.2301 H   0  0  0  0  0  0  0  0  0  0  0  0
   58.1440   33.9060   46.0290 C   0  0  0  0  0  0  0  0  0  0  0  0
   57.1525   34.2521   45.7016 H   0  0  0  0  0  0  0  0  0  0  0  0
   58.6340   32.6690   45.5790 C   0  0  0  0  0  0  0  0  0  0  0  0
   57.8210   31.8140   44.6790 C   0  0  0  0  0  0  0  0  0  0  0  0
   57.8360   32.0220   43.2860 C   0  0  0  0  0  0  0  0  0  0  0  0
   58.4560   32.8245   42.8598 H   0  0  0  0  0  0  0  0  0  0  0  0
   57.0680   31.2150   42.4420 C   0  0  0  0  0  0  0  0  0  0  0  0
   57.0858   31.3844   41.3553 H   0  0  0  0  0  0  0  0  0  0  0  0
   56.2780   30.1940   42.9750 C   0  0  0  0  0  0  0  0  0  0  0  0
   55.6760   29.5596   42.3079 H   0  0  0  0  0  0  0  0  0  0  0  0
   56.2520   29.9780   44.3550 C   0  0  0  0  0  0  0  0  0  0  0  0
   55.4630   28.9650   44.8840 O   0  0  0  0  0  0  0  0  0  0  0  0
   57.0200   30.7820   45.2050 C   0  0  0  0  0  0  0  0  0  0  0  0
   56.9978   30.6067   46.2907 H   0  0  0  0  0  0  0  0  0  0  0  0
   59.9070   32.2450   46.0030 C   0  0  0  0  0  0  0  0  0  0  0  0
   60.3115   31.2899   45.6367 H   0  0  0  0  0  0  0  0  0  0  0  0
   60.7070   29.8570   47.3910 N   0  0  0  0  0  0  0  0  0  0  0  0
   59.8600   28.8740   47.8080 C   0  0  0  0  0  0  0  0  0  0  0  0
   59.0940   28.0500   46.8330 C   0  0  0  0  0  0  0  0  0  0  0  0
   59.4740   28.0430   45.4770 C   0  0  0  0  0  0  0  0  0  0  0  0
   60.3415   28.6356   45.1510 H   0  0  0  0  0  0  0  0  0  0  0  0
   58.7600   27.2910   44.5430 C   0  0  0  0  0  0  0  0  0  0  0  0
   59.0594   27.3040   43.4846 H   0  0  0  0  0  0  0  0  0  0  0  0
   57.6680   26.5230   44.9470 C   0  0  0  0  0  0  0  0  0  0  0  0
   57.0995   25.9455   44.2032 H   0  0  0  0  0  0  0  0  0  0  0  0
   57.2930   26.4840   46.2930 C   0  0  0  0  0  0  0  0  0  0  0  0
   56.1540   25.6970   46.6710 N   0  0  0  0  0  0  0  0  0  0  0  0
   55.1090   25.2340   45.8070 C   0  0  0  0  0  0  0  0  0  0  0  0
   54.0610   25.9230   45.6960 O   0  0  0  0  0  0  0  0  0  0  0  0
   55.2400   23.9780   45.0000 C   0  0  0  0  0  0  0  0  0  0  0  0
   55.3300   23.1153   45.6764 H   0  0  0  0  0  0  0  0  0  0  0  0
   54.3498   23.8553   44.3656 H   0  0  0  0  0  0  0  0  0  0  0  0
   56.1364   24.0416   44.3656 H   0  0  0  0  0  0  0  0  0  0  0  0
   57.9920   27.2660   47.2300 C   0  0  0  0  0  0  0  0  0  0  0  0
   57.6754   27.2658   48.2835 H   0  0  0  0  0  0  0  0  0  0  0  0
  1  2  1  0
  2  3  1  0
  3  4  1  0
  4  5  2  0
  5  6  1  0
  6  7  2  0
  6  8  1  0
  8  9  2  0
  9 10  1  0
  9 11  1  0
 11 12  1  0
 11 13  2  0
 13 14  1  0
 13 15  1  0
 15 16  1  0
 16 17  2  0
 17 18  1  0
 17 19  1  0
 19 20  1  0
 19 21  2  0
 21 22  1  0
 21 23  1  0
 23 24  1  0
 23 25  2  0
 25 26  1  0
 15 27  2  0
 27 28  1  0
  4 29  1  0
 29 30  1  0
 30 31  1  0
 31 32  2  0
 32 33  1  0
 32 34  1  0
 34 35  1  0
 34 36  2  0
 36 37  1  0
 36 38  1  0
 38 39  1  0
 39 40  1  0
 40 41  2  0
 40 42  1  0
 42 43  1  0
 42 44  1  0
 42 45  1  0
 38 46  2  0
 46 47  1  0
 30  2  2  0
 46 31  1  0
 27  8  1  0
 25 16  1  0
M  CHG  3  24  -1  29  -1  39  -1
M  END
>  <UniqueID>  (27) 
25

>  <SMILES>  (27) 
CC(=O)[N-]c1cccc(-c2cs/c(=N\C(=O)c3cccc(-c4cccc([O-])c4)c3)[n-]2)c1

>  <Energy>  (27) 
100.7191476670949

>  <Genealogy>  (27) 
CC(=O)[N-]c1cccc(-c2csc(=NC(=O)c3cccc(-c4cccc([O-])c4)c3)[n-]2)c1 (protonated)
CC(=O)[N-]c1cccc(-c2cs/c(=N\C(=O)c3cccc(-c4cccc([O-])c4)c3)[n-]2)c1 (cis-trans isomerization)
CC(=O)[N-]c1cccc(-c2cs/c(=N\C(=O)c3cccc(-c4cccc([O-])c4)c3)[n-]2)c1 (3D coordinates assigned)
CC(=O)[N-]c1cccc(-c2cs/c(=N\C(=O)c3cccc(-c4cccc([O-])c4)c3)[n-]2)c1 (optimized conformer: 100.7191476670949 kcal/mol)

>  <smiles>  (27) 
CC(=O)Nc1cccc(-c2csc(=NC(=O)c3cccc(-c4cccc(O)c4)c3)[nH]2)c1

>  <score_type>  (27) 
oracle

>  <origin>  (27) 
adg

>  <m_score__min__energy>  (27) 
-16.93

>  <m_primary>  (27) 
energy

$$$$
27:0
     RDKit          3D

 46 49  0  0  0  0  0  0  0  0999 V2000
   52.6258   28.6267   54.1117 H   0  0  0  0  0  0  0  0  0  0  0  0
   53.6920   28.4120   53.9470 C   0  0  0  0  0  0  0  0  0  0  0  0
   54.1695   27.5677   54.4658 H   0  0  0  0  0  0  0  0  0  0  0  0
   54.4120   29.1820   53.1110 C   0  0  0  0  0  0  0  0  0  0  0  0
   55.7720   28.8550   52.9430 C   0  0  0  0  0  0  0  0  0  0  0  0
   56.1452   27.8862   53.3064 H   0  0  0  0  0  0  0  0  0  0  0  0
   56.6520   29.7410   52.3230 C   0  0  0  0  0  0  0  0  0  0  0  0
   57.7076   29.4615   52.1907 H   0  0  0  0  0  0  0  0  0  0  0  0
   56.1980   30.9850   51.8680 C   0  0  0  0  0  0  0  0  0  0  0  0
   57.0550   31.9380   51.2930 O   0  0  0  0  0  0  0  0  0  0  0  0
   58.4770   31.8240   51.2040 C   0  0  0  0  0  0  0  0  0  0  0  0
   58.9242   32.8264   51.2760 H   0  0  0  0  0  0  0  0  0  0  0  0
   58.8315   31.1862   52.0271 H   0  0  0  0  0  0  0  0  0  0  0  0
   58.8830   31.1950   49.8970 C   0  0  0  0  0  0  0  0  0  0  0  0
   59.6160   29.9980   49.8820 C   0  0  0  0  0  0  0  0  0  0  0  0
   59.9008   29.5175   50.8296 H   0  0  0  0  0  0  0  0  0  0  0  0
   59.9850   29.4150   48.6670 C   0  0  0  0  0  0  0  0  0  0  0  0
   60.5603   28.4775   48.6606 H   0  0  0  0  0  0  0  0  0  0  0  0
   59.6250   30.0200   47.4600 C   0  0  0  0  0  0  0  0  0  0  0  0
   59.9133   29.5532   46.5066 H   0  0  0  0  0  0  0  0  0  0  0  0
   58.8970   31.2210   47.4580 C   0  0  0  0  0  0  0  0  0  0  0  0
   58.4990   31.8660   46.1880 C   0  0  0  0  0  0  0  0  0  0  0  0
   59.2360   32.7620   45.6990 O   0  0  0  0  0  0  0  0  0  0  0  0
   57.3150   31.4850   45.4750 N   0  0  0  0  0  0  0  0  0  0  0  0
   57.3150   30.7090   44.2420 C   0  0  0  0  0  0  0  0  0  0  0  0
   58.0527   31.3066   43.6863 H   0  0  0  0  0  0  0  0  0  0  0  0
   57.0880   29.2230   44.4500 C   0  0  0  0  0  0  0  0  0  0  0  0
   57.5622   28.4944   43.7759 H   0  0  0  0  0  0  0  0  0  0  0  0
   57.2157   28.5268   45.2920 H   0  0  0  0  0  0  0  0  0  0  0  0
   55.9560   30.1020   43.9440 C   0  0  0  0  0  0  0  0  0  0  0  0
   55.6108   30.0098   42.9036 H   0  0  0  0  0  0  0  0  0  0  0  0
   54.9247   30.3059   44.2679 H   0  0  0  0  0  0  0  0  0  0  0  0
   58.5090   31.7900   48.6810 C   0  0  0  0  0  0  0  0  0  0  0  0
   57.9065   32.7103   48.6872 H   0  0  0  0  0  0  0  0  0  0  0  0
   54.8410   31.2960   51.9710 C   0  0  0  0  0  0  0  0  0  0  0  0
   54.4885   32.2783   51.6234 H   0  0  0  0  0  0  0  0  0  0  0  0
   53.9090   30.3820   52.5100 C   0  0  0  0  0  0  0  0  0  0  0  0
   52.5960   30.7070   52.3910 C   0  0  0  0  0  0  0  0  0  0  0  0
   52.0164   30.7925   53.3220 H   0  0  0  0  0  0  0  0  0  0  0  0
   51.8750   30.9560   51.1280 C   0  0  0  0  0  0  0  0  0  0  0  0
   51.8920   30.1400   50.0560 N   0  0  0  0  0  0  0  0  0  0  0  0
   51.2020   30.8330   49.1250 C   0  0  0  0  0  0  0  0  0  0  0  0
   50.9860   30.3870   47.9690 O   0  0  0  0  0  0  0  0  0  0  0  0
   50.7670   32.0470   49.5280 N   0  0  0  0  0  0  0  0  0  0  0  0
   51.2130   32.1120   50.7930 C   0  0  0  0  0  0  0  0  0  0  0  0
   51.0210   33.2090   51.6240 O   0  0  0  0  0  0  0  0  0  0  0  0
  1  2  1  0
  2  3  1  0
  2  4  2  0
  4  5  1  0
  5  6  1  0
  5  7  2  0
  7  8  1  0
  7  9  1  0
  9 10  1  0
 10 11  1  0
 11 12  1  0
 11 13  1  0
 11 14  1  0
 14 15  2  0
 15 16  1  0
 15 17  1  0
 17 18  1  0
 17 19  2  0
 19 20  1  0
 19 21  1  0
 21 22  1  0
 22 23  2  0
 22 24  1  0
 24 25  1  0
 25 26  1  0
 25 27  1  0
 27 28  1  0
 27 29  1  0
 27 30  1  0
 30 31  1  0
 30 32  1  0
 21 33  2  0
 33 34  1  0
  9 35  2  0
 35 36  1  0
 35 37  1  0
 37 38  2  0
 38 39  1  0
 38 40  1  0
 40 41  1  0
 41 42  1  0
 42 43  2  0
 42 44  1  0
 44 45  1  0
 45 46  1  0
 37  4  1  0
 45 40  2  0
 33 14  1  0
 30 25  1  0
M  CHG  4  24  -1  41  -1  44  -1  46  -1
M  END
>  <UniqueID>  (28) 
26

>  <SMILES>  (28) 
C=c1ccc(OCc2cccc(C(=O)[N-]C3CC3)c2)c/c1=C/c1[n-]c(=O)[n-]c1[O-]

>  <Energy>  (28) 
366.4387590054927

>  <Genealogy>  (28) 
C=c1ccc(OCc2cccc(C(=O)[N-]C3CC3)c2)cc1=Cc1[n-]c(=O)[n-]c1[O-] (protonated)
C=c1ccc(OCc2cccc(C(=O)[N-]C3CC3)c2)c/c1=C/c1[n-]c(=O)[n-]c1[O-] (cis-trans isomerization)
C=c1ccc(OCc2cccc(C(=O)[N-]C3CC3)c2)c/c1=C/c1[n-]c(=O)[n-]c1[O-] (3D coordinates assigned)
C=c1ccc(OCc2cccc(C(=O)[N-]C3CC3)c2)c/c1=C/c1[n-]c(=O)[n-]c1[O-] (nonaromatic ring conformer: 366.4387590054927 kcal/mol)

>  <smiles>  (28) 
C=c1ccc(OCc2cccc(C(=O)NC3CC3)c2)cc1=Cc1[nH]c(=O)[nH]c1O

>  <score_type>  (28) 
oracle

>  <origin>  (28) 
adg

>  <m_score__min__energy>  (28) 
-18.949999999999999

>  <m_primary>  (28) 
energy

$$$$
28:0
     RDKit          3D

 49 52  0  0  0  0  0  0  0  0999 V2000
   58.3610   34.5460   44.8660 C   0  0  0  0  0  0  0  0  0  0  0  0
   58.6520   34.0410   46.2480 C   0  0  0  0  0  0  0  0  0  0  0  0
   57.8590   33.0340   46.8190 C   0  0  0  0  0  0  0  0  0  0  0  0
   58.1710   32.5270   48.0810 C   0  0  0  0  0  0  0  0  0  0  0  0
   59.2720   33.0210   48.7850 C   0  0  0  0  0  0  0  0  0  0  0  0
   60.0630   34.0470   48.2380 C   0  0  0  0  0  0  0  0  0  0  0  0
   61.2460   34.5880   49.0130 C   0  0  0  0  0  0  0  0  0  0  0  0
   62.4970   33.8240   48.8010 N   0  0  0  0  0  0  0  0  0  0  0  0
   62.8800   32.9060   49.9020 C   0  0  0  0  0  0  0  0  0  0  0  0
   63.1940   31.4870   49.4170 C   0  0  0  0  0  0  0  0  0  0  0  0
   62.2150   31.1030   48.3990 N   0  0  0  0  0  0  0  0  0  0  0  0
   61.1550   30.1750   48.7220 C   0  0  0  0  0  0  0  0  0  0  0  0
   60.8910   29.9280   49.9300 O   0  0  0  0  0  0  0  0  0  0  0  0
   60.3330   29.5210   47.6840 C   0  0  0  0  0  0  0  0  0  0  0  0
   60.5200   29.6110   46.3040 C   0  0  0  0  0  0  0  0  0  0  0  0
   59.5240   28.8320   45.7580 C   0  0  0  0  0  0  0  0  0  0  0  0
   59.2190   28.5530   44.4280 C   0  0  0  0  0  0  0  0  0  0  0  0
   58.1220   27.7030   44.1660 C   0  0  0  0  0  0  0  0  0  0  0  0
   57.7690   27.3910   42.8560 O   0  0  0  0  0  0  0  0  0  0  0  0
   57.3730   27.1630   45.2370 C   0  0  0  0  0  0  0  0  0  0  0  0
   57.7100   27.4620   46.5690 C   0  0  0  0  0  0  0  0  0  0  0  0
   58.7980   28.3050   46.7920 C   0  0  0  0  0  0  0  0  0  0  0  0
   59.2880   28.7080   47.9740 N   0  0  0  0  0  0  0  0  0  0  0  0
   62.1630   31.9220   47.1810 C   0  0  0  0  0  0  0  0  0  0  0  0
   62.7300   33.3370   47.4220 C   0  0  0  0  0  0  0  0  0  0  0  0
   59.7590   34.5330   46.9550 C   0  0  0  0  0  0  0  0  0  0  0  0
   57.8128   35.4974   44.9312 H   0  0  0  0  0  0  0  0  0  0  0  0
   59.3066   34.7039   44.3266 H   0  0  0  0  0  0  0  0  0  0  0  0
   57.7502   33.8071   44.3266 H   0  0  0  0  0  0  0  0  0  0  0  0
   56.9893   32.6433   46.2704 H   0  0  0  0  0  0  0  0  0  0  0  0
   57.5479   31.7356   48.5231 H   0  0  0  0  0  0  0  0  0  0  0  0
   59.5215   32.6052   49.7724 H   0  0  0  0  0  0  0  0  0  0  0  0
   61.4180   35.6290   48.7020 H   0  0  0  0  0  0  0  0  0  0  0  0
   60.9957   34.5046   50.0809 H   0  0  0  0  0  0  0  0  0  0  0  0
   63.7724   33.3111   50.4016 H   0  0  0  0  0  0  0  0  0  0  0  0
   62.0216   32.8372   50.5864 H   0  0  0  0  0  0  0  0  0  0  0  0
   64.2051   31.4605   48.9847 H   0  0  0  0  0  0  0  0  0  0  0  0
   63.1443   30.7859   50.2631 H   0  0  0  0  0  0  0  0  0  0  0  0
   61.2943   30.1802   45.7688 H   0  0  0  0  0  0  0  0  0  0  0  0
   59.8137   28.9811   43.6076 H   0  0  0  0  0  0  0  0  0  0  0  0
   56.8290   27.0960   42.6180 H   0  0  0  0  0  0  0  0  0  0  0  0
   56.5187   26.5029   45.0261 H   0  0  0  0  0  0  0  0  0  0  0  0
   57.1340   27.0444   47.4079 H   0  0  0  0  0  0  0  0  0  0  0  0
   58.9300   28.4510   48.9210 H   0  0  0  0  0  0  0  0  0  0  0  0
   62.7542   31.4299   46.3946 H   0  0  0  0  0  0  0  0  0  0  0  0
   61.1102   32.0207   46.8780 H   0  0  0  0  0  0  0  0  0  0  0  0
   63.8138   33.3173   47.2351 H   0  0  0  0  0  0  0  0  0  0  0  0
   62.2089   34.0224   46.7374 H   0  0  0  0  0  0  0  0  0  0  0  0
   60.3953   35.3068   46.5008 H   0  0  0  0  0  0  0  0  0  0  0  0
  1  2  1  0
  2  3  2  0
  3  4  1  0
  4  5  2  0
  5  6  1  0
  6  7  1  0
  7  8  1  0
  8  9  1  0
  9 10  1  0
 10 11  1  0
 11 12  1  0
 12 13  2  0
 12 14  1  0
 14 15  2  0
 15 16  1  0
 16 17  2  0
 17 18  1  0
 18 19  1  0
 18 20  2  0
 20 21  1  0
 21 22  2  0
 22 23  1  0
 11 24  1  0
 24 25  1  0
  6 26  2  0
 26  2  1  0
 25  8  1  0
 23 14  1  0
 22 16  1  0
  1 27  1  0
  1 28  1  0
  1 29  1  0
  3 30  1  0
  4 31  1  0
  5 32  1  0
  7 33  1  0
  7 34  1  0
  9 35  1  0
  9 36  1  0
 10 37  1  0
 10 38  1  0
 15 39  1  0
 17 40  1  0
 19 41  1  0
 20 42  1  0
 21 43  1  0
 23 44  1  0
 24 45  1  0
 24 46  1  0
 25 47  1  0
 25 48  1  0
 26 49  1  0
M  END
>  <UniqueID>  (29) 
27

>  <SMILES>  (29) 
Cc1cccc(CN2CCN(C(=O)c3cc4cc(O)ccc4[nH]3)CC2)c1

>  <Energy>  (29) 
95.86214301208351

>  <Genealogy>  (29) 
Cc1cccc(CN2CCN(C(=O)c3cc4cc(O)ccc4[nH]3)CC2)c1 (3D coordinates assigned)
Cc1cccc(CN2CCN(C(=O)c3cc4cc(O)ccc4[nH]3)CC2)c1 (nonaromatic ring conformer: 95.86214301208351 kcal/mol)

>  <smiles>  (29) 
Cc1cccc(CN2CCN(C(=O)c3cc4cc(O)ccc4[nH]3)CC2)c1

>  <score_type>  (29) 
oracle

>  <origin>  (29) 
adg

>  <m_score__min__energy>  (29) 
-7.6100000000000003

>  <m_primary>  (29) 
energy

$$$$
29:0
     RDKit          3D

 52 55  0  0  0  0  0  0  0  0999 V2000
   60.1230   29.0330   44.7580 C   0  0  0  0  0  0  0  0  0  0  0  0
   58.9410   28.9980   45.6430 N   0  0  1  0  0  0  0  0  0  0  0  0
   57.6530   28.9280   44.9040 C   0  0  1  0  0  0  0  0  0  0  0  0
   57.2980   30.2300   44.1900 C   0  0  0  0  0  0  0  0  0  0  0  0
   57.3570   30.3000   42.9330 O   0  0  0  0  0  0  0  0  0  0  0  0
   56.8990   31.4040   44.9140 N   0  0  0  0  0  0  0  0  0  0  0  0
   57.7690   32.4530   45.3520 C   0  0  0  0  0  0  0  0  0  0  0  0
   58.0020   33.5850   44.5570 C   0  0  0  0  0  0  0  0  0  0  0  0
   58.8540   34.5970   45.0080 C   0  0  0  0  0  0  0  0  0  0  0  0
   59.4650   34.4910   46.2600 C   0  0  0  0  0  0  0  0  0  0  0  0
   59.2220   33.3750   47.0730 C   0  0  0  0  0  0  0  0  0  0  0  0
   59.9760   33.2510   48.6660 S   0  0  0  0  0  0  0  0  0  0  0  0
   59.8960   34.5870   49.3500 O   0  0  0  0  0  0  0  0  0  0  0  0
   59.2070   32.2590   49.4930 O   0  0  0  0  0  0  0  0  0  0  0  0
   61.6490   32.7520   48.5880 N   0  0  0  0  0  0  0  0  0  0  0  0
   61.8940   31.8220   47.4890 C   0  0  0  0  0  0  0  0  0  0  0  0
   63.3770   31.9200   47.1920 C   0  0  0  0  0  0  0  0  0  0  0  0
   63.7590   33.3350   47.5990 C   0  0  0  0  0  0  0  0  0  0  0  0
   62.5560   33.8790   48.3630 C   0  0  0  0  0  0  0  0  0  0  0  0
   58.3550   32.3690   46.6220 C   0  0  0  0  0  0  0  0  0  0  0  0
   57.6150   27.7110   43.9940 C   0  0  0  0  0  0  0  0  0  0  0  0
   57.4490   27.8420   42.7490 O   0  0  0  0  0  0  0  0  0  0  0  0
   57.8190   26.3590   44.5680 C   0  0  0  0  0  0  0  0  0  0  0  0
   57.3950   25.2190   43.8640 C   0  0  0  0  0  0  0  0  0  0  0  0
   57.5910   23.9420   44.4020 C   0  0  0  0  0  0  0  0  0  0  0  0
   57.0620   22.5250   43.5130 Cl  0  0  0  0  0  0  0  0  0  0  0  0
   58.2110   23.7950   45.6460 C   0  0  0  0  0  0  0  0  0  0  0  0
   58.6410   24.9200   46.3520 C   0  0  0  0  0  0  0  0  0  0  0  0
   58.4550   26.2010   45.8180 C   0  0  0  0  0  0  0  0  0  0  0  0
   59.0430   27.6090   46.6970 S   0  0  0  0  0  0  0  0  0  0  0  0
   58.1810   27.8340   47.9080 O   0  0  0  0  0  0  0  0  0  0  0  0
   60.4660   27.3840   47.1310 O   0  0  0  0  0  0  0  0  0  0  0  0
   61.0376   29.0601   45.3686 H   0  0  0  0  0  0  0  0  0  0  0  0
   60.1324   28.1347   44.1231 H   0  0  0  0  0  0  0  0  0  0  0  0
   60.0793   29.9302   44.1231 H   0  0  0  0  0  0  0  0  0  0  0  0
   58.9510   29.8490   46.2520 H   0  0  0  0  0  0  0  0  0  0  0  0
   56.8551   28.7979   45.6499 H   0  0  0  0  0  0  0  0  0  0  0  0
   57.5128   33.6764   43.5760 H   0  0  0  0  0  0  0  0  0  0  0  0
   59.0437   35.4776   44.3767 H   0  0  0  0  0  0  0  0  0  0  0  0
   60.1396   35.2866   46.6093 H   0  0  0  0  0  0  0  0  0  0  0  0
   61.6296   30.7969   47.7878 H   0  0  0  0  0  0  0  0  0  0  0  0
   61.2859   32.0677   46.6059 H   0  0  0  0  0  0  0  0  0  0  0  0
   63.9403   31.1814   47.7811 H   0  0  0  0  0  0  0  0  0  0  0  0
   63.6046   31.7148   46.1355 H   0  0  0  0  0  0  0  0  0  0  0  0
   64.6500   33.3221   48.2439 H   0  0  0  0  0  0  0  0  0  0  0  0
   64.0037   33.9583   46.7263 H   0  0  0  0  0  0  0  0  0  0  0  0
   62.8792   34.3023   49.3255 H   0  0  0  0  0  0  0  0  0  0  0  0
   62.0574   34.6778   47.7945 H   0  0  0  0  0  0  0  0  0  0  0  0
   58.1335   31.5080   47.2698 H   0  0  0  0  0  0  0  0  0  0  0  0
   56.9064   25.3310   42.8848 H   0  0  0  0  0  0  0  0  0  0  0  0
   58.3604   22.7909   46.0696 H   0  0  0  0  0  0  0  0  0  0  0  0
   59.1276   24.7997   47.3312 H   0  0  0  0  0  0  0  0  0  0  0  0
  1  2  1  0
  2  3  1  0
  3  4  1  0
  4  5  2  0
  4  6  1  0
  6  7  1  0
  7  8  2  0
  8  9  1  0
  9 10  2  0
 10 11  1  0
 11 12  1  0
 12 13  2  0
 12 14  2  0
 12 15  1  0
 15 16  1  0
 16 17  1  0
 17 18  1  0
 18 19  1  0
 11 20  2  0
  3 21  1  0
 21 22  2  0
 21 23  1  0
 23 24  2  0
 24 25  1  0
 25 26  1  0
 25 27  2  0
 27 28  1  0
 28 29  2  0
 29 30  1  0
 30 31  2  0
 30 32  2  0
 30  2  1  0
 20  7  1  0
 29 23  1  0
 19 15  1  0
  1 33  1  0
  1 34  1  0
  1 35  1  0
  2 36  1  1
  3 37  1  1
  8 38  1  0
  9 39  1  0
 10 40  1  0
 16 41  1  0
 16 42  1  0
 17 43  1  0
 17 44  1  0
 18 45  1  0
 18 46  1  0
 19 47  1  0
 19 48  1  0
 20 49  1  0
 24 50  1  0
 27 51  1  0
 28 52  1  0
M  CHG  2   2   1   6  -1
M  END
>  <UniqueID>  (30) 
28

>  <SMILES>  (30) 
C[N@H+]1[C@@H](C(=O)[N-]c2cccc(S(=O)(=O)N3CCCC3)c2)C(=O)c2cc(Cl)ccc2S1(=O)=O

>  <Energy>  (30) 
68.7587707622747

>  <Genealogy>  (30) 
C[NH+]1C(C(=O)[N-]c2cccc(S(=O)(=O)N3CCCC3)c2)C(=O)c2cc(Cl)ccc2S1(=O)=O (protonated)
C[N@H+]1[C@@H](C(=O)[N-]c2cccc(S(=O)(=O)N3CCCC3)c2)C(=O)c2cc(Cl)ccc2S1(=O)=O (chirality)
C[N@H+]1[C@@H](C(=O)[N-]c2cccc(S(=O)(=O)N3CCCC3)c2)C(=O)c2cc(Cl)ccc2S1(=O)=O (3D coordinates assigned)
C[N@H+]1[C@@H](C(=O)[N-]c2cccc(S(=O)(=O)N3CCCC3)c2)C(=O)c2cc(Cl)ccc2S1(=O)=O (nonaromatic ring conformer: 68.7587707622747 kcal/mol)

>  <smiles>  (30) 
CN1C(C(=O)Nc2cccc(S(=O)(=O)N3CCCC3)c2)C(=O)c2cc(Cl)ccc2S1(=O)=O

>  <score_type>  (30) 
oracle

>  <origin>  (30) 
adg

>  <m_score__min__energy>  (30) 
-10.460000000000001

>  <m_primary>  (30) 
energy

$$$$
30:0
     RDKit          3D

 58 61  0  0  0  0  0  0  0  0999 V2000
   59.9730   30.3300   45.8540 C   0  0  0  0  0  0  0  0  0  0  0  0
   59.3270   31.6900   45.8890 C   0  0  0  0  0  0  0  0  0  0  0  0
   59.5670   32.5260   46.9930 C   0  0  0  0  0  0  0  0  0  0  0  0
   58.9680   33.7820   47.0730 C   0  0  0  0  0  0  0  0  0  0  0  0
   58.1240   34.2210   46.0530 C   0  0  0  0  0  0  0  0  0  0  0  0
   57.8810   33.4080   44.9460 C   0  0  0  0  0  0  0  0  0  0  0  0
   58.4800   32.1320   44.8410 C   0  0  0  0  0  0  0  0  0  0  0  0
   58.2230   31.2920   43.6950 N   0  0  0  0  0  0  0  0  0  0  0  0
   56.8370   30.2580   43.5370 S   0  0  0  0  0  0  0  0  0  0  0  0
   55.7750   30.7030   44.5020 O   0  0  0  0  0  0  0  0  0  0  0  0
   56.2960   30.3670   42.1400 O   0  0  0  0  0  0  0  0  0  0  0  0
   57.3030   28.5880   43.8420 C   0  0  0  0  0  0  0  0  0  0  0  0
   57.7650   27.7940   42.7870 C   0  0  0  0  0  0  0  0  0  0  0  0
   58.1380   26.4680   43.0180 C   0  0  0  0  0  0  0  0  0  0  0  0
   58.0450   25.9260   44.3010 C   0  0  0  0  0  0  0  0  0  0  0  0
   57.5670   26.7090   45.3690 C   0  0  0  0  0  0  0  0  0  0  0  0
   57.4630   26.1400   46.7340 C   0  0  0  0  0  0  0  0  0  0  0  0
   56.3620   25.6630   47.1200 O   0  0  0  0  0  0  0  0  0  0  0  0
   58.5610   26.1740   47.6560 N   0  0  0  0  0  0  0  0  0  0  0  0
   59.1790   27.3550   48.1890 C   0  0  0  0  0  0  0  0  0  0  0  0
   58.5230   28.5970   48.1850 C   0  0  0  0  0  0  0  0  0  0  0  0
   59.1490   29.7270   48.7230 C   0  0  0  0  0  0  0  0  0  0  0  0
   60.4450   29.6340   49.2480 C   0  0  0  0  0  0  0  0  0  0  0  0
   61.2240   31.0540   49.9560 S   0  0  0  0  0  0  0  0  0  0  0  0
   61.4890   30.7950   51.4130 O   0  0  0  0  0  0  0  0  0  0  0  0
   60.2900   32.2290   49.8550 O   0  0  0  0  0  0  0  0  0  0  0  0
   62.7340   31.4500   49.1620 N   0  0  0  0  0  0  0  0  0  0  0  0
   62.5980   31.4050   47.6970 C   0  0  0  0  0  0  0  0  0  0  0  0
   63.1910   32.6900   47.1390 C   0  0  0  0  0  0  0  0  0  0  0  0
   63.0740   33.6720   48.2780 C   0  0  0  0  0  0  0  0  0  0  0  0
   63.1930   32.8000   49.5160 C   0  0  0  0  0  0  0  0  0  0  0  0
   61.1070   28.3980   49.2300 C   0  0  0  0  0  0  0  0  0  0  0  0
   60.4810   27.2690   48.6930 C   0  0  0  0  0  0  0  0  0  0  0  0
   57.2090   28.0460   45.1320 C   0  0  0  0  0  0  0  0  0  0  0  0
   60.1406   29.9771   46.8823 H   0  0  0  0  0  0  0  0  0  0  0  0
   59.3138   29.6244   45.3271 H   0  0  0  0  0  0  0  0  0  0  0  0
   60.9364   30.3951   45.3271 H   0  0  0  0  0  0  0  0  0  0  0  0
   60.2327   32.1864   47.8002 H   0  0  0  0  0  0  0  0  0  0  0  0
   59.1612   34.4281   47.9420 H   0  0  0  0  0  0  0  0  0  0  0  0
   57.6489   35.2107   46.1218 H   0  0  0  0  0  0  0  0  0  0  0  0
   57.2157   33.7639   44.1456 H   0  0  0  0  0  0  0  0  0  0  0  0
   58.8760   31.2970   42.8820 H   0  0  0  0  0  0  0  0  0  0  0  0
   57.8347   28.2150   41.7731 H   0  0  0  0  0  0  0  0  0  0  0  0
   58.5061   25.8490   42.1865 H   0  0  0  0  0  0  0  0  0  0  0  0
   58.3463   24.8830   44.4783 H   0  0  0  0  0  0  0  0  0  0  0  0
   57.5131   28.6817   47.7572 H   0  0  0  0  0  0  0  0  0  0  0  0
   58.6216   30.6923   48.7339 H   0  0  0  0  0  0  0  0  0  0  0  0
   63.1415   30.5365   47.2966 H   0  0  0  0  0  0  0  0  0  0  0  0
   61.5400   31.3121   47.4105 H   0  0  0  0  0  0  0  0  0  0  0  0
   64.2438   32.5438   46.8557 H   0  0  0  0  0  0  0  0  0  0  0  0
   62.6759   33.0336   46.2298 H   0  0  0  0  0  0  0  0  0  0  0  0
   63.8849   34.4144   48.2412 H   0  0  0  0  0  0  0  0  0  0  0  0
   62.1378   34.2488   48.2502 H   0  0  0  0  0  0  0  0  0  0  0  0
   64.2410   32.7635   49.8483 H   0  0  0  0  0  0  0  0  0  0  0  0
   62.5830   33.2103   50.3343 H   0  0  0  0  0  0  0  0  0  0  0  0
   62.1242   28.3162   49.6405 H   0  0  0  0  0  0  0  0  0  0  0  0
   61.0153   26.3078   48.6667 H   0  0  0  0  0  0  0  0  0  0  0  0
   56.8526   28.6720   45.9633 H   0  0  0  0  0  0  0  0  0  0  0  0
  1  2  1  0
  2  3  2  0
  3  4  1  0
  4  5  2  0
  5  6  1  0
  6  7  2  0
  7  8  1  0
  8  9  1  0
  9 10  2  0
  9 11  2  0
  9 12  1  0
 12 13  2  0
 13 14  1  0
 14 15  2  0
 15 16  1  0
 16 17  1  0
 17 18  2  0
 17 19  1  0
 19 20  1  0
 20 21  2  0
 21 22  1  0
 22 23  2  0
 23 24  1  0
 24 25  2  0
 24 26  2  0
 24 27  1  0
 27 28  1  0
 28 29  1  0
 29 30  1  0
 30 31  1  0
 23 32  1  0
 32 33  2  0
 16 34  2  0
  7  2  1  0
 34 12  1  0
 33 20  1  0
 31 27  1  0
  1 35  1  0
  1 36  1  0
  1 37  1  0
  3 38  1  0
  4 39  1  0
  5 40  1  0
  6 41  1  0
  8 42  1  0
 13 43  1  0
 14 44  1  0
 15 45  1  0
 21 46  1  0
 22 47  1  0
 28 48  1  0
 28 49  1  0
 29 50  1  0
 29 51  1  0
 30 52  1  0
 30 53  1  0
 31 54  1  0
 31 55  1  0
 32 56  1  0
 33 57  1  0
 34 58  1  0
M  CHG  1  19  -1
M  END
>  <UniqueID>  (31) 
29

>  <SMILES>  (31) 
Cc1ccccc1NS(=O)(=O)c1cccc(C(=O)[N-]c2ccc(S(=O)(=O)N3CCCC3)cc2)c1

>  <Energy>  (31) 
73.21134326640748

>  <Genealogy>  (31) 
Cc1ccccc1NS(=O)(=O)c1cccc(C(=O)[N-]c2ccc(S(=O)(=O)N3CCCC3)cc2)c1 (protonated)
Cc1ccccc1NS(=O)(=O)c1cccc(C(=O)[N-]c2ccc(S(=O)(=O)N3CCCC3)cc2)c1 (3D coordinates assigned)
Cc1ccccc1NS(=O)(=O)c1cccc(C(=O)[N-]c2ccc(S(=O)(=O)N3CCCC3)cc2)c1 (nonaromatic ring conformer: 73.21134326640748 kcal/mol)

>  <smiles>  (31) 
Cc1ccccc1NS(=O)(=O)c1cccc(C(=O)Nc2ccc(S(=O)(=O)N3CCCC3)cc2)c1

>  <score_type>  (31) 
oracle

>  <origin>  (31) 
adg

>  <m_score__min__energy>  (31) 
-11.359999999999999

>  <m_primary>  (31) 
energy

$$$$
31:0
     RDKit          3D

 44 46  0  0  0  0  0  0  0  0999 V2000
   59.5020   31.3730   46.7570 C   0  0  0  0  0  0  0  0  0  0  0  0
   59.1580   32.6520   46.1460 N   0  0  0  0  0  0  0  0  0  0  0  0
   59.4940   33.8770   46.5980 C   0  0  0  0  0  0  0  0  0  0  0  0
   58.9960   34.8680   45.8270 N   0  0  0  0  0  0  0  0  0  0  0  0
   58.3090   34.2290   44.8560 C   0  0  0  0  0  0  0  0  0  0  0  0
   58.3940   32.8690   45.0600 C   0  0  0  0  0  0  0  0  0  0  0  0
   57.8060   31.8070   44.1840 C   0  0  0  0  0  0  0  0  0  0  0  0
   56.7600   31.1100   44.9170 N   0  0  0  0  0  0  0  0  0  0  0  0
   56.3690   29.7300   44.8220 C   0  0  0  0  0  0  0  0  0  0  0  0
   55.1360   29.4740   44.8490 O   0  0  0  0  0  0  0  0  0  0  0  0
   57.3060   28.6340   44.7060 N   0  0  0  0  0  0  0  0  0  0  0  0
   57.7850   28.1820   43.4050 C   0  0  0  0  0  0  0  0  0  0  0  0
   58.3590   26.7910   43.6280 C   0  0  0  0  0  0  0  0  0  0  0  0
   58.6450   26.7090   45.1270 C   0  0  2  0  0  0  0  0  0  0  0  0
   58.4820   25.2810   45.6810 C   0  0  0  0  0  0  0  0  0  0  0  0
   57.1800   24.6660   45.2340 C   0  0  0  0  0  0  0  0  0  0  0  0
   55.9770   25.0280   45.8620 C   0  0  0  0  0  0  0  0  0  0  0  0
   54.7640   24.4880   45.4270 C   0  0  0  0  0  0  0  0  0  0  0  0
   54.7410   23.5890   44.3580 C   0  0  0  0  0  0  0  0  0  0  0  0
   55.9340   23.2270   43.7180 C   0  0  0  0  0  0  0  0  0  0  0  0
   55.9230   22.3360   42.6470 O   0  0  0  0  0  0  0  0  0  0  0  0
   57.1490   23.7660   44.1560 C   0  0  0  0  0  0  0  0  0  0  0  0
   57.6950   27.7220   45.7710 C   0  0  0  0  0  0  0  0  0  0  0  0
   59.4756   31.4710   47.8523 H   0  0  0  0  0  0  0  0  0  0  0  0
   58.7776   30.6084   46.4397 H   0  0  0  0  0  0  0  0  0  0  0  0
   60.5122   31.0750   46.4397 H   0  0  0  0  0  0  0  0  0  0  0  0
   60.1060   34.0502   47.4954 H   0  0  0  0  0  0  0  0  0  0  0  0
   57.7672   34.7170   44.0324 H   0  0  0  0  0  0  0  0  0  0  0  0
   57.3784   32.2688   43.2818 H   0  0  0  0  0  0  0  0  0  0  0  0
   58.5900   31.0939   43.8892 H   0  0  0  0  0  0  0  0  0  0  0  0
   56.9543   28.1415   42.6851 H   0  0  0  0  0  0  0  0  0  0  0  0
   58.5404   28.8678   42.9939 H   0  0  0  0  0  0  0  0  0  0  0  0
   57.6308   26.0216   43.3319 H   0  0  0  0  0  0  0  0  0  0  0  0
   59.2646   26.6197   43.0275 H   0  0  0  0  0  0  0  0  0  0  0  0
   59.6929   26.9518   45.3570 H   0  0  0  0  0  0  0  0  0  0  0  0
   59.3146   24.6593   45.3201 H   0  0  0  0  0  0  0  0  0  0  0  0
   58.4829   25.3324   46.7798 H   0  0  0  0  0  0  0  0  0  0  0  0
   55.9899   25.7401   46.7003 H   0  0  0  0  0  0  0  0  0  0  0  0
   53.8260   24.7711   45.9269 H   0  0  0  0  0  0  0  0  0  0  0  0
   53.7848   23.1645   44.0180 H   0  0  0  0  0  0  0  0  0  0  0  0
   56.3190   22.5840   41.7480 H   0  0  0  0  0  0  0  0  0  0  0  0
   58.0855   23.4831   43.6530 H   0  0  0  0  0  0  0  0  0  0  0  0
   56.8107   27.2114   46.1800 H   0  0  0  0  0  0  0  0  0  0  0  0
   58.1761   28.2548   46.6045 H   0  0  0  0  0  0  0  0  0  0  0  0
  1  2  1  0
  2  3  1  0
  3  4  2  0
  4  5  1  0
  5  6  2  0
  6  7  1  0
  7  8  1  0
  8  9  1  0
  9 10  2  0
  9 11  1  0
 11 12  1  0
 12 13  1  0
 13 14  1  0
 14 15  1  0
 15 16  1  0
 16 17  2  0
 17 18  1  0
 18 19  2  0
 19 20  1  0
 20 21  1  0
 20 22  2  0
 14 23  1  0
  6  2  1  0
 23 11  1  0
 22 16  1  0
  1 24  1  0
  1 25  1  0
  1 26  1  0
  3 27  1  0
  5 28  1  0
  7 29  1  0
  7 30  1  0
 12 31  1  0
 12 32  1  0
 13 33  1  0
 13 34  1  0
 14 35  1  6
 15 36  1  0
 15 37  1  0
 17 38  1  0
 18 39  1  0
 19 40  1  0
 21 41  1  0
 22 42  1  0
 23 43  1  0
 23 44  1  0
M  CHG  1   8  -1
M  END
>  <UniqueID>  (32) 
30

>  <SMILES>  (32) 
Cn1cncc1C[N-]C(=O)N1CC[C@H](Cc2cccc(O)c2)C1

>  <Energy>  (32) 
72.80373892217068

>  <Genealogy>  (32) 
Cn1cncc1C[N-]C(=O)N1CCC(Cc2cccc(O)c2)C1 (protonated)
Cn1cncc1C[N-]C(=O)N1CC[C@H](Cc2cccc(O)c2)C1 (chirality)
Cn1cncc1C[N-]C(=O)N1CC[C@H](Cc2cccc(O)c2)C1 (3D coordinates assigned)
Cn1cncc1C[N-]C(=O)N1CC[C@H](Cc2cccc(O)c2)C1 (nonaromatic ring conformer: 72.80373892217068 kcal/mol)

>  <smiles>  (32) 
Cn1cncc1CNC(=O)N1CCC(Cc2cccc(O)c2)C1

>  <score_type>  (32) 
oracle

>  <origin>  (32) 
adg

>  <m_score__min__energy>  (32) 
-9.7200000000000006

>  <m_primary>  (32) 
energy

$$$$
32:0
     RDKit          3D

 52 54  0  0  0  0  0  0  0  0999 V2000
   63.3590   34.2080   46.0610 N   0  0  0  0  0  0  0  0  0  0  0  0
   62.8090   33.7550   46.9730 C   0  0  0  0  0  0  0  0  0  0  0  0
   62.1220   33.1910   48.1130 C   0  0  0  0  0  0  0  0  0  0  0  0
   60.8930   33.7100   48.5680 C   0  0  0  0  0  0  0  0  0  0  0  0
   60.1980   34.8630   47.8920 C   0  0  0  0  0  0  0  0  0  0  0  0
   59.2200   34.3550   46.8680 C   0  0  0  0  0  0  0  0  0  0  0  0
   58.1070   33.5940   47.2580 C   0  0  0  0  0  0  0  0  0  0  0  0
   57.1840   33.1530   46.3020 C   0  0  0  0  0  0  0  0  0  0  0  0
   57.3650   33.4730   44.9540 C   0  0  0  0  0  0  0  0  0  0  0  0
   58.4680   34.2340   44.5580 C   0  0  0  0  0  0  0  0  0  0  0  0
   59.3930   34.6750   45.5090 C   0  0  0  0  0  0  0  0  0  0  0  0
   60.2810   33.1280   49.6320 N   0  0  0  0  0  0  0  0  0  0  0  0
   60.8390   32.0770   50.2850 C   0  0  0  0  0  0  0  0  0  0  0  0
   60.0130   31.3750   51.7100 S   0  0  0  0  0  0  0  0  0  0  0  0
   58.4740   30.9750   50.8110 C   0  0  0  0  0  0  0  0  0  0  0  0
   58.7810   30.2610   49.5340 C   0  0  0  0  0  0  0  0  0  0  0  0
   58.5530   30.8260   48.4320 O   0  0  0  0  0  0  0  0  0  0  0  0
   59.2700   28.9160   49.5770 N   0  0  0  0  0  0  0  0  0  0  0  0
   60.6020   28.5220   49.1330 C   0  0  0  0  0  0  0  0  0  0  0  0
   60.5180   27.6630   47.8690 C   0  0  0  0  0  0  0  0  0  0  0  0
   59.5900   28.2910   46.8620 C   0  0  0  0  0  0  0  0  0  0  0  0
   58.3500   27.6960   46.5740 C   0  0  0  0  0  0  0  0  0  0  0  0
   57.5040   28.2590   45.6140 C   0  0  0  0  0  0  0  0  0  0  0  0
   57.8840   29.4230   44.9320 C   0  0  0  0  0  0  0  0  0  0  0  0
   56.8350   30.1410   43.7120 S   0  0  0  0  0  0  0  0  0  0  0  0
   56.5100   28.9870   42.4670 N   0  0  0  0  0  0  0  0  0  0  0  0
   55.5320   30.5650   44.3310 O   0  0  0  0  0  0  0  0  0  0  0  0
   57.5110   31.3470   43.1210 O   0  0  0  0  0  0  0  0  0  0  0  0
   59.1210   30.0160   45.2160 C   0  0  0  0  0  0  0  0  0  0  0  0
   59.9720   29.4520   46.1710 C   0  0  0  0  0  0  0  0  0  0  0  0
   62.0260   31.5710   49.8680 N   0  0  0  0  0  0  0  0  0  0  0  0
   62.6760   32.1000   48.8010 C   0  0  0  0  0  0  0  0  0  0  0  0
   63.7750   31.6010   48.4390 O   0  0  0  0  0  0  0  0  0  0  0  0
   59.6589   35.4546   48.6466 H   0  0  0  0  0  0  0  0  0  0  0  0
   60.9499   35.4890   47.3892 H   0  0  0  0  0  0  0  0  0  0  0  0
   57.9593   33.3431   48.3188 H   0  0  0  0  0  0  0  0  0  0  0  0
   56.3153   32.5539   46.6125 H   0  0  0  0  0  0  0  0  0  0  0  0
   56.6389   33.1257   44.2042 H   0  0  0  0  0  0  0  0  0  0  0  0
   58.6087   34.4864   43.4966 H   0  0  0  0  0  0  0  0  0  0  0  0
   60.2595   35.2746   45.1934 H   0  0  0  0  0  0  0  0  0  0  0  0
   57.8434   30.3317   51.4423 H   0  0  0  0  0  0  0  0  0  0  0  0
   57.9471   31.9115   50.5758 H   0  0  0  0  0  0  0  0  0  0  0  0
   61.1927   29.4246   48.9178 H   0  0  0  0  0  0  0  0  0  0  0  0
   61.0811   27.9338   49.9295 H   0  0  0  0  0  0  0  0  0  0  0  0
   61.5213   27.5703   47.4275 H   0  0  0  0  0  0  0  0  0  0  0  0
   60.1284   26.6706   48.1398 H   0  0  0  0  0  0  0  0  0  0  0  0
   58.0437   26.7833   47.1062 H   0  0  0  0  0  0  0  0  0  0  0  0
   56.5357   27.7863   45.3929 H   0  0  0  0  0  0  0  0  0  0  0  0
   55.4960   29.0700   42.2280 H   0  0  0  0  0  0  0  0  0  0  0  0
   56.6470   28.0370   42.8820 H   0  0  0  0  0  0  0  0  0  0  0  0
   59.4243   30.9302   44.6848 H   0  0  0  0  0  0  0  0  0  0  0  0
   60.9450   29.9198   46.3820 H   0  0  0  0  0  0  0  0  0  0  0  0
  1  2  3  0
  2  3  1  0
  3  4  2  0
  4  5  1  0
  5  6  1  0
  6  7  2  0
  7  8  1  0
  8  9  2  0
  9 10  1  0
 10 11  2  0
  4 12  1  0
 12 13  1  0
 13 14  1  0
 14 15  1  0
 15 16  1  0
 16 17  2  0
 16 18  1  0
 18 19  1  0
 19 20  1  0
 20 21  1  0
 21 22  2  0
 22 23  1  0
 23 24  2  0
 24 25  1  0
 25 26  1  0
 25 27  2  0
 25 28  2  0
 24 29  1  0
 29 30  2  0
 13 31  2  0
 31 32  1  0
 32 33  2  0
 32  3  1  0
 11  6  1  0
 30 21  1  0
  5 34  1  0
  5 35  1  0
  7 36  1  0
  8 37  1  0
  9 38  1  0
 10 39  1  0
 11 40  1  0
 15 41  1  0
 15 42  1  0
 19 43  1  0
 19 44  1  0
 20 45  1  0
 20 46  1  0
 22 47  1  0
 23 48  1  0
 26 49  1  0
 26 50  1  0
 29 51  1  0
 30 52  1  0
M  CHG  2  12  -1  18  -1
M  END
>  <UniqueID>  (33) 
31

>  <SMILES>  (33) 
N#Cc1c(Cc2ccccc2)[n-]c(SCC(=O)[N-]CCc2ccc(S(N)(=O)=O)cc2)nc1=O

>  <Energy>  (33) 
43.35393734370287

>  <Genealogy>  (33) 
N#Cc1c(Cc2ccccc2)[n-]c(SCC(=O)[N-]CCc2ccc(S(N)(=O)=O)cc2)nc1=O (protonated)
N#Cc1c(Cc2ccccc2)[n-]c(SCC(=O)[N-]CCc2ccc(S(N)(=O)=O)cc2)nc1=O (3D coordinates assigned)
N#Cc1c(Cc2ccccc2)[n-]c(SCC(=O)[N-]CCc2ccc(S(N)(=O)=O)cc2)nc1=O (optimized conformer: 43.35393734370287 kcal/mol)

>  <smiles>  (33) 
N#Cc1c(Cc2ccccc2)[nH]c(SCC(=O)NCCc2ccc(S(N)(=O)=O)cc2)nc1=O

>  <score_type>  (33) 
oracle

>  <origin>  (33) 
adg

>  <m_score__min__energy>  (33) 
-12.09

>  <m_primary>  (33) 
energy

$$$$
33:0
     RDKit          3D

 50 54  0  0  0  0  0  0  0  0999 V2000
   52.7900   30.5549   55.5913 H   0  0  0  0  0  0  0  0  0  0  0  0
   53.8560   30.2970   55.5070 C   0  0  0  0  0  0  0  0  0  0  0  0
   54.4100   29.9519   56.3924 H   0  0  0  0  0  0  0  0  0  0  0  0
   54.4780   30.4030   54.3290 C   0  0  0  0  0  0  0  0  0  0  0  0
   56.1050   30.0300   54.1100 S   0  0  0  0  0  0  0  0  0  0  0  0
   56.1480   30.3490   52.4630 C   0  0  0  0  0  0  0  0  0  0  0  0
   57.3590   30.2710   51.6260 C   0  0  0  0  0  0  0  0  0  0  0  0
   57.7780   29.1440   51.2460 O   0  0  0  0  0  0  0  0  0  0  0  0
   58.1160   31.4510   51.3000 N   0  0  0  0  0  0  0  0  0  0  0  0
   57.7900   32.1710   50.0620 C   0  0  0  0  0  0  0  0  0  0  0  0
   57.1957   31.5167   49.4072 H   0  0  0  0  0  0  0  0  0  0  0  0
   57.2148   33.0742   50.3137 H   0  0  0  0  0  0  0  0  0  0  0  0
   59.0690   32.5820   49.3370 C   0  0  0  0  0  0  0  0  0  0  0  0
   59.5052   31.7025   48.8409 H   0  0  0  0  0  0  0  0  0  0  0  0
   58.8285   33.3514   48.5886 H   0  0  0  0  0  0  0  0  0  0  0  0
   60.0300   33.1250   50.2900 N   0  0  0  0  0  0  0  0  0  0  0  0
   60.0430   32.9020   51.6180 C   0  0  0  0  0  0  0  0  0  0  0  0
   61.1490   33.4280   52.1970 N   0  0  0  0  0  0  0  0  0  0  0  0
   61.8510   33.9840   51.2160 N   0  0  0  0  0  0  0  0  0  0  0  0
   62.7660   34.4770   51.3400 H   0  0  0  0  0  0  0  0  0  0  0  0
   61.1810   33.7840   50.0630 C   0  0  0  0  0  0  0  0  0  0  0  0
   61.6410   34.2910   48.7270 C   0  0  0  0  0  0  0  0  0  0  0  0
   61.1184   35.2573   48.7824 H   0  0  0  0  0  0  0  0  0  0  0  0
   61.8160   33.2040   47.6750 C   0  0  0  0  0  0  0  0  0  0  0  0
   61.5601   32.1613   47.9143 H   0  0  0  0  0  0  0  0  0  0  0  0
   61.4603   33.0555   46.6448 H   0  0  0  0  0  0  0  0  0  0  0  0
   63.0390   33.8500   48.3060 C   0  0  0  0  0  0  0  0  0  0  0  0
   63.6673   33.2749   49.0021 H   0  0  0  0  0  0  0  0  0  0  0  0
   63.9335   34.3622   47.9219 H   0  0  0  0  0  0  0  0  0  0  0  0
   58.9730   32.1020   52.3220 C   0  0  0  0  0  0  0  0  0  0  0  0
   58.1210   33.0390   53.1920 C   0  0  0  0  0  0  0  0  0  0  0  0
   58.3127   32.8281   54.2544 H   0  0  0  0  0  0  0  0  0  0  0  0
   58.3847   34.0841   52.9722 H   0  0  0  0  0  0  0  0  0  0  0  0
   57.0556   32.8756   52.9722 H   0  0  0  0  0  0  0  0  0  0  0  0
   59.6560   31.0470   53.2180 C   0  0  0  0  0  0  0  0  0  0  0  0
   59.4911   31.3018   54.2753 H   0  0  0  0  0  0  0  0  0  0  0  0
   59.2279   30.0556   53.0086 H   0  0  0  0  0  0  0  0  0  0  0  0
   60.7358   31.0318   53.0086 H   0  0  0  0  0  0  0  0  0  0  0  0
   54.8860   30.7510   52.0500 C   0  0  0  0  0  0  0  0  0  0  0  0
   54.6525   31.0274   51.0112 H   0  0  0  0  0  0  0  0  0  0  0  0
   53.9300   30.7720   53.0880 C   0  0  0  0  0  0  0  0  0  0  0  0
   52.6520   31.1690   52.9060 C   0  0  0  0  0  0  0  0  0  0  0  0
   52.0794   31.4800   53.7922 H   0  0  0  0  0  0  0  0  0  0  0  0
   51.9730   31.2130   51.5960 C   0  0  0  0  0  0  0  0  0  0  0  0
   52.0920   30.2460   50.6610 N   0  0  0  0  0  0  0  0  0  0  0  0
   51.4270   30.7510   49.5970 C   0  0  0  0  0  0  0  0  0  0  0  0
   51.3120   30.1240   48.5040 O   0  0  0  0  0  0  0  0  0  0  0  0
   50.9170   31.9900   49.7830 N   0  0  0  0  0  0  0  0  0  0  0  0
   51.2780   32.2710   51.0500 C   0  0  0  0  0  0  0  0  0  0  0  0
   51.0210   33.4890   51.6690 O   0  0  0  0  0  0  0  0  0  0  0  0
  1  2  1  0
  2  3  1  0
  2  4  2  0
  4  5  1  0
  5  6  1  0
  6  7  1  0
  7  8  2  0
  7  9  1  0
  9 10  1  0
 10 11  1  0
 10 12  1  0
 10 13  1  0
 13 14  1  0
 13 15  1  0
 13 16  1  0
 16 17  1  0
 17 18  2  0
 18 19  1  0
 19 20  1  0
 19 21  2  0
 21 22  1  0
 22 23  1  0
 22 24  1  0
 24 25  1  0
 24 26  1  0
 24 27  1  0
 27 28  1  0
 27 29  1  0
 17 30  1  0
 30 31  1  0
 31 32  1  0
 31 33  1  0
 31 34  1  0
 30 35  1  0
 35 36  1  0
 35 37  1  0
 35 38  1  0
  6 39  2  0
 39 40  1  0
 39 41  1  0
 41 42  2  0
 42 43  1  0
 42 44  1  0
 44 45  1  0
 45 46  1  0
 46 47  2  0
 46 48  1  0
 48 49  1  0
 49 50  1  0
 41  4  1  0
 49 44  2  0
 30  9  1  0
 21 16  1  0
 27 22  1  0
M  CHG  4  19   1  45  -1  48  -1  50  -1
M  END
>  <UniqueID>  (34) 
32

>  <SMILES>  (34) 
C=c1sc(C(=O)N2CCn3c(n[nH+]c3C3CC3)C2(C)C)c/c1=C\c1[n-]c(=O)[n-]c1[O-]

>  <Energy>  (34) 
424.2802059057234

>  <Genealogy>  (34) 
C=c1sc(C(=O)N2CCn3c(n[nH+]c3C3CC3)C2(C)C)cc1=Cc1[n-]c(=O)[n-]c1[O-] (protonated)
C=c1sc(C(=O)N2CCn3c(n[nH+]c3C3CC3)C2(C)C)c/c1=C\c1[n-]c(=O)[n-]c1[O-] (cis-trans isomerization)
C=c1sc(C(=O)N2CCn3c(n[nH+]c3C3CC3)C2(C)C)c/c1=C\c1[n-]c(=O)[n-]c1[O-] (3D coordinates assigned)
C=c1sc(C(=O)N2CCn3c(n[nH+]c3C3CC3)C2(C)C)c/c1=C\c1[n-]c(=O)[n-]c1[O-] (nonaromatic ring conformer: 424.2802059057234 kcal/mol)

>  <smiles>  (34) 
C=c1sc(C(=O)N2CCn3c(C4CC4)nnc3C2(C)C)cc1=Cc1[nH]c(=O)[nH]c1O

>  <score_type>  (34) 
oracle

>  <origin>  (34) 
adg

>  <m_score__min__energy>  (34) 
-16.039999999999999

>  <m_primary>  (34) 
energy

$$$$
34:0
     RDKit          3D

 46 48  0  0  0  0  0  0  0  0999 V2000
   55.2540   29.3450   44.9010 O   0  0  0  0  0  0  0  0  0  0  0  0
   56.4120   28.8530   44.9880 C   0  0  0  0  0  0  0  0  0  0  0  0
   57.5090   29.3530   44.0810 C   0  0  0  0  0  0  0  0  0  0  0  0
   57.8860   30.7800   44.3880 C   0  0  0  0  0  0  0  0  0  0  0  0
   57.8050   31.7630   43.3910 C   0  0  0  0  0  0  0  0  0  0  0  0
   58.1330   33.0880   43.6820 C   0  0  0  0  0  0  0  0  0  0  0  0
   58.5260   33.4480   44.9730 C   0  0  0  0  0  0  0  0  0  0  0  0
   58.5790   32.4820   45.9920 C   0  0  0  0  0  0  0  0  0  0  0  0
   58.9890   32.8700   47.3610 C   0  0  0  0  0  0  0  0  0  0  0  0
   58.1050   32.9760   48.2560 O   0  0  0  0  0  0  0  0  0  0  0  0
   60.3650   33.1370   47.6960 N   0  0  0  0  0  0  0  0  0  0  0  0
   60.6720   34.1810   48.6780 C   0  0  0  0  0  0  0  0  0  0  0  0
   62.1780   34.2420   48.9530 C   0  0  0  0  0  0  0  0  0  0  0  0
   62.7030   32.8970   49.2190 N   0  0  0  0  0  0  0  0  0  0  0  0
   62.5110   31.9550   48.0940 C   0  0  0  0  0  0  0  0  0  0  0  0
   61.4630   32.4000   47.0550 C   0  0  0  0  0  0  0  0  0  0  0  0
   58.2710   31.1460   45.6880 C   0  0  0  0  0  0  0  0  0  0  0  0
   56.6630   27.8760   46.0070 N   0  0  0  0  0  0  0  0  0  0  0  0
   57.1920   26.5340   45.7820 C   0  0  0  0  0  0  0  0  0  0  0  0
   56.0830   25.5770   45.4540 C   0  0  0  0  0  0  0  0  0  0  0  0
   56.3300   24.4170   44.7050 C   0  0  0  0  0  0  0  0  0  0  0  0
   55.2730   23.5440   44.4240 C   0  0  0  0  0  0  0  0  0  0  0  0
   55.4840   22.4950   43.7580 O   0  0  0  0  0  0  0  0  0  0  0  0
   53.9870   23.8420   44.8860 C   0  0  0  0  0  0  0  0  0  0  0  0
   52.9220   22.9880   44.6190 O   0  0  0  0  0  0  0  0  0  0  0  0
   53.7780   25.0100   45.6220 C   0  0  0  0  0  0  0  0  0  0  0  0
   54.8200   25.8440   45.8860 N   0  0  0  0  0  0  0  0  0  0  0  0
   58.3958   28.7152   44.2106 H   0  0  0  0  0  0  0  0  0  0  0  0
   57.1396   29.3133   43.0456 H   0  0  0  0  0  0  0  0  0  0  0  0
   57.4818   31.4887   42.3760 H   0  0  0  0  0  0  0  0  0  0  0  0
   58.0818   33.8515   42.8918 H   0  0  0  0  0  0  0  0  0  0  0  0
   58.7950   34.4917   45.1929 H   0  0  0  0  0  0  0  0  0  0  0  0
   60.3368   35.1533   48.2877 H   0  0  0  0  0  0  0  0  0  0  0  0
   60.1508   33.9459   49.6177 H   0  0  0  0  0  0  0  0  0  0  0  0
   62.6901   34.6644   48.0759 H   0  0  0  0  0  0  0  0  0  0  0  0
   62.3551   34.8757   49.8345 H   0  0  0  0  0  0  0  0  0  0  0  0
   62.2190   32.5170   50.0660 H   0  0  0  0  0  0  0  0  0  0  0  0
   63.4754   31.8352   47.5787 H   0  0  0  0  0  0  0  0  0  0  0  0
   62.1363   31.0184   48.5327 H   0  0  0  0  0  0  0  0  0  0  0  0
   61.9472   33.0506   46.3118 H   0  0  0  0  0  0  0  0  0  0  0  0
   61.0476   31.5039   46.5708 H   0  0  0  0  0  0  0  0  0  0  0  0
   58.3318   30.3797   46.4748 H   0  0  0  0  0  0  0  0  0  0  0  0
   57.9047   26.5621   44.9446 H   0  0  0  0  0  0  0  0  0  0  0  0
   57.6952   26.1929   46.6988 H   0  0  0  0  0  0  0  0  0  0  0  0
   57.3446   24.1957   44.3421 H   0  0  0  0  0  0  0  0  0  0  0  0
   52.7705   25.2560   45.9885 H   0  0  0  0  0  0  0  0  0  0  0  0
  1  2  2  0
  2  3  1  0
  3  4  1  0
  4  5  2  0
  5  6  1  0
  6  7  2  0
  7  8  1  0
  8  9  1  0
  9 10  2  0
  9 11  1  0
 11 12  1  0
 12 13  1  0
 13 14  1  0
 14 15  1  0
 15 16  1  0
  8 17  2  0
  2 18  1  0
 18 19  1  0
 19 20  1  0
 20 21  2  0
 21 22  1  0
 22 23  2  0
 22 24  1  0
 24 25  1  0
 24 26  2  0
 26 27  1  0
 17  4  1  0
 27 20  1  0
 16 11  1  0
  3 28  1  0
  3 29  1  0
  5 30  1  0
  6 31  1  0
  7 32  1  0
 12 33  1  0
 12 34  1  0
 13 35  1  0
 13 36  1  0
 14 37  1  0
 15 38  1  0
 15 39  1  0
 16 40  1  0
 16 41  1  0
 17 42  1  0
 19 43  1  0
 19 44  1  0
 21 45  1  0
 26 46  1  0
M  CHG  3  18  -1  25  -1  27  -1
M  END
>  <UniqueID>  (35) 
33

>  <SMILES>  (35) 
O=C(Cc1cccc(C(=O)N2CCNCC2)c1)[N-]Cc1cc(=O)c([O-])c[n-]1

>  <Energy>  (35) 
54.68177321300454

>  <Genealogy>  (35) 
O=C(Cc1cccc(C(=O)N2CCNCC2)c1)[N-]Cc1cc(=O)c([O-])c[n-]1 (protonated)
O=C(Cc1cccc(C(=O)N2CCNCC2)c1)[N-]Cc1cc(=O)c([O-])c[n-]1 (3D coordinates assigned)
O=C(Cc1cccc(C(=O)N2CCNCC2)c1)[N-]Cc1cc(=O)c([O-])c[n-]1 (nonaromatic ring conformer: 54.68177321300454 kcal/mol)

>  <smiles>  (35) 
O=C(Cc1cccc(C(=O)N2CCNCC2)c1)NCc1cc(=O)c(O)c[nH]1

>  <score_type>  (35) 
oracle

>  <origin>  (35) 
adg

>  <m_score__min__energy>  (35) 
-15.279999999999999

>  <m_primary>  (35) 
energy

$$$$
35:0
     RDKit          3D

 33 35  0  0  0  0  0  0  0  0999 V2000
   59.4840   29.2370   48.1330 C   0  0  0  0  0  0  0  0  0  0  0  0
   59.1340   30.1160   47.1860 C   0  0  0  0  0  0  0  0  0  0  0  0
   59.0910   31.4430   47.4370 N   0  0  0  0  0  0  0  0  0  0  0  0
   58.5790   32.0330   46.3460 C   0  0  0  0  0  0  0  0  0  0  0  0
   58.3280   31.1020   45.3640 C   0  0  0  0  0  0  0  0  0  0  0  0
   58.6770   29.8580   45.8770 C   0  0  0  0  0  0  0  0  0  0  0  0
   58.5640   28.6990   45.1950 C   0  0  0  0  0  0  0  0  0  0  0  0
   57.6660   27.5820   45.5440 C   0  0  0  0  0  0  0  0  0  0  0  0
   56.2730   27.7590   45.5900 C   0  0  0  0  0  0  0  0  0  0  0  0
   55.7040   28.9880   45.2660 O   0  0  0  0  0  0  0  0  0  0  0  0
   55.4740   26.7220   45.9580 N   0  0  0  0  0  0  0  0  0  0  0  0
   55.9980   25.5190   46.3010 C   0  0  0  0  0  0  0  0  0  0  0  0
   55.2370   24.5740   46.6350 O   0  0  0  0  0  0  0  0  0  0  0  0
   57.3430   25.3340   46.2900 N   0  0  0  0  0  0  0  0  0  0  0  0
   58.1850   26.3370   45.9290 C   0  0  0  0  0  0  0  0  0  0  0  0
   59.4290   26.1340   45.9360 O   0  0  0  0  0  0  0  0  0  0  0  0
   57.7100   31.4440   44.0340 C   0  0  0  0  0  0  0  0  0  0  0  0
   57.8130   32.9550   43.7520 C   0  0  0  0  0  0  0  0  0  0  0  0
   57.4370   33.7930   44.9900 C   0  0  0  0  0  0  0  0  0  0  0  0
   58.3840   33.5090   46.1690 C   0  0  0  0  0  0  0  0  0  0  0  0
   59.5110   28.1618   47.9025 H   0  0  0  0  0  0  0  0  0  0  0  0
   59.7446   29.5899   49.1417 H   0  0  0  0  0  0  0  0  0  0  0  0
   59.3640   31.9240   48.3240 H   0  0  0  0  0  0  0  0  0  0  0  0
   59.1955   28.5768   44.3026 H   0  0  0  0  0  0  0  0  0  0  0  0
   55.6030   29.7150   45.9630 H   0  0  0  0  0  0  0  0  0  0  0  0
   58.2357   30.8929   43.2403 H   0  0  0  0  0  0  0  0  0  0  0  0
   56.6468   31.1627   44.0578 H   0  0  0  0  0  0  0  0  0  0  0  0
   58.8465   33.1936   43.4605 H   0  0  0  0  0  0  0  0  0  0  0  0
   57.1086   33.2018   42.9440 H   0  0  0  0  0  0  0  0  0  0  0  0
   57.4976   34.8605   44.7314 H   0  0  0  0  0  0  0  0  0  0  0  0
   56.4151   33.5223   45.2939 H   0  0  0  0  0  0  0  0  0  0  0  0
   59.3578   33.9812   45.9723 H   0  0  0  0  0  0  0  0  0  0  0  0
   57.9400   33.9205   47.0874 H   0  0  0  0  0  0  0  0  0  0  0  0
  1  2  2  0
  2  3  1  0
  3  4  1  0
  4  5  2  0
  5  6  1  0
  6  7  2  3
  7  8  1  0
  8  9  2  0
  9 10  1  0
  9 11  1  0
 11 12  1  0
 12 13  2  0
 12 14  1  0
 14 15  1  0
 15 16  2  0
  5 17  1  0
 17 18  1  0
 18 19  1  0
 19 20  1  0
  6  2  1  0
 15  8  1  0
 20  4  1  0
  1 21  1  0
  1 22  1  0
  3 23  1  0
  7 24  1  0
 10 25  1  0
 17 26  1  0
 17 27  1  0
 18 28  1  0
 18 29  1  0
 19 30  1  0
 19 31  1  0
 20 32  1  0
 20 33  1  0
M  CHG  2  11  -1  14  -1
M  END
>  <UniqueID>  (36) 
34

>  <SMILES>  (36) 
C=c1[nH]c2c(c1=Cc1c(O)[n-]c(=O)[n-]c1=O)CCCC2

>  <Energy>  (36) 
75.2495032134519

>  <Genealogy>  (36) 
C=c1[nH]c2c(c1=Cc1c(O)[n-]c(=O)[n-]c1=O)CCCC2 (protonated)
C=c1[nH]c2c(c1=Cc1c(O)[n-]c(=O)[n-]c1=O)CCCC2 (3D coordinates assigned)
C=c1[nH]c2c(c1=Cc1c(O)[n-]c(=O)[n-]c1=O)CCCC2 (nonaromatic ring conformer: 75.2495032134519 kcal/mol)

>  <smiles>  (36) 
C=c1[nH]c2c(c1=Cc1c(O)[nH]c(=O)[nH]c1=O)CCCC2

>  <score_type>  (36) 
oracle

>  <origin>  (36) 
adg

>  <m_score__min__energy>  (36) 
-12.130000000000001

>  <m_primary>  (36) 
energy

$$$$
36:0
     RDKit          3D

 52 55  0  0  0  0  0  0  0  0999 V2000
   55.5290   23.7940   47.5980 O   0  0  0  0  0  0  0  0  0  0  0  0
   56.7700   23.5870   47.5660 C   0  0  0  0  0  0  0  0  0  0  0  0
   57.2780   22.3370   47.0910 N   0  0  0  0  0  0  0  0  0  0  0  0
   58.1440   22.2250   45.9240 C   0  0  0  0  0  0  0  0  0  0  0  0
   57.2930   22.2170   44.6480 C   0  0  2  0  0  0  0  0  0  0  0  0
   57.3710   23.5520   43.9130 C   0  0  0  0  0  0  0  0  0  0  0  0
   56.0820   24.2190   44.2760 C   0  0  0  0  0  0  0  0  0  0  0  0
   55.1700   23.0500   44.5730 C   0  0  0  0  0  0  0  0  0  0  0  0
   55.9470   21.9480   44.9820 O   0  0  0  0  0  0  0  0  0  0  0  0
   57.6630   24.6350   47.9580 N   0  0  0  0  0  0  0  0  0  0  0  0
   57.8890   25.8610   47.2480 C   0  0  0  0  0  0  0  0  0  0  0  0
   59.1370   26.5040   47.2550 C   0  0  0  0  0  0  0  0  0  0  0  0
   59.3210   27.7080   46.5680 C   0  0  0  0  0  0  0  0  0  0  0  0
   58.2520   28.3060   45.8690 C   0  0  0  0  0  0  0  0  0  0  0  0
   58.3780   29.5240   45.1540 C   0  0  0  0  0  0  0  0  0  0  0  0
   59.5740   30.2520   45.1090 O   0  0  0  0  0  0  0  0  0  0  0  0
   57.2620   30.0440   44.4700 C   0  0  0  0  0  0  0  0  0  0  0  0
   57.3750   31.3020   43.7040 C   0  0  0  0  0  0  0  0  0  0  0  0
   56.9330   31.3480   42.5270 O   0  0  0  0  0  0  0  0  0  0  0  0
   58.0000   32.4650   44.2600 N   0  0  0  0  0  0  0  0  0  0  0  0
   57.3820   33.3230   45.2630 C   0  0  0  0  0  0  0  0  0  0  0  0
   58.3110   33.4710   46.4320 C   0  0  0  0  0  0  0  0  0  0  0  0
   58.1720   32.6460   47.5590 C   0  0  0  0  0  0  0  0  0  0  0  0
   59.0580   32.7650   48.6330 C   0  0  0  0  0  0  0  0  0  0  0  0
   60.0970   33.6990   48.5850 C   0  0  0  0  0  0  0  0  0  0  0  0
   61.2100   33.8460   49.9320 Cl  0  0  0  0  0  0  0  0  0  0  0  0
   60.2520   34.5130   47.4580 C   0  0  0  0  0  0  0  0  0  0  0  0
   59.3660   34.3980   46.3830 C   0  0  0  0  0  0  0  0  0  0  0  0
   56.0330   29.3700   44.5400 C   0  0  0  0  0  0  0  0  0  0  0  0
   55.0160   29.8250   43.9510 O   0  0  0  0  0  0  0  0  0  0  0  0
   55.9320   28.2110   45.2380 N   0  0  0  0  0  0  0  0  0  0  0  0
   56.9890   27.6640   45.8890 C   0  0  0  0  0  0  0  0  0  0  0  0
   56.8160   26.4600   46.5830 C   0  0  0  0  0  0  0  0  0  0  0  0
   58.8346   23.0808   45.8976 H   0  0  0  0  0  0  0  0  0  0  0  0
   58.7183   21.2888   45.9849 H   0  0  0  0  0  0  0  0  0  0  0  0
   57.6865   21.4346   43.9824 H   0  0  0  0  0  0  0  0  0  0  0  0
   58.2318   24.1429   44.2591 H   0  0  0  0  0  0  0  0  0  0  0  0
   57.5070   23.4390   42.8273 H   0  0  0  0  0  0  0  0  0  0  0  0
   56.2038   24.8609   45.1609 H   0  0  0  0  0  0  0  0  0  0  0  0
   55.6973   24.8809   43.4861 H   0  0  0  0  0  0  0  0  0  0  0  0
   54.4697   23.3245   45.3757 H   0  0  0  0  0  0  0  0  0  0  0  0
   54.6015   22.7860   43.6691 H   0  0  0  0  0  0  0  0  0  0  0  0
   59.9776   26.0567   47.8058 H   0  0  0  0  0  0  0  0  0  0  0  0
   60.3083   28.1930   46.5728 H   0  0  0  0  0  0  0  0  0  0  0  0
   59.6380   31.2450   44.9420 H   0  0  0  0  0  0  0  0  0  0  0  0
   57.1810   34.3124   44.8263 H   0  0  0  0  0  0  0  0  0  0  0  0
   56.4363   32.8731   45.5995 H   0  0  0  0  0  0  0  0  0  0  0  0
   57.3621   31.9026   47.5969 H   0  0  0  0  0  0  0  0  0  0  0  0
   58.9377   32.1226   49.5178 H   0  0  0  0  0  0  0  0  0  0  0  0
   61.0724   35.2447   47.4177 H   0  0  0  0  0  0  0  0  0  0  0  0
   59.4950   35.0352   45.4957 H   0  0  0  0  0  0  0  0  0  0  0  0
   55.8259   25.9812   46.6048 H   0  0  0  0  0  0  0  0  0  0  0  0
  1  2  2  0
  2  3  1  0
  3  4  1  0
  4  5  1  0
  5  6  1  0
  6  7  1  0
  7  8  1  0
  8  9  1  0
  2 10  1  0
 10 11  1  0
 11 12  2  0
 12 13  1  0
 13 14  2  0
 14 15  1  0
 15 16  1  0
 15 17  2  0
 17 18  1  0
 18 19  2  0
 18 20  1  0
 20 21  1  0
 21 22  1  0
 22 23  2  0
 23 24  1  0
 24 25  2  0
 25 26  1  0
 25 27  1  0
 27 28  2  0
 17 29  1  0
 29 30  2  0
 29 31  1  0
 31 32  1  0
 32 33  2  0
  9  5  1  0
 33 11  1  0
 32 14  1  0
 28 22  1  0
  4 34  1  0
  4 35  1  0
  5 36  1  6
  6 37  1  0
  6 38  1  0
  7 39  1  0
  7 40  1  0
  8 41  1  0
  8 42  1  0
 12 43  1  0
 13 44  1  0
 16 45  1  0
 21 46  1  0
 21 47  1  0
 23 48  1  0
 24 49  1  0
 27 50  1  0
 28 51  1  0
 33 52  1  0
M  CHG  4   3  -1  10  -1  20  -1  31  -1
M  END
>  <UniqueID>  (37) 
35

>  <SMILES>  (37) 
O=C([N-]C[C@@H]1CCCO1)[N-]c1ccc2c(O)c(C(=O)[N-]Cc3ccc(Cl)cc3)c(=O)[n-]c2c1

>  <Energy>  (37) 
65.98411434390282

>  <Genealogy>  (37) 
O=C([N-]CC1CCCO1)[N-]c1ccc2c(O)c(C(=O)[N-]Cc3ccc(Cl)cc3)c(=O)[n-]c2c1 (protonated)
O=C([N-]C[C@@H]1CCCO1)[N-]c1ccc2c(O)c(C(=O)[N-]Cc3ccc(Cl)cc3)c(=O)[n-]c2c1 (chirality)
O=C([N-]C[C@@H]1CCCO1)[N-]c1ccc2c(O)c(C(=O)[N-]Cc3ccc(Cl)cc3)c(=O)[n-]c2c1 (3D coordinates assigned)
O=C([N-]C[C@@H]1CCCO1)[N-]c1ccc2c(O)c(C(=O)[N-]Cc3ccc(Cl)cc3)c(=O)[n-]c2c1 (nonaromatic ring conformer: 65.98411434390282 kcal/mol)

>  <smiles>  (37) 
O=C(NCC1CCCO1)Nc1ccc2c(O)c(C(=O)NCc3ccc(Cl)cc3)c(=O)[nH]c2c1

>  <score_type>  (37) 
oracle

>  <origin>  (37) 
adg

>  <m_score__min__energy>  (37) 
-15.279999999999999

>  <m_primary>  (37) 
energy

$$$$
37:0
     RDKit          3D

 56 58  0  0  0  0  0  0  0  0999 V2000
   61.3190   30.2020   49.8100 C   0  0  0  0  0  0  0  0  0  0  0  0
   62.0410   31.0360   50.7090 O   0  0  0  0  0  0  0  0  0  0  0  0
   63.2970   31.6020   50.4390 C   0  0  0  0  0  0  0  0  0  0  0  0
   64.4640   31.1750   51.1090 C   0  0  0  0  0  0  0  0  0  0  0  0
   65.7040   31.7350   50.7970 C   0  0  0  0  0  0  0  0  0  0  0  0
   65.7990   32.7260   49.8210 C   0  0  0  0  0  0  0  0  0  0  0  0
   64.6530   33.1610   49.1520 C   0  0  0  0  0  0  0  0  0  0  0  0
   63.3950   32.6130   49.4590 C   0  0  0  0  0  0  0  0  0  0  0  0
   62.2260   33.0790   48.7600 N   0  0  0  0  0  0  0  0  0  0  0  0
   61.1590   33.7600   49.4990 C   0  0  0  0  0  0  0  0  0  0  0  0
   60.1770   34.4290   48.5340 C   0  0  0  0  0  0  0  0  0  0  0  0
   59.6410   33.4560   47.5560 N   0  0  0  0  0  0  0  0  0  0  0  0
   58.7940   34.1420   46.5560 C   0  0  0  0  0  0  0  0  0  0  0  0
   57.7390   33.1790   45.9880 C   0  0  0  0  0  0  0  0  0  0  0  0
   58.0300   32.7670   44.5340 C   0  0  0  0  0  0  0  0  0  0  0  0
   57.1800   31.5870   44.0370 C   0  0  0  0  0  0  0  0  0  0  0  0
   56.9570   30.6040   45.0940 N   0  0  0  0  0  0  0  0  0  0  0  0
   56.4810   29.2610   44.9270 C   0  0  0  0  0  0  0  0  0  0  0  0
   55.2440   29.0470   45.0370 O   0  0  0  0  0  0  0  0  0  0  0  0
   57.3860   28.1180   44.5510 C   0  0  0  0  0  0  0  0  0  0  0  0
   57.4450   27.1060   45.6580 C   0  0  0  0  0  0  0  0  0  0  0  0
   58.5780   26.6520   46.2990 C   0  0  0  0  0  0  0  0  0  0  0  0
   58.1390   25.7890   47.2850 C   0  0  0  0  0  0  0  0  0  0  0  0
   56.7920   25.6930   47.2860 N   0  0  0  0  0  0  0  0  0  0  0  0
   56.3810   26.5040   46.2940 C   0  0  0  0  0  0  0  0  0  0  0  0
   55.0420   26.6980   45.9660 O   0  0  0  0  0  0  0  0  0  0  0  0
   60.6770   32.5900   46.9180 C   0  0  0  0  0  0  0  0  0  0  0  0
   62.1210   32.9470   47.3040 C   0  0  0  0  0  0  0  0  0  0  0  0
   60.7041   29.4918   50.3823 H   0  0  0  0  0  0  0  0  0  0  0  0
   60.6683   30.8226   49.1764 H   0  0  0  0  0  0  0  0  0  0  0  0
   62.0264   29.6469   49.1764 H   0  0  0  0  0  0  0  0  0  0  0  0
   64.3957   30.3956   51.8822 H   0  0  0  0  0  0  0  0  0  0  0  0
   66.6082   31.3936   51.3223 H   0  0  0  0  0  0  0  0  0  0  0  0
   66.7775   33.1656   49.5777 H   0  0  0  0  0  0  0  0  0  0  0  0
   64.7351   33.9388   48.3785 H   0  0  0  0  0  0  0  0  0  0  0  0
   60.6182   33.0246   50.1128 H   0  0  0  0  0  0  0  0  0  0  0  0
   61.6089   34.5330   50.1393 H   0  0  0  0  0  0  0  0  0  0  0  0
   59.3425   34.8557   49.1098 H   0  0  0  0  0  0  0  0  0  0  0  0
   60.7117   35.2173   47.9838 H   0  0  0  0  0  0  0  0  0  0  0  0
   58.2866   34.9925   47.0346 H   0  0  0  0  0  0  0  0  0  0  0  0
   59.4325   34.4940   45.7324 H   0  0  0  0  0  0  0  0  0  0  0  0
   57.7170   32.2736   46.6123 H   0  0  0  0  0  0  0  0  0  0  0  0
   56.7723   33.7038   45.9967 H   0  0  0  0  0  0  0  0  0  0  0  0
   57.8346   33.6323   43.8835 H   0  0  0  0  0  0  0  0  0  0  0  0
   59.0797   32.4400   44.4997 H   0  0  0  0  0  0  0  0  0  0  0  0
   56.2073   31.9677   43.6921 H   0  0  0  0  0  0  0  0  0  0  0  0
   57.7214   31.0938   43.2162 H   0  0  0  0  0  0  0  0  0  0  0  0
   57.0006   27.6360   43.6404 H   0  0  0  0  0  0  0  0  0  0  0  0
   58.3984   28.5101   44.3740 H   0  0  0  0  0  0  0  0  0  0  0  0
   59.6199   26.9219   46.0717 H   0  0  0  0  0  0  0  0  0  0  0  0
   58.8009   25.2502   47.9790 H   0  0  0  0  0  0  0  0  0  0  0  0
   54.7820   27.0960   45.0720 H   0  0  0  0  0  0  0  0  0  0  0  0
   60.4875   31.5484   47.2166 H   0  0  0  0  0  0  0  0  0  0  0  0
   60.5927   32.7440   45.8321 H   0  0  0  0  0  0  0  0  0  0  0  0
   62.7986   32.1520   46.9593 H   0  0  0  0  0  0  0  0  0  0  0  0
   62.3988   33.9006   46.8313 H   0  0  0  0  0  0  0  0  0  0  0  0
  1  2  1  0
  2  3  1  0
  3  4  2  0
  4  5  1  0
  5  6  2  0
  6  7  1  0
  7  8  2  0
  8  9  1  0
  9 10  1  0
 10 11  1  0
 11 12  1  0
 12 13  1  0
 13 14  1  0
 14 15  1  0
 15 16  1  0
 16 17  1  0
 17 18  1  0
 18 19  2  0
 18 20  1  0
 20 21  1  0
 21 22  1  0
 22 23  2  0
 23 24  1  0
 24 25  1  0
 25 26  1  0
 12 27  1  0
 27 28  1  0
  8  3  1  0
 28  9  1  0
 25 21  2  0
  1 29  1  0
  1 30  1  0
  1 31  1  0
  4 32  1  0
  5 33  1  0
  6 34  1  0
  7 35  1  0
 10 36  1  0
 10 37  1  0
 11 38  1  0
 11 39  1  0
 13 40  1  0
 13 41  1  0
 14 42  1  0
 14 43  1  0
 15 44  1  0
 15 45  1  0
 16 46  1  0
 16 47  1  0
 20 48  1  0
 20 49  1  0
 22 50  1  0
 23 51  1  0
 26 52  1  0
 27 53  1  0
 27 54  1  0
 28 55  1  0
 28 56  1  0
M  CHG  2  17  -1  24  -1
M  END
>  <UniqueID>  (38) 
36

>  <SMILES>  (38) 
COc1ccccc1N1CCN(CCCC[N-]C(=O)Cc2cc[n-]c2O)CC1

>  <Energy>  (38) 
86.63178447186094

>  <Genealogy>  (38) 
COc1ccccc1N1CCN(CCCC[N-]C(=O)Cc2cc[n-]c2O)CC1 (protonated)
COc1ccccc1N1CCN(CCCC[N-]C(=O)Cc2cc[n-]c2O)CC1 (3D coordinates assigned)
COc1ccccc1N1CCN(CCCC[N-]C(=O)Cc2cc[n-]c2O)CC1 (nonaromatic ring conformer: 86.63178447186094 kcal/mol)

>  <smiles>  (38) 
COc1ccccc1N1CCN(CCCCNC(=O)Cc2cc[nH]c2O)CC1

>  <score_type>  (38) 
oracle

>  <origin>  (38) 
adg

>  <m_score__min__energy>  (38) 
-13.18

>  <m_primary>  (38) 
energy

$$$$
38:0
     RDKit          3D

 45 47  0  0  0  0  0  0  0  0999 V2000
   57.4410   26.4850   44.5840 C   0  0  0  0  0  0  0  0  0  0  0  0
   57.1260   27.5720   45.6240 C   0  0  2  0  0  0  0  0  0  0  0  0
   55.8940   28.2730   45.2470 N   0  0  0  0  0  0  0  0  0  0  0  0
   55.7100   29.3920   44.3610 C   0  0  0  0  0  0  0  0  0  0  0  0
   54.6980   29.3900   43.6120 O   0  0  0  0  0  0  0  0  0  0  0  0
   56.6280   30.5490   44.2970 C   0  0  0  0  0  0  0  0  0  0  0  0
   57.5410   30.7890   43.2850 C   0  0  0  0  0  0  0  0  0  0  0  0
   58.1590   31.9800   43.6030 C   0  0  0  0  0  0  0  0  0  0  0  0
   57.5840   32.3920   44.7840 C   0  0  0  0  0  0  0  0  0  0  0  0
   58.0050   33.9920   45.7320 Br  0  0  0  0  0  0  0  0  0  0  0  0
   56.6820   31.5230   45.1730 O   0  0  0  0  0  0  0  0  0  0  0  0
   58.2630   28.5440   45.9190 C   0  0  0  0  0  0  0  0  0  0  0  0
   59.3630   28.6960   45.0500 C   0  0  0  0  0  0  0  0  0  0  0  0
   60.3740   29.6190   45.3330 C   0  0  0  0  0  0  0  0  0  0  0  0
   60.3230   30.3970   46.5000 C   0  0  0  0  0  0  0  0  0  0  0  0
   61.3650   31.4100   46.7920 C   0  0  0  0  0  0  0  0  0  0  0  0
   62.4120   31.0620   47.4030 O   0  0  0  0  0  0  0  0  0  0  0  0
   61.1860   32.7870   46.4190 N   0  0  0  0  0  0  0  0  0  0  0  0
   62.1750   33.8150   46.7350 C   0  0  0  0  0  0  0  0  0  0  0  0
   62.5740   33.7200   48.1820 C   0  0  0  0  0  0  0  0  0  0  0  0
   61.6150   33.9150   49.1900 C   0  0  0  0  0  0  0  0  0  0  0  0
   61.9730   33.8010   50.5360 C   0  0  0  0  0  0  0  0  0  0  0  0
   63.2910   33.4900   50.8870 C   0  0  0  0  0  0  0  0  0  0  0  0
   63.7390   33.3460   52.5770 Cl  0  0  0  0  0  0  0  0  0  0  0  0
   64.2500   33.2910   49.8890 C   0  0  0  0  0  0  0  0  0  0  0  0
   63.8940   33.4030   48.5410 C   0  0  0  0  0  0  0  0  0  0  0  0
   59.2690   30.1950   47.4040 C   0  0  0  0  0  0  0  0  0  0  0  0
   58.2570   29.2750   47.1210 C   0  0  0  0  0  0  0  0  0  0  0  0
   57.7115   25.5517   45.0995 H   0  0  0  0  0  0  0  0  0  0  0  0
   56.5558   26.3127   43.9541 H   0  0  0  0  0  0  0  0  0  0  0  0
   58.2811   26.8127   43.9541 H   0  0  0  0  0  0  0  0  0  0  0  0
   56.9831   27.0453   46.5791 H   0  0  0  0  0  0  0  0  0  0  0  0
   57.7345   30.1576   42.4053 H   0  0  0  0  0  0  0  0  0  0  0  0
   58.9468   32.4935   43.0323 H   0  0  0  0  0  0  0  0  0  0  0  0
   59.4262   28.0817   44.1397 H   0  0  0  0  0  0  0  0  0  0  0  0
   61.2163   29.7365   44.6354 H   0  0  0  0  0  0  0  0  0  0  0  0
   60.2810   33.1020   46.0040 H   0  0  0  0  0  0  0  0  0  0  0  0
   63.0634   33.6720   46.1024 H   0  0  0  0  0  0  0  0  0  0  0  0
   61.7372   34.8063   46.5463 H   0  0  0  0  0  0  0  0  0  0  0  0
   60.5773   34.1586   48.9184 H   0  0  0  0  0  0  0  0  0  0  0  0
   61.2176   33.9560   51.3204 H   0  0  0  0  0  0  0  0  0  0  0  0
   65.2863   33.0459   50.1646 H   0  0  0  0  0  0  0  0  0  0  0  0
   64.6509   33.2422   47.7592 H   0  0  0  0  0  0  0  0  0  0  0  0
   59.2395   30.7661   48.3436 H   0  0  0  0  0  0  0  0  0  0  0  0
   57.4452   29.1201   47.8469 H   0  0  0  0  0  0  0  0  0  0  0  0
  1  2  1  0
  2  3  1  0
  3  4  1  0
  4  5  2  0
  4  6  1  0
  6  7  2  0
  7  8  1  0
  8  9  2  0
  9 10  1  0
  9 11  1  0
  2 12  1  0
 12 13  2  0
 13 14  1  0
 14 15  2  0
 15 16  1  0
 16 17  2  0
 16 18  1  0
 18 19  1  0
 19 20  1  0
 20 21  2  0
 21 22  1  0
 22 23  2  0
 23 24  1  0
 23 25  1  0
 25 26  2  0
 15 27  1  0
 27 28  2  0
 11  6  1  0
 28 12  1  0
 26 20  1  0
  1 29  1  0
  1 30  1  0
  1 31  1  0
  2 32  1  1
  7 33  1  0
  8 34  1  0
 13 35  1  0
 14 36  1  0
 18 37  1  0
 19 38  1  0
 19 39  1  0
 21 40  1  0
 22 41  1  0
 25 42  1  0
 26 43  1  0
 27 44  1  0
 28 45  1  0
M  CHG  1   3  -1
M  END
>  <UniqueID>  (39) 
37

>  <SMILES>  (39) 
C[C@H]([N-]C(=O)c1ccc(Br)o1)c1ccc(C(=O)NCc2ccc(Cl)cc2)cc1

>  <Energy>  (39) 
75.27321061241742

>  <Genealogy>  (39) 
CC([N-]C(=O)c1ccc(Br)o1)c1ccc(C(=O)NCc2ccc(Cl)cc2)cc1 (protonated)
C[C@H]([N-]C(=O)c1ccc(Br)o1)c1ccc(C(=O)NCc2ccc(Cl)cc2)cc1 (chirality)
C[C@H]([N-]C(=O)c1ccc(Br)o1)c1ccc(C(=O)NCc2ccc(Cl)cc2)cc1 (3D coordinates assigned)
C[C@H]([N-]C(=O)c1ccc(Br)o1)c1ccc(C(=O)NCc2ccc(Cl)cc2)cc1 (optimized conformer: 75.27321061241742 kcal/mol)

>  <smiles>  (39) 
CC(NC(=O)c1ccc(Br)o1)c1ccc(C(=O)NCc2ccc(Cl)cc2)cc1

>  <score_type>  (39) 
oracle

>  <origin>  (39) 
adg

>  <m_score__min__energy>  (39) 
-10.859999999999999

>  <m_primary>  (39) 
energy

$$$$
39:0
     RDKit          3D

 64 67  0  0  0  0  0  0  0  0999 V2000
   58.1750   27.2330   47.5950 C   0  0  0  0  0  0  0  0  0  0  0  0
   57.9010   26.5110   46.3040 C   0  0  0  0  0  0  0  0  0  0  0  0
   57.5000   25.1670   46.3470 C   0  0  0  0  0  0  0  0  0  0  0  0
   57.2700   24.4580   45.1680 C   0  0  0  0  0  0  0  0  0  0  0  0
   57.4300   25.0830   43.9320 C   0  0  0  0  0  0  0  0  0  0  0  0
   57.8020   26.4340   43.8590 C   0  0  0  0  0  0  0  0  0  0  0  0
   57.9600   27.0910   42.5160 C   0  0  0  0  0  0  0  0  0  0  0  0
   58.0270   27.1610   45.0520 C   0  0  0  0  0  0  0  0  0  0  0  0
   58.4090   28.5450   44.9820 N   0  0  0  0  0  0  0  0  0  0  0  0
   57.4510   29.6040   45.1280 C   0  0  0  0  0  0  0  0  0  0  0  0
   56.2180   29.3360   45.0870 O   0  0  0  0  0  0  0  0  0  0  0  0
   57.8860   31.0110   45.2970 C   0  0  0  0  0  0  0  0  0  0  0  0
   57.6490   31.9490   44.2770 C   0  0  0  0  0  0  0  0  0  0  0  0
   58.0430   33.2790   44.4320 C   0  0  0  0  0  0  0  0  0  0  0  0
   58.6770   33.6920   45.6040 C   0  0  0  0  0  0  0  0  0  0  0  0
   58.9290   32.7730   46.6370 C   0  0  0  0  0  0  0  0  0  0  0  0
   59.5790   33.2140   47.8920 C   0  0  0  0  0  0  0  0  0  0  0  0
   58.8710   33.4490   48.9080 O   0  0  0  0  0  0  0  0  0  0  0  0
   61.0050   33.3790   47.9750 N   0  0  0  0  0  0  0  0  0  0  0  0
   61.5650   34.5890   48.5850 C   0  0  0  0  0  0  0  0  0  0  0  0
   62.5770   34.2050   49.6680 C   0  0  0  0  0  0  0  0  0  0  0  0
   63.5340   33.1940   49.1840 N   0  0  0  0  0  0  0  0  0  0  0  0
   64.7110   32.8810   49.9580 C   0  0  0  0  0  0  0  0  0  0  0  0
   65.7210   32.3810   49.3920 O   0  0  0  0  0  0  0  0  0  0  0  0
   64.7700   33.1390   51.4390 C   0  0  0  0  0  0  0  0  0  0  0  0
   63.9000   32.2540   52.1440 O   0  0  0  0  0  0  0  0  0  0  0  0
   62.7430   31.6600   51.6140 C   0  0  0  0  0  0  0  0  0  0  0  0
   61.5080   32.2660   51.8790 C   0  0  0  0  0  0  0  0  0  0  0  0
   60.3260   31.7230   51.3650 C   0  0  0  0  0  0  0  0  0  0  0  0
   60.3700   30.5650   50.5820 C   0  0  0  0  0  0  0  0  0  0  0  0
   58.8880   29.8860   49.9330 Cl  0  0  0  0  0  0  0  0  0  0  0  0
   61.5970   29.9480   50.3180 C   0  0  0  0  0  0  0  0  0  0  0  0
   62.7800   30.4880   50.8330 C   0  0  0  0  0  0  0  0  0  0  0  0
   63.3620   32.6020   47.8480 C   0  0  0  0  0  0  0  0  0  0  0  0
   61.8870   32.2650   47.5970 C   0  0  0  0  0  0  0  0  0  0  0  0
   58.5150   31.4380   46.4820 C   0  0  0  0  0  0  0  0  0  0  0  0
   57.9260   26.5769   48.4420 H   0  0  0  0  0  0  0  0  0  0  0  0
   59.2394   27.5064   47.6435 H   0  0  0  0  0  0  0  0  0  0  0  0
   57.5600   28.1437   47.6435 H   0  0  0  0  0  0  0  0  0  0  0  0
   57.3659   24.6685   47.3184 H   0  0  0  0  0  0  0  0  0  0  0  0
   56.9616   23.4031   45.2135 H   0  0  0  0  0  0  0  0  0  0  0  0
   57.2632   24.5123   43.0065 H   0  0  0  0  0  0  0  0  0  0  0  0
   58.2152   28.1520   42.6546 H   0  0  0  0  0  0  0  0  0  0  0  0
   58.7635   26.5909   41.9554 H   0  0  0  0  0  0  0  0  0  0  0  0
   57.0170   27.0109   41.9554 H   0  0  0  0  0  0  0  0  0  0  0  0
   59.3640   28.7730   44.6270 H   0  0  0  0  0  0  0  0  0  0  0  0
   57.1492   31.6323   43.3497 H   0  0  0  0  0  0  0  0  0  0  0  0
   57.8529   34.0042   43.6270 H   0  0  0  0  0  0  0  0  0  0  0  0
   58.9813   34.7427   45.7202 H   0  0  0  0  0  0  0  0  0  0  0  0
   62.0678   35.1883   47.8117 H   0  0  0  0  0  0  0  0  0  0  0  0
   60.7527   35.1752   49.0394 H   0  0  0  0  0  0  0  0  0  0  0  0
   63.1320   35.1045   49.9727 H   0  0  0  0  0  0  0  0  0  0  0  0
   62.0250   33.7766   50.5176 H   0  0  0  0  0  0  0  0  0  0  0  0
   65.8011   32.9866   51.7906 H   0  0  0  0  0  0  0  0  0  0  0  0
   64.4489   34.1738   51.6291 H   0  0  0  0  0  0  0  0  0  0  0  0
   61.4676   33.1758   52.4960 H   0  0  0  0  0  0  0  0  0  0  0  0
   59.3612   32.2070   51.5767 H   0  0  0  0  0  0  0  0  0  0  0  0
   61.6318   29.0360   49.7040 H   0  0  0  0  0  0  0  0  0  0  0  0
   63.7422   29.9961   50.6276 H   0  0  0  0  0  0  0  0  0  0  0  0
   63.7042   33.3191   47.0873 H   0  0  0  0  0  0  0  0  0  0  0  0
   63.9538   31.6766   47.7895 H   0  0  0  0  0  0  0  0  0  0  0  0
   61.7478   32.0464   46.5280 H   0  0  0  0  0  0  0  0  0  0  0  0
   61.6236   31.3932   48.2140 H   0  0  0  0  0  0  0  0  0  0  0  0
   58.6847   30.7185   47.2966 H   0  0  0  0  0  0  0  0  0  0  0  0
  1  2  1  0
  2  3  2  0
  3  4  1  0
  4  5  2  0
  5  6  1  0
  6  7  1  0
  6  8  2  0
  8  9  1  0
  9 10  1  0
 10 11  2  0
 10 12  1  0
 12 13  2  0
 13 14  1  0
 14 15  2  0
 15 16  1  0
 16 17  1  0
 17 18  2  0
 17 19  1  0
 19 20  1  0
 20 21  1  0
 21 22  1  0
 22 23  1  0
 23 24  2  0
 23 25  1  0
 25 26  1  0
 26 27  1  0
 27 28  2  0
 28 29  1  0
 29 30  2  0
 30 31  1  0
 30 32  1  0
 32 33  2  0
 22 34  1  0
 34 35  1  0
 16 36  2  0
  8  2  1  0
 36 12  1  0
 35 19  1  0
 33 27  1  0
  1 37  1  0
  1 38  1  0
  1 39  1  0
  3 40  1  0
  4 41  1  0
  5 42  1  0
  7 43  1  0
  7 44  1  0
  7 45  1  0
  9 46  1  0
 13 47  1  0
 14 48  1  0
 15 49  1  0
 20 50  1  0
 20 51  1  0
 21 52  1  0
 21 53  1  0
 25 54  1  0
 25 55  1  0
 28 56  1  0
 29 57  1  0
 32 58  1  0
 33 59  1  0
 34 60  1  0
 34 61  1  0
 35 62  1  0
 35 63  1  0
 36 64  1  0
M  END
>  <UniqueID>  (40) 
38

>  <SMILES>  (40) 
Cc1cccc(C)c1NC(=O)c1cccc(C(=O)N2CCN(C(=O)COc3ccc(Cl)cc3)CC2)c1

>  <Energy>  (40) 
80.44585629918846

>  <Genealogy>  (40) 
Cc1cccc(C)c1NC(=O)c1cccc(C(=O)N2CCN(C(=O)COc3ccc(Cl)cc3)CC2)c1 (3D coordinates assigned)
Cc1cccc(C)c1NC(=O)c1cccc(C(=O)N2CCN(C(=O)COc3ccc(Cl)cc3)CC2)c1 (nonaromatic ring conformer: 80.44585629918846 kcal/mol)

>  <smiles>  (40) 
Cc1cccc(C)c1NC(=O)c1cccc(C(=O)N2CCN(C(=O)COc3ccc(Cl)cc3)CC2)c1

>  <score_type>  (40) 
oracle

>  <origin>  (40) 
adg

>  <m_score__min__energy>  (40) 
-8.9299999999999997

>  <m_primary>  (40) 
energy

$$$$
40:0
     RDKit          3D

 77 79  0  0  0  0  0  0  0  0999 V2000
   56.5570   25.1020   45.3210 C   0  0  0  0  0  0  0  0  0  0  0  0
   56.0890   26.1700   46.3070 C   0  0  0  0  0  0  0  0  0  0  0  0
   55.7340   27.3680   45.6200 O   0  0  0  0  0  0  0  0  0  0  0  0
   56.6430   28.3980   45.3510 C   0  0  0  0  0  0  0  0  0  0  0  0
   56.2470   29.5860   45.2100 O   0  0  0  0  0  0  0  0  0  0  0  0
   58.1140   28.0810   45.3060 C   0  0  1  0  0  0  0  0  0  0  0  0
   58.9030   29.1960   44.6100 C   0  0  0  0  0  0  0  0  0  0  0  0
   60.3900   28.8250   44.5010 C   0  0  0  0  0  0  0  0  0  0  0  0
   60.8730   27.9350   45.6650 C   0  0  0  0  0  0  0  0  0  0  0  0
   60.0970   28.1940   46.8990 N   0  0  2  0  0  0  0  0  0  0  0  0
   60.6760   27.4770   48.0600 C   0  0  0  0  0  0  0  0  0  0  0  0
   60.3210   28.1360   49.3750 C   0  0  0  0  0  0  0  0  0  0  0  0
   60.8430   27.6370   50.5800 C   0  0  0  0  0  0  0  0  0  0  0  0
   60.5480   28.2690   51.7910 C   0  0  0  0  0  0  0  0  0  0  0  0
   59.7210   29.3950   51.8140 C   0  0  0  0  0  0  0  0  0  0  0  0
   59.1630   29.8830   50.6270 C   0  0  0  0  0  0  0  0  0  0  0  0
   58.3120   31.0370   50.6740 N   0  0  0  0  0  0  0  0  0  0  0  0
   58.7480   32.3740   50.3960 C   0  0  0  0  0  0  0  0  0  0  0  0
   58.5860   33.2700   51.2670 O   0  0  0  0  0  0  0  0  0  0  0  0
   59.3830   32.7100   49.1070 C   0  0  0  0  0  0  0  0  0  0  0  0
   58.5910   32.9080   47.9740 C   0  0  0  0  0  0  0  0  0  0  0  0
   59.1670   33.1680   46.7170 C   0  0  0  0  0  0  0  0  0  0  0  0
   58.2440   33.4510   45.5110 C   0  0  0  0  0  0  0  0  0  0  0  0
   58.4110   32.3320   44.4510 C   0  0  0  0  0  0  0  0  0  0  0  0
   58.5360   34.8050   44.8190 C   0  0  0  0  0  0  0  0  0  0  0  0
   56.7780   33.4710   45.9910 C   0  0  0  0  0  0  0  0  0  0  0  0
   60.5800   33.1830   46.6270 C   0  0  0  0  0  0  0  0  0  0  0  0
   61.4030   32.9630   47.7580 C   0  0  0  0  0  0  0  0  0  0  0  0
   62.9450   32.9890   47.6780 C   0  0  0  0  0  0  0  0  0  0  0  0
   63.4170   33.8870   46.5050 C   0  0  0  0  0  0  0  0  0  0  0  0
   63.6040   33.5380   48.9660 C   0  0  0  0  0  0  0  0  0  0  0  0
   63.4520   31.5500   47.4470 C   0  0  0  0  0  0  0  0  0  0  0  0
   60.7730   32.7850   49.0070 C   0  0  0  0  0  0  0  0  0  0  0  0
   59.4800   29.2600   49.4060 C   0  0  0  0  0  0  0  0  0  0  0  0
   58.6700   27.8020   46.7280 C   0  0  0  0  0  0  0  0  0  0  0  0
   56.9381   24.2322   45.8762 H   0  0  0  0  0  0  0  0  0  0  0  0
   55.7124   24.7917   44.6883 H   0  0  0  0  0  0  0  0  0  0  0  0
   57.3576   25.5127   44.6883 H   0  0  0  0  0  0  0  0  0  0  0  0
   55.2127   25.7954   46.8564 H   0  0  0  0  0  0  0  0  0  0  0  0
   56.9100   26.3919   47.0047 H   0  0  0  0  0  0  0  0  0  0  0  0
   58.2400   27.1644   44.7111 H   0  0  0  0  0  0  0  0  0  0  0  0
   58.4948   29.3506   43.6003 H   0  0  0  0  0  0  0  0  0  0  0  0
   58.8118   30.1169   45.2047 H   0  0  0  0  0  0  0  0  0  0  0  0
   60.5486   28.2842   43.5563 H   0  0  0  0  0  0  0  0  0  0  0  0
   60.9675   29.7605   44.5388 H   0  0  0  0  0  0  0  0  0  0  0  0
   60.7535   26.8788   45.3818 H   0  0  0  0  0  0  0  0  0  0  0  0
   61.9295   28.1677   45.8643 H   0  0  0  0  0  0  0  0  0  0  0  0
   60.1260   29.2230   47.1030 H   0  0  0  0  0  0  0  0  0  0  0  0
   60.2933   26.4458   48.0661 H   0  0  0  0  0  0  0  0  0  0  0  0
   61.7710   27.4976   47.9572 H   0  0  0  0  0  0  0  0  0  0  0  0
   61.4867   26.7450   50.5703 H   0  0  0  0  0  0  0  0  0  0  0  0
   60.9684   27.8786   52.7295 H   0  0  0  0  0  0  0  0  0  0  0  0
   59.5079   29.8994   52.7680 H   0  0  0  0  0  0  0  0  0  0  0  0
   57.4959   32.8598   48.0661 H   0  0  0  0  0  0  0  0  0  0  0  0
   58.5552   31.3661   44.9571 H   0  0  0  0  0  0  0  0  0  0  0  0
   57.5099   32.2854   43.8219 H   0  0  0  0  0  0  0  0  0  0  0  0
   59.2865   32.5506   43.8219 H   0  0  0  0  0  0  0  0  0  0  0  0
   58.7029   35.5787   45.5829 H   0  0  0  0  0  0  0  0  0  0  0  0
   59.4343   34.7098   44.1913 H   0  0  0  0  0  0  0  0  0  0  0  0
   57.6783   35.0884   44.1913 H   0  0  0  0  0  0  0  0  0  0  0  0
   56.7522   33.4714   47.0907 H   0  0  0  0  0  0  0  0  0  0  0  0
   56.2805   34.3760   45.6123 H   0  0  0  0  0  0  0  0  0  0  0  0
   56.2560   32.5799   45.6123 H   0  0  0  0  0  0  0  0  0  0  0  0
   61.0516   33.3708   45.6511 H   0  0  0  0  0  0  0  0  0  0  0  0
   63.8935   34.7937   46.9061 H   0  0  0  0  0  0  0  0  0  0  0  0
   64.1411   33.3343   45.8885 H   0  0  0  0  0  0  0  0  0  0  0  0
   62.5511   34.1700   45.8885 H   0  0  0  0  0  0  0  0  0  0  0  0
   63.0969   33.1156   49.8460 H   0  0  0  0  0  0  0  0  0  0  0  0
   64.6666   33.2543   48.9838 H   0  0  0  0  0  0  0  0  0  0  0  0
   63.5169   34.6344   48.9838 H   0  0  0  0  0  0  0  0  0  0  0  0
   63.6241   31.0616   48.4175 H   0  0  0  0  0  0  0  0  0  0  0  0
   62.6996   30.9828   46.8794 H   0  0  0  0  0  0  0  0  0  0  0  0
   64.3938   31.5797   46.8794 H   0  0  0  0  0  0  0  0  0  0  0  0
   61.3865   32.7040   49.9164 H   0  0  0  0  0  0  0  0  0  0  0  0
   59.0654   29.6569   48.4676 H   0  0  0  0  0  0  0  0  0  0  0  0
   58.5786   26.7249   46.9318 H   0  0  0  0  0  0  0  0  0  0  0  0
   58.0820   28.4124   47.4292 H   0  0  0  0  0  0  0  0  0  0  0  0
  1  2  1  0
  2  3  1  0
  3  4  1  0
  4  5  2  0
  4  6  1  0
  6  7  1  0
  7  8  1  0
  8  9  1  0
  9 10  1  0
 10 11  1  0
 11 12  1  0
 12 13  2  0
 13 14  1  0
 14 15  2  0
 15 16  1  0
 16 17  1  0
 17 18  1  0
 18 19  2  0
 18 20  1  0
 20 21  2  0
 21 22  1  0
 22 23  1  0
 23 24  1  0
 23 25  1  0
 23 26  1  0
 22 27  2  0
 27 28  1  0
 28 29  1  0
 29 30  1  0
 29 31  1  0
 29 32  1  0
 28 33  2  0
 16 34  2  0
 10 35  1  0
 35  6  1  0
 34 12  1  0
 33 20  1  0
  1 36  1  0
  1 37  1  0
  1 38  1  0
  2 39  1  0
  2 40  1  0
  6 41  1  6
  7 42  1  0
  7 43  1  0
  8 44  1  0
  8 45  1  0
  9 46  1  0
  9 47  1  0
 10 48  1  1
 11 49  1  0
 11 50  1  0
 13 51  1  0
 14 52  1  0
 15 53  1  0
 21 54  1  0
 24 55  1  0
 24 56  1  0
 24 57  1  0
 25 58  1  0
 25 59  1  0
 25 60  1  0
 26 61  1  0
 26 62  1  0
 26 63  1  0
 27 64  1  0
 30 65  1  0
 30 66  1  0
 30 67  1  0
 31 68  1  0
 31 69  1  0
 31 70  1  0
 32 71  1  0
 32 72  1  0
 32 73  1  0
 33 74  1  0
 34 75  1  0
 35 76  1  0
 35 77  1  0
M  CHG  2  10   1  17  -1
M  END
>  <UniqueID>  (41) 
39

>  <SMILES>  (41) 
CCOC(=O)[C@H]1CCC[N@H+](Cc2cccc([N-]C(=O)c3cc(C(C)(C)C)cc(C(C)(C)C)c3)c2)C1

>  <Energy>  (41) 
84.20787291047297

>  <Genealogy>  (41) 
CCOC(=O)C1CCC[NH+](Cc2cccc([N-]C(=O)c3cc(C(C)(C)C)cc(C(C)(C)C)c3)c2)C1 (protonated)
CCOC(=O)[C@H]1CCC[N@H+](Cc2cccc([N-]C(=O)c3cc(C(C)(C)C)cc(C(C)(C)C)c3)c2)C1 (chirality)
CCOC(=O)[C@H]1CCC[N@H+](Cc2cccc([N-]C(=O)c3cc(C(C)(C)C)cc(C(C)(C)C)c3)c2)C1 (3D coordinates assigned)
CCOC(=O)[C@H]1CCC[N@H+](Cc2cccc([N-]C(=O)c3cc(C(C)(C)C)cc(C(C)(C)C)c3)c2)C1 (nonaromatic ring conformer: 84.20787291047297 kcal/mol)

>  <smiles>  (41) 
CCOC(=O)C1CCCN(Cc2cccc(NC(=O)c3cc(C(C)(C)C)cc(C(C)(C)C)c3)c2)C1

>  <score_type>  (41) 
oracle

>  <origin>  (41) 
adg

>  <m_score__min__energy>  (41) 
-9.5899999999999999

>  <m_primary>  (41) 
energy

$$$$
41:0
     RDKit          3D

 56 59  0  0  0  0  0  0  0  0999 V2000
   62.8910   33.9550   49.9850 C   0  0  0  0  0  0  0  0  0  0  0  0
   62.0290   33.9210   48.7990 C   0  0  0  0  0  0  0  0  0  0  0  0
   62.5570   33.5650   47.5500 C   0  0  0  0  0  0  0  0  0  0  0  0
   61.7500   33.5610   46.4170 C   0  0  0  0  0  0  0  0  0  0  0  0
   60.4400   33.9040   46.5140 C   0  0  0  0  0  0  0  0  0  0  0  0
   59.5310   33.9600   45.2840 C   0  0  0  0  0  0  0  0  0  0  0  0
   58.4940   33.0500   45.5950 N   0  0  0  0  0  0  0  0  0  0  0  0
   57.1630   33.4680   45.4060 C   0  0  0  0  0  0  0  0  0  0  0  0
   58.8150   31.7340   45.8700 C   0  0  0  0  0  0  0  0  0  0  0  0
   58.4000   30.6770   44.9080 C   0  0  0  0  0  0  0  0  0  0  0  0
   57.8640   29.4070   45.5090 C   0  0  0  0  0  0  0  0  0  0  0  0
   58.6620   28.9700   46.6210 N   0  0  0  0  0  0  0  0  0  0  0  0
   58.9580   27.6460   46.9930 C   0  0  0  0  0  0  0  0  0  0  0  0
   59.7070   27.5130   48.0340 O   0  0  0  0  0  0  0  0  0  0  0  0
   58.5480   26.4120   46.3800 C   0  0  0  0  0  0  0  0  0  0  0  0
   57.2130   26.1610   46.1650 N   0  0  0  0  0  0  0  0  0  0  0  0
   57.0470   24.9720   45.5880 C   0  0  0  0  0  0  0  0  0  0  0  0
   55.9460   24.2650   45.1730 C   0  0  0  0  0  0  0  0  0  0  0  0
   54.6190   24.8440   45.3330 C   0  0  0  0  0  0  0  0  0  0  0  0
   53.6340   24.2260   44.8590 O   0  0  0  0  0  0  0  0  0  0  0  0
   54.4320   26.0480   45.9890 O   0  0  0  0  0  0  0  0  0  0  0  0
   56.0400   23.0210   44.5910 C   0  0  0  0  0  0  0  0  0  0  0  0
   57.3020   22.4950   44.4360 C   0  0  0  0  0  0  0  0  0  0  0  0
   58.4480   23.1880   44.8480 C   0  0  0  0  0  0  0  0  0  0  0  0
   58.2870   24.4240   45.4190 C   0  0  0  0  0  0  0  0  0  0  0  0
   59.1670   25.3410   45.9160 N   0  0  0  0  0  0  0  0  0  0  0  0
   59.2320   30.0050   47.5120 C   0  0  0  0  0  0  0  0  0  0  0  0
   58.4780   31.3090   47.3240 C   0  0  0  0  0  0  0  0  0  0  0  0
   59.9070   34.2570   47.7490 C   0  0  0  0  0  0  0  0  0  0  0  0
   60.6770   34.2720   48.8970 C   0  0  0  0  0  0  0  0  0  0  0  0
   62.2685   33.9304   50.8916 H   0  0  0  0  0  0  0  0  0  0  0  0
   63.5609   33.0826   49.9765 H   0  0  0  0  0  0  0  0  0  0  0  0
   63.4901   34.8775   49.9765 H   0  0  0  0  0  0  0  0  0  0  0  0
   63.6178   33.2866   47.4653 H   0  0  0  0  0  0  0  0  0  0  0  0
   62.1736   33.2797   45.4416 H   0  0  0  0  0  0  0  0  0  0  0  0
   59.1321   34.9744   45.1363 H   0  0  0  0  0  0  0  0  0  0  0  0
   60.0571   33.7062   44.3519 H   0  0  0  0  0  0  0  0  0  0  0  0
   56.6835   33.6186   46.3845 H   0  0  0  0  0  0  0  0  0  0  0  0
   57.1519   34.4129   44.8429 H   0  0  0  0  0  0  0  0  0  0  0  0
   56.6137   32.6991   44.8429 H   0  0  0  0  0  0  0  0  0  0  0  0
   59.9054   31.7819   45.7329 H   0  0  0  0  0  0  0  0  0  0  0  0
   57.6163   31.0997   44.2621 H   0  0  0  0  0  0  0  0  0  0  0  0
   59.3175   30.3867   44.3751 H   0  0  0  0  0  0  0  0  0  0  0  0
   56.8348   29.5826   45.8554 H   0  0  0  0  0  0  0  0  0  0  0  0
   57.8906   28.6234   44.7375 H   0  0  0  0  0  0  0  0  0  0  0  0
   55.0620   26.3520   46.7500 H   0  0  0  0  0  0  0  0  0  0  0  0
   55.1450   22.4713   44.2640 H   0  0  0  0  0  0  0  0  0  0  0  0
   57.4144   21.5023   43.9756 H   0  0  0  0  0  0  0  0  0  0  0  0
   59.4495   22.7523   44.7169 H   0  0  0  0  0  0  0  0  0  0  0  0
   60.1820   25.1600   45.8900 H   0  0  0  0  0  0  0  0  0  0  0  0
   59.1420   29.6775   48.5583 H   0  0  0  0  0  0  0  0  0  0  0  0
   60.2929   30.1570   47.2641 H   0  0  0  0  0  0  0  0  0  0  0  0
   57.3955   31.1553   47.4451 H   0  0  0  0  0  0  0  0  0  0  0  0
   58.7623   32.0718   48.0638 H   0  0  0  0  0  0  0  0  0  0  0  0
   58.8439   34.5317   47.8142 H   0  0  0  0  0  0  0  0  0  0  0  0
   60.2376   34.5533   49.8654 H   0  0  0  0  0  0  0  0  0  0  0  0
  1  2  1  0
  2  3  2  0
  3  4  1  0
  4  5  2  0
  5  6  1  0
  6  7  1  0
  7  8  1  0
  7  9  1  0
  9 10  1  0
 10 11  1  0
 11 12  1  0
 12 13  1  0
 13 14  2  0
 13 15  1  0
 15 16  2  0
 16 17  1  0
 17 18  2  0
 18 19  1  0
 19 20  2  0
 19 21  1  0
 18 22  1  0
 22 23  2  0
 23 24  1  0
 24 25  2  0
 25 26  1  0
 12 27  1  0
 27 28  1  0
  5 29  1  0
 29 30  2  0
 30  2  1  0
 28  9  1  0
 26 15  1  0
 25 17  1  0
  1 31  1  0
  1 32  1  0
  1 33  1  0
  3 34  1  0
  4 35  1  0
  6 36  1  0
  6 37  1  0
  8 38  1  0
  8 39  1  0
  8 40  1  0
  9 41  1  0
 10 42  1  0
 10 43  1  0
 11 44  1  0
 11 45  1  0
 21 46  1  0
 22 47  1  0
 23 48  1  0
 24 49  1  0
 26 50  1  0
 27 51  1  0
 27 52  1  0
 28 53  1  0
 28 54  1  0
 29 55  1  0
 30 56  1  0
M  END
>  <smiles>  (42) 
Cc1ccc(CN(C)C2CCN(C(=O)c3nc4c(C(=O)O)cccc4[nH]3)CC2)cc1

>  <score_type>  (42) 
oracle

>  <origin>  (42) 
adg

>  <m_score__min__energy>  (42) 
-9.7200000000000006

>  <m_primary>  (42) 
energy

$$$$
42:0
     RDKit          3D

 40 42  0  0  0  0  0  0  0  0999 V2000
   55.0640   29.3120   44.1090 O   0  0  0  0  0  0  0  0  0  0  0  0
   56.1360   29.7690   44.5830 C   0  0  0  0  0  0  0  0  0  0  0  0
   56.2600   31.1820   44.7860 N   0  0  0  0  0  0  0  0  0  0  0  0
   57.3400   31.9970   44.2430 C   0  0  0  0  0  0  0  0  0  0  0  0
   58.1900   32.5080   45.3700 C   0  0  0  0  0  0  0  0  0  0  0  0
   58.3270   31.7600   46.5490 C   0  0  0  0  0  0  0  0  0  0  0  0
   59.1470   32.2200   47.5850 C   0  0  0  0  0  0  0  0  0  0  0  0
   59.8600   33.4200   47.4460 C   0  0  0  0  0  0  0  0  0  0  0  0
   60.7140   33.9030   48.5500 C   0  0  0  0  0  0  0  0  0  0  0  0
   60.1900   34.5930   49.4680 O   0  0  0  0  0  0  0  0  0  0  0  0
   62.1160   33.5900   48.6110 N   0  0  0  0  0  0  0  0  0  0  0  0
   63.0330   34.2180   49.5550 C   0  0  0  0  0  0  0  0  0  0  0  0
   64.2610   33.3820   49.4560 C   0  0  0  0  0  0  0  0  0  0  0  0
   64.0910   32.3840   48.5980 C   0  0  0  0  0  0  0  0  0  0  0  0
   62.7310   32.4210   47.9930 C   0  0  0  0  0  0  0  0  0  0  0  0
   59.7170   34.1710   46.2680 C   0  0  0  0  0  0  0  0  0  0  0  0
   58.8970   33.7130   45.2330 C   0  0  0  0  0  0  0  0  0  0  0  0
   57.2420   28.8410   44.8810 C   0  0  0  0  0  0  0  0  0  0  0  0
   58.5560   29.1920   44.5290 C   0  0  0  0  0  0  0  0  0  0  0  0
   59.6140   28.3200   44.8010 C   0  0  0  0  0  0  0  0  0  0  0  0
   59.3670   27.0880   45.4140 C   0  0  0  0  0  0  0  0  0  0  0  0
   58.0590   26.7240   45.7480 C   0  0  0  0  0  0  0  0  0  0  0  0
   56.9960   27.5920   45.4780 C   0  0  0  0  0  0  0  0  0  0  0  0
   55.7290   27.1990   45.7630 F   0  0  0  0  0  0  0  0  0  0  0  0
   57.9557   31.3872   43.5655 H   0  0  0  0  0  0  0  0  0  0  0  0
   56.9170   32.8460   43.6859 H   0  0  0  0  0  0  0  0  0  0  0  0
   57.7874   30.8078   46.6593 H   0  0  0  0  0  0  0  0  0  0  0  0
   59.2331   31.6373   48.5140 H   0  0  0  0  0  0  0  0  0  0  0  0
   63.2418   35.2589   49.2669 H   0  0  0  0  0  0  0  0  0  0  0  0
   62.6290   34.2661   50.5770 H   0  0  0  0  0  0  0  0  0  0  0  0
   65.1872   33.5672   50.0198 H   0  0  0  0  0  0  0  0  0  0  0  0
   64.8551   31.6280   48.3643 H   0  0  0  0  0  0  0  0  0  0  0  0
   62.7894   32.5385   46.9009 H   0  0  0  0  0  0  0  0  0  0  0  0
   62.1606   31.4960   48.1634 H   0  0  0  0  0  0  0  0  0  0  0  0
   60.2534   35.1252   46.1593 H   0  0  0  0  0  0  0  0  0  0  0  0
   58.8052   34.2994   44.3069 H   0  0  0  0  0  0  0  0  0  0  0  0
   58.7529   30.1563   44.0377 H   0  0  0  0  0  0  0  0  0  0  0  0
   60.6423   28.6035   44.5324 H   0  0  0  0  0  0  0  0  0  0  0  0
   60.2012   26.4054   45.6334 H   0  0  0  0  0  0  0  0  0  0  0  0
   57.8653   25.7518   46.2247 H   0  0  0  0  0  0  0  0  0  0  0  0
  1  2  2  0
  2  3  1  0
  3  4  1  0
  4  5  1  0
  5  6  2  0
  6  7  1  0
  7  8  2  0
  8  9  1  0
  9 10  2  0
  9 11  1  0
 11 12  1  0
 12 13  1  0
 13 14  2  0
 14 15  1  0
  8 16  1  0
 16 17  2  0
  2 18  1  0
 18 19  2  0
 19 20  1  0
 20 21  2  0
 21 22  1  0
 22 23  2  0
 23 24  1  0
 17  5  1  0
 23 18  1  0
 15 11  1  0
  4 25  1  0
  4 26  1  0
  6 27  1  0
  7 28  1  0
 12 29  1  0
 12 30  1  0
 13 31  1  0
 14 32  1  0
 15 33  1  0
 15 34  1  0
 16 35  1  0
 17 36  1  0
 19 37  1  0
 20 38  1  0
 21 39  1  0
 22 40  1  0
M  CHG  1   3  -1
M  END
>  <UniqueID>  (43) 
40

>  <SMILES>  (43) 
O=C([N-]Cc1ccc(C(=O)N2CC=CC2)cc1)c1ccccc1F

>  <Energy>  (43) 
56.58108291778713

>  <Genealogy>  (43) 
O=C([N-]Cc1ccc(C(=O)N2CC=CC2)cc1)c1ccccc1F (protonated)
O=C([N-]Cc1ccc(C(=O)N2CC=CC2)cc1)c1ccccc1F (3D coordinates assigned)
O=C([N-]Cc1ccc(C(=O)N2CC=CC2)cc1)c1ccccc1F (nonaromatic ring conformer: 56.58108291778713 kcal/mol)

>  <smiles>  (43) 
O=C(NCc1ccc(C(=O)N2CC=CC2)cc1)c1ccccc1F

>  <score_type>  (43) 
oracle

>  <origin>  (43) 
adg

>  <m_score__min__energy>  (43) 
-10.49

>  <m_primary>  (43) 
energy

$$$$
43:0
     RDKit          3D

 48 51  0  0  0  0  0  0  0  0999 V2000
   52.5598   28.7572   53.1478 H   0  0  0  0  0  0  0  0  0  0  0  0
   53.6180   28.4570   53.1450 C   0  0  0  0  0  0  0  0  0  0  0  0
   53.9014   27.4380   53.4472 H   0  0  0  0  0  0  0  0  0  0  0  0
   54.5580   29.3290   52.7750 C   0  0  0  0  0  0  0  0  0  0  0  0
   55.8310   29.0040   52.7600 O   0  0  0  0  0  0  0  0  0  0  0  0
   56.5200   29.9990   52.2520 C   0  0  0  0  0  0  0  0  0  0  0  0
   57.9790   29.9670   52.0650 C   0  0  0  0  0  0  0  0  0  0  0  0
   58.6270   28.9640   52.4690 O   0  0  0  0  0  0  0  0  0  0  0  0
   58.6680   31.0480   51.4200 N   0  0  0  0  0  0  0  0  0  0  0  0
   59.6770   30.7310   50.4010 C   0  0  0  0  0  0  0  0  0  0  0  0
   60.6416   30.5554   50.8996 H   0  0  0  0  0  0  0  0  0  0  0  0
   59.3398   29.8361   49.8575 H   0  0  0  0  0  0  0  0  0  0  0  0
   59.8470   31.8740   49.3760 C   0  0  0  0  0  0  0  0  0  0  0  0
   60.9193   32.0944   49.2682 H   0  0  0  0  0  0  0  0  0  0  0  0
   59.4052   31.5392   48.4259 H   0  0  0  0  0  0  0  0  0  0  0  0
   59.1480   33.1100   49.7850 N   0  0  0  0  0  0  0  0  0  0  0  0
   59.4180   34.2550   48.8870 C   0  0  0  0  0  0  0  0  0  0  0  0
   58.9407   35.1492   49.3143 H   0  0  0  0  0  0  0  0  0  0  0  0
   60.5115   34.3505   48.8148 H   0  0  0  0  0  0  0  0  0  0  0  0
   58.9020   34.0690   47.4760 C   0  0  0  0  0  0  0  0  0  0  0  0
   57.8080   33.2220   47.2250 C   0  0  0  0  0  0  0  0  0  0  0  0
   57.3214   32.6955   48.0593 H   0  0  0  0  0  0  0  0  0  0  0  0
   57.3350   33.0450   45.9210 C   0  0  0  0  0  0  0  0  0  0  0  0
   56.4825   32.3760   45.7323 H   0  0  0  0  0  0  0  0  0  0  0  0
   57.9430   33.7160   44.8580 C   0  0  0  0  0  0  0  0  0  0  0  0
   57.5732   33.5713   43.8322 H   0  0  0  0  0  0  0  0  0  0  0  0
   59.0210   34.5710   45.0980 C   0  0  0  0  0  0  0  0  0  0  0  0
   59.4972   35.1022   44.2607 H   0  0  0  0  0  0  0  0  0  0  0  0
   59.4960   34.7530   46.4000 C   0  0  0  0  0  0  0  0  0  0  0  0
   60.3391   35.4350   46.5842 H   0  0  0  0  0  0  0  0  0  0  0  0
   59.3780   33.4100   51.2050 C   0  0  0  0  0  0  0  0  0  0  0  0
   60.4555   33.3666   51.4222 H   0  0  0  0  0  0  0  0  0  0  0  0
   59.0052   34.4181   51.4391 H   0  0  0  0  0  0  0  0  0  0  0  0
   58.6410   32.3740   52.0530 C   0  0  0  0  0  0  0  0  0  0  0  0
   59.1234   32.3099   53.0395 H   0  0  0  0  0  0  0  0  0  0  0  0
   57.5920   32.6897   52.1522 H   0  0  0  0  0  0  0  0  0  0  0  0
   55.6740   31.0340   51.9050 C   0  0  0  0  0  0  0  0  0  0  0  0
   55.9528   31.9857   51.4291 H   0  0  0  0  0  0  0  0  0  0  0  0
   54.4040   30.6300   52.2780 C   0  0  0  0  0  0  0  0  0  0  0  0
   53.3150   31.4120   52.1510 C   0  0  0  0  0  0  0  0  0  0  0  0
   53.0844   32.0937   52.9829 H   0  0  0  0  0  0  0  0  0  0  0  0
   52.4080   31.4310   50.9930 C   0  0  0  0  0  0  0  0  0  0  0  0
   52.3730   30.4870   50.0340 N   0  0  0  0  0  0  0  0  0  0  0  0
   51.3070   30.8450   49.2850 C   0  0  0  0  0  0  0  0  0  0  0  0
   50.9500   30.2020   48.2650 O   0  0  0  0  0  0  0  0  0  0  0  0
   50.6460   31.9370   49.7260 N   0  0  0  0  0  0  0  0  0  0  0  0
   51.3480   32.2850   50.8150 C   0  0  0  0  0  0  0  0  0  0  0  0
   51.0250   33.3600   51.6330 O   0  0  0  0  0  0  0  0  0  0  0  0
  1  2  1  0
  2  3  1  0
  2  4  2  0
  4  5  1  0
  5  6  1  0
  6  7  1  0
  7  8  2  0
  7  9  1  0
  9 10  1  0
 10 11  1  0
 10 12  1  0
 10 13  1  0
 13 14  1  0
 13 15  1  0
 13 16  1  0
 16 17  1  0
 17 18  1  0
 17 19  1  0
 17 20  1  0
 20 21  2  0
 21 22  1  0
 21 23  1  0
 23 24  1  0
 23 25  2  0
 25 26  1  0
 25 27  1  0
 27 28  1  0
 27 29  2  0
 29 30  1  0
 16 31  1  0
 31 32  1  0
 31 33  1  0
 31 34  1  0
 34 35  1  0
 34 36  1  0
  6 37  2  0
 37 38  1  0
 37 39  1  0
 39 40  2  0
 40 41  1  0
 40 42  1  0
 42 43  1  0
 43 44  1  0
 44 45  2  0
 44 46  1  0
 46 47  1  0
 47 48  1  0
 39  4  1  0
 47 42  2  0
 34  9  1  0
 29 20  1  0
M  CHG  3  43  -1  46  -1  48  -1
M  END
>  <UniqueID>  (44) 
41

>  <SMILES>  (44) 
C=c1oc(C(=O)N2CCN(Cc3ccccc3)CC2)c/c1=C/c1[n-]c(=O)[n-]c1[O-]

>  <Energy>  (44) 
130.21525324700542

>  <Genealogy>  (44) 
C=c1oc(C(=O)N2CCN(Cc3ccccc3)CC2)cc1=Cc1[n-]c(=O)[n-]c1[O-] (protonated)
C=c1oc(C(=O)N2CCN(Cc3ccccc3)CC2)c/c1=C/c1[n-]c(=O)[n-]c1[O-] (cis-trans isomerization)
C=c1oc(C(=O)N2CCN(Cc3ccccc3)CC2)c/c1=C/c1[n-]c(=O)[n-]c1[O-] (3D coordinates assigned)
C=c1oc(C(=O)N2CCN(Cc3ccccc3)CC2)c/c1=C/c1[n-]c(=O)[n-]c1[O-] (nonaromatic ring conformer: 130.21525324700542 kcal/mol)

>  <smiles>  (44) 
C=c1oc(C(=O)N2CCN(Cc3ccccc3)CC2)cc1=Cc1[nH]c(=O)[nH]c1O

>  <score_type>  (44) 
oracle

>  <origin>  (44) 
adg

>  <m_score__min__energy>  (44) 
-18.52

>  <m_primary>  (44) 
energy

$$$$
44:0
     RDKit          3D

 50 53  0  0  0  0  0  0  0  0999 V2000
   58.0290   33.7960   43.7760 O   0  0  0  0  0  0  0  0  0  0  0  0
   57.9940   32.8090   44.5570 C   0  0  0  0  0  0  0  0  0  0  0  0
   57.1970   31.6320   44.2170 C   0  0  0  0  0  0  0  0  0  0  0  0
   57.0320   31.1300   42.9350 C   0  0  0  0  0  0  0  0  0  0  0  0
   56.3560   29.9360   43.0820 C   0  0  0  0  0  0  0  0  0  0  0  0
   56.1630   29.7820   44.4420 C   0  0  0  0  0  0  0  0  0  0  0  0
   55.5370   28.6880   45.0250 O   0  0  0  0  0  0  0  0  0  0  0  0
   56.6700   30.8090   45.1470 N   0  0  0  0  0  0  0  0  0  0  0  0
   58.6580   32.8710   45.8230 N   0  0  0  0  0  0  0  0  0  0  0  0
   59.6040   31.7930   46.1740 C   0  0  0  0  0  0  0  0  0  0  0  0
   59.9080   31.7890   47.6780 C   0  0  0  0  0  0  0  0  0  0  0  0
   60.2060   33.1580   48.1400 N   0  0  0  0  0  0  0  0  0  0  0  0
   61.3930   33.4940   48.9020 C   0  0  0  0  0  0  0  0  0  0  0  0
   61.9510   34.6090   48.6750 O   0  0  0  0  0  0  0  0  0  0  0  0
   61.9210   32.6230   49.9350 N   0  0  0  0  0  0  0  0  0  0  0  0
   61.0180   31.6670   50.6020 C   0  0  0  0  0  0  0  0  0  0  0  0
   60.3680   32.3540   51.7800 C   0  0  0  0  0  0  0  0  0  0  0  0
   61.2950   32.3110   52.9900 C   0  0  0  0  0  0  0  0  0  0  0  0
   62.5040   33.2630   52.8650 C   0  0  0  0  0  0  0  0  0  0  0  0
   63.5630   32.9190   51.8050 C   0  0  0  0  0  0  0  0  0  0  0  0
   64.9120   33.0080   52.1980 C   0  0  0  0  0  0  0  0  0  0  0  0
   65.9450   32.8830   51.2670 C   0  0  0  0  0  0  0  0  0  0  0  0
   65.6630   32.6500   49.9270 C   0  0  0  0  0  0  0  0  0  0  0  0
   64.3390   32.5360   49.5120 C   0  0  0  0  0  0  0  0  0  0  0  0
   63.2790   32.7000   50.4270 C   0  0  0  0  0  0  0  0  0  0  0  0
   59.3200   34.2700   47.7480 C   0  0  0  0  0  0  0  0  0  0  0  0
   58.1730   33.8070   46.8460 C   0  0  0  0  0  0  0  0  0  0  0  0
   57.3704   31.5891   41.9944 H   0  0  0  0  0  0  0  0  0  0  0  0
   56.0372   29.2499   42.2835 H   0  0  0  0  0  0  0  0  0  0  0  0
   54.7710   28.2200   44.5560 H   0  0  0  0  0  0  0  0  0  0  0  0
   59.1640   30.8244   45.8944 H   0  0  0  0  0  0  0  0  0  0  0  0
   60.5442   31.9638   45.6292 H   0  0  0  0  0  0  0  0  0  0  0  0
   59.0349   31.4029   48.2244 H   0  0  0  0  0  0  0  0  0  0  0  0
   60.7818   31.1479   47.8664 H   0  0  0  0  0  0  0  0  0  0  0  0
   60.2441   31.3340   49.8948 H   0  0  0  0  0  0  0  0  0  0  0  0
   61.5882   30.7918   50.9470 H   0  0  0  0  0  0  0  0  0  0  0  0
   60.1585   33.4020   51.5195 H   0  0  0  0  0  0  0  0  0  0  0  0
   59.4304   31.8344   52.0267 H   0  0  0  0  0  0  0  0  0  0  0  0
   60.7179   32.5943   53.8826 H   0  0  0  0  0  0  0  0  0  0  0  0
   61.6914   31.2874   53.0615 H   0  0  0  0  0  0  0  0  0  0  0  0
   62.1138   34.2643   52.6300 H   0  0  0  0  0  0  0  0  0  0  0  0
   63.0298   33.1812   53.8277 H   0  0  0  0  0  0  0  0  0  0  0  0
   65.1564   33.1790   53.2568 H   0  0  0  0  0  0  0  0  0  0  0  0
   66.9906   32.9697   51.5974 H   0  0  0  0  0  0  0  0  0  0  0  0
   66.4812   32.5561   49.1978 H   0  0  0  0  0  0  0  0  0  0  0  0
   64.1172   32.3153   48.4574 H   0  0  0  0  0  0  0  0  0  0  0  0
   58.8955   34.7216   48.6568 H   0  0  0  0  0  0  0  0  0  0  0  0
   59.9214   34.9968   47.1823 H   0  0  0  0  0  0  0  0  0  0  0  0
   57.4107   33.3059   47.4607 H   0  0  0  0  0  0  0  0  0  0  0  0
   57.7431   34.6861   46.3436 H   0  0  0  0  0  0  0  0  0  0  0  0
  1  2  2  0
  2  3  1  0
  3  4  2  0
  4  5  1  0
  5  6  2  0
  6  7  1  0
  6  8  1  0
  2  9  1  0
  9 10  1  0
 10 11  1  0
 11 12  1  0
 12 13  1  0
 13 14  2  0
 13 15  1  0
 15 16  1  0
 16 17  1  0
 17 18  1  0
 18 19  1  0
 19 20  1  0
 20 21  2  0
 21 22  1  0
 22 23  2  0
 23 24  1  0
 24 25  2  0
 12 26  1  0
 26 27  1  0
  8  3  1  0
 27  9  1  0
 25 15  1  0
 25 20  1  0
  4 28  1  0
  5 29  1  0
  7 30  1  0
 10 31  1  0
 10 32  1  0
 11 33  1  0
 11 34  1  0
 16 35  1  0
 16 36  1  0
 17 37  1  0
 17 38  1  0
 18 39  1  0
 18 40  1  0
 19 41  1  0
 19 42  1  0
 21 43  1  0
 22 44  1  0
 23 45  1  0
 24 46  1  0
 26 47  1  0
 26 48  1  0
 27 49  1  0
 27 50  1  0
M  CHG  1   8  -1
M  END
>  <UniqueID>  (45) 
42

>  <SMILES>  (45) 
O=C(c1ccc(O)[n-]1)N1CCN(C(=O)N2CCCCc3ccccc32)CC1

>  <Energy>  (45) 
103.81618225702029

>  <Genealogy>  (45) 
O=C(c1ccc(O)[n-]1)N1CCN(C(=O)N2CCCCc3ccccc32)CC1 (protonated)
O=C(c1ccc(O)[n-]1)N1CCN(C(=O)N2CCCCc3ccccc32)CC1 (3D coordinates assigned)
O=C(c1ccc(O)[n-]1)N1CCN(C(=O)N2CCCCc3ccccc32)CC1 (nonaromatic ring conformer: 103.81618225702029 kcal/mol)

>  <smiles>  (45) 
O=C(c1ccc(O)[nH]1)N1CCN(C(=O)N2CCCCc3ccccc32)CC1

>  <score_type>  (45) 
oracle

>  <origin>  (45) 
adg

>  <m_score__min__energy>  (45) 
-9.4700000000000006

>  <m_primary>  (45) 
energy

$$$$
45:0
     RDKit          3D

 45 47  0  0  0  0  0  0  0  0999 V2000
   55.1520   29.4250   44.6390 N   0  0  0  0  0  0  0  0  0  0  0  0
   56.2710   29.9850   43.9520 C   0  0  0  0  0  0  0  0  0  0  0  0
   56.3460   29.8590   42.7010 O   0  0  0  0  0  0  0  0  0  0  0  0
   57.3110   30.7330   44.7030 C   0  0  0  0  0  0  0  0  0  0  0  0
   57.0690   32.0760   45.0510 C   0  0  0  0  0  0  0  0  0  0  0  0
   58.0390   32.8290   45.7140 C   0  0  0  0  0  0  0  0  0  0  0  0
   59.2630   32.2540   46.0490 C   0  0  0  0  0  0  0  0  0  0  0  0
   59.5190   30.9220   45.7260 C   0  0  0  0  0  0  0  0  0  0  0  0
   58.5580   30.1500   45.0500 C   0  0  0  0  0  0  0  0  0  0  0  0
   58.8180   28.7550   44.8100 N   0  0  0  0  0  0  0  0  0  0  0  0
   58.3500   27.6960   45.6650 C   0  0  0  0  0  0  0  0  0  0  0  0
   59.2330   26.9810   46.4930 C   0  0  0  0  0  0  0  0  0  0  0  0
   58.7590   25.9460   47.3020 C   0  0  0  0  0  0  0  0  0  0  0  0
   57.4000   25.6110   47.3060 C   0  0  0  0  0  0  0  0  0  0  0  0
   56.9620   24.5380   48.1510 N   0  0  0  0  0  0  0  0  0  0  0  0
   56.2870   23.3590   47.7030 C   0  0  0  0  0  0  0  0  0  0  0  0
   55.0590   23.3960   47.4170 O   0  0  0  0  0  0  0  0  0  0  0  0
   57.0090   22.1280   47.6270 N   0  0  0  0  0  0  0  0  0  0  0  0
   57.6770   21.6590   46.4180 C   0  0  0  0  0  0  0  0  0  0  0  0
   57.3000   22.5250   45.2460 C   0  0  0  0  0  0  0  0  0  0  0  0
   58.0290   23.6890   44.9520 C   0  0  0  0  0  0  0  0  0  0  0  0
   57.6900   24.4700   43.8430 C   0  0  0  0  0  0  0  0  0  0  0  0
   56.6260   24.0960   43.0200 C   0  0  0  0  0  0  0  0  0  0  0  0
   55.8970   22.9360   43.3040 C   0  0  0  0  0  0  0  0  0  0  0  0
   56.2330   22.1510   44.4110 C   0  0  0  0  0  0  0  0  0  0  0  0
   56.5190   26.2840   46.4350 C   0  0  0  0  0  0  0  0  0  0  0  0
   55.1820   25.8980   46.3440 O   0  0  0  0  0  0  0  0  0  0  0  0
   56.9980   27.3270   45.6290 C   0  0  0  0  0  0  0  0  0  0  0  0
   55.2550   29.0300   45.6000 H   0  0  0  0  0  0  0  0  0  0  0  0
   56.1032   32.5373   44.7970 H   0  0  0  0  0  0  0  0  0  0  0  0
   57.8367   33.8788   45.9727 H   0  0  0  0  0  0  0  0  0  0  0  0
   60.0273   32.8508   46.5683 H   0  0  0  0  0  0  0  0  0  0  0  0
   60.4830   30.4704   46.0030 H   0  0  0  0  0  0  0  0  0  0  0  0
   59.3260   28.4990   43.9340 H   0  0  0  0  0  0  0  0  0  0  0  0
   60.3025   27.2380   46.5037 H   0  0  0  0  0  0  0  0  0  0  0  0
   59.4597   25.3893   47.9416 H   0  0  0  0  0  0  0  0  0  0  0  0
   58.7663   21.7011   46.5652 H   0  0  0  0  0  0  0  0  0  0  0  0
   57.3650   20.6240   46.2143 H   0  0  0  0  0  0  0  0  0  0  0  0
   58.8693   23.9871   45.5963 H   0  0  0  0  0  0  0  0  0  0  0  0
   58.2631   25.3816   43.6183 H   0  0  0  0  0  0  0  0  0  0  0  0
   56.3610   24.7130   42.1488 H   0  0  0  0  0  0  0  0  0  0  0  0
   55.0587   22.6414   42.6556 H   0  0  0  0  0  0  0  0  0  0  0  0
   55.6604   21.2375   44.6293 H   0  0  0  0  0  0  0  0  0  0  0  0
   54.8490   25.0310   46.7490 H   0  0  0  0  0  0  0  0  0  0  0  0
   56.3056   27.8611   44.9616 H   0  0  0  0  0  0  0  0  0  0  0  0
  1  2  1  0
  2  3  2  0
  2  4  1  0
  4  5  2  0
  5  6  1  0
  6  7  2  0
  7  8  1  0
  8  9  2  0
  9 10  1  0
 10 11  1  0
 11 12  2  0
 12 13  1  0
 13 14  2  0
 14 15  1  0
 15 16  1  0
 16 17  2  0
 16 18  1  0
 18 19  1  0
 19 20  1  0
 20 21  2  0
 21 22  1  0
 22 23  2  0
 23 24  1  0
 24 25  2  0
 14 26  1  0
 26 27  1  0
 26 28  2  0
  9  4  1  0
 28 11  1  0
 25 20  1  0
  1 29  1  0
  5 30  1  0
  6 31  1  0
  7 32  1  0
  8 33  1  0
 10 34  1  0
 12 35  1  0
 13 36  1  0
 19 37  1  0
 19 38  1  0
 21 39  1  0
 22 40  1  0
 23 41  1  0
 24 42  1  0
 25 43  1  0
 27 44  1  0
 28 45  1  0
M  CHG  3   1  -1  15  -1  18  -1
M  END
>  <UniqueID>  (46) 
43

>  <SMILES>  (46) 
[NH-]C(=O)c1ccccc1Nc1ccc([N-]C(=O)[N-]Cc2ccccc2)c(O)c1

>  <Energy>  (46) 
59.12216524282774

>  <Genealogy>  (46) 
[NH-]C(=O)c1ccccc1Nc1ccc([N-]C(=O)[N-]Cc2ccccc2)c(O)c1 (protonated)
[NH-]C(=O)c1ccccc1Nc1ccc([N-]C(=O)[N-]Cc2ccccc2)c(O)c1 (3D coordinates assigned)
[NH-]C(=O)c1ccccc1Nc1ccc([N-]C(=O)[N-]Cc2ccccc2)c(O)c1 (optimized conformer: 59.12216524282774 kcal/mol)

>  <smiles>  (46) 
NC(=O)c1ccccc1Nc1ccc(NC(=O)NCc2ccccc2)c(O)c1

>  <score_type>  (46) 
oracle

>  <origin>  (46) 
adg

>  <m_score__min__energy>  (46) 
-14.390000000000001

>  <m_primary>  (46) 
energy

$$$$
46:0
     RDKit          3D

 56 59  0  0  0  0  0  0  0  0999 V2000
   60.5000   29.5810   45.5430 C   0  0  0  0  0  0  0  0  0  0  0  0
   60.1800   30.4340   46.7710 C   0  0  0  0  0  0  0  0  0  0  0  0
   59.6650   31.8010   46.3830 C   0  0  0  0  0  0  0  0  0  0  0  0
   58.5510   32.0790   45.5930 C   0  0  0  0  0  0  0  0  0  0  0  0
   57.6380   31.1410   44.9050 C   0  0  0  0  0  0  0  0  0  0  0  0
   57.4210   31.2900   43.6750 O   0  0  0  0  0  0  0  0  0  0  0  0
   57.0100   30.0500   45.5870 N   0  0  0  0  0  0  0  0  0  0  0  0
   57.3690   28.6680   45.4600 C   0  0  0  0  0  0  0  0  0  0  0  0
   57.7040   28.1060   44.2180 C   0  0  0  0  0  0  0  0  0  0  0  0
   58.0340   26.7500   44.1260 C   0  0  0  0  0  0  0  0  0  0  0  0
   58.0300   25.9430   45.2720 C   0  0  0  0  0  0  0  0  0  0  0  0
   58.3620   24.5110   45.1590 C   0  0  0  0  0  0  0  0  0  0  0  0
   59.4440   24.1110   45.6700 O   0  0  0  0  0  0  0  0  0  0  0  0
   57.5160   23.5810   44.4410 N   0  0  0  0  0  0  0  0  0  0  0  0
   56.3460   24.0850   43.6970 C   0  0  0  0  0  0  0  0  0  0  0  0
   55.5080   22.9540   43.1040 C   0  0  0  0  0  0  0  0  0  0  0  0
   56.3400   21.9920   42.5000 O   0  0  0  0  0  0  0  0  0  0  0  0
   57.0300   21.2920   43.5120 C   0  0  0  0  0  0  0  0  0  0  0  0
   58.0170   22.2060   44.2560 C   0  0  0  0  0  0  0  0  0  0  0  0
   57.7510   26.5170   46.5200 C   0  0  0  0  0  0  0  0  0  0  0  0
   57.4230   27.8740   46.6120 C   0  0  0  0  0  0  0  0  0  0  0  0
   58.4910   33.4630   45.5520 C   0  0  0  0  0  0  0  0  0  0  0  0
   57.4610   34.2900   44.8510 C   0  0  0  0  0  0  0  0  0  0  0  0
   59.4940   33.9860   46.2810 N   0  0  0  0  0  0  0  0  0  0  0  0
   60.2070   32.9820   46.7680 N   0  0  0  0  0  0  0  0  0  0  0  0
   61.3560   33.1900   47.6030 C   0  0  0  0  0  0  0  0  0  0  0  0
   62.6490   32.9370   47.1200 C   0  0  0  0  0  0  0  0  0  0  0  0
   63.7580   33.1270   47.9500 C   0  0  0  0  0  0  0  0  0  0  0  0
   63.5840   33.5880   49.2570 C   0  0  0  0  0  0  0  0  0  0  0  0
   62.3020   33.8770   49.7300 C   0  0  0  0  0  0  0  0  0  0  0  0
   61.1920   33.6820   48.9020 C   0  0  0  0  0  0  0  0  0  0  0  0
   60.8693   28.5966   45.8665 H   0  0  0  0  0  0  0  0  0  0  0  0
   59.5895   29.4509   44.9396 H   0  0  0  0  0  0  0  0  0  0  0  0
   61.2714   30.0818   44.9396 H   0  0  0  0  0  0  0  0  0  0  0  0
   59.4138   29.9215   47.3713 H   0  0  0  0  0  0  0  0  0  0  0  0
   61.1076   30.5677   47.3470 H   0  0  0  0  0  0  0  0  0  0  0  0
   57.7070   28.7338   43.3147 H   0  0  0  0  0  0  0  0  0  0  0  0
   58.2977   26.3152   43.1506 H   0  0  0  0  0  0  0  0  0  0  0  0
   55.7159   24.6708   44.3824 H   0  0  0  0  0  0  0  0  0  0  0  0
   56.7154   24.7032   42.8655 H   0  0  0  0  0  0  0  0  0  0  0  0
   54.9243   22.4769   43.9050 H   0  0  0  0  0  0  0  0  0  0  0  0
   54.8332   23.3713   42.3421 H   0  0  0  0  0  0  0  0  0  0  0  0
   56.3003   20.8928   44.2318 H   0  0  0  0  0  0  0  0  0  0  0  0
   57.6008   20.4781   43.0412 H   0  0  0  0  0  0  0  0  0  0  0  0
   58.2162   21.7712   45.2466 H   0  0  0  0  0  0  0  0  0  0  0  0
   58.9263   22.2716   43.6405 H   0  0  0  0  0  0  0  0  0  0  0  0
   57.7900   25.8991   47.4292 H   0  0  0  0  0  0  0  0  0  0  0  0
   57.2065   28.3193   47.5942 H   0  0  0  0  0  0  0  0  0  0  0  0
   56.8294   34.7971   45.5952 H   0  0  0  0  0  0  0  0  0  0  0  0
   57.9603   35.0409   44.2211 H   0  0  0  0  0  0  0  0  0  0  0  0
   56.8357   33.6403   44.2211 H   0  0  0  0  0  0  0  0  0  0  0  0
   62.7904   32.5885   46.0863 H   0  0  0  0  0  0  0  0  0  0  0  0
   64.7691   32.9131   47.5731 H   0  0  0  0  0  0  0  0  0  0  0  0
   64.4562   33.7234   49.9134 H   0  0  0  0  0  0  0  0  0  0  0  0
   62.1655   34.2577   50.7530 H   0  0  0  0  0  0  0  0  0  0  0  0
   60.1840   33.9169   49.2745 H   0  0  0  0  0  0  0  0  0  0  0  0
  1  2  1  0
  2  3  1  0
  3  4  2  0
  4  5  1  0
  5  6  2  0
  5  7  1  0
  7  8  1  0
  8  9  2  0
  9 10  1  0
 10 11  2  0
 11 12  1  0
 12 13  2  0
 12 14  1  0
 14 15  1  0
 15 16  1  0
 16 17  1  0
 17 18  1  0
 18 19  1  0
 11 20  1  0
 20 21  2  0
  4 22  1  0
 22 23  1  0
 22 24  2  0
 24 25  1  0
 25 26  1  0
 26 27  2  0
 27 28  1  0
 28 29  2  0
 29 30  1  0
 30 31  2  0
 25  3  1  0
 31 26  1  0
 21  8  1  0
 19 14  1  0
  1 32  1  0
  1 33  1  0
  1 34  1  0
  2 35  1  0
  2 36  1  0
  9 37  1  0
 10 38  1  0
 15 39  1  0
 15 40  1  0
 16 41  1  0
 16 42  1  0
 18 43  1  0
 18 44  1  0
 19 45  1  0
 19 46  1  0
 20 47  1  0
 21 48  1  0
 23 49  1  0
 23 50  1  0
 23 51  1  0
 27 52  1  0
 28 53  1  0
 29 54  1  0
 30 55  1  0
 31 56  1  0
M  CHG  1   7  -1
M  END
>  <UniqueID>  (47) 
44

>  <SMILES>  (47) 
CCc1c(C(=O)[N-]c2ccc(C(=O)N3CCOCC3)cc2)c(C)nn1-c1ccccc1

>  <Energy>  (47) 
107.02499525539163

>  <Genealogy>  (47) 
CCc1c(C(=O)[N-]c2ccc(C(=O)N3CCOCC3)cc2)c(C)nn1-c1ccccc1 (protonated)
CCc1c(C(=O)[N-]c2ccc(C(=O)N3CCOCC3)cc2)c(C)nn1-c1ccccc1 (3D coordinates assigned)
CCc1c(C(=O)[N-]c2ccc(C(=O)N3CCOCC3)cc2)c(C)nn1-c1ccccc1 (nonaromatic ring conformer: 107.02499525539163 kcal/mol)

>  <smiles>  (47) 
CCc1c(C(=O)Nc2ccc(C(=O)N3CCOCC3)cc2)c(C)nn1-c1ccccc1

>  <score_type>  (47) 
oracle

>  <origin>  (47) 
adg

>  <m_score__min__energy>  (47) 
-10.869999999999999

>  <m_primary>  (47) 
energy

$$$$
47:0
     RDKit          3D

 39 40  0  0  0  0  0  0  0  0999 V2000
   57.0420   31.0540   42.6900 C   0  0  0  0  0  0  0  0  0  0  0  0
   57.6030   31.7010   43.9200 C   0  0  0  0  0  0  0  0  0  0  0  0
   57.4460   32.9440   44.0670 O   0  0  0  0  0  0  0  0  0  0  0  0
   58.3320   30.9190   44.9560 C   0  0  0  0  0  0  0  0  0  0  0  0
   58.4960   29.5380   44.8030 C   0  0  0  0  0  0  0  0  0  0  0  0
   59.1720   28.7980   45.7770 C   0  0  0  0  0  0  0  0  0  0  0  0
   59.3510   27.3300   45.6170 C   0  0  0  0  0  0  0  0  0  0  0  0
   60.3870   26.7780   46.0800 O   0  0  0  0  0  0  0  0  0  0  0  0
   58.3540   26.4970   44.8500 C   0  0  0  0  0  0  0  0  0  0  0  0
   57.1800   26.1130   45.7060 C   0  0  0  0  0  0  0  0  0  0  0  0
   57.2630   25.0950   46.4450 O   0  0  0  0  0  0  0  0  0  0  0  0
   55.9210   26.8740   45.6700 C   0  0  0  0  0  0  0  0  0  0  0  0
   54.8360   26.3370   46.0180 O   0  0  0  0  0  0  0  0  0  0  0  0
   55.9230   28.1990   45.2520 O   0  0  0  0  0  0  0  0  0  0  0  0
   59.6820   29.4810   46.8950 C   0  0  0  0  0  0  0  0  0  0  0  0
   60.2800   28.8400   47.8040 O   0  0  0  0  0  0  0  0  0  0  0  0
   59.5160   30.8380   47.0050 N   0  0  0  0  0  0  0  0  0  0  0  0
   60.0120   31.5600   48.1880 C   0  0  0  0  0  0  0  0  0  0  0  0
   61.3140   32.2450   47.8690 C   0  0  0  0  0  0  0  0  0  0  0  0
   61.3990   33.1500   46.7980 C   0  0  0  0  0  0  0  0  0  0  0  0
   62.6180   33.7560   46.4820 C   0  0  0  0  0  0  0  0  0  0  0  0
   63.7630   33.4570   47.2270 C   0  0  0  0  0  0  0  0  0  0  0  0
   63.6890   32.5500   48.2890 C   0  0  0  0  0  0  0  0  0  0  0  0
   64.8000   32.2580   49.0080 F   0  0  0  0  0  0  0  0  0  0  0  0
   62.4700   31.9430   48.6070 C   0  0  0  0  0  0  0  0  0  0  0  0
   58.8520   31.5240   46.0630 N   0  0  0  0  0  0  0  0  0  0  0  0
   56.3472   30.2527   42.9817 H   0  0  0  0  0  0  0  0  0  0  0  0
   56.5050   31.8056   42.0928 H   0  0  0  0  0  0  0  0  0  0  0  0
   57.8621   30.6289   42.0928 H   0  0  0  0  0  0  0  0  0  0  0  0
   58.0916   29.0331   43.9133 H   0  0  0  0  0  0  0  0  0  0  0  0
   57.9928   27.0766   43.9877 H   0  0  0  0  0  0  0  0  0  0  0  0
   58.8562   25.5753   44.5209 H   0  0  0  0  0  0  0  0  0  0  0  0
   59.2699   32.3129   48.4921 H   0  0  0  0  0  0  0  0  0  0  0  0
   60.1742   30.8421   49.0055 H   0  0  0  0  0  0  0  0  0  0  0  0
   60.5020   33.3827   46.2054 H   0  0  0  0  0  0  0  0  0  0  0  0
   62.6769   34.4689   45.6464 H   0  0  0  0  0  0  0  0  0  0  0  0
   64.7218   33.9351   46.9778 H   0  0  0  0  0  0  0  0  0  0  0  0
   62.4163   31.2256   49.4391 H   0  0  0  0  0  0  0  0  0  0  0  0
   58.7310   32.5530   46.1850 H   0  0  0  0  0  0  0  0  0  0  0  0
  1  2  1  0
  2  3  2  0
  2  4  1  0
  4  5  1  0
  5  6  2  0
  6  7  1  0
  7  8  2  0
  7  9  1  0
  9 10  1  0
 10 11  2  0
 10 12  1  0
 12 13  2  0
 12 14  1  0
  6 15  1  0
 15 16  2  0
 15 17  1  0
 17 18  1  0
 18 19  1  0
 19 20  2  0
 20 21  1  0
 21 22  2  0
 22 23  1  0
 23 24  1  0
 23 25  2  0
 17 26  1  0
 26  4  2  0
 25 19  1  0
  1 27  1  0
  1 28  1  0
  1 29  1  0
  5 30  1  0
  9 31  1  0
  9 32  1  0
 18 33  1  0
 18 34  1  0
 20 35  1  0
 21 36  1  0
 22 37  1  0
 25 38  1  0
 26 39  1  0
M  CHG  2  14  -1  26   1
M  END
>  <UniqueID>  (48) 
45

>  <SMILES>  (48) 
CC(=O)c1cc(C(=O)CC(=O)C(=O)[O-])c(=O)n(Cc2cccc(F)c2)[nH+]1

>  <Energy>  (48) 
42.90039893740267

>  <Genealogy>  (48) 
CC(=O)c1cc(C(=O)CC(=O)C(=O)[O-])c(=O)n(Cc2cccc(F)c2)[nH+]1 (protonated)
CC(=O)c1cc(C(=O)CC(=O)C(=O)[O-])c(=O)n(Cc2cccc(F)c2)[nH+]1 (3D coordinates assigned)
CC(=O)c1cc(C(=O)CC(=O)C(=O)[O-])c(=O)n(Cc2cccc(F)c2)[nH+]1 (optimized conformer: 42.90039893740267 kcal/mol)

>  <smiles>  (48) 
CC(=O)c1cc(C(=O)CC(=O)C(=O)O)c(=O)n(Cc2cccc(F)c2)n1

>  <score_type>  (48) 
oracle

>  <origin>  (48) 
adg

>  <m_score__min__energy>  (48) 
-9.2599999999999998

>  <m_primary>  (48) 
energy

$$$$
48:0
     RDKit          3D

 51 53  0  0  0  0  0  0  0  0999 V2000
   54.6450   30.2740   44.7710 H   0  0  0  0  0  0  0  0  0  0  0  0
   55.1630   29.3690   44.8070 N   0  0  0  0  0  0  0  0  0  0  0  0
   56.4470   29.2770   44.9510 C   0  0  0  0  0  0  0  0  0  0  0  0
   56.9930   28.0460   45.1330 N   0  0  0  0  0  0  0  0  0  0  0  0
   58.3210   27.8610   45.3770 C   0  0  0  0  0  0  0  0  0  0  0  0
   58.8800   26.4730   45.5640 C   0  0  0  0  0  0  0  0  0  0  0  0
   58.2426   25.7608   45.0195 H   0  0  0  0  0  0  0  0  0  0  0  0
   59.9100   26.4754   45.1780 H   0  0  0  0  0  0  0  0  0  0  0  0
   58.9390   26.0520   47.0340 C   0  0  0  0  0  0  0  0  0  0  0  0
   59.5644   25.1521   47.1296 H   0  0  0  0  0  0  0  0  0  0  0  0
   59.3700   26.8729   47.6259 H   0  0  0  0  0  0  0  0  0  0  0  0
   57.5950   25.7610   47.5290 N   0  0  0  0  0  0  0  0  0  0  0  0
   56.6640   25.2000   46.8190 C   0  0  0  0  0  0  0  0  0  0  0  0
   56.7120   23.8710   46.5280 N   0  0  0  0  0  0  0  0  0  0  0  0
   55.7380   23.2630   45.7960 C   0  0  0  0  0  0  0  0  0  0  0  0
   55.8200   21.8440   45.5530 N   0  0  0  0  0  0  0  0  0  0  0  0
   54.7310   20.9580   45.7230 C   0  0  0  0  0  0  0  0  0  0  0  0
   53.5290   21.3230   45.7910 O   0  0  0  0  0  0  0  0  0  0  0  0
   55.1220   19.6490   45.8380 O   0  0  0  0  0  0  0  0  0  0  0  0
   56.5360   19.5670   45.7640 C   0  0  0  0  0  0  0  0  0  0  0  0
   56.9494   19.2126   46.7198 H   0  0  0  0  0  0  0  0  0  0  0  0
   56.8597   18.8583   44.9875 H   0  0  0  0  0  0  0  0  0  0  0  0
   57.0330   21.0170   45.4610 C   0  0  1  0  0  0  0  0  0  0  0  0
   57.8117   21.3553   46.1604 H   0  0  0  0  0  0  0  0  0  0  0  0
   57.6860   21.0970   44.0470 C   0  0  0  0  0  0  0  0  0  0  0  0
   57.8510   20.0537   43.7400 H   0  0  0  0  0  0  0  0  0  0  0  0
   56.7840   21.7600   42.9960 C   0  0  0  0  0  0  0  0  0  0  0  0
   55.9966   22.3387   43.5011 H   0  0  0  0  0  0  0  0  0  0  0  0
   57.3865   22.4318   42.3670 H   0  0  0  0  0  0  0  0  0  0  0  0
   56.3227   20.9844   42.3670 H   0  0  0  0  0  0  0  0  0  0  0  0
   59.0200   21.8600   44.1020 C   0  0  0  0  0  0  0  0  0  0  0  0
   59.3059   22.0235   45.1515 H   0  0  0  0  0  0  0  0  0  0  0  0
   59.8001   21.2715   43.5969 H   0  0  0  0  0  0  0  0  0  0  0  0
   58.9083   22.8308   43.5969 H   0  0  0  0  0  0  0  0  0  0  0  0
   54.6680   24.0350   45.3190 C   0  0  0  0  0  0  0  0  0  0  0  0
   53.8720   23.5766   44.7138 H   0  0  0  0  0  0  0  0  0  0  0  0
   54.6330   25.3950   45.6270 C   0  0  0  0  0  0  0  0  0  0  0  0
   53.8016   26.0187   45.2669 H   0  0  0  0  0  0  0  0  0  0  0  0
   55.6230   25.9490   46.3700 N   0  0  0  0  0  0  0  0  0  0  0  0
   59.1710   28.9720   45.4180 C   0  0  0  0  0  0  0  0  0  0  0  0
   60.2481   28.8389   45.5975 H   0  0  0  0  0  0  0  0  0  0  0  0
   58.6440   30.2470   45.2300 C   0  0  0  0  0  0  0  0  0  0  0  0
   59.3051   31.1248   45.2801 H   0  0  0  0  0  0  0  0  0  0  0  0
   57.2800   30.4180   44.9780 C   0  0  0  0  0  0  0  0  0  0  0  0
   56.7940   31.7160   44.7880 O   0  0  0  0  0  0  0  0  0  0  0  0
   57.6140   32.8420   44.6770 C   0  0  0  0  0  0  0  0  0  0  0  0
   58.3280   33.0230   43.6530 O   0  0  0  0  0  0  0  0  0  0  0  0
   57.6940   33.8040   45.8110 C   0  0  0  0  0  0  0  0  0  0  0  0
   57.6482   33.2539   46.7624 H   0  0  0  0  0  0  0  0  0  0  0  0
   58.6415   34.3599   45.7541 H   0  0  0  0  0  0  0  0  0  0  0  0
   56.8514   34.5088   45.7541 H   0  0  0  0  0  0  0  0  0  0  0  0
  1  2  1  0
  2  3  2  0
  3  4  1  0
  4  5  1  0
  5  6  1  0
  6  7  1  0
  6  8  1  0
  6  9  1  0
  9 10  1  0
  9 11  1  0
  9 12  1  0
 12 13  2  3
 13 14  1  0
 14 15  2  0
 15 16  1  0
 16 17  1  0
 17 18  2  0
 17 19  1  0
 19 20  1  0
 20 21  1  0
 20 22  1  0
 20 23  1  0
 23 24  1  1
 23 25  1  0
 25 26  1  0
 25 27  1  0
 27 28  1  0
 27 29  1  0
 27 30  1  0
 25 31  1  0
 31 32  1  0
 31 33  1  0
 31 34  1  0
 15 35  1  0
 35 36  1  0
 35 37  2  0
 37 38  1  0
 37 39  1  0
  5 40  2  0
 40 41  1  0
 40 42  1  0
 42 43  1  0
 42 44  2  0
 44 45  1  0
 45 46  1  0
 46 47  2  0
 46 48  1  0
 48 49  1  0
 48 50  1  0
 48 51  1  0
 44  3  1  0
 39 13  1  0
 23 16  1  0
M  CHG  2   4  -1  39  -1
M  END
>  <UniqueID>  (49) 
46

>  <SMILES>  (49) 
[H]/N=c1/[n-]c(CCN=c2nc(N3C(=O)OC[C@H]3C(C)C)cc[n-]2)ccc1OC(C)=O

>  <Energy>  (49) 
74.76499884458686

>  <Genealogy>  (49) 
CC(=O)Oc1ccc(CCN=c2nc(N3C(=O)OCC3C(C)C)cc[n-]2)[n-]c1=N (protonated)
CC(=O)Oc1ccc(CCN=c2nc(N3C(=O)OC[C@H]3C(C)C)cc[n-]2)[n-]c1=N (chirality)
[H]/N=c1/[n-]c(CCN=c2nc(N3C(=O)OC[C@H]3C(C)C)cc[n-]2)ccc1OC(C)=O (cis-trans isomerization)
[H]/N=c1/[n-]c(CCN=c2nc(N3C(=O)OC[C@H]3C(C)C)cc[n-]2)ccc1OC(C)=O (3D coordinates assigned)
[H]/N=c1/[n-]c(CCN=c2nc(N3C(=O)OC[C@H]3C(C)C)cc[n-]2)ccc1OC(C)=O (nonaromatic ring conformer: 74.76499884458686 kcal/mol)

>  <smiles>  (49) 
CC(=O)Oc1ccc(CCN=c2nc(N3C(=O)OCC3C(C)C)cc[nH]2)[nH]c1=N

>  <score_type>  (49) 
oracle

>  <origin>  (49) 
adg

>  <m_score__min__energy>  (49) 
-12.029999999999999

>  <m_primary>  (49) 
energy

$$$$
49:0
     RDKit          3D

 45 47  0  0  0  0  0  0  0  0999 V2000
   55.1530   29.3760   44.8930 N   0  0  0  0  0  0  0  0  0  0  0  0
   56.6580   29.5040   44.0560 S   0  0  0  0  0  0  0  0  0  0  0  0
   57.5420   28.3470   44.4290 O   0  0  0  0  0  0  0  0  0  0  0  0
   56.4110   29.4640   42.5750 O   0  0  0  0  0  0  0  0  0  0  0  0
   57.4460   31.0180   44.4920 C   0  0  0  0  0  0  0  0  0  0  0  0
   57.6930   31.9910   43.5150 C   0  0  0  0  0  0  0  0  0  0  0  0
   58.3040   33.1970   43.8650 C   0  0  0  0  0  0  0  0  0  0  0  0
   58.6670   33.4410   45.1930 C   0  0  0  0  0  0  0  0  0  0  0  0
   58.4190   32.4780   46.1880 C   0  0  0  0  0  0  0  0  0  0  0  0
   58.8000   32.7370   47.6000 C   0  0  0  0  0  0  0  0  0  0  0  0
   59.3220   33.9860   47.9820 C   0  0  0  0  0  0  0  0  0  0  0  0
   59.6900   34.2220   49.3090 C   0  0  0  0  0  0  0  0  0  0  0  0
   59.5320   33.2230   50.2710 C   0  0  0  0  0  0  0  0  0  0  0  0
   58.9890   31.9770   49.9140 C   0  0  0  0  0  0  0  0  0  0  0  0
   58.8350   30.9130   50.8650 N   0  0  0  0  0  0  0  0  0  0  0  0
   58.0600   30.9500   52.0710 C   0  0  0  0  0  0  0  0  0  0  0  0
   58.5780   30.6040   53.1670 O   0  0  0  0  0  0  0  0  0  0  0  0
   56.6720   31.4520   52.0150 C   0  0  0  0  0  0  0  0  0  0  0  0
   56.4500   32.6440   52.3540 O   0  0  0  0  0  0  0  0  0  0  0  0
   55.5590   30.6510   51.5900 N   0  0  0  0  0  0  0  0  0  0  0  0
   54.7240   29.8120   52.4410 C   0  0  0  0  0  0  0  0  0  0  0  0
   53.4070   30.4960   52.6680 C   0  0  0  0  0  0  0  0  0  0  0  0
   52.7800   30.4280   53.9230 C   0  0  0  0  0  0  0  0  0  0  0  0
   51.5700   31.0930   54.1440 C   0  0  0  0  0  0  0  0  0  0  0  0
   50.9830   31.8390   53.1180 C   0  0  0  0  0  0  0  0  0  0  0  0
   51.6080   31.9250   51.8700 C   0  0  0  0  0  0  0  0  0  0  0  0
   51.0280   32.6730   50.8530 O   0  0  0  0  0  0  0  0  0  0  0  0
   52.8190   31.2600   51.6460 C   0  0  0  0  0  0  0  0  0  0  0  0
   58.6450   31.7360   48.5770 C   0  0  0  0  0  0  0  0  0  0  0  0
   57.8020   31.2660   45.8250 C   0  0  0  0  0  0  0  0  0  0  0  0
   55.2740   28.6450   45.6300 H   0  0  0  0  0  0  0  0  0  0  0  0
   57.4051   31.8047   42.4698 H   0  0  0  0  0  0  0  0  0  0  0  0
   58.5001   33.9567   43.0941 H   0  0  0  0  0  0  0  0  0  0  0  0
   59.1497   34.3923   45.4615 H   0  0  0  0  0  0  0  0  0  0  0  0
   59.4412   34.7815   47.2317 H   0  0  0  0  0  0  0  0  0  0  0  0
   60.1059   35.1989   49.5968 H   0  0  0  0  0  0  0  0  0  0  0  0
   59.8335   33.4117   51.3119 H   0  0  0  0  0  0  0  0  0  0  0  0
   54.5552   28.8423   51.9498 H   0  0  0  0  0  0  0  0  0  0  0  0
   55.2265   29.6478   53.4056 H   0  0  0  0  0  0  0  0  0  0  0  0
   53.2429   29.8490   54.7357 H   0  0  0  0  0  0  0  0  0  0  0  0
   51.0795   31.0290   55.1265 H   0  0  0  0  0  0  0  0  0  0  0  0
   50.0292   32.3585   53.2923 H   0  0  0  0  0  0  0  0  0  0  0  0
   53.3124   31.3358   50.6658 H   0  0  0  0  0  0  0  0  0  0  0  0
   58.2487   30.7516   48.2874 H   0  0  0  0  0  0  0  0  0  0  0  0
   57.5974   30.5067   46.5942 H   0  0  0  0  0  0  0  0  0  0  0  0
  1  2  1  0
  2  3  2  0
  2  4  2  0
  2  5  1  0
  5  6  2  0
  6  7  1  0
  7  8  2  0
  8  9  1  0
  9 10  1  0
 10 11  2  0
 11 12  1  0
 12 13  2  0
 13 14  1  0
 14 15  1  0
 15 16  1  0
 16 17  2  0
 16 18  1  0
 18 19  2  0
 18 20  1  0
 20 21  1  0
 21 22  1  0
 22 23  2  0
 23 24  1  0
 24 25  2  0
 25 26  1  0
 26 27  1  0
 26 28  2  0
 14 29  2  0
  9 30  2  0
 30  5  1  0
 29 10  1  0
 28 22  1  0
  1 31  1  0
  6 32  1  0
  7 33  1  0
  8 34  1  0
 11 35  1  0
 12 36  1  0
 13 37  1  0
 21 38  1  0
 21 39  1  0
 23 40  1  0
 24 41  1  0
 25 42  1  0
 28 43  1  0
 29 44  1  0
 30 45  1  0
M  CHG  4   1  -1  15  -1  20  -1  27  -1
M  END
>  <UniqueID>  (50) 
47

>  <SMILES>  (50) 
[NH-]S(=O)(=O)c1cccc(-c2cccc([N-]C(=O)C(=O)[N-]Cc3cccc([O-])c3)c2)c1

>  <Energy>  (50) 
54.9512450091059

>  <Genealogy>  (50) 
[NH-]S(=O)(=O)c1cccc(-c2cccc([N-]C(=O)C(=O)[N-]Cc3cccc([O-])c3)c2)c1 (protonated)
[NH-]S(=O)(=O)c1cccc(-c2cccc([N-]C(=O)C(=O)[N-]Cc3cccc([O-])c3)c2)c1 (3D coordinates assigned)
[NH-]S(=O)(=O)c1cccc(-c2cccc([N-]C(=O)C(=O)[N-]Cc3cccc([O-])c3)c2)c1 (optimized conformer: 54.9512450091059 kcal/mol)

>  <smiles>  (50) 
NS(=O)(=O)c1cccc(-c2cccc(NC(=O)C(=O)NCc3cccc(O)c3)c2)c1

>  <score_type>  (50) 
oracle

>  <origin>  (50) 
adg

>  <m_score__min__energy>  (50) 
-19.350000000000001

>  <m_primary>  (50) 
energy

$$$$
50:0
     RDKit          3D

 31 33  0  0  0  0  0  0  0  0999 V2000
   54.3200   28.9680   44.6700 H   0  0  0  0  0  0  0  0  0  0  0  0
   55.1490   29.5130   44.4730 O   0  0  0  0  0  0  0  0  0  0  0  0
   56.4480   29.0150   44.6020 C   0  0  0  0  0  0  0  0  0  0  0  0
   56.6230   27.8040   45.2890 C   0  0  0  0  0  0  0  0  0  0  0  0
   55.5190   27.1110   45.7700 O   0  0  0  0  0  0  0  0  0  0  0  0
   57.9050   27.2940   45.5070 C   0  0  0  0  0  0  0  0  0  0  0  0
   58.0329   26.3424   46.0438 H   0  0  0  0  0  0  0  0  0  0  0  0
   59.0230   27.9880   45.0460 C   0  0  0  0  0  0  0  0  0  0  0  0
   60.0317   27.5918   45.2346 H   0  0  0  0  0  0  0  0  0  0  0  0
   58.8640   29.1840   44.3460 C   0  0  0  0  0  0  0  0  0  0  0  0
   59.7510   29.7256   43.9856 H   0  0  0  0  0  0  0  0  0  0  0  0
   57.5810   29.7050   44.0960 C   0  0  0  0  0  0  0  0  0  0  0  0
   57.4650   30.9360   43.2830 C   0  0  0  0  0  0  0  0  0  0  0  0
   56.7540   30.9390   42.2420 O   0  0  0  0  0  0  0  0  0  0  0  0
   58.2130   32.1030   43.6630 N   0  0  0  0  0  0  0  0  0  0  0  0
   58.2710   32.6260   44.8510 C   0  0  0  0  0  0  0  0  0  0  0  0
   57.4290   32.3130   45.8650 N   0  0  0  0  0  0  0  0  0  0  0  0
   57.7270   33.0140   46.9910 C   0  0  0  0  0  0  0  0  0  0  0  0
   57.1600   32.9046   47.9273 H   0  0  0  0  0  0  0  0  0  0  0  0
   58.8050   33.8790   46.8630 C   0  0  0  0  0  0  0  0  0  0  0  0
   59.4540   34.9350   48.1510 S   0  0  0  0  0  0  0  0  0  0  0  0
   61.0530   34.1360   48.1120 C   0  0  0  0  0  0  0  0  0  0  0  0
   61.7780   33.9680   46.9850 N   0  0  0  0  0  0  0  0  0  0  0  0
   62.9420   33.3570   47.2010 N   0  0  0  0  0  0  0  0  0  0  0  0
   63.1390   33.0270   48.4960 C   0  0  0  0  0  0  0  0  0  0  0  0
   64.3930   32.4010   49.0050 C   0  0  0  0  0  0  0  0  0  0  0  0
   64.3846   32.4052   50.1050 H   0  0  0  0  0  0  0  0  0  0  0  0
   64.4586   31.3644   48.6428 H   0  0  0  0  0  0  0  0  0  0  0  0
   65.2609   32.9716   48.6428 H   0  0  0  0  0  0  0  0  0  0  0  0
   61.8500   33.5210   49.4610 S   0  0  0  0  0  0  0  0  0  0  0  0
   59.4120   33.7770   45.2990 S   0  0  0  0  0  0  0  0  0  0  0  0
  1  2  1  0
  2  3  1  0
  3  4  2  0
  4  5  1  0
  4  6  1  0
  6  7  1  0
  6  8  2  0
  8  9  1  0
  8 10  1  0
 10 11  1  0
 10 12  2  0
 12 13  1  0
 13 14  2  0
 13 15  1  0
 15 16  2  0
 16 17  1  0
 17 18  1  0
 18 19  1  0
 18 20  2  0
 20 21  1  0
 21 22  1  0
 22 23  2  0
 23 24  1  0
 24 25  2  0
 25 26  1  0
 26 27  1  0
 26 28  1  0
 26 29  1  0
 25 30  1  0
 20 31  1  0
 12  3  1  0
 31 16  1  0
 30 22  1  0
M  CHG  2   5  -1  17  -1
M  END
>  <UniqueID>  (51) 
48

>  <SMILES>  (51) 
Cc1nnc(Sc2c[n-]/c(=N\C(=O)c3cccc([O-])c3O)s2)s1

>  <Energy>  (51) 
100.45706021916875

>  <Genealogy>  (51) 
Cc1nnc(Sc2c[n-]c(=NC(=O)c3cccc([O-])c3O)s2)s1 (protonated)
Cc1nnc(Sc2c[n-]/c(=N\C(=O)c3cccc([O-])c3O)s2)s1 (cis-trans isomerization)
Cc1nnc(Sc2c[n-]/c(=N\C(=O)c3cccc([O-])c3O)s2)s1 (3D coordinates assigned)
Cc1nnc(Sc2c[n-]/c(=N\C(=O)c3cccc([O-])c3O)s2)s1 (optimized conformer: 100.45706021916875 kcal/mol)

>  <smiles>  (51) 
Cc1nnc(Sc2c[nH]c(=NC(=O)c3cccc(O)c3O)s2)s1

>  <score_type>  (51) 
oracle

>  <origin>  (51) 
adg

>  <m_score__min__energy>  (51) 
-13.16

>  <m_primary>  (51) 
energy

$$$$
51:0
     RDKit          3D

 46 48  0  0  1  0  0  0  0  0999 V2000
   56.4760   30.2570   44.8830 O   0  0  0  0  0  0  0  0  0  0  0  0
   57.4840   30.9610   44.6140 C   0  0  0  0  0  0  0  0  0  0  0  0
   58.5200   31.1890   45.5720 N   0  0  0  0  0  0  0  0  0  0  0  0
   58.4370   30.6000   46.9140 C   0  0  2  0  0  0  0  0  0  0  0  0
   58.9030   31.6720   47.8340 C   0  0  0  0  0  0  0  0  0  0  0  0
   58.6260   32.9590   47.6440 C   0  0  0  0  0  0  0  0  0  0  0  0
   59.6030   34.0430   46.7070 S   0  0  0  0  0  0  0  0  0  0  0  0
   59.2760   35.4980   47.0240 O   0  0  0  0  0  0  0  0  0  0  0  0
   59.5940   33.8310   45.2540 O   0  0  0  0  0  0  0  0  0  0  0  0
   61.2590   33.8410   47.2730 C   0  0  0  0  0  0  0  0  0  0  0  0
   61.4830   33.9300   48.6430 C   0  0  0  0  0  0  0  0  0  0  0  0
   62.7880   33.7750   49.1220 C   0  0  0  0  0  0  0  0  0  0  0  0
   63.8240   33.5340   48.2330 C   0  0  0  0  0  0  0  0  0  0  0  0
   63.5970   33.4470   46.8820 C   0  0  0  0  0  0  0  0  0  0  0  0
   62.3040   33.6000   46.3870 C   0  0  0  0  0  0  0  0  0  0  0  0
   59.4170   29.4440   46.8680 C   0  0  0  0  0  0  0  0  0  0  0  0
   58.8450   28.3580   46.0530 C   0  0  0  0  0  0  0  0  0  0  0  0
   58.0150   27.3800   46.6130 C   0  0  0  0  0  0  0  0  0  0  0  0
   57.4770   26.3630   45.8580 C   0  0  0  0  0  0  0  0  0  0  0  0
   57.7340   26.2660   44.5020 C   0  0  0  0  0  0  0  0  0  0  0  0
   58.5590   27.2300   43.9200 C   0  0  0  0  0  0  0  0  0  0  0  0
   59.0930   28.2460   44.6920 C   0  0  0  0  0  0  0  0  0  0  0  0
   57.5700   31.5530   43.2680 C   0  0  0  0  0  0  0  0  0  0  0  0
   56.7510   31.2490   42.2570 N   0  0  0  0  0  0  0  0  0  0  0  0
   57.0820   31.9570   41.1480 C   0  0  0  0  0  0  0  0  0  0  0  0
   58.1660   32.7240   41.5450 C   0  0  0  0  0  0  0  0  0  0  0  0
   58.4560   32.4670   42.8460 N   0  0  0  0  0  0  0  0  0  0  0  0
   59.3230   31.7770   45.2890 H   0  0  0  0  0  0  0  0  0  0  0  0
   57.4444   30.2489   47.2325 H   0  0  0  0  0  0  0  0  0  0  0  0
   59.5035   31.3877   48.7107 H   0  0  0  0  0  0  0  0  0  0  0  0
   57.7164   33.3628   48.1125 H   0  0  0  0  0  0  0  0  0  0  0  0
   60.6500   34.1186   49.3362 H   0  0  0  0  0  0  0  0  0  0  0  0
   62.9916   33.8441   50.2008 H   0  0  0  0  0  0  0  0  0  0  0  0
   64.8472   33.4102   48.6174 H   0  0  0  0  0  0  0  0  0  0  0  0
   64.4331   33.2572   46.1928 H   0  0  0  0  0  0  0  0  0  0  0  0
   62.1112   33.5309   45.3062 H   0  0  0  0  0  0  0  0  0  0  0  0
   60.3634   29.7812   46.4200 H   0  0  0  0  0  0  0  0  0  0  0  0
   59.6081   29.0799   47.8882 H   0  0  0  0  0  0  0  0  0  0  0  0
   57.7861   27.4256   47.6879 H   0  0  0  0  0  0  0  0  0  0  0  0
   56.8316   25.6144   46.3408 H   0  0  0  0  0  0  0  0  0  0  0  0
   57.3010   25.4533   43.9003 H   0  0  0  0  0  0  0  0  0  0  0  0
   58.7851   27.1816   42.8446 H   0  0  0  0  0  0  0  0  0  0  0  0
   59.7389   28.9938   44.2088 H   0  0  0  0  0  0  0  0  0  0  0  0
   56.6001   31.9287   40.1596 H   0  0  0  0  0  0  0  0  0  0  0  0
   58.7090   33.4334   40.9032 H   0  0  0  0  0  0  0  0  0  0  0  0
   59.2160   32.8900   43.4220 H   0  0  0  0  0  0  0  0  0  0  0  0
  1  2  2  0
  2  3  1  0
  3  4  1  0
  4  5  1  0
  5  6  2  0
  6  7  1  0
  7  8  2  0
  7  9  2  0
  7 10  1  0
 10 11  2  0
 11 12  1  0
 12 13  2  0
 13 14  1  0
 14 15  2  0
  4 16  1  0
 16 17  1  0
 17 18  2  0
 18 19  1  0
 19 20  2  0
 20 21  1  0
 21 22  2  0
  2 23  1  0
 23 24  2  0
 24 25  1  0
 25 26  2  0
 26 27  1  0
 15 10  1  0
 22 17  1  0
 27 23  1  0
  3 28  1  0
  4 29  1  1
  5 30  1  0
  6 31  1  0
 11 32  1  0
 12 33  1  0
 13 34  1  0
 14 35  1  0
 15 36  1  0
 16 37  1  0
 16 38  1  0
 18 39  1  0
 19 40  1  0
 20 41  1  0
 21 42  1  0
 22 43  1  0
 25 44  1  0
 26 45  1  0
 27 46  1  0
M  END
>  <smiles>  (52) 
O=C(NC(C=CS(=O)(=O)c1ccccc1)Cc1ccccc1)c1ncc[nH]1

>  <score_type>  (52) 
oracle

>  <origin>  (52) 
adg

>  <m_score__min__energy>  (52) 
-8.4700000000000006

>  <m_primary>  (52) 
energy

$$$$
52:0
     RDKit          3D

 62 66  0  0  0  0  0  0  0  0999 V2000
   61.8860   29.6220   50.8570 N   0  0  0  0  0  0  0  0  0  0  0  0
   61.6330   30.0950   49.5320 C   0  0  0  0  0  0  0  0  0  0  0  0
   60.7070   29.5690   48.8570 O   0  0  0  0  0  0  0  0  0  0  0  0
   62.4240   31.2100   48.9690 C   0  0  0  0  0  0  0  0  0  0  0  0
   62.6550   31.2490   47.5820 C   0  0  0  0  0  0  0  0  0  0  0  0
   63.3190   32.3290   47.0000 C   0  0  0  0  0  0  0  0  0  0  0  0
   63.7490   33.3920   47.7920 C   0  0  0  0  0  0  0  0  0  0  0  0
   63.5450   33.3630   49.1720 C   0  0  0  0  0  0  0  0  0  0  0  0
   62.9150   32.2680   49.7760 C   0  0  0  0  0  0  0  0  0  0  0  0
   62.8200   32.2620   51.2080 N   0  0  0  0  0  0  0  0  0  0  0  0
   62.2540   33.3060   52.0080 C   0  0  0  0  0  0  0  0  0  0  0  0
   62.6600   34.4920   51.8870 O   0  0  0  0  0  0  0  0  0  0  0  0
   61.1520   33.0220   52.8810 N   0  0  0  0  0  0  0  0  0  0  0  0
   60.8650   31.6440   53.2720 C   0  0  0  0  0  0  0  0  0  0  0  0
   59.8740   31.0170   52.2770 C   0  0  0  0  0  0  0  0  0  0  0  0
   59.2770   32.0210   51.3770 N   0  0  0  0  0  0  0  0  0  0  0  0
   58.6340   31.5440   50.1850 C   0  0  0  0  0  0  0  0  0  0  0  0
   57.9190   30.5060   50.2530 O   0  0  0  0  0  0  0  0  0  0  0  0
   58.8190   32.2120   48.8710 C   0  0  0  0  0  0  0  0  0  0  0  0
   59.2840   33.5390   48.8290 C   0  0  0  0  0  0  0  0  0  0  0  0
   59.3850   34.2160   47.6180 C   0  0  0  0  0  0  0  0  0  0  0  0
   59.0350   33.5810   46.4280 C   0  0  0  0  0  0  0  0  0  0  0  0
   58.6180   32.2430   46.4300 C   0  0  0  0  0  0  0  0  0  0  0  0
   58.2240   31.5920   45.1220 C   0  0  0  0  0  0  0  0  0  0  0  0
   57.6300   30.2150   45.2910 C   0  0  0  0  0  0  0  0  0  0  0  0
   56.3030   30.0850   45.0290 N   0  0  0  0  0  0  0  0  0  0  0  0
   55.6530   28.9300   45.1760 N   0  0  0  0  0  0  0  0  0  0  0  0
   56.2770   27.8140   45.6160 C   0  0  0  0  0  0  0  0  0  0  0  0
   55.6060   26.7580   45.7710 O   0  0  0  0  0  0  0  0  0  0  0  0
   57.6530   27.8530   45.8880 C   0  0  0  0  0  0  0  0  0  0  0  0
   58.3310   26.7010   46.3340 C   0  0  0  0  0  0  0  0  0  0  0  0
   59.7040   26.7340   46.5600 C   0  0  0  0  0  0  0  0  0  0  0  0
   60.4220   27.9050   46.3290 C   0  0  0  0  0  0  0  0  0  0  0  0
   59.7730   29.0630   45.8920 C   0  0  0  0  0  0  0  0  0  0  0  0
   60.5460   30.1410   45.6240 F   0  0  0  0  0  0  0  0  0  0  0  0
   58.3670   29.0660   45.6910 C   0  0  0  0  0  0  0  0  0  0  0  0
   58.4780   31.5710   47.6630 C   0  0  0  0  0  0  0  0  0  0  0  0
   58.9360   33.3680   51.8740 C   0  0  0  0  0  0  0  0  0  0  0  0
   59.9870   33.9120   52.8620 C   0  0  0  0  0  0  0  0  0  0  0  0
   61.2720   28.8930   51.2860 H   0  0  0  0  0  0  0  0  0  0  0  0
   62.6040   30.0780   51.4620 H   0  0  0  0  0  0  0  0  0  0  0  0
   62.3082   30.4187   46.9493 H   0  0  0  0  0  0  0  0  0  0  0  0
   63.5032   32.3416   45.9156 H   0  0  0  0  0  0  0  0  0  0  0  0
   64.2498   34.2549   47.3287 H   0  0  0  0  0  0  0  0  0  0  0  0
   63.8820   34.2077   49.7908 H   0  0  0  0  0  0  0  0  0  0  0  0
   61.7987   31.0625   53.2732 H   0  0  0  0  0  0  0  0  0  0  0  0
   60.4229   31.6363   54.2792 H   0  0  0  0  0  0  0  0  0  0  0  0
   60.4064   30.2696   51.6703 H   0  0  0  0  0  0  0  0  0  0  0  0
   59.0600   30.5567   52.8563 H   0  0  0  0  0  0  0  0  0  0  0  0
   59.5704   34.0459   49.7623 H   0  0  0  0  0  0  0  0  0  0  0  0
   59.7424   35.2562   47.5997 H   0  0  0  0  0  0  0  0  0  0  0  0
   59.0865   34.1347   45.4789 H   0  0  0  0  0  0  0  0  0  0  0  0
   57.4817   32.2328   44.6236 H   0  0  0  0  0  0  0  0  0  0  0  0
   59.1423   31.4780   44.5273 H   0  0  0  0  0  0  0  0  0  0  0  0
   57.7714   25.7695   46.5047 H   0  0  0  0  0  0  0  0  0  0  0  0
   60.2228   25.8340   46.9216 H   0  0  0  0  0  0  0  0  0  0  0  0
   61.5098   27.9184   46.4920 H   0  0  0  0  0  0  0  0  0  0  0  0
   58.0996   30.5383   47.6814 H   0  0  0  0  0  0  0  0  0  0  0  0
   58.8679   34.0542   51.0170 H   0  0  0  0  0  0  0  0  0  0  0  0
   57.9776   33.2960   52.4090 H   0  0  0  0  0  0  0  0  0  0  0  0
   60.3001   34.9180   52.5461 H   0  0  0  0  0  0  0  0  0  0  0  0
   59.5492   33.9619   53.8699 H   0  0  0  0  0  0  0  0  0  0  0  0
  1  2  1  0
  2  3  2  0
  2  4  1  0
  4  5  2  0
  5  6  1  0
  6  7  2  0
  7  8  1  0
  8  9  2  0
  9 10  1  0
 10 11  1  0
 11 12  2  0
 11 13  1  0
 13 14  1  0
 14 15  1  0
 15 16  1  0
 16 17  1  0
 17 18  2  0
 17 19  1  0
 19 20  2  0
 20 21  1  0
 21 22  2  0
 22 23  1  0
 23 24  1  0
 24 25  1  0
 25 26  2  0
 26 27  1  0
 27 28  1  0
 28 29  2  0
 28 30  1  0
 30 31  2  0
 31 32  1  0
 32 33  2  0
 33 34  1  0
 34 35  1  0
 34 36  2  0
 23 37  2  0
 16 38  1  0
 38 39  1  0
  9  4  1  0
 39 13  1  0
 37 19  1  0
 36 25  1  0
 36 30  1  0
  1 40  1  0
  1 41  1  0
  5 42  1  0
  6 43  1  0
  7 44  1  0
  8 45  1  0
 14 46  1  0
 14 47  1  0
 15 48  1  0
 15 49  1  0
 20 50  1  0
 21 51  1  0
 22 52  1  0
 24 53  1  0
 24 54  1  0
 31 55  1  0
 32 56  1  0
 33 57  1  0
 37 58  1  0
 38 59  1  0
 38 60  1  0
 39 61  1  0
 39 62  1  0
M  CHG  2  10  -1  27  -1
M  END
>  <UniqueID>  (53) 
49

>  <SMILES>  (53) 
NC(=O)c1ccccc1[N-]C(=O)N1CCN(C(=O)c2cccc(Cc3n[n-]c(=O)c4cccc(F)c34)c2)CC1

>  <Energy>  (53) 
95.82684561225575

>  <Genealogy>  (53) 
NC(=O)c1ccccc1[N-]C(=O)N1CCN(C(=O)c2cccc(Cc3n[n-]c(=O)c4cccc(F)c34)c2)CC1 (protonated)
NC(=O)c1ccccc1[N-]C(=O)N1CCN(C(=O)c2cccc(Cc3n[n-]c(=O)c4cccc(F)c34)c2)CC1 (3D coordinates assigned)
NC(=O)c1ccccc1[N-]C(=O)N1CCN(C(=O)c2cccc(Cc3n[n-]c(=O)c4cccc(F)c34)c2)CC1 (nonaromatic ring conformer: 95.82684561225575 kcal/mol)

>  <smiles>  (53) 
NC(=O)c1ccccc1NC(=O)N1CCN(C(=O)c2cccc(Cc3n[nH]c(=O)c4cccc(F)c34)c2)CC1

>  <score_type>  (53) 
oracle

>  <origin>  (53) 
adg

>  <m_score__min__energy>  (53) 
-13.92

>  <m_primary>  (53) 
energy

$$$$
53:0
     RDKit          3D

 53 55  0  0  1  0  0  0  0  0999 V2000
   63.6560   33.0780   47.3450 C   0  0  0  0  0  0  0  0  0  0  0  0
   64.0320   33.7980   48.5080 N   0  0  0  0  0  0  0  0  0  0  0  0
   64.5120   33.3700   49.5950 C   0  0  0  0  0  0  0  0  0  0  0  0
   65.6170   32.5870   49.5250 N   0  0  0  0  0  0  0  0  0  0  0  0
   66.0860   32.0440   50.6670 C   0  0  0  0  0  0  0  0  0  0  0  0
   67.1220   31.3040   50.6360 O   0  0  0  0  0  0  0  0  0  0  0  0
   65.4800   32.2680   51.8490 N   0  0  0  0  0  0  0  0  0  0  0  0
   64.3860   33.0480   51.9070 C   0  0  0  0  0  0  0  0  0  0  0  0
   63.8480   33.6460   50.7580 C   0  0  0  0  0  0  0  0  0  0  0  0
   62.7490   34.4180   50.9340 O   0  0  0  0  0  0  0  0  0  0  0  0
   61.4520   33.8970   50.7610 C   0  0  0  0  0  0  0  0  0  0  0  0
   60.9740   33.7930   49.4520 C   0  0  0  0  0  0  0  0  0  0  0  0
   59.7050   33.2870   49.2340 C   0  0  0  0  0  0  0  0  0  0  0  0
   59.2700   33.2050   47.8410 C   0  0  0  0  0  0  0  0  0  0  0  0
   60.0270   33.8890   46.9070 C   0  0  0  0  0  0  0  0  0  0  0  0
   59.6560   33.8420   45.5760 C   0  0  0  0  0  0  0  0  0  0  0  0
   58.5410   33.1160   45.2150 C   0  0  0  0  0  0  0  0  0  0  0  0
   58.1600   33.0850   43.7630 C   0  0  0  0  0  0  0  0  0  0  0  0
   57.2990   31.8400   43.5650 C   0  0  0  0  0  0  0  0  0  0  0  0
   58.1820   30.6960   43.7430 N   0  0  0  0  0  0  0  0  0  0  0  0
   57.4610   29.4710   44.7220 S   0  0  0  0  0  0  0  0  0  0  0  0
   57.7600   27.9130   43.8880 C   0  0  0  0  0  0  0  0  0  0  0  0
   58.1710   29.4950   46.0470 O   0  0  0  0  0  0  0  0  0  0  0  0
   55.9870   29.7130   44.8680 O   0  0  0  0  0  0  0  0  0  0  0  0
   57.7720   32.4300   46.1320 C   0  0  0  0  0  0  0  0  0  0  0  0
   58.1560   32.4860   47.4590 C   0  0  0  0  0  0  0  0  0  0  0  0
   58.9160   32.8890   50.2940 C   0  0  0  0  0  0  0  0  0  0  0  0
   59.4380   33.0140   51.5770 C   0  0  0  0  0  0  0  0  0  0  0  0
   58.5930   32.5870   52.7250 C   0  0  0  0  0  0  0  0  0  0  0  0
   60.6830   33.5100   51.7900 N   0  0  0  0  0  0  0  0  0  0  0  0
   63.1652   32.1382   47.6382 H   0  0  0  0  0  0  0  0  0  0  0  0
   62.9595   33.6845   46.7475 H   0  0  0  0  0  0  0  0  0  0  0  0
   64.5517   32.8530   46.7475 H   0  0  0  0  0  0  0  0  0  0  0  0
   66.1010   32.4000   48.6340 H   0  0  0  0  0  0  0  0  0  0  0  0
   65.8720   31.8270   52.7100 H   0  0  0  0  0  0  0  0  0  0  0  0
   63.9013   33.2212   52.8792 H   0  0  0  0  0  0  0  0  0  0  0  0
   61.5996   34.1099   48.6046 H   0  0  0  0  0  0  0  0  0  0  0  0
   60.9122   34.4626   47.2190 H   0  0  0  0  0  0  0  0  0  0  0  0
   60.2429   34.3770   44.8149 H   0  0  0  0  0  0  0  0  0  0  0  0
   57.5883   33.9875   43.5012 H   0  0  0  0  0  0  0  0  0  0  0  0
   59.0515   33.0575   43.1192 H   0  0  0  0  0  0  0  0  0  0  0  0
   56.4896   31.8151   44.3094 H   0  0  0  0  0  0  0  0  0  0  0  0
   56.8328   31.8323   42.5687 H   0  0  0  0  0  0  0  0  0  0  0  0
   58.4440   30.2820   42.8260 H   0  0  0  0  0  0  0  0  0  0  0  0
   57.9121   27.1203   44.6354 H   0  0  0  0  0  0  0  0  0  0  0  0
   56.8936   27.6620   43.2584 H   0  0  0  0  0  0  0  0  0  0  0  0
   58.6577   28.0005   43.2584 H   0  0  0  0  0  0  0  0  0  0  0  0
   56.8854   31.8591   45.8188 H   0  0  0  0  0  0  0  0  0  0  0  0
   57.5669   31.9514   48.2187 H   0  0  0  0  0  0  0  0  0  0  0  0
   57.9060   32.4856   50.1293 H   0  0  0  0  0  0  0  0  0  0  0  0
   59.0989   32.8426   53.6677 H   0  0  0  0  0  0  0  0  0  0  0  0
   57.6227   33.1030   52.6780 H   0  0  0  0  0  0  0  0  0  0  0  0
   58.4328   31.4997   52.6780 H   0  0  0  0  0  0  0  0  0  0  0  0
  1  2  1  0
  2  3  2  0
  3  4  1  0
  4  5  1  0
  5  6  2  0
  5  7  1  0
  7  8  1  0
  8  9  2  0
  9 10  1  0
 10 11  1  0
 11 12  2  0
 12 13  1  0
 13 14  1  0
 14 15  2  0
 15 16  1  0
 16 17  2  0
 17 18  1  0
 18 19  1  0
 19 20  1  0
 20 21  1  0
 21 22  1  0
 21 23  2  0
 21 24  2  0
 17 25  1  0
 25 26  2  0
 13 27  2  0
 27 28  1  0
 28 29  1  0
 28 30  2  0
  9  3  1  0
 30 11  1  0
 26 14  1  0
  1 31  1  0
  1 32  1  0
  1 33  1  0
  4 34  1  0
  7 35  1  0
  8 36  1  0
 12 37  1  0
 15 38  1  0
 16 39  1  0
 18 40  1  0
 18 41  1  0
 19 42  1  0
 19 43  1  0
 20 44  1  0
 22 45  1  0
 22 46  1  0
 22 47  1  0
 25 48  1  0
 26 49  1  0
 27 50  1  0
 29 51  1  0
 29 52  1  0
 29 53  1  0
M  END
>  <smiles>  (54) 
CN=c1[nH]c(=O)[nH]cc1Oc1cc(-c2ccc(CCNS(C)(=O)=O)cc2)cc(C)n1

>  <score_type>  (54) 
oracle

>  <origin>  (54) 
adg

>  <m_score__min__energy>  (54) 
-8.8800000000000008

>  <m_primary>  (54) 
energy

$$$$
54:0
     RDKit          3D

 43 44  0  0  0  0  0  0  0  0999 V2000
   58.2260   33.9430   45.0410 C   0  0  0  0  0  0  0  0  0  0  0  0
   57.4020   33.1880   46.0770 C   0  0  0  0  0  0  0  0  0  0  0  0
   57.7690   31.7470   46.0520 N   0  0  0  0  0  0  0  0  0  0  0  0
   57.8620   31.2280   44.6700 C   0  0  0  0  0  0  0  0  0  0  0  0
   56.8390   30.1160   44.4370 C   0  0  0  0  0  0  0  0  0  0  0  0
   59.0260   31.4900   46.7880 C   0  0  0  0  0  0  0  0  0  0  0  0
   58.8490   31.7650   48.2500 C   0  0  0  0  0  0  0  0  0  0  0  0
   58.9680   33.0070   48.8630 C   0  0  0  0  0  0  0  0  0  0  0  0
   58.8040   32.9940   50.2130 N   0  0  0  0  0  0  0  0  0  0  0  0
   58.5710   31.7480   50.6790 C   0  0  0  0  0  0  0  0  0  0  0  0
   58.3530   31.5160   51.9400 N   0  0  0  0  0  0  0  0  0  0  0  0
   57.1050   31.1290   52.5320 C   0  0  0  0  0  0  0  0  0  0  0  0
   56.9890   31.1730   53.7860 O   0  0  0  0  0  0  0  0  0  0  0  0
   56.0400   30.5910   51.7320 N   0  0  0  0  0  0  0  0  0  0  0  0
   54.6630   30.5670   52.1420 C   0  0  0  0  0  0  0  0  0  0  0  0
   54.2530   29.6520   53.1220 C   0  0  0  0  0  0  0  0  0  0  0  0
   52.9170   29.5950   53.5210 C   0  0  0  0  0  0  0  0  0  0  0  0
   51.9720   30.4420   52.9380 C   0  0  0  0  0  0  0  0  0  0  0  0
   52.3540   31.3530   51.9380 C   0  0  0  0  0  0  0  0  0  0  0  0
   51.3500   32.2420   51.3060 C   0  0  0  0  0  0  0  0  0  0  0  0
   50.2290   32.7150   52.0500 N   0  0  0  0  0  0  0  0  0  0  0  0
   51.4760   32.5890   50.1010 O   0  0  0  0  0  0  0  0  0  0  0  0
   53.7040   31.4050   51.5410 C   0  0  0  0  0  0  0  0  0  0  0  0
   58.5360   30.6090   49.4320 S   0  0  0  0  0  0  0  0  0  0  0  0
   58.9441   34.6010   45.5523 H   0  0  0  0  0  0  0  0  0  0  0  0
   58.7711   33.2243   44.4114 H   0  0  0  0  0  0  0  0  0  0  0  0
   57.5576   34.5487   44.4114 H   0  0  0  0  0  0  0  0  0  0  0  0
   57.6042   33.6000   47.0767 H   0  0  0  0  0  0  0  0  0  0  0  0
   56.3326   33.2969   45.8434 H   0  0  0  0  0  0  0  0  0  0  0  0
   57.6698   32.0486   43.9631 H   0  0  0  0  0  0  0  0  0  0  0  0
   58.8705   30.8170   44.5151 H   0  0  0  0  0  0  0  0  0  0  0  0
   56.4866   29.7330   45.4061 H   0  0  0  0  0  0  0  0  0  0  0  0
   55.9862   30.5155   43.8686 H   0  0  0  0  0  0  0  0  0  0  0  0
   57.3081   29.2994   43.8686 H   0  0  0  0  0  0  0  0  0  0  0  0
   59.3161   30.4378   46.6510 H   0  0  0  0  0  0  0  0  0  0  0  0
   59.8085   32.1558   46.3950 H   0  0  0  0  0  0  0  0  0  0  0  0
   59.1784   33.9283   48.3001 H   0  0  0  0  0  0  0  0  0  0  0  0
   56.3020   30.0970   50.8490 H   0  0  0  0  0  0  0  0  0  0  0  0
   54.9892   28.9746   53.5793 H   0  0  0  0  0  0  0  0  0  0  0  0
   52.6071   28.8803   54.2976 H   0  0  0  0  0  0  0  0  0  0  0  0
   50.9222   30.3960   53.2634 H   0  0  0  0  0  0  0  0  0  0  0  0
   49.9480   33.7210   52.0180 H   0  0  0  0  0  0  0  0  0  0  0  0
   54.0128   32.1077   50.7530 H   0  0  0  0  0  0  0  0  0  0  0  0
  1  2  1  0
  2  3  1  0
  3  4  1  0
  4  5  1  0
  3  6  1  0
  6  7  1  0
  7  8  2  0
  8  9  1  0
  9 10  1  0
 10 11  2  3
 11 12  1  0
 12 13  2  0
 12 14  1  0
 14 15  1  0
 15 16  2  0
 16 17  1  0
 17 18  2  0
 18 19  1  0
 19 20  1  0
 20 21  1  0
 20 22  2  0
 19 23  2  0
 10 24  1  0
 24  7  1  0
 23 15  1  0
  1 25  1  0
  1 26  1  0
  1 27  1  0
  2 28  1  0
  2 29  1  0
  4 30  1  0
  4 31  1  0
  5 32  1  0
  5 33  1  0
  5 34  1  0
  6 35  1  0
  6 36  1  0
  8 37  1  0
 14 38  1  0
 16 39  1  0
 17 40  1  0
 18 41  1  0
 21 42  1  0
 23 43  1  0
M  CHG  2   9  -1  21  -1
M  END
>  <UniqueID>  (55) 
50

>  <SMILES>  (55) 
CCN(CC)Cc1c[n-]c(=NC(=O)Nc2cccc(C([NH-])=O)c2)s1

>  <Energy>  (55) 
79.59764710238666

>  <Genealogy>  (55) 
CCN(CC)Cc1c[n-]c(=NC(=O)Nc2cccc(C([NH-])=O)c2)s1 (protonated)
CCN(CC)Cc1c[n-]c(=NC(=O)Nc2cccc(C([NH-])=O)c2)s1 (3D coordinates assigned)
CCN(CC)Cc1c[n-]c(=NC(=O)Nc2cccc(C([NH-])=O)c2)s1 (optimized conformer: 79.59764710238666 kcal/mol)

>  <smiles>  (55) 
CCN(CC)Cc1c[nH]c(=NC(=O)Nc2cccc(C(N)=O)c2)s1

>  <score_type>  (55) 
oracle

>  <origin>  (55) 
adg

>  <m_score__min__energy>  (55) 
-12.17

>  <m_primary>  (55) 
energy

$$$$
55:0
     RDKit          3D

 54 57  0  0  0  0  0  0  0  0999 V2000
   56.8840   22.5040   44.7010 C   0  0  0  0  0  0  0  0  0  0  0  0
   56.6840   23.7550   45.1200 C   0  0  0  0  0  0  0  0  0  0  0  0
   57.6970   24.6400   45.2300 N   0  0  0  0  0  0  0  0  0  0  0  0
   57.1520   25.7870   45.6840 C   0  0  0  0  0  0  0  0  0  0  0  0
   57.8520   26.9110   45.8990 C   0  0  0  0  0  0  0  0  0  0  0  0
   57.4360   28.2310   45.3920 C   0  0  0  0  0  0  0  0  0  0  0  0
   56.1400   28.5530   45.1980 N   0  0  0  0  0  0  0  0  0  0  0  0
   56.1850   29.8400   44.7990 C   0  0  0  0  0  0  0  0  0  0  0  0
   55.1510   30.5050   44.5270 O   0  0  0  0  0  0  0  0  0  0  0  0
   57.4340   30.3480   44.7400 N   0  0  0  0  0  0  0  0  0  0  0  0
   57.7940   31.7400   44.4550 C   0  0  0  0  0  0  0  0  0  0  0  0
   58.0440   32.4790   45.7370 C   0  0  0  0  0  0  0  0  0  0  0  0
   57.4040   33.5340   45.9880 O   0  0  0  0  0  0  0  0  0  0  0  0
   58.9410   31.9500   46.7170 N   0  0  0  0  0  0  0  0  0  0  0  0
   58.5230   31.0940   47.8280 C   0  0  0  0  0  0  0  0  0  0  0  0
   59.6790   31.1350   48.8590 C   0  0  0  0  0  0  0  0  0  0  0  0
   60.6530   32.0790   48.2470 C   0  0  0  0  0  0  0  0  0  0  0  0
   61.8550   32.5480   48.7820 C   0  0  0  0  0  0  0  0  0  0  0  0
   62.6000   33.4810   48.0420 C   0  0  0  0  0  0  0  0  0  0  0  0
   62.1350   33.9250   46.7880 C   0  0  0  0  0  0  0  0  0  0  0  0
   60.9240   33.4380   46.2720 C   0  0  0  0  0  0  0  0  0  0  0  0
   60.2010   32.5140   47.0310 C   0  0  0  0  0  0  0  0  0  0  0  0
   58.2370   29.3390   45.1400 C   0  0  0  0  0  0  0  0  0  0  0  0
   59.7260   29.4370   45.3150 C   0  0  0  0  0  0  0  0  0  0  0  0
   55.7850   25.6310   45.8530 C   0  0  0  0  0  0  0  0  0  0  0  0
   54.8750   26.5860   46.3080 O   0  0  0  0  0  0  0  0  0  0  0  0
   55.4690   24.3310   45.4950 C   0  0  0  0  0  0  0  0  0  0  0  0
   54.0950   23.6940   45.5330 C   0  0  0  0  0  0  0  0  0  0  0  0
   54.1690   22.2630   46.0770 C   0  0  0  0  0  0  0  0  0  0  0  0
   53.4430   23.7240   44.1470 C   0  0  0  0  0  0  0  0  0  0  0  0
   56.0358   21.8079   44.6228 H   0  0  0  0  0  0  0  0  0  0  0  0
   57.8970   22.1688   44.4338 H   0  0  0  0  0  0  0  0  0  0  0  0
   58.7822   26.8443   46.4824 H   0  0  0  0  0  0  0  0  0  0  0  0
   58.7048   31.7617   43.8386 H   0  0  0  0  0  0  0  0  0  0  0  0
   56.9663   32.2235   43.9154 H   0  0  0  0  0  0  0  0  0  0  0  0
   57.5958   31.4781   48.2783 H   0  0  0  0  0  0  0  0  0  0  0  0
   58.3211   30.0667   47.4905 H   0  0  0  0  0  0  0  0  0  0  0  0
   59.3261   31.5089   49.8315 H   0  0  0  0  0  0  0  0  0  0  0  0
   60.1103   30.1434   49.0605 H   0  0  0  0  0  0  0  0  0  0  0  0
   62.2103   32.1945   49.7612 H   0  0  0  0  0  0  0  0  0  0  0  0
   63.5493   33.8662   48.4426 H   0  0  0  0  0  0  0  0  0  0  0  0
   62.7226   34.6551   46.2121 H   0  0  0  0  0  0  0  0  0  0  0  0
   60.5528   33.7757   45.2932 H   0  0  0  0  0  0  0  0  0  0  0  0
   59.9688   29.4530   46.3877 H   0  0  0  0  0  0  0  0  0  0  0  0
   60.2086   28.5687   44.8427 H   0  0  0  0  0  0  0  0  0  0  0  0
   60.0907   30.3611   44.8427 H   0  0  0  0  0  0  0  0  0  0  0  0
   55.1700   27.4510   46.7400 H   0  0  0  0  0  0  0  0  0  0  0  0
   53.4648   24.2813   46.2170 H   0  0  0  0  0  0  0  0  0  0  0  0
   54.1677   22.2883   47.1767 H   0  0  0  0  0  0  0  0  0  0  0  0
   53.2993   21.6905   45.7224 H   0  0  0  0  0  0  0  0  0  0  0  0
   55.0932   21.7832   45.7224 H   0  0  0  0  0  0  0  0  0  0  0  0
   52.3497   23.7743   44.2571 H   0  0  0  0  0  0  0  0  0  0  0  0
   53.7969   24.6068   43.5944 H   0  0  0  0  0  0  0  0  0  0  0  0
   53.7143   22.8124   43.5944 H   0  0  0  0  0  0  0  0  0  0  0  0
  1  2  2  0
  2  3  1  0
  3  4  1  0
  4  5  2  3
  5  6  1  0
  6  7  1  0
  7  8  1  0
  8  9  2  0
  8 10  1  0
 10 11  1  0
 11 12  1  0
 12 13  2  0
 12 14  1  0
 14 15  1  0
 15 16  1  0
 16 17  1  0
 17 18  2  0
 18 19  1  0
 19 20  2  0
 20 21  1  0
 21 22  2  0
 10 23  1  0
 23 24  1  0
  4 25  1  0
 25 26  1  0
 25 27  2  0
 27 28  1  0
 28 29  1  0
 28 30  1  0
 27  2  1  0
 23  6  2  0
 22 14  1  0
 22 17  1  0
  1 31  1  0
  1 32  1  0
  5 33  1  0
 11 34  1  0
 11 35  1  0
 15 36  1  0
 15 37  1  0
 16 38  1  0
 16 39  1  0
 18 40  1  0
 19 41  1  0
 20 42  1  0
 21 43  1  0
 24 44  1  0
 24 45  1  0
 24 46  1  0
 26 47  1  0
 28 48  1  0
 29 49  1  0
 29 50  1  0
 29 51  1  0
 30 52  1  0
 30 53  1  0
 30 54  1  0
M  CHG  2   3  -1   7  -1
M  END
>  <UniqueID>  (56) 
51

>  <SMILES>  (56) 
C=c1[n-]c(=Cc2[n-]c(=O)n(CC(=O)N3CCc4ccccc43)c2C)c(O)c1C(C)C

>  <Energy>  (56) 
132.8163313608171

>  <Genealogy>  (56) 
C=c1[n-]c(=Cc2[n-]c(=O)n(CC(=O)N3CCc4ccccc43)c2C)c(O)c1C(C)C (protonated)
C=c1[n-]c(=Cc2[n-]c(=O)n(CC(=O)N3CCc4ccccc43)c2C)c(O)c1C(C)C (3D coordinates assigned)
C=c1[n-]c(=Cc2[n-]c(=O)n(CC(=O)N3CCc4ccccc43)c2C)c(O)c1C(C)C (nonaromatic ring conformer: 132.8163313608171 kcal/mol)

>  <smiles>  (56) 
C=c1[nH]c(=Cc2[nH]c(=O)n(CC(=O)N3CCc4ccccc43)c2C)c(O)c1C(C)C

>  <score_type>  (56) 
oracle

>  <origin>  (56) 
adg

>  <m_score__min__energy>  (56) 
-13.48

>  <m_primary>  (56) 
energy

$$$$
56:0
     RDKit          3D

 67 71  0  0  1  0  0  0  0  0999 V2000
   55.7980   30.1450   43.7550 C   0  0  0  0  0  0  0  0  0  0  0  0
   57.4740   33.8760   45.3590 C   0  0  0  0  0  0  0  0  0  0  0  0
   56.1390   28.3030   45.1290 N   0  0  0  0  0  0  0  0  0  0  0  0
   57.1150   27.7140   45.8390 C   0  0  0  0  0  0  0  0  0  0  0  0
   56.9340   26.6110   46.5200 C   0  0  0  0  0  0  0  0  0  0  0  0
   56.6710   25.3030   45.9780 C   0  0  0  0  0  0  0  0  0  0  0  0
   55.3540   25.0010   45.5670 C   0  0  0  0  0  0  0  0  0  0  0  0
   54.4020   26.0010   45.6580 O   0  0  0  0  0  0  0  0  0  0  0  0
   55.0310   23.7870   45.1060 N   0  0  0  0  0  0  0  0  0  0  0  0
   56.6030   29.4160   44.5120 C   0  0  0  0  0  0  0  0  0  0  0  0
   55.5610   21.6870   44.5640 O   0  0  0  0  0  0  0  0  0  0  0  0
   57.1970   23.0660   45.3940 N   0  0  0  0  0  0  0  0  0  0  0  0
   55.9390   22.8000   45.0080 C   0  0  0  0  0  0  0  0  0  0  0  0
   58.7790   24.5050   46.2310 O   0  0  0  0  0  0  0  0  0  0  0  0
   58.2880   28.4660   45.6940 C   0  0  0  0  0  0  0  0  0  0  0  0
   59.5330   28.1560   46.3380 C   0  0  0  0  0  0  0  0  0  0  0  0
   60.4240   29.2500   46.8260 C   0  0  0  0  0  0  0  0  0  0  0  0
   59.9610   29.5340   48.2510 C   0  0  0  0  0  0  0  0  0  0  0  0
   60.4710   28.8630   49.3230 C   0  0  0  0  0  0  0  0  0  0  0  0
   60.0440   29.1400   50.5990 C   0  0  0  0  0  0  0  0  0  0  0  0
   59.0950   30.0920   50.8520 C   0  0  0  0  0  0  0  0  0  0  0  0
   58.5740   30.7750   49.7570 C   0  0  0  0  0  0  0  0  0  0  0  0
   58.9930   30.5100   48.4800 C   0  0  0  0  0  0  0  0  0  0  0  0
   57.9180   29.5430   44.8410 C   0  0  0  0  0  0  0  0  0  0  0  0
   58.8760   30.5490   44.4540 C   0  0  0  0  0  0  0  0  0  0  0  0
   58.6420   31.8700   45.0470 C   0  0  0  0  0  0  0  0  0  0  0  0
   57.5900   32.6790   44.7140 N   0  0  0  0  0  0  0  0  0  0  0  0
   57.5780   24.2740   45.8680 C   0  0  0  0  0  0  0  0  0  0  0  0
   56.4980   34.6850   45.0980 N   0  0  0  0  0  0  0  0  0  0  0  0
   58.3820   34.2440   46.2990 N   0  0  0  0  0  0  0  0  0  0  0  0
   59.4140   33.4480   46.6230 C   0  0  0  0  0  0  0  0  0  0  0  0
   60.3290   33.8930   47.6100 N   0  0  0  0  0  0  0  0  0  0  0  0
   59.9380   34.3880   48.9140 C   0  0  0  0  0  0  0  0  0  0  0  0
   60.5260   33.5010   50.0040 C   0  0  0  0  0  0  0  0  0  0  0  0
   61.6760   32.7840   49.5470 N   0  0  0  0  0  0  0  0  0  0  0  0
   62.4810   33.4910   48.6080 C   0  0  0  0  0  0  0  0  0  0  0  0
   61.7530   33.8390   47.3230 C   0  0  0  0  0  0  0  0  0  0  0  0
   59.5430   32.2650   45.9980 N   0  0  0  0  0  0  0  0  0  0  0  0
   56.1802   31.0479   43.2563 H   0  0  0  0  0  0  0  0  0  0  0  0
   54.7469   29.8478   43.6247 H   0  0  0  0  0  0  0  0  0  0  0  0
   55.1450   27.9180   45.0810 H   0  0  0  0  0  0  0  0  0  0  0  0
   56.9882   26.6911   47.6157 H   0  0  0  0  0  0  0  0  0  0  0  0
   53.7280   25.9670   46.4070 H   0  0  0  0  0  0  0  0  0  0  0  0
   54.0320   23.6500   44.8210 H   0  0  0  0  0  0  0  0  0  0  0  0
   57.8980   22.3030   45.3210 H   0  0  0  0  0  0  0  0  0  0  0  0
   59.2900   27.5334   47.2117 H   0  0  0  0  0  0  0  0  0  0  0  0
   60.1226   27.6967   45.5309 H   0  0  0  0  0  0  0  0  0  0  0  0
   61.4747   28.9243   46.8191 H   0  0  0  0  0  0  0  0  0  0  0  0
   60.3659   30.1442   46.1880 H   0  0  0  0  0  0  0  0  0  0  0  0
   61.2356   28.0884   49.1637 H   0  0  0  0  0  0  0  0  0  0  0  0
   60.4775   28.5804   51.4410 H   0  0  0  0  0  0  0  0  0  0  0  0
   58.7582   30.3084   51.8766 H   0  0  0  0  0  0  0  0  0  0  0  0
   57.8071   31.5464   49.9210 H   0  0  0  0  0  0  0  0  0  0  0  0
   58.5649   31.0682   47.6344 H   0  0  0  0  0  0  0  0  0  0  0  0
   59.8759   30.2072   44.7595 H   0  0  0  0  0  0  0  0  0  0  0  0
   58.7785   30.6724   43.3653 H   0  0  0  0  0  0  0  0  0  0  0  0
   55.8960   34.9730   45.8740 H   0  0  0  0  0  0  0  0  0  0  0  0
   60.3095   35.4156   49.0403 H   0  0  0  0  0  0  0  0  0  0  0  0
   58.8408   34.3767   48.9911 H   0  0  0  0  0  0  0  0  0  0  0  0
   60.8163   34.1316   50.8573 H   0  0  0  0  0  0  0  0  0  0  0  0
   59.7605   32.7667   50.2951 H   0  0  0  0  0  0  0  0  0  0  0  0
   61.5090   31.7780   49.3410 H   0  0  0  0  0  0  0  0  0  0  0  0
   62.8234   34.4250   49.0774 H   0  0  0  0  0  0  0  0  0  0  0  0
   63.3159   32.8284   48.3360 H   0  0  0  0  0  0  0  0  0  0  0  0
   62.0960   34.8166   46.9534 H   0  0  0  0  0  0  0  0  0  0  0  0
   61.9575   33.0812   46.5524 H   0  0  0  0  0  0  0  0  0  0  0  0
   60.3440   31.6670   46.2570 H   0  0  0  0  0  0  0  0  0  0  0  0
  1  2  2  0
  2  3  1  0
  3  4  1  0
  4  5  2  0
  5  6  1  0
  6  7  2  0
  7  8  1  0
  7  9  1  0
  9 10  1  0
 10 11  2  0
 10 12  1  0
 12 13  1  0
 13 14  2  0
  4 15  1  0
 15 16  1  0
 16 17  1  0
 17 18  1  0
 18 19  2  0
 19 20  1  0
 20 21  2  0
 21 22  1  0
 22 23  2  0
 15 24  2  0
 24 25  1  0
 25 26  1  0
 26 27  2  0
 27 28  1  0
 28 29  2  3
 28 30  1  0
 30 31  2  0
 31 32  1  0
 32 33  1  0
 33 34  1  0
 34 35  1  0
 35 36  1  0
 36 37  1  0
 31 38  1  0
 24  2  1  0
 38 26  1  0
 13  6  1  0
 23 18  1  0
 37 32  1  0
  1 39  1  0
  1 40  1  0
  3 41  1  0
  5 42  1  0
  8 43  1  0
  9 44  1  0
 12 45  1  0
 16 46  1  0
 16 47  1  0
 17 48  1  0
 17 49  1  0
 19 50  1  0
 20 51  1  0
 21 52  1  0
 22 53  1  0
 23 54  1  0
 25 55  1  0
 25 56  1  0
 29 57  1  0
 33 58  1  0
 33 59  1  0
 34 60  1  0
 34 61  1  0
 35 62  1  0
 36 63  1  0
 36 64  1  0
 37 65  1  0
 37 66  1  0
 38 67  1  0
M  END
>  <smiles>  (57) 
C=c1[nH]c(=Cc2c(O)[nH]c(=O)[nH]c2=O)c(CCc2ccccc2)c1Cc1nc(=N)nc(N2CCNCC2)[nH]1

>  <score_type>  (57) 
oracle

>  <origin>  (57) 
adg

>  <m_score__min__energy>  (57) 
-11.050000000000001

>  <m_primary>  (57) 
energy

$$$$
57:0
     RDKit          3D

 51 54  0  0  0  0  0  0  0  0999 V2000
   58.8421   30.1447   43.1579 H   0  0  0  0  0  0  0  0  0  0  0  0
   58.2100   29.4640   43.7470 C   0  0  0  0  0  0  0  0  0  0  0  0
   58.7140   28.2320   44.1680 C   0  0  0  0  0  0  0  0  0  0  0  0
   59.7407   27.9396   43.9027 H   0  0  0  0  0  0  0  0  0  0  0  0
   57.9170   27.3690   44.9260 C   0  0  0  0  0  0  0  0  0  0  0  0
   58.3170   26.3969   45.2501 H   0  0  0  0  0  0  0  0  0  0  0  0
   56.6050   27.7390   45.2760 C   0  0  0  0  0  0  0  0  0  0  0  0
   55.7430   26.8640   46.0190 N   0  0  0  0  0  0  0  0  0  0  0  0
   55.3310   25.5460   45.6320 C   0  0  0  0  0  0  0  0  0  0  0  0
   54.1080   25.2400   45.6150 O   0  0  0  0  0  0  0  0  0  0  0  0
   56.3540   24.5430   45.2530 C   0  0  0  0  0  0  0  0  0  0  0  0
   56.0880   23.7160   44.1470 C   0  0  0  0  0  0  0  0  0  0  0  0
   55.1079   23.7710   43.6506 H   0  0  0  0  0  0  0  0  0  0  0  0
   57.0520   22.8270   43.6720 C   0  0  0  0  0  0  0  0  0  0  0  0
   56.8284   22.1838   42.8081 H   0  0  0  0  0  0  0  0  0  0  0  0
   58.2980   22.7530   44.2910 C   0  0  0  0  0  0  0  0  0  0  0  0
   59.0633   22.0645   43.9034 H   0  0  0  0  0  0  0  0  0  0  0  0
   58.5770   23.5500   45.4010 C   0  0  0  0  0  0  0  0  0  0  0  0
   59.5639   23.4848   45.8823 H   0  0  0  0  0  0  0  0  0  0  0  0
   57.6110   24.4370   45.9130 C   0  0  0  0  0  0  0  0  0  0  0  0
   57.9280   25.1680   47.1610 C   0  0  0  0  0  0  0  0  0  0  0  0
   57.1040   25.1750   48.1160 O   0  0  0  0  0  0  0  0  0  0  0  0
   59.1760   25.8660   47.2770 N   0  0  0  0  0  0  0  0  0  0  0  0
   59.4150   27.0800   48.0050 C   0  0  0  0  0  0  0  0  0  0  0  0
   58.6300   28.2030   47.7140 C   0  0  0  0  0  0  0  0  0  0  0  0
   57.8426   28.1347   46.9489 H   0  0  0  0  0  0  0  0  0  0  0  0
   58.8390   29.4100   48.3880 C   0  0  0  0  0  0  0  0  0  0  0  0
   58.2116   30.2835   48.1570 H   0  0  0  0  0  0  0  0  0  0  0  0
   59.8460   29.5090   49.3570 C   0  0  0  0  0  0  0  0  0  0  0  0
   60.1170   31.0210   50.2150 S   0  0  0  0  0  0  0  0  0  0  0  0
   60.8160   31.9890   49.3020 O   0  0  0  0  0  0  0  0  0  0  0  0
   60.9650   30.7520   51.4270 O   0  0  0  0  0  0  0  0  0  0  0  0
   58.5950   31.6890   50.7210 N   0  0  0  0  0  0  0  0  0  0  0  0
   57.6560   31.0090   51.3050 C   0  0  0  0  0  0  0  0  0  0  0  0
   57.6630   29.6660   51.3710 N   0  0  0  0  0  0  0  0  0  0  0  0
   56.5890   29.3250   52.0230 O   0  0  0  0  0  0  0  0  0  0  0  0
   55.8940   30.3810   52.3780 C   0  0  0  0  0  0  0  0  0  0  0  0
   54.6150   30.3350   53.1420 C   0  0  0  0  0  0  0  0  0  0  0  0
   54.8316   30.3428   54.2204 H   0  0  0  0  0  0  0  0  0  0  0  0
   54.0025   31.2117   52.8847 H   0  0  0  0  0  0  0  0  0  0  0  0
   54.0670   29.4166   52.8847 H   0  0  0  0  0  0  0  0  0  0  0  0
   56.5350   31.5170   51.9360 C   0  0  0  0  0  0  0  0  0  0  0  0
   56.2309   32.5674   52.0552 H   0  0  0  0  0  0  0  0  0  0  0  0
   60.6570   28.3990   49.6270 C   0  0  0  0  0  0  0  0  0  0  0  0
   61.4615   28.4769   50.3732 H   0  0  0  0  0  0  0  0  0  0  0  0
   60.4480   27.1930   48.9520 C   0  0  0  0  0  0  0  0  0  0  0  0
   61.0946   26.3284   49.1627 H   0  0  0  0  0  0  0  0  0  0  0  0
   56.1000   28.9720   44.8310 C   0  0  0  0  0  0  0  0  0  0  0  0
   54.7970   29.3480   45.1440 O   0  0  0  0  0  0  0  0  0  0  0  0
   56.9030   29.8320   44.0740 C   0  0  0  0  0  0  0  0  0  0  0  0
   56.5042   30.7998   43.7358 H   0  0  0  0  0  0  0  0  0  0  0  0
  1  2  1  0
  2  3  2  0
  3  4  1  0
  3  5  1  0
  5  6  1  0
  5  7  2  0
  7  8  1  0
  8  9  1  0
  9 10  2  0
  9 11  1  0
 11 12  2  0
 12 13  1  0
 12 14  1  0
 14 15  1  0
 14 16  2  0
 16 17  1  0
 16 18  1  0
 18 19  1  0
 18 20  2  0
 20 21  1  0
 21 22  2  0
 21 23  1  0
 23 24  1  0
 24 25  2  0
 25 26  1  0
 25 27  1  0
 27 28  1  0
 27 29  2  0
 29 30  1  0
 30 31  2  0
 30 32  2  0
 30 33  1  0
 33 34  2  0
 34 35  1  0
 35 36  1  0
 36 37  1  0
 37 38  1  0
 38 39  1  0
 38 40  1  0
 38 41  1  0
 37 42  2  0
 42 43  1  0
 29 44  1  0
 44 45  1  0
 44 46  2  0
 46 47  1  0
  7 48  1  0
 48 49  1  0
 48 50  2  0
 50 51  1  0
 50  2  1  0
 20 11  1  0
 46 24  1  0
 42 34  1  0
M  CHG  4   8  -1  23  -1  35  -1  49  -1
M  END
>  <UniqueID>  (58) 
52

>  <SMILES>  (58) 
Cc1c/c(=N\S(=O)(=O)c2ccc([N-]C(=O)c3ccccc3C(=O)[N-]c3ccccc3[O-])cc2)[n-]o1

>  <Energy>  (58) 
106.63928672622535

>  <Genealogy>  (58) 
Cc1cc(=NS(=O)(=O)c2ccc([N-]C(=O)c3ccccc3C(=O)[N-]c3ccccc3[O-])cc2)[n-]o1 (protonated)
Cc1c/c(=N\S(=O)(=O)c2ccc([N-]C(=O)c3ccccc3C(=O)[N-]c3ccccc3[O-])cc2)[n-]o1 (cis-trans isomerization)
Cc1c/c(=N\S(=O)(=O)c2ccc([N-]C(=O)c3ccccc3C(=O)[N-]c3ccccc3[O-])cc2)[n-]o1 (3D coordinates assigned)
Cc1c/c(=N\S(=O)(=O)c2ccc([N-]C(=O)c3ccccc3C(=O)[N-]c3ccccc3[O-])cc2)[n-]o1 (optimized conformer: 106.63928672622535 kcal/mol)

>  <smiles>  (58) 
Cc1cc(=NS(=O)(=O)c2ccc(NC(=O)c3ccccc3C(=O)Nc3ccccc3O)cc2)[nH]o1

>  <score_type>  (58) 
oracle

>  <origin>  (58) 
adg

>  <m_score__min__energy>  (58) 
-17.16

>  <m_primary>  (58) 
energy

$$$$
58:0
     RDKit          3D

 54 56  0  0  0  0  0  0  0  0999 V2000
   54.3050   26.7340   46.7540 H   0  0  0  0  0  0  0  0  0  0  0  0
   55.0200   26.4410   46.1020 O   0  0  0  0  0  0  0  0  0  0  0  0
   56.0070   25.5240   46.4580 C   0  0  0  0  0  0  0  0  0  0  0  0
   55.7690   24.2130   46.6260 N   0  0  0  0  0  0  0  0  0  0  0  0
   56.9730   23.7380   47.0160 C   0  0  0  0  0  0  0  0  0  0  0  0
   57.1690   22.5250   47.2820 O   0  0  0  0  0  0  0  0  0  0  0  0
   57.9480   24.6680   47.1070 N   0  0  0  0  0  0  0  0  0  0  0  0
   57.3340   25.8020   46.7270 C   0  0  0  0  0  0  0  0  0  0  0  0
   57.9950   27.1190   46.7240 C   0  0  0  0  0  0  0  0  0  0  0  0
   58.5797   27.3853   47.6169 H   0  0  0  0  0  0  0  0  0  0  0  0
   57.9500   28.0350   45.7220 C   0  0  0  0  0  0  0  0  0  0  0  0
   58.0980   29.3910   46.0930 C   0  0  0  0  0  0  0  0  0  0  0  0
   58.3943   29.6360   47.1236 H   0  0  0  0  0  0  0  0  0  0  0  0
   57.8760   30.4330   45.1780 C   0  0  0  0  0  0  0  0  0  0  0  0
   57.9530   31.8190   45.5660 N   0  0  0  0  0  0  0  0  0  0  0  0
   58.5500   32.0620   46.3870 H   0  0  0  0  0  0  0  0  0  0  0  0
   57.2650   32.8980   44.8500 C   0  0  0  0  0  0  0  0  0  0  0  0
   57.4317   32.7724   43.7700 H   0  0  0  0  0  0  0  0  0  0  0  0
   56.1934   32.8420   45.0920 H   0  0  0  0  0  0  0  0  0  0  0  0
   57.7810   34.2800   45.2760 C   0  0  0  0  0  0  0  0  0  0  0  0
   58.6175   34.5645   44.6207 H   0  0  0  0  0  0  0  0  0  0  0  0
   56.9492   34.9949   45.1913 H   0  0  0  0  0  0  0  0  0  0  0  0
   58.2710   34.2870   46.7440 C   0  0  0  0  0  0  0  0  0  0  0  0
   58.4304   35.3311   47.0512 H   0  0  0  0  0  0  0  0  0  0  0  0
   57.4962   33.7850   47.3421 H   0  0  0  0  0  0  0  0  0  0  0  0
   59.5300   33.5410   46.9580 N   0  0  0  0  0  0  0  0  0  0  0  0
   59.9570   33.5080   48.3690 C   0  0  0  0  0  0  0  0  0  0  0  0
   60.2851   34.5131   48.6726 H   0  0  0  0  0  0  0  0  0  0  0  0
   59.1102   33.1843   48.9920 H   0  0  0  0  0  0  0  0  0  0  0  0
   61.1210   32.5170   48.5510 C   0  0  0  0  0  0  0  0  0  0  0  0
   61.6652   32.7782   49.4706 H   0  0  0  0  0  0  0  0  0  0  0  0
   60.6913   31.5059   48.6062 H   0  0  0  0  0  0  0  0  0  0  0  0
   62.0730   32.5380   47.4140 N   0  0  0  0  0  0  0  0  0  0  0  0
   63.4510   32.1490   47.7960 C   0  0  0  0  0  0  0  0  0  0  0  0
   63.4056   31.1793   48.3133 H   0  0  0  0  0  0  0  0  0  0  0  0
   64.0384   32.1071   46.8669 H   0  0  0  0  0  0  0  0  0  0  0  0
   64.1530   33.1570   48.7200 C   0  0  0  0  0  0  0  0  0  0  0  0
   63.9642   32.8859   49.7692 H   0  0  0  0  0  0  0  0  0  0  0  0
   65.2356   33.1400   48.5260 H   0  0  0  0  0  0  0  0  0  0  0  0
   63.7616   34.1665   48.5260 H   0  0  0  0  0  0  0  0  0  0  0  0
   62.0110   33.7740   46.6110 C   0  0  0  0  0  0  0  0  0  0  0  0
   62.2305   34.6392   47.2538 H   0  0  0  0  0  0  0  0  0  0  0  0
   62.7521   33.7195   45.7999 H   0  0  0  0  0  0  0  0  0  0  0  0
   60.6040   33.9290   46.0070 C   0  0  0  0  0  0  0  0  0  0  0  0
   60.4575   34.9806   45.7195 H   0  0  0  0  0  0  0  0  0  0  0  0
   60.5382   33.2588   45.1373 H   0  0  0  0  0  0  0  0  0  0  0  0
   57.5300   30.1150   43.8620 C   0  0  0  0  0  0  0  0  0  0  0  0
   57.3074   30.9215   43.1479 H   0  0  0  0  0  0  0  0  0  0  0  0
   57.4640   28.7880   43.4450 C   0  0  0  0  0  0  0  0  0  0  0  0
   57.2015   28.5621   42.4009 H   0  0  0  0  0  0  0  0  0  0  0  0
   57.7270   27.7320   44.3350 C   0  0  0  0  0  0  0  0  0  0  0  0
   57.8600   26.5010   43.8070 C   0  0  0  0  0  0  0  0  0  0  0  0
   58.0663   25.6412   44.4614 H   0  0  0  0  0  0  0  0  0  0  0  0
   57.7623   26.3548   42.7211 H   0  0  0  0  0  0  0  0  0  0  0  0
  1  2  1  0
  2  3  1  0
  3  4  1  0
  4  5  1  0
  5  6  2  0
  5  7  1  0
  7  8  1  0
  8  9  1  0
  9 10  1  0
  9 11  2  0
 11 12  1  0
 12 13  1  0
 12 14  2  0
 14 15  1  0
 15 16  1  0
 15 17  1  0
 17 18  1  0
 17 19  1  0
 17 20  1  0
 20 21  1  0
 20 22  1  0
 20 23  1  0
 23 24  1  0
 23 25  1  0
 23 26  1  0
 26 27  1  0
 27 28  1  0
 27 29  1  0
 27 30  1  0
 30 31  1  0
 30 32  1  0
 30 33  1  0
 33 34  1  0
 34 35  1  0
 34 36  1  0
 34 37  1  0
 37 38  1  0
 37 39  1  0
 37 40  1  0
 33 41  1  0
 41 42  1  0
 41 43  1  0
 41 44  1  0
 44 45  1  0
 44 46  1  0
 14 47  1  0
 47 48  1  0
 47 49  2  0
 49 50  1  0
 49 51  1  0
 51 52  2  0
 52 53  1  0
 52 54  1  0
  8  3  2  0
 51 11  1  0
 44 26  1  0
M  CHG  2   4  -1   7  -1
M  END
>  <UniqueID>  (59) 
53

>  <SMILES>  (59) 
C=c1ccc(NCCCN2CCN(CC)CC2)c/c1=C/c1[n-]c(=O)[n-]c1O

>  <Energy>  (59) 
116.15528453714525

>  <Genealogy>  (59) 
C=c1ccc(NCCCN2CCN(CC)CC2)cc1=Cc1[n-]c(=O)[n-]c1O (protonated)
C=c1ccc(NCCCN2CCN(CC)CC2)c/c1=C/c1[n-]c(=O)[n-]c1O (cis-trans isomerization)
C=c1ccc(NCCCN2CCN(CC)CC2)c/c1=C/c1[n-]c(=O)[n-]c1O (3D coordinates assigned)
C=c1ccc(NCCCN2CCN(CC)CC2)c/c1=C/c1[n-]c(=O)[n-]c1O (nonaromatic ring conformer: 116.15528453714525 kcal/mol)

>  <smiles>  (59) 
C=c1ccc(NCCCN2CCN(CC)CC2)cc1=Cc1[nH]c(=O)[nH]c1O

>  <score_type>  (59) 
oracle

>  <origin>  (59) 
adg

>  <m_score__min__energy>  (59) 
-13.67

>  <m_primary>  (59) 
energy

$$$$
59:0
     RDKit          3D

 46 49  0  0  0  0  0  0  0  0999 V2000
   55.9290   28.2430   45.2470 O   0  0  0  0  0  0  0  0  0  0  0  0
   57.0090   28.8010   44.9210 C   0  0  0  0  0  0  0  0  0  0  0  0
   57.0800   29.4910   43.6650 N   0  0  0  0  0  0  0  0  0  0  0  0
   56.5780   30.8400   43.4110 C   0  0  0  0  0  0  0  0  0  0  0  0
   57.4070   31.8600   44.1430 C   0  0  0  0  0  0  0  0  0  0  0  0
   57.4040   31.8920   45.5450 C   0  0  0  0  0  0  0  0  0  0  0  0
   58.1410   32.8610   46.2330 C   0  0  0  0  0  0  0  0  0  0  0  0
   58.8960   33.8110   45.5290 C   0  0  0  0  0  0  0  0  0  0  0  0
   59.6550   34.8540   46.2520 C   0  0  0  0  0  0  0  0  0  0  0  0
   59.7450   36.0110   45.7580 O   0  0  0  0  0  0  0  0  0  0  0  0
   60.3090   34.5640   47.4970 N   0  0  0  0  0  0  0  0  0  0  0  0
   59.6190   34.5360   48.7910 C   0  0  0  0  0  0  0  0  0  0  0  0
   60.5630   33.7980   49.7700 C   0  0  0  0  0  0  0  0  0  0  0  0
   61.7300   33.4420   48.9200 C   0  0  0  0  0  0  0  0  0  0  0  0
   62.8980   32.7760   49.2970 C   0  0  0  0  0  0  0  0  0  0  0  0
   63.8950   32.5720   48.3300 C   0  0  0  0  0  0  0  0  0  0  0  0
   63.7130   33.0390   47.0140 C   0  0  0  0  0  0  0  0  0  0  0  0
   62.5310   33.7080   46.6590 C   0  0  0  0  0  0  0  0  0  0  0  0
   61.5470   33.8850   47.6380 C   0  0  0  0  0  0  0  0  0  0  0  0
   58.8910   33.7840   44.1240 C   0  0  0  0  0  0  0  0  0  0  0  0
   58.1600   32.8110   43.4370 C   0  0  0  0  0  0  0  0  0  0  0  0
   58.1690   28.6970   45.8230 C   0  0  0  0  0  0  0  0  0  0  0  0
   59.3490   29.4010   45.5310 C   0  0  0  0  0  0  0  0  0  0  0  0
   60.4480   29.3200   46.3930 C   0  0  0  0  0  0  0  0  0  0  0  0
   60.3810   28.5230   47.5390 C   0  0  0  0  0  0  0  0  0  0  0  0
   59.2170   27.8040   47.8240 C   0  0  0  0  0  0  0  0  0  0  0  0
   58.1150   27.8850   46.9670 C   0  0  0  0  0  0  0  0  0  0  0  0
   56.6230   31.0451   42.3312 H   0  0  0  0  0  0  0  0  0  0  0  0
   55.5395   30.9050   43.7677 H   0  0  0  0  0  0  0  0  0  0  0  0
   56.8181   31.1500   46.1072 H   0  0  0  0  0  0  0  0  0  0  0  0
   58.1287   32.8785   47.3328 H   0  0  0  0  0  0  0  0  0  0  0  0
   59.4294   35.5605   49.1439 H   0  0  0  0  0  0  0  0  0  0  0  0
   58.6459   34.0287   48.7146 H   0  0  0  0  0  0  0  0  0  0  0  0
   60.8650   34.4567   50.5976 H   0  0  0  0  0  0  0  0  0  0  0  0
   60.0930   32.9231   50.2428 H   0  0  0  0  0  0  0  0  0  0  0  0
   63.0338   32.4192   50.3286 H   0  0  0  0  0  0  0  0  0  0  0  0
   64.8219   32.0454   48.6013 H   0  0  0  0  0  0  0  0  0  0  0  0
   64.4995   32.8791   46.2618 H   0  0  0  0  0  0  0  0  0  0  0  0
   62.3820   34.0840   45.6360 H   0  0  0  0  0  0  0  0  0  0  0  0
   59.4663   34.5338   43.5612 H   0  0  0  0  0  0  0  0  0  0  0  0
   58.1749   32.7904   42.3373 H   0  0  0  0  0  0  0  0  0  0  0  0
   59.4091   30.0177   44.6221 H   0  0  0  0  0  0  0  0  0  0  0  0
   61.3654   29.8840   46.1686 H   0  0  0  0  0  0  0  0  0  0  0  0
   61.2449   28.4616   48.2171 H   0  0  0  0  0  0  0  0  0  0  0  0
   59.1676   27.1733   48.7239 H   0  0  0  0  0  0  0  0  0  0  0  0
   57.2035   27.3110   47.1898 H   0  0  0  0  0  0  0  0  0  0  0  0
  1  2  2  0
  2  3  1  0
  3  4  1  0
  4  5  1  0
  5  6  2  0
  6  7  1  0
  7  8  2  0
  8  9  1  0
  9 10  2  0
  9 11  1  0
 11 12  1  0
 12 13  1  0
 13 14  1  0
 14 15  2  0
 15 16  1  0
 16 17  2  0
 17 18  1  0
 18 19  2  0
  8 20  1  0
 20 21  2  0
  2 22  1  0
 22 23  2  0
 23 24  1  0
 24 25  2  0
 25 26  1  0
 26 27  2  0
 21  5  1  0
 27 22  1  0
 19 11  1  0
 19 14  1  0
  4 28  1  0
  4 29  1  0
  6 30  1  0
  7 31  1  0
 12 32  1  0
 12 33  1  0
 13 34  1  0
 13 35  1  0
 15 36  1  0
 16 37  1  0
 17 38  1  0
 18 39  1  0
 20 40  1  0
 21 41  1  0
 23 42  1  0
 24 43  1  0
 25 44  1  0
 26 45  1  0
 27 46  1  0
M  CHG  1   3  -1
M  END
>  <UniqueID>  (60) 
54

>  <SMILES>  (60) 
O=C([N-]Cc1ccc(C(=O)N2CCc3ccccc32)cc1)c1ccccc1

>  <Energy>  (60) 
72.65929321507284

>  <Genealogy>  (60) 
O=C([N-]Cc1ccc(C(=O)N2CCc3ccccc32)cc1)c1ccccc1 (protonated)
O=C([N-]Cc1ccc(C(=O)N2CCc3ccccc32)cc1)c1ccccc1 (3D coordinates assigned)
O=C([N-]Cc1ccc(C(=O)N2CCc3ccccc32)cc1)c1ccccc1 (nonaromatic ring conformer: 72.65929321507284 kcal/mol)

>  <smiles>  (60) 
O=C(NCc1ccc(C(=O)N2CCc3ccccc32)cc1)c1ccccc1

>  <score_type>  (60) 
oracle

>  <origin>  (60) 
adg

>  <m_score__min__energy>  (60) 
-11.779999999999999

>  <m_primary>  (60) 
energy

$$$$
60:0
     RDKit          3D

 49 51  0  0  0  0  0  0  0  0999 V2000
   61.6679   28.2502   44.6310 H   0  0  0  0  0  0  0  0  0  0  0  0
   60.7450   28.8480   44.6590 C   0  0  0  0  0  0  0  0  0  0  0  0
   60.8010   29.9415   44.7646 H   0  0  0  0  0  0  0  0  0  0  0  0
   59.5600   28.2480   44.5650 C   0  0  0  0  0  0  0  0  0  0  0  0
   59.5369   27.1532   44.4603 H   0  0  0  0  0  0  0  0  0  0  0  0
   58.2740   28.9760   44.5940 C   0  0  0  0  0  0  0  0  0  0  0  0
   58.3060   30.3200   44.3880 N   0  0  0  0  0  0  0  0  0  0  0  0
   57.1780   31.0730   44.4010 C   0  0  0  0  0  0  0  0  0  0  0  0
   57.2640   32.3520   44.1930 N   0  0  0  0  0  0  0  0  0  0  0  0
   57.6580   33.5050   45.4270 S   0  0  0  0  0  0  0  0  0  0  0  0
   57.6630   34.8920   44.8460 O   0  0  0  0  0  0  0  0  0  0  0  0
   56.6440   33.4370   46.5340 O   0  0  0  0  0  0  0  0  0  0  0  0
   59.2510   33.1260   46.0710 C   0  0  0  0  0  0  0  0  0  0  0  0
   60.2800   34.0750   46.0030 C   0  0  0  0  0  0  0  0  0  0  0  0
   60.0931   35.0529   45.5354 H   0  0  0  0  0  0  0  0  0  0  0  0
   61.5430   33.7840   46.5270 C   0  0  0  0  0  0  0  0  0  0  0  0
   62.3502   34.5279   46.4563 H   0  0  0  0  0  0  0  0  0  0  0  0
   61.7850   32.5460   47.1430 C   0  0  0  0  0  0  0  0  0  0  0  0
   63.1510   32.2200   47.6720 C   0  0  0  0  0  0  0  0  0  0  0  0
   63.1292   32.2252   48.7718 H   0  0  0  0  0  0  0  0  0  0  0  0
   63.4541   31.2243   47.3160 H   0  0  0  0  0  0  0  0  0  0  0  0
   63.8710   32.9715   47.3160 H   0  0  0  0  0  0  0  0  0  0  0  0
   60.7570   31.5930   47.2000 C   0  0  0  0  0  0  0  0  0  0  0  0
   60.9455   30.6113   47.6591 H   0  0  0  0  0  0  0  0  0  0  0  0
   59.4940   31.8850   46.6760 C   0  0  0  0  0  0  0  0  0  0  0  0
   58.6885   31.1385   46.7387 H   0  0  0  0  0  0  0  0  0  0  0  0
   55.9760   30.4800   44.6240 N   0  0  0  0  0  0  0  0  0  0  0  0
   55.8850   29.1470   44.8600 C   0  0  0  0  0  0  0  0  0  0  0  0
   54.9010   28.6869   45.0331 H   0  0  0  0  0  0  0  0  0  0  0  0
   57.0410   28.3540   44.8840 C   0  0  0  0  0  0  0  0  0  0  0  0
   56.9780   26.9520   45.1890 N   0  0  0  0  0  0  0  0  0  0  0  0
   56.0220   26.3260   46.0480 C   0  0  0  0  0  0  0  0  0  0  0  0
   54.8050   26.3480   45.7250 O   0  0  0  0  0  0  0  0  0  0  0  0
   56.4430   25.6440   47.1960 O   0  0  0  0  0  0  0  0  0  0  0  0
   57.7940   25.2550   47.4430 C   0  0  0  0  0  0  0  0  0  0  0  0
   57.8974   24.9564   48.4966 H   0  0  0  0  0  0  0  0  0  0  0  0
   58.0470   24.4127   46.7823 H   0  0  0  0  0  0  0  0  0  0  0  0
   58.7520   26.4170   47.1520 C   0  0  2  0  0  0  0  0  0  0  0  0
   58.7167   26.5858   46.0656 H   0  0  0  0  0  0  0  0  0  0  0  0
   60.0540   26.0810   47.5740 O   0  0  0  0  0  0  0  0  0  0  0  0
   60.6440   27.2490   48.1040 C   0  0  0  0  0  0  0  0  0  0  0  0
   61.5431   27.5008   47.5224 H   0  0  0  0  0  0  0  0  0  0  0  0
   60.9206   27.0732   49.1540 H   0  0  0  0  0  0  0  0  0  0  0  0
   59.6570   28.3990   48.0300 C   0  0  0  0  0  0  0  0  0  0  0  0
   59.8816   29.0581   47.1784 H   0  0  0  0  0  0  0  0  0  0  0  0
   59.6810   29.0475   48.9182 H   0  0  0  0  0  0  0  0  0  0  0  0
   58.3440   27.7070   47.8420 C   0  0  0  0  0  0  0  0  0  0  0  0
   57.6682   28.3006   47.2088 H   0  0  0  0  0  0  0  0  0  0  0  0
   57.7921   27.5484   48.7802 H   0  0  0  0  0  0  0  0  0  0  0  0
  1  2  1  0
  2  3  1  0
  2  4  2  0
  4  5  1  0
  4  6  1  0
  6  7  1  0
  7  8  1  0
  8  9  2  0
  9 10  1  0
 10 11  2  0
 10 12  2  0
 10 13  1  0
 13 14  2  0
 14 15  1  0
 14 16  1  0
 16 17  1  0
 16 18  2  0
 18 19  1  0
 19 20  1  0
 19 21  1  0
 19 22  1  0
 18 23  1  0
 23 24  1  0
 23 25  2  0
 25 26  1  0
  8 27  1  0
 27 28  2  0
 28 29  1  0
 28 30  1  0
 30 31  1  0
 31 32  1  0
 32 33  2  0
 32 34  1  0
 34 35  1  0
 35 36  1  0
 35 37  1  0
 35 38  1  0
 38 39  1  6
 38 40  1  0
 40 41  1  0
 41 42  1  0
 41 43  1  0
 41 44  1  0
 44 45  1  0
 44 46  1  0
 44 47  1  0
 47 48  1  0
 47 49  1  0
 30  6  2  0
 47 38  1  0
 25 13  1  0
M  CHG  2   7  -1  31  -1
M  END
>  <UniqueID>  (61) 
55

>  <SMILES>  (61) 
C=Cc1[n-]/c(=N/S(=O)(=O)c2ccc(C)cc2)ncc1[N-]C(=O)OC[C@H]1CCCO1

>  <Energy>  (61) 
58.35538420932474

>  <Genealogy>  (61) 
C=Cc1[n-]c(=NS(=O)(=O)c2ccc(C)cc2)ncc1[N-]C(=O)OCC1CCCO1 (protonated)
C=Cc1[n-]c(=NS(=O)(=O)c2ccc(C)cc2)ncc1[N-]C(=O)OC[C@H]1CCCO1 (chirality)
C=Cc1[n-]/c(=N/S(=O)(=O)c2ccc(C)cc2)ncc1[N-]C(=O)OC[C@H]1CCCO1 (cis-trans isomerization)
C=Cc1[n-]/c(=N/S(=O)(=O)c2ccc(C)cc2)ncc1[N-]C(=O)OC[C@H]1CCCO1 (3D coordinates assigned)
C=Cc1[n-]/c(=N/S(=O)(=O)c2ccc(C)cc2)ncc1[N-]C(=O)OC[C@H]1CCCO1 (nonaromatic ring conformer: 58.35538420932474 kcal/mol)

>  <smiles>  (61) 
C=Cc1[nH]c(=NS(=O)(=O)c2ccc(C)cc2)ncc1NC(=O)OCC1CCCO1

>  <score_type>  (61) 
oracle

>  <origin>  (61) 
adg

>  <m_score__min__energy>  (61) 
-12.09

>  <m_primary>  (61) 
energy

$$$$
61:0
     RDKit          3D

 40 42  0  0  0  0  0  0  0  0999 V2000
   58.8720   28.1780   44.3200 O   0  0  0  0  0  0  0  0  0  0  0  0
   57.8080   28.1530   44.9960 C   0  0  0  0  0  0  0  0  0  0  0  0
   57.1720   29.3890   45.3780 N   0  0  0  0  0  0  0  0  0  0  0  0
   57.6150   30.6850   44.9420 C   0  0  0  0  0  0  0  0  0  0  0  0
   57.3920   31.1330   43.6280 C   0  0  0  0  0  0  0  0  0  0  0  0
   57.8120   32.4080   43.2380 C   0  0  0  0  0  0  0  0  0  0  0  0
   58.4400   33.2520   44.1560 C   0  0  0  0  0  0  0  0  0  0  0  0
   58.6380   32.8320   45.4800 C   0  0  0  0  0  0  0  0  0  0  0  0
   59.4250   33.9030   46.6450 S   0  0  0  0  0  0  0  0  0  0  0  0
   58.5220   34.0790   47.8340 O   0  0  0  0  0  0  0  0  0  0  0  0
   59.6270   35.2510   46.0120 O   0  0  0  0  0  0  0  0  0  0  0  0
   60.9700   33.2950   47.1910 N   0  0  0  0  0  0  0  0  0  0  0  0
   61.2800   33.7260   48.5530 C   0  0  0  0  0  0  0  0  0  0  0  0
   62.7960   33.7020   48.6740 C   0  0  0  0  0  0  0  0  0  0  0  0
   63.3150   33.7420   47.2440 C   0  0  0  0  0  0  0  0  0  0  0  0
   62.0740   33.7810   46.3660 C   0  0  0  0  0  0  0  0  0  0  0  0
   58.2240   31.5490   45.8650 C   0  0  0  0  0  0  0  0  0  0  0  0
   57.2390   26.8410   45.3890 C   0  0  0  0  0  0  0  0  0  0  0  0
   55.9750   26.7330   45.9940 C   0  0  0  0  0  0  0  0  0  0  0  0
   55.4870   25.5130   46.3490 N   0  0  0  0  0  0  0  0  0  0  0  0
   56.1880   24.3690   46.1400 C   0  0  0  0  0  0  0  0  0  0  0  0
   55.6900   23.2630   46.4830 O   0  0  0  0  0  0  0  0  0  0  0  0
   57.4570   24.4250   45.5530 C   0  0  0  0  0  0  0  0  0  0  0  0
   58.3940   22.9640   45.2740 Cl  0  0  0  0  0  0  0  0  0  0  0  0
   57.9820   25.6660   45.1840 C   0  0  0  0  0  0  0  0  0  0  0  0
   56.3720   29.3660   46.0490 H   0  0  0  0  0  0  0  0  0  0  0  0
   56.8852   30.4778   42.9042 H   0  0  0  0  0  0  0  0  0  0  0  0
   57.6472   32.7474   42.2047 H   0  0  0  0  0  0  0  0  0  0  0  0
   58.7805   34.2492   43.8403 H   0  0  0  0  0  0  0  0  0  0  0  0
   60.9002   34.7437   48.7261 H   0  0  0  0  0  0  0  0  0  0  0  0
   60.8091   33.0673   49.2976 H   0  0  0  0  0  0  0  0  0  0  0  0
   63.1513   34.5776   49.2372 H   0  0  0  0  0  0  0  0  0  0  0  0
   63.1498   32.8109   49.2133 H   0  0  0  0  0  0  0  0  0  0  0  0
   63.9294   34.6400   47.0824 H   0  0  0  0  0  0  0  0  0  0  0  0
   63.9515   32.8746   47.0150 H   0  0  0  0  0  0  0  0  0  0  0  0
   61.8757   34.8105   46.0330 H   0  0  0  0  0  0  0  0  0  0  0  0
   62.2023   33.1615   45.4661 H   0  0  0  0  0  0  0  0  0  0  0  0
   58.3782   31.2160   46.9020 H   0  0  0  0  0  0  0  0  0  0  0  0
   55.3780   27.6377   46.1813 H   0  0  0  0  0  0  0  0  0  0  0  0
   58.9825   25.7236   44.7305 H   0  0  0  0  0  0  0  0  0  0  0  0
  1  2  2  0
  2  3  1  0
  3  4  1  0
  4  5  2  0
  5  6  1  0
  6  7  2  0
  7  8  1  0
  8  9  1  0
  9 10  2  0
  9 11  2  0
  9 12  1  0
 12 13  1  0
 13 14  1  0
 14 15  1  0
 15 16  1  0
  8 17  2  0
  2 18  1  0
 18 19  2  0
 19 20  1  0
 20 21  1  0
 21 22  2  0
 21 23  1  0
 23 24  1  0
 23 25  2  0
 17  4  1  0
 25 18  1  0
 16 12  1  0
  3 26  1  0
  5 27  1  0
  6 28  1  0
  7 29  1  0
 13 30  1  0
 13 31  1  0
 14 32  1  0
 14 33  1  0
 15 34  1  0
 15 35  1  0
 16 36  1  0
 16 37  1  0
 17 38  1  0
 19 39  1  0
 25 40  1  0
M  CHG  1  20  -1
M  END
>  <UniqueID>  (62) 
56

>  <SMILES>  (62) 
O=C(Nc1cccc(S(=O)(=O)N2CCCC2)c1)c1c[n-]c(=O)c(Cl)c1

>  <Energy>  (62) 
50.77654078361797

>  <Genealogy>  (62) 
O=C(Nc1cccc(S(=O)(=O)N2CCCC2)c1)c1c[n-]c(=O)c(Cl)c1 (protonated)
O=C(Nc1cccc(S(=O)(=O)N2CCCC2)c1)c1c[n-]c(=O)c(Cl)c1 (3D coordinates assigned)
O=C(Nc1cccc(S(=O)(=O)N2CCCC2)c1)c1c[n-]c(=O)c(Cl)c1 (nonaromatic ring conformer: 50.77654078361797 kcal/mol)

>  <smiles>  (62) 
O=C(Nc1cccc(S(=O)(=O)N2CCCC2)c1)c1c[nH]c(=O)c(Cl)c1

>  <score_type>  (62) 
oracle

>  <origin>  (62) 
adg

>  <m_score__min__energy>  (62) 
-10.48

>  <m_primary>  (62) 
energy

$$$$
62:0
     RDKit          3D

 54 57  0  0  0  0  0  0  0  0999 V2000
   55.1420   26.7020   45.9640 N   0  0  0  0  0  0  0  0  0  0  0  0
   55.9460   25.5300   46.0680 C   0  0  0  0  0  0  0  0  0  0  0  0
   55.5310   24.5410   46.7310 O   0  0  0  0  0  0  0  0  0  0  0  0
   57.2940   25.4900   45.4240 C   0  0  0  0  0  0  0  0  0  0  0  0
   58.1270   26.5750   45.9410 N   0  0  0  0  0  0  0  0  0  0  0  0
   59.0690   26.4620   46.9080 C   0  0  0  0  0  0  0  0  0  0  0  0
   59.7020   27.6840   47.1090 C   0  0  0  0  0  0  0  0  0  0  0  0
   60.7490   27.9910   48.1370 C   0  0  0  0  0  0  0  0  0  0  0  0
   60.3940   29.1920   48.8950 N   0  0  0  0  0  0  0  0  0  0  0  0
   61.1900   30.3920   48.8920 C   0  0  0  0  0  0  0  0  0  0  0  0
   62.2360   30.5880   49.8130 C   0  0  0  0  0  0  0  0  0  0  0  0
   62.9780   31.7700   49.7950 C   0  0  0  0  0  0  0  0  0  0  0  0
   62.6970   32.7690   48.8600 C   0  0  0  0  0  0  0  0  0  0  0  0
   63.4200   33.9560   48.8990 O   0  0  0  0  0  0  0  0  0  0  0  0
   61.6740   32.5780   47.9120 C   0  0  0  0  0  0  0  0  0  0  0  0
   61.3620   33.6120   46.8990 C   0  0  0  0  0  0  0  0  0  0  0  0
   62.3120   34.2300   46.3450 O   0  0  0  0  0  0  0  0  0  0  0  0
   60.0050   33.9240   46.5340 N   0  0  0  0  0  0  0  0  0  0  0  0
   58.9670   34.0600   47.5690 C   0  0  0  0  0  0  0  0  0  0  0  0
   57.6350   33.4370   47.1120 C   0  0  0  0  0  0  0  0  0  0  0  0
   57.3960   33.5250   45.5910 C   0  0  0  0  0  0  0  0  0  0  0  0
   58.2320   34.6270   44.9370 C   0  0  0  0  0  0  0  0  0  0  0  0
   59.7250   34.3570   45.1560 C   0  0  0  0  0  0  0  0  0  0  0  0
   60.9160   31.3950   47.9490 C   0  0  0  0  0  0  0  0  0  0  0  0
   59.1040   28.5680   46.2310 C   0  0  0  0  0  0  0  0  0  0  0  0
   59.3240   29.9280   46.0090 C   0  0  0  0  0  0  0  0  0  0  0  0
   58.5490   30.5650   45.0230 C   0  0  0  0  0  0  0  0  0  0  0  0
   57.5820   29.8410   44.2930 C   0  0  0  0  0  0  0  0  0  0  0  0
   57.3780   28.4710   44.5430 C   0  0  0  0  0  0  0  0  0  0  0  0
   58.1590   27.8610   45.5290 C   0  0  0  0  0  0  0  0  0  0  0  0
   54.1790   26.7300   46.3640 H   0  0  0  0  0  0  0  0  0  0  0  0
   57.7744   24.5252   45.6440 H   0  0  0  0  0  0  0  0  0  0  0  0
   57.1787   25.6097   44.3366 H   0  0  0  0  0  0  0  0  0  0  0  0
   59.3001   25.5365   47.4557 H   0  0  0  0  0  0  0  0  0  0  0  0
   60.8362   27.1402   48.8287 H   0  0  0  0  0  0  0  0  0  0  0  0
   61.7065   28.1664   47.6248 H   0  0  0  0  0  0  0  0  0  0  0  0
   59.5210   29.1830   49.4710 H   0  0  0  0  0  0  0  0  0  0  0  0
   62.4698   29.8060   50.5504 H   0  0  0  0  0  0  0  0  0  0  0  0
   63.7901   31.9159   50.5225 H   0  0  0  0  0  0  0  0  0  0  0  0
   59.3049   33.5516   48.4841 H   0  0  0  0  0  0  0  0  0  0  0  0
   58.8025   35.1313   47.7566 H   0  0  0  0  0  0  0  0  0  0  0  0
   57.6304   32.3762   47.4030 H   0  0  0  0  0  0  0  0  0  0  0  0
   56.8305   34.0099   47.5963 H   0  0  0  0  0  0  0  0  0  0  0  0
   57.6621   32.5603   45.1343 H   0  0  0  0  0  0  0  0  0  0  0  0
   56.3348   33.7655   45.4294 H   0  0  0  0  0  0  0  0  0  0  0  0
   58.0213   34.6512   43.8576 H   0  0  0  0  0  0  0  0  0  0  0  0
   57.9710   35.5941   45.3915 H   0  0  0  0  0  0  0  0  0  0  0  0
   60.0498   33.5680   44.4618 H   0  0  0  0  0  0  0  0  0  0  0  0
   60.2724   35.2935   44.9737 H   0  0  0  0  0  0  0  0  0  0  0  0
   60.0966   31.2532   47.2289 H   0  0  0  0  0  0  0  0  0  0  0  0
   60.0783   30.4833   46.5858 H   0  0  0  0  0  0  0  0  0  0  0  0
   58.6977   31.6357   44.8193 H   0  0  0  0  0  0  0  0  0  0  0  0
   56.9838   30.3509   43.5235 H   0  0  0  0  0  0  0  0  0  0  0  0
   56.6269   27.8978   43.9797 H   0  0  0  0  0  0  0  0  0  0  0  0
  1  2  1  0
  2  3  2  0
  2  4  1  0
  4  5  1  0
  5  6  1  0
  6  7  2  0
  7  8  1  0
  8  9  1  0
  9 10  1  0
 10 11  2  0
 11 12  1  0
 12 13  2  0
 13 14  1  0
 13 15  1  0
 15 16  1  0
 16 17  2  0
 16 18  1  0
 18 19  1  0
 19 20  1  0
 20 21  1  0
 21 22  1  0
 22 23  1  0
 15 24  2  0
  7 25  1  0
 25 26  2  0
 26 27  1  0
 27 28  2  0
 28 29  1  0
 29 30  2  0
 30  5  1  0
 24 10  1  0
 30 25  1  0
 23 18  1  0
  1 31  1  0
  4 32  1  0
  4 33  1  0
  6 34  1  0
  8 35  1  0
  8 36  1  0
  9 37  1  0
 11 38  1  0
 12 39  1  0
 19 40  1  0
 19 41  1  0
 20 42  1  0
 20 43  1  0
 21 44  1  0
 21 45  1  0
 22 46  1  0
 22 47  1  0
 23 48  1  0
 23 49  1  0
 24 50  1  0
 26 51  1  0
 27 52  1  0
 28 53  1  0
 29 54  1  0
M  CHG  2   1  -1  14  -1
M  END
>  <UniqueID>  (63) 
57

>  <SMILES>  (63) 
[NH-]C(=O)Cn1cc(CNc2ccc([O-])c(C(=O)N3CCCCC3)c2)c2ccccc21

>  <Energy>  (63) 
94.32751323285032

>  <Genealogy>  (63) 
[NH-]C(=O)Cn1cc(CNc2ccc([O-])c(C(=O)N3CCCCC3)c2)c2ccccc21 (protonated)
[NH-]C(=O)Cn1cc(CNc2ccc([O-])c(C(=O)N3CCCCC3)c2)c2ccccc21 (3D coordinates assigned)
[NH-]C(=O)Cn1cc(CNc2ccc([O-])c(C(=O)N3CCCCC3)c2)c2ccccc21 (nonaromatic ring conformer: 94.32751323285032 kcal/mol)

>  <smiles>  (63) 
NC(=O)Cn1cc(CNc2ccc(O)c(C(=O)N3CCCCC3)c2)c2ccccc21

>  <score_type>  (63) 
oracle

>  <origin>  (63) 
adg

>  <m_score__min__energy>  (63) 
-13.52

>  <m_primary>  (63) 
energy

$$$$
63:0
     RDKit          3D

 65 68  0  0  0  0  0  0  0  0999 V2000
   60.6560   31.5610   47.1280 C   0  0  0  0  0  0  0  0  0  0  0  0
   61.0640   30.1580   47.3100 N   0  0  0  0  0  0  0  0  0  0  0  0
   60.2640   29.5110   48.3840 C   0  0  0  0  0  0  0  0  0  0  0  0
   60.0350   28.0160   48.1390 C   0  0  0  0  0  0  0  0  0  0  0  0
   59.3850   27.8410   46.8400 N   0  0  0  0  0  0  0  0  0  0  0  0
   58.3120   26.9010   46.6880 C   0  0  0  0  0  0  0  0  0  0  0  0
   58.4370   25.6180   47.2350 C   0  0  0  0  0  0  0  0  0  0  0  0
   57.4040   24.6910   47.1030 C   0  0  0  0  0  0  0  0  0  0  0  0
   56.2360   25.0330   46.4120 C   0  0  0  0  0  0  0  0  0  0  0  0
   54.9600   23.8330   46.2210 S   0  0  0  0  0  0  0  0  0  0  0  0
   54.8400   23.0530   47.5020 O   0  0  0  0  0  0  0  0  0  0  0  0
   53.6450   24.5120   45.9490 O   0  0  0  0  0  0  0  0  0  0  0  0
   55.3640   22.7560   44.9090 N   0  0  0  0  0  0  0  0  0  0  0  0
   56.3240   21.7370   45.3700 C   0  0  0  0  0  0  0  0  0  0  0  0
   56.8970   20.9410   44.1780 C   0  0  0  0  0  0  0  0  0  0  0  0
   56.1730   21.2080   42.9930 O   0  0  0  0  0  0  0  0  0  0  0  0
   56.3270   22.5710   42.6380 C   0  0  0  0  0  0  0  0  0  0  0  0
   55.9320   23.5220   43.7880 C   0  0  0  0  0  0  0  0  0  0  0  0
   56.1110   26.3100   45.8480 C   0  0  0  0  0  0  0  0  0  0  0  0
   57.1370   27.2620   46.0030 C   0  0  0  0  0  0  0  0  0  0  0  0
   57.0490   28.5690   45.4150 N   0  0  0  0  0  0  0  0  0  0  0  0
   57.1620   28.8970   44.0240 C   0  0  0  0  0  0  0  0  0  0  0  0
   57.3960   28.0030   43.1680 O   0  0  0  0  0  0  0  0  0  0  0  0
   56.8650   30.2870   43.5630 C   0  0  0  0  0  0  0  0  0  0  0  0
   58.1050   31.0320   43.3700 N   0  0  0  0  0  0  0  0  0  0  0  0
   58.1890   32.4620   43.3780 C   0  0  0  0  0  0  0  0  0  0  0  0
   58.0620   33.0870   42.2930 O   0  0  0  0  0  0  0  0  0  0  0  0
   58.4070   33.2170   44.6280 C   0  0  0  0  0  0  0  0  0  0  0  0
   59.0350   34.4730   44.5640 C   0  0  0  0  0  0  0  0  0  0  0  0
   59.2680   35.2080   45.7300 C   0  0  0  0  0  0  0  0  0  0  0  0
   58.8810   34.6940   46.9700 C   0  0  0  0  0  0  0  0  0  0  0  0
   58.2600   33.4430   47.0460 C   0  0  0  0  0  0  0  0  0  0  0  0
   58.0190   32.6970   45.8850 C   0  0  0  0  0  0  0  0  0  0  0  0
   57.3830   31.4590   46.0100 O   0  0  0  0  0  0  0  0  0  0  0  0
   59.7630   28.7060   45.7170 C   0  0  0  0  0  0  0  0  0  0  0  0
   61.0840   29.4310   46.0150 C   0  0  0  0  0  0  0  0  0  0  0  0
   60.5186   32.0335   48.1118 H   0  0  0  0  0  0  0  0  0  0  0  0
   61.4347   32.0996   46.5681 H   0  0  0  0  0  0  0  0  0  0  0  0
   59.7099   31.5980   46.5681 H   0  0  0  0  0  0  0  0  0  0  0  0
   60.7957   29.6326   49.3393 H   0  0  0  0  0  0  0  0  0  0  0  0
   59.2776   29.9977   48.3994 H   0  0  0  0  0  0  0  0  0  0  0  0
   61.0008   27.4894   48.1422 H   0  0  0  0  0  0  0  0  0  0  0  0
   59.3962   27.6025   48.9333 H   0  0  0  0  0  0  0  0  0  0  0  0
   59.3558   25.3399   47.7721 H   0  0  0  0  0  0  0  0  0  0  0  0
   57.5073   23.6882   47.5431 H   0  0  0  0  0  0  0  0  0  0  0  0
   57.1492   22.2338   45.9013 H   0  0  0  0  0  0  0  0  0  0  0  0
   55.8009   21.0388   46.0400 H   0  0  0  0  0  0  0  0  0  0  0  0
   57.9489   21.2256   44.0283 H   0  0  0  0  0  0  0  0  0  0  0  0
   56.8155   19.8674   44.4031 H   0  0  0  0  0  0  0  0  0  0  0  0
   57.3797   22.7516   42.3748 H   0  0  0  0  0  0  0  0  0  0  0  0
   55.6605   22.7754   41.7871 H   0  0  0  0  0  0  0  0  0  0  0  0
   56.8244   24.0643   44.1338 H   0  0  0  0  0  0  0  0  0  0  0  0
   55.1780   24.2343   43.4216 H   0  0  0  0  0  0  0  0  0  0  0  0
   55.2054   26.5703   45.2805 H   0  0  0  0  0  0  0  0  0  0  0  0
   56.3155   30.2440   42.6111 H   0  0  0  0  0  0  0  0  0  0  0  0
   56.2572   30.7951   44.3262 H   0  0  0  0  0  0  0  0  0  0  0  0
   59.3450   34.8800   43.5902 H   0  0  0  0  0  0  0  0  0  0  0  0
   59.7564   36.1918   45.6711 H   0  0  0  0  0  0  0  0  0  0  0  0
   59.0647   35.2733   47.8869 H   0  0  0  0  0  0  0  0  0  0  0  0
   57.9585   33.0419   48.0249 H   0  0  0  0  0  0  0  0  0  0  0  0
   57.6640   30.6430   45.4820 H   0  0  0  0  0  0  0  0  0  0  0  0
   59.8835   28.0921   44.8122 H   0  0  0  0  0  0  0  0  0  0  0  0
   58.9728   29.4560   45.5650 H   0  0  0  0  0  0  0  0  0  0  0  0
   61.8942   28.6875   46.0422 H   0  0  0  0  0  0  0  0  0  0  0  0
   61.2388   30.1757   45.2203 H   0  0  0  0  0  0  0  0  0  0  0  0
  1  2  1  0
  2  3  1  0
  3  4  1  0
  4  5  1  0
  5  6  1  0
  6  7  2  0
  7  8  1  0
  8  9  2  0
  9 10  1  0
 10 11  2  0
 10 12  2  0
 10 13  1  0
 13 14  1  0
 14 15  1  0
 15 16  1  0
 16 17  1  0
 17 18  1  0
  9 19  1  0
 19 20  2  0
 20 21  1  0
 21 22  1  0
 22 23  2  0
 22 24  1  0
 24 25  1  0
 25 26  1  0
 26 27  2  0
 26 28  1  0
 28 29  2  0
 29 30  1  0
 30 31  2  0
 31 32  1  0
 32 33  2  0
 33 34  1  0
  5 35  1  0
 35 36  1  0
 36  2  1  0
 20  6  1  0
 33 28  1  0
 18 13  1  0
  1 37  1  0
  1 38  1  0
  1 39  1  0
  3 40  1  0
  3 41  1  0
  4 42  1  0
  4 43  1  0
  7 44  1  0
  8 45  1  0
 14 46  1  0
 14 47  1  0
 15 48  1  0
 15 49  1  0
 17 50  1  0
 17 51  1  0
 18 52  1  0
 18 53  1  0
 19 54  1  0
 24 55  1  0
 24 56  1  0
 29 57  1  0
 30 58  1  0
 31 59  1  0
 32 60  1  0
 34 61  1  0
 35 62  1  0
 35 63  1  0
 36 64  1  0
 36 65  1  0
M  CHG  2  21  -1  25  -1
M  END
>  <UniqueID>  (64) 
58

>  <SMILES>  (64) 
CN1CCN(c2ccc(S(=O)(=O)N3CCOCC3)cc2[N-]C(=O)C[N-]C(=O)c2ccccc2O)CC1

>  <Energy>  (64) 
93.857807715436

>  <Genealogy>  (64) 
CN1CCN(c2ccc(S(=O)(=O)N3CCOCC3)cc2[N-]C(=O)C[N-]C(=O)c2ccccc2O)CC1 (protonated)
CN1CCN(c2ccc(S(=O)(=O)N3CCOCC3)cc2[N-]C(=O)C[N-]C(=O)c2ccccc2O)CC1 (3D coordinates assigned)
CN1CCN(c2ccc(S(=O)(=O)N3CCOCC3)cc2[N-]C(=O)C[N-]C(=O)c2ccccc2O)CC1 (nonaromatic ring conformer: 93.857807715436 kcal/mol)

>  <smiles>  (64) 
CN1CCN(c2ccc(S(=O)(=O)N3CCOCC3)cc2NC(=O)CNC(=O)c2ccccc2O)CC1

>  <score_type>  (64) 
oracle

>  <origin>  (64) 
adg

>  <m_score__min__energy>  (64) 
-11.93

>  <m_primary>  (64) 
energy

$$$$
64:0
     RDKit          3D

 48 52  0  0  0  0  0  0  0  0999 V2000
   54.2710   27.1010   46.3740 H   0  0  0  0  0  0  0  0  0  0  0  0
   55.1310   26.5750   46.2740 O   0  0  0  0  0  0  0  0  0  0  0  0
   55.1040   25.2450   45.8640 C   0  0  0  0  0  0  0  0  0  0  0  0
   54.0030   24.4740   45.8890 N   0  0  0  0  0  0  0  0  0  0  0  0
   54.4630   23.2810   45.4540 C   0  0  0  0  0  0  0  0  0  0  0  0
   53.7210   22.2660   45.3350 O   0  0  0  0  0  0  0  0  0  0  0  0
   55.7810   23.2550   45.1630 N   0  0  0  0  0  0  0  0  0  0  0  0
   56.1800   24.5220   45.3940 C   0  0  0  0  0  0  0  0  0  0  0  0
   57.5910   24.9430   45.3530 C   0  0  0  0  0  0  0  0  0  0  0  0
   58.3428   24.1545   45.2013 H   0  0  0  0  0  0  0  0  0  0  0  0
   58.0460   26.2040   45.4840 C   0  0  0  0  0  0  0  0  0  0  0  0
   57.3280   27.3050   45.0570 C   0  0  0  0  0  0  0  0  0  0  0  0
   56.3147   27.2976   44.6291 H   0  0  0  0  0  0  0  0  0  0  0  0
   58.1210   28.4170   45.2680 C   0  0  0  0  0  0  0  0  0  0  0  0
   57.7420   29.8440   44.8740 C   0  0  0  0  0  0  0  0  0  0  0  0
   58.4075   30.4996   45.4548 H   0  0  0  0  0  0  0  0  0  0  0  0
   56.3470   30.1670   45.2040 N   0  0  0  0  0  0  0  0  0  0  0  0
   55.9420   29.5000   45.9030 H   0  0  0  0  0  0  0  0  0  0  0  0
   55.6070   30.1120   43.9490 C   0  0  0  0  0  0  0  0  0  0  0  0
   54.8899   29.2782   43.9703 H   0  0  0  0  0  0  0  0  0  0  0  0
   55.0416   31.0416   43.7873 H   0  0  0  0  0  0  0  0  0  0  0  0
   56.6200   29.8980   42.8420 C   0  0  0  0  0  0  0  0  0  0  0  0
   56.5202   28.8839   42.4277 H   0  0  0  0  0  0  0  0  0  0  0  0
   56.4641   30.6118   42.0197 H   0  0  0  0  0  0  0  0  0  0  0  0
   57.9350   30.0680   43.4400 N   0  0  0  0  0  0  0  0  0  0  0  0
   58.6100   29.3770   43.0290 H   0  0  0  0  0  0  0  0  0  0  0  0
   59.3130   28.0410   45.7940 N   0  0  0  0  0  0  0  0  0  0  0  0
   60.4440   28.9310   46.1040 C   0  0  0  0  0  0  0  0  0  0  0  0
   61.2236   28.3531   46.6220 H   0  0  0  0  0  0  0  0  0  0  0  0
   60.8298   29.3449   45.1607 H   0  0  0  0  0  0  0  0  0  0  0  0
   60.0150   30.0690   46.9810 C   0  0  0  0  0  0  0  0  0  0  0  0
   60.0520   31.7050   46.5650 S   0  0  0  0  0  0  0  0  0  0  0  0
   59.6520   32.2050   48.1270 C   0  0  0  0  0  0  0  0  0  0  0  0
   59.4330   33.6260   48.5480 C   0  0  0  0  0  0  0  0  0  0  0  0
   58.8880   33.3935   49.4748 H   0  0  0  0  0  0  0  0  0  0  0  0
   59.2290   34.6300   47.4210 C   0  0  0  0  0  0  0  0  0  0  0  0
   59.1451   34.2800   46.3815 H   0  0  0  0  0  0  0  0  0  0  0  0
   58.4995   35.4264   47.2122 H   0  0  0  0  0  0  0  0  0  0  0  0
   60.5690   34.5600   48.1420 C   0  0  0  0  0  0  0  0  0  0  0  0
   61.4524   34.1589   47.6236 H   0  0  0  0  0  0  0  0  0  0  0  0
   61.2075   35.2838   48.6696 H   0  0  0  0  0  0  0  0  0  0  0  0
   59.4840   31.1520   48.9640 N   0  0  0  0  0  0  0  0  0  0  0  0
   59.6990   29.9660   48.3360 C   0  0  0  0  0  0  0  0  0  0  0  0
   59.6292   28.9992   48.8561 H   0  0  0  0  0  0  0  0  0  0  0  0
   59.2520   26.6990   46.0000 C   0  0  0  0  0  0  0  0  0  0  0  0
   60.1540   26.0180   46.7240 C   0  0  0  0  0  0  0  0  0  0  0  0
   61.0685   26.5185   47.0750 H   0  0  0  0  0  0  0  0  0  0  0  0
   59.9787   24.9594   46.9663 H   0  0  0  0  0  0  0  0  0  0  0  0
  1  2  1  0
  2  3  1  0
  3  4  1  0
  4  5  1  0
  5  6  2  0
  5  7  1  0
  7  8  1  0
  8  9  1  0
  9 10  1  0
  9 11  2  0
 11 12  1  0
 12 13  1  0
 12 14  2  0
 14 15  1  0
 15 16  1  0
 15 17  1  0
 17 18  1  0
 17 19  1  0
 19 20  1  0
 19 21  1  0
 19 22  1  0
 22 23  1  0
 22 24  1  0
 22 25  1  0
 25 26  1  0
 14 27  1  0
 27 28  1  0
 28 29  1  0
 28 30  1  0
 28 31  1  0
 31 32  1  0
 32 33  1  0
 33 34  1  0
 34 35  1  0
 34 36  1  0
 36 37  1  0
 36 38  1  0
 36 39  1  0
 39 40  1  0
 39 41  1  0
 33 42  2  0
 42 43  1  0
 43 44  1  0
 27 45  1  0
 45 46  2  0
 46 47  1  0
 46 48  1  0
  8  3  2  0
 45 11  1  0
 25 15  1  0
 43 31  2  0
 39 34  1  0
M  CHG  2   4  -1   7  -1
M  END
>  <UniqueID>  (65) 
59

>  <SMILES>  (65) 
C=c1/c(=C\c2[n-]c(=O)[n-]c2O)cc(C2NCCN2)n1Cc1cnc(C2CC2)s1

>  <Energy>  (65) 
415.8126460322988

>  <Genealogy>  (65) 
C=c1c(=Cc2[n-]c(=O)[n-]c2O)cc(C2NCCN2)n1Cc1cnc(C2CC2)s1 (protonated)
C=c1/c(=C\c2[n-]c(=O)[n-]c2O)cc(C2NCCN2)n1Cc1cnc(C2CC2)s1 (cis-trans isomerization)
C=c1/c(=C\c2[n-]c(=O)[n-]c2O)cc(C2NCCN2)n1Cc1cnc(C2CC2)s1 (3D coordinates assigned)
C=c1/c(=C\c2[n-]c(=O)[n-]c2O)cc(C2NCCN2)n1Cc1cnc(C2CC2)s1 (nonaromatic ring conformer: 415.8126460322988 kcal/mol)

>  <smiles>  (65) 
C=c1c(=Cc2[nH]c(=O)[nH]c2O)cc(C2NCCN2)n1Cc1cnc(C2CC2)s1

>  <score_type>  (65) 
oracle

>  <origin>  (65) 
adg

>  <m_score__min__energy>  (65) 
-13.199999999999999

>  <m_primary>  (65) 
energy

$$$$
65:0
     RDKit          3D

 74 78  0  0  0  0  0  0  0  0999 V2000
   58.0810   26.9880   43.2170 C   0  0  0  0  0  0  0  0  0  0  0  0
   58.1840   28.3850   43.6670 N   0  0  0  0  0  0  0  0  0  0  0  0
   58.5950   28.4410   45.0790 C   0  0  0  0  0  0  0  0  0  0  0  0
   58.9730   29.8830   45.4290 C   0  0  0  0  0  0  0  0  0  0  0  0
   58.0280   30.8300   44.8210 N   0  0  0  0  0  0  0  0  0  0  0  0
   58.3890   32.2140   44.6600 C   0  0  0  0  0  0  0  0  0  0  0  0
   58.1130   32.8060   43.5810 O   0  0  0  0  0  0  0  0  0  0  0  0
   59.0790   32.9590   45.7360 C   0  0  0  0  0  0  0  0  0  0  0  0
   58.5920   34.2060   46.1600 C   0  0  0  0  0  0  0  0  0  0  0  0
   59.2300   34.8960   47.1930 C   0  0  0  0  0  0  0  0  0  0  0  0
   60.3540   34.3470   47.8140 C   0  0  0  0  0  0  0  0  0  0  0  0
   60.8590   33.1060   47.4000 C   0  0  0  0  0  0  0  0  0  0  0  0
   62.0300   32.5740   48.0420 N   0  0  0  0  0  0  0  0  0  0  0  0
   63.2490   33.3250   48.1640 C   0  0  0  0  0  0  0  0  0  0  0  0
   63.7420   33.8870   47.1500 O   0  0  0  0  0  0  0  0  0  0  0  0
   63.9330   33.4590   49.4760 C   0  0  0  0  0  0  0  0  0  0  0  0
   63.4010   34.2990   50.4720 C   0  0  0  0  0  0  0  0  0  0  0  0
   64.0030   34.3770   51.7310 C   0  0  0  0  0  0  0  0  0  0  0  0
   65.1320   33.6070   52.0180 C   0  0  0  0  0  0  0  0  0  0  0  0
   65.6700   32.7610   51.0400 C   0  0  0  0  0  0  0  0  0  0  0  0
   66.8170   31.9530   51.3110 N   0  0  0  0  0  0  0  0  0  0  0  0
   66.7170   30.2630   51.6840 S   0  0  0  0  0  0  0  0  0  0  0  0
   67.5800   29.9330   52.8690 O   0  0  0  0  0  0  0  0  0  0  0  0
   67.1840   29.4730   50.4920 O   0  0  0  0  0  0  0  0  0  0  0  0
   65.0440   29.8720   52.0640 C   0  0  0  0  0  0  0  0  0  0  0  0
   64.7200   29.2490   53.2750 C   0  0  0  0  0  0  0  0  0  0  0  0
   63.3890   28.9370   53.5680 C   0  0  0  0  0  0  0  0  0  0  0  0
   62.3750   29.2540   52.6580 C   0  0  0  0  0  0  0  0  0  0  0  0
   62.6850   29.8990   51.4490 C   0  0  0  0  0  0  0  0  0  0  0  0
   61.6270   30.2260   50.4660 C   0  0  0  0  0  0  0  0  0  0  0  0
   61.6930   29.7090   49.3170 O   0  0  0  0  0  0  0  0  0  0  0  0
   60.5420   31.1240   50.7810 N   0  0  0  0  0  0  0  0  0  0  0  0
   60.6560   32.1250   51.8460 C   0  0  0  0  0  0  0  0  0  0  0  0
   59.9310   33.4060   51.4240 C   0  0  0  0  0  0  0  0  0  0  0  0
   58.6010   33.1240   51.0320 O   0  0  0  0  0  0  0  0  0  0  0  0
   58.6080   32.3210   49.8660 C   0  0  0  0  0  0  0  0  0  0  0  0
   59.2290   30.9490   50.1500 C   0  0  0  0  0  0  0  0  0  0  0  0
   64.0250   30.1960   51.1560 C   0  0  0  0  0  0  0  0  0  0  0  0
   65.0830   32.7030   49.7720 C   0  0  0  0  0  0  0  0  0  0  0  0
   60.1990   32.4040   46.3760 C   0  0  0  0  0  0  0  0  0  0  0  0
   56.7330   30.3460   44.3300 C   0  0  0  0  0  0  0  0  0  0  0  0
   56.9050   29.0980   43.4370 C   0  0  0  0  0  0  0  0  0  0  0  0
   58.0320   26.3235   44.0922 H   0  0  0  0  0  0  0  0  0  0  0  0
   57.1713   26.8641   42.6112 H   0  0  0  0  0  0  0  0  0  0  0  0
   58.9627   26.7320   42.6112 H   0  0  0  0  0  0  0  0  0  0  0  0
   57.7632   28.1117   45.7190 H   0  0  0  0  0  0  0  0  0  0  0  0
   59.4585   27.7794   45.2422 H   0  0  0  0  0  0  0  0  0  0  0  0
   58.9545   30.0060   46.5219 H   0  0  0  0  0  0  0  0  0  0  0  0
   59.9805   30.0891   45.0387 H   0  0  0  0  0  0  0  0  0  0  0  0
   57.7047   34.6409   45.6767 H   0  0  0  0  0  0  0  0  0  0  0  0
   58.8463   35.8742   47.5183 H   0  0  0  0  0  0  0  0  0  0  0  0
   60.8464   34.8916   48.6332 H   0  0  0  0  0  0  0  0  0  0  0  0
   61.8980   31.7520   48.6740 H   0  0  0  0  0  0  0  0  0  0  0  0
   62.5042   34.8990   50.2579 H   0  0  0  0  0  0  0  0  0  0  0  0
   63.5863   35.0467   52.4977 H   0  0  0  0  0  0  0  0  0  0  0  0
   65.5989   33.6649   53.0123 H   0  0  0  0  0  0  0  0  0  0  0  0
   65.5133   29.0047   53.9968 H   0  0  0  0  0  0  0  0  0  0  0  0
   63.1384   28.4407   54.5171 H   0  0  0  0  0  0  0  0  0  0  0  0
   61.3308   28.9973   52.8899 H   0  0  0  0  0  0  0  0  0  0  0  0
   60.2009   31.7330   52.7675 H   0  0  0  0  0  0  0  0  0  0  0  0
   61.7179   32.3479   52.0268 H   0  0  0  0  0  0  0  0  0  0  0  0
   59.9164   34.1079   52.2708 H   0  0  0  0  0  0  0  0  0  0  0  0
   60.4644   33.8483   50.5697 H   0  0  0  0  0  0  0  0  0  0  0  0
   57.5738   32.1830   49.5177 H   0  0  0  0  0  0  0  0  0  0  0  0
   59.2091   32.8259   49.0954 H   0  0  0  0  0  0  0  0  0  0  0  0
   58.5711   30.3821   50.8251 H   0  0  0  0  0  0  0  0  0  0  0  0
   59.3484   30.3994   49.2047 H   0  0  0  0  0  0  0  0  0  0  0  0
   64.2787   30.6876   50.2052 H   0  0  0  0  0  0  0  0  0  0  0  0
   65.5249   32.0593   48.9971 H   0  0  0  0  0  0  0  0  0  0  0  0
   60.5633   31.4111   46.0735 H   0  0  0  0  0  0  0  0  0  0  0  0
   56.0974   30.0872   45.1897 H   0  0  0  0  0  0  0  0  0  0  0  0
   56.2685   31.1423   43.7298 H   0  0  0  0  0  0  0  0  0  0  0  0
   56.0765   28.4043   43.6429 H   0  0  0  0  0  0  0  0  0  0  0  0
   56.9069   29.4423   42.3923 H   0  0  0  0  0  0  0  0  0  0  0  0
  1  2  1  0
  2  3  1  0
  3  4  1  0
  4  5  1  0
  5  6  1  0
  6  7  2  0
  6  8  1  0
  8  9  2  0
  9 10  1  0
 10 11  2  0
 11 12  1  0
 12 13  1  0
 13 14  1  0
 14 15  2  0
 14 16  1  0
 16 17  2  0
 17 18  1  0
 18 19  2  0
 19 20  1  0
 20 21  1  0
 21 22  1  0
 22 23  2  0
 22 24  2  0
 22 25  1  0
 25 26  2  0
 26 27  1  0
 27 28  2  0
 28 29  1  0
 29 30  1  0
 30 31  2  0
 30 32  1  0
 32 33  1  0
 33 34  1  0
 34 35  1  0
 35 36  1  0
 36 37  1  0
 29 38  2  0
 20 39  2  0
 12 40  2  0
  5 41  1  0
 41 42  1  0
 42  2  1  0
 40  8  1  0
 39 16  1  0
 38 25  1  0
 37 32  1  0
  1 43  1  0
  1 44  1  0
  1 45  1  0
  3 46  1  0
  3 47  1  0
  4 48  1  0
  4 49  1  0
  9 50  1  0
 10 51  1  0
 11 52  1  0
 13 53  1  0
 17 54  1  0
 18 55  1  0
 19 56  1  0
 26 57  1  0
 27 58  1  0
 28 59  1  0
 33 60  1  0
 33 61  1  0
 34 62  1  0
 34 63  1  0
 36 64  1  0
 36 65  1  0
 37 66  1  0
 37 67  1  0
 38 68  1  0
 39 69  1  0
 40 70  1  0
 41 71  1  0
 41 72  1  0
 42 73  1  0
 42 74  1  0
M  CHG  1  21  -1
M  END
>  <UniqueID>  (66) 
60

>  <SMILES>  (66) 
CN1CCN(C(=O)c2cccc(NC(=O)c3cccc([N-]S(=O)(=O)c4cccc(C(=O)N5CCOCC5)c4)c3)c2)CC1

>  <Energy>  (66) 
110.79624475530717

>  <Genealogy>  (66) 
CN1CCN(C(=O)c2cccc(NC(=O)c3cccc([N-]S(=O)(=O)c4cccc(C(=O)N5CCOCC5)c4)c3)c2)CC1 (protonated)
CN1CCN(C(=O)c2cccc(NC(=O)c3cccc([N-]S(=O)(=O)c4cccc(C(=O)N5CCOCC5)c4)c3)c2)CC1 (3D coordinates assigned)
CN1CCN(C(=O)c2cccc(NC(=O)c3cccc([N-]S(=O)(=O)c4cccc(C(=O)N5CCOCC5)c4)c3)c2)CC1 (nonaromatic ring conformer: 110.79624475530717 kcal/mol)

>  <smiles>  (66) 
CN1CCN(C(=O)c2cccc(NC(=O)c3cccc(NS(=O)(=O)c4cccc(C(=O)N5CCOCC5)c4)c3)c2)CC1

>  <score_type>  (66) 
oracle

>  <origin>  (66) 
adg

>  <m_score__min__energy>  (66) 
-12.69

>  <m_primary>  (66) 
energy

$$$$
66:0
     RDKit          3D

 53 56  0  0  0  0  0  0  0  0999 V2000
   60.7100   27.3480   49.3410 C   0  0  0  0  0  0  0  0  0  0  0  0
   59.7400   27.8590   48.3570 N   0  0  0  0  0  0  0  0  0  0  0  0
   60.3650   28.1320   47.0400 C   0  0  0  0  0  0  0  0  0  0  0  0
   60.7540   29.6110   46.8430 C   0  0  0  0  0  0  0  0  0  0  0  0
   61.0630   30.2200   48.1420 N   0  0  0  0  0  0  0  0  0  0  0  0
   61.7550   31.8080   47.9260 S   0  0  0  0  0  0  0  0  0  0  0  0
   62.1340   32.3750   49.2660 O   0  0  0  0  0  0  0  0  0  0  0  0
   63.0040   31.6970   47.0980 O   0  0  0  0  0  0  0  0  0  0  0  0
   60.6270   32.9060   47.1260 C   0  0  0  0  0  0  0  0  0  0  0  0
   60.8470   34.2900   47.1480 C   0  0  0  0  0  0  0  0  0  0  0  0
   59.9390   35.1550   46.5350 C   0  0  0  0  0  0  0  0  0  0  0  0
   58.8130   34.6450   45.8830 C   0  0  0  0  0  0  0  0  0  0  0  0
   58.5980   33.2550   45.8240 C   0  0  0  0  0  0  0  0  0  0  0  0
   57.4340   32.6900   45.1960 N   0  0  0  0  0  0  0  0  0  0  0  0
   57.2870   31.4650   44.7820 C   0  0  0  0  0  0  0  0  0  0  0  0
   57.2600   30.4210   45.6560 N   0  0  0  0  0  0  0  0  0  0  0  0
   57.0730   29.1430   45.2330 C   0  0  0  0  0  0  0  0  0  0  0  0
   57.0820   28.1090   46.1810 O   0  0  0  0  0  0  0  0  0  0  0  0
   57.2260   26.7440   45.8950 C   0  0  0  0  0  0  0  0  0  0  0  0
   58.4770   26.1820   45.5780 C   0  0  0  0  0  0  0  0  0  0  0  0
   58.5840   24.8210   45.2800 C   0  0  0  0  0  0  0  0  0  0  0  0
   57.4450   24.0130   45.2820 C   0  0  0  0  0  0  0  0  0  0  0  0
   56.1960   24.5660   45.5760 C   0  0  0  0  0  0  0  0  0  0  0  0
   56.0820   25.9310   45.8770 C   0  0  0  0  0  0  0  0  0  0  0  0
   54.8370   26.4870   46.1650 O   0  0  0  0  0  0  0  0  0  0  0  0
   56.9240   28.8920   43.8620 C   0  0  0  0  0  0  0  0  0  0  0  0
   56.9410   29.9710   42.9810 C   0  0  0  0  0  0  0  0  0  0  0  0
   57.1160   31.2320   43.4550 N   0  0  0  0  0  0  0  0  0  0  0  0
   59.4970   32.3960   46.4680 C   0  0  0  0  0  0  0  0  0  0  0  0
   59.8580   30.2910   48.9890 C   0  0  0  0  0  0  0  0  0  0  0  0
   58.9870   29.0190   48.8750 C   0  0  0  0  0  0  0  0  0  0  0  0
   60.3385   27.5437   50.3577 H   0  0  0  0  0  0  0  0  0  0  0  0
   60.8393   26.2648   49.2000 H   0  0  0  0  0  0  0  0  0  0  0  0
   61.6765   27.8540   49.2000 H   0  0  0  0  0  0  0  0  0  0  0  0
   61.2730   27.5175   46.9506 H   0  0  0  0  0  0  0  0  0  0  0  0
   59.6198   27.8862   46.2691 H   0  0  0  0  0  0  0  0  0  0  0  0
   61.6379   29.6726   46.1911 H   0  0  0  0  0  0  0  0  0  0  0  0
   59.9141   30.1493   46.3796 H   0  0  0  0  0  0  0  0  0  0  0  0
   61.7378   34.6958   47.6498 H   0  0  0  0  0  0  0  0  0  0  0  0
   60.1102   36.2412   46.5652 H   0  0  0  0  0  0  0  0  0  0  0  0
   58.0926   35.3317   45.4145 H   0  0  0  0  0  0  0  0  0  0  0  0
   59.3749   26.8174   45.5648 H   0  0  0  0  0  0  0  0  0  0  0  0
   59.5662   24.3857   45.0436 H   0  0  0  0  0  0  0  0  0  0  0  0
   57.5312   22.9408   45.0520 H   0  0  0  0  0  0  0  0  0  0  0  0
   55.2994   23.9288   45.5714 H   0  0  0  0  0  0  0  0  0  0  0  0
   54.7340   27.4700   46.3840 H   0  0  0  0  0  0  0  0  0  0  0  0
   56.7964   27.8648   43.4897 H   0  0  0  0  0  0  0  0  0  0  0  0
   56.8127   29.8019   41.9017 H   0  0  0  0  0  0  0  0  0  0  0  0
   59.3159   31.3111   46.4581 H   0  0  0  0  0  0  0  0  0  0  0  0
   60.1686   30.4146   50.0370 H   0  0  0  0  0  0  0  0  0  0  0  0
   59.2547   31.1446   48.6463 H   0  0  0  0  0  0  0  0  0  0  0  0
   58.5969   28.7687   49.8726 H   0  0  0  0  0  0  0  0  0  0  0  0
   58.1757   29.2337   48.1639 H   0  0  0  0  0  0  0  0  0  0  0  0
  1  2  1  0
  2  3  1  0
  3  4  1  0
  4  5  1  0
  5  6  1  0
  6  7  2  0
  6  8  2  0
  6  9  1  0
  9 10  2  0
 10 11  1  0
 11 12  2  0
 12 13  1  0
 13 14  1  0
 14 15  2  3
 15 16  1  0
 16 17  2  0
 17 18  1  0
 18 19  1  0
 19 20  2  0
 20 21  1  0
 21 22  2  0
 22 23  1  0
 23 24  2  0
 24 25  1  0
 17 26  1  0
 26 27  2  0
 27 28  1  0
 13 29  2  0
  5 30  1  0
 30 31  1  0
 31  2  1  0
 29  9  1  0
 28 15  1  0
 24 19  1  0
  1 32  1  0
  1 33  1  0
  1 34  1  0
  3 35  1  0
  3 36  1  0
  4 37  1  0
  4 38  1  0
 10 39  1  0
 11 40  1  0
 12 41  1  0
 20 42  1  0
 21 43  1  0
 22 44  1  0
 23 45  1  0
 25 46  1  0
 26 47  1  0
 27 48  1  0
 29 49  1  0
 30 50  1  0
 30 51  1  0
 31 52  1  0
 31 53  1  0
M  CHG  1  28  -1
M  END
>  <UniqueID>  (67) 
61

>  <SMILES>  (67) 
CN1CCN(S(=O)(=O)c2cccc(N=c3nc(Oc4ccccc4O)cc[n-]3)c2)CC1

>  <Energy>  (67) 
78.66890650817764

>  <Genealogy>  (67) 
CN1CCN(S(=O)(=O)c2cccc(N=c3nc(Oc4ccccc4O)cc[n-]3)c2)CC1 (protonated)
CN1CCN(S(=O)(=O)c2cccc(N=c3nc(Oc4ccccc4O)cc[n-]3)c2)CC1 (3D coordinates assigned)
CN1CCN(S(=O)(=O)c2cccc(N=c3nc(Oc4ccccc4O)cc[n-]3)c2)CC1 (nonaromatic ring conformer: 78.66890650817764 kcal/mol)

>  <smiles>  (67) 
CN1CCN(S(=O)(=O)c2cccc(N=c3nc(Oc4ccccc4O)cc[nH]3)c2)CC1

>  <score_type>  (67) 
oracle

>  <origin>  (67) 
adg

>  <m_score__min__energy>  (67) 
-12.01

>  <m_primary>  (67) 
energy

$$$$
67:0
     RDKit          3D

 45 47  0  0  0  0  0  0  0  0999 V2000
   62.0070   33.5540   46.7180 C   0  0  0  0  0  0  0  0  0  0  0  0
   61.3260   32.6170   47.3830 C   0  0  0  0  0  0  0  0  0  0  0  0
   61.5720   31.2610   47.3260 C   0  0  0  0  0  0  0  0  0  0  0  0
   60.6360   30.6800   48.1670 C   0  0  0  0  0  0  0  0  0  0  0  0
   60.4980   29.2450   48.4620 C   0  0  0  0  0  0  0  0  0  0  0  0
   61.1070   28.7700   49.4580 O   0  0  0  0  0  0  0  0  0  0  0  0
   59.7100   28.3750   47.6310 N   0  0  0  0  0  0  0  0  0  0  0  0
   60.1530   26.9870   47.4390 C   0  0  0  0  0  0  0  0  0  0  0  0
   59.1470   26.1810   46.6050 C   0  0  0  0  0  0  0  0  0  0  0  0
   58.7100   26.9800   45.3710 C   0  0  0  0  0  0  0  0  0  0  0  0
   58.1290   28.3770   45.7250 C   0  0  1  0  0  0  0  0  0  0  0  0
   56.6560   28.4580   45.3770 C   0  0  0  0  0  0  0  0  0  0  0  0
   55.9130   27.4670   45.6100 O   0  0  0  0  0  0  0  0  0  0  0  0
   56.0600   29.6420   44.8180 N   0  0  0  0  0  0  0  0  0  0  0  0
   56.6740   30.7060   44.3900 C   0  0  0  0  0  0  0  0  0  0  0  0
   57.0270   30.7940   43.0380 C   0  0  0  0  0  0  0  0  0  0  0  0
   57.7160   31.9190   42.5790 C   0  0  0  0  0  0  0  0  0  0  0  0
   58.0480   32.9440   43.4680 C   0  0  0  0  0  0  0  0  0  0  0  0
   57.6760   32.8290   44.8130 C   0  0  0  0  0  0  0  0  0  0  0  0
   58.0520   33.8890   45.8000 C   0  0  0  0  0  0  0  0  0  0  0  0
   57.0200   31.7150   45.2380 N   0  0  0  0  0  0  0  0  0  0  0  0
   58.3640   28.7760   47.2000 C   0  0  0  0  0  0  0  0  0  0  0  0
   59.8770   31.6070   48.7080 O   0  0  0  0  0  0  0  0  0  0  0  0
   60.2580   32.7820   48.2590 C   0  0  0  0  0  0  0  0  0  0  0  0
   59.6740   33.9240   48.6260 C   0  0  0  0  0  0  0  0  0  0  0  0
   61.7350   34.6141   46.8285 H   0  0  0  0  0  0  0  0  0  0  0  0
   62.8398   33.2656   46.0598 H   0  0  0  0  0  0  0  0  0  0  0  0
   62.3474   30.7488   46.7373 H   0  0  0  0  0  0  0  0  0  0  0  0
   61.1235   26.9908   46.9212 H   0  0  0  0  0  0  0  0  0  0  0  0
   60.2363   26.5133   48.4283 H   0  0  0  0  0  0  0  0  0  0  0  0
   59.6171   25.2412   46.2799 H   0  0  0  0  0  0  0  0  0  0  0  0
   58.2621   25.9685   47.2229 H   0  0  0  0  0  0  0  0  0  0  0  0
   59.5832   27.1193   44.7167 H   0  0  0  0  0  0  0  0  0  0  0  0
   57.9116   26.4082   44.8753 H   0  0  0  0  0  0  0  0  0  0  0  0
   58.6806   29.1038   45.1106 H   0  0  0  0  0  0  0  0  0  0  0  0
   56.7638   29.9834   42.3426 H   0  0  0  0  0  0  0  0  0  0  0  0
   57.9969   31.9977   41.5184 H   0  0  0  0  0  0  0  0  0  0  0  0
   58.5951   33.8309   43.1157 H   0  0  0  0  0  0  0  0  0  0  0  0
   57.9154   33.5040   46.8213 H   0  0  0  0  0  0  0  0  0  0  0  0
   59.1049   34.1708   45.6521 H   0  0  0  0  0  0  0  0  0  0  0  0
   57.4120   34.7713   45.6521 H   0  0  0  0  0  0  0  0  0  0  0  0
   58.2609   29.8665   47.3013 H   0  0  0  0  0  0  0  0  0  0  0  0
   57.6208   28.2658   47.8303 H   0  0  0  0  0  0  0  0  0  0  0  0
   60.0331   34.8809   48.2193 H   0  0  0  0  0  0  0  0  0  0  0  0
   58.8334   33.9087   49.3353 H   0  0  0  0  0  0  0  0  0  0  0  0
  1  2  2  0
  2  3  1  0
  3  4  2  0
  4  5  1  0
  5  6  2  0
  5  7  1  0
  7  8  1  0
  8  9  1  0
  9 10  1  0
 10 11  1  0
 11 12  1  0
 12 13  2  0
 12 14  1  0
 14 15  2  3
 15 16  1  0
 16 17  2  0
 17 18  1  0
 18 19  2  0
 19 20  1  0
 19 21  1  0
 11 22  1  0
  4 23  1  0
 23 24  1  0
 24 25  2  0
 24  2  1  0
 22  7  1  0
 21 15  1  0
  1 26  1  0
  1 27  1  0
  3 28  1  0
  8 29  1  0
  8 30  1  0
  9 31  1  0
  9 32  1  0
 10 33  1  0
 10 34  1  0
 11 35  1  6
 16 36  1  0
 17 37  1  0
 18 38  1  0
 20 39  1  0
 20 40  1  0
 20 41  1  0
 22 42  1  0
 22 43  1  0
 25 44  1  0
 25 45  1  0
M  CHG  1  21  -1
M  END
>  <UniqueID>  (68) 
62

>  <SMILES>  (68) 
C=c1cc(C(=O)N2CCC[C@@H](C(=O)N=c3cccc(C)[n-]3)C2)oc1=C

>  <Energy>  (68) 
82.86796132686457

>  <Genealogy>  (68) 
C=c1cc(C(=O)N2CCCC(C(=O)N=c3cccc(C)[n-]3)C2)oc1=C (protonated)
C=c1cc(C(=O)N2CCC[C@@H](C(=O)N=c3cccc(C)[n-]3)C2)oc1=C (chirality)
C=c1cc(C(=O)N2CCC[C@@H](C(=O)N=c3cccc(C)[n-]3)C2)oc1=C (3D coordinates assigned)
C=c1cc(C(=O)N2CCC[C@@H](C(=O)N=c3cccc(C)[n-]3)C2)oc1=C (nonaromatic ring conformer: 82.86796132686457 kcal/mol)

>  <smiles>  (68) 
C=c1cc(C(=O)N2CCCC(C(=O)N=c3cccc(C)[nH]3)C2)oc1=C

>  <score_type>  (68) 
oracle

>  <origin>  (68) 
adg

>  <m_score__min__energy>  (68) 
-9.9199999999999999

>  <m_primary>  (68) 
energy

$$$$
68:0
     RDKit          3D

 46 47  0  0  0  0  0  0  0  0999 V2000
   57.7919   33.1711   42.2632 H   0  0  0  0  0  0  0  0  0  0  0  0
   57.4430   32.3190   42.8650 C   0  0  0  0  0  0  0  0  0  0  0  0
   57.4070   32.4070   44.2610 C   0  0  0  0  0  0  0  0  0  0  0  0
   57.8610   33.6530   44.9530 C   0  0  0  0  0  0  0  0  0  0  0  0
   57.8080   33.5076   46.0421 H   0  0  0  0  0  0  0  0  0  0  0  0
   58.8983   33.8763   44.6629 H   0  0  0  0  0  0  0  0  0  0  0  0
   57.2105   34.4913   44.6629 H   0  0  0  0  0  0  0  0  0  0  0  0
   56.9870   31.3390   44.9940 N   0  0  0  0  0  0  0  0  0  0  0  0
   56.5820   30.1730   44.4210 C   0  0  0  0  0  0  0  0  0  0  0  0
   56.1940   29.2020   45.2000 N   0  0  0  0  0  0  0  0  0  0  0  0
   56.9620   28.0170   45.5900 C   0  0  0  0  0  0  0  0  0  0  0  0
   56.2856   27.2885   46.0609 H   0  0  0  0  0  0  0  0  0  0  0  0
   57.4245   27.5864   44.6896 H   0  0  0  0  0  0  0  0  0  0  0  0
   58.0530   28.3790   46.5650 C   0  0  0  0  0  0  0  0  0  0  0  0
   58.5220   29.7000   46.6400 C   0  0  0  0  0  0  0  0  0  0  0  0
   58.0967   30.4689   45.9783 H   0  0  0  0  0  0  0  0  0  0  0  0
   59.5250   30.0450   47.5490 C   0  0  0  0  0  0  0  0  0  0  0  0
   59.8927   31.0809   47.5894 H   0  0  0  0  0  0  0  0  0  0  0  0
   60.0680   29.0770   48.4130 C   0  0  0  0  0  0  0  0  0  0  0  0
   61.1390   29.4260   49.3790 C   0  0  0  0  0  0  0  0  0  0  0  0
   61.4380   28.6080   50.2920 O   0  0  0  0  0  0  0  0  0  0  0  0
   61.8280   30.6840   49.3030 N   0  0  0  0  0  0  0  0  0  0  0  0
   61.4570   31.4330   48.6760 H   0  0  0  0  0  0  0  0  0  0  0  0
   63.0010   30.9580   50.1340 C   0  0  0  0  0  0  0  0  0  0  0  0
   62.6713   31.1534   51.1651 H   0  0  0  0  0  0  0  0  0  0  0  0
   63.6646   30.0816   50.0957 H   0  0  0  0  0  0  0  0  0  0  0  0
   63.7790   32.1750   49.6200 C   0  0  0  0  0  0  0  0  0  0  0  0
   64.0020   32.8417   50.4660 H   0  0  0  0  0  0  0  0  0  0  0  0
   64.7082   31.8209   49.1496 H   0  0  0  0  0  0  0  0  0  0  0  0
   62.9980   32.9220   48.6100 N   0  0  0  0  0  0  0  0  0  0  0  0
   62.6360   34.2520   49.1280 C   0  0  0  0  0  0  0  0  0  0  0  0
   62.6417   34.2312   50.2278 H   0  0  0  0  0  0  0  0  0  0  0  0
   63.3646   34.9951   48.7716 H   0  0  0  0  0  0  0  0  0  0  0  0
   61.6313   34.5233   48.7716 H   0  0  0  0  0  0  0  0  0  0  0  0
   63.7580   33.0760   47.3570 C   0  0  0  0  0  0  0  0  0  0  0  0
   64.8114   33.2895   47.5910 H   0  0  0  0  0  0  0  0  0  0  0  0
   63.6933   32.1465   46.7723 H   0  0  0  0  0  0  0  0  0  0  0  0
   63.3366   33.9070   46.7723 H   0  0  0  0  0  0  0  0  0  0  0  0
   59.5970   27.7560   48.3350 C   0  0  0  0  0  0  0  0  0  0  0  0
   60.0221   26.9856   48.9951 H   0  0  0  0  0  0  0  0  0  0  0  0
   58.5920   27.4120   47.4250 C   0  0  0  0  0  0  0  0  0  0  0  0
   58.2225   26.3767   47.3839 H   0  0  0  0  0  0  0  0  0  0  0  0
   56.5960   30.0600   43.0160 C   0  0  0  0  0  0  0  0  0  0  0  0
   56.2664   29.1293   42.5310 H   0  0  0  0  0  0  0  0  0  0  0  0
   57.0320   31.1400   42.2450 C   0  0  0  0  0  0  0  0  0  0  0  0
   57.0511   31.0602   41.1481 H   0  0  0  0  0  0  0  0  0  0  0  0
  1  2  1  0
  2  3  2  0
  3  4  1  0
  4  5  1  0
  4  6  1  0
  4  7  1  0
  3  8  1  0
  8  9  1  0
  9 10  2  0
 10 11  1  0
 11 12  1  0
 11 13  1  0
 11 14  1  0
 14 15  2  0
 15 16  1  0
 15 17  1  0
 17 18  1  0
 17 19  2  0
 19 20  1  0
 20 21  2  0
 20 22  1  0
 22 23  1  0
 22 24  1  0
 24 25  1  0
 24 26  1  0
 24 27  1  0
 27 28  1  0
 27 29  1  0
 27 30  1  0
 30 31  1  0
 31 32  1  0
 31 33  1  0
 31 34  1  0
 30 35  1  0
 35 36  1  0
 35 37  1  0
 35 38  1  0
 19 39  1  0
 39 40  1  0
 39 41  2  0
 41 42  1  0
  9 43  1  0
 43 44  1  0
 43 45  2  0
 45 46  1  0
 45  2  1  0
 41 14  1  0
M  CHG  1   8  -1
M  END
>  <UniqueID>  (69) 
63

>  <SMILES>  (69) 
Cc1ccc/c(=N\Cc2ccc(C(=O)NCCN(C)C)cc2)[n-]1

>  <Energy>  (69) 
45.915822212027926

>  <Genealogy>  (69) 
Cc1cccc(=NCc2ccc(C(=O)NCCN(C)C)cc2)[n-]1 (protonated)
Cc1ccc/c(=N\Cc2ccc(C(=O)NCCN(C)C)cc2)[n-]1 (cis-trans isomerization)
Cc1ccc/c(=N\Cc2ccc(C(=O)NCCN(C)C)cc2)[n-]1 (3D coordinates assigned)
Cc1ccc/c(=N\Cc2ccc(C(=O)NCCN(C)C)cc2)[n-]1 (optimized conformer: 45.915822212027926 kcal/mol)

>  <smiles>  (69) 
Cc1cccc(=NCc2ccc(C(=O)NCCN(C)C)cc2)[nH]1

>  <score_type>  (69) 
oracle

>  <origin>  (69) 
adg

>  <m_score__min__energy>  (69) 
-8.8900000000000006

>  <m_primary>  (69) 
energy

$$$$
69:0
     RDKit          3D

 47 49  0  0  0  0  0  0  0  0999 V2000
   61.2153   31.6979   47.8650 H   0  0  0  0  0  0  0  0  0  0  0  0
   60.7180   32.6500   47.6280 C   0  0  0  0  0  0  0  0  0  0  0  0
   61.1510   33.4970   46.7110 C   0  0  0  0  0  0  0  0  0  0  0  0
   62.0474   33.3295   46.0958 H   0  0  0  0  0  0  0  0  0  0  0  0
   60.2840   34.7070   46.6060 C   0  0  1  0  0  0  0  0  0  0  0  0
   60.8512   35.6447   46.7009 H   0  0  0  0  0  0  0  0  0  0  0  0
   59.6240   34.8380   45.2150 C   0  0  0  0  0  0  0  0  0  0  0  0
   60.2734   34.3432   44.4778 H   0  0  0  0  0  0  0  0  0  0  0  0
   59.5029   35.9146   45.0244 H   0  0  0  0  0  0  0  0  0  0  0  0
   58.2160   34.2110   45.1170 C   0  0  0  0  0  0  0  0  0  0  0  0
   57.5967   34.8344   44.4553 H   0  0  0  0  0  0  0  0  0  0  0  0
   57.7977   34.1640   46.1333 H   0  0  0  0  0  0  0  0  0  0  0  0
   58.2510   32.7770   44.5560 C   0  0  0  0  0  0  0  0  0  0  0  0
   59.1422   32.2725   44.9575 H   0  0  0  0  0  0  0  0  0  0  0  0
   58.2669   32.8697   43.4600 H   0  0  0  0  0  0  0  0  0  0  0  0
   57.0140   31.9230   44.9070 C   0  0  0  0  0  0  0  0  0  0  0  0
   56.2180   32.1420   44.1800 H   0  0  0  0  0  0  0  0  0  0  0  0
   56.7128   32.1824   45.9327 H   0  0  0  0  0  0  0  0  0  0  0  0
   57.2920   30.4760   44.8790 N   0  0  0  0  0  0  0  0  0  0  0  0
   57.0480   29.6420   43.8390 C   0  0  0  0  0  0  0  0  0  0  0  0
   56.2730   29.9940   42.6030 C   0  0  0  0  0  0  0  0  0  0  0  0
   55.3060   30.4332   42.8892 H   0  0  0  0  0  0  0  0  0  0  0  0
   56.8439   30.7211   42.0069 H   0  0  0  0  0  0  0  0  0  0  0  0
   56.1011   29.0856   42.0069 H   0  0  0  0  0  0  0  0  0  0  0  0
   57.4790   28.3650   44.1340 C   0  0  0  0  0  0  0  0  0  0  0  0
   57.4383   27.4907   43.4677 H   0  0  0  0  0  0  0  0  0  0  0  0
   57.9720   28.3920   45.4260 C   0  0  0  0  0  0  0  0  0  0  0  0
   58.4040   27.2830   46.0570 C   0  0  0  0  0  0  0  0  0  0  0  0
   59.4587   27.2623   46.3688 H   0  0  0  0  0  0  0  0  0  0  0  0
   57.5900   26.0970   46.3660 C   0  0  0  0  0  0  0  0  0  0  0  0
   56.2160   26.0360   46.3880 C   0  0  0  0  0  0  0  0  0  0  0  0
   55.3540   27.0530   45.9930 O   0  0  0  0  0  0  0  0  0  0  0  0
   55.8010   24.8450   46.8580 N   0  0  0  0  0  0  0  0  0  0  0  0
   56.9620   24.2140   47.1380 C   0  0  0  0  0  0  0  0  0  0  0  0
   57.0100   23.0520   47.6200 O   0  0  0  0  0  0  0  0  0  0  0  0
   58.0630   24.9430   46.8680 N   0  0  0  0  0  0  0  0  0  0  0  0
   59.0580   24.6810   47.0460 H   0  0  0  0  0  0  0  0  0  0  0  0
   57.8670   29.7240   45.8590 C   0  0  0  0  0  0  0  0  0  0  0  0
   58.3290   30.2350   47.0120 C   0  0  0  0  0  0  0  0  0  0  0  0
   58.1836   31.3016   47.2382 H   0  0  0  0  0  0  0  0  0  0  0  0
   58.8528   29.5869   47.7301 H   0  0  0  0  0  0  0  0  0  0  0  0
   59.2710   34.5420   47.7540 C   0  0  0  0  0  0  0  0  0  0  0  0
   58.2440   34.6557   47.3767 H   0  0  0  0  0  0  0  0  0  0  0  0
   59.4185   35.3038   48.5337 H   0  0  0  0  0  0  0  0  0  0  0  0
   59.4820   33.1290   48.3040 C   0  0  0  0  0  0  0  0  0  0  0  0
   58.6271   32.4829   48.0557 H   0  0  0  0  0  0  0  0  0  0  0  0
   59.5710   33.1145   49.4003 H   0  0  0  0  0  0  0  0  0  0  0  0
  1  2  1  0
  2  3  2  0
  3  4  1  0
  3  5  1  0
  5  6  1  1
  5  7  1  0
  7  8  1  0
  7  9  1  0
  7 10  1  0
 10 11  1  0
 10 12  1  0
 10 13  1  0
 13 14  1  0
 13 15  1  0
 13 16  1  0
 16 17  1  0
 16 18  1  0
 16 19  1  0
 19 20  1  0
 20 21  1  0
 21 22  1  0
 21 23  1  0
 21 24  1  0
 20 25  2  0
 25 26  1  0
 25 27  1  0
 27 28  2  0
 28 29  1  0
 28 30  1  0
 30 31  2  0
 31 32  1  0
 31 33  1  0
 33 34  1  0
 34 35  2  0
 34 36  1  0
 36 37  1  0
 27 38  1  0
 38 39  2  0
 39 40  1  0
 39 41  1  0
  5 42  1  0
 42 43  1  0
 42 44  1  0
 42 45  1  0
 45 46  1  0
 45 47  1  0
 45  2  1  0
 38 19  1  0
 36 30  1  0
M  CHG  2  32  -1  33  -1
M  END
>  <UniqueID>  (70) 
64

>  <SMILES>  (70) 
C=c1/c(=C\c2[nH]c(=O)[n-]c2[O-])cc(C)n1CCCC[C@@H]1C=CCC1

>  <Energy>  (70) 
117.21094111258857

>  <Genealogy>  (70) 
C=c1c(=Cc2[nH]c(=O)[n-]c2[O-])cc(C)n1CCCCC1C=CCC1 (protonated)
C=c1c(=Cc2[nH]c(=O)[n-]c2[O-])cc(C)n1CCCC[C@@H]1C=CCC1 (chirality)
C=c1/c(=C\c2[nH]c(=O)[n-]c2[O-])cc(C)n1CCCC[C@@H]1C=CCC1 (cis-trans isomerization)
C=c1/c(=C\c2[nH]c(=O)[n-]c2[O-])cc(C)n1CCCC[C@@H]1C=CCC1 (3D coordinates assigned)
C=c1/c(=C\c2[nH]c(=O)[n-]c2[O-])cc(C)n1CCCC[C@@H]1C=CCC1 (nonaromatic ring conformer: 117.21094111258857 kcal/mol)

>  <smiles>  (70) 
C=c1c(=Cc2[nH]c(=O)[nH]c2O)cc(C)n1CCCCC1C=CCC1

>  <score_type>  (70) 
oracle

>  <origin>  (70) 
adg

>  <m_score__min__energy>  (70) 
-14.35

>  <m_primary>  (70) 
energy

$$$$
70:0
     RDKit          3D

 48 51  0  0  1  0  0  0  0  0999 V2000
   58.3990   30.3970   46.5090 N   0  0  0  0  0  0  0  0  0  0  0  0
   57.6140   31.2500   45.2280 S   0  0  0  0  0  0  0  0  0  0  0  0
   56.3900   30.5160   44.8050 O   0  0  0  0  0  0  0  0  0  0  0  0
   58.5300   31.3380   44.0440 O   0  0  0  0  0  0  0  0  0  0  0  0
   57.2060   32.8100   45.8170 N   0  0  0  0  0  0  0  0  0  0  0  0
   57.6950   33.0140   47.1340 C   0  0  0  0  0  0  0  0  0  0  0  0
   58.5070   34.2940   47.2740 C   0  0  0  0  0  0  0  0  0  0  0  0
   59.3550   34.5340   46.1730 N   0  0  0  0  0  0  0  0  0  0  0  0
   60.7440   34.6170   46.3630 C   0  0  0  0  0  0  0  0  0  0  0  0
   61.3920   33.2990   46.7860 C   0  0  0  0  0  0  0  0  0  0  0  0
   62.7290   33.3000   47.1400 C   0  0  0  0  0  0  0  0  0  0  0  0
   63.0350   31.5230   47.5800 S   0  0  0  0  0  0  0  0  0  0  0  0
   61.3210   31.0460   47.2210 C   0  0  0  0  0  0  0  0  0  0  0  0
   60.8330   29.8480   47.3390 N   0  0  0  0  0  0  0  0  0  0  0  0
   60.3970   29.4720   48.6450 C   0  0  0  0  0  0  0  0  0  0  0  0
   60.5790   28.3170   49.1220 O   0  0  0  0  0  0  0  0  0  0  0  0
   59.7100   30.4430   49.4880 C   0  0  0  0  0  0  0  0  0  0  0  0
   60.1160   31.0190   50.6800 C   0  0  0  0  0  0  0  0  0  0  0  0
   59.0930   31.8670   51.0370 C   0  0  0  0  0  0  0  0  0  0  0  0
   59.0900   32.7160   52.2750 C   0  0  0  0  0  0  0  0  0  0  0  0
   57.8720   33.4180   52.6890 C   0  0  0  0  0  0  0  0  0  0  0  0
   58.9340   34.1990   52.0380 C   0  0  0  0  0  0  0  0  0  0  0  0
   58.1120   31.8180   50.1180 N   0  0  0  0  0  0  0  0  0  0  0  0
   58.5130   30.9560   49.2050 N   0  0  0  0  0  0  0  0  0  0  0  0
   60.7210   32.2000   46.8290 N   0  0  0  0  0  0  0  0  0  0  0  0
   58.8740   34.2350   44.8740 C   0  0  0  0  0  0  0  0  0  0  0  0
   57.4130   33.8580   44.8800 C   0  0  0  0  0  0  0  0  0  0  0  0
   59.0190   29.6610   46.1010 H   0  0  0  0  0  0  0  0  0  0  0  0
   58.9080   31.0510   47.1450 H   0  0  0  0  0  0  0  0  0  0  0  0
   56.8384   33.0650   47.8222 H   0  0  0  0  0  0  0  0  0  0  0  0
   58.3625   32.1726   47.3718 H   0  0  0  0  0  0  0  0  0  0  0  0
   57.8117   35.1408   47.3716 H   0  0  0  0  0  0  0  0  0  0  0  0
   59.1462   34.1816   48.1622 H   0  0  0  0  0  0  0  0  0  0  0  0
   61.2039   34.9412   45.4178 H   0  0  0  0  0  0  0  0  0  0  0  0
   60.9117   35.3320   47.1819 H   0  0  0  0  0  0  0  0  0  0  0  0
   63.4349   34.1435   47.1566 H   0  0  0  0  0  0  0  0  0  0  0  0
   61.0545   30.8376   51.2244 H   0  0  0  0  0  0  0  0  0  0  0  0
   59.7878   32.0457   52.7982 H   0  0  0  0  0  0  0  0  0  0  0  0
   56.9281   33.2318   52.1558 H   0  0  0  0  0  0  0  0  0  0  0  0
   57.3259   33.5100   53.6394 H   0  0  0  0  0  0  0  0  0  0  0  0
   58.7910   34.5839   51.0175 H   0  0  0  0  0  0  0  0  0  0  0  0
   59.5134   35.0990   52.2917 H   0  0  0  0  0  0  0  0  0  0  0  0
   57.2240   32.3560   50.1470 H   0  0  0  0  0  0  0  0  0  0  0  0
   59.6770   32.1310   46.5660 H   0  0  0  0  0  0  0  0  0  0  0  0
   59.0090   35.1194   44.2340 H   0  0  0  0  0  0  0  0  0  0  0  0
   59.4433   33.3744   44.4929 H   0  0  0  0  0  0  0  0  0  0  0  0
   56.8085   34.7316   45.1653 H   0  0  0  0  0  0  0  0  0  0  0  0
   57.1134   33.5217   43.8764 H   0  0  0  0  0  0  0  0  0  0  0  0
  1  2  1  0
  2  3  2  0
  2  4  2  0
  2  5  1  0
  5  6  1  0
  6  7  1  0
  7  8  1  0
  8  9  1  0
  9 10  1  0
 10 11  2  0
 11 12  1  0
 12 13  1  0
 13 14  2  0
 14 15  1  0
 15 16  2  0
 15 17  1  0
 17 18  1  0
 18 19  2  0
 19 20  1  0
 20 21  1  0
 21 22  1  0
 19 23  1  0
 23 24  1  0
 13 25  1  0
  8 26  1  0
 26 27  1  0
 27  5  1  0
 25 10  1  0
 24 17  2  0
 22 20  1  0
  1 28  1  0
  1 29  1  0
  6 30  1  0
  6 31  1  0
  7 32  1  0
  7 33  1  0
  9 34  1  0
  9 35  1  0
 11 36  1  0
 18 37  1  0
 20 38  1  0
 21 39  1  0
 21 40  1  0
 22 41  1  0
 22 42  1  0
 23 43  1  0
 25 44  1  0
 26 45  1  0
 26 46  1  0
 27 47  1  0
 27 48  1  0
M  END
>  <smiles>  (71) 
NS(=O)(=O)N1CCN(Cc2csc(=NC(=O)c3cc(C4CC4)[nH]n3)[nH]2)CC1

>  <score_type>  (71) 
oracle

>  <origin>  (71) 
adg

>  <m_score__min__energy>  (71) 
-7.8499999999999996

>  <m_primary>  (71) 
energy

$$$$
71:0
     RDKit          3D

 61 64  0  0  0  0  0  0  0  0999 V2000
   56.6510   30.4020   42.6270 C   0  0  0  0  0  0  0  0  0  0  0  0
   56.6120   29.7320   44.0080 C   0  0  0  0  0  0  0  0  0  0  0  0
   56.9870   30.6360   45.1160 N   0  0  0  0  0  0  0  0  0  0  0  0
   58.1030   30.1570   45.9540 C   0  0  0  0  0  0  0  0  0  0  0  0
   58.5960   31.2700   46.8730 C   0  0  0  0  0  0  0  0  0  0  0  0
   59.1740   32.3510   46.0670 N   0  0  0  0  0  0  0  0  0  0  0  0
   59.7350   33.6860   47.0600 S   0  0  0  0  0  0  0  0  0  0  0  0
   59.4170   34.9580   46.3160 O   0  0  0  0  0  0  0  0  0  0  0  0
   58.9870   33.6960   48.3650 O   0  0  0  0  0  0  0  0  0  0  0  0
   61.4850   33.6400   47.3950 C   0  0  0  0  0  0  0  0  0  0  0  0
   62.4350   33.8170   46.3780 C   0  0  0  0  0  0  0  0  0  0  0  0
   63.7480   33.8450   46.8120 C   0  0  0  0  0  0  0  0  0  0  0  0
   63.7420   33.5910   48.4660 S   0  0  0  0  0  0  0  0  0  0  0  0
   62.0730   33.4390   48.6540 C   0  0  0  0  0  0  0  0  0  0  0  0
   61.4640   32.9790   49.9180 C   0  0  0  0  0  0  0  0  0  0  0  0
   61.8790   31.9010   50.4340 O   0  0  0  0  0  0  0  0  0  0  0  0
   60.3140   33.6480   50.4690 N   0  0  0  0  0  0  0  0  0  0  0  0
   59.5090   33.1570   51.5570 C   0  0  0  0  0  0  0  0  0  0  0  0
   59.6200   33.7600   52.8210 C   0  0  0  0  0  0  0  0  0  0  0  0
   58.8010   33.3510   53.8760 C   0  0  0  0  0  0  0  0  0  0  0  0
   57.8540   32.3400   53.6810 C   0  0  0  0  0  0  0  0  0  0  0  0
   57.7270   31.7230   52.4250 C   0  0  0  0  0  0  0  0  0  0  0  0
   56.7080   30.6750   52.1930 C   0  0  0  0  0  0  0  0  0  0  0  0
   55.8730   30.8490   51.2580 O   0  0  0  0  0  0  0  0  0  0  0  0
   56.6430   29.4750   52.9980 N   0  0  0  0  0  0  0  0  0  0  0  0
   55.4570   28.6090   52.9260 C   0  0  0  0  0  0  0  0  0  0  0  0
   55.2980   27.8380   54.2420 C   0  0  0  0  0  0  0  0  0  0  0  0
   56.4910   27.1500   54.5740 O   0  0  0  0  0  0  0  0  0  0  0  0
   57.5340   28.0780   54.8080 C   0  0  0  0  0  0  0  0  0  0  0  0
   57.8650   28.8550   53.5270 C   0  0  0  0  0  0  0  0  0  0  0  0
   58.5360   32.1570   51.3610 C   0  0  0  0  0  0  0  0  0  0  0  0
   58.3740   32.7590   44.8800 C   0  0  0  0  0  0  0  0  0  0  0  0
   56.9840   32.0790   44.7750 C   0  0  0  0  0  0  0  0  0  0  0  0
   56.7145   31.4932   42.7505 H   0  0  0  0  0  0  0  0  0  0  0  0
   57.5298   30.0442   42.0706 H   0  0  0  0  0  0  0  0  0  0  0  0
   55.7366   30.1486   42.0706 H   0  0  0  0  0  0  0  0  0  0  0  0
   55.5903   29.3664   44.1883 H   0  0  0  0  0  0  0  0  0  0  0  0
   57.3514   28.9178   43.9921 H   0  0  0  0  0  0  0  0  0  0  0  0
   57.7594   29.3089   46.5645 H   0  0  0  0  0  0  0  0  0  0  0  0
   58.9298   29.8427   45.3001 H   0  0  0  0  0  0  0  0  0  0  0  0
   57.7520   31.6615   47.4599 H   0  0  0  0  0  0  0  0  0  0  0  0
   59.3624   30.8705   47.5535 H   0  0  0  0  0  0  0  0  0  0  0  0
   62.1576   33.9250   45.3190 H   0  0  0  0  0  0  0  0  0  0  0  0
   64.6362   34.0054   46.1832 H   0  0  0  0  0  0  0  0  0  0  0  0
   60.0300   34.5640   50.0570 H   0  0  0  0  0  0  0  0  0  0  0  0
   60.3575   34.5603   52.9811 H   0  0  0  0  0  0  0  0  0  0  0  0
   58.9010   33.8254   54.8634 H   0  0  0  0  0  0  0  0  0  0  0  0
   57.2067   32.0271   54.5135 H   0  0  0  0  0  0  0  0  0  0  0  0
   54.5633   29.2268   52.7541 H   0  0  0  0  0  0  0  0  0  0  0  0
   55.5777   27.8948   52.0982 H   0  0  0  0  0  0  0  0  0  0  0  0
   55.0555   28.5469   55.0473 H   0  0  0  0  0  0  0  0  0  0  0  0
   54.4902   27.1012   54.1214 H   0  0  0  0  0  0  0  0  0  0  0  0
   57.2192   28.7860   55.5888 H   0  0  0  0  0  0  0  0  0  0  0  0
   58.4308   27.5287   55.1306 H   0  0  0  0  0  0  0  0  0  0  0  0
   58.6040   29.6375   53.7540 H   0  0  0  0  0  0  0  0  0  0  0  0
   58.2788   28.1646   52.7772 H   0  0  0  0  0  0  0  0  0  0  0  0
   58.4081   31.7109   50.3637 H   0  0  0  0  0  0  0  0  0  0  0  0
   58.2211   33.8473   44.9266 H   0  0  0  0  0  0  0  0  0  0  0  0
   58.9446   32.4416   43.9947 H   0  0  0  0  0  0  0  0  0  0  0  0
   56.2951   32.5942   45.4605 H   0  0  0  0  0  0  0  0  0  0  0  0
   56.6732   32.1549   43.7225 H   0  0  0  0  0  0  0  0  0  0  0  0
  1  2  1  0
  2  3  1  0
  3  4  1  0
  4  5  1  0
  5  6  1  0
  6  7  1  0
  7  8  2  0
  7  9  2  0
  7 10  1  0
 10 11  1  0
 11 12  2  0
 12 13  1  0
 13 14  1  0
 14 15  1  0
 15 16  2  0
 15 17  1  0
 17 18  1  0
 18 19  2  0
 19 20  1  0
 20 21  2  0
 21 22  1  0
 22 23  1  0
 23 24  2  0
 23 25  1  0
 25 26  1  0
 26 27  1  0
 27 28  1  0
 28 29  1  0
 29 30  1  0
 22 31  2  0
  6 32  1  0
 32 33  1  0
 33  3  1  0
 14 10  2  0
 31 18  1  0
 30 25  1  0
  1 34  1  0
  1 35  1  0
  1 36  1  0
  2 37  1  0
  2 38  1  0
  4 39  1  0
  4 40  1  0
  5 41  1  0
  5 42  1  0
 11 43  1  0
 12 44  1  0
 17 45  1  0
 19 46  1  0
 20 47  1  0
 21 48  1  0
 26 49  1  0
 26 50  1  0
 27 51  1  0
 27 52  1  0
 29 53  1  0
 29 54  1  0
 30 55  1  0
 30 56  1  0
 31 57  1  0
 32 58  1  0
 32 59  1  0
 33 60  1  0
 33 61  1  0
M  END
>  <UniqueID>  (72) 
65

>  <SMILES>  (72) 
CCN1CCN(S(=O)(=O)c2ccsc2C(=O)Nc2cccc(C(=O)N3CCOCC3)c2)CC1

>  <Energy>  (72) 
122.33870996916991

>  <Genealogy>  (72) 
CCN1CCN(S(=O)(=O)c2ccsc2C(=O)Nc2cccc(C(=O)N3CCOCC3)c2)CC1 (3D coordinates assigned)
CCN1CCN(S(=O)(=O)c2ccsc2C(=O)Nc2cccc(C(=O)N3CCOCC3)c2)CC1 (nonaromatic ring conformer: 122.33870996916991 kcal/mol)

>  <smiles>  (72) 
CCN1CCN(S(=O)(=O)c2ccsc2C(=O)Nc2cccc(C(=O)N3CCOCC3)c2)CC1

>  <score_type>  (72) 
oracle

>  <origin>  (72) 
adg

>  <m_score__min__energy>  (72) 
-10.390000000000001

>  <m_primary>  (72) 
energy

$$$$
72:0
     RDKit          3D

 29 30  0  0  0  0  0  0  0  0999 V2000
   59.6130   32.0390   45.1250 H   0  0  0  0  0  0  0  0  0  0  0  0
   59.1740   31.1790   45.4340 O   0  0  0  0  0  0  0  0  0  0  0  0
   57.9930   30.7130   44.8560 C   0  0  0  0  0  0  0  0  0  0  0  0
   57.3340   29.6030   45.4030 C   0  0  0  0  0  0  0  0  0  0  0  0
   57.7328   29.1202   46.3073 H   0  0  0  0  0  0  0  0  0  0  0  0
   56.1720   29.1070   44.8040 C   0  0  0  0  0  0  0  0  0  0  0  0
   55.5230   28.0080   45.3500 O   0  0  0  0  0  0  0  0  0  0  0  0
   55.6660   29.7160   43.6530 C   0  0  0  0  0  0  0  0  0  0  0  0
   54.7548   29.3220   43.1791 H   0  0  0  0  0  0  0  0  0  0  0  0
   56.3150   30.8250   43.1020 C   0  0  0  0  0  0  0  0  0  0  0  0
   55.9222   31.2900   42.1857 H   0  0  0  0  0  0  0  0  0  0  0  0
   57.4640   31.3470   43.7120 C   0  0  0  0  0  0  0  0  0  0  0  0
   58.1440   32.5020   43.0910 C   0  0  0  0  0  0  0  0  0  0  0  0
   58.1662   32.5574   41.9926 H   0  0  0  0  0  0  0  0  0  0  0  0
   58.7190   33.4590   43.7620 N   0  0  0  0  0  0  0  0  0  0  0  0
   58.2990   34.0280   45.0140 C   0  0  0  0  0  0  0  0  0  0  0  0
   57.1810   34.5980   45.1270 O   0  0  0  0  0  0  0  0  0  0  0  0
   59.2070   33.9990   46.1650 C   0  0  0  0  0  0  0  0  0  0  0  0
   60.4980   33.7640   46.0730 O   0  0  0  0  0  0  0  0  0  0  0  0
   61.0210   33.8090   47.2770 C   0  0  0  0  0  0  0  0  0  0  0  0
   62.3200   33.6110   47.5130 C   0  0  0  0  0  0  0  0  0  0  0  0
   62.7058   33.6600   48.5420 H   0  0  0  0  0  0  0  0  0  0  0  0
   63.0045   33.3988   46.6785 H   0  0  0  0  0  0  0  0  0  0  0  0
   60.0230   34.0890   48.2060 C   0  0  0  0  0  0  0  0  0  0  0  0
   60.1340   34.2210   49.5300 C   0  0  0  0  0  0  0  0  0  0  0  0
   61.1150   34.1053   50.0139 H   0  0  0  0  0  0  0  0  0  0  0  0
   59.2444   34.4454   50.1368 H   0  0  0  0  0  0  0  0  0  0  0  0
   58.8510   34.2110   47.4860 C   0  0  0  0  0  0  0  0  0  0  0  0
   57.8472   34.4302   47.8788 H   0  0  0  0  0  0  0  0  0  0  0  0
  1  2  1  0
  2  3  1  0
  3  4  2  0
  4  5  1  0
  4  6  1  0
  6  7  1  0
  6  8  2  0
  8  9  1  0
  8 10  1  0
 10 11  1  0
 10 12  2  0
 12 13  1  0
 13 14  1  0
 13 15  2  0
 15 16  1  0
 16 17  2  0
 16 18  1  0
 18 19  1  0
 19 20  1  0
 20 21  2  0
 21 22  1  0
 21 23  1  0
 20 24  1  0
 24 25  2  0
 25 26  1  0
 25 27  1  0
 24 28  1  0
 28 29  1  0
 12  3  1  0
 28 18  2  0
M  CHG  1   7  -1
M  END
>  <UniqueID>  (73) 
66

>  <SMILES>  (73) 
C=c1cc(C(=O)/N=C\c2ccc([O-])cc2O)oc1=C

>  <Energy>  (73) 
66.21015592480519

>  <Genealogy>  (73) 
C=c1cc(C(=O)N=Cc2ccc([O-])cc2O)oc1=C (protonated)
C=c1cc(C(=O)/N=C\c2ccc([O-])cc2O)oc1=C (cis-trans isomerization)
C=c1cc(C(=O)/N=C\c2ccc([O-])cc2O)oc1=C (3D coordinates assigned)
C=c1cc(C(=O)/N=C\c2ccc([O-])cc2O)oc1=C (optimized conformer: 66.21015592480519 kcal/mol)

>  <smiles>  (73) 
C=c1cc(C(=O)N=Cc2ccc(O)cc2O)oc1=C

>  <score_type>  (73) 
oracle

>  <origin>  (73) 
adg

>  <m_score__min__energy>  (73) 
-10.119999999999999

>  <m_primary>  (73) 
energy

$$$$
73:0
     RDKit          3D

 85 90  0  0  0  0  0  0  0  0999 V2000
   63.5930   31.2110   51.6320 C   0  0  0  0  0  0  0  0  0  0  0  0
   63.8490   32.6520   51.4440 N   0  0  0  0  0  0  0  0  0  0  0  0
   64.9650   32.8960   50.5020 C   0  0  0  0  0  0  0  0  0  0  0  0
   64.5410   32.6850   49.0400 C   0  0  0  0  0  0  0  0  0  0  0  0
   63.2610   33.3480   48.7570 N   0  0  0  0  0  0  0  0  0  0  0  0
   62.7690   33.3870   47.4050 C   0  0  0  0  0  0  0  0  0  0  0  0
   63.5840   33.4060   46.4410 O   0  0  0  0  0  0  0  0  0  0  0  0
   61.3210   33.3830   47.1190 C   0  0  0  0  0  0  0  0  0  0  0  0
   60.6420   32.1720   46.9220 C   0  0  0  0  0  0  0  0  0  0  0  0
   59.2810   32.1700   46.6090 C   0  0  0  0  0  0  0  0  0  0  0  0
   58.5750   33.3790   46.5030 C   0  0  0  0  0  0  0  0  0  0  0  0
   57.1100   33.3690   46.1440 C   0  0  0  0  0  0  0  0  0  0  0  0
   56.8550   32.5520   44.9560 N   0  0  0  0  0  0  0  0  0  0  0  0
   57.6930   32.5880   43.7940 C   0  0  0  0  0  0  0  0  0  0  0  0
   58.6510   33.4060   43.7240 O   0  0  0  0  0  0  0  0  0  0  0  0
   57.4240   31.6950   42.7080 N   0  0  0  0  0  0  0  0  0  0  0  0
   56.6680   30.4560   42.8480 C   0  0  0  0  0  0  0  0  0  0  0  0
   57.2760   29.6220   43.9390 C   0  0  0  0  0  0  0  0  0  0  0  0
   56.4530   28.9020   44.8190 C   0  0  0  0  0  0  0  0  0  0  0  0
   57.0110   28.1790   45.8770 C   0  0  0  0  0  0  0  0  0  0  0  0
   58.4020   28.1720   46.0750 C   0  0  0  0  0  0  0  0  0  0  0  0
   58.9830   27.4150   47.2030 C   0  0  0  0  0  0  0  0  0  0  0  0
   58.4740   26.2990   47.4980 O   0  0  0  0  0  0  0  0  0  0  0  0
   60.0630   27.9490   48.0050 N   0  0  0  0  0  0  0  0  0  0  0  0
   60.2700   29.4070   48.0920 C   0  0  0  0  0  0  0  0  0  0  0  0
   61.0860   29.8230   49.3290 C   0  0  0  0  0  0  0  0  0  0  0  0
   60.7880   29.0040   50.6150 C   0  0  0  0  0  0  0  0  0  0  0  0
   59.7860   29.6750   51.4630 N   0  0  0  0  0  0  0  0  0  0  0  0
   59.1450   28.9980   52.5930 C   0  0  0  0  0  0  0  0  0  0  0  0
   58.3240   30.0710   53.3450 C   0  0  0  0  0  0  0  0  0  0  0  0
   58.5790   31.3070   52.5640 C   0  0  0  0  0  0  0  0  0  0  0  0
   58.0900   32.5890   52.8240 C   0  0  0  0  0  0  0  0  0  0  0  0
   58.4590   33.6340   51.9640 C   0  0  0  0  0  0  0  0  0  0  0  0
   59.2790   33.3720   50.8510 C   0  0  0  0  0  0  0  0  0  0  0  0
   59.6270   34.3810   50.0180 F   0  0  0  0  0  0  0  0  0  0  0  0
   59.7460   32.0710   50.6020 C   0  0  0  0  0  0  0  0  0  0  0  0
   59.4000   31.0510   51.4940 C   0  0  0  0  0  0  0  0  0  0  0  0
   60.4590   27.5080   50.3800 C   0  0  0  0  0  0  0  0  0  0  0  0
   60.7800   27.0770   48.9470 C   0  0  0  0  0  0  0  0  0  0  0  0
   59.2250   28.8620   45.1740 C   0  0  0  0  0  0  0  0  0  0  0  0
   58.6670   29.5970   44.1250 C   0  0  0  0  0  0  0  0  0  0  0  0
   59.2440   34.5900   46.7530 C   0  0  0  0  0  0  0  0  0  0  0  0
   60.6100   34.5920   47.0490 C   0  0  0  0  0  0  0  0  0  0  0  0
   62.6410   34.1690   49.8010 C   0  0  0  0  0  0  0  0  0  0  0  0
   62.5980   33.3950   51.1290 C   0  0  0  0  0  0  0  0  0  0  0  0
   63.5525   30.9830   52.7074 H   0  0  0  0  0  0  0  0  0  0  0  0
   62.6335   30.9450   51.1644 H   0  0  0  0  0  0  0  0  0  0  0  0
   64.4021   30.6308   51.1644 H   0  0  0  0  0  0  0  0  0  0  0  0
   65.3132   33.9322   50.6248 H   0  0  0  0  0  0  0  0  0  0  0  0
   65.7658   32.1773   50.7306 H   0  0  0  0  0  0  0  0  0  0  0  0
   65.3148   33.1015   48.3783 H   0  0  0  0  0  0  0  0  0  0  0  0
   64.4205   31.6058   48.8646 H   0  0  0  0  0  0  0  0  0  0  0  0
   61.1839   31.2192   47.0144 H   0  0  0  0  0  0  0  0  0  0  0  0
   58.7591   31.2158   46.4446 H   0  0  0  0  0  0  0  0  0  0  0  0
   56.5375   32.9594   46.9893 H   0  0  0  0  0  0  0  0  0  0  0  0
   56.8007   34.4018   45.9259 H   0  0  0  0  0  0  0  0  0  0  0  0
   56.0280   31.9090   44.9610 H   0  0  0  0  0  0  0  0  0  0  0  0
   55.6239   30.6899   43.1033 H   0  0  0  0  0  0  0  0  0  0  0  0
   56.6964   29.8988   41.9000 H   0  0  0  0  0  0  0  0  0  0  0  0
   55.3625   28.9068   44.6751 H   0  0  0  0  0  0  0  0  0  0  0  0
   56.3582   27.6129   46.5577 H   0  0  0  0  0  0  0  0  0  0  0  0
   60.8049   29.7400   47.1903 H   0  0  0  0  0  0  0  0  0  0  0  0
   59.2790   29.8768   48.1768 H   0  0  0  0  0  0  0  0  0  0  0  0
   62.1532   29.7065   49.0893 H   0  0  0  0  0  0  0  0  0  0  0  0
   60.8006   30.8617   49.5518 H   0  0  0  0  0  0  0  0  0  0  0  0
   61.7404   28.9809   51.1649 H   0  0  0  0  0  0  0  0  0  0  0  0
   58.4821   28.1988   52.2298 H   0  0  0  0  0  0  0  0  0  0  0  0
   59.8931   28.5363   53.2542 H   0  0  0  0  0  0  0  0  0  0  0  0
   57.2532   29.8191   53.3452 H   0  0  0  0  0  0  0  0  0  0  0  0
   58.6071   30.1652   54.4038 H   0  0  0  0  0  0  0  0  0  0  0  0
   57.4301   32.7752   53.6841 H   0  0  0  0  0  0  0  0  0  0  0  0
   58.1075   34.6578   52.1596 H   0  0  0  0  0  0  0  0  0  0  0  0
   60.3717   31.8585   49.7226 H   0  0  0  0  0  0  0  0  0  0  0  0
   61.0527   26.8985   51.0772 H   0  0  0  0  0  0  0  0  0  0  0  0
   59.3818   27.3628   50.5490 H   0  0  0  0  0  0  0  0  0  0  0  0
   61.8629   27.1593   48.7724 H   0  0  0  0  0  0  0  0  0  0  0  0
   60.4646   26.0340   48.7966 H   0  0  0  0  0  0  0  0  0  0  0  0
   60.3178   28.8245   45.2938 H   0  0  0  0  0  0  0  0  0  0  0  0
   59.3209   30.1587   43.4417 H   0  0  0  0  0  0  0  0  0  0  0  0
   58.6902   35.5397   46.7155 H   0  0  0  0  0  0  0  0  0  0  0  0
   61.1303   35.5445   47.2279 H   0  0  0  0  0  0  0  0  0  0  0  0
   63.2278   35.0896   49.9357 H   0  0  0  0  0  0  0  0  0  0  0  0
   61.6137   34.4197   49.4980 H   0  0  0  0  0  0  0  0  0  0  0  0
   62.4098   34.1131   51.9407 H   0  0  0  0  0  0  0  0  0  0  0  0
   61.8007   32.6436   51.0308 H   0  0  0  0  0  0  0  0  0  0  0  0
  1  2  1  0
  2  3  1  0
  3  4  1  0
  4  5  1  0
  5  6  1  0
  6  7  2  0
  6  8  1  0
  8  9  2  0
  9 10  1  0
 10 11  2  0
 11 12  1  0
 12 13  1  0
 13 14  1  0
 14 15  2  0
 14 16  1  0
 16 17  1  0
 17 18  1  0
 18 19  2  0
 19 20  1  0
 20 21  2  0
 21 22  1  0
 22 23  2  0
 22 24  1  0
 24 25  1  0
 25 26  1  0
 26 27  1  0
 27 28  1  0
 28 29  1  0
 29 30  1  0
 30 31  1  0
 31 32  2  0
 32 33  1  0
 33 34  2  0
 34 35  1  0
 34 36  1  0
 36 37  2  0
 27 38  1  0
 38 39  1  0
 21 40  1  0
 40 41  2  0
 11 42  1  0
 42 43  2  0
  5 44  1  0
 44 45  1  0
 45  2  1  0
 43  8  1  0
 41 18  1  0
 39 24  1  0
 37 28  1  0
 37 31  1  0
  1 46  1  0
  1 47  1  0
  1 48  1  0
  3 49  1  0
  3 50  1  0
  4 51  1  0
  4 52  1  0
  9 53  1  0
 10 54  1  0
 12 55  1  0
 12 56  1  0
 13 57  1  0
 17 58  1  0
 17 59  1  0
 19 60  1  0
 20 61  1  0
 25 62  1  0
 25 63  1  0
 26 64  1  0
 26 65  1  0
 27 66  1  0
 29 67  1  0
 29 68  1  0
 30 69  1  0
 30 70  1  0
 32 71  1  0
 33 72  1  0
 36 73  1  0
 38 74  1  0
 38 75  1  0
 39 76  1  0
 39 77  1  0
 40 78  1  0
 41 79  1  0
 42 80  1  0
 43 81  1  0
 44 82  1  0
 44 83  1  0
 45 84  1  0
 45 85  1  0
M  CHG  1  16  -1
M  END
>  <UniqueID>  (74) 
67

>  <SMILES>  (74) 
CN1CCN(C(=O)c2ccc(CNC(=O)[N-]Cc3ccc(C(=O)N4CCC(N5CCc6ccc(F)cc65)CC4)cc3)cc2)CC1

>  <Energy>  (74) 
120.3507372211166

>  <Genealogy>  (74) 
CN1CCN(C(=O)c2ccc(CNC(=O)[N-]Cc3ccc(C(=O)N4CCC(N5CCc6ccc(F)cc65)CC4)cc3)cc2)CC1 (protonated)
CN1CCN(C(=O)c2ccc(CNC(=O)[N-]Cc3ccc(C(=O)N4CCC(N5CCc6ccc(F)cc65)CC4)cc3)cc2)CC1 (3D coordinates assigned)
CN1CCN(C(=O)c2ccc(CNC(=O)[N-]Cc3ccc(C(=O)N4CCC(N5CCc6ccc(F)cc65)CC4)cc3)cc2)CC1 (nonaromatic ring conformer: 120.3507372211166 kcal/mol)

>  <smiles>  (74) 
CN1CCN(C(=O)c2ccc(CNC(=O)NCc3ccc(C(=O)N4CCC(N5CCc6ccc(F)cc65)CC4)cc3)cc2)CC1

>  <score_type>  (74) 
oracle

>  <origin>  (74) 
adg

>  <m_score__min__energy>  (74) 
-12.449999999999999

>  <m_primary>  (74) 
energy

$$$$
74:0
     RDKit          3D

 60 63  0  0  0  0  0  0  0  0999 V2000
   61.2190   30.5540   49.4200 O   0  0  0  0  0  0  0  0  0  0  0  0
   61.7720   31.2780   48.5480 C   0  0  0  0  0  0  0  0  0  0  0  0
   62.5730   32.4730   48.9830 C   0  0  0  0  0  0  0  0  0  0  0  0
   61.8790   33.7980   48.6240 C   0  0  0  0  0  0  0  0  0  0  0  0
   60.3700   33.7090   48.5410 C   0  0  0  0  0  0  0  0  0  0  0  0
   59.7020   33.4770   49.5870 O   0  0  0  0  0  0  0  0  0  0  0  0
   59.6520   33.9210   47.2530 C   0  0  0  0  0  0  0  0  0  0  0  0
   59.9870   34.9880   46.3940 C   0  0  0  0  0  0  0  0  0  0  0  0
   59.2850   35.1870   45.2030 C   0  0  0  0  0  0  0  0  0  0  0  0
   58.2450   34.3280   44.8470 C   0  0  0  0  0  0  0  0  0  0  0  0
   57.9080   33.2480   45.6700 C   0  0  0  0  0  0  0  0  0  0  0  0
   56.8160   32.4030   45.2790 N   0  0  0  0  0  0  0  0  0  0  0  0
   56.9140   31.1510   44.5840 C   0  0  0  0  0  0  0  0  0  0  0  0
   56.3450   30.1240   45.0390 O   0  0  0  0  0  0  0  0  0  0  0  0
   57.7530   31.0190   43.3410 C   0  0  0  0  0  0  0  0  0  0  0  0
   57.0550   31.2140   42.0010 C   0  0  0  0  0  0  0  0  0  0  0  0
   57.9300   32.3190   42.5720 C   0  0  0  0  0  0  0  0  0  0  0  0
   58.6000   33.0590   46.8810 C   0  0  0  0  0  0  0  0  0  0  0  0
   61.6610   30.9540   47.1520 N   0  0  0  0  0  0  0  0  0  0  0  0
   60.7010   30.0300   46.6110 C   0  0  0  0  0  0  0  0  0  0  0  0
   59.4280   29.8660   47.1910 C   0  0  0  0  0  0  0  0  0  0  0  0
   58.5010   28.9890   46.6220 C   0  0  0  0  0  0  0  0  0  0  0  0
   58.8240   28.2710   45.4630 C   0  0  0  0  0  0  0  0  0  0  0  0
   57.6540   27.1570   44.7550 S   0  0  0  0  0  0  0  0  0  0  0  0
   56.2810   27.5210   45.2480 O   0  0  0  0  0  0  0  0  0  0  0  0
   57.6600   27.3210   43.2600 O   0  0  0  0  0  0  0  0  0  0  0  0
   57.9850   25.4850   45.1560 N   0  0  0  0  0  0  0  0  0  0  0  0
   57.0800   24.5400   44.4660 C   0  0  0  0  0  0  0  0  0  0  0  0
   55.9620   24.0070   45.3780 C   0  0  0  0  0  0  0  0  0  0  0  0
   55.6290   24.9630   46.3580 O   0  0  0  0  0  0  0  0  0  0  0  0
   56.6920   25.0850   47.2850 C   0  0  0  0  0  0  0  0  0  0  0  0
   58.0750   25.2610   46.6110 C   0  0  0  0  0  0  0  0  0  0  0  0
   60.0810   28.4520   44.8670 C   0  0  0  0  0  0  0  0  0  0  0  0
   61.0100   29.3280   45.4360 C   0  0  0  0  0  0  0  0  0  0  0  0
   62.7112   32.4293   50.0734 H   0  0  0  0  0  0  0  0  0  0  0  0
   63.5382   32.4432   48.4563 H   0  0  0  0  0  0  0  0  0  0  0  0
   62.1384   34.5417   49.3918 H   0  0  0  0  0  0  0  0  0  0  0  0
   62.2335   34.0773   47.6208 H   0  0  0  0  0  0  0  0  0  0  0  0
   60.8076   35.6689   46.6640 H   0  0  0  0  0  0  0  0  0  0  0  0
   59.5534   36.0249   44.5427 H   0  0  0  0  0  0  0  0  0  0  0  0
   57.6873   34.5007   43.9147 H   0  0  0  0  0  0  0  0  0  0  0  0
   58.4098   30.2370   43.7498 H   0  0  0  0  0  0  0  0  0  0  0  0
   57.3892   30.6479   41.1190 H   0  0  0  0  0  0  0  0  0  0  0  0
   56.0151   31.1487   41.6485 H   0  0  0  0  0  0  0  0  0  0  0  0
   58.8969   32.5526   42.1023 H   0  0  0  0  0  0  0  0  0  0  0  0
   57.7843   33.3846   42.8030 H   0  0  0  0  0  0  0  0  0  0  0  0
   58.3168   32.2290   47.5450 H   0  0  0  0  0  0  0  0  0  0  0  0
   62.3510   31.3810   46.4940 H   0  0  0  0  0  0  0  0  0  0  0  0
   59.1623   30.4312   48.0965 H   0  0  0  0  0  0  0  0  0  0  0  0
   57.5121   28.8615   47.0865 H   0  0  0  0  0  0  0  0  0  0  0  0
   56.6191   25.0564   43.6110 H   0  0  0  0  0  0  0  0  0  0  0  0
   57.6843   23.6781   44.1467 H   0  0  0  0  0  0  0  0  0  0  0  0
   55.0724   23.7867   44.7697 H   0  0  0  0  0  0  0  0  0  0  0  0
   56.3148   23.0926   45.8774 H   0  0  0  0  0  0  0  0  0  0  0  0
   56.5004   25.9605   47.9227 H   0  0  0  0  0  0  0  0  0  0  0  0
   56.7283   24.1505   47.8641 H   0  0  0  0  0  0  0  0  0  0  0  0
   58.5796   26.1251   47.0677 H   0  0  0  0  0  0  0  0  0  0  0  0
   58.6363   24.3276   46.7652 H   0  0  0  0  0  0  0  0  0  0  0  0
   60.3365   27.9028   43.9488 H   0  0  0  0  0  0  0  0  0  0  0  0
   61.9911   29.4681   44.9588 H   0  0  0  0  0  0  0  0  0  0  0  0
  1  2  2  0
  2  3  1  0
  3  4  1  0
  4  5  1  0
  5  6  2  0
  5  7  1  0
  7  8  2  0
  8  9  1  0
  9 10  2  0
 10 11  1  0
 11 12  1  0
 12 13  1  0
 13 14  2  0
 13 15  1  0
 15 16  1  0
 16 17  1  0
 11 18  2  0
  2 19  1  0
 19 20  1  0
 20 21  2  0
 21 22  1  0
 22 23  2  0
 23 24  1  0
 24 25  2  0
 24 26  2  0
 24 27  1  0
 27 28  1  0
 28 29  1  0
 29 30  1  0
 30 31  1  0
 31 32  1  0
 23 33  1  0
 33 34  2  0
 18  7  1  0
 34 20  1  0
 17 15  1  0
 32 27  1  0
  3 35  1  0
  3 36  1  0
  4 37  1  0
  4 38  1  0
  8 39  1  0
  9 40  1  0
 10 41  1  0
 15 42  1  0
 16 43  1  0
 16 44  1  0
 17 45  1  0
 17 46  1  0
 18 47  1  0
 19 48  1  0
 21 49  1  0
 22 50  1  0
 28 51  1  0
 28 52  1  0
 29 53  1  0
 29 54  1  0
 31 55  1  0
 31 56  1  0
 32 57  1  0
 32 58  1  0
 33 59  1  0
 34 60  1  0
M  CHG  1  12  -1
M  END
>  <UniqueID>  (75) 
68

>  <SMILES>  (75) 
O=C(CCC(=O)c1cccc([N-]C(=O)C2CC2)c1)Nc1ccc(S(=O)(=O)N2CCOCC2)cc1

>  <Energy>  (75) 
343.90330007919806

>  <Genealogy>  (75) 
O=C(CCC(=O)c1cccc([N-]C(=O)C2CC2)c1)Nc1ccc(S(=O)(=O)N2CCOCC2)cc1 (protonated)
O=C(CCC(=O)c1cccc([N-]C(=O)C2CC2)c1)Nc1ccc(S(=O)(=O)N2CCOCC2)cc1 (3D coordinates assigned)
O=C(CCC(=O)c1cccc([N-]C(=O)C2CC2)c1)Nc1ccc(S(=O)(=O)N2CCOCC2)cc1 (nonaromatic ring conformer: 343.90330007919806 kcal/mol)

>  <smiles>  (75) 
O=C(CCC(=O)c1cccc(NC(=O)C2CC2)c1)Nc1ccc(S(=O)(=O)N2CCOCC2)cc1

>  <score_type>  (75) 
oracle

>  <origin>  (75) 
adg

>  <m_score__min__energy>  (75) 
-11.640000000000001

>  <m_primary>  (75) 
energy

$$$$
75:0
     RDKit          3D

 73 78  0  0  0  0  0  0  0  0999 V2000
   60.4310   29.7150   51.1680 N   0  0  0  0  0  0  0  0  0  0  0  0
   59.1660   29.8750   50.5260 C   0  0  0  0  0  0  0  0  0  0  0  0
   58.1130   29.7280   51.2020 O   0  0  0  0  0  0  0  0  0  0  0  0
   59.0910   30.2080   49.0840 C   0  0  0  0  0  0  0  0  0  0  0  0
   58.7760   29.2140   48.1390 C   0  0  0  0  0  0  0  0  0  0  0  0
   58.7030   29.5180   46.7670 C   0  0  0  0  0  0  0  0  0  0  0  0
   58.4040   28.4590   45.7680 C   0  0  0  0  0  0  0  0  0  0  0  0
   58.9210   28.5360   44.4600 C   0  0  0  0  0  0  0  0  0  0  0  0
   58.6260   27.5440   43.5220 C   0  0  0  0  0  0  0  0  0  0  0  0
   57.7960   26.4750   43.8660 C   0  0  0  0  0  0  0  0  0  0  0  0
   57.2460   26.3970   45.1530 C   0  0  0  0  0  0  0  0  0  0  0  0
   56.3470   25.2810   45.5070 C   0  0  0  0  0  0  0  0  0  0  0  0
   55.3940   25.4980   46.3050 O   0  0  0  0  0  0  0  0  0  0  0  0
   56.5470   23.9570   44.9760 N   0  0  0  0  0  0  0  0  0  0  0  0
   55.5570   22.9020   45.1100 C   0  0  0  0  0  0  0  0  0  0  0  0
   56.2870   21.6020   44.7990 C   0  0  0  0  0  0  0  0  0  0  0  0
   57.6010   22.0010   44.1340 C   0  0  0  0  0  0  0  0  0  0  0  0
   57.8270   23.4650   44.4890 C   0  0  0  0  0  0  0  0  0  0  0  0
   57.5780   27.3700   46.1070 C   0  0  0  0  0  0  0  0  0  0  0  0
   58.9340   30.8410   46.3510 C   0  0  0  0  0  0  0  0  0  0  0  0
   59.2560   31.8370   47.2780 C   0  0  0  0  0  0  0  0  0  0  0  0
   59.5930   33.4810   46.7260 S   0  0  0  0  0  0  0  0  0  0  0  0
   59.6340   33.4970   45.2230 O   0  0  0  0  0  0  0  0  0  0  0  0
   58.4840   34.3940   47.1690 O   0  0  0  0  0  0  0  0  0  0  0  0
   61.1090   34.0750   47.3690 N   0  0  0  0  0  0  0  0  0  0  0  0
   61.0510   34.1140   48.8480 C   0  0  0  0  0  0  0  0  0  0  0  0
   62.4470   34.2820   49.4620 C   0  0  0  0  0  0  0  0  0  0  0  0
   63.4000   33.1260   49.0620 C   0  0  0  0  0  0  0  0  0  0  0  0
   63.6060   32.1570   50.2060 C   0  0  0  0  0  0  0  0  0  0  0  0
   62.7440   31.1800   50.5430 N   0  0  0  0  0  0  0  0  0  0  0  0
   63.2200   30.6240   51.6470 N   0  0  0  0  0  0  0  0  0  0  0  0
   64.3470   31.2320   51.9910 N   0  0  0  0  0  0  0  0  0  0  0  0
   64.6120   32.1820   51.1080 N   0  0  0  0  0  0  0  0  0  0  0  0
   65.7680   33.0290   51.1620 C   0  0  0  0  0  0  0  0  0  0  0  0
   65.7340   34.2430   51.8670 C   0  0  0  0  0  0  0  0  0  0  0  0
   66.8610   35.0700   51.8990 C   0  0  0  0  0  0  0  0  0  0  0  0
   68.0230   34.6990   51.2150 C   0  0  0  0  0  0  0  0  0  0  0  0
   68.0540   33.5030   50.4920 C   0  0  0  0  0  0  0  0  0  0  0  0
   66.9290   32.6740   50.4580 C   0  0  0  0  0  0  0  0  0  0  0  0
   62.9100   32.3700   47.8090 C   0  0  0  0  0  0  0  0  0  0  0  0
   62.2730   33.3440   46.8090 C   0  0  0  0  0  0  0  0  0  0  0  0
   59.3340   31.5190   48.6390 C   0  0  0  0  0  0  0  0  0  0  0  0
   61.0660   30.5310   51.3130 H   0  0  0  0  0  0  0  0  0  0  0  0
   58.5842   28.1851   48.4775 H   0  0  0  0  0  0  0  0  0  0  0  0
   59.5617   29.3835   44.1752 H   0  0  0  0  0  0  0  0  0  0  0  0
   59.0491   27.6051   42.5085 H   0  0  0  0  0  0  0  0  0  0  0  0
   57.5733   25.6926   43.1256 H   0  0  0  0  0  0  0  0  0  0  0  0
   55.1571   22.8805   46.1345 H   0  0  0  0  0  0  0  0  0  0  0  0
   54.7054   23.0590   44.4317 H   0  0  0  0  0  0  0  0  0  0  0  0
   56.4829   21.0434   45.7261 H   0  0  0  0  0  0  0  0  0  0  0  0
   55.6875   20.9520   44.1447 H   0  0  0  0  0  0  0  0  0  0  0  0
   58.4262   21.3833   44.5181 H   0  0  0  0  0  0  0  0  0  0  0  0
   57.5611   21.8533   43.0447 H   0  0  0  0  0  0  0  0  0  0  0  0
   58.5949   23.5553   45.2714 H   0  0  0  0  0  0  0  0  0  0  0  0
   58.1791   24.0423   43.6214 H   0  0  0  0  0  0  0  0  0  0  0  0
   57.1886   27.2815   47.1320 H   0  0  0  0  0  0  0  0  0  0  0  0
   58.8605   31.0956   45.2834 H   0  0  0  0  0  0  0  0  0  0  0  0
   60.4199   34.9597   49.1586 H   0  0  0  0  0  0  0  0  0  0  0  0
   60.6311   33.1609   49.2019 H   0  0  0  0  0  0  0  0  0  0  0  0
   62.8762   35.2329   49.1135 H   0  0  0  0  0  0  0  0  0  0  0  0
   62.3404   34.2713   50.5568 H   0  0  0  0  0  0  0  0  0  0  0  0
   64.3655   33.5926   48.8170 H   0  0  0  0  0  0  0  0  0  0  0  0
   61.8600   30.9030   50.0640 H   0  0  0  0  0  0  0  0  0  0  0  0
   64.8177   34.5443   52.3958 H   0  0  0  0  0  0  0  0  0  0  0  0
   66.8336   36.0139   52.4631 H   0  0  0  0  0  0  0  0  0  0  0  0
   68.9112   35.3473   51.2459 H   0  0  0  0  0  0  0  0  0  0  0  0
   68.9656   33.2136   49.9487 H   0  0  0  0  0  0  0  0  0  0  0  0
   66.9538   31.7401   49.8774 H   0  0  0  0  0  0  0  0  0  0  0  0
   63.7646   31.8683   47.3315 H   0  0  0  0  0  0  0  0  0  0  0  0
   62.1565   31.6284   48.1128 H   0  0  0  0  0  0  0  0  0  0  0  0
   63.0329   34.0780   46.5026 H   0  0  0  0  0  0  0  0  0  0  0  0
   61.9085   32.7491   45.9586 H   0  0  0  0  0  0  0  0  0  0  0  0
   59.5880   32.3030   49.3676 H   0  0  0  0  0  0  0  0  0  0  0  0
  1  2  1  0
  2  3  2  0
  2  4  1  0
  4  5  2  0
  5  6  1  0
  6  7  1  0
  7  8  2  0
  8  9  1  0
  9 10  2  0
 10 11  1  0
 11 12  1  0
 12 13  2  0
 12 14  1  0
 14 15  1  0
 15 16  1  0
 16 17  1  0
 17 18  1  0
 11 19  2  0
  6 20  2  0
 20 21  1  0
 21 22  1  0
 22 23  2  0
 22 24  2  0
 22 25  1  0
 25 26  1  0
 26 27  1  0
 27 28  1  0
 28 29  1  0
 29 30  2  0
 30 31  1  0
 31 32  2  0
 32 33  1  0
 33 34  1  0
 34 35  2  0
 35 36  1  0
 36 37  2  0
 37 38  1  0
 38 39  2  0
 28 40  1  0
 40 41  1  0
 21 42  2  0
 42  4  1  0
 19  7  1  0
 41 25  1  0
 18 14  1  0
 33 29  1  0
 39 34  1  0
  1 43  1  0
  5 44  1  0
  8 45  1  0
  9 46  1  0
 10 47  1  0
 15 48  1  0
 15 49  1  0
 16 50  1  0
 16 51  1  0
 17 52  1  0
 17 53  1  0
 18 54  1  0
 18 55  1  0
 19 56  1  0
 20 57  1  0
 26 58  1  0
 26 59  1  0
 27 60  1  0
 27 61  1  0
 28 62  1  0
 30 63  1  0
 35 64  1  0
 36 65  1  0
 37 66  1  0
 38 67  1  0
 39 68  1  0
 40 69  1  0
 40 70  1  0
 41 71  1  0
 41 72  1  0
 42 73  1  0
M  CHG  2   1  -1  30   1
M  END
>  <UniqueID>  (76) 
69

>  <SMILES>  (76) 
[NH-]C(=O)c1cc(-c2cccc(C(=O)N3CCCC3)c2)cc(S(=O)(=O)N2CCC(c3[nH+]nnn3-c3ccccc3)CC2)c1

>  <Energy>  (76) 
139.8471215122107

>  <Genealogy>  (76) 
[NH-]C(=O)c1cc(-c2cccc(C(=O)N3CCCC3)c2)cc(S(=O)(=O)N2CCC(c3[nH+]nnn3-c3ccccc3)CC2)c1 (protonated)
[NH-]C(=O)c1cc(-c2cccc(C(=O)N3CCCC3)c2)cc(S(=O)(=O)N2CCC(c3[nH+]nnn3-c3ccccc3)CC2)c1 (3D coordinates assigned)
[NH-]C(=O)c1cc(-c2cccc(C(=O)N3CCCC3)c2)cc(S(=O)(=O)N2CCC(c3[nH+]nnn3-c3ccccc3)CC2)c1 (nonaromatic ring conformer: 139.8471215122107 kcal/mol)

>  <smiles>  (76) 
NC(=O)c1cc(-c2cccc(C(=O)N3CCCC3)c2)cc(S(=O)(=O)N2CCC(c3nnnn3-c3ccccc3)CC2)c1

>  <score_type>  (76) 
oracle

>  <origin>  (76) 
adg

>  <m_score__min__energy>  (76) 
-11.880000000000001

>  <m_primary>  (76) 
energy

$$$$
76:0
     RDKit          3D

 47 49  0  0  0  0  0  0  0  0999 V2000
   57.9260   31.9290   42.5700 C   0  0  0  0  0  0  0  0  0  0  0  0
   57.7410   31.2850   43.7310 C   0  0  0  0  0  0  0  0  0  0  0  0
   58.6000   31.4950   44.8260 O   0  0  0  0  0  0  0  0  0  0  0  0
   58.9030   32.7290   45.4210 C   0  0  0  0  0  0  0  0  0  0  0  0
   58.9190   33.9130   44.6650 C   0  0  0  0  0  0  0  0  0  0  0  0
   59.2220   35.1340   45.2670 C   0  0  0  0  0  0  0  0  0  0  0  0
   59.5270   35.1850   46.6290 C   0  0  0  0  0  0  0  0  0  0  0  0
   59.5380   34.0130   47.3870 C   0  0  0  0  0  0  0  0  0  0  0  0
   59.2280   32.7770   46.7930 C   0  0  0  0  0  0  0  0  0  0  0  0
   59.2570   31.5400   47.6040 C   0  0  0  0  0  0  0  0  0  0  0  0
   58.6370   31.3690   48.8300 C   0  0  0  0  0  0  0  0  0  0  0  0
   58.9210   30.0630   49.1900 C   0  0  0  0  0  0  0  0  0  0  0  0
   59.6750   29.4990   48.2300 N   0  0  0  0  0  0  0  0  0  0  0  0
   59.8880   30.3900   47.2740 N   0  0  0  0  0  0  0  0  0  0  0  0
   60.6830   30.1190   46.0790 C   0  0  0  0  0  0  0  0  0  0  0  0
   56.5640   30.4140   43.9510 C   0  0  0  0  0  0  0  0  0  0  0  0
   55.8070   30.1680   42.9740 O   0  0  0  0  0  0  0  0  0  0  0  0
   56.2870   29.7760   45.2070 N   0  0  0  0  0  0  0  0  0  0  0  0
   56.7500   28.6260   45.5950 C   0  0  0  0  0  0  0  0  0  0  0  0
   55.9170   27.5520   45.6150 N   0  0  0  0  0  0  0  0  0  0  0  0
   56.3440   26.3330   46.0480 C   0  0  0  0  0  0  0  0  0  0  0  0
   55.4790   25.2350   46.0640 O   0  0  0  0  0  0  0  0  0  0  0  0
   55.4650   24.2510   45.0370 C   0  0  0  0  0  0  0  0  0  0  0  0
   57.6580   26.1800   46.4860 C   0  0  0  0  0  0  0  0  0  0  0  0
   58.5080   27.2860   46.4610 C   0  0  0  0  0  0  0  0  0  0  0  0
   59.8280   27.1450   46.8990 O   0  0  0  0  0  0  0  0  0  0  0  0
   60.6730   26.0820   46.4710 C   0  0  0  0  0  0  0  0  0  0  0  0
   58.0390   28.4860   46.0180 N   0  0  0  0  0  0  0  0  0  0  0  0
   57.2427   31.7500   41.7268 H   0  0  0  0  0  0  0  0  0  0  0  0
   58.7612   32.6365   42.4605 H   0  0  0  0  0  0  0  0  0  0  0  0
   58.6907   33.8767   43.5896 H   0  0  0  0  0  0  0  0  0  0  0  0
   59.2208   36.0572   44.6689 H   0  0  0  0  0  0  0  0  0  0  0  0
   59.7587   36.1494   47.1046 H   0  0  0  0  0  0  0  0  0  0  0  0
   59.7910   34.0567   48.4566 H   0  0  0  0  0  0  0  0  0  0  0  0
   58.0486   32.1080   49.3936 H   0  0  0  0  0  0  0  0  0  0  0  0
   58.5844   29.5668   50.1122 H   0  0  0  0  0  0  0  0  0  0  0  0
   60.0430   28.5220   48.2320 H   0  0  0  0  0  0  0  0  0  0  0  0
   61.6857   29.7772   46.3754 H   0  0  0  0  0  0  0  0  0  0  0  0
   60.1912   29.3377   45.4808 H   0  0  0  0  0  0  0  0  0  0  0  0
   60.7708   31.0380   45.4808 H   0  0  0  0  0  0  0  0  0  0  0  0
   55.4507   23.2486   45.4898 H   0  0  0  0  0  0  0  0  0  0  0  0
   54.5687   24.3845   44.4135 H   0  0  0  0  0  0  0  0  0  0  0  0
   56.3648   24.3589   44.4135 H   0  0  0  0  0  0  0  0  0  0  0  0
   58.0186   25.2047   46.8450 H   0  0  0  0  0  0  0  0  0  0  0  0
   61.0846   25.5642   47.3499 H   0  0  0  0  0  0  0  0  0  0  0  0
   60.0905   25.3714   45.8662 H   0  0  0  0  0  0  0  0  0  0  0  0
   61.4967   26.4892   45.8662 H   0  0  0  0  0  0  0  0  0  0  0  0
  1  2  2  0
  2  3  1  0
  3  4  1  0
  4  5  2  0
  5  6  1  0
  6  7  2  0
  7  8  1  0
  8  9  2  0
  9 10  1  0
 10 11  2  0
 11 12  1  0
 12 13  2  0
 13 14  1  0
 14 15  1  0
  2 16  1  0
 16 17  2  0
 16 18  1  0
 18 19  2  3
 19 20  1  0
 20 21  2  0
 21 22  1  0
 22 23  1  0
 21 24  1  0
 24 25  2  0
 25 26  1  0
 26 27  1  0
 25 28  1  0
  9  4  1  0
 14 10  1  0
 28 19  1  0
  1 29  1  0
  1 30  1  0
  5 31  1  0
  6 32  1  0
  7 33  1  0
  8 34  1  0
 11 35  1  0
 12 36  1  0
 13 37  1  0
 15 38  1  0
 15 39  1  0
 15 40  1  0
 23 41  1  0
 23 42  1  0
 23 43  1  0
 24 44  1  0
 27 45  1  0
 27 46  1  0
 27 47  1  0
M  CHG  2  13   1  28  -1
M  END
>  <UniqueID>  (77) 
70

>  <SMILES>  (77) 
C=C(Oc1ccccc1-c1cc[nH+]n1C)C(=O)N=c1nc(OC)cc(OC)[n-]1

>  <Energy>  (77) 
93.7294419631563

>  <Genealogy>  (77) 
C=C(Oc1ccccc1-c1cc[nH+]n1C)C(=O)N=c1nc(OC)cc(OC)[n-]1 (protonated)
C=C(Oc1ccccc1-c1cc[nH+]n1C)C(=O)N=c1nc(OC)cc(OC)[n-]1 (3D coordinates assigned)
C=C(Oc1ccccc1-c1cc[nH+]n1C)C(=O)N=c1nc(OC)cc(OC)[n-]1 (optimized conformer: 93.7294419631563 kcal/mol)

>  <smiles>  (77) 
C=C(Oc1ccccc1-c1ccnn1C)C(=O)N=c1nc(OC)cc(OC)[nH]1

>  <score_type>  (77) 
oracle

>  <origin>  (77) 
adg

>  <m_score__min__energy>  (77) 
-8.1699999999999999

>  <m_primary>  (77) 
energy

$$$$
77:0
     RDKit          3D

 62 65  0  0  0  0  0  0  0  0999 V2000
   52.8670   29.8130   52.1240 C   0  0  0  0  0  0  0  0  0  0  0  0
   54.1160   29.1090   52.5590 C   0  0  0  0  0  0  0  0  0  0  0  0
   54.0580   27.8710   52.7900 O   0  0  0  0  0  0  0  0  0  0  0  0
   55.3700   29.8110   52.7200 N   0  0  0  0  0  0  0  0  0  0  0  0
   56.4650   29.1360   53.4360 C   0  0  0  0  0  0  0  0  0  0  0  0
   57.6540   30.0760   53.6520 C   0  0  0  0  0  0  0  0  0  0  0  0
   57.9870   30.7380   52.3840 N   0  0  0  0  0  0  0  0  0  0  0  0
   59.2700   30.5170   51.7600 C   0  0  0  0  0  0  0  0  0  0  0  0
   59.9250   29.4710   52.0260 O   0  0  0  0  0  0  0  0  0  0  0  0
   59.8310   31.4740   50.7840 C   0  0  0  0  0  0  0  0  0  0  0  0
   59.1570   32.6740   50.5140 C   0  0  0  0  0  0  0  0  0  0  0  0
   59.6620   33.5740   49.5740 C   0  0  0  0  0  0  0  0  0  0  0  0
   60.8410   33.2820   48.8750 C   0  0  0  0  0  0  0  0  0  0  0  0
   61.3490   34.2270   47.8160 C   0  0  0  0  0  0  0  0  0  0  0  0
   61.1900   33.6420   46.4060 C   0  0  0  0  0  0  0  0  0  0  0  0
   59.7770   33.1960   46.1480 C   0  0  0  0  0  0  0  0  0  0  0  0
   58.8110   34.0270   45.7200 N   0  0  0  0  0  0  0  0  0  0  0  0
   57.7190   33.2380   45.6810 C   0  0  0  0  0  0  0  0  0  0  0  0
   56.5940   33.6580   45.3120 O   0  0  0  0  0  0  0  0  0  0  0  0
   57.9290   31.9600   46.0640 N   0  0  0  0  0  0  0  0  0  0  0  0
   59.2370   31.9420   46.3730 C   0  0  0  0  0  0  0  0  0  0  0  0
   59.9560   30.7010   46.8130 C   0  0  0  0  0  0  0  0  0  0  0  0
   59.0420   29.5110   46.7010 C   0  0  0  0  0  0  0  0  0  0  0  0
   58.9850   28.5700   47.7430 C   0  0  0  0  0  0  0  0  0  0  0  0
   58.1980   27.4200   47.6130 C   0  0  0  0  0  0  0  0  0  0  0  0
   57.4650   27.1950   46.4390 C   0  0  0  0  0  0  0  0  0  0  0  0
   56.4600   25.7600   46.2690 S   0  0  0  0  0  0  0  0  0  0  0  0
   54.8200   26.2300   45.9940 N   0  0  0  0  0  0  0  0  0  0  0  0
   56.9330   24.9270   45.1090 O   0  0  0  0  0  0  0  0  0  0  0  0
   56.5460   24.9400   47.5260 O   0  0  0  0  0  0  0  0  0  0  0  0
   57.5260   28.1270   45.3960 C   0  0  0  0  0  0  0  0  0  0  0  0
   58.3180   29.2750   45.5190 C   0  0  0  0  0  0  0  0  0  0  0  0
   61.5060   32.0710   49.1270 C   0  0  0  0  0  0  0  0  0  0  0  0
   61.0050   31.1750   50.0750 C   0  0  0  0  0  0  0  0  0  0  0  0
   56.9130   31.4020   51.6250 C   0  0  0  0  0  0  0  0  0  0  0  0
   55.5380   31.2090   52.2830 C   0  0  0  0  0  0  0  0  0  0  0  0
   52.2990   30.1331   53.0100 H   0  0  0  0  0  0  0  0  0  0  0  0
   53.1335   30.6938   51.5213 H   0  0  0  0  0  0  0  0  0  0  0  0
   52.2515   29.1289   51.5213 H   0  0  0  0  0  0  0  0  0  0  0  0
   56.0961   28.7948   54.4145 H   0  0  0  0  0  0  0  0  0  0  0  0
   56.8031   28.2841   52.8278 H   0  0  0  0  0  0  0  0  0  0  0  0
   57.3908   30.8343   54.4042 H   0  0  0  0  0  0  0  0  0  0  0  0
   58.5210   29.4980   54.0043 H   0  0  0  0  0  0  0  0  0  0  0  0
   58.2235   32.9077   51.0469 H   0  0  0  0  0  0  0  0  0  0  0  0
   59.1314   34.5180   49.3808 H   0  0  0  0  0  0  0  0  0  0  0  0
   60.7824   35.1679   47.8770 H   0  0  0  0  0  0  0  0  0  0  0  0
   62.4206   34.3982   47.9962 H   0  0  0  0  0  0  0  0  0  0  0  0
   61.4622   34.4107   45.6678 H   0  0  0  0  0  0  0  0  0  0  0  0
   61.8486   32.7651   46.3209 H   0  0  0  0  0  0  0  0  0  0  0  0
   60.8377   30.5447   46.1742 H   0  0  0  0  0  0  0  0  0  0  0  0
   60.2709   30.8177   47.8605 H   0  0  0  0  0  0  0  0  0  0  0  0
   59.5614   28.7379   48.6647 H   0  0  0  0  0  0  0  0  0  0  0  0
   58.1543   26.6900   48.4347 H   0  0  0  0  0  0  0  0  0  0  0  0
   54.7930   26.7220   45.0720 H   0  0  0  0  0  0  0  0  0  0  0  0
   56.9488   27.9565   44.4753 H   0  0  0  0  0  0  0  0  0  0  0  0
   58.3740   29.9943   44.6886 H   0  0  0  0  0  0  0  0  0  0  0  0
   62.4258   31.8266   48.5754 H   0  0  0  0  0  0  0  0  0  0  0  0
   61.5338   30.2297   50.2668 H   0  0  0  0  0  0  0  0  0  0  0  0
   57.1315   32.4786   51.5685 H   0  0  0  0  0  0  0  0  0  0  0  0
   56.8762   30.9500   50.6229 H   0  0  0  0  0  0  0  0  0  0  0  0
   55.4570   31.8739   53.1556 H   0  0  0  0  0  0  0  0  0  0  0  0
   54.7542   31.4508   51.5501 H   0  0  0  0  0  0  0  0  0  0  0  0
  1  2  1  0
  2  3  2  0
  2  4  1  0
  4  5  1  0
  5  6  1  0
  6  7  1  0
  7  8  1  0
  8  9  2  0
  8 10  1  0
 10 11  2  0
 11 12  1  0
 12 13  2  0
 13 14  1  0
 14 15  1  0
 15 16  1  0
 16 17  1  0
 17 18  1  0
 18 19  2  0
 18 20  1  0
 20 21  1  0
 21 22  1  0
 22 23  1  0
 23 24  2  0
 24 25  1  0
 25 26  2  0
 26 27  1  0
 27 28  1  0
 27 29  2  0
 27 30  2  0
 26 31  1  0
 31 32  2  0
 13 33  1  0
 33 34  2  0
  7 35  1  0
 35 36  1  0
 36  4  1  0
 34 10  1  0
 21 16  2  0
 32 23  1  0
  1 37  1  0
  1 38  1  0
  1 39  1  0
  5 40  1  0
  5 41  1  0
  6 42  1  0
  6 43  1  0
 11 44  1  0
 12 45  1  0
 14 46  1  0
 14 47  1  0
 15 48  1  0
 15 49  1  0
 22 50  1  0
 22 51  1  0
 24 52  1  0
 25 53  1  0
 28 54  1  0
 31 55  1  0
 32 56  1  0
 33 57  1  0
 34 58  1  0
 35 59  1  0
 35 60  1  0
 36 61  1  0
 36 62  1  0
M  CHG  3  17  -1  20  -1  28  -1
M  END
>  <UniqueID>  (78) 
71

>  <SMILES>  (78) 
CC(=O)N1CCN(C(=O)c2ccc(CCc3[n-]c(=O)[n-]c3Cc3ccc(S([NH-])(=O)=O)cc3)cc2)CC1

>  <Energy>  (78) 
93.43515308932207

>  <Genealogy>  (78) 
CC(=O)N1CCN(C(=O)c2ccc(CCc3[n-]c(=O)[n-]c3Cc3ccc(S([NH-])(=O)=O)cc3)cc2)CC1 (protonated)
CC(=O)N1CCN(C(=O)c2ccc(CCc3[n-]c(=O)[n-]c3Cc3ccc(S([NH-])(=O)=O)cc3)cc2)CC1 (3D coordinates assigned)
CC(=O)N1CCN(C(=O)c2ccc(CCc3[n-]c(=O)[n-]c3Cc3ccc(S([NH-])(=O)=O)cc3)cc2)CC1 (nonaromatic ring conformer: 93.43515308932207 kcal/mol)

>  <smiles>  (78) 
CC(=O)N1CCN(C(=O)c2ccc(CCc3[nH]c(=O)[nH]c3Cc3ccc(S(N)(=O)=O)cc3)cc2)CC1

>  <score_type>  (78) 
oracle

>  <origin>  (78) 
adg

>  <m_score__min__energy>  (78) 
-13.77

>  <m_primary>  (78) 
energy

$$$$
78:0
     RDKit          3D

 58 61  0  0  0  0  0  0  0  0999 V2000
   55.1510   26.6720   45.9910 N   0  0  0  0  0  0  0  0  0  0  0  0
   56.3070   25.3870   45.9690 S   0  0  0  0  0  0  0  0  0  0  0  0
   55.8460   24.2990   46.8990 O   0  0  0  0  0  0  0  0  0  0  0  0
   56.4160   24.8440   44.5720 O   0  0  0  0  0  0  0  0  0  0  0  0
   57.8730   25.9760   46.4930 C   0  0  0  0  0  0  0  0  0  0  0  0
   59.0910   25.6990   45.8900 C   0  0  0  0  0  0  0  0  0  0  0  0
   60.1700   26.3240   46.5250 C   0  0  0  0  0  0  0  0  0  0  0  0
   59.7910   27.0840   47.6260 C   0  0  0  0  0  0  0  0  0  0  0  0
   60.7090   27.9140   48.4790 C   0  0  0  0  0  0  0  0  0  0  0  0
   60.5150   29.3660   48.2540 N   0  0  0  0  0  0  0  0  0  0  0  0
   59.1270   29.7730   48.6120 C   0  0  0  0  0  0  0  0  0  0  0  0
   59.0350   30.3330   50.0420 C   0  0  0  0  0  0  0  0  0  0  0  0
   59.8960   31.5280   50.2370 N   0  0  0  0  0  0  0  0  0  0  0  0
   59.1110   32.7790   50.1880 C   0  0  0  0  0  0  0  0  0  0  0  0
   59.1000   33.3550   48.7950 C   0  0  0  0  0  0  0  0  0  0  0  0
   59.9320   34.4390   48.4810 C   0  0  0  0  0  0  0  0  0  0  0  0
   59.9540   34.9570   47.1840 C   0  0  0  0  0  0  0  0  0  0  0  0
   59.1390   34.4040   46.1930 C   0  0  0  0  0  0  0  0  0  0  0  0
   58.2850   33.3320   46.4960 C   0  0  0  0  0  0  0  0  0  0  0  0
   57.4350   32.7290   45.4500 C   0  0  0  0  0  0  0  0  0  0  0  0
   56.6330   33.4680   44.8160 O   0  0  0  0  0  0  0  0  0  0  0  0
   57.5080   31.3260   45.1330 N   0  0  0  0  0  0  0  0  0  0  0  0
   56.4740   30.6400   44.3770 C   0  0  0  0  0  0  0  0  0  0  0  0
   57.0900   29.3200   43.9280 C   0  0  0  0  0  0  0  0  0  0  0  0
   58.3610   29.1430   44.7540 C   0  0  0  0  0  0  0  0  0  0  0  0
   58.7090   30.5230   45.2950 C   0  0  0  0  0  0  0  0  0  0  0  0
   58.2850   32.7990   47.7950 C   0  0  0  0  0  0  0  0  0  0  0  0
   61.0490   31.5750   49.3030 C   0  0  0  0  0  0  0  0  0  0  0  0
   61.5490   30.1650   48.9690 C   0  0  0  0  0  0  0  0  0  0  0  0
   58.1200   26.9960   47.8050 S   0  0  0  0  0  0  0  0  0  0  0  0
   55.1650   27.1110   45.0430 H   0  0  0  0  0  0  0  0  0  0  0  0
   59.1977   25.0550   45.0047 H   0  0  0  0  0  0  0  0  0  0  0  0
   61.2122   26.2242   46.1875 H   0  0  0  0  0  0  0  0  0  0  0  0
   60.5104   27.6890   49.5373 H   0  0  0  0  0  0  0  0  0  0  0  0
   61.7448   27.6635   48.2063 H   0  0  0  0  0  0  0  0  0  0  0  0
   60.6270   29.5430   47.2270 H   0  0  0  0  0  0  0  0  0  0  0  0
   58.7920   30.5474   47.9063 H   0  0  0  0  0  0  0  0  0  0  0  0
   58.4889   28.8786   48.5584 H   0  0  0  0  0  0  0  0  0  0  0  0
   57.9908   30.6125   50.2458 H   0  0  0  0  0  0  0  0  0  0  0  0
   59.3841   29.5510   50.7323 H   0  0  0  0  0  0  0  0  0  0  0  0
   58.0770   32.5674   50.4980 H   0  0  0  0  0  0  0  0  0  0  0  0
   59.5743   33.5106   50.8663 H   0  0  0  0  0  0  0  0  0  0  0  0
   60.5700   34.8833   49.2592 H   0  0  0  0  0  0  0  0  0  0  0  0
   60.6147   35.8026   46.9422 H   0  0  0  0  0  0  0  0  0  0  0  0
   59.1667   34.8104   45.1712 H   0  0  0  0  0  0  0  0  0  0  0  0
   55.5948   30.4555   45.0118 H   0  0  0  0  0  0  0  0  0  0  0  0
   56.1359   31.2400   43.5193 H   0  0  0  0  0  0  0  0  0  0  0  0
   56.3934   28.4899   44.1168 H   0  0  0  0  0  0  0  0  0  0  0  0
   57.3089   29.3250   42.8500 H   0  0  0  0  0  0  0  0  0  0  0  0
   58.1831   28.4419   45.5827 H   0  0  0  0  0  0  0  0  0  0  0  0
   59.1806   28.7311   44.1468 H   0  0  0  0  0  0  0  0  0  0  0  0
   58.9867   30.4591   46.3574 H   0  0  0  0  0  0  0  0  0  0  0  0
   59.5651   30.9628   44.7624 H   0  0  0  0  0  0  0  0  0  0  0  0
   57.6414   31.9389   48.0316 H   0  0  0  0  0  0  0  0  0  0  0  0
   60.7381   32.0750   48.3739 H   0  0  0  0  0  0  0  0  0  0  0  0
   61.8668   32.1294   49.7865 H   0  0  0  0  0  0  0  0  0  0  0  0
   62.4411   30.2456   48.3305 H   0  0  0  0  0  0  0  0  0  0  0  0
   61.7838   29.6529   49.9138 H   0  0  0  0  0  0  0  0  0  0  0  0
  1  2  1  0
  2  3  2  0
  2  4  2  0
  2  5  1  0
  5  6  2  0
  6  7  1  0
  7  8  2  0
  8  9  1  0
  9 10  1  0
 10 11  1  0
 11 12  1  0
 12 13  1  0
 13 14  1  0
 14 15  1  0
 15 16  2  0
 16 17  1  0
 17 18  2  0
 18 19  1  0
 19 20  1  0
 20 21  2  0
 20 22  1  0
 22 23  1  0
 23 24  1  0
 24 25  1  0
 25 26  1  0
 19 27  2  0
 13 28  1  0
 28 29  1  0
  8 30  1  0
 30  5  1  0
 29 10  1  0
 27 15  1  0
 26 22  1  0
  1 31  1  0
  6 32  1  0
  7 33  1  0
  9 34  1  0
  9 35  1  0
 10 36  1  0
 11 37  1  0
 11 38  1  0
 12 39  1  0
 12 40  1  0
 14 41  1  0
 14 42  1  0
 16 43  1  0
 17 44  1  0
 18 45  1  0
 23 46  1  0
 23 47  1  0
 24 48  1  0
 24 49  1  0
 25 50  1  0
 25 51  1  0
 26 52  1  0
 26 53  1  0
 27 54  1  0
 28 55  1  0
 28 56  1  0
 29 57  1  0
 29 58  1  0
M  CHG  2   1  -1  10   1
M  END
>  <UniqueID>  (79) 
72

>  <SMILES>  (79) 
[NH-]S(=O)(=O)c1ccc(C[NH+]2CCN(Cc3cccc(C(=O)N4CCCC4)c3)CC2)s1

>  <Energy>  (79) 
103.13104426591413

>  <Genealogy>  (79) 
[NH-]S(=O)(=O)c1ccc(C[NH+]2CCN(Cc3cccc(C(=O)N4CCCC4)c3)CC2)s1 (protonated)
[NH-]S(=O)(=O)c1ccc(C[NH+]2CCN(Cc3cccc(C(=O)N4CCCC4)c3)CC2)s1 (3D coordinates assigned)
[NH-]S(=O)(=O)c1ccc(C[NH+]2CCN(Cc3cccc(C(=O)N4CCCC4)c3)CC2)s1 (nonaromatic ring conformer: 103.13104426591413 kcal/mol)

>  <smiles>  (79) 
NS(=O)(=O)c1ccc(CN2CCN(Cc3cccc(C(=O)N4CCCC4)c3)CC2)s1

>  <score_type>  (79) 
oracle

>  <origin>  (79) 
adg

>  <m_score__min__energy>  (79) 
-11.07

>  <m_primary>  (79) 
energy

$$$$
79:0
     RDKit          3D

 76 80  0  0  0  0  0  0  0  0999 V2000
   55.7990   29.3430   44.6370 C   0  0  0  0  0  0  0  0  0  0  0  0
   57.1820   29.9440   44.2900 C   0  0  2  0  0  0  0  0  0  0  0  0
   58.2670   28.9140   44.3600 N   0  0  0  0  0  0  0  0  0  0  0  0
   58.7260   28.4530   45.6880 C   0  0  0  0  0  0  0  0  0  0  0  0
   57.7430   27.4650   46.3200 C   0  0  0  0  0  0  0  0  0  0  0  0
   57.2190   26.5220   45.3220 N   0  0  0  0  0  0  0  0  0  0  0  0
   56.1520   25.6380   45.7260 C   0  0  0  0  0  0  0  0  0  0  0  0
   55.1640   26.1170   46.3440 O   0  0  0  0  0  0  0  0  0  0  0  0
   56.2510   24.2090   45.5810 N   0  0  0  0  0  0  0  0  0  0  0  0
   56.4010   23.5750   44.2680 C   0  0  0  0  0  0  0  0  0  0  0  0
   55.8240   22.1540   44.2770 C   0  0  0  0  0  0  0  0  0  0  0  0
   56.2800   21.4230   45.3970 O   0  0  0  0  0  0  0  0  0  0  0  0
   55.7720   22.0090   46.5770 C   0  0  0  0  0  0  0  0  0  0  0  0
   56.3820   23.3940   46.7950 C   0  0  0  0  0  0  0  0  0  0  0  0
   57.8720   26.4170   44.0140 C   0  0  0  0  0  0  0  0  0  0  0  0
   58.1300   27.8040   43.3820 C   0  0  0  0  0  0  0  0  0  0  0  0
   57.5010   31.0160   45.2560 N   0  0  0  0  0  0  0  0  0  0  0  0
   57.0630   32.3080   44.7260 C   0  0  1  0  0  0  0  0  0  0  0  0
   57.7360   33.4550   45.4610 C   0  0  0  0  0  0  0  0  0  0  0  0
   57.1190   34.4960   45.6450 O   0  0  0  0  0  0  0  0  0  0  0  0
   59.1500   33.3460   46.0130 C   0  0  1  0  0  0  0  0  0  0  0  0
   59.4600   34.4920   46.9990 C   0  0  0  0  0  0  0  0  0  0  0  0
   60.6960   34.2220   47.8210 C   0  0  0  0  0  0  0  0  0  0  0  0
   60.6620   34.3350   49.2210 C   0  0  0  0  0  0  0  0  0  0  0  0
   61.8170   34.1050   49.9750 C   0  0  0  0  0  0  0  0  0  0  0  0
   63.0150   33.7670   49.3360 C   0  0  0  0  0  0  0  0  0  0  0  0
   63.0600   33.6610   47.9410 C   0  0  0  0  0  0  0  0  0  0  0  0
   61.9050   33.8880   47.1860 C   0  0  0  0  0  0  0  0  0  0  0  0
   59.3570   32.0490   46.6660 N   0  0  0  0  0  0  0  0  0  0  0  0
   58.8940   31.7770   47.9990 C   0  0  0  0  0  0  0  0  0  0  0  0
   58.0470   32.5440   48.5330 O   0  0  0  0  0  0  0  0  0  0  0  0
   59.3940   30.6050   48.7570 C   0  0  0  0  0  0  0  0  0  0  0  0
   60.2290   29.6510   48.1440 C   0  0  0  0  0  0  0  0  0  0  0  0
   60.6980   28.5520   48.8690 C   0  0  0  0  0  0  0  0  0  0  0  0
   60.3490   28.3960   50.2120 C   0  0  0  0  0  0  0  0  0  0  0  0
   59.5350   29.3450   50.8350 C   0  0  0  0  0  0  0  0  0  0  0  0
   59.0620   30.4460   50.1150 C   0  0  0  0  0  0  0  0  0  0  0  0
   57.4000   32.3330   43.2460 C   0  0  0  0  0  0  0  0  0  0  0  0
   57.0590   30.6840   42.6110 S   0  0  0  0  0  0  0  0  0  0  0  0
   55.6846   29.2933   45.7299 H   0  0  0  0  0  0  0  0  0  0  0  0
   55.0067   29.9780   44.2139 H   0  0  0  0  0  0  0  0  0  0  0  0
   55.7226   28.3305   44.2139 H   0  0  0  0  0  0  0  0  0  0  0  0
   59.7028   27.9599   45.5752 H   0  0  0  0  0  0  0  0  0  0  0  0
   58.7986   29.3306   46.3472 H   0  0  0  0  0  0  0  0  0  0  0  0
   58.2602   26.9004   47.1098 H   0  0  0  0  0  0  0  0  0  0  0  0
   56.8990   28.0336   46.7376 H   0  0  0  0  0  0  0  0  0  0  0  0
   55.8686   24.1751   43.5154 H   0  0  0  0  0  0  0  0  0  0  0  0
   57.4725   23.5176   44.0259 H   0  0  0  0  0  0  0  0  0  0  0  0
   54.7261   22.2130   44.3102 H   0  0  0  0  0  0  0  0  0  0  0  0
   56.1580   21.6373   43.3651 H   0  0  0  0  0  0  0  0  0  0  0  0
   54.6794   22.1043   46.4920 H   0  0  0  0  0  0  0  0  0  0  0  0
   56.0323   21.3679   47.4321 H   0  0  0  0  0  0  0  0  0  0  0  0
   55.8599   23.8933   47.6245 H   0  0  0  0  0  0  0  0  0  0  0  0
   57.4496   23.2795   47.0338 H   0  0  0  0  0  0  0  0  0  0  0  0
   58.8343   25.8989   44.1382 H   0  0  0  0  0  0  0  0  0  0  0  0
   57.2023   25.8578   43.3440 H   0  0  0  0  0  0  0  0  0  0  0  0
   59.0592   27.7465   42.7961 H   0  0  0  0  0  0  0  0  0  0  0  0
   57.2467   28.0362   42.7689 H   0  0  0  0  0  0  0  0  0  0  0  0
   57.0560   30.8440   46.1900 H   0  0  0  0  0  0  0  0  0  0  0  0
   55.9798   32.4332   44.8710 H   0  0  0  0  0  0  0  0  0  0  0  0
   59.8424   33.4286   45.1623 H   0  0  0  0  0  0  0  0  0  0  0  0
   59.6112   35.4194   46.4271 H   0  0  0  0  0  0  0  0  0  0  0  0
   58.6090   34.5803   47.6903 H   0  0  0  0  0  0  0  0  0  0  0  0
   59.7230   34.6055   49.7261 H   0  0  0  0  0  0  0  0  0  0  0  0
   61.7837   34.1899   51.0712 H   0  0  0  0  0  0  0  0  0  0  0  0
   63.9223   33.5844   49.9305 H   0  0  0  0  0  0  0  0  0  0  0  0
   64.0032   33.3993   47.4390 H   0  0  0  0  0  0  0  0  0  0  0  0
   61.9426   33.8048   46.0898 H   0  0  0  0  0  0  0  0  0  0  0  0
   59.8470   31.2910   46.1400 H   0  0  0  0  0  0  0  0  0  0  0  0
   60.5138   29.7715   47.0884 H   0  0  0  0  0  0  0  0  0  0  0  0
   61.3439   27.8078   48.3802 H   0  0  0  0  0  0  0  0  0  0  0  0
   60.7146   27.5269   50.7787 H   0  0  0  0  0  0  0  0  0  0  0  0
   59.2655   29.2257   51.8948 H   0  0  0  0  0  0  0  0  0  0  0  0
   58.4263   31.1927   50.6133 H   0  0  0  0  0  0  0  0  0  0  0  0
   56.7759   33.0756   42.7274 H   0  0  0  0  0  0  0  0  0  0  0  0
   58.4522   32.6099   43.0841 H   0  0  0  0  0  0  0  0  0  0  0  0
  2  1  1  1
  2  3  1  0
  3  4  1  0
  4  5  1  0
  5  6  1  0
  6  7  1  0
  7  8  2  0
  7  9  1  0
  9 10  1  0
 10 11  1  0
 11 12  1  0
 12 13  1  0
 13 14  1  0
  6 15  1  0
 15 16  1  0
  2 17  1  0
 17 18  1  0
 18 19  1  0
 19 20  2  0
 19 21  1  0
 21 22  1  0
 22 23  1  0
 23 24  2  0
 24 25  1  0
 25 26  2  0
 26 27  1  0
 27 28  2  0
 21 29  1  0
 29 30  1  0
 30 31  2  0
 30 32  1  0
 32 33  2  0
 33 34  1  0
 34 35  2  0
 35 36  1  0
 36 37  2  0
 18 38  1  0
 38 39  1  0
 39  2  1  0
 16  3  1  0
 28 23  1  0
 37 32  1  0
 14  9  1  0
  1 40  1  0
  1 41  1  0
  1 42  1  0
  4 43  1  0
  4 44  1  0
  5 45  1  0
  5 46  1  0
 10 47  1  0
 10 48  1  0
 11 49  1  0
 11 50  1  0
 13 51  1  0
 13 52  1  0
 14 53  1  0
 14 54  1  0
 15 55  1  0
 15 56  1  0
 16 57  1  0
 16 58  1  0
 17 59  1  0
 18 60  1  6
 21 61  1  6
 22 62  1  0
 22 63  1  0
 24 64  1  0
 25 65  1  0
 26 66  1  0
 27 67  1  0
 28 68  1  0
 29 69  1  0
 33 70  1  0
 34 71  1  0
 35 72  1  0
 36 73  1  0
 37 74  1  0
 38 75  1  0
 38 76  1  0
M  END
>  <UniqueID>  (80) 
73

>  <SMILES>  (80) 
C[C@]1(N2CCN(C(=O)N3CCOCC3)CC2)N[C@@H](C(=O)C(Cc2ccccc2)NC(=O)c2ccccc2)CS1

>  <Energy>  (80) 
101.39519732339843

>  <Genealogy>  (80) 
C[C@]1(N2CCN(C(=O)N3CCOCC3)CC2)N[C@@H](C(=O)C(Cc2ccccc2)NC(=O)c2ccccc2)CS1 (chirality)
C[C@]1(N2CCN(C(=O)N3CCOCC3)CC2)N[C@@H](C(=O)C(Cc2ccccc2)NC(=O)c2ccccc2)CS1 (3D coordinates assigned)
C[C@]1(N2CCN(C(=O)N3CCOCC3)CC2)N[C@@H](C(=O)C(Cc2ccccc2)NC(=O)c2ccccc2)CS1 (nonaromatic ring conformer: 101.39519732339843 kcal/mol)

>  <smiles>  (80) 
CC1(N2CCN(C(=O)N3CCOCC3)CC2)NC(C(=O)C(Cc2ccccc2)NC(=O)c2ccccc2)CS1

>  <score_type>  (80) 
oracle

>  <origin>  (80) 
adg

>  <m_score__min__energy>  (80) 
-10.67

>  <m_primary>  (80) 
energy

$$$$
80:0
     RDKit          3D

 50 53  0  0  0  0  0  0  0  0999 V2000
   56.2960   28.4290   53.7350 C   0  0  0  0  0  0  0  0  0  0  0  0
   57.4200   29.4110   54.0470 C   0  0  0  0  0  0  0  0  0  0  0  0
   56.8990   30.8500   54.1190 C   0  0  0  0  0  0  0  0  0  0  0  0
   57.6470   31.7110   53.1850 N   0  0  0  0  0  0  0  0  0  0  0  0
   58.4530   32.7310   53.6700 C   0  0  0  0  0  0  0  0  0  0  0  0
   58.5420   32.9440   54.9100 O   0  0  0  0  0  0  0  0  0  0  0  0
   59.1710   33.5190   52.8140 N   0  0  0  0  0  0  0  0  0  0  0  0
   59.0830   33.2810   51.4880 C   0  0  0  0  0  0  0  0  0  0  0  0
   59.7250   33.9380   50.5130 N   0  0  0  0  0  0  0  0  0  0  0  0
   59.2890   33.2830   49.4030 C   0  0  0  0  0  0  0  0  0  0  0  0
   59.7760   33.6130   48.0300 C   0  0  0  0  0  0  0  0  0  0  0  0
   58.8830   32.9770   47.0010 C   0  0  0  0  0  0  0  0  0  0  0  0
   59.1840   31.7050   46.4910 C   0  0  0  0  0  0  0  0  0  0  0  0
   58.3340   31.0980   45.5620 C   0  0  0  0  0  0  0  0  0  0  0  0
   57.1610   31.7400   45.1490 C   0  0  0  0  0  0  0  0  0  0  0  0
   56.3280   31.0910   44.1770 N   0  0  0  0  0  0  0  0  0  0  0  0
   56.1840   29.6770   43.9820 C   0  0  0  0  0  0  0  0  0  0  0  0
   56.2370   29.1840   42.8250 O   0  0  0  0  0  0  0  0  0  0  0  0
   55.8670   28.8230   45.0860 N   0  0  0  0  0  0  0  0  0  0  0  0
   56.7260   27.8220   45.6530 C   0  0  0  0  0  0  0  0  0  0  0  0
   58.1170   28.0210   45.7490 C   0  0  0  0  0  0  0  0  0  0  0  0
   58.9390   27.0240   46.2840 C   0  0  0  0  0  0  0  0  0  0  0  0
   60.6690   27.2860   46.4050 Cl  0  0  0  0  0  0  0  0  0  0  0  0
   58.3840   25.8140   46.7080 C   0  0  0  0  0  0  0  0  0  0  0  0
   57.0100   25.5970   46.5910 C   0  0  0  0  0  0  0  0  0  0  0  0
   56.1780   26.5880   46.0590 C   0  0  0  0  0  0  0  0  0  0  0  0
   54.8110   26.3300   45.9530 O   0  0  0  0  0  0  0  0  0  0  0  0
   56.8630   33.0200   45.6510 C   0  0  0  0  0  0  0  0  0  0  0  0
   57.7130   33.6270   46.5790 C   0  0  0  0  0  0  0  0  0  0  0  0
   58.4340   32.2520   49.6490 N   0  0  0  0  0  0  0  0  0  0  0  0
   58.3250   32.2900   50.9840 C   0  0  0  0  0  0  0  0  0  0  0  0
   57.5900   31.4720   51.8280 C   0  0  0  0  0  0  0  0  0  0  0  0
   56.8940   30.5330   51.3530 O   0  0  0  0  0  0  0  0  0  0  0  0
   55.8659   28.0532   54.6751 H   0  0  0  0  0  0  0  0  0  0  0  0
   55.5147   28.9390   53.1524 H   0  0  0  0  0  0  0  0  0  0  0  0
   56.6965   27.5863   53.1524 H   0  0  0  0  0  0  0  0  0  0  0  0
   57.8704   29.1443   55.0145 H   0  0  0  0  0  0  0  0  0  0  0  0
   58.1659   29.3521   53.2407 H   0  0  0  0  0  0  0  0  0  0  0  0
   55.8323   30.8638   53.8506 H   0  0  0  0  0  0  0  0  0  0  0  0
   57.0343   31.2293   55.1426 H   0  0  0  0  0  0  0  0  0  0  0  0
   59.7692   34.7045   47.8936 H   0  0  0  0  0  0  0  0  0  0  0  0
   60.7992   33.2281   47.9076 H   0  0  0  0  0  0  0  0  0  0  0  0
   60.0932   31.1829   46.8238 H   0  0  0  0  0  0  0  0  0  0  0  0
   58.5888   30.1092   45.1529 H   0  0  0  0  0  0  0  0  0  0  0  0
   58.5594   28.9661   45.4011 H   0  0  0  0  0  0  0  0  0  0  0  0
   59.0299   25.0322   47.1341 H   0  0  0  0  0  0  0  0  0  0  0  0
   56.5784   24.6400   46.9194 H   0  0  0  0  0  0  0  0  0  0  0  0
   54.2430   26.7130   45.2060 H   0  0  0  0  0  0  0  0  0  0  0  0
   55.9577   33.5447   45.3117 H   0  0  0  0  0  0  0  0  0  0  0  0
   57.4637   34.6200   46.9811 H   0  0  0  0  0  0  0  0  0  0  0  0
  1  2  1  0
  2  3  1  0
  3  4  1  0
  4  5  1  0
  5  6  2  0
  5  7  1  0
  7  8  1  0
  8  9  1  0
  9 10  1  0
 10 11  1  0
 11 12  1  0
 12 13  2  0
 13 14  1  0
 14 15  2  0
 15 16  1  0
 16 17  1  0
 17 18  2  0
 17 19  1  0
 19 20  1  0
 20 21  2  0
 21 22  1  0
 22 23  1  0
 22 24  2  0
 24 25  1  0
 25 26  2  0
 26 27  1  0
 15 28  1  0
 28 29  2  0
 10 30  2  0
 30 31  1  0
 31 32  1  0
 32 33  2  0
 32  4  1  0
 31  8  2  0
 29 12  1  0
 26 20  1  0
  1 34  1  0
  1 35  1  0
  1 36  1  0
  2 37  1  0
  2 38  1  0
  3 39  1  0
  3 40  1  0
 11 41  1  0
 11 42  1  0
 13 43  1  0
 14 44  1  0
 21 45  1  0
 24 46  1  0
 25 47  1  0
 27 48  1  0
 28 49  1  0
 29 50  1  0
M  CHG  4   7  -1   9  -1  16  -1  19  -1
M  END
>  <UniqueID>  (81) 
74

>  <SMILES>  (81) 
CCCn1c(=O)[n-]c2[n-]c(Cc3ccc([N-]C(=O)[N-]c4cc(Cl)ccc4O)cc3)nc2c1=O

>  <Energy>  (81) 
95.56499834480208

>  <Genealogy>  (81) 
CCCn1c(=O)[n-]c2[n-]c(Cc3ccc([N-]C(=O)[N-]c4cc(Cl)ccc4O)cc3)nc2c1=O (protonated)
CCCn1c(=O)[n-]c2[n-]c(Cc3ccc([N-]C(=O)[N-]c4cc(Cl)ccc4O)cc3)nc2c1=O (3D coordinates assigned)
CCCn1c(=O)[n-]c2[n-]c(Cc3ccc([N-]C(=O)[N-]c4cc(Cl)ccc4O)cc3)nc2c1=O (optimized conformer: 95.56499834480208 kcal/mol)

>  <smiles>  (81) 
CCCn1c(=O)[nH]c2[nH]c(Cc3ccc(NC(=O)Nc4cc(Cl)ccc4O)cc3)nc2c1=O

>  <score_type>  (81) 
oracle

>  <origin>  (81) 
adg

>  <m_score__min__energy>  (81) 
-14.66

>  <m_primary>  (81) 
energy

$$$$
81:0
     RDKit          3D

 41 43  0  0  0  0  0  0  0  0999 V2000
   59.9020   34.0380   49.8330 C   0  0  0  0  0  0  0  0  0  0  0  0
   60.9220   33.8440   48.7440 C   0  0  0  0  0  0  0  0  0  0  0  0
   62.2080   33.3890   49.0780 C   0  0  0  0  0  0  0  0  0  0  0  0
   63.1650   33.1810   48.0840 C   0  0  0  0  0  0  0  0  0  0  0  0
   62.8500   33.4290   46.7490 C   0  0  0  0  0  0  0  0  0  0  0  0
   61.5700   33.8650   46.3990 C   0  0  0  0  0  0  0  0  0  0  0  0
   60.5820   34.0430   47.3870 C   0  0  0  0  0  0  0  0  0  0  0  0
   59.2460   34.4590   47.0530 N   0  0  0  0  0  0  0  0  0  0  0  0
   58.1010   33.6300   46.8150 C   0  0  0  0  0  0  0  0  0  0  0  0
   57.6530   32.8620   47.7080 O   0  0  0  0  0  0  0  0  0  0  0  0
   57.3810   33.7370   45.5130 C   0  0  0  0  0  0  0  0  0  0  0  0
   58.2000   32.7360   44.2240 S   0  0  0  0  0  0  0  0  0  0  0  0
   57.4160   31.1850   44.6840 C   0  0  0  0  0  0  0  0  0  0  0  0
   56.1050   30.9400   44.5050 N   0  0  0  0  0  0  0  0  0  0  0  0
   55.8930   29.6840   44.8710 N   0  0  0  0  0  0  0  0  0  0  0  0
   57.0800   29.1820   45.2660 C   0  0  0  0  0  0  0  0  0  0  0  0
   57.2740   27.7460   45.6340 C   0  0  0  0  0  0  0  0  0  0  0  0
   58.0650   30.0980   45.1520 N   0  0  0  0  0  0  0  0  0  0  0  0
   59.5090   29.9070   45.3210 C   0  0  0  0  0  0  0  0  0  0  0  0
   59.9100   30.0850   46.7520 C   0  0  0  0  0  0  0  0  0  0  0  0
   59.0540   30.2070   47.8270 C   0  0  0  0  0  0  0  0  0  0  0  0
   59.8640   30.3300   48.9350 C   0  0  0  0  0  0  0  0  0  0  0  0
   61.1610   30.2770   48.4670 C   0  0  0  0  0  0  0  0  0  0  0  0
   61.1560   30.1310   47.1620 O   0  0  0  0  0  0  0  0  0  0  0  0
   60.3908   33.9450   50.8140 H   0  0  0  0  0  0  0  0  0  0  0  0
   59.4526   35.0377   49.7406 H   0  0  0  0  0  0  0  0  0  0  0  0
   59.1169   33.2731   49.7406 H   0  0  0  0  0  0  0  0  0  0  0  0
   62.4626   33.1953   50.1304 H   0  0  0  0  0  0  0  0  0  0  0  0
   64.1687   32.8211   48.3541 H   0  0  0  0  0  0  0  0  0  0  0  0
   63.6114   33.2810   45.9691 H   0  0  0  0  0  0  0  0  0  0  0  0
   61.3320   34.0707   45.3449 H   0  0  0  0  0  0  0  0  0  0  0  0
   56.3487   33.3801   45.6431 H   0  0  0  0  0  0  0  0  0  0  0  0
   57.3891   34.7900   45.1950 H   0  0  0  0  0  0  0  0  0  0  0  0
   57.2874   27.6468   46.7294 H   0  0  0  0  0  0  0  0  0  0  0  0
   56.4486   27.1471   45.2217 H   0  0  0  0  0  0  0  0  0  0  0  0
   58.2287   27.3876   45.2217 H   0  0  0  0  0  0  0  0  0  0  0  0
   59.7779   28.8912   44.9958 H   0  0  0  0  0  0  0  0  0  0  0  0
   60.0352   30.6582   44.7137 H   0  0  0  0  0  0  0  0  0  0  0  0
   57.9542   30.2062   47.8044 H   0  0  0  0  0  0  0  0  0  0  0  0
   59.5420   30.4467   49.9803 H   0  0  0  0  0  0  0  0  0  0  0  0
   62.0630   30.3466   49.0927 H   0  0  0  0  0  0  0  0  0  0  0  0
  1  2  1  0
  2  3  2  0
  3  4  1  0
  4  5  2  0
  5  6  1  0
  6  7  2  0
  7  8  1  0
  8  9  1  0
  9 10  2  0
  9 11  1  0
 11 12  1  0
 12 13  1  0
 13 14  2  0
 14 15  1  0
 15 16  2  0
 16 17  1  0
 16 18  1  0
 18 19  1  0
 19 20  1  0
 20 21  2  0
 21 22  1  0
 22 23  2  0
 23 24  1  0
  7  2  1  0
 18 13  1  0
 24 20  1  0
  1 25  1  0
  1 26  1  0
  1 27  1  0
  3 28  1  0
  4 29  1  0
  5 30  1  0
  6 31  1  0
 11 32  1  0
 11 33  1  0
 17 34  1  0
 17 35  1  0
 17 36  1  0
 19 37  1  0
 19 38  1  0
 21 39  1  0
 22 40  1  0
 23 41  1  0
M  CHG  1   8  -1
M  END
>  <UniqueID>  (82) 
75

>  <SMILES>  (82) 
Cc1ccccc1[N-]C(=O)CSc1nnc(C)n1Cc1ccco1

>  <Energy>  (82) 
95.08050319790772

>  <Genealogy>  (82) 
Cc1ccccc1[N-]C(=O)CSc1nnc(C)n1Cc1ccco1 (protonated)
Cc1ccccc1[N-]C(=O)CSc1nnc(C)n1Cc1ccco1 (3D coordinates assigned)
Cc1ccccc1[N-]C(=O)CSc1nnc(C)n1Cc1ccco1 (optimized conformer: 95.08050319790772 kcal/mol)

>  <smiles>  (82) 
Cc1ccccc1NC(=O)CSc1nnc(C)n1Cc1ccco1

>  <score_type>  (82) 
oracle

>  <origin>  (82) 
adg

>  <m_score__min__energy>  (82) 
-9.2200000000000006

>  <m_primary>  (82) 
energy

$$$$
82:0
     RDKit          3D

 62 65  0  0  0  0  0  0  0  0999 V2000
   54.1388   28.5611   55.6593 H   0  0  0  0  0  0  0  0  0  0  0  0
   53.7490   29.3290   54.9750 C   0  0  0  0  0  0  0  0  0  0  0  0
   52.7680   29.7887   55.1656 H   0  0  0  0  0  0  0  0  0  0  0  0
   54.4720   29.7060   53.9050 C   0  0  0  0  0  0  0  0  0  0  0  0
   54.1270   30.6670   52.9340 C   0  0  0  0  0  0  0  0  0  0  0  0
   52.9710   31.3290   52.7090 C   0  0  0  0  0  0  0  0  0  0  0  0
   52.5575   31.9147   53.5432 H   0  0  0  0  0  0  0  0  0  0  0  0
   52.2170   31.3350   51.4460 C   0  0  0  0  0  0  0  0  0  0  0  0
   52.2490   30.3320   50.5490 N   0  0  0  0  0  0  0  0  0  0  0  0
   51.4170   30.7590   49.5760 C   0  0  0  0  0  0  0  0  0  0  0  0
   51.1990   30.0910   48.5280 O   0  0  0  0  0  0  0  0  0  0  0  0
   50.8410   31.9570   49.8080 N   0  0  0  0  0  0  0  0  0  0  0  0
   51.3450   32.3030   51.0050 C   0  0  0  0  0  0  0  0  0  0  0  0
   51.0200   33.4770   51.6790 O   0  0  0  0  0  0  0  0  0  0  0  0
   55.2650   30.8650   52.1650 C   0  0  0  0  0  0  0  0  0  0  0  0
   55.3765   31.5700   51.3280 H   0  0  0  0  0  0  0  0  0  0  0  0
   56.2290   30.0080   52.6520 C   0  0  0  0  0  0  0  0  0  0  0  0
   57.6220   29.9520   52.1680 C   0  0  0  0  0  0  0  0  0  0  0  0
   58.0670   28.8470   51.7500 O   0  0  0  0  0  0  0  0  0  0  0  0
   58.4610   31.1290   52.1340 N   0  0  0  0  0  0  0  0  0  0  0  0
   57.8410   32.4640   52.0470 C   0  0  0  0  0  0  0  0  0  0  0  0
   56.9135   32.3910   51.4601 H   0  0  0  0  0  0  0  0  0  0  0  0
   57.6286   32.8158   53.0674 H   0  0  0  0  0  0  0  0  0  0  0  0
   58.7810   33.4710   51.3730 C   0  0  0  0  0  0  0  0  0  0  0  0
   58.2029   34.3392   51.0237 H   0  0  0  0  0  0  0  0  0  0  0  0
   59.5410   33.8106   52.0921 H   0  0  0  0  0  0  0  0  0  0  0  0
   59.4330   32.8210   50.2300 N   0  0  0  0  0  0  0  0  0  0  0  0
   58.9430   33.1120   48.9110 C   0  0  0  0  0  0  0  0  0  0  0  0
   58.1990   32.2810   48.3230 O   0  0  0  0  0  0  0  0  0  0  0  0
   59.2900   34.4130   48.2320 C   0  0  0  0  0  0  0  0  0  0  0  0
   58.7107   34.4831   47.2996 H   0  0  0  0  0  0  0  0  0  0  0  0
   59.0467   35.2192   48.9397 H   0  0  0  0  0  0  0  0  0  0  0  0
   60.7900   34.5540   47.8860 C   0  0  1  0  0  0  0  0  0  0  0  0
   60.9351   35.5942   47.5590 H   0  0  0  0  0  0  0  0  0  0  0  0
   61.7080   34.3480   49.1240 C   0  0  0  0  0  0  0  0  0  0  0  0
   61.0977   33.9777   49.9609 H   0  0  0  0  0  0  0  0  0  0  0  0
   62.1722   35.3151   49.3672 H   0  0  0  0  0  0  0  0  0  0  0  0
   62.7910   33.3760   48.8560 N   0  0  0  0  0  0  0  0  0  0  0  0
   63.6760   33.2750   50.0270 C   0  0  0  0  0  0  0  0  0  0  0  0
   63.0764   33.3434   50.9467 H   0  0  0  0  0  0  0  0  0  0  0  0
   64.2048   32.3107   50.0049 H   0  0  0  0  0  0  0  0  0  0  0  0
   64.4084   34.0954   50.0049 H   0  0  0  0  0  0  0  0  0  0  0  0
   63.5670   33.7970   47.6730 C   0  0  0  0  0  0  0  0  0  0  0  0
   64.4227   33.1177   47.5454 H   0  0  0  0  0  0  0  0  0  0  0  0
   63.9105   34.8297   47.8326 H   0  0  0  0  0  0  0  0  0  0  0  0
   62.7040   33.7630   46.3960 C   0  0  0  0  0  0  0  0  0  0  0  0
   63.0047   32.8959   45.7897 H   0  0  0  0  0  0  0  0  0  0  0  0
   62.8661   34.7081   45.8571 H   0  0  0  0  0  0  0  0  0  0  0  0
   61.2020   33.6520   46.7050 C   0  0  0  0  0  0  0  0  0  0  0  0
   60.9669   32.6073   46.9565 H   0  0  0  0  0  0  0  0  0  0  0  0
   60.6455   33.9803   45.8148 H   0  0  0  0  0  0  0  0  0  0  0  0
   60.1920   31.5780   50.4570 C   0  0  0  0  0  0  0  0  0  0  0  0
   59.9070   30.8381   49.6945 H   0  0  0  0  0  0  0  0  0  0  0  0
   61.2660   31.8060   50.3902 H   0  0  0  0  0  0  0  0  0  0  0  0
   59.9000   31.0020   51.8490 C   0  0  0  0  0  0  0  0  0  0  0  0
   60.1880   29.9407   51.8757 H   0  0  0  0  0  0  0  0  0  0  0  0
   60.4765   31.5544   52.6056 H   0  0  0  0  0  0  0  0  0  0  0  0
   55.7430   29.2780   53.6840 N   0  0  0  0  0  0  0  0  0  0  0  0
   56.4840   28.2690   54.4510 C   0  0  0  0  0  0  0  0  0  0  0  0
   56.3484   28.4537   55.5269 H   0  0  0  0  0  0  0  0  0  0  0  0
   56.1055   27.2670   54.2004 H   0  0  0  0  0  0  0  0  0  0  0  0
   57.5533   28.3303   54.2004 H   0  0  0  0  0  0  0  0  0  0  0  0
  1  2  1  0
  2  3  1  0
  2  4  2  0
  4  5  1  0
  5  6  2  0
  6  7  1  0
  6  8  1  0
  8  9  1  0
  9 10  1  0
 10 11  2  0
 10 12  1  0
 12 13  1  0
 13 14  1  0
  5 15  1  0
 15 16  1  0
 15 17  2  0
 17 18  1  0
 18 19  2  0
 18 20  1  0
 20 21  1  0
 21 22  1  0
 21 23  1  0
 21 24  1  0
 24 25  1  0
 24 26  1  0
 24 27  1  0
 27 28  1  0
 28 29  2  0
 28 30  1  0
 30 31  1  0
 30 32  1  0
 30 33  1  0
 33 34  1  6
 33 35  1  0
 35 36  1  0
 35 37  1  0
 35 38  1  0
 38 39  1  0
 39 40  1  0
 39 41  1  0
 39 42  1  0
 38 43  1  0
 43 44  1  0
 43 45  1  0
 43 46  1  0
 46 47  1  0
 46 48  1  0
 46 49  1  0
 49 50  1  0
 49 51  1  0
 27 52  1  0
 52 53  1  0
 52 54  1  0
 52 55  1  0
 55 56  1  0
 55 57  1  0
 17 58  1  0
 58 59  1  0
 59 60  1  0
 59 61  1  0
 59 62  1  0
 58  4  1  0
 13  8  2  0
 55 20  1  0
 49 33  1  0
M  CHG  3   9  -1  12  -1  14  -1
M  END
>  <UniqueID>  (83) 
76

>  <SMILES>  (83) 
C=c1/c(=C\c2[n-]c(=O)[n-]c2[O-])cc(C(=O)N2CCN(C(=O)C[C@@H]3CCCN(C)C3)CC2)n1C

>  <Energy>  (83) 
151.4234714655296

>  <Genealogy>  (83) 
C=c1c(=Cc2[n-]c(=O)[n-]c2[O-])cc(C(=O)N2CCN(C(=O)CC3CCCN(C)C3)CC2)n1C (protonated)
C=c1c(=Cc2[n-]c(=O)[n-]c2[O-])cc(C(=O)N2CCN(C(=O)C[C@@H]3CCCN(C)C3)CC2)n1C (chirality)
C=c1/c(=C\c2[n-]c(=O)[n-]c2[O-])cc(C(=O)N2CCN(C(=O)C[C@@H]3CCCN(C)C3)CC2)n1C (cis-trans isomerization)
C=c1/c(=C\c2[n-]c(=O)[n-]c2[O-])cc(C(=O)N2CCN(C(=O)C[C@@H]3CCCN(C)C3)CC2)n1C (3D coordinates assigned)
C=c1/c(=C\c2[n-]c(=O)[n-]c2[O-])cc(C(=O)N2CCN(C(=O)C[C@@H]3CCCN(C)C3)CC2)n1C (nonaromatic ring conformer: 151.4234714655296 kcal/mol)

>  <smiles>  (83) 
C=c1c(=Cc2[nH]c(=O)[nH]c2O)cc(C(=O)N2CCN(C(=O)CC3CCCN(C)C3)CC2)n1C

>  <score_type>  (83) 
oracle

>  <origin>  (83) 
adg

>  <m_score__min__energy>  (83) 
-18.550000000000001

>  <m_primary>  (83) 
energy

$$$$
83:0
     RDKit          3D

 42 45  0  0  0  0  0  0  0  0999 V2000
   54.3780   26.7130   45.3140 H   0  0  0  0  0  0  0  0  0  0  0  0
   55.0810   26.7170   46.0430 O   0  0  0  0  0  0  0  0  0  0  0  0
   55.9580   25.6490   46.2180 C   0  0  0  0  0  0  0  0  0  0  0  0
   55.7250   24.6380   47.0710 N   0  0  0  0  0  0  0  0  0  0  0  0
   56.7760   23.8180   46.8600 C   0  0  0  0  0  0  0  0  0  0  0  0
   56.9230   22.7320   47.4790 O   0  0  0  0  0  0  0  0  0  0  0  0
   57.6540   24.2510   45.9300 N   0  0  0  0  0  0  0  0  0  0  0  0
   57.1400   25.4300   45.5400 C   0  0  0  0  0  0  0  0  0  0  0  0
   57.7440   26.2620   44.4860 C   0  0  0  0  0  0  0  0  0  0  0  0
   57.7919   25.8535   43.4658 H   0  0  0  0  0  0  0  0  0  0  0  0
   58.2390   27.4900   44.7000 C   0  0  0  0  0  0  0  0  0  0  0  0
   57.5360   28.6620   44.4910 C   0  0  0  0  0  0  0  0  0  0  0  0
   56.4946   28.7512   44.1483 H   0  0  0  0  0  0  0  0  0  0  0  0
   58.3980   29.7020   44.7970 C   0  0  0  0  0  0  0  0  0  0  0  0
   58.0410   31.1330   44.7060 C   0  0  0  0  0  0  0  0  0  0  0  0
   58.5120   31.8270   43.7650 O   0  0  0  0  0  0  0  0  0  0  0  0
   57.2050   31.7230   45.6600 O   0  0  0  0  0  0  0  0  0  0  0  0
   57.4290   33.0190   46.2080 C   0  0  0  0  0  0  0  0  0  0  0  0
   57.2298   33.7789   45.4380 H   0  0  0  0  0  0  0  0  0  0  0  0
   56.7557   33.1685   47.0649 H   0  0  0  0  0  0  0  0  0  0  0  0
   58.8110   33.1410   46.6600 N   0  0  0  0  0  0  0  0  0  0  0  0
   59.5330   32.1590   47.4130 C   0  0  0  0  0  0  0  0  0  0  0  0
   58.9750   31.1850   47.9840 O   0  0  0  0  0  0  0  0  0  0  0  0
   60.9820   32.4010   47.4470 C   0  0  0  0  0  0  0  0  0  0  0  0
   61.9540   31.6370   48.0960 C   0  0  0  0  0  0  0  0  0  0  0  0
   61.6726   30.7416   48.6697 H   0  0  0  0  0  0  0  0  0  0  0  0
   63.2980   32.0340   48.0020 C   0  0  0  0  0  0  0  0  0  0  0  0
   64.0788   31.4465   48.5071 H   0  0  0  0  0  0  0  0  0  0  0  0
   63.6510   33.1810   47.2640 C   0  0  0  0  0  0  0  0  0  0  0  0
   64.7062   33.4840   47.1954 H   0  0  0  0  0  0  0  0  0  0  0  0
   62.6640   33.9390   46.6160 C   0  0  0  0  0  0  0  0  0  0  0  0
   62.9316   34.8360   46.0382 H   0  0  0  0  0  0  0  0  0  0  0  0
   61.3360   33.5280   46.7220 C   0  0  0  0  0  0  0  0  0  0  0  0
   59.9360   34.2800   46.0130 S   0  0  0  0  0  0  0  0  0  0  0  0
   59.9690   34.2430   44.5120 O   0  0  0  0  0  0  0  0  0  0  0  0
   59.6910   35.6630   46.5470 O   0  0  0  0  0  0  0  0  0  0  0  0
   59.6030   29.1070   45.1780 C   0  0  0  0  0  0  0  0  0  0  0  0
   60.7250   29.7170   45.5740 C   0  0  0  0  0  0  0  0  0  0  0  0
   60.7683   30.8153   45.6165 H   0  0  0  0  0  0  0  0  0  0  0  0
   61.6048   29.1205   45.8573 H   0  0  0  0  0  0  0  0  0  0  0  0
   59.4970   27.7640   45.1080 N   0  0  0  0  0  0  0  0  0  0  0  0
   60.2580   27.0770   45.3100 H   0  0  0  0  0  0  0  0  0  0  0  0
  1  2  1  0
  2  3  1  0
  3  4  1  0
  4  5  1  0
  5  6  2  0
  5  7  1  0
  7  8  1  0
  8  9  1  0
  9 10  1  0
  9 11  2  0
 11 12  1  0
 12 13  1  0
 12 14  2  0
 14 15  1  0
 15 16  2  0
 15 17  1  0
 17 18  1  0
 18 19  1  0
 18 20  1  0
 18 21  1  0
 21 22  1  0
 22 23  2  0
 22 24  1  0
 24 25  2  0
 25 26  1  0
 25 27  1  0
 27 28  1  0
 27 29  2  0
 29 30  1  0
 29 31  1  0
 31 32  1  0
 31 33  2  0
 33 34  1  0
 34 35  2  0
 34 36  2  0
 14 37  1  0
 37 38  2  0
 38 39  1  0
 38 40  1  0
 37 41  1  0
 41 42  1  0
  8  3  2  0
 41 11  1  0
 34 21  1  0
 33 24  1  0
M  CHG  2   4  -1   7  -1
M  END
>  <UniqueID>  (84) 
77

>  <SMILES>  (84) 
C=c1[nH]/c(=C\c2[n-]c(=O)[n-]c2O)cc1C(=O)OCN1C(=O)c2ccccc2S1(=O)=O

>  <Energy>  (84) 
128.90051725694116

>  <Genealogy>  (84) 
C=c1[nH]c(=Cc2[n-]c(=O)[n-]c2O)cc1C(=O)OCN1C(=O)c2ccccc2S1(=O)=O (protonated)
C=c1[nH]/c(=C\c2[n-]c(=O)[n-]c2O)cc1C(=O)OCN1C(=O)c2ccccc2S1(=O)=O (cis-trans isomerization)
C=c1[nH]/c(=C\c2[n-]c(=O)[n-]c2O)cc1C(=O)OCN1C(=O)c2ccccc2S1(=O)=O (3D coordinates assigned)
C=c1[nH]/c(=C\c2[n-]c(=O)[n-]c2O)cc1C(=O)OCN1C(=O)c2ccccc2S1(=O)=O (nonaromatic ring conformer: 128.90051725694116 kcal/mol)

>  <smiles>  (84) 
C=c1[nH]c(=Cc2[nH]c(=O)[nH]c2O)cc1C(=O)OCN1C(=O)c2ccccc2S1(=O)=O

>  <score_type>  (84) 
oracle

>  <origin>  (84) 
adg

>  <m_score__min__energy>  (84) 
-14.81

>  <m_primary>  (84) 
energy

$$$$
84:0
     RDKit          3D

 68 72  0  0  0  0  0  0  0  0999 V2000
   60.0200   22.1900   45.1630 C   0  0  0  0  0  0  0  0  0  0  0  0
   58.6620   21.9740   45.5330 O   0  0  0  0  0  0  0  0  0  0  0  0
   57.5520   22.3400   44.7490 C   0  0  0  0  0  0  0  0  0  0  0  0
   57.4750   22.0080   43.3800 C   0  0  0  0  0  0  0  0  0  0  0  0
   56.3640   22.3820   42.6210 C   0  0  0  0  0  0  0  0  0  0  0  0
   55.3170   23.0890   43.2090 C   0  0  0  0  0  0  0  0  0  0  0  0
   55.3790   23.4250   44.5620 C   0  0  0  0  0  0  0  0  0  0  0  0
   56.4910   23.0610   45.3420 C   0  0  0  0  0  0  0  0  0  0  0  0
   56.5130   23.4450   46.8000 C   0  0  0  0  0  0  0  0  0  0  0  0
   55.7370   24.6620   46.9940 N   0  0  0  0  0  0  0  0  0  0  0  0
   56.1250   25.9260   46.4450 C   0  0  0  0  0  0  0  0  0  0  0  0
   55.2470   26.7130   45.9890 O   0  0  0  0  0  0  0  0  0  0  0  0
   57.5490   26.3160   46.4360 C   0  0  0  0  0  0  0  0  0  0  0  0
   58.1550   26.6990   47.6460 C   0  0  0  0  0  0  0  0  0  0  0  0
   59.4990   27.1040   47.6800 C   0  0  0  0  0  0  0  0  0  0  0  0
   60.0940   27.5910   48.9380 C   0  0  0  0  0  0  0  0  0  0  0  0
   60.0910   28.8910   49.3150 N   0  0  0  0  0  0  0  0  0  0  0  0
   60.6960   28.8730   50.5170 C   0  0  0  0  0  0  0  0  0  0  0  0
   60.9440   30.1080   51.3490 C   0  0  0  0  0  0  0  0  0  0  0  0
   60.7380   31.3640   50.5970 N   0  0  0  0  0  0  0  0  0  0  0  0
   59.3150   31.6600   50.2900 C   0  0  0  0  0  0  0  0  0  0  0  0
   59.0330   31.8230   48.7860 C   0  0  0  0  0  0  0  0  0  0  0  0
   59.9890   32.7680   48.1880 N   0  0  0  0  0  0  0  0  0  0  0  0
   59.6130   33.5780   47.0520 C   0  0  0  0  0  0  0  0  0  0  0  0
   60.0520   34.9110   46.9400 C   0  0  0  0  0  0  0  0  0  0  0  0
   59.6660   35.6960   45.8490 C   0  0  0  0  0  0  0  0  0  0  0  0
   58.8420   35.1600   44.8550 C   0  0  0  0  0  0  0  0  0  0  0  0
   58.4010   33.8380   44.9530 C   0  0  0  0  0  0  0  0  0  0  0  0
   58.7810   33.0500   46.0450 C   0  0  0  0  0  0  0  0  0  0  0  0
   61.3750   32.7900   48.6760 C   0  0  0  0  0  0  0  0  0  0  0  0
   61.6820   31.5180   49.4700 C   0  0  0  0  0  0  0  0  0  0  0  0
   61.0370   27.5680   50.8260 C   0  0  0  0  0  0  0  0  0  0  0  0
   61.7310   27.0630   52.0500 C   0  0  0  0  0  0  0  0  0  0  0  0
   60.6600   26.8080   49.8290 O   0  0  0  0  0  0  0  0  0  0  0  0
   60.2500   27.0920   46.4950 C   0  0  0  0  0  0  0  0  0  0  0  0
   59.6590   26.7100   45.2900 C   0  0  0  0  0  0  0  0  0  0  0  0
   58.3120   26.3320   45.2460 C   0  0  0  0  0  0  0  0  0  0  0  0
   57.6420   25.8350   43.6920 Cl  0  0  0  0  0  0  0  0  0  0  0  0
   60.6358   22.2879   46.0692 H   0  0  0  0  0  0  0  0  0  0  0  0
   60.3777   21.3375   44.5670 H   0  0  0  0  0  0  0  0  0  0  0  0
   60.0955   23.1114   44.5670 H   0  0  0  0  0  0  0  0  0  0  0  0
   58.2965   21.4502   42.9067 H   0  0  0  0  0  0  0  0  0  0  0  0
   56.3152   22.1174   41.5544 H   0  0  0  0  0  0  0  0  0  0  0  0
   54.4435   23.3816   42.6079 H   0  0  0  0  0  0  0  0  0  0  0  0
   54.5492   23.9805   45.0233 H   0  0  0  0  0  0  0  0  0  0  0  0
   56.0766   22.6326   47.3996 H   0  0  0  0  0  0  0  0  0  0  0  0
   57.5518   23.6184   47.1175 H   0  0  0  0  0  0  0  0  0  0  0  0
   57.5691   26.6811   48.5768 H   0  0  0  0  0  0  0  0  0  0  0  0
   60.2555   30.0965   52.2068 H   0  0  0  0  0  0  0  0  0  0  0  0
   61.9970   30.0842   51.6662 H   0  0  0  0  0  0  0  0  0  0  0  0
   58.6971   30.8343   50.6727 H   0  0  0  0  0  0  0  0  0  0  0  0
   59.0729   32.6194   50.7706 H   0  0  0  0  0  0  0  0  0  0  0  0
   59.1301   30.8458   48.2904 H   0  0  0  0  0  0  0  0  0  0  0  0
   58.0130   32.2127   48.6528 H   0  0  0  0  0  0  0  0  0  0  0  0
   60.7035   35.3382   47.7165 H   0  0  0  0  0  0  0  0  0  0  0  0
   60.0115   36.7375   45.7728 H   0  0  0  0  0  0  0  0  0  0  0  0
   58.5412   35.7785   43.9966 H   0  0  0  0  0  0  0  0  0  0  0  0
   57.7538   33.4158   44.1702 H   0  0  0  0  0  0  0  0  0  0  0  0
   58.4276   32.0108   46.1178 H   0  0  0  0  0  0  0  0  0  0  0  0
   62.0602   32.8558   47.8180 H   0  0  0  0  0  0  0  0  0  0  0  0
   61.5076   33.6616   49.3338 H   0  0  0  0  0  0  0  0  0  0  0  0
   61.5943   30.6469   48.8041 H   0  0  0  0  0  0  0  0  0  0  0  0
   62.7034   31.5903   49.8720 H   0  0  0  0  0  0  0  0  0  0  0  0
   61.2146   27.4388   52.9456 H   0  0  0  0  0  0  0  0  0  0  0  0
   61.7161   25.9631   52.0525 H   0  0  0  0  0  0  0  0  0  0  0  0
   62.7730   27.4156   52.0525 H   0  0  0  0  0  0  0  0  0  0  0  0
   61.3100   27.3852   46.5159 H   0  0  0  0  0  0  0  0  0  0  0  0
   60.2569   26.7059   44.3667 H   0  0  0  0  0  0  0  0  0  0  0  0
  1  2  1  0
  2  3  1  0
  3  4  2  0
  4  5  1  0
  5  6  2  0
  6  7  1  0
  7  8  2  0
  8  9  1  0
  9 10  1  0
 10 11  1  0
 11 12  2  0
 11 13  1  0
 13 14  2  0
 14 15  1  0
 15 16  1  0
 16 17  2  0
 17 18  1  0
 18 19  1  0
 19 20  1  0
 20 21  1  0
 21 22  1  0
 22 23  1  0
 23 24  1  0
 24 25  2  0
 25 26  1  0
 26 27  2  0
 27 28  1  0
 28 29  2  0
 23 30  1  0
 30 31  1  0
 18 32  2  0
 32 33  1  0
 32 34  1  0
 15 35  2  0
 35 36  1  0
 36 37  2  0
 37 38  1  0
  8  3  1  0
 37 13  1  0
 34 16  1  0
 31 20  1  0
 29 24  1  0
  1 39  1  0
  1 40  1  0
  1 41  1  0
  4 42  1  0
  5 43  1  0
  6 44  1  0
  7 45  1  0
  9 46  1  0
  9 47  1  0
 14 48  1  0
 19 49  1  0
 19 50  1  0
 21 51  1  0
 21 52  1  0
 22 53  1  0
 22 54  1  0
 25 55  1  0
 26 56  1  0
 27 57  1  0
 28 58  1  0
 29 59  1  0
 30 60  1  0
 30 61  1  0
 31 62  1  0
 31 63  1  0
 33 64  1  0
 33 65  1  0
 33 66  1  0
 35 67  1  0
 36 68  1  0
M  CHG  1  10  -1
M  END
>  <UniqueID>  (85) 
78

>  <SMILES>  (85) 
COc1ccccc1C[N-]C(=O)c1cc(-c2nc(CN3CCN(c4ccccc4)CC3)c(C)o2)ccc1Cl

>  <Energy>  (85) 
116.4477980548148

>  <Genealogy>  (85) 
COc1ccccc1C[N-]C(=O)c1cc(-c2nc(CN3CCN(c4ccccc4)CC3)c(C)o2)ccc1Cl (protonated)
COc1ccccc1C[N-]C(=O)c1cc(-c2nc(CN3CCN(c4ccccc4)CC3)c(C)o2)ccc1Cl (3D coordinates assigned)
COc1ccccc1C[N-]C(=O)c1cc(-c2nc(CN3CCN(c4ccccc4)CC3)c(C)o2)ccc1Cl (nonaromatic ring conformer: 116.4477980548148 kcal/mol)

>  <smiles>  (85) 
COc1ccccc1CNC(=O)c1cc(-c2nc(CN3CCN(c4ccccc4)CC3)c(C)o2)ccc1Cl

>  <score_type>  (85) 
oracle

>  <origin>  (85) 
adg

>  <m_score__min__energy>  (85) 
-13.359999999999999

>  <m_primary>  (85) 
energy

$$$$
85:0
     RDKit          3D

 41 43  0  0  0  0  0  0  0  0999 V2000
   57.9570   34.2170   46.6570 C   0  0  0  0  0  0  0  0  0  0  0  0
   58.2780   32.9870   46.2320 C   0  0  0  0  0  0  0  0  0  0  0  0
   57.3420   32.3150   45.5770 O   0  0  0  0  0  0  0  0  0  0  0  0
   57.5040   31.0780   45.1390 C   0  0  0  0  0  0  0  0  0  0  0  0
   56.5680   30.5620   44.4730 O   0  0  0  0  0  0  0  0  0  0  0  0
   58.7080   30.3850   45.3910 C   0  0  0  0  0  0  0  0  0  0  0  0
   58.9330   29.1000   45.0080 C   0  0  0  0  0  0  0  0  0  0  0  0
   58.2480   27.9050   45.5410 C   0  0  0  0  0  0  0  0  0  0  0  0
   58.9800   26.7750   45.9430 C   0  0  0  0  0  0  0  0  0  0  0  0
   58.3160   25.6300   46.3920 C   0  0  0  0  0  0  0  0  0  0  0  0
   56.9190   25.5960   46.4220 C   0  0  0  0  0  0  0  0  0  0  0  0
   56.1840   26.7070   45.9950 C   0  0  0  0  0  0  0  0  0  0  0  0
   54.7950   26.6690   46.0140 O   0  0  0  0  0  0  0  0  0  0  0  0
   56.8460   27.8550   45.5450 C   0  0  0  0  0  0  0  0  0  0  0  0
   59.7230   31.1130   46.0560 C   0  0  0  0  0  0  0  0  0  0  0  0
   60.8300   30.5520   46.3030 O   0  0  0  0  0  0  0  0  0  0  0  0
   59.5140   32.4130   46.4520 N   0  0  0  0  0  0  0  0  0  0  0  0
   60.6070   33.1520   47.1290 C   0  0  0  0  0  0  0  0  0  0  0  0
   60.4050   33.1710   48.6230 C   0  0  0  0  0  0  0  0  0  0  0  0
   61.3050   33.6520   49.3620 O   0  0  0  0  0  0  0  0  0  0  0  0
   59.1880   32.7170   49.2300 N   0  0  0  0  0  0  0  0  0  0  0  0
   59.0860   31.6940   50.2650 C   0  0  0  0  0  0  0  0  0  0  0  0
   59.5440   30.3710   49.7400 C   0  0  0  0  0  0  0  0  0  0  0  0
   58.8620   29.5770   48.8420 C   0  0  0  0  0  0  0  0  0  0  0  0
   59.6550   28.4660   48.6530 C   0  0  0  0  0  0  0  0  0  0  0  0
   60.7710   28.6530   49.4430 C   0  0  0  0  0  0  0  0  0  0  0  0
   60.6760   29.7980   50.0790 O   0  0  0  0  0  0  0  0  0  0  0  0
   58.6957   34.8194   47.2060 H   0  0  0  0  0  0  0  0  0  0  0  0
   56.9549   34.6240   46.4568 H   0  0  0  0  0  0  0  0  0  0  0  0
   59.6940   28.9355   44.2309 H   0  0  0  0  0  0  0  0  0  0  0  0
   60.0792   26.7916   45.9042 H   0  0  0  0  0  0  0  0  0  0  0  0
   58.8938   24.7542   46.7223 H   0  0  0  0  0  0  0  0  0  0  0  0
   56.3979   24.6963   46.7811 H   0  0  0  0  0  0  0  0  0  0  0  0
   56.2654   28.7206   45.1934 H   0  0  0  0  0  0  0  0  0  0  0  0
   61.5657   32.6627   46.9023 H   0  0  0  0  0  0  0  0  0  0  0  0
   60.6064   34.1894   46.7631 H   0  0  0  0  0  0  0  0  0  0  0  0
   59.7144   31.9811   51.1210 H   0  0  0  0  0  0  0  0  0  0  0  0
   58.0350   31.6081   50.5783 H   0  0  0  0  0  0  0  0  0  0  0  0
   57.8886   29.7867   48.3744 H   0  0  0  0  0  0  0  0  0  0  0  0
   59.4416   27.6042   48.0036 H   0  0  0  0  0  0  0  0  0  0  0  0
   61.6125   27.9496   49.5272 H   0  0  0  0  0  0  0  0  0  0  0  0
  1  2  2  0
  2  3  1  0
  3  4  1  0
  4  5  2  0
  4  6  1  0
  6  7  2  3
  7  8  1  0
  8  9  2  0
  9 10  1  0
 10 11  2  0
 11 12  1  0
 12 13  1  0
 12 14  2  0
  6 15  1  0
 15 16  2  0
 15 17  1  0
 17 18  1  0
 18 19  1  0
 19 20  2  0
 19 21  1  0
 21 22  1  0
 22 23  1  0
 23 24  2  0
 24 25  1  0
 25 26  2  0
 26 27  1  0
 17  2  1  0
 27 23  1  0
 14  8  1  0
  1 28  1  0
  1 29  1  0
  7 30  1  0
  9 31  1  0
 10 32  1  0
 11 33  1  0
 14 34  1  0
 18 35  1  0
 18 36  1  0
 22 37  1  0
 22 38  1  0
 24 39  1  0
 25 40  1  0
 26 41  1  0
M  CHG  2  13  -1  21  -1
M  END
>  <UniqueID>  (86) 
79

>  <SMILES>  (86) 
C=c1oc(=O)c(=Cc2cccc([O-])c2)c(=O)n1CC(=O)[N-]Cc1ccco1

>  <Energy>  (86) 
89.41835867139697

>  <Genealogy>  (86) 
C=c1oc(=O)c(=Cc2cccc([O-])c2)c(=O)n1CC(=O)[N-]Cc1ccco1 (protonated)
C=c1oc(=O)c(=Cc2cccc([O-])c2)c(=O)n1CC(=O)[N-]Cc1ccco1 (3D coordinates assigned)
C=c1oc(=O)c(=Cc2cccc([O-])c2)c(=O)n1CC(=O)[N-]Cc1ccco1 (optimized conformer: 89.41835867139697 kcal/mol)

>  <smiles>  (86) 
C=c1oc(=O)c(=Cc2cccc(O)c2)c(=O)n1CC(=O)NCc1ccco1

>  <score_type>  (86) 
oracle

>  <origin>  (86) 
adg

>  <m_score__min__energy>  (86) 
-12.84

>  <m_primary>  (86) 
energy

$$$$
86:0
     RDKit          3D

 55 58  0  0  0  0  0  0  0  0999 V2000
   68.7040   34.2080   50.4850 C   0  0  0  0  0  0  0  0  0  0  0  0
   67.6360   34.6530   51.3110 O   0  0  0  0  0  0  0  0  0  0  0  0
   66.6040   33.8080   51.7330 C   0  0  0  0  0  0  0  0  0  0  0  0
   66.7110   33.1740   52.8200 O   0  0  0  0  0  0  0  0  0  0  0  0
   65.3850   33.6630   50.9090 C   0  0  0  0  0  0  0  0  0  0  0  0
   64.2020   34.3210   51.2720 C   0  0  0  0  0  0  0  0  0  0  0  0
   63.0440   34.1870   50.5000 C   0  0  0  0  0  0  0  0  0  0  0  0
   63.0300   33.3860   49.3330 C   0  0  0  0  0  0  0  0  0  0  0  0
   61.8170   33.2470   48.5230 N   0  0  0  0  0  0  0  0  0  0  0  0
   61.9170   32.5410   47.2210 C   0  0  0  0  0  0  0  0  0  0  0  0
   60.6390   32.5620   46.3850 C   0  0  0  0  0  0  0  0  0  0  0  0
   59.4910   32.4100   47.2660 N   0  0  0  0  0  0  0  0  0  0  0  0
   58.9630   31.1060   47.5760 C   0  0  0  0  0  0  0  0  0  0  0  0
   58.7820   30.7770   48.7800 O   0  0  0  0  0  0  0  0  0  0  0  0
   58.6080   30.1540   46.5090 C   0  0  0  0  0  0  0  0  0  0  0  0
   58.1370   28.8740   46.6930 C   0  0  0  0  0  0  0  0  0  0  0  0
   57.9090   28.3360   45.4800 N   0  0  0  0  0  0  0  0  0  0  0  0
   57.4470   27.0020   45.1890 C   0  0  0  0  0  0  0  0  0  0  0  0
   56.5530   26.3460   46.0560 C   0  0  0  0  0  0  0  0  0  0  0  0
   56.0940   25.0590   45.7590 C   0  0  0  0  0  0  0  0  0  0  0  0
   56.5180   24.4070   44.5960 C   0  0  0  0  0  0  0  0  0  0  0  0
   55.9160   22.7970   44.2140 S   0  0  0  0  0  0  0  0  0  0  0  0
   54.3300   22.6100   44.8780 N   0  0  0  0  0  0  0  0  0  0  0  0
   56.8340   21.7610   44.7980 O   0  0  0  0  0  0  0  0  0  0  0  0
   55.8600   22.6100   42.7230 O   0  0  0  0  0  0  0  0  0  0  0  0
   57.4050   25.0550   43.7260 C   0  0  0  0  0  0  0  0  0  0  0  0
   57.8690   26.3390   44.0210 C   0  0  0  0  0  0  0  0  0  0  0  0
   58.2350   29.3020   44.5930 C   0  0  0  0  0  0  0  0  0  0  0  0
   58.6670   30.4330   45.1900 N   0  0  0  0  0  0  0  0  0  0  0  0
   59.3020   33.5210   48.1850 C   0  0  0  0  0  0  0  0  0  0  0  0
   60.5180   33.6610   49.1120 C   0  0  0  0  0  0  0  0  0  0  0  0
   64.2360   32.7370   48.9750 C   0  0  0  0  0  0  0  0  0  0  0  0
   65.3900   32.8710   49.7520 C   0  0  0  0  0  0  0  0  0  0  0  0
   69.5357   33.8615   51.1160 H   0  0  0  0  0  0  0  0  0  0  0  0
   68.3559   33.3800   49.8499 H   0  0  0  0  0  0  0  0  0  0  0  0
   69.0468   35.0382   49.8499 H   0  0  0  0  0  0  0  0  0  0  0  0
   64.1844   34.9499   52.1743 H   0  0  0  0  0  0  0  0  0  0  0  0
   62.1275   34.7134   50.8049 H   0  0  0  0  0  0  0  0  0  0  0  0
   62.7180   33.0149   46.6347 H   0  0  0  0  0  0  0  0  0  0  0  0
   62.1189   31.4851   47.4543 H   0  0  0  0  0  0  0  0  0  0  0  0
   60.5664   33.5188   45.8472 H   0  0  0  0  0  0  0  0  0  0  0  0
   60.6590   31.7377   45.6569 H   0  0  0  0  0  0  0  0  0  0  0  0
   57.9752   28.3776   47.6612 H   0  0  0  0  0  0  0  0  0  0  0  0
   56.2132   26.8491   46.9733 H   0  0  0  0  0  0  0  0  0  0  0  0
   55.3954   24.5562   46.4439 H   0  0  0  0  0  0  0  0  0  0  0  0
   54.1520   23.4440   45.4820 H   0  0  0  0  0  0  0  0  0  0  0  0
   57.7373   24.5503   42.8068 H   0  0  0  0  0  0  0  0  0  0  0  0
   58.5702   26.8364   43.3348 H   0  0  0  0  0  0  0  0  0  0  0  0
   58.1568   29.1799   43.5026 H   0  0  0  0  0  0  0  0  0  0  0  0
   59.1759   34.4500   47.6096 H   0  0  0  0  0  0  0  0  0  0  0  0
   58.4073   33.3307   48.7960 H   0  0  0  0  0  0  0  0  0  0  0  0
   60.6002   34.7174   49.4073 H   0  0  0  0  0  0  0  0  0  0  0  0
   60.3364   32.9798   49.9564 H   0  0  0  0  0  0  0  0  0  0  0  0
   64.2655   32.1154   48.0680 H   0  0  0  0  0  0  0  0  0  0  0  0
   66.3114   32.3499   49.4528 H   0  0  0  0  0  0  0  0  0  0  0  0
  1  2  1  0
  2  3  1  0
  3  4  2  0
  3  5  1  0
  5  6  2  0
  6  7  1  0
  7  8  2  0
  8  9  1  0
  9 10  1  0
 10 11  1  0
 11 12  1  0
 12 13  1  0
 13 14  2  0
 13 15  1  0
 15 16  2  0
 16 17  1  0
 17 18  1  0
 18 19  2  0
 19 20  1  0
 20 21  2  0
 21 22  1  0
 22 23  1  0
 22 24  2  0
 22 25  2  0
 21 26  1  0
 26 27  2  0
 17 28  1  0
 28 29  2  0
 12 30  1  0
 30 31  1  0
  8 32  1  0
 32 33  2  0
 33  5  1  0
 31  9  1  0
 29 15  1  0
 27 18  1  0
  1 34  1  0
  1 35  1  0
  1 36  1  0
  6 37  1  0
  7 38  1  0
 10 39  1  0
 10 40  1  0
 11 41  1  0
 11 42  1  0
 16 43  1  0
 19 44  1  0
 20 45  1  0
 23 46  1  0
 26 47  1  0
 27 48  1  0
 28 49  1  0
 30 50  1  0
 30 51  1  0
 31 52  1  0
 31 53  1  0
 32 54  1  0
 33 55  1  0
M  CHG  1  23  -1
M  END
>  <UniqueID>  (87) 
80

>  <SMILES>  (87) 
COC(=O)c1ccc(N2CCN(C(=O)c3cn(-c4ccc(S([NH-])(=O)=O)cc4)cn3)CC2)cc1

>  <Energy>  (87) 
101.5794964716531

>  <Genealogy>  (87) 
COC(=O)c1ccc(N2CCN(C(=O)c3cn(-c4ccc(S([NH-])(=O)=O)cc4)cn3)CC2)cc1 (protonated)
COC(=O)c1ccc(N2CCN(C(=O)c3cn(-c4ccc(S([NH-])(=O)=O)cc4)cn3)CC2)cc1 (3D coordinates assigned)
COC(=O)c1ccc(N2CCN(C(=O)c3cn(-c4ccc(S([NH-])(=O)=O)cc4)cn3)CC2)cc1 (nonaromatic ring conformer: 101.5794964716531 kcal/mol)

>  <smiles>  (87) 
COC(=O)c1ccc(N2CCN(C(=O)c3cn(-c4ccc(S(N)(=O)=O)cc4)cn3)CC2)cc1

>  <score_type>  (87) 
oracle

>  <origin>  (87) 
adg

>  <m_score__min__energy>  (87) 
-8.5899999999999999

>  <m_primary>  (87) 
energy

$$$$
87:0
     RDKit          3D

 32 34  0  0  0  0  0  0  0  0999 V2000
   56.2580   29.8210   42.5920 C   0  0  0  0  0  0  0  0  0  0  0  0
   56.8200   29.7490   43.8020 C   0  0  0  0  0  0  0  0  0  0  0  0
   56.7730   28.6360   44.5610 N   0  0  0  0  0  0  0  0  0  0  0  0
   57.4640   28.9020   45.6890 C   0  0  0  0  0  0  0  0  0  0  0  0
   57.6230   28.0570   46.7210 C   0  0  0  0  0  0  0  0  0  0  0  0
   57.3040   26.6220   46.6640 C   0  0  0  0  0  0  0  0  0  0  0  0
   58.2190   25.6540   46.8500 N   0  0  0  0  0  0  0  0  0  0  0  0
   57.5180   24.5180   46.6440 C   0  0  0  0  0  0  0  0  0  0  0  0
   58.0360   23.3750   46.7450 O   0  0  0  0  0  0  0  0  0  0  0  0
   56.2220   24.7030   46.3140 N   0  0  0  0  0  0  0  0  0  0  0  0
   56.1040   26.0400   46.3220 C   0  0  0  0  0  0  0  0  0  0  0  0
   54.9350   26.7110   45.9820 O   0  0  0  0  0  0  0  0  0  0  0  0
   57.9490   30.1950   45.6630 C   0  0  0  0  0  0  0  0  0  0  0  0
   57.5450   30.7450   44.4570 C   0  0  0  0  0  0  0  0  0  0  0  0
   57.8320   32.1270   44.0030 C   0  0  0  0  0  0  0  0  0  0  0  0
   58.4770   32.3200   42.9400 O   0  0  0  0  0  0  0  0  0  0  0  0
   57.3790   33.3190   44.7990 C   0  0  0  0  0  0  0  0  0  0  0  0
   58.3860   33.6380   45.8640 C   0  0  0  0  0  0  0  0  0  0  0  0
   58.2570   33.2070   47.1910 C   0  0  0  0  0  0  0  0  0  0  0  0
   59.2750   33.6550   48.0210 C   0  0  0  0  0  0  0  0  0  0  0  0
   60.3220   34.5970   47.1040 S   0  0  0  0  0  0  0  0  0  0  0  0
   59.5020   34.4430   45.6470 C   0  0  0  0  0  0  0  0  0  0  0  0
   56.3230   30.7521   42.0099 H   0  0  0  0  0  0  0  0  0  0  0  0
   55.7303   28.9492   42.1779 H   0  0  0  0  0  0  0  0  0  0  0  0
   56.2650   27.7560   44.3200 H   0  0  0  0  0  0  0  0  0  0  0  0
   58.0153   28.4623   47.6654 H   0  0  0  0  0  0  0  0  0  0  0  0
   58.5404   30.6912   46.4466 H   0  0  0  0  0  0  0  0  0  0  0  0
   57.2709   34.1847   44.1290 H   0  0  0  0  0  0  0  0  0  0  0  0
   56.4128   33.0906   45.2727 H   0  0  0  0  0  0  0  0  0  0  0  0
   57.4282   32.5742   47.5413 H   0  0  0  0  0  0  0  0  0  0  0  0
   59.3787   33.4322   49.0932 H   0  0  0  0  0  0  0  0  0  0  0  0
   59.7946   34.8979   44.6892 H   0  0  0  0  0  0  0  0  0  0  0  0
  1  2  2  0
  2  3  1  0
  3  4  1  0
  4  5  2  3
  5  6  1  0
  6  7  1  0
  7  8  1  0
  8  9  2  0
  8 10  1  0
 10 11  1  0
 11 12  1  0
  4 13  1  0
 13 14  2  0
 14 15  1  0
 15 16  2  0
 15 17  1  0
 17 18  1  0
 18 19  1  0
 19 20  2  0
 20 21  1  0
 21 22  1  0
 14  2  1  0
 22 18  2  0
 11  6  2  0
  1 23  1  0
  1 24  1  0
  3 25  1  0
  5 26  1  0
 13 27  1  0
 17 28  1  0
 17 29  1  0
 19 30  1  0
 20 31  1  0
 22 32  1  0
M  CHG  3   7  -1  10  -1  12  -1
M  END
>  <UniqueID>  (88) 
81

>  <SMILES>  (88) 
C=c1[nH]c(=Cc2[n-]c(=O)[n-]c2[O-])cc1C(=O)Cc1ccsc1

>  <Energy>  (88) 
121.4240995146972

>  <Genealogy>  (88) 
C=c1[nH]c(=Cc2[n-]c(=O)[n-]c2[O-])cc1C(=O)Cc1ccsc1 (protonated)
C=c1[nH]c(=Cc2[n-]c(=O)[n-]c2[O-])cc1C(=O)Cc1ccsc1 (3D coordinates assigned)
C=c1[nH]c(=Cc2[n-]c(=O)[n-]c2[O-])cc1C(=O)Cc1ccsc1 (optimized conformer: 121.4240995146972 kcal/mol)

>  <smiles>  (88) 
C=c1[nH]c(=Cc2[nH]c(=O)[nH]c2O)cc1C(=O)Cc1ccsc1

>  <score_type>  (88) 
oracle

>  <origin>  (88) 
adg

>  <m_score__min__energy>  (88) 
-16.170000000000002

>  <m_primary>  (88) 
energy

$$$$
