0:0
     RDKit          3D

 41 43  0  0  0  0  0  0  0  0999 V2000
   60.0210   28.0200   45.8330 C   0  0  0  0  0  0  0  0  0  0  0  0
   58.5400   27.7960   45.7200 C   0  0  0  0  0  0  0  0  0  0  0  0
   58.0540   26.5760   46.0760 N   0  0  0  0  0  0  0  0  0  0  0  0
   56.7280   26.3000   46.0290 C   0  0  0  0  0  0  0  0  0  0  0  0
   56.1880   24.8240   46.4680 S   0  0  0  0  0  0  0  0  0  0  0  0
   55.8510   27.2480   45.6230 N   0  0  0  0  0  0  0  0  0  0  0  0
   56.2710   28.4830   45.2500 C   0  0  0  0  0  0  0  0  0  0  0  0
   55.4180   29.3250   44.8620 O   0  0  0  0  0  0  0  0  0  0  0  0
   57.6460   28.8040   45.2800 C   0  0  0  0  0  0  0  0  0  0  0  0
   58.1110   30.1550   44.8680 C   0  0  0  0  0  0  0  0  0  0  0  0
   58.9090   30.2840   43.9000 O   0  0  0  0  0  0  0  0  0  0  0  0
   57.6810   31.3070   45.6050 N   0  0  0  0  0  0  0  0  0  0  0  0
   58.3210   32.5920   45.6570 C   0  0  0  0  0  0  0  0  0  0  0  0
   57.9300   33.6510   44.8160 C   0  0  0  0  0  0  0  0  0  0  0  0
   58.5720   34.8900   44.8990 C   0  0  0  0  0  0  0  0  0  0  0  0
   59.5990   35.0880   45.8240 C   0  0  0  0  0  0  0  0  0  0  0  0
   59.9770   34.0520   46.6800 C   0  0  0  0  0  0  0  0  0  0  0  0
   59.3340   32.8090   46.6100 C   0  0  0  0  0  0  0  0  0  0  0  0
   59.7310   31.7570   47.4980 N   0  0  0  0  0  0  0  0  0  0  0  0
   58.8480   31.3670   48.6010 C   0  0  0  0  0  0  0  0  0  0  0  0
   58.8870   29.8460   48.7840 C   0  0  0  0  0  0  0  0  0  0  0  0
   60.3220   29.2850   48.9030 C   0  0  0  0  0  0  0  0  0  0  0  0
   61.4230   30.3050   48.5700 C   0  0  0  0  0  0  0  0  0  0  0  0
   61.0600   31.1510   47.3460 C   0  0  0  0  0  0  0  0  0  0  0  0
   60.3054   28.0630   46.8947 H   0  0  0  0  0  0  0  0  0  0  0  0
   60.5554   27.1925   45.3435 H   0  0  0  0  0  0  0  0  0  0  0  0
   60.2868   28.9686   45.3435 H   0  0  0  0  0  0  0  0  0  0  0  0
   57.1162   33.5030   44.0908 H   0  0  0  0  0  0  0  0  0  0  0  0
   58.2672   35.7113   44.2337 H   0  0  0  0  0  0  0  0  0  0  0  0
   60.1103   36.0604   45.8783 H   0  0  0  0  0  0  0  0  0  0  0  0
   60.7824   34.2120   47.4119 H   0  0  0  0  0  0  0  0  0  0  0  0
   59.1839   31.8551   49.5278 H   0  0  0  0  0  0  0  0  0  0  0  0
   57.8187   31.6788   48.3700 H   0  0  0  0  0  0  0  0  0  0  0  0
   58.3341   29.5895   49.6997 H   0  0  0  0  0  0  0  0  0  0  0  0
   58.4330   29.3967   47.8884 H   0  0  0  0  0  0  0  0  0  0  0  0
   60.4730   28.9382   49.9359 H   0  0  0  0  0  0  0  0  0  0  0  0
   60.4078   28.4729   48.1660 H   0  0  0  0  0  0  0  0  0  0  0  0
   61.5653   30.9708   49.4340 H   0  0  0  0  0  0  0  0  0  0  0  0
   62.3460   29.7514   48.3427 H   0  0  0  0  0  0  0  0  0  0  0  0
   61.8074   31.9492   47.2264 H   0  0  0  0  0  0  0  0  0  0  0  0
   61.0472   30.4979   46.4610 H   0  0  0  0  0  0  0  0  0  0  0  0
  1  2  1  0
  2  3  1  0
  3  4  1  0
  4  5  2  0
  4  6  1  0
  6  7  1  0
  7  8  2  0
  7  9  1  0
  9 10  1  0
 10 11  2  0
 10 12  1  0
 12 13  1  0
 13 14  2  0
 14 15  1  0
 15 16  2  0
 16 17  1  0
 17 18  2  0
 18 19  1  0
 19 20  1  0
 20 21  1  0
 21 22  1  0
 22 23  1  0
 23 24  1  0
  9  2  2  0
 18 13  1  0
 24 19  1  0
  1 25  1  0
  1 26  1  0
  1 27  1  0
 14 28  1  0
 15 29  1  0
 16 30  1  0
 17 31  1  0
 20 32  1  0
 20 33  1  0
 21 34  1  0
 21 35  1  0
 22 36  1  0
 22 37  1  0
 23 38  1  0
 23 39  1  0
 24 40  1  0
 24 41  1  0
M  CHG  3   3  -1   6  -1  12  -1
M  END
>  <UniqueID>  (1) 
1

>  <SMILES>  (1) 
Cc1[n-]c(=S)[n-]c(=O)c1C(=O)[N-]c1ccccc1N1CCCCC1

>  <Energy>  (1) 
58.02943037447645

>  <Genealogy>  (1) 
Cc1[n-]c(=S)[n-]c(=O)c1C(=O)[N-]c1ccccc1N1CCCCC1 (protonated)
Cc1[n-]c(=S)[n-]c(=O)c1C(=O)[N-]c1ccccc1N1CCCCC1 (3D coordinates assigned)
Cc1[n-]c(=S)[n-]c(=O)c1C(=O)[N-]c1ccccc1N1CCCCC1 (nonaromatic ring conformer: 58.02943037447645 kcal/mol)

>  <smiles>  (1) 
Cc1[nH]c(=S)[nH]c(=O)c1C(=O)Nc1ccccc1N1CCCCC1

>  <score_type>  (1) 
oracle

>  <origin>  (1) 
adg

>  <m_score__min__energy>  (1) 
-11.83

>  <m_primary>  (1) 
energy

$$$$
1:0
     RDKit          3D

 35 37  0  0  0  0  0  0  0  0999 V2000
   58.1050   35.2606   44.6717 H   0  0  0  0  0  0  0  0  0  0  0  0
   58.1260   34.2550   45.1170 C   0  0  0  0  0  0  0  0  0  0  0  0
   57.3940   33.2570   44.5610 N   0  0  0  0  0  0  0  0  0  0  0  0
   57.3840   31.9940   45.0610 C   0  0  0  0  0  0  0  0  0  0  0  0
   56.6420   31.1000   44.4710 N   0  0  0  0  0  0  0  0  0  0  0  0
   56.4610   29.7360   44.8760 C   0  0  0  0  0  0  0  0  0  0  0  0
   55.3130   29.3400   45.2040 O   0  0  0  0  0  0  0  0  0  0  0  0
   57.5860   28.7480   44.7730 C   0  0  0  0  0  0  0  0  0  0  0  0
   57.2602   27.8897   44.1671 H   0  0  0  0  0  0  0  0  0  0  0  0
   58.4494   29.2387   44.3001 H   0  0  0  0  0  0  0  0  0  0  0  0
   58.0730   28.1630   46.4310 S   0  0  0  0  0  0  0  0  0  0  0  0
   57.0630   26.6850   46.3770 C   0  0  0  0  0  0  0  0  0  0  0  0
   55.8180   26.6560   45.8300 N   0  0  0  0  0  0  0  0  0  0  0  0
   55.4900   25.3690   46.0330 C   0  0  0  0  0  0  0  0  0  0  0  0
   54.3240   24.7810   45.6700 N   0  0  0  0  0  0  0  0  0  0  0  0
   54.1420   23.4550   45.9470 C   0  0  0  0  0  0  0  0  0  0  0  0
   53.0660   22.8920   45.6190 O   0  0  0  0  0  0  0  0  0  0  0  0
   55.1530   22.7170   46.6010 C   0  0  0  0  0  0  0  0  0  0  0  0
   55.0110   21.6499   46.8274 H   0  0  0  0  0  0  0  0  0  0  0  0
   56.3410   23.3710   46.9560 C   0  0  0  0  0  0  0  0  0  0  0  0
   57.3700   22.6950   47.6000 O   0  0  0  0  0  0  0  0  0  0  0  0
   56.4530   24.6860   46.6500 N   0  0  0  0  0  0  0  0  0  0  0  0
   57.4660   25.4940   46.8840 N   0  0  0  0  0  0  0  0  0  0  0  0
   58.1430   31.7080   46.2120 C   0  0  0  0  0  0  0  0  0  0  0  0
   58.1267   30.6969   46.6449 H   0  0  0  0  0  0  0  0  0  0  0  0
   58.9210   32.7150   46.8070 C   0  0  0  0  0  0  0  0  0  0  0  0
   59.7280   32.3970   48.0390 C   0  0  0  0  0  0  0  0  0  0  0  0
   59.1354   32.6305   48.9358 H   0  0  0  0  0  0  0  0  0  0  0  0
   59.9896   31.3286   48.0403 H   0  0  0  0  0  0  0  0  0  0  0  0
   60.6481   32.9998   48.0403 H   0  0  0  0  0  0  0  0  0  0  0  0
   58.9090   34.0140   46.2550 C   0  0  0  0  0  0  0  0  0  0  0  0
   59.7210   35.1330   46.8530 C   0  0  0  0  0  0  0  0  0  0  0  0
   59.6768   35.0722   47.9504 H   0  0  0  0  0  0  0  0  0  0  0  0
   60.7665   35.0445   46.5226 H   0  0  0  0  0  0  0  0  0  0  0  0
   59.3126   36.0995   46.5226 H   0  0  0  0  0  0  0  0  0  0  0  0
  1  2  1  0
  2  3  1  0
  3  4  1  0
  4  5  2  0
  5  6  1  0
  6  7  2  0
  6  8  1  0
  8  9  1  0
  8 10  1  0
  8 11  1  0
 11 12  1  0
 12 13  1  0
 13 14  2  0
 14 15  1  0
 15 16  1  0
 16 17  2  0
 16 18  1  0
 18 19  1  0
 18 20  2  0
 20 21  1  0
 20 22  1  0
 22 23  1  0
  4 24  1  0
 24 25  1  0
 24 26  2  0
 26 27  1  0
 27 28  1  0
 27 29  1  0
 27 30  1  0
 26 31  1  0
 31 32  1  0
 32 33  1  0
 32 34  1  0
 32 35  1  0
 31  2  2  0
 23 12  2  0
 22 14  1  0
M  CHG  3   3  -1  15  -1  21  -1
M  END
>  <UniqueID>  (2) 
2

>  <SMILES>  (2) 
Cc1c[n-]/c(=N/C(=O)CSc2nc3[n-]c(=O)cc([O-])n3n2)cc1C

>  <Energy>  (2) 
84.33758928945714

>  <Genealogy>  (2) 
Cc1c[n-]c(=NC(=O)CSc2nc3[n-]c(=O)cc([O-])n3n2)cc1C (protonated)
Cc1c[n-]/c(=N/C(=O)CSc2nc3[n-]c(=O)cc([O-])n3n2)cc1C (cis-trans isomerization)
Cc1c[n-]/c(=N/C(=O)CSc2nc3[n-]c(=O)cc([O-])n3n2)cc1C (3D coordinates assigned)
Cc1c[n-]/c(=N/C(=O)CSc2nc3[n-]c(=O)cc([O-])n3n2)cc1C (optimized conformer: 84.33758928945714 kcal/mol)

>  <smiles>  (2) 
Cc1c[nH]c(=NC(=O)CSc2nc3[nH]c(=O)cc(O)n3n2)cc1C

>  <score_type>  (2) 
oracle

>  <origin>  (2) 
adg

>  <m_score__min__energy>  (2) 
-15.199999999999999

>  <m_primary>  (2) 
energy

$$$$
2:0
     RDKit          3D

 52 54  0  0  0  0  0  0  0  0999 V2000
   62.1800   33.4880   46.9980 C   0  0  0  0  0  0  0  0  0  0  0  0
   61.1970   33.4550   48.1390 C   0  0  0  0  0  0  0  0  0  0  0  0
   61.6550   33.6580   49.4520 C   0  0  0  0  0  0  0  0  0  0  0  0
   60.7730   33.5690   50.5320 C   0  0  0  0  0  0  0  0  0  0  0  0
   59.4300   33.2610   50.3170 C   0  0  0  0  0  0  0  0  0  0  0  0
   58.9610   33.0470   49.0190 C   0  0  0  0  0  0  0  0  0  0  0  0
   59.8310   33.1570   47.9220 C   0  0  0  0  0  0  0  0  0  0  0  0
   59.3020   32.9110   46.5620 C   0  0  0  0  0  0  0  0  0  0  0  0
   59.0190   34.0280   45.7710 C   0  0  0  0  0  0  0  0  0  0  0  0
   58.4660   33.8730   44.5090 C   0  0  0  0  0  0  0  0  0  0  0  0
   58.1730   32.6040   44.0220 C   0  0  0  0  0  0  0  0  0  0  0  0
   58.4530   31.4450   44.7800 C   0  0  0  0  0  0  0  0  0  0  0  0
   58.0640   30.0580   44.2730 C   0  0  0  0  0  0  0  0  0  0  0  0
   56.3160   29.6670   44.1900 S   0  0  0  0  0  0  0  0  0  0  0  0
   55.9570   28.3340   45.2340 N   0  0  0  0  0  0  0  0  0  0  0  0
   55.9260   29.3310   42.7760 O   0  0  0  0  0  0  0  0  0  0  0  0
   55.5290   30.8640   44.6430 O   0  0  0  0  0  0  0  0  0  0  0  0
   59.0560   31.5990   46.0680 C   0  0  0  0  0  0  0  0  0  0  0  0
   59.4150   30.4000   46.9440 C   0  0  0  0  0  0  0  0  0  0  0  0
   59.9690   29.3180   46.1330 N   0  0  0  0  0  0  0  0  0  0  0  0
   59.7920   27.9190   46.3830 C   0  0  0  0  0  0  0  0  0  0  0  0
   60.7850   27.2470   46.7650 O   0  0  0  0  0  0  0  0  0  0  0  0
   58.5080   27.2950   46.2140 N   0  0  0  0  0  0  0  0  0  0  0  0
   58.3150   25.8790   46.0610 C   0  0  0  0  0  0  0  0  0  0  0  0
   57.0390   25.3360   46.2790 C   0  0  0  0  0  0  0  0  0  0  0  0
   56.8250   23.9620   46.1580 C   0  0  0  0  0  0  0  0  0  0  0  0
   57.8850   23.1130   45.8320 C   0  0  0  0  0  0  0  0  0  0  0  0
   59.1710   23.6360   45.6340 C   0  0  0  0  0  0  0  0  0  0  0  0
   60.2590   22.7650   45.3170 N   0  0  0  0  0  0  0  0  0  0  0  0
   59.3840   25.0180   45.7580 C   0  0  0  0  0  0  0  0  0  0  0  0
   63.2043   33.5224   47.3974 H   0  0  0  0  0  0  0  0  0  0  0  0
   62.0569   32.5852   46.3817 H   0  0  0  0  0  0  0  0  0  0  0  0
   61.9966   34.3805   46.3817 H   0  0  0  0  0  0  0  0  0  0  0  0
   62.7156   33.8886   49.6308 H   0  0  0  0  0  0  0  0  0  0  0  0
   61.1390   33.7424   51.5547 H   0  0  0  0  0  0  0  0  0  0  0  0
   58.7397   33.1866   51.1702 H   0  0  0  0  0  0  0  0  0  0  0  0
   57.9039   32.7908   48.8549 H   0  0  0  0  0  0  0  0  0  0  0  0
   59.2364   35.0367   46.1522 H   0  0  0  0  0  0  0  0  0  0  0  0
   58.2581   34.7583   43.8901 H   0  0  0  0  0  0  0  0  0  0  0  0
   57.7144   32.5004   43.0275 H   0  0  0  0  0  0  0  0  0  0  0  0
   58.4740   29.9513   43.2579 H   0  0  0  0  0  0  0  0  0  0  0  0
   58.4717   29.3618   45.0208 H   0  0  0  0  0  0  0  0  0  0  0  0
   55.1500   28.6230   45.8320 H   0  0  0  0  0  0  0  0  0  0  0  0
   60.1600   30.7090   47.6920 H   0  0  0  0  0  0  0  0  0  0  0  0
   58.5030   30.0388   47.4418 H   0  0  0  0  0  0  0  0  0  0  0  0
   57.6740   27.9060   46.0930 H   0  0  0  0  0  0  0  0  0  0  0  0
   56.2022   25.9977   46.5470 H   0  0  0  0  0  0  0  0  0  0  0  0
   55.8192   23.5469   46.3198 H   0  0  0  0  0  0  0  0  0  0  0  0
   57.7107   22.0317   45.7303 H   0  0  0  0  0  0  0  0  0  0  0  0
   60.7910   22.8750   44.4250 H   0  0  0  0  0  0  0  0  0  0  0  0
   60.5450   22.0060   45.9760 H   0  0  0  0  0  0  0  0  0  0  0  0
   60.3942   25.4299   45.6171 H   0  0  0  0  0  0  0  0  0  0  0  0
  1  2  1  0
  2  3  2  0
  3  4  1  0
  4  5  2  0
  5  6  1  0
  6  7  2  0
  7  8  1  0
  8  9  2  0
  9 10  1  0
 10 11  2  0
 11 12  1  0
 12 13  1  0
 13 14  1  0
 14 15  1  0
 14 16  2  0
 14 17  2  0
 12 18  2  0
 18 19  1  0
 19 20  1  0
 20 21  1  0
 21 22  2  0
 21 23  1  0
 23 24  1  0
 24 25  2  0
 25 26  1  0
 26 27  2  0
 27 28  1  0
 28 29  1  0
 28 30  2  0
  7  2  1  0
 18  8  1  0
 30 24  1  0
  1 31  1  0
  1 32  1  0
  1 33  1  0
  3 34  1  0
  4 35  1  0
  5 36  1  0
  6 37  1  0
  9 38  1  0
 10 39  1  0
 11 40  1  0
 13 41  1  0
 13 42  1  0
 15 43  1  0
 19 44  1  0
 19 45  1  0
 23 46  1  0
 25 47  1  0
 26 48  1  0
 27 49  1  0
 29 50  1  0
 29 51  1  0
 30 52  1  0
M  CHG  2  15  -1  20  -1
M  END
>  <UniqueID>  (3) 
3

>  <SMILES>  (3) 
Cc1ccccc1-c1cccc(CS([NH-])(=O)=O)c1C[N-]C(=O)Nc1cccc(N)c1

>  <Energy>  (3) 
69.49695490860088

>  <Genealogy>  (3) 
Cc1ccccc1-c1cccc(CS([NH-])(=O)=O)c1C[N-]C(=O)Nc1cccc(N)c1 (protonated)
Cc1ccccc1-c1cccc(CS([NH-])(=O)=O)c1C[N-]C(=O)Nc1cccc(N)c1 (3D coordinates assigned)
Cc1ccccc1-c1cccc(CS([NH-])(=O)=O)c1C[N-]C(=O)Nc1cccc(N)c1 (optimized conformer: 69.49695490860088 kcal/mol)

>  <smiles>  (3) 
Cc1ccccc1-c1cccc(CS(N)(=O)=O)c1CNC(=O)Nc1cccc(N)c1

>  <score_type>  (3) 
oracle

>  <origin>  (3) 
adg

>  <m_score__min__energy>  (3) 
-13.970000000000001

>  <m_primary>  (3) 
energy

$$$$
3:0
     RDKit          3D

 49 51  0  0  0  0  0  0  0  0999 V2000
   59.2510   27.2860   48.2530 C   0  0  0  0  0  0  0  0  0  0  0  0
   59.6650   28.3800   47.5880 C   0  0  0  0  0  0  0  0  0  0  0  0
   59.3230   28.7350   46.2730 C   0  0  0  0  0  0  0  0  0  0  0  0
   58.3830   28.2440   45.4380 C   0  0  0  0  0  0  0  0  0  0  0  0
   57.3930   27.1930   45.7690 C   0  0  0  0  0  0  0  0  0  0  0  0
   56.0110   27.4110   45.6210 C   0  0  0  0  0  0  0  0  0  0  0  0
   55.5250   28.6410   45.1980 O   0  0  0  0  0  0  0  0  0  0  0  0
   55.1340   26.4070   45.8770 N   0  0  0  0  0  0  0  0  0  0  0  0
   55.5660   25.1750   46.2470 C   0  0  0  0  0  0  0  0  0  0  0  0
   54.7340   24.2580   46.4750 O   0  0  0  0  0  0  0  0  0  0  0  0
   56.8960   24.9290   46.3590 N   0  0  0  0  0  0  0  0  0  0  0  0
   57.8150   25.9010   46.1220 C   0  0  0  0  0  0  0  0  0  0  0  0
   59.0420   25.6330   46.2240 O   0  0  0  0  0  0  0  0  0  0  0  0
   60.1460   29.7920   45.9300 C   0  0  0  0  0  0  0  0  0  0  0  0
   60.8880   30.1040   47.0490 C   0  0  0  0  0  0  0  0  0  0  0  0
   61.9260   31.1860   47.0890 C   0  0  0  0  0  0  0  0  0  0  0  0
   60.6020   29.2510   48.0630 N   0  0  0  0  0  0  0  0  0  0  0  0
   61.1890   29.2990   49.4160 C   0  0  0  0  0  0  0  0  0  0  0  0
   60.5020   30.3300   50.3270 C   0  0  0  0  0  0  0  0  0  0  0  0
   59.0840   29.9250   50.7460 C   0  0  0  0  0  0  0  0  0  0  0  0
   58.1240   30.7570   50.0920 O   0  0  0  0  0  0  0  0  0  0  0  0
   58.4880   31.8580   49.3010 C   0  0  0  0  0  0  0  0  0  0  0  0
   58.8480   32.9410   49.8430 O   0  0  0  0  0  0  0  0  0  0  0  0
   58.4850   31.7270   47.8720 N   0  0  0  0  0  0  0  0  0  0  0  0
   58.5670   32.8370   46.9600 C   0  0  0  0  0  0  0  0  0  0  0  0
   59.5520   33.8220   47.1560 C   0  0  0  0  0  0  0  0  0  0  0  0
   59.6760   34.8890   46.2610 C   0  0  0  0  0  0  0  0  0  0  0  0
   58.8300   34.9710   45.1500 C   0  0  0  0  0  0  0  0  0  0  0  0
   57.8610   33.9870   44.9340 C   0  0  0  0  0  0  0  0  0  0  0  0
   57.7300   32.9200   45.8300 C   0  0  0  0  0  0  0  0  0  0  0  0
   59.5861   27.1106   49.2859 H   0  0  0  0  0  0  0  0  0  0  0  0
   58.5775   26.5670   47.7637 H   0  0  0  0  0  0  0  0  0  0  0  0
   58.3491   28.6616   44.4209 H   0  0  0  0  0  0  0  0  0  0  0  0
   60.1986   30.2894   44.9503 H   0  0  0  0  0  0  0  0  0  0  0  0
   62.1606   31.4305   48.1355 H   0  0  0  0  0  0  0  0  0  0  0  0
   62.8374   30.8387   46.5804 H   0  0  0  0  0  0  0  0  0  0  0  0
   61.5412   32.0823   46.5804 H   0  0  0  0  0  0  0  0  0  0  0  0
   61.0934   28.3044   49.8761 H   0  0  0  0  0  0  0  0  0  0  0  0
   62.2417   29.5999   49.3100 H   0  0  0  0  0  0  0  0  0  0  0  0
   61.1114   30.4540   51.2343 H   0  0  0  0  0  0  0  0  0  0  0  0
   60.4159   31.2639   49.7523 H   0  0  0  0  0  0  0  0  0  0  0  0
   58.9073   28.8759   50.4663 H   0  0  0  0  0  0  0  0  0  0  0  0
   58.9819   30.0435   51.8348 H   0  0  0  0  0  0  0  0  0  0  0  0
   58.4820   30.7590   47.4740 H   0  0  0  0  0  0  0  0  0  0  0  0
   60.2296   33.7523   48.0197 H   0  0  0  0  0  0  0  0  0  0  0  0
   60.4384   35.6636   46.4304 H   0  0  0  0  0  0  0  0  0  0  0  0
   58.9274   35.8104   44.4458 H   0  0  0  0  0  0  0  0  0  0  0  0
   57.1996   34.0515   44.0574 H   0  0  0  0  0  0  0  0  0  0  0  0
   56.9712   32.1439   45.6514 H   0  0  0  0  0  0  0  0  0  0  0  0
  1  2  2  0
  2  3  1  0
  3  4  2  3
  4  5  1  0
  5  6  2  0
  6  7  1  0
  6  8  1  0
  8  9  1  0
  9 10  2  0
  9 11  1  0
 11 12  1  0
 12 13  2  0
  3 14  1  0
 14 15  2  0
 15 16  1  0
 15 17  1  0
 17 18  1  0
 18 19  1  0
 19 20  1  0
 20 21  1  0
 21 22  1  0
 22 23  2  0
 22 24  1  0
 24 25  1  0
 25 26  2  0
 26 27  1  0
 27 28  2  0
 28 29  1  0
 29 30  2  0
 17  2  1  0
 30 25  1  0
 12  5  1  0
  1 31  1  0
  1 32  1  0
  4 33  1  0
 14 34  1  0
 16 35  1  0
 16 36  1  0
 16 37  1  0
 18 38  1  0
 18 39  1  0
 19 40  1  0
 19 41  1  0
 20 42  1  0
 20 43  1  0
 24 44  1  0
 26 45  1  0
 27 46  1  0
 28 47  1  0
 29 48  1  0
 30 49  1  0
M  CHG  3   7  -1   8  -1  11  -1
M  END
>  <UniqueID>  (4) 
4

>  <SMILES>  (4) 
C=c1c(=Cc2c([O-])[n-]c(=O)[n-]c2=O)cc(C)n1CCCOC(=O)Nc1ccccc1

>  <Energy>  (4) 
94.97916382703858

>  <Genealogy>  (4) 
C=c1c(=Cc2c([O-])[n-]c(=O)[n-]c2=O)cc(C)n1CCCOC(=O)Nc1ccccc1 (protonated)
C=c1c(=Cc2c([O-])[n-]c(=O)[n-]c2=O)cc(C)n1CCCOC(=O)Nc1ccccc1 (3D coordinates assigned)
C=c1c(=Cc2c([O-])[n-]c(=O)[n-]c2=O)cc(C)n1CCCOC(=O)Nc1ccccc1 (optimized conformer: 94.97916382703858 kcal/mol)

>  <smiles>  (4) 
C=c1c(=Cc2c(O)[nH]c(=O)[nH]c2=O)cc(C)n1CCCOC(=O)Nc1ccccc1

>  <score_type>  (4) 
oracle

>  <origin>  (4) 
adg

>  <m_score__min__energy>  (4) 
-16.129999999999999

>  <m_primary>  (4) 
energy

$$$$
4:0
     RDKit          3D

 63 66  0  0  0  0  0  0  0  0999 V2000
   63.4150   33.4860   46.7590 C   0  0  0  0  0  0  0  0  0  0  0  0
   63.0790   32.5200   47.7300 O   0  0  0  0  0  0  0  0  0  0  0  0
   64.0270   32.5250   48.7850 C   0  0  0  0  0  0  0  0  0  0  0  0
   63.4220   33.1310   50.0700 C   0  0  0  0  0  0  0  0  0  0  0  0
   62.1060   33.8970   49.7630 C   0  0  0  0  0  0  0  0  0  0  0  0
   61.0960   33.8000   50.9060 C   0  0  0  0  0  0  0  0  0  0  0  0
   60.7970   32.3860   51.1700 N   0  0  0  0  0  0  0  0  0  0  0  0
   59.4510   31.9720   51.4540 C   0  0  0  0  0  0  0  0  0  0  0  0
   58.8040   32.4440   52.6040 C   0  0  0  0  0  0  0  0  0  0  0  0
   57.4920   32.0580   52.8860 C   0  0  0  0  0  0  0  0  0  0  0  0
   56.8070   31.1810   52.0290 C   0  0  0  0  0  0  0  0  0  0  0  0
   55.4130   30.7680   52.3290 C   0  0  0  0  0  0  0  0  0  0  0  0
   55.1410   29.9040   53.4010 C   0  0  0  0  0  0  0  0  0  0  0  0
   53.8290   29.5160   53.6790 C   0  0  0  0  0  0  0  0  0  0  0  0
   52.7730   29.9830   52.8940 C   0  0  0  0  0  0  0  0  0  0  0  0
   53.0200   30.8510   51.8160 C   0  0  0  0  0  0  0  0  0  0  0  0
   51.9040   31.3570   50.9830 C   0  0  0  0  0  0  0  0  0  0  0  0
   51.3630   32.6570   51.2070 N   0  0  0  0  0  0  0  0  0  0  0  0
   51.4180   30.6420   50.0650 O   0  0  0  0  0  0  0  0  0  0  0  0
   54.3450   31.2380   51.5410 C   0  0  0  0  0  0  0  0  0  0  0  0
   57.4620   30.7000   50.8820 C   0  0  0  0  0  0  0  0  0  0  0  0
   58.7750   31.1050   50.5800 C   0  0  0  0  0  0  0  0  0  0  0  0
   59.4460   30.6170   49.4470 O   0  0  0  0  0  0  0  0  0  0  0  0
   58.8880   30.5040   48.1640 C   0  0  0  0  0  0  0  0  0  0  0  0
   58.5990   29.2540   47.5850 C   0  0  0  0  0  0  0  0  0  0  0  0
   58.0460   29.1820   46.3050 C   0  0  0  0  0  0  0  0  0  0  0  0
   57.7630   30.3560   45.5920 C   0  0  0  0  0  0  0  0  0  0  0  0
   57.0730   30.2800   43.9740 S   0  0  0  0  0  0  0  0  0  0  0  0
   57.4080   28.7340   43.2740 N   0  0  0  0  0  0  0  0  0  0  0  0
   57.6730   31.3650   43.1240 O   0  0  0  0  0  0  0  0  0  0  0  0
   55.5830   30.4710   44.0350 O   0  0  0  0  0  0  0  0  0  0  0  0
   58.0190   31.6010   46.1810 C   0  0  0  0  0  0  0  0  0  0  0  0
   58.5740   31.6720   47.4630 C   0  0  0  0  0  0  0  0  0  0  0  0
   61.8700   31.3840   51.1430 C   0  0  0  0  0  0  0  0  0  0  0  0
   63.2520   32.0490   51.1700 C   0  0  0  0  0  0  0  0  0  0  0  0
   63.7369   34.4116   47.2587 H   0  0  0  0  0  0  0  0  0  0  0  0
   64.2334   33.1049   46.1305 H   0  0  0  0  0  0  0  0  0  0  0  0
   62.5368   33.6950   46.1305 H   0  0  0  0  0  0  0  0  0  0  0  0
   64.3434   31.4915   48.9892 H   0  0  0  0  0  0  0  0  0  0  0  0
   64.8876   33.1384   48.4798 H   0  0  0  0  0  0  0  0  0  0  0  0
   64.1266   33.8747   50.4706 H   0  0  0  0  0  0  0  0  0  0  0  0
   62.3457   34.9569   49.5922 H   0  0  0  0  0  0  0  0  0  0  0  0
   61.6506   33.4386   48.8728 H   0  0  0  0  0  0  0  0  0  0  0  0
   61.5191   34.2614   51.8105 H   0  0  0  0  0  0  0  0  0  0  0  0
   60.1715   34.3266   50.6269 H   0  0  0  0  0  0  0  0  0  0  0  0
   59.3331   33.1229   53.2889 H   0  0  0  0  0  0  0  0  0  0  0  0
   56.9911   32.4437   53.7862 H   0  0  0  0  0  0  0  0  0  0  0  0
   55.9659   29.5305   54.0255 H   0  0  0  0  0  0  0  0  0  0  0  0
   53.6260   28.8384   54.5214 H   0  0  0  0  0  0  0  0  0  0  0  0
   51.7429   29.6703   53.1201 H   0  0  0  0  0  0  0  0  0  0  0  0
   51.4080   33.3900   50.4650 H   0  0  0  0  0  0  0  0  0  0  0  0
   54.5488   31.9165   50.6995 H   0  0  0  0  0  0  0  0  0  0  0  0
   56.9419   29.9988   50.2128 H   0  0  0  0  0  0  0  0  0  0  0  0
   58.8097   28.3300   48.1433 H   0  0  0  0  0  0  0  0  0  0  0  0
   57.8317   28.2016   45.8545 H   0  0  0  0  0  0  0  0  0  0  0  0
   58.4450   28.6170   43.2760 H   0  0  0  0  0  0  0  0  0  0  0  0
   57.0260   28.0110   43.9240 H   0  0  0  0  0  0  0  0  0  0  0  0
   57.7829   32.5255   45.6337 H   0  0  0  0  0  0  0  0  0  0  0  0
   58.7646   32.6531   47.9225 H   0  0  0  0  0  0  0  0  0  0  0  0
   61.7704   30.7281   52.0205 H   0  0  0  0  0  0  0  0  0  0  0  0
   61.7811   30.8040   50.2126 H   0  0  0  0  0  0  0  0  0  0  0  0
   63.3951   32.5218   52.1528 H   0  0  0  0  0  0  0  0  0  0  0  0
   63.9999   31.2649   50.9809 H   0  0  0  0  0  0  0  0  0  0  0  0
  1  2  1  0
  2  3  1  0
  3  4  1  0
  4  5  1  0
  5  6  1  0
  6  7  1  0
  7  8  1  0
  8  9  2  0
  9 10  1  0
 10 11  2  0
 11 12  1  0
 12 13  2  0
 13 14  1  0
 14 15  2  0
 15 16  1  0
 16 17  1  0
 17 18  1  0
 17 19  2  0
 16 20  2  0
 11 21  1  0
 21 22  2  0
 22 23  1  0
 23 24  1  0
 24 25  2  0
 25 26  1  0
 26 27  2  0
 27 28  1  0
 28 29  1  0
 28 30  2  0
 28 31  2  0
 27 32  1  0
 32 33  2  0
  7 34  1  0
 34 35  1  0
 35  4  1  0
 22  8  1  0
 33 24  1  0
 20 12  1  0
  1 36  1  0
  1 37  1  0
  1 38  1  0
  3 39  1  0
  3 40  1  0
  4 41  1  0
  5 42  1  0
  5 43  1  0
  6 44  1  0
  6 45  1  0
  9 46  1  0
 10 47  1  0
 13 48  1  0
 14 49  1  0
 15 50  1  0
 18 51  1  0
 20 52  1  0
 21 53  1  0
 25 54  1  0
 26 55  1  0
 29 56  1  0
 29 57  1  0
 32 58  1  0
 33 59  1  0
 34 60  1  0
 34 61  1  0
 35 62  1  0
 35 63  1  0
M  CHG  1  18  -1
M  END
>  <UniqueID>  (5) 
5

>  <SMILES>  (5) 
COCC1CCN(c2ccc(-c3cccc(C([NH-])=O)c3)cc2Oc2ccc(S(N)(=O)=O)cc2)CC1

>  <Energy>  (5) 
84.15554816868179

>  <Genealogy>  (5) 
COCC1CCN(c2ccc(-c3cccc(C([NH-])=O)c3)cc2Oc2ccc(S(N)(=O)=O)cc2)CC1 (protonated)
COCC1CCN(c2ccc(-c3cccc(C([NH-])=O)c3)cc2Oc2ccc(S(N)(=O)=O)cc2)CC1 (3D coordinates assigned)
COCC1CCN(c2ccc(-c3cccc(C([NH-])=O)c3)cc2Oc2ccc(S(N)(=O)=O)cc2)CC1 (nonaromatic ring conformer: 84.15554816868179 kcal/mol)

>  <smiles>  (5) 
COCC1CCN(c2ccc(-c3cccc(C(N)=O)c3)cc2Oc2ccc(S(N)(=O)=O)cc2)CC1

>  <score_type>  (5) 
oracle

>  <origin>  (5) 
adg

>  <m_score__min__energy>  (5) 
-13.199999999999999

>  <m_primary>  (5) 
energy

$$$$
5:0
     RDKit          3D

 44 46  0  0  0  0  0  0  0  0999 V2000
   56.2390   30.9520   53.6210 O   0  0  0  0  0  0  0  0  0  0  0  0
   56.4330   31.1300   52.3870 C   0  0  0  0  0  0  0  0  0  0  0  0
   55.3120   31.2230   51.4880 N   0  0  0  0  0  0  0  0  0  0  0  0
   53.9440   31.0400   51.8930 C   0  0  0  0  0  0  0  0  0  0  0  0
   53.6090   29.9480   52.7080 C   0  0  0  0  0  0  0  0  0  0  0  0
   52.2910   29.7610   53.1360 C   0  0  0  0  0  0  0  0  0  0  0  0
   51.2990   30.6730   52.7650 C   0  0  0  0  0  0  0  0  0  0  0  0
   51.6260   31.7790   51.9760 C   0  0  0  0  0  0  0  0  0  0  0  0
   50.6420   32.6960   51.6240 O   0  0  0  0  0  0  0  0  0  0  0  0
   52.9440   31.9670   51.5450 C   0  0  0  0  0  0  0  0  0  0  0  0
   57.8260   31.2490   51.8930 C   0  0  0  0  0  0  0  0  0  0  0  0
   58.8920   31.2670   52.8090 C   0  0  0  0  0  0  0  0  0  0  0  0
   60.2090   31.3820   52.3630 C   0  0  0  0  0  0  0  0  0  0  0  0
   60.4800   31.4930   50.9980 C   0  0  0  0  0  0  0  0  0  0  0  0
   59.4310   31.5010   50.0700 C   0  0  0  0  0  0  0  0  0  0  0  0
   59.7720   31.6860   48.3470 S   0  0  0  0  0  0  0  0  0  0  0  0
   59.0870   30.5850   47.5860 O   0  0  0  0  0  0  0  0  0  0  0  0
   61.2520   31.5580   48.1180 O   0  0  0  0  0  0  0  0  0  0  0  0
   59.2280   33.2370   47.7480 N   0  0  0  0  0  0  0  0  0  0  0  0
   60.2550   33.8390   46.8700 C   0  0  0  0  0  0  0  0  0  0  0  0
   59.6670   34.9640   46.0140 C   0  0  0  0  0  0  0  0  0  0  0  0
   58.5710   34.4300   45.0750 C   0  0  0  0  0  0  0  0  0  0  0  0
   57.8960   33.1560   45.6120 C   0  0  0  0  0  0  0  0  0  0  0  0
   57.8730   33.1460   47.1480 C   0  0  0  0  0  0  0  0  0  0  0  0
   58.1080   31.3750   50.5190 C   0  0  0  0  0  0  0  0  0  0  0  0
   55.4760   31.4870   50.4920 H   0  0  0  0  0  0  0  0  0  0  0  0
   54.3886   29.2341   53.0123 H   0  0  0  0  0  0  0  0  0  0  0  0
   52.0348   28.8957   53.7650 H   0  0  0  0  0  0  0  0  0  0  0  0
   50.2606   30.5201   53.0942 H   0  0  0  0  0  0  0  0  0  0  0  0
   53.1996   32.8434   50.9313 H   0  0  0  0  0  0  0  0  0  0  0  0
   58.6861   31.1898   53.8868 H   0  0  0  0  0  0  0  0  0  0  0  0
   61.0357   31.3852   53.0886 H   0  0  0  0  0  0  0  0  0  0  0  0
   61.5204   31.5744   50.6503 H   0  0  0  0  0  0  0  0  0  0  0  0
   61.0635   34.2486   47.4933 H   0  0  0  0  0  0  0  0  0  0  0  0
   60.6386   33.0568   46.1984 H   0  0  0  0  0  0  0  0  0  0  0  0
   59.2328   35.7288   46.6747 H   0  0  0  0  0  0  0  0  0  0  0  0
   60.4727   35.3948   45.4015 H   0  0  0  0  0  0  0  0  0  0  0  0
   57.8041   35.2087   44.9510 H   0  0  0  0  0  0  0  0  0  0  0  0
   59.0498   34.1736   44.1184 H   0  0  0  0  0  0  0  0  0  0  0  0
   56.8628   33.1119   45.2372 H   0  0  0  0  0  0  0  0  0  0  0  0
   58.4710   32.2844   45.2661 H   0  0  0  0  0  0  0  0  0  0  0  0
   57.2773   34.0030   47.4954 H   0  0  0  0  0  0  0  0  0  0  0  0
   57.4360   32.1875   47.4648 H   0  0  0  0  0  0  0  0  0  0  0  0
   57.2832   31.3746   49.7912 H   0  0  0  0  0  0  0  0  0  0  0  0
  1  2  2  0
  2  3  1  0
  3  4  1  0
  4  5  2  0
  5  6  1  0
  6  7  2  0
  7  8  1  0
  8  9  1  0
  8 10  2  0
  2 11  1  0
 11 12  2  0
 12 13  1  0
 13 14  2  0
 14 15  1  0
 15 16  1  0
 16 17  2  0
 16 18  2  0
 16 19  1  0
 19 20  1  0
 20 21  1  0
 21 22  1  0
 22 23  1  0
 23 24  1  0
 15 25  2  0
 10  4  1  0
 25 11  1  0
 24 19  1  0
  3 26  1  0
  5 27  1  0
  6 28  1  0
  7 29  1  0
 10 30  1  0
 12 31  1  0
 13 32  1  0
 14 33  1  0
 20 34  1  0
 20 35  1  0
 21 36  1  0
 21 37  1  0
 22 38  1  0
 22 39  1  0
 23 40  1  0
 23 41  1  0
 24 42  1  0
 24 43  1  0
 25 44  1  0
M  CHG  1   9  -1
M  END
>  <UniqueID>  (6) 
6

>  <SMILES>  (6) 
O=C(Nc1cccc([O-])c1)c1cccc(S(=O)(=O)N2CCCCC2)c1

>  <Energy>  (6) 
56.766560205076104

>  <Genealogy>  (6) 
O=C(Nc1cccc([O-])c1)c1cccc(S(=O)(=O)N2CCCCC2)c1 (protonated)
O=C(Nc1cccc([O-])c1)c1cccc(S(=O)(=O)N2CCCCC2)c1 (3D coordinates assigned)
O=C(Nc1cccc([O-])c1)c1cccc(S(=O)(=O)N2CCCCC2)c1 (nonaromatic ring conformer: 56.766560205076104 kcal/mol)

>  <smiles>  (6) 
O=C(Nc1cccc(O)c1)c1cccc(S(=O)(=O)N2CCCCC2)c1

>  <score_type>  (6) 
oracle

>  <origin>  (6) 
adg

>  <m_score__min__energy>  (6) 
-12.5

>  <m_primary>  (6) 
energy

$$$$
6:0
     RDKit          3D

 32 33  0  0  0  0  0  0  0  0999 V2000
   58.0670   32.1310   41.6120 C   0  0  0  0  0  0  0  0  0  0  0  0
   57.3910   32.2820   42.9090 N   0  0  0  0  0  0  0  0  0  0  0  0
   58.3120   32.8880   43.9010 C   0  0  0  0  0  0  0  0  0  0  0  0
   57.8330   32.6490   45.3370 C   0  0  0  0  0  0  0  0  0  0  0  0
   57.7830   31.1460   45.6660 C   0  0  0  0  0  0  0  0  0  0  0  0
   57.6040   30.2670   44.4090 C   0  0  1  0  0  0  0  0  0  0  0  0
   56.9640   28.9950   44.7560 N   0  0  0  0  0  0  0  0  0  0  0  0
   57.4380   28.1610   45.8270 C   0  0  0  0  0  0  0  0  0  0  0  0
   58.4110   28.5440   46.5350 O   0  0  0  0  0  0  0  0  0  0  0  0
   56.7960   26.8590   46.1060 C   0  0  0  0  0  0  0  0  0  0  0  0
   57.4980   25.8280   46.7500 C   0  0  0  0  0  0  0  0  0  0  0  0
   56.8420   24.6190   46.9900 C   0  0  0  0  0  0  0  0  0  0  0  0
   57.4440   23.6750   47.5650 O   0  0  0  0  0  0  0  0  0  0  0  0
   55.5510   24.4590   46.6000 N   0  0  0  0  0  0  0  0  0  0  0  0
   54.8820   25.4640   45.9780 C   0  0  0  0  0  0  0  0  0  0  0  0
   53.6870   25.2980   45.6250 O   0  0  0  0  0  0  0  0  0  0  0  0
   55.5030   26.6480   45.7370 N   0  0  0  0  0  0  0  0  0  0  0  0
   56.7680   31.0040   43.3470 C   0  0  0  0  0  0  0  0  0  0  0  0
   59.1284   31.8939   41.7771 H   0  0  0  0  0  0  0  0  0  0  0  0
   57.5934   31.3165   41.0443 H   0  0  0  0  0  0  0  0  0  0  0  0
   57.9850   33.0696   41.0443 H   0  0  0  0  0  0  0  0  0  0  0  0
   59.3105   32.4428   43.7793 H   0  0  0  0  0  0  0  0  0  0  0  0
   58.3409   33.9734   43.7247 H   0  0  0  0  0  0  0  0  0  0  0  0
   58.5250   33.1455   46.0331 H   0  0  0  0  0  0  0  0  0  0  0  0
   56.8181   33.0609   45.4380 H   0  0  0  0  0  0  0  0  0  0  0  0
   58.7228   30.8629   46.1626 H   0  0  0  0  0  0  0  0  0  0  0  0
   56.9124   30.9769   46.3167 H   0  0  0  0  0  0  0  0  0  0  0  0
   58.6007   30.0593   43.9926 H   0  0  0  0  0  0  0  0  0  0  0  0
   56.2470   28.6090   44.1000 H   0  0  0  0  0  0  0  0  0  0  0  0
   58.5440   25.9697   47.0594 H   0  0  0  0  0  0  0  0  0  0  0  0
   56.6563   30.3488   42.4705 H   0  0  0  0  0  0  0  0  0  0  0  0
   55.7959   31.2474   43.8005 H   0  0  0  0  0  0  0  0  0  0  0  0
  1  2  1  0
  2  3  1  0
  3  4  1  0
  4  5  1  0
  5  6  1  0
  6  7  1  0
  7  8  1  0
  8  9  2  0
  8 10  1  0
 10 11  2  0
 11 12  1  0
 12 13  2  0
 12 14  1  0
 14 15  1  0
 15 16  2  0
 15 17  1  0
  6 18  1  0
 18  2  1  0
 17 10  1  0
  1 19  1  0
  1 20  1  0
  1 21  1  0
  3 22  1  0
  3 23  1  0
  4 24  1  0
  4 25  1  0
  5 26  1  0
  5 27  1  0
  6 28  1  6
  7 29  1  0
 11 30  1  0
 18 31  1  0
 18 32  1  0
M  CHG  2  14  -1  17  -1
M  END
>  <UniqueID>  (7) 
7

>  <SMILES>  (7) 
CN1CCC[C@@H](NC(=O)c2cc(=O)[n-]c(=O)[n-]2)C1

>  <Energy>  (7) 
38.73607846449774

>  <Genealogy>  (7) 
CN1CCCC(NC(=O)c2cc(=O)[n-]c(=O)[n-]2)C1 (protonated)
CN1CCC[C@@H](NC(=O)c2cc(=O)[n-]c(=O)[n-]2)C1 (chirality)
CN1CCC[C@@H](NC(=O)c2cc(=O)[n-]c(=O)[n-]2)C1 (3D coordinates assigned)
CN1CCC[C@@H](NC(=O)c2cc(=O)[n-]c(=O)[n-]2)C1 (nonaromatic ring conformer: 38.73607846449774 kcal/mol)

>  <smiles>  (7) 
CN1CCCC(NC(=O)c2cc(=O)[nH]c(=O)[nH]2)C1

>  <score_type>  (7) 
oracle

>  <origin>  (7) 
adg

>  <m_score__min__energy>  (7) 
-10.92

>  <m_primary>  (7) 
energy

$$$$
7:0
     RDKit          3D

 73 76  0  0  0  0  0  0  0  0999 V2000
   59.7720   35.2510   46.3970 C   0  0  0  0  0  0  0  0  0  0  0  0
   60.2720   34.3540   47.3810 O   0  0  0  0  0  0  0  0  0  0  0  0
   60.9300   33.1650   47.0540 C   0  0  0  0  0  0  0  0  0  0  0  0
   61.6770   33.1100   46.0370 O   0  0  0  0  0  0  0  0  0  0  0  0
   60.7890   31.9810   47.9440 C   0  0  0  0  0  0  0  0  0  0  0  0
   61.4470   31.9110   49.1320 C   0  0  0  0  0  0  0  0  0  0  0  0
   62.3280   33.0670   49.5870 C   0  0  0  0  0  0  0  0  0  0  0  0
   61.3010   30.7450   49.9880 N   0  0  0  0  0  0  0  0  0  0  0  0
   61.9630   30.7200   51.2650 C   0  0  0  0  0  0  0  0  0  0  0  0
   61.9100   31.8380   52.1070 C   0  0  0  0  0  0  0  0  0  0  0  0
   62.5690   31.8170   53.3370 C   0  0  0  0  0  0  0  0  0  0  0  0
   63.2770   30.6780   53.7350 C   0  0  0  0  0  0  0  0  0  0  0  0
   63.3220   29.5430   52.9080 C   0  0  0  0  0  0  0  0  0  0  0  0
   64.0800   28.3380   53.3170 C   0  0  0  0  0  0  0  0  0  0  0  0
   63.5900   27.5690   54.1890 O   0  0  0  0  0  0  0  0  0  0  0  0
   65.3530   28.0120   52.7260 N   0  0  0  0  0  0  0  0  0  0  0  0
   66.4090   29.0260   52.6210 C   0  0  0  0  0  0  0  0  0  0  0  0
   67.1420   28.8770   51.2860 C   0  0  0  0  0  0  0  0  0  0  0  0
   67.5100   27.4760   51.0160 N   0  0  0  0  0  0  0  0  0  0  0  0
   68.3710   27.1980   49.8890 C   0  0  0  0  0  0  0  0  0  0  0  0
   69.0170   25.8600   49.6940 C   0  0  0  0  0  0  0  0  0  0  0  0
   68.5840   28.0950   49.0270 O   0  0  0  0  0  0  0  0  0  0  0  0
   67.1040   26.4170   51.9550 C   0  0  0  0  0  0  0  0  0  0  0  0
   65.6480   26.6100   52.3990 C   0  0  0  0  0  0  0  0  0  0  0  0
   62.6700   29.5780   51.6630 C   0  0  0  0  0  0  0  0  0  0  0  0
   60.3730   29.6830   49.6560 C   0  0  0  0  0  0  0  0  0  0  0  0
   60.2480   28.6380   50.4340 N   0  0  0  0  0  0  0  0  0  0  0  0
   59.4140   29.8930   48.5040 C   0  0  2  0  0  0  0  0  0  0  0  0
   58.9740   28.6110   47.9120 C   0  0  0  0  0  0  0  0  0  0  0  0
   58.6300   27.6100   47.4470 N   0  0  0  0  0  0  0  0  0  0  0  0
   60.0540   30.7630   47.4000 C   0  0  1  0  0  0  0  0  0  0  0  0
   58.9950   31.1450   46.3720 C   0  0  0  0  0  0  0  0  0  0  0  0
   58.0350   32.1530   46.4440 C   0  0  0  0  0  0  0  0  0  0  0  0
   57.7550   33.0690   47.5940 C   0  0  0  0  0  0  0  0  0  0  0  0
   57.2910   32.1500   45.3190 N   0  0  0  0  0  0  0  0  0  0  0  0
   57.7530   31.1930   44.5300 N   0  0  0  0  0  0  0  0  0  0  0  0
   57.1920   30.9030   43.2150 C   0  0  0  0  0  0  0  0  0  0  0  0
   58.7760   30.5530   45.1370 C   0  0  0  0  0  0  0  0  0  0  0  0
   59.5680   29.4220   44.5440 C   0  0  0  0  0  0  0  0  0  0  0  0
   59.2938   36.1090   46.8921 H   0  0  0  0  0  0  0  0  0  0  0  0
   60.6023   35.6062   45.7689 H   0  0  0  0  0  0  0  0  0  0  0  0
   59.0333   34.7316   45.7689 H   0  0  0  0  0  0  0  0  0  0  0  0
   62.3523   33.0989   50.6863 H   0  0  0  0  0  0  0  0  0  0  0  0
   63.3483   32.9241   49.2017 H   0  0  0  0  0  0  0  0  0  0  0  0
   61.9197   34.0129   49.2017 H   0  0  0  0  0  0  0  0  0  0  0  0
   61.3490   32.7326   51.7988 H   0  0  0  0  0  0  0  0  0  0  0  0
   62.5316   32.6978   53.9949 H   0  0  0  0  0  0  0  0  0  0  0  0
   63.8019   30.6709   54.7017 H   0  0  0  0  0  0  0  0  0  0  0  0
   65.9597   30.0283   52.6807 H   0  0  0  0  0  0  0  0  0  0  0  0
   67.1251   28.8903   53.4449 H   0  0  0  0  0  0  0  0  0  0  0  0
   66.4866   29.2348   50.4783 H   0  0  0  0  0  0  0  0  0  0  0  0
   68.0674   29.4694   51.3366 H   0  0  0  0  0  0  0  0  0  0  0  0
   69.2337   25.4111   50.6746 H   0  0  0  0  0  0  0  0  0  0  0  0
   68.3369   25.2029   49.1321 H   0  0  0  0  0  0  0  0  0  0  0  0
   69.9545   25.9839   49.1321 H   0  0  0  0  0  0  0  0  0  0  0  0
   67.2035   25.4394   51.4607 H   0  0  0  0  0  0  0  0  0  0  0  0
   67.7522   26.4657   52.8424 H   0  0  0  0  0  0  0  0  0  0  0  0
   64.9827   26.2879   51.5844 H   0  0  0  0  0  0  0  0  0  0  0  0
   65.4870   26.0086   53.3059 H   0  0  0  0  0  0  0  0  0  0  0  0
   62.7153   28.7034   50.9974 H   0  0  0  0  0  0  0  0  0  0  0  0
   60.1340   27.6730   50.0530 H   0  0  0  0  0  0  0  0  0  0  0  0
   60.2480   28.7100   51.4740 H   0  0  0  0  0  0  0  0  0  0  0  0
   58.5360   30.4103   48.9181 H   0  0  0  0  0  0  0  0  0  0  0  0
   60.8304   30.1595   46.9071 H   0  0  0  0  0  0  0  0  0  0  0  0
   57.9194   32.5313   48.5395 H   0  0  0  0  0  0  0  0  0  0  0  0
   58.4288   33.9370   47.5439 H   0  0  0  0  0  0  0  0  0  0  0  0
   56.7110   33.4119   47.5439 H   0  0  0  0  0  0  0  0  0  0  0  0
   56.2205   30.4008   43.3334 H   0  0  0  0  0  0  0  0  0  0  0  0
   57.0538   31.8426   42.6600 H   0  0  0  0  0  0  0  0  0  0  0  0
   57.8787   30.2469   42.6600 H   0  0  0  0  0  0  0  0  0  0  0  0
   59.9960   28.8108   45.3522 H   0  0  0  0  0  0  0  0  0  0  0  0
   58.9082   28.7985   43.9228 H   0  0  0  0  0  0  0  0  0  0  0  0
   60.3796   29.8288   43.9228 H   0  0  0  0  0  0  0  0  0  0  0  0
  1  2  1  0
  2  3  1  0
  3  4  2  0
  3  5  1  0
  5  6  2  0
  6  7  1  0
  6  8  1  0
  8  9  1  0
  9 10  2  0
 10 11  1  0
 11 12  2  0
 12 13  1  0
 13 14  1  0
 14 15  2  0
 14 16  1  0
 16 17  1  0
 17 18  1  0
 18 19  1  0
 19 20  1  0
 20 21  1  0
 20 22  2  0
 19 23  1  0
 23 24  1  0
 13 25  2  0
  8 26  1  0
 26 27  2  0
 26 28  1  0
 28 29  1  0
 29 30  3  0
 28 31  1  0
 31 32  1  0
 32 33  1  0
 33 34  1  0
 33 35  2  0
 35 36  1  0
 36 37  1  0
 36 38  1  0
 38 39  1  0
 31  5  1  0
 38 32  2  0
 25  9  1  0
 24 16  1  0
  1 40  1  0
  1 41  1  0
  1 42  1  0
  7 43  1  0
  7 44  1  0
  7 45  1  0
 10 46  1  0
 11 47  1  0
 12 48  1  0
 17 49  1  0
 17 50  1  0
 18 51  1  0
 18 52  1  0
 21 53  1  0
 21 54  1  0
 21 55  1  0
 23 56  1  0
 23 57  1  0
 24 58  1  0
 24 59  1  0
 25 60  1  0
 27 61  1  0
 27 62  1  0
 28 63  1  1
 31 64  1  6
 34 65  1  0
 34 66  1  0
 34 67  1  0
 37 68  1  0
 37 69  1  0
 37 70  1  0
 39 71  1  0
 39 72  1  0
 39 73  1  0
M  CHG  1  27   1
M  END
>  <UniqueID>  (8) 
8

>  <SMILES>  (8) 
COC(=O)C1=C(C)N(c2cccc(C(=O)N3CCN(C(C)=O)CC3)c2)C(=[NH2+])[C@H](C#N)[C@H]1c1c(C)nn(C)c1C

>  <Energy>  (8) 
124.55419299360845

>  <Genealogy>  (8) 
COC(=O)C1=C(C)N(c2cccc(C(=O)N3CCN(C(C)=O)CC3)c2)C(=[NH2+])C(C#N)C1c1c(C)nn(C)c1C (protonated)
COC(=O)C1=C(C)N(c2cccc(C(=O)N3CCN(C(C)=O)CC3)c2)C(=[NH2+])[C@H](C#N)[C@H]1c1c(C)nn(C)c1C (chirality)
COC(=O)C1=C(C)N(c2cccc(C(=O)N3CCN(C(C)=O)CC3)c2)C(=[NH2+])[C@H](C#N)[C@H]1c1c(C)nn(C)c1C (3D coordinates assigned)
COC(=O)C1=C(C)N(c2cccc(C(=O)N3CCN(C(C)=O)CC3)c2)C(=[NH2+])[C@H](C#N)[C@H]1c1c(C)nn(C)c1C (nonaromatic ring conformer: 124.55419299360845 kcal/mol)

>  <smiles>  (8) 
COC(=O)C1=C(C)N(c2cccc(C(=O)N3CCN(C(C)=O)CC3)c2)C(=N)C(C#N)C1c1c(C)nn(C)c1C

>  <score_type>  (8) 
oracle

>  <origin>  (8) 
adg

>  <m_score__min__energy>  (8) 
-7.5700000000000003

>  <m_primary>  (8) 
energy

$$$$
8:0
     RDKit          3D

 53 56  0  0  0  0  0  0  0  0999 V2000
   55.9190   29.6260   43.2830 O   0  0  0  0  0  0  0  0  0  0  0  0
   56.3380   29.5040   44.4650 C   0  0  0  0  0  0  0  0  0  0  0  0
   55.8980   28.3830   45.2430 N   0  0  0  0  0  0  0  0  0  0  0  0
   56.7940   27.4580   45.9300 C   0  0  0  0  0  0  0  0  0  0  0  0
   56.3500   26.0540   45.6660 C   0  0  0  0  0  0  0  0  0  0  0  0
   57.2200   25.1340   45.0560 C   0  0  0  0  0  0  0  0  0  0  0  0
   56.7730   23.8330   44.8090 C   0  0  0  0  0  0  0  0  0  0  0  0
   55.4700   23.4690   45.1540 C   0  0  0  0  0  0  0  0  0  0  0  0
   54.6270   24.4170   45.7410 C   0  0  0  0  0  0  0  0  0  0  0  0
   55.0790   25.6770   45.9800 N   0  0  0  0  0  0  0  0  0  0  0  0
   57.2650   30.5170   45.0070 C   0  0  0  0  0  0  0  0  0  0  0  0
   58.4680   30.1270   45.6160 C   0  0  0  0  0  0  0  0  0  0  0  0
   59.3450   31.0910   46.1220 C   0  0  0  0  0  0  0  0  0  0  0  0
   59.0400   32.4520   46.0090 C   0  0  0  0  0  0  0  0  0  0  0  0
   60.1420   33.6460   46.6880 S   0  0  0  0  0  0  0  0  0  0  0  0
   59.5590   34.2440   47.9390 O   0  0  0  0  0  0  0  0  0  0  0  0
   60.3480   34.7400   45.6780 O   0  0  0  0  0  0  0  0  0  0  0  0
   61.6650   32.8740   47.0570 N   0  0  0  0  0  0  0  0  0  0  0  0
   61.6210   32.2120   48.3830 C   0  0  0  0  0  0  0  0  0  0  0  0
   62.3770   32.9760   49.4770 C   0  0  0  0  0  0  0  0  0  0  0  0
   63.7560   33.2530   49.0490 N   0  0  0  0  0  0  0  0  0  0  0  0
   64.8310   33.3800   50.0050 C   0  0  0  0  0  0  0  0  0  0  0  0
   66.0500   32.6930   49.8380 C   0  0  0  0  0  0  0  0  0  0  0  0
   67.0580   32.8310   50.7950 C   0  0  0  0  0  0  0  0  0  0  0  0
   66.8520   33.6450   51.9100 C   0  0  0  0  0  0  0  0  0  0  0  0
   65.6320   34.3080   52.0530 C   0  0  0  0  0  0  0  0  0  0  0  0
   64.6620   34.1620   51.1110 N   0  0  0  0  0  0  0  0  0  0  0  0
   64.0380   33.4000   47.6160 C   0  0  0  0  0  0  0  0  0  0  0  0
   62.7720   33.8370   46.8750 C   0  0  0  0  0  0  0  0  0  0  0  0
   57.8520   32.8460   45.3760 C   0  0  0  0  0  0  0  0  0  0  0  0
   56.9730   31.8830   44.8710 C   0  0  0  0  0  0  0  0  0  0  0  0
   57.8200   27.5953   45.5580 H   0  0  0  0  0  0  0  0  0  0  0  0
   56.7697   27.6556   47.0118 H   0  0  0  0  0  0  0  0  0  0  0  0
   58.2406   25.4343   44.7763 H   0  0  0  0  0  0  0  0  0  0  0  0
   57.4461   23.0977   44.3440 H   0  0  0  0  0  0  0  0  0  0  0  0
   55.1105   22.4466   44.9658 H   0  0  0  0  0  0  0  0  0  0  0  0
   53.5961   24.1433   46.0101 H   0  0  0  0  0  0  0  0  0  0  0  0
   58.7215   29.0596   45.6954 H   0  0  0  0  0  0  0  0  0  0  0  0
   60.2792   30.7782   46.6113 H   0  0  0  0  0  0  0  0  0  0  0  0
   60.5688   32.1169   48.6893 H   0  0  0  0  0  0  0  0  0  0  0  0
   62.1148   31.2354   48.2721 H   0  0  0  0  0  0  0  0  0  0  0  0
   61.8617   33.9270   49.6771 H   0  0  0  0  0  0  0  0  0  0  0  0
   62.4030   32.3611   50.3887 H   0  0  0  0  0  0  0  0  0  0  0  0
   66.2069   32.0513   48.9584 H   0  0  0  0  0  0  0  0  0  0  0  0
   68.0127   32.2990   50.6702 H   0  0  0  0  0  0  0  0  0  0  0  0
   67.6415   33.7626   52.6669 H   0  0  0  0  0  0  0  0  0  0  0  0
   65.4549   34.9495   52.9289 H   0  0  0  0  0  0  0  0  0  0  0  0
   64.8225   34.1581   47.4751 H   0  0  0  0  0  0  0  0  0  0  0  0
   64.3762   32.4337   47.2138 H   0  0  0  0  0  0  0  0  0  0  0  0
   62.4562   34.8182   47.2591 H   0  0  0  0  0  0  0  0  0  0  0  0
   63.0063   33.8873   45.8014 H   0  0  0  0  0  0  0  0  0  0  0  0
   57.6113   33.9147   45.2767 H   0  0  0  0  0  0  0  0  0  0  0  0
   56.0484   32.1975   44.3648 H   0  0  0  0  0  0  0  0  0  0  0  0
  1  2  2  0
  2  3  1  0
  3  4  1  0
  4  5  1  0
  5  6  2  0
  6  7  1  0
  7  8  2  0
  8  9  1  0
  9 10  2  0
  2 11  1  0
 11 12  2  0
 12 13  1  0
 13 14  2  0
 14 15  1  0
 15 16  2  0
 15 17  2  0
 15 18  1  0
 18 19  1  0
 19 20  1  0
 20 21  1  0
 21 22  1  0
 22 23  2  0
 23 24  1  0
 24 25  2  0
 25 26  1  0
 26 27  2  0
 21 28  1  0
 28 29  1  0
 14 30  1  0
 30 31  2  0
 10  5  1  0
 31 11  1  0
 29 18  1  0
 27 22  1  0
  4 32  1  0
  4 33  1  0
  6 34  1  0
  7 35  1  0
  8 36  1  0
  9 37  1  0
 12 38  1  0
 13 39  1  0
 19 40  1  0
 19 41  1  0
 20 42  1  0
 20 43  1  0
 23 44  1  0
 24 45  1  0
 25 46  1  0
 26 47  1  0
 28 48  1  0
 28 49  1  0
 29 50  1  0
 29 51  1  0
 30 52  1  0
 31 53  1  0
M  CHG  1   3  -1
M  END
>  <UniqueID>  (9) 
9

>  <SMILES>  (9) 
O=C([N-]Cc1ccccn1)c1ccc(S(=O)(=O)N2CCN(c3ccccn3)CC2)cc1

>  <Energy>  (9) 
68.86061218738152

>  <Genealogy>  (9) 
O=C([N-]Cc1ccccn1)c1ccc(S(=O)(=O)N2CCN(c3ccccn3)CC2)cc1 (protonated)
O=C([N-]Cc1ccccn1)c1ccc(S(=O)(=O)N2CCN(c3ccccn3)CC2)cc1 (3D coordinates assigned)
O=C([N-]Cc1ccccn1)c1ccc(S(=O)(=O)N2CCN(c3ccccn3)CC2)cc1 (nonaromatic ring conformer: 68.86061218738152 kcal/mol)

>  <smiles>  (9) 
O=C(NCc1ccccn1)c1ccc(S(=O)(=O)N2CCN(c3ccccn3)CC2)cc1

>  <score_type>  (9) 
oracle

>  <origin>  (9) 
adg

>  <m_score__min__energy>  (9) 
-11.33

>  <m_primary>  (9) 
energy

$$$$
9:0
     RDKit          3D

 48 51  0  0  0  0  0  0  0  0999 V2000
   56.4860   30.7840   43.6560 C   0  0  0  0  0  0  0  0  0  0  0  0
   57.2040   31.1020   44.7470 C   0  0  0  0  0  0  0  0  0  0  0  0
   57.0190   32.3510   45.2400 N   0  0  0  0  0  0  0  0  0  0  0  0
   57.6370   32.8020   46.3520 C   0  0  0  0  0  0  0  0  0  0  0  0
   57.4000   33.9780   46.7410 O   0  0  0  0  0  0  0  0  0  0  0  0
   58.4980   31.9940   47.0390 N   0  0  0  0  0  0  0  0  0  0  0  0
   59.1980   32.5020   48.2390 C   0  0  0  0  0  0  0  0  0  0  0  0
   60.6460   32.7860   47.9290 C   0  0  0  0  0  0  0  0  0  0  0  0
   61.6560   32.3630   48.8100 C   0  0  0  0  0  0  0  0  0  0  0  0
   62.9970   32.6510   48.5360 C   0  0  0  0  0  0  0  0  0  0  0  0
   63.3390   33.3620   47.3840 C   0  0  0  0  0  0  0  0  0  0  0  0
   62.3420   33.7870   46.5030 C   0  0  0  0  0  0  0  0  0  0  0  0
   61.0000   33.5030   46.7720 C   0  0  0  0  0  0  0  0  0  0  0  0
   58.7520   30.7230   46.5840 C   0  0  0  0  0  0  0  0  0  0  0  0
   59.6060   30.0200   47.1940 O   0  0  0  0  0  0  0  0  0  0  0  0
   58.0990   30.2130   45.4200 C   0  0  0  0  0  0  0  0  0  0  0  0
   58.3430   28.9540   44.9470 C   0  0  0  0  0  0  0  0  0  0  0  0
   57.8130   27.6960   45.5120 C   0  0  0  0  0  0  0  0  0  0  0  0
   58.7020   26.6720   45.8640 C   0  0  0  0  0  0  0  0  0  0  0  0
   58.2200   25.4620   46.3710 C   0  0  0  0  0  0  0  0  0  0  0  0
   56.8360   25.2500   46.5030 C   0  0  0  0  0  0  0  0  0  0  0  0
   56.3140   24.0560   47.0230 O   0  0  0  0  0  0  0  0  0  0  0  0
   56.4620   22.7910   46.4400 C   0  0  0  0  0  0  0  0  0  0  0  0
   56.1380   22.6340   45.1270 N   0  0  0  0  0  0  0  0  0  0  0  0
   56.2610   21.4400   44.4910 C   0  0  0  0  0  0  0  0  0  0  0  0
   56.7380   20.3250   45.1820 C   0  0  0  0  0  0  0  0  0  0  0  0
   57.0990   20.4570   46.5230 C   0  0  0  0  0  0  0  0  0  0  0  0
   56.9750   21.6950   47.1590 C   0  0  0  0  0  0  0  0  0  0  0  0
   57.3850   21.8330   48.4810 O   0  0  0  0  0  0  0  0  0  0  0  0
   55.9490   26.2700   46.1420 C   0  0  0  0  0  0  0  0  0  0  0  0
   56.4270   27.4820   45.6340 C   0  0  0  0  0  0  0  0  0  0  0  0
   55.5220   28.4670   45.2520 O   0  0  0  0  0  0  0  0  0  0  0  0
   56.5866   29.7867   43.2028 H   0  0  0  0  0  0  0  0  0  0  0  0
   55.7979   31.5210   43.2164 H   0  0  0  0  0  0  0  0  0  0  0  0
   58.7118   33.4296   48.5754 H   0  0  0  0  0  0  0  0  0  0  0  0
   59.1479   31.7378   49.0286 H   0  0  0  0  0  0  0  0  0  0  0  0
   61.3907   31.8030   49.7189 H   0  0  0  0  0  0  0  0  0  0  0  0
   63.7832   32.3169   49.2290 H   0  0  0  0  0  0  0  0  0  0  0  0
   64.3942   33.5875   47.1702 H   0  0  0  0  0  0  0  0  0  0  0  0
   62.6134   34.3464   45.5956 H   0  0  0  0  0  0  0  0  0  0  0  0
   60.2181   33.8415   46.0763 H   0  0  0  0  0  0  0  0  0  0  0  0
   58.9940   28.8697   44.0643 H   0  0  0  0  0  0  0  0  0  0  0  0
   59.7849   26.8211   45.7407 H   0  0  0  0  0  0  0  0  0  0  0  0
   58.9260   24.6724   46.6679 H   0  0  0  0  0  0  0  0  0  0  0  0
   55.9843   21.3517   43.4300 H   0  0  0  0  0  0  0  0  0  0  0  0
   56.8282   19.3531   44.6748 H   0  0  0  0  0  0  0  0  0  0  0  0
   57.4807   19.5879   47.0789 H   0  0  0  0  0  0  0  0  0  0  0  0
   54.8659   26.1172   46.2588 H   0  0  0  0  0  0  0  0  0  0  0  0
  1  2  2  0
  2  3  1  0
  3  4  1  0
  4  5  2  0
  4  6  1  0
  6  7  1  0
  7  8  1  0
  8  9  2  0
  9 10  1  0
 10 11  2  0
 11 12  1  0
 12 13  2  0
  6 14  1  0
 14 15  2  0
 14 16  1  0
 16 17  2  3
 17 18  1  0
 18 19  2  0
 19 20  1  0
 20 21  2  0
 21 22  1  0
 22 23  1  0
 23 24  2  0
 24 25  1  0
 25 26  2  0
 26 27  1  0
 27 28  2  0
 28 29  1  0
 21 30  1  0
 30 31  2  0
 31 32  1  0
 16  2  1  0
 31 18  1  0
 13  8  1  0
 28 23  1  0
  1 33  1  0
  1 34  1  0
  7 35  1  0
  7 36  1  0
  9 37  1  0
 10 38  1  0
 11 39  1  0
 12 40  1  0
 13 41  1  0
 17 42  1  0
 19 43  1  0
 20 44  1  0
 25 45  1  0
 26 46  1  0
 27 47  1  0
 30 48  1  0
M  CHG  3   3  -1  29  -1  32  -1
M  END
>  <UniqueID>  (10) 
10

>  <SMILES>  (10) 
C=c1[n-]c(=O)n(Cc2ccccc2)c(=O)c1=Cc1ccc(Oc2ncccc2[O-])cc1[O-]

>  <Energy>  (10) 
87.3377251316865

>  <Genealogy>  (10) 
C=c1[n-]c(=O)n(Cc2ccccc2)c(=O)c1=Cc1ccc(Oc2ncccc2[O-])cc1[O-] (protonated)
C=c1[n-]c(=O)n(Cc2ccccc2)c(=O)c1=Cc1ccc(Oc2ncccc2[O-])cc1[O-] (3D coordinates assigned)
C=c1[n-]c(=O)n(Cc2ccccc2)c(=O)c1=Cc1ccc(Oc2ncccc2[O-])cc1[O-] (optimized conformer: 87.3377251316865 kcal/mol)

>  <smiles>  (10) 
C=c1[nH]c(=O)n(Cc2ccccc2)c(=O)c1=Cc1ccc(Oc2ncccc2O)cc1O

>  <score_type>  (10) 
oracle

>  <origin>  (10) 
adg

>  <m_score__min__energy>  (10) 
-16.300000000000001

>  <m_primary>  (10) 
energy

$$$$
10:0
     RDKit          3D

 52 55  0  0  0  0  0  0  0  0999 V2000
   59.3580   30.0660   46.5040 C   0  0  0  0  0  0  0  0  0  0  0  0
   58.4500   29.5380   45.6690 C   0  0  0  0  0  0  0  0  0  0  0  0
   57.8670   28.2660   45.7770 C   0  0  0  0  0  0  0  0  0  0  0  0
   58.1150   27.3380   46.7280 C   0  0  0  0  0  0  0  0  0  0  0  0
   57.5050   25.9910   46.8060 C   0  0  0  0  0  0  0  0  0  0  0  0
   58.1490   24.8400   47.0880 N   0  0  0  0  0  0  0  0  0  0  0  0
   57.1830   23.9030   46.9940 C   0  0  0  0  0  0  0  0  0  0  0  0
   57.4040   22.6780   47.1930 O   0  0  0  0  0  0  0  0  0  0  0  0
   55.9640   24.3780   46.6610 N   0  0  0  0  0  0  0  0  0  0  0  0
   56.1870   25.7010   46.5420 C   0  0  0  0  0  0  0  0  0  0  0  0
   55.2080   26.6310   46.2050 O   0  0  0  0  0  0  0  0  0  0  0  0
   57.0070   28.1490   44.6950 C   0  0  0  0  0  0  0  0  0  0  0  0
   57.0970   29.3230   43.9790 C   0  0  0  0  0  0  0  0  0  0  0  0
   56.3180   29.6110   42.7300 C   0  0  0  0  0  0  0  0  0  0  0  0
   57.9770   30.1700   44.5620 N   0  0  0  0  0  0  0  0  0  0  0  0
   58.3980   31.4790   44.0310 C   0  0  0  0  0  0  0  0  0  0  0  0
   57.5140   32.6180   44.5690 C   0  0  0  0  0  0  0  0  0  0  0  0
   58.2180   33.4140   45.6350 C   0  0  0  0  0  0  0  0  0  0  0  0
   58.8790   34.6090   45.3130 C   0  0  0  0  0  0  0  0  0  0  0  0
   59.5980   35.3020   46.2900 C   0  0  0  0  0  0  0  0  0  0  0  0
   59.6780   34.7970   47.5920 C   0  0  0  0  0  0  0  0  0  0  0  0
   59.0330   33.5930   47.9310 C   0  0  0  0  0  0  0  0  0  0  0  0
   59.1830   33.0110   49.2850 C   0  0  0  0  0  0  0  0  0  0  0  0
   58.1690   32.5870   49.9010 O   0  0  0  0  0  0  0  0  0  0  0  0
   60.4880   32.8970   49.8780 N   0  0  0  0  0  0  0  0  0  0  0  0
   61.6490   32.9440   49.2850 C   0  0  0  0  0  0  0  0  0  0  0  0
   61.9310   32.2340   48.0960 C   0  0  0  0  0  0  0  0  0  0  0  0
   63.2040   32.3230   47.5280 C   0  0  0  0  0  0  0  0  0  0  0  0
   64.1870   33.1030   48.1410 C   0  0  0  0  0  0  0  0  0  0  0  0
   63.8850   33.7790   49.3250 C   0  0  0  0  0  0  0  0  0  0  0  0
   62.6420   33.6770   49.8670 N   0  0  0  0  0  0  0  0  0  0  0  0
   58.2820   32.9240   46.9490 C   0  0  0  0  0  0  0  0  0  0  0  0
   59.7494   31.0779   46.3224 H   0  0  0  0  0  0  0  0  0  0  0  0
   59.7110   29.4870   47.3701 H   0  0  0  0  0  0  0  0  0  0  0  0
   58.8348   27.6077   47.5148 H   0  0  0  0  0  0  0  0  0  0  0  0
   54.3510   26.6910   46.7430 H   0  0  0  0  0  0  0  0  0  0  0  0
   56.3731   27.2829   44.4541 H   0  0  0  0  0  0  0  0  0  0  0  0
   55.3176   29.9809   42.9989 H   0  0  0  0  0  0  0  0  0  0  0  0
   56.8440   30.3741   42.1375 H   0  0  0  0  0  0  0  0  0  0  0  0
   56.2211   28.6893   42.1375 H   0  0  0  0  0  0  0  0  0  0  0  0
   59.4408   31.6659   44.3270 H   0  0  0  0  0  0  0  0  0  0  0  0
   58.2996   31.4544   42.9357 H   0  0  0  0  0  0  0  0  0  0  0  0
   57.2523   33.2890   43.7376 H   0  0  0  0  0  0  0  0  0  0  0  0
   56.6128   32.1712   45.0141 H   0  0  0  0  0  0  0  0  0  0  0  0
   58.8309   35.0020   44.2867 H   0  0  0  0  0  0  0  0  0  0  0  0
   60.1019   36.2460   46.0351 H   0  0  0  0  0  0  0  0  0  0  0  0
   60.2490   35.3447   48.3562 H   0  0  0  0  0  0  0  0  0  0  0  0
   61.1542   31.6162   47.6217 H   0  0  0  0  0  0  0  0  0  0  0  0
   63.4319   31.7795   46.5992 H   0  0  0  0  0  0  0  0  0  0  0  0
   65.1895   33.1841   47.6955 H   0  0  0  0  0  0  0  0  0  0  0  0
   64.6520   34.3936   49.8189 H   0  0  0  0  0  0  0  0  0  0  0  0
   57.7378   32.0053   47.2134 H   0  0  0  0  0  0  0  0  0  0  0  0
  1  2  2  0
  2  3  1  0
  3  4  2  3
  4  5  1  0
  5  6  1  0
  6  7  1  0
  7  8  2  0
  7  9  1  0
  9 10  1  0
 10 11  1  0
  3 12  1  0
 12 13  2  0
 13 14  1  0
 13 15  1  0
 15 16  1  0
 16 17  1  0
 17 18  1  0
 18 19  2  0
 19 20  1  0
 20 21  2  0
 21 22  1  0
 22 23  1  0
 23 24  2  0
 23 25  1  0
 25 26  2  3
 26 27  1  0
 27 28  2  0
 28 29  1  0
 29 30  2  0
 30 31  1  0
 22 32  2  0
 15  2  1  0
 32 18  1  0
 10  5  2  0
 31 26  1  0
  1 33  1  0
  1 34  1  0
  4 35  1  0
 11 36  1  0
 12 37  1  0
 14 38  1  0
 14 39  1  0
 14 40  1  0
 16 41  1  0
 16 42  1  0
 17 43  1  0
 17 44  1  0
 19 45  1  0
 20 46  1  0
 21 47  1  0
 27 48  1  0
 28 49  1  0
 29 50  1  0
 30 51  1  0
 32 52  1  0
M  CHG  3   6  -1   9  -1  31  -1
M  END
>  <UniqueID>  (11) 
11

>  <SMILES>  (11) 
C=c1c(=Cc2[n-]c(=O)[n-]c2O)cc(C)n1CCc1cccc(C(=O)N=c2cccc[n-]2)c1

>  <Energy>  (11) 
117.44499551614193

>  <Genealogy>  (11) 
C=c1c(=Cc2[n-]c(=O)[n-]c2O)cc(C)n1CCc1cccc(C(=O)N=c2cccc[n-]2)c1 (protonated)
C=c1c(=Cc2[n-]c(=O)[n-]c2O)cc(C)n1CCc1cccc(C(=O)N=c2cccc[n-]2)c1 (3D coordinates assigned)
C=c1c(=Cc2[n-]c(=O)[n-]c2O)cc(C)n1CCc1cccc(C(=O)N=c2cccc[n-]2)c1 (optimized conformer: 117.44499551614193 kcal/mol)

>  <smiles>  (11) 
C=c1c(=Cc2[nH]c(=O)[nH]c2O)cc(C)n1CCc1cccc(C(=O)N=c2cccc[nH]2)c1

>  <score_type>  (11) 
oracle

>  <origin>  (11) 
adg

>  <m_score__min__energy>  (11) 
-15.48

>  <m_primary>  (11) 
energy

$$$$
11:0
     RDKit          3D

 20 20  0  0  0  0  0  0  0  0999 V2000
   57.4130   32.3020   44.7680 C   0  0  0  0  0  0  0  0  0  0  0  0
   56.7360   31.0510   44.8480 O   0  0  0  0  0  0  0  0  0  0  0  0
   57.3790   29.8090   44.9560 C   0  0  0  0  0  0  0  0  0  0  0  0
   58.7610   29.7540   44.7350 C   0  0  0  0  0  0  0  0  0  0  0  0
   59.4480   28.5410   44.8370 C   0  0  0  0  0  0  0  0  0  0  0  0
   58.7590   27.3700   45.1570 C   0  0  0  0  0  0  0  0  0  0  0  0
   57.3750   27.4050   45.3740 C   0  0  0  0  0  0  0  0  0  0  0  0
   56.5040   25.9340   45.7930 S   0  0  0  0  0  0  0  0  0  0  0  0
   54.8270   26.2930   45.9980 N   0  0  0  0  0  0  0  0  0  0  0  0
   57.0510   25.3610   47.0710 O   0  0  0  0  0  0  0  0  0  0  0  0
   56.6700   24.9160   44.6990 O   0  0  0  0  0  0  0  0  0  0  0  0
   56.6870   28.6240   45.2800 C   0  0  0  0  0  0  0  0  0  0  0  0
   57.6149   32.6752   45.7829 H   0  0  0  0  0  0  0  0  0  0  0  0
   58.3633   32.1709   44.2297 H   0  0  0  0  0  0  0  0  0  0  0  0
   56.7835   33.0258   44.2297 H   0  0  0  0  0  0  0  0  0  0  0  0
   59.3099   30.6723   44.4792 H   0  0  0  0  0  0  0  0  0  0  0  0
   60.5340   28.5091   44.6647 H   0  0  0  0  0  0  0  0  0  0  0  0
   59.3035   26.4178   45.2390 H   0  0  0  0  0  0  0  0  0  0  0  0
   54.7660   27.0900   46.6700 H   0  0  0  0  0  0  0  0  0  0  0  0
   55.6023   28.6555   45.4600 H   0  0  0  0  0  0  0  0  0  0  0  0
  1  2  1  0
  2  3  1  0
  3  4  2  0
  4  5  1  0
  5  6  2  0
  6  7  1  0
  7  8  1  0
  8  9  1  0
  8 10  2  0
  8 11  2  0
  7 12  2  0
 12  3  1  0
  1 13  1  0
  1 14  1  0
  1 15  1  0
  4 16  1  0
  5 17  1  0
  6 18  1  0
  9 19  1  0
 12 20  1  0
M  CHG  1   9  -1
M  END
>  <UniqueID>  (12) 
12

>  <SMILES>  (12) 
COc1cccc(S([NH-])(=O)=O)c1

>  <Energy>  (12) 
17.415310805878494

>  <Genealogy>  (12) 
COc1cccc(S([NH-])(=O)=O)c1 (protonated)
COc1cccc(S([NH-])(=O)=O)c1 (3D coordinates assigned)
COc1cccc(S([NH-])(=O)=O)c1 (optimized conformer: 17.415310805878494 kcal/mol)

>  <smiles>  (12) 
COc1cccc(S(N)(=O)=O)c1

>  <score_type>  (12) 
oracle

>  <origin>  (12) 
adg

>  <m_score__min__energy>  (12) 
-8.1799999999999997

>  <m_primary>  (12) 
energy

$$$$
12:0
     RDKit          3D

 60 63  0  0  0  0  0  0  0  0999 V2000
   59.3540   31.2960   50.5160 C   0  0  0  0  0  0  0  0  0  0  0  0
   60.8110   31.2030   50.6260 N   0  0  0  0  0  0  0  0  0  0  0  0
   61.6300   32.4210   50.6270 C   0  0  0  0  0  0  0  0  0  0  0  0
   62.2270   32.6330   49.2640 C   0  0  0  0  0  0  0  0  0  0  0  0
   61.4070   32.9870   48.1790 C   0  0  0  0  0  0  0  0  0  0  0  0
   61.9740   33.2240   46.9240 C   0  0  0  0  0  0  0  0  0  0  0  0
   63.3590   33.1370   46.7690 C   0  0  0  0  0  0  0  0  0  0  0  0
   64.1450   32.8070   47.8300 N   0  0  0  0  0  0  0  0  0  0  0  0
   63.6150   32.5460   49.0610 C   0  0  0  0  0  0  0  0  0  0  0  0
   61.4420   29.9160   50.7800 C   0  0  0  0  0  0  0  0  0  0  0  0
   62.4070   29.7710   51.5730 O   0  0  0  0  0  0  0  0  0  0  0  0
   60.9460   28.7460   50.0590 C   0  0  0  0  0  0  0  0  0  0  0  0
   61.0070   27.4320   50.4680 C   0  0  0  0  0  0  0  0  0  0  0  0
   60.4580   26.6410   49.5300 N   0  0  0  0  0  0  0  0  0  0  0  0
   60.0570   27.4480   48.5230 C   0  0  0  0  0  0  0  0  0  0  0  0
   59.3830   26.9710   47.3040 C   0  0  0  0  0  0  0  0  0  0  0  0
   59.1460   25.7430   47.1610 O   0  0  0  0  0  0  0  0  0  0  0  0
   58.9880   27.9000   46.2780 N   0  0  0  0  0  0  0  0  0  0  0  0
   57.6280   27.8160   45.7320 C   0  0  0  0  0  0  0  0  0  0  0  0
   57.2950   29.0310   44.8520 C   0  0  0  0  0  0  0  0  0  0  0  0
   57.9530   30.3000   45.4290 C   0  0  0  0  0  0  0  0  0  0  0  0
   57.5080   31.5740   44.6770 C   0  0  0  0  0  0  0  0  0  0  0  0
   58.1270   32.8230   45.2450 C   0  0  0  0  0  0  0  0  0  0  0  0
   58.0830   33.0720   46.6250 C   0  0  0  0  0  0  0  0  0  0  0  0
   58.6460   34.2370   47.1500 C   0  0  0  0  0  0  0  0  0  0  0  0
   59.2640   35.1580   46.3000 C   0  0  0  0  0  0  0  0  0  0  0  0
   59.2990   34.9240   44.9240 C   0  0  0  0  0  0  0  0  0  0  0  0
   58.7390   33.7600   44.3960 C   0  0  0  0  0  0  0  0  0  0  0  0
   59.4950   30.1710   45.3970 C   0  0  0  0  0  0  0  0  0  0  0  0
   59.9970   28.7300   45.6080 C   0  0  0  0  0  0  0  0  0  0  0  0
   60.3380   28.7660   48.8220 C   0  0  0  0  0  0  0  0  0  0  0  0
   58.9114   31.3243   51.5226 H   0  0  0  0  0  0  0  0  0  0  0  0
   59.0852   32.2131   49.9714 H   0  0  0  0  0  0  0  0  0  0  0  0
   58.9708   30.4205   49.9714 H   0  0  0  0  0  0  0  0  0  0  0  0
   61.0005   33.2844   50.8885 H   0  0  0  0  0  0  0  0  0  0  0  0
   62.4383   32.3151   51.3655 H   0  0  0  0  0  0  0  0  0  0  0  0
   60.3195   33.0775   48.3176 H   0  0  0  0  0  0  0  0  0  0  0  0
   61.3346   33.4770   46.0654 H   0  0  0  0  0  0  0  0  0  0  0  0
   63.8154   33.3355   45.7880 H   0  0  0  0  0  0  0  0  0  0  0  0
   65.1800   32.7550   47.6990 H   0  0  0  0  0  0  0  0  0  0  0  0
   64.2755   32.2672   49.8953 H   0  0  0  0  0  0  0  0  0  0  0  0
   61.4391   27.0832   51.4175 H   0  0  0  0  0  0  0  0  0  0  0  0
   60.3630   25.6020   49.5800 H   0  0  0  0  0  0  0  0  0  0  0  0
   57.5427   26.9021   45.1257 H   0  0  0  0  0  0  0  0  0  0  0  0
   56.9202   27.7969   46.5738 H   0  0  0  0  0  0  0  0  0  0  0  0
   57.6722   28.8567   43.8335 H   0  0  0  0  0  0  0  0  0  0  0  0
   56.2041   29.1702   44.8287 H   0  0  0  0  0  0  0  0  0  0  0  0
   57.6199   30.3970   46.4729 H   0  0  0  0  0  0  0  0  0  0  0  0
   57.8035   31.4822   43.6214 H   0  0  0  0  0  0  0  0  0  0  0  0
   56.4169   31.6624   44.7847 H   0  0  0  0  0  0  0  0  0  0  0  0
   57.6025   32.3457   47.2969 H   0  0  0  0  0  0  0  0  0  0  0  0
   58.6030   34.4296   48.2321 H   0  0  0  0  0  0  0  0  0  0  0  0
   59.7230   36.0675   46.7150 H   0  0  0  0  0  0  0  0  0  0  0  0
   59.7693   35.6591   44.2543 H   0  0  0  0  0  0  0  0  0  0  0  0
   58.7769   33.5757   43.3122 H   0  0  0  0  0  0  0  0  0  0  0  0
   59.8535   30.5246   44.4190 H   0  0  0  0  0  0  0  0  0  0  0  0
   59.8869   30.7746   46.2289 H   0  0  0  0  0  0  0  0  0  0  0  0
   60.2316   28.2865   44.6291 H   0  0  0  0  0  0  0  0  0  0  0  0
   60.8920   28.7669   46.2465 H   0  0  0  0  0  0  0  0  0  0  0  0
   60.1217   29.6486   48.2021 H   0  0  0  0  0  0  0  0  0  0  0  0
  1  2  1  0
  2  3  1  0
  3  4  1  0
  4  5  2  0
  5  6  1  0
  6  7  2  0
  7  8  1  0
  8  9  2  0
  2 10  1  0
 10 11  2  0
 10 12  1  0
 12 13  2  0
 13 14  1  0
 14 15  1  0
 15 16  1  0
 16 17  2  0
 16 18  1  0
 18 19  1  0
 19 20  1  0
 20 21  1  0
 21 22  1  0
 22 23  1  0
 23 24  2  0
 24 25  1  0
 25 26  2  0
 26 27  1  0
 27 28  2  0
 21 29  1  0
 29 30  1  0
 15 31  2  0
  9  4  1  0
 31 12  1  0
 30 18  1  0
 28 23  1  0
  1 32  1  0
  1 33  1  0
  1 34  1  0
  3 35  1  0
  3 36  1  0
  5 37  1  0
  6 38  1  0
  7 39  1  0
  8 40  1  0
  9 41  1  0
 13 42  1  0
 14 43  1  0
 19 44  1  0
 19 45  1  0
 20 46  1  0
 20 47  1  0
 21 48  1  0
 22 49  1  0
 22 50  1  0
 24 51  1  0
 25 52  1  0
 26 53  1  0
 27 54  1  0
 28 55  1  0
 29 56  1  0
 29 57  1  0
 30 58  1  0
 30 59  1  0
 31 60  1  0
M  CHG  1   8   1
M  END
>  <UniqueID>  (13) 
13

>  <SMILES>  (13) 
CN(Cc1ccc[nH+]c1)C(=O)c1c[nH]c(C(=O)N2CCC(Cc3ccccc3)CC2)c1

>  <Energy>  (13) 
95.5952345628781

>  <Genealogy>  (13) 
CN(Cc1ccc[nH+]c1)C(=O)c1c[nH]c(C(=O)N2CCC(Cc3ccccc3)CC2)c1 (protonated)
CN(Cc1ccc[nH+]c1)C(=O)c1c[nH]c(C(=O)N2CCC(Cc3ccccc3)CC2)c1 (3D coordinates assigned)
CN(Cc1ccc[nH+]c1)C(=O)c1c[nH]c(C(=O)N2CCC(Cc3ccccc3)CC2)c1 (nonaromatic ring conformer: 95.5952345628781 kcal/mol)

>  <smiles>  (13) 
CN(Cc1cccnc1)C(=O)c1c[nH]c(C(=O)N2CCC(Cc3ccccc3)CC2)c1

>  <score_type>  (13) 
oracle

>  <origin>  (13) 
adg

>  <m_score__min__energy>  (13) 
-8.5899999999999999

>  <m_primary>  (13) 
energy

$$$$
13:0
     RDKit          3D

 48 50  0  0  0  0  0  0  0  0999 V2000
   63.7490   33.7050   47.5190 C   0  0  0  0  0  0  0  0  0  0  0  0
   62.4070   33.0410   47.2040 C   0  0  0  0  0  0  0  0  0  0  0  0
   62.1620   31.8280   48.0670 C   0  0  0  0  0  0  0  0  0  0  0  0
   62.9100   31.6160   49.0610 O   0  0  0  0  0  0  0  0  0  0  0  0
   61.1250   30.8800   47.7470 N   0  0  0  0  0  0  0  0  0  0  0  0
   60.3300   30.2860   48.8300 C   0  0  0  0  0  0  0  0  0  0  0  0
   60.0660   28.8060   48.5460 C   0  0  0  0  0  0  0  0  0  0  0  0
   59.6060   28.6310   47.1650 N   0  0  0  0  0  0  0  0  0  0  0  0
   58.6010   27.6470   46.8770 C   0  0  0  0  0  0  0  0  0  0  0  0
   58.7160   26.3680   47.4410 C   0  0  0  0  0  0  0  0  0  0  0  0
   57.7590   25.3890   47.1710 C   0  0  0  0  0  0  0  0  0  0  0  0
   56.6890   25.6740   46.3200 C   0  0  0  0  0  0  0  0  0  0  0  0
   56.5690   26.9420   45.7440 C   0  0  0  0  0  0  0  0  0  0  0  0
   57.5120   27.9460   46.0310 C   0  0  0  0  0  0  0  0  0  0  0  0
   57.4410   29.2400   45.4100 N   0  0  0  0  0  0  0  0  0  0  0  0
   56.2680   29.8710   44.8830 C   0  0  0  0  0  0  0  0  0  0  0  0
   55.1610   29.2680   44.8780 O   0  0  0  0  0  0  0  0  0  0  0  0
   56.3490   31.2340   44.4570 N   0  0  0  0  0  0  0  0  0  0  0  0
   57.3110   32.1940   44.9160 C   0  0  0  0  0  0  0  0  0  0  0  0
   57.4800   32.3690   46.2970 C   0  0  0  0  0  0  0  0  0  0  0  0
   58.4230   33.2800   46.7850 C   0  0  0  0  0  0  0  0  0  0  0  0
   59.2150   34.0100   45.8960 C   0  0  0  0  0  0  0  0  0  0  0  0
   59.0750   33.8230   44.5190 C   0  0  0  0  0  0  0  0  0  0  0  0
   58.1320   32.9140   44.0240 C   0  0  0  0  0  0  0  0  0  0  0  0
   58.0650   32.7020   42.6870 F   0  0  0  0  0  0  0  0  0  0  0  0
   60.4020   29.2180   46.0830 C   0  0  0  0  0  0  0  0  0  0  0  0
   60.6570   30.7000   46.3650 C   0  0  0  0  0  0  0  0  0  0  0  0
   63.8792   33.7694   48.6094 H   0  0  0  0  0  0  0  0  0  0  0  0
   64.5646   33.1065   47.0871 H   0  0  0  0  0  0  0  0  0  0  0  0
   63.7680   34.7165   47.0871 H   0  0  0  0  0  0  0  0  0  0  0  0
   61.6009   33.7691   47.3772 H   0  0  0  0  0  0  0  0  0  0  0  0
   62.4274   32.7134   46.1541 H   0  0  0  0  0  0  0  0  0  0  0  0
   60.8801   30.3809   49.7778 H   0  0  0  0  0  0  0  0  0  0  0  0
   59.3675   30.8141   48.8979 H   0  0  0  0  0  0  0  0  0  0  0  0
   60.9949   28.2359   48.6948 H   0  0  0  0  0  0  0  0  0  0  0  0
   59.2881   28.4413   49.2330 H   0  0  0  0  0  0  0  0  0  0  0  0
   59.5655   26.1353   48.1000 H   0  0  0  0  0  0  0  0  0  0  0  0
   57.8474   24.3926   47.6285 H   0  0  0  0  0  0  0  0  0  0  0  0
   55.9391   24.8991   46.1025 H   0  0  0  0  0  0  0  0  0  0  0  0
   55.7325   27.1561   45.0625 H   0  0  0  0  0  0  0  0  0  0  0  0
   56.8674   31.7865   47.0009 H   0  0  0  0  0  0  0  0  0  0  0  0
   58.5407   33.4214   47.8695 H   0  0  0  0  0  0  0  0  0  0  0  0
   59.9496   34.7328   46.2806 H   0  0  0  0  0  0  0  0  0  0  0  0
   59.7074   34.3915   43.8213 H   0  0  0  0  0  0  0  0  0  0  0  0
   61.3644   28.6901   46.0112 H   0  0  0  0  0  0  0  0  0  0  0  0
   59.8511   29.1204   45.1359 H   0  0  0  0  0  0  0  0  0  0  0  0
   61.4225   31.0757   45.6702 H   0  0  0  0  0  0  0  0  0  0  0  0
   59.7192   31.2583   46.2277 H   0  0  0  0  0  0  0  0  0  0  0  0
  1  2  1  0
  2  3  1  0
  3  4  2  0
  3  5  1  0
  5  6  1  0
  6  7  1  0
  7  8  1  0
  8  9  1  0
  9 10  2  0
 10 11  1  0
 11 12  2  0
 12 13  1  0
 13 14  2  0
 14 15  1  0
 15 16  1  0
 16 17  2  0
 16 18  1  0
 18 19  1  0
 19 20  2  0
 20 21  1  0
 21 22  2  0
 22 23  1  0
 23 24  2  0
 24 25  1  0
  8 26  1  0
 26 27  1  0
 27  5  1  0
 14  9  1  0
 24 19  1  0
  1 28  1  0
  1 29  1  0
  1 30  1  0
  2 31  1  0
  2 32  1  0
  6 33  1  0
  6 34  1  0
  7 35  1  0
  7 36  1  0
 10 37  1  0
 11 38  1  0
 12 39  1  0
 13 40  1  0
 20 41  1  0
 21 42  1  0
 22 43  1  0
 23 44  1  0
 26 45  1  0
 26 46  1  0
 27 47  1  0
 27 48  1  0
M  CHG  2  15  -1  18  -1
M  END
>  <UniqueID>  (14) 
14

>  <SMILES>  (14) 
CCC(=O)N1CCN(c2ccccc2[N-]C(=O)[N-]c2ccccc2F)CC1

>  <Energy>  (14) 
61.28262417646075

>  <Genealogy>  (14) 
CCC(=O)N1CCN(c2ccccc2[N-]C(=O)[N-]c2ccccc2F)CC1 (protonated)
CCC(=O)N1CCN(c2ccccc2[N-]C(=O)[N-]c2ccccc2F)CC1 (3D coordinates assigned)
CCC(=O)N1CCN(c2ccccc2[N-]C(=O)[N-]c2ccccc2F)CC1 (nonaromatic ring conformer: 61.28262417646075 kcal/mol)

>  <smiles>  (14) 
CCC(=O)N1CCN(c2ccccc2NC(=O)Nc2ccccc2F)CC1

>  <score_type>  (14) 
oracle

>  <origin>  (14) 
adg

>  <m_score__min__energy>  (14) 
-10.74

>  <m_primary>  (14) 
energy

$$$$
14:0
     RDKit          3D

 33 35  0  0  0  0  0  0  0  0999 V2000
   56.7050   30.4880   44.5000 C   0  0  0  0  0  0  0  0  0  0  0  0
   57.7590   29.5180   44.9650 C   0  0  0  0  0  0  0  0  0  0  0  0
   59.1160   29.8730   44.8880 C   0  0  0  0  0  0  0  0  0  0  0  0
   60.1050   28.9790   45.3020 C   0  0  0  0  0  0  0  0  0  0  0  0
   59.7570   27.7190   45.7920 C   0  0  0  0  0  0  0  0  0  0  0  0
   58.4060   27.3380   45.8710 C   0  0  0  0  0  0  0  0  0  0  0  0
   58.0200   26.0730   46.3570 C   0  0  0  0  0  0  0  0  0  0  0  0
   58.8900   25.2420   46.7380 O   0  0  0  0  0  0  0  0  0  0  0  0
   56.6590   25.7350   46.4200 C   0  0  0  0  0  0  0  0  0  0  0  0
   56.1440   24.1260   47.0420 S   0  0  0  0  0  0  0  0  0  0  0  0
   56.1300   23.3840   45.4080 C   0  0  0  0  0  0  0  0  0  0  0  0
   55.2480   23.7250   44.4500 N   0  0  0  0  0  0  0  0  0  0  0  0
   55.5400   23.0000   43.3790 N   0  0  0  0  0  0  0  0  0  0  0  0
   56.5970   22.2290   43.7020 C   0  0  0  0  0  0  0  0  0  0  0  0
   57.2370   21.2640   42.7580 C   0  0  0  0  0  0  0  0  0  0  0  0
   56.9800   22.4310   44.9780 N   0  0  0  0  0  0  0  0  0  0  0  0
   58.1140   21.8380   45.6820 C   0  0  0  0  0  0  0  0  0  0  0  0
   55.7040   26.6560   45.9710 C   0  0  0  0  0  0  0  0  0  0  0  0
   54.3530   26.3350   45.9810 O   0  0  0  0  0  0  0  0  0  0  0  0
   56.0940   27.8720   45.5070 N   0  0  0  0  0  0  0  0  0  0  0  0
   57.4020   28.2430   45.4490 C   0  0  0  0  0  0  0  0  0  0  0  0
   56.2128   30.9410   45.3732 H   0  0  0  0  0  0  0  0  0  0  0  0
   57.1744   31.2766   43.8936 H   0  0  0  0  0  0  0  0  0  0  0  0
   55.9580   29.9549   43.8936 H   0  0  0  0  0  0  0  0  0  0  0  0
   59.4011   30.8617   44.4990 H   0  0  0  0  0  0  0  0  0  0  0  0
   61.1644   29.2690   45.2418 H   0  0  0  0  0  0  0  0  0  0  0  0
   60.5429   27.0216   46.1176 H   0  0  0  0  0  0  0  0  0  0  0  0
   57.7563   20.4810   43.3301 H   0  0  0  0  0  0  0  0  0  0  0  0
   56.4645   20.8038   42.1244 H   0  0  0  0  0  0  0  0  0  0  0  0
   57.9615   21.7966   42.1244 H   0  0  0  0  0  0  0  0  0  0  0  0
   57.9557   21.9208   46.7674 H   0  0  0  0  0  0  0  0  0  0  0  0
   58.2040   20.7774   45.4044 H   0  0  0  0  0  0  0  0  0  0  0  0
   59.0364   22.3692   45.4044 H   0  0  0  0  0  0  0  0  0  0  0  0
  1  2  1  0
  2  3  2  0
  3  4  1  0
  4  5  2  0
  5  6  1  0
  6  7  1  0
  7  8  2  0
  7  9  1  0
  9 10  1  0
 10 11  1  0
 11 12  2  0
 12 13  1  0
 13 14  2  0
 14 15  1  0
 14 16  1  0
 16 17  1  0
  9 18  2  0
 18 19  1  0
 18 20  1  0
 20 21  1  0
 21  2  1  0
 21  6  2  0
 16 11  1  0
  1 22  1  0
  1 23  1  0
  1 24  1  0
  3 25  1  0
  4 26  1  0
  5 27  1  0
 15 28  1  0
 15 29  1  0
 15 30  1  0
 17 31  1  0
 17 32  1  0
 17 33  1  0
M  CHG  2  19  -1  20  -1
M  END
>  <UniqueID>  (15) 
15

>  <SMILES>  (15) 
Cc1cccc2c(=O)c(Sc3nnc(C)n3C)c([O-])[n-]c12

>  <Energy>  (15) 
70.25382997698519

>  <Genealogy>  (15) 
Cc1cccc2c(=O)c(Sc3nnc(C)n3C)c([O-])[n-]c12 (protonated)
Cc1cccc2c(=O)c(Sc3nnc(C)n3C)c([O-])[n-]c12 (3D coordinates assigned)
Cc1cccc2c(=O)c(Sc3nnc(C)n3C)c([O-])[n-]c12 (optimized conformer: 70.25382997698519 kcal/mol)

>  <smiles>  (15) 
Cc1cccc2c(=O)c(Sc3nnc(C)n3C)c(O)[nH]c12

>  <score_type>  (15) 
oracle

>  <origin>  (15) 
adg

>  <m_score__min__energy>  (15) 
-13.199999999999999

>  <m_primary>  (15) 
energy

$$$$
15:0
     RDKit          3D

 61 64  0  0  0  0  0  0  0  0999 V2000
   59.0730   27.7840   46.6460 C   0  0  0  0  0  0  0  0  0  0  0  0
   58.5110   28.3990   45.5900 C   0  0  0  0  0  0  0  0  0  0  0  0
   57.8160   27.7790   44.5440 C   0  0  0  0  0  0  0  0  0  0  0  0
   57.5580   26.4640   44.4000 C   0  0  0  0  0  0  0  0  0  0  0  0
   57.0460   25.5960   45.4760 C   0  0  0  0  0  0  0  0  0  0  0  0
   57.7640   24.6030   46.0240 N   0  0  0  0  0  0  0  0  0  0  0  0
   56.9670   24.1450   47.0130 C   0  0  0  0  0  0  0  0  0  0  0  0
   57.2970   23.1920   47.7630 O   0  0  0  0  0  0  0  0  0  0  0  0
   55.7950   24.8000   47.1480 N   0  0  0  0  0  0  0  0  0  0  0  0
   55.8650   25.7260   46.1790 C   0  0  0  0  0  0  0  0  0  0  0  0
   54.8960   26.7000   45.9820 O   0  0  0  0  0  0  0  0  0  0  0  0
   57.4720   28.7880   43.6530 C   0  0  0  0  0  0  0  0  0  0  0  0
   57.9290   29.9710   44.1970 C   0  0  0  0  0  0  0  0  0  0  0  0
   57.7500   31.3150   43.5630 C   0  0  0  0  0  0  0  0  0  0  0  0
   58.5640   29.7390   45.3690 N   0  0  0  0  0  0  0  0  0  0  0  0
   59.1130   30.7500   46.2380 C   0  0  0  0  0  0  0  0  0  0  0  0
   58.3160   31.8100   46.6890 C   0  0  0  0  0  0  0  0  0  0  0  0
   58.8370   32.7650   47.5660 C   0  0  0  0  0  0  0  0  0  0  0  0
   60.1800   32.6970   47.9990 C   0  0  0  0  0  0  0  0  0  0  0  0
   60.7940   33.6880   48.9460 C   0  0  0  0  0  0  0  0  0  0  0  0
   60.0680   34.6370   49.3510 O   0  0  0  0  0  0  0  0  0  0  0  0
   62.1640   33.6320   49.4240 N   0  0  2  0  0  0  0  0  0  0  0  0
   63.1370   33.7300   48.3050 C   0  0  0  0  0  0  0  0  0  0  0  0
   64.5080   33.1060   48.6400 C   0  0  0  0  0  0  0  0  0  0  0  0
   64.8300   33.3060   50.1300 C   0  0  2  0  0  0  0  0  0  0  0  0
   66.2400   32.8600   50.4630 C   0  0  0  0  0  0  0  0  0  0  0  0
   66.6020   31.7050   50.1170 O   0  0  0  0  0  0  0  0  0  0  0  0
   67.1620   33.6930   51.2060 N   0  0  0  0  0  0  0  0  0  0  0  0
   66.7810   35.0350   51.6640 C   0  0  0  0  0  0  0  0  0  0  0  0
   68.4900   33.1590   51.5290 C   0  0  0  0  0  0  0  0  0  0  0  0
   63.7970   32.5660   51.0060 C   0  0  0  0  0  0  0  0  0  0  0  0
   62.3930   32.5020   50.3530 C   0  0  0  0  0  0  0  0  0  0  0  0
   60.9700   31.6230   47.5360 C   0  0  0  0  0  0  0  0  0  0  0  0
   60.4420   30.6590   46.6730 C   0  0  0  0  0  0  0  0  0  0  0  0
   59.5971   28.3748   47.4117 H   0  0  0  0  0  0  0  0  0  0  0  0
   59.0085   26.6903   46.7439 H   0  0  0  0  0  0  0  0  0  0  0  0
   57.7414   26.0088   43.4155 H   0  0  0  0  0  0  0  0  0  0  0  0
   56.9386   28.6672   42.6986 H   0  0  0  0  0  0  0  0  0  0  0  0
   57.6482   32.0797   44.3471 H   0  0  0  0  0  0  0  0  0  0  0  0
   58.6254   31.5451   42.9380 H   0  0  0  0  0  0  0  0  0  0  0  0
   56.8449   31.3079   42.9380 H   0  0  0  0  0  0  0  0  0  0  0  0
   57.2726   31.8912   46.3504 H   0  0  0  0  0  0  0  0  0  0  0  0
   58.1924   33.5812   47.9242 H   0  0  0  0  0  0  0  0  0  0  0  0
   62.3050   34.4930   50.0100 H   0  0  0  0  0  0  0  0  0  0  0  0
   62.7192   33.2090   47.4309 H   0  0  0  0  0  0  0  0  0  0  0  0
   63.3025   34.7992   48.1063 H   0  0  0  0  0  0  0  0  0  0  0  0
   64.4826   32.0296   48.4146 H   0  0  0  0  0  0  0  0  0  0  0  0
   65.2844   33.5970   48.0350 H   0  0  0  0  0  0  0  0  0  0  0  0
   64.7688   34.3827   50.3467 H   0  0  0  0  0  0  0  0  0  0  0  0
   66.7742   35.0589   52.7637 H   0  0  0  0  0  0  0  0  0  0  0  0
   67.5057   35.7710   51.2857 H   0  0  0  0  0  0  0  0  0  0  0  0
   65.7777   35.2804   51.2857 H   0  0  0  0  0  0  0  0  0  0  0  0
   68.6100   33.1107   52.6214 H   0  0  0  0  0  0  0  0  0  0  0  0
   68.5927   32.1497   51.1039 H   0  0  0  0  0  0  0  0  0  0  0  0
   69.2628   33.8163   51.1039 H   0  0  0  0  0  0  0  0  0  0  0  0
   64.1524   31.5391   51.1771 H   0  0  0  0  0  0  0  0  0  0  0  0
   63.6994   33.1258   51.9479 H   0  0  0  0  0  0  0  0  0  0  0  0
   62.3033   31.5586   49.7944 H   0  0  0  0  0  0  0  0  0  0  0  0
   61.6415   32.5616   51.1540 H   0  0  0  0  0  0  0  0  0  0  0  0
   62.0183   31.5435   47.8597 H   0  0  0  0  0  0  0  0  0  0  0  0
   61.0729   29.8244   46.3334 H   0  0  0  0  0  0  0  0  0  0  0  0
  1  2  2  0
  2  3  1  0
  3  4  2  3
  4  5  1  0
  5  6  1  0
  6  7  1  0
  7  8  2  0
  7  9  1  0
  9 10  1  0
 10 11  1  0
  3 12  1  0
 12 13  2  0
 13 14  1  0
 13 15  1  0
 15 16  1  0
 16 17  2  0
 17 18  1  0
 18 19  2  0
 19 20  1  0
 20 21  2  0
 20 22  1  0
 22 23  1  0
 23 24  1  0
 24 25  1  0
 25 26  1  0
 26 27  2  0
 26 28  1  0
 28 29  1  0
 28 30  1  0
 25 31  1  0
 31 32  1  0
 19 33  1  0
 33 34  2  0
 15  2  1  0
 34 16  1  0
 10  5  2  0
 32 22  1  0
  1 35  1  0
  1 36  1  0
  4 37  1  0
 12 38  1  0
 14 39  1  0
 14 40  1  0
 14 41  1  0
 17 42  1  0
 18 43  1  0
 22 44  1  1
 23 45  1  0
 23 46  1  0
 24 47  1  0
 24 48  1  0
 25 49  1  1
 29 50  1  0
 29 51  1  0
 29 52  1  0
 30 53  1  0
 30 54  1  0
 30 55  1  0
 31 56  1  0
 31 57  1  0
 32 58  1  0
 32 59  1  0
 33 60  1  0
 34 61  1  0
M  CHG  4   6  -1   9  -1  11  -1  22   1
M  END
>  <UniqueID>  (16) 
16

>  <SMILES>  (16) 
C=c1c(=Cc2[n-]c(=O)[n-]c2[O-])cc(C)n1-c1ccc(C(=O)[NH+]2CCC(C(=O)N(C)C)CC2)cc1

>  <Energy>  (16) 
149.02917524734627

>  <Genealogy>  (16) 
C=c1c(=Cc2[n-]c(=O)[n-]c2[O-])cc(C)n1-c1ccc(C(=O)[NH+]2CCC(C(=O)N(C)C)CC2)cc1 (protonated)
C=c1c(=Cc2[n-]c(=O)[n-]c2[O-])cc(C)n1-c1ccc(C(=O)[NH+]2CCC(C(=O)N(C)C)CC2)cc1 (3D coordinates assigned)
C=c1c(=Cc2[n-]c(=O)[n-]c2[O-])cc(C)n1-c1ccc(C(=O)[NH+]2CCC(C(=O)N(C)C)CC2)cc1 (nonaromatic ring conformer: 149.02917524734627 kcal/mol)

>  <smiles>  (16) 
C=c1c(=Cc2[nH]c(=O)[nH]c2O)cc(C)n1-c1ccc(C(=O)N2CCC(C(=O)N(C)C)CC2)cc1

>  <score_type>  (16) 
oracle

>  <origin>  (16) 
adg

>  <m_score__min__energy>  (16) 
-15.51

>  <m_primary>  (16) 
energy

$$$$
16:0
     RDKit          3D

 48 51  0  0  0  0  0  0  0  0999 V2000
   58.7631   30.7372   48.3728 H   0  0  0  0  0  0  0  0  0  0  0  0
   58.7310   29.9580   47.5970 C   0  0  0  0  0  0  0  0  0  0  0  0
   58.9084   28.9063   47.8662 H   0  0  0  0  0  0  0  0  0  0  0  0
   58.4750   30.2910   46.3200 C   0  0  0  0  0  0  0  0  0  0  0  0
   58.4060   29.4010   45.2410 C   0  0  0  0  0  0  0  0  0  0  0  0
   58.5280   28.0590   45.2790 C   0  0  0  0  0  0  0  0  0  0  0  0
   59.5012   27.6220   45.0109 H   0  0  0  0  0  0  0  0  0  0  0  0
   57.4370   27.1390   45.6580 C   0  0  0  0  0  0  0  0  0  0  0  0
   56.0900   27.4220   45.6150 C   0  0  0  0  0  0  0  0  0  0  0  0
   55.5220   28.5900   45.1230 O   0  0  0  0  0  0  0  0  0  0  0  0
   55.3750   26.4020   46.1280 N   0  0  0  0  0  0  0  0  0  0  0  0
   56.3310   25.5200   46.4920 C   0  0  0  0  0  0  0  0  0  0  0  0
   56.0710   24.4180   47.0400 O   0  0  0  0  0  0  0  0  0  0  0  0
   57.5890   25.9330   46.2330 N   0  0  0  0  0  0  0  0  0  0  0  0
   58.4750   25.4450   46.4880 H   0  0  0  0  0  0  0  0  0  0  0  0
   58.1370   30.1700   44.1180 C   0  0  0  0  0  0  0  0  0  0  0  0
   58.0138   29.8060   43.0873 H   0  0  0  0  0  0  0  0  0  0  0  0
   58.0540   31.4790   44.5440 C   0  0  0  0  0  0  0  0  0  0  0  0
   57.8050   32.6450   43.6350 C   0  0  0  0  0  0  0  0  0  0  0  0
   57.6128   33.5451   44.2374 H   0  0  0  0  0  0  0  0  0  0  0  0
   58.6881   32.8103   43.0003 H   0  0  0  0  0  0  0  0  0  0  0  0
   56.9314   32.4351   43.0003 H   0  0  0  0  0  0  0  0  0  0  0  0
   58.2590   31.5630   45.8810 N   0  0  0  0  0  0  0  0  0  0  0  0
   58.2870   32.8130   46.6590 C   0  0  0  0  0  0  0  0  0  0  0  0
   58.1810   33.6674   45.9743 H   0  0  0  0  0  0  0  0  0  0  0  0
   57.4579   32.7995   47.3818 H   0  0  0  0  0  0  0  0  0  0  0  0
   59.5860   32.9400   47.4120 C   0  0  0  0  0  0  0  0  0  0  0  0
   60.8050   32.6690   46.7740 C   0  0  0  0  0  0  0  0  0  0  0  0
   60.8112   32.3502   45.7212 H   0  0  0  0  0  0  0  0  0  0  0  0
   62.0120   32.8010   47.4660 C   0  0  0  0  0  0  0  0  0  0  0  0
   62.9615   32.5887   46.9527 H   0  0  0  0  0  0  0  0  0  0  0  0
   62.0220   33.2030   48.8130 C   0  0  0  0  0  0  0  0  0  0  0  0
   63.3040   33.3460   49.5500 C   0  0  0  0  0  0  0  0  0  0  0  0
   64.4580   32.6690   49.1140 C   0  0  0  0  0  0  0  0  0  0  0  0
   64.4105   32.0281   48.2213 H   0  0  0  0  0  0  0  0  0  0  0  0
   65.6640   32.8050   49.8070 C   0  0  0  0  0  0  0  0  0  0  0  0
   66.5606   32.2723   49.4572 H   0  0  0  0  0  0  0  0  0  0  0  0
   65.7340   33.6150   50.9420 C   0  0  0  0  0  0  0  0  0  0  0  0
   66.6846   33.7193   51.4855 H   0  0  0  0  0  0  0  0  0  0  0  0
   64.5950   34.2940   51.3880 C   0  0  0  0  0  0  0  0  0  0  0  0
   64.6660   35.1250   52.5620 C   0  0  0  0  0  0  0  0  0  0  0  0
   64.7220   35.7930   53.5060 N   0  0  0  0  0  0  0  0  0  0  0  0
   63.3840   34.1600   50.6960 C   0  0  0  0  0  0  0  0  0  0  0  0
   62.4901   34.6942   51.0504 H   0  0  0  0  0  0  0  0  0  0  0  0
   60.7980   33.4690   49.4530 C   0  0  0  0  0  0  0  0  0  0  0  0
   60.7896   33.7822   50.5074 H   0  0  0  0  0  0  0  0  0  0  0  0
   59.5920   33.3380   48.7580 C   0  0  0  0  0  0  0  0  0  0  0  0
   58.6412   33.5483   49.2696 H   0  0  0  0  0  0  0  0  0  0  0  0
  1  2  1  0
  2  3  1  0
  2  4  2  0
  4  5  1  0
  5  6  2  0
  6  7  1  0
  6  8  1  0
  8  9  2  0
  9 10  1  0
  9 11  1  0
 11 12  1  0
 12 13  2  0
 12 14  1  0
 14 15  1  0
  5 16  1  0
 16 17  1  0
 16 18  2  0
 18 19  1  0
 19 20  1  0
 19 21  1  0
 19 22  1  0
 18 23  1  0
 23 24  1  0
 24 25  1  0
 24 26  1  0
 24 27  1  0
 27 28  2  0
 28 29  1  0
 28 30  1  0
 30 31  1  0
 30 32  2  0
 32 33  1  0
 33 34  2  0
 34 35  1  0
 34 36  1  0
 36 37  1  0
 36 38  2  0
 38 39  1  0
 38 40  1  0
 40 41  1  0
 41 42  3  0
 40 43  2  0
 43 44  1  0
 32 45  1  0
 45 46  1  0
 45 47  2  0
 47 48  1  0
 23  4  1  0
 47 27  1  0
 14  8  1  0
 43 33  1  0
M  CHG  2  10  -1  11  -1
M  END
>  <UniqueID>  (17) 
17

>  <SMILES>  (17) 
C=c1/c(=C/c2[nH]c(=O)[n-]c2[O-])cc(C)n1Cc1ccc(-c2cccc(C#N)c2)cc1

>  <Energy>  (17) 
121.51902475322443

>  <Genealogy>  (17) 
C=c1c(=Cc2[nH]c(=O)[n-]c2[O-])cc(C)n1Cc1ccc(-c2cccc(C#N)c2)cc1 (protonated)
C=c1/c(=C/c2[nH]c(=O)[n-]c2[O-])cc(C)n1Cc1ccc(-c2cccc(C#N)c2)cc1 (cis-trans isomerization)
C=c1/c(=C/c2[nH]c(=O)[n-]c2[O-])cc(C)n1Cc1ccc(-c2cccc(C#N)c2)cc1 (3D coordinates assigned)
C=c1/c(=C/c2[nH]c(=O)[n-]c2[O-])cc(C)n1Cc1ccc(-c2cccc(C#N)c2)cc1 (optimized conformer: 121.51902475322443 kcal/mol)

>  <smiles>  (17) 
C=c1c(=Cc2[nH]c(=O)[nH]c2O)cc(C)n1Cc1ccc(-c2cccc(C#N)c2)cc1

>  <score_type>  (17) 
oracle

>  <origin>  (17) 
adg

>  <m_score__min__energy>  (17) 
-15.9

>  <m_primary>  (17) 
energy

$$$$
17:0
     RDKit          3D

 38 40  0  0  0  0  0  0  0  0999 V2000
   55.1430   29.0980   44.7810 O   0  0  0  0  0  0  0  0  0  0  0  0
   56.2770   29.6380   44.8740 C   0  0  0  0  0  0  0  0  0  0  0  0
   56.3970   31.0400   44.5950 N   0  0  0  0  0  0  0  0  0  0  0  0
   57.8520   31.8650   44.1220 S   0  0  0  0  0  0  0  0  0  0  0  0
   58.8300   30.8610   43.5810 O   0  0  0  0  0  0  0  0  0  0  0  0
   57.5230   32.8570   43.0440 O   0  0  0  0  0  0  0  0  0  0  0  0
   58.5540   32.7390   45.4820 C   0  0  0  0  0  0  0  0  0  0  0  0
   57.9150   33.8700   46.0090 C   0  0  0  0  0  0  0  0  0  0  0  0
   58.5260   34.6130   47.0200 C   0  0  0  0  0  0  0  0  0  0  0  0
   59.7750   34.2310   47.5130 C   0  0  0  0  0  0  0  0  0  0  0  0
   60.4200   33.0870   47.0140 C   0  0  0  0  0  0  0  0  0  0  0  0
   61.7280   32.7260   47.4950 N   0  0  0  0  0  0  0  0  0  0  0  0
   61.9900   31.8960   48.6690 C   0  0  0  0  0  0  0  0  0  0  0  0
   63.5170   31.9770   48.9160 C   0  0  0  0  0  0  0  0  0  0  0  0
   64.0510   32.8020   47.8430 N   0  0  0  0  0  0  0  0  0  0  0  0
   62.9750   33.2160   47.0360 C   0  0  0  0  0  0  0  0  0  0  0  0
   63.1230   33.9010   45.9890 O   0  0  0  0  0  0  0  0  0  0  0  0
   59.7940   32.3400   45.9980 C   0  0  0  0  0  0  0  0  0  0  0  0
   57.4260   28.8130   45.2950 C   0  0  0  0  0  0  0  0  0  0  0  0
   57.7880   27.6820   44.5430 C   0  0  0  0  0  0  0  0  0  0  0  0
   58.8420   26.8660   44.9640 C   0  0  0  0  0  0  0  0  0  0  0  0
   59.5520   27.1800   46.1250 C   0  0  0  0  0  0  0  0  0  0  0  0
   59.2180   28.3200   46.8620 C   0  0  0  0  0  0  0  0  0  0  0  0
   60.1850   28.7480   48.4510 Br  0  0  0  0  0  0  0  0  0  0  0  0
   58.1640   29.1410   46.4440 C   0  0  0  0  0  0  0  0  0  0  0  0
   56.9297   34.1725   45.6247 H   0  0  0  0  0  0  0  0  0  0  0  0
   58.0225   35.5013   47.4292 H   0  0  0  0  0  0  0  0  0  0  0  0
   60.2581   34.8306   48.2986 H   0  0  0  0  0  0  0  0  0  0  0  0
   61.4407   32.2820   49.5404 H   0  0  0  0  0  0  0  0  0  0  0  0
   61.6617   30.8582   48.5105 H   0  0  0  0  0  0  0  0  0  0  0  0
   63.7227   32.4393   49.8927 H   0  0  0  0  0  0  0  0  0  0  0  0
   63.9782   30.9784   48.9256 H   0  0  0  0  0  0  0  0  0  0  0  0
   65.0560   33.0420   47.6950 H   0  0  0  0  0  0  0  0  0  0  0  0
   60.2824   31.4357   45.6061 H   0  0  0  0  0  0  0  0  0  0  0  0
   57.2404   27.4383   43.6206 H   0  0  0  0  0  0  0  0  0  0  0  0
   59.1129   25.9744   44.3795 H   0  0  0  0  0  0  0  0  0  0  0  0
   60.3741   26.5302   46.4595 H   0  0  0  0  0  0  0  0  0  0  0  0
   57.9131   30.0457   47.0172 H   0  0  0  0  0  0  0  0  0  0  0  0
  1  2  2  0
  2  3  1  0
  3  4  1  0
  4  5  2  0
  4  6  2  0
  4  7  1  0
  7  8  2  0
  8  9  1  0
  9 10  2  0
 10 11  1  0
 11 12  1  0
 12 13  1  0
 13 14  1  0
 14 15  1  0
 15 16  1  0
 16 17  2  0
 11 18  2  0
  2 19  1  0
 19 20  2  0
 20 21  1  0
 21 22  2  0
 22 23  1  0
 23 24  1  0
 23 25  2  0
 18  7  1  0
 25 19  1  0
 16 12  1  0
  8 26  1  0
  9 27  1  0
 10 28  1  0
 13 29  1  0
 13 30  1  0
 14 31  1  0
 14 32  1  0
 15 33  1  0
 18 34  1  0
 20 35  1  0
 21 36  1  0
 22 37  1  0
 25 38  1  0
M  CHG  1   3  -1
M  END
>  <UniqueID>  (18) 
18

>  <SMILES>  (18) 
O=C([N-]S(=O)(=O)c1cccc(N2CCNC2=O)c1)c1cccc(Br)c1

>  <Energy>  (18) 
60.37659976243051

>  <Genealogy>  (18) 
O=C([N-]S(=O)(=O)c1cccc(N2CCNC2=O)c1)c1cccc(Br)c1 (protonated)
O=C([N-]S(=O)(=O)c1cccc(N2CCNC2=O)c1)c1cccc(Br)c1 (3D coordinates assigned)
O=C([N-]S(=O)(=O)c1cccc(N2CCNC2=O)c1)c1cccc(Br)c1 (nonaromatic ring conformer: 60.37659976243051 kcal/mol)

>  <smiles>  (18) 
O=C(NS(=O)(=O)c1cccc(N2CCNC2=O)c1)c1cccc(Br)c1

>  <score_type>  (18) 
oracle

>  <origin>  (18) 
adg

>  <m_score__min__energy>  (18) 
-10.6

>  <m_primary>  (18) 
energy

$$$$
18:0
     RDKit          3D

 48 50  0  0  0  0  0  0  0  0999 V2000
   58.4310   22.2220   44.1940 C   0  0  0  0  0  0  0  0  0  0  0  0
   57.5470   23.3430   44.6670 C   0  0  0  0  0  0  0  0  0  0  0  0
   58.0980   24.4440   45.3300 C   0  0  0  0  0  0  0  0  0  0  0  0
   57.3020   25.4540   45.7980 N   0  0  0  0  0  0  0  0  0  0  0  0
   57.8990   26.5810   46.4820 C   0  0  0  0  0  0  0  0  0  0  0  0
   58.0760   26.5370   47.7310 O   0  0  0  0  0  0  0  0  0  0  0  0
   58.3380   27.8130   45.7370 C   0  0  0  0  0  0  0  0  0  0  0  0
   57.6880   27.8890   44.4320 N   0  0  0  0  0  0  0  0  0  0  0  0
   56.9710   29.0400   43.9840 C   0  0  0  0  0  0  0  0  0  0  0  0
   56.6240   29.1140   42.7760 O   0  0  0  0  0  0  0  0  0  0  0  0
   56.6160   30.0430   44.8970 O   0  0  0  0  0  0  0  0  0  0  0  0
   57.4050   31.1560   45.2200 C   0  0  0  0  0  0  0  0  0  0  0  0
   57.4660   32.2930   44.3950 C   0  0  0  0  0  0  0  0  0  0  0  0
   58.2870   33.3700   44.7420 C   0  0  0  0  0  0  0  0  0  0  0  0
   59.0640   33.3290   45.9050 C   0  0  0  0  0  0  0  0  0  0  0  0
   59.8800   34.4340   46.1980 O   0  0  0  0  0  0  0  0  0  0  0  0
   60.3130   34.8160   47.5040 C   0  0  0  0  0  0  0  0  0  0  0  0
   61.6210   34.1540   47.8510 C   0  0  0  0  0  0  0  0  0  0  0  0
   62.4530   33.6580   46.8330 C   0  0  0  0  0  0  0  0  0  0  0  0
   63.6750   33.0570   47.1520 C   0  0  0  0  0  0  0  0  0  0  0  0
   64.0790   32.9550   48.4870 C   0  0  0  0  0  0  0  0  0  0  0  0
   63.2620   33.4570   49.5040 C   0  0  0  0  0  0  0  0  0  0  0  0
   62.0390   34.0590   49.1900 C   0  0  0  0  0  0  0  0  0  0  0  0
   59.0040   32.1880   46.7290 C   0  0  0  0  0  0  0  0  0  0  0  0
   58.1880   31.1090   46.3790 C   0  0  0  0  0  0  0  0  0  0  0  0
   55.9430   25.3810   45.6200 C   0  0  0  0  0  0  0  0  0  0  0  0
   55.1910   26.3160   46.0130 O   0  0  0  0  0  0  0  0  0  0  0  0
   55.3880   24.3070   44.9940 N   0  0  0  0  0  0  0  0  0  0  0  0
   56.1560   23.2890   44.5230 C   0  0  0  0  0  0  0  0  0  0  0  0
   55.6080   22.3040   43.9570 O   0  0  0  0  0  0  0  0  0  0  0  0
   58.8485   21.6926   45.0631 H   0  0  0  0  0  0  0  0  0  0  0  0
   57.8403   21.5206   43.5864 H   0  0  0  0  0  0  0  0  0  0  0  0
   59.2508   22.6329   43.5864 H   0  0  0  0  0  0  0  0  0  0  0  0
   59.1867   24.4990   45.4775 H   0  0  0  0  0  0  0  0  0  0  0  0
   58.0719   28.7039   46.3248 H   0  0  0  0  0  0  0  0  0  0  0  0
   59.4266   27.7647   45.5864 H   0  0  0  0  0  0  0  0  0  0  0  0
   56.8660   32.3352   43.4740 H   0  0  0  0  0  0  0  0  0  0  0  0
   58.3225   34.2584   44.0944 H   0  0  0  0  0  0  0  0  0  0  0  0
   60.4423   35.9079   47.5357 H   0  0  0  0  0  0  0  0  0  0  0  0
   59.5535   34.4981   48.2334 H   0  0  0  0  0  0  0  0  0  0  0  0
   62.1421   33.7427   45.7813 H   0  0  0  0  0  0  0  0  0  0  0  0
   64.3192   32.6640   46.3517 H   0  0  0  0  0  0  0  0  0  0  0  0
   65.0392   32.4800   48.7366 H   0  0  0  0  0  0  0  0  0  0  0  0
   63.5815   33.3785   50.5536 H   0  0  0  0  0  0  0  0  0  0  0  0
   61.4025   34.4592   49.9930 H   0  0  0  0  0  0  0  0  0  0  0  0
   59.6018   32.1463   47.6515 H   0  0  0  0  0  0  0  0  0  0  0  0
   58.1609   30.2153   47.0197 H   0  0  0  0  0  0  0  0  0  0  0  0
   54.3510   24.2700   44.8620 H   0  0  0  0  0  0  0  0  0  0  0  0
  1  2  1  0
  2  3  2  0
  3  4  1  0
  4  5  1  0
  5  6  2  0
  5  7  1  0
  7  8  1  0
  8  9  1  0
  9 10  2  0
  9 11  1  0
 11 12  1  0
 12 13  2  0
 13 14  1  0
 14 15  2  0
 15 16  1  0
 16 17  1  0
 17 18  1  0
 18 19  2  0
 19 20  1  0
 20 21  2  0
 21 22  1  0
 22 23  2  0
 15 24  1  0
 24 25  2  0
  4 26  1  0
 26 27  2  0
 26 28  1  0
 28 29  1  0
 29 30  2  0
 29  2  1  0
 25 12  1  0
 23 18  1  0
  1 31  1  0
  1 32  1  0
  1 33  1  0
  3 34  1  0
  7 35  1  0
  7 36  1  0
 13 37  1  0
 14 38  1  0
 17 39  1  0
 17 40  1  0
 19 41  1  0
 20 42  1  0
 21 43  1  0
 22 44  1  0
 23 45  1  0
 24 46  1  0
 25 47  1  0
 28 48  1  0
M  CHG  1   8  -1
M  END
>  <UniqueID>  (19) 
19

>  <SMILES>  (19) 
Cc1cn(C(=O)C[N-]C(=O)Oc2ccc(OCc3ccccc3)cc2)c(=O)[nH]c1=O

>  <Energy>  (19) 
57.843777276384046

>  <Genealogy>  (19) 
Cc1cn(C(=O)C[N-]C(=O)Oc2ccc(OCc3ccccc3)cc2)c(=O)[nH]c1=O (protonated)
Cc1cn(C(=O)C[N-]C(=O)Oc2ccc(OCc3ccccc3)cc2)c(=O)[nH]c1=O (3D coordinates assigned)
Cc1cn(C(=O)C[N-]C(=O)Oc2ccc(OCc3ccccc3)cc2)c(=O)[nH]c1=O (optimized conformer: 57.843777276384046 kcal/mol)

>  <smiles>  (19) 
Cc1cn(C(=O)CNC(=O)Oc2ccc(OCc3ccccc3)cc2)c(=O)[nH]c1=O

>  <score_type>  (19) 
oracle

>  <origin>  (19) 
adg

>  <m_score__min__energy>  (19) 
-11.02

>  <m_primary>  (19) 
energy

$$$$
19:0
     RDKit          3D

 51 54  0  0  0  0  0  0  0  0999 V2000
   61.2740   31.5020   49.8010 C   0  0  0  0  0  0  0  0  0  0  0  0
   60.8640   30.2060   49.2600 N   0  0  0  0  0  0  0  0  0  0  0  0
   60.3470   29.9850   48.0320 C   0  0  0  0  0  0  0  0  0  0  0  0
   60.0930   31.0040   47.1130 O   0  0  0  0  0  0  0  0  0  0  0  0
   60.1390   28.6290   47.8220 C   0  0  0  0  0  0  0  0  0  0  0  0
   59.5310   27.9860   46.6400 C   0  0  0  0  0  0  0  0  0  0  0  0
   59.9600   26.8640   46.2600 O   0  0  0  0  0  0  0  0  0  0  0  0
   58.4330   28.6180   45.8900 C   0  0  0  0  0  0  0  0  0  0  0  0
   58.6330   29.6480   45.0370 N   0  0  0  0  0  0  0  0  0  0  0  0
   57.4060   29.9140   44.5540 C   0  0  0  0  0  0  0  0  0  0  0  0
   57.1130   30.9650   43.5580 C   0  0  0  0  0  0  0  0  0  0  0  0
   56.6610   30.6390   42.4290 O   0  0  0  0  0  0  0  0  0  0  0  0
   57.3960   32.3470   43.8160 N   0  0  0  0  0  0  0  0  0  0  0  0
   57.9810   32.8800   45.0120 C   0  0  0  0  0  0  0  0  0  0  0  0
   59.1650   33.6390   44.9790 C   0  0  0  0  0  0  0  0  0  0  0  0
   59.7220   34.1280   46.1640 C   0  0  0  0  0  0  0  0  0  0  0  0
   59.1130   33.8470   47.3910 C   0  0  0  0  0  0  0  0  0  0  0  0
   59.8120   34.4600   48.8780 Cl  0  0  0  0  0  0  0  0  0  0  0  0
   57.9510   33.0690   47.4320 C   0  0  0  0  0  0  0  0  0  0  0  0
   57.3940   32.5800   46.2470 C   0  0  0  0  0  0  0  0  0  0  0  0
   56.5140   29.0300   45.1090 C   0  0  0  0  0  0  0  0  0  0  0  0
   55.1500   28.9750   44.8540 O   0  0  0  0  0  0  0  0  0  0  0  0
   57.1480   28.2030   45.9560 N   0  0  0  0  0  0  0  0  0  0  0  0
   60.5570   28.0120   48.9880 C   0  0  0  0  0  0  0  0  0  0  0  0
   60.4920   26.6530   49.2700 O   0  0  0  0  0  0  0  0  0  0  0  0
   61.0170   28.9960   49.8450 C   0  0  0  0  0  0  0  0  0  0  0  0
   61.5370   28.7660   51.2400 C   0  0  0  0  0  0  0  0  0  0  0  0
   60.4650   28.2190   52.1510 C   0  0  0  0  0  0  0  0  0  0  0  0
   60.5650   27.0430   52.5910 O   0  0  0  0  0  0  0  0  0  0  0  0
   59.2450   28.9350   52.3850 N   0  0  0  0  0  0  0  0  0  0  0  0
   59.0620   30.3520   52.2680 C   0  0  0  0  0  0  0  0  0  0  0  0
   58.1870   30.8480   51.2930 C   0  0  0  0  0  0  0  0  0  0  0  0
   57.9610   32.2240   51.1840 C   0  0  0  0  0  0  0  0  0  0  0  0
   58.5930   33.1100   52.0620 C   0  0  0  0  0  0  0  0  0  0  0  0
   58.3720   34.4430   51.9560 F   0  0  0  0  0  0  0  0  0  0  0  0
   59.4430   32.6180   53.0570 C   0  0  0  0  0  0  0  0  0  0  0  0
   59.6690   31.2420   53.1680 C   0  0  0  0  0  0  0  0  0  0  0  0
   61.2611   31.4612   50.9002 H   0  0  0  0  0  0  0  0  0  0  0  0
   62.2909   31.7387   49.4548 H   0  0  0  0  0  0  0  0  0  0  0  0
   60.5783   32.2805   49.4548 H   0  0  0  0  0  0  0  0  0  0  0  0
   59.5620   30.8420   46.2680 H   0  0  0  0  0  0  0  0  0  0  0  0
   59.6545   33.8485   44.0165 H   0  0  0  0  0  0  0  0  0  0  0  0
   60.6395   34.7339   46.1314 H   0  0  0  0  0  0  0  0  0  0  0  0
   57.4754   32.8420   48.3975 H   0  0  0  0  0  0  0  0  0  0  0  0
   56.4891   31.9558   46.2850 H   0  0  0  0  0  0  0  0  0  0  0  0
   62.3689   28.0477   51.1966 H   0  0  0  0  0  0  0  0  0  0  0  0
   61.8720   29.7322   51.6453 H   0  0  0  0  0  0  0  0  0  0  0  0
   57.6758   30.1529   50.6107 H   0  0  0  0  0  0  0  0  0  0  0  0
   57.2852   32.6097   50.4065 H   0  0  0  0  0  0  0  0  0  0  0  0
   59.9345   33.3135   53.7532 H   0  0  0  0  0  0  0  0  0  0  0  0
   60.3243   30.8563   53.9629 H   0  0  0  0  0  0  0  0  0  0  0  0
  1  2  1  0
  2  3  1  0
  3  4  1  0
  3  5  2  0
  5  6  1  0
  6  7  2  0
  6  8  1  0
  8  9  2  0
  9 10  1  0
 10 11  1  0
 11 12  2  0
 11 13  1  0
 13 14  1  0
 14 15  2  0
 15 16  1  0
 16 17  2  0
 17 18  1  0
 17 19  1  0
 19 20  2  0
 10 21  2  0
 21 22  1  0
 21 23  1  0
  5 24  1  0
 24 25  1  0
 24 26  2  0
 26 27  1  0
 27 28  1  0
 28 29  2  0
 28 30  1  0
 30 31  1  0
 31 32  2  0
 32 33  1  0
 33 34  2  0
 34 35  1  0
 34 36  1  0
 36 37  2  0
 26  2  1  0
 37 31  1  0
 23  8  1  0
 20 14  1  0
  1 38  1  0
  1 39  1  0
  1 40  1  0
  4 41  1  0
 15 42  1  0
 16 43  1  0
 19 44  1  0
 20 45  1  0
 27 46  1  0
 27 47  1  0
 32 48  1  0
 33 49  1  0
 36 50  1  0
 37 51  1  0
M  CHG  5  13  -1  22  -1  23  -1  25  -1  30  -1
M  END
>  <UniqueID>  (20) 
20

>  <SMILES>  (20) 
Cn1c(O)c(C(=O)c2nc(C(=O)[N-]c3ccc(Cl)cc3)c([O-])[n-]2)c([O-])c1CC(=O)[N-]c1ccc(F)cc1

>  <Energy>  (20) 
125.88956126884067

>  <Genealogy>  (20) 
Cn1c(O)c(C(=O)c2nc(C(=O)[N-]c3ccc(Cl)cc3)c([O-])[n-]2)c([O-])c1CC(=O)[N-]c1ccc(F)cc1 (protonated)
Cn1c(O)c(C(=O)c2nc(C(=O)[N-]c3ccc(Cl)cc3)c([O-])[n-]2)c([O-])c1CC(=O)[N-]c1ccc(F)cc1 (3D coordinates assigned)
Cn1c(O)c(C(=O)c2nc(C(=O)[N-]c3ccc(Cl)cc3)c([O-])[n-]2)c([O-])c1CC(=O)[N-]c1ccc(F)cc1 (optimized conformer: 125.88956126884067 kcal/mol)

>  <smiles>  (20) 
Cn1c(O)c(C(=O)c2nc(C(=O)Nc3ccc(Cl)cc3)c(O)[nH]2)c(O)c1CC(=O)Nc1ccc(F)cc1

>  <score_type>  (20) 
oracle

>  <origin>  (20) 
adg

>  <m_score__min__energy>  (20) 
-16.390000000000001

>  <m_primary>  (20) 
energy

$$$$
20:0
     RDKit          3D

 24 25  0  0  0  0  0  0  0  0999 V2000
   54.4040   23.7670   46.3050 C   0  0  0  0  0  0  0  0  0  0  0  0
   55.3870   24.6670   46.3540 C   0  0  0  0  0  0  0  0  0  0  0  0
   55.2630   25.8870   45.8000 N   0  0  0  0  0  0  0  0  0  0  0  0
   56.4410   26.5210   45.9770 C   0  0  0  0  0  0  0  0  0  0  0  0
   56.6300   27.7730   45.5100 C   0  0  0  0  0  0  0  0  0  0  0  0
   55.5900   28.5910   45.2470 N   0  0  0  0  0  0  0  0  0  0  0  0
   56.1660   29.7440   44.8600 C   0  0  0  0  0  0  0  0  0  0  0  0
   55.5020   30.7670   44.5510 O   0  0  0  0  0  0  0  0  0  0  0  0
   57.5120   29.7100   44.8140 N   0  0  0  0  0  0  0  0  0  0  0  0
   57.8100   28.4550   45.1970 C   0  0  0  0  0  0  0  0  0  0  0  0
   59.0370   27.9540   45.0470 C   0  0  0  0  0  0  0  0  0  0  0  0
   57.3160   25.7120   46.7170 C   0  0  0  0  0  0  0  0  0  0  0  0
   58.5100   26.1540   47.5220 C   0  0  0  0  0  0  0  0  0  0  0  0
   56.6450   24.5120   46.9310 C   0  0  0  0  0  0  0  0  0  0  0  0
   57.1600   23.3610   47.7080 C   0  0  0  0  0  0  0  0  0  0  0  0
   57.4000   23.4660   48.9390 O   0  0  0  0  0  0  0  0  0  0  0  0
   57.3950   22.1430   47.0800 O   0  0  0  0  0  0  0  0  0  0  0  0
   54.5395   22.7788   46.7687 H   0  0  0  0  0  0  0  0  0  0  0  0
   53.4577   24.0129   45.8009 H   0  0  0  0  0  0  0  0  0  0  0  0
   59.2539   26.9247   45.3686 H   0  0  0  0  0  0  0  0  0  0  0  0
   59.8320   28.5701   44.6017 H   0  0  0  0  0  0  0  0  0  0  0  0
   58.2809   26.0692   48.5945 H   0  0  0  0  0  0  0  0  0  0  0  0
   59.3723   25.5155   47.2797 H   0  0  0  0  0  0  0  0  0  0  0  0
   58.7487   27.2001   47.2797 H   0  0  0  0  0  0  0  0  0  0  0  0
  1  2  2  0
  2  3  1  0
  3  4  1  0
  4  5  2  3
  5  6  1  0
  6  7  1  0
  7  8  2  0
  7  9  1  0
  9 10  1  0
 10 11  2  0
  4 12  1  0
 12 13  1  0
 12 14  2  0
 14 15  1  0
 15 16  2  0
 15 17  1  0
 14  2  1  0
 10  5  1  0
  1 18  1  0
  1 19  1  0
 11 20  1  0
 11 21  1  0
 13 22  1  0
 13 23  1  0
 13 24  1  0
M  CHG  4   3  -1   6  -1   9  -1  17  -1
M  END
>  <UniqueID>  (21) 
21

>  <SMILES>  (21) 
C=c1[n-]c(=c2[n-]c(=O)[n-]c2=C)c(C)c1C(=O)[O-]

>  <Energy>  (21) 
99.17228996352947

>  <Genealogy>  (21) 
C=c1[n-]c(=c2[n-]c(=O)[n-]c2=C)c(C)c1C(=O)[O-] (protonated)
C=c1[n-]c(=c2[n-]c(=O)[n-]c2=C)c(C)c1C(=O)[O-] (3D coordinates assigned)
C=c1[n-]c(=c2[n-]c(=O)[n-]c2=C)c(C)c1C(=O)[O-] (optimized conformer: 99.17228996352947 kcal/mol)

>  <smiles>  (21) 
C=c1[nH]c(=c2[nH]c(=O)[nH]c2=C)c(C)c1C(=O)O

>  <score_type>  (21) 
oracle

>  <origin>  (21) 
adg

>  <m_score__min__energy>  (21) 
-13.140000000000001

>  <m_primary>  (21) 
energy

$$$$
21:0
     RDKit          3D

 56 60  0  0  0  0  0  0  0  0999 V2000
   58.6290   28.9790   46.9410 C   0  0  0  0  0  0  0  0  0  0  0  0
   58.2630   29.3980   45.7190 C   0  0  0  0  0  0  0  0  0  0  0  0
   57.7480   28.6170   44.6710 C   0  0  0  0  0  0  0  0  0  0  0  0
   57.6610   27.2790   44.5260 C   0  0  0  0  0  0  0  0  0  0  0  0
   57.5170   26.3040   45.6250 C   0  0  0  0  0  0  0  0  0  0  0  0
   56.2550   26.0370   46.1720 C   0  0  0  0  0  0  0  0  0  0  0  0
   55.1300   26.7200   45.7240 O   0  0  0  0  0  0  0  0  0  0  0  0
   56.1250   25.1090   47.1550 N   0  0  0  0  0  0  0  0  0  0  0  0
   57.1980   24.4160   47.6130 C   0  0  0  0  0  0  0  0  0  0  0  0
   57.0550   23.5660   48.5290 O   0  0  0  0  0  0  0  0  0  0  0  0
   58.4280   24.6370   47.0800 N   0  0  0  0  0  0  0  0  0  0  0  0
   58.6110   25.5530   46.0940 C   0  0  0  0  0  0  0  0  0  0  0  0
   59.7610   25.7130   45.6060 O   0  0  0  0  0  0  0  0  0  0  0  0
   57.3230   29.5050   43.6970 C   0  0  0  0  0  0  0  0  0  0  0  0
   57.6460   30.7700   44.1410 C   0  0  0  0  0  0  0  0  0  0  0  0
   57.3960   32.0300   43.3680 C   0  0  0  0  0  0  0  0  0  0  0  0
   58.2120   30.7100   45.3660 N   0  0  0  0  0  0  0  0  0  0  0  0
   58.6970   31.8330   46.1250 C   0  0  0  0  0  0  0  0  0  0  0  0
   57.8000   32.7110   46.7480 C   0  0  0  0  0  0  0  0  0  0  0  0
   58.2780   33.8020   47.4760 C   0  0  0  0  0  0  0  0  0  0  0  0
   59.6530   34.0280   47.5820 C   0  0  0  0  0  0  0  0  0  0  0  0
   60.5660   33.1650   46.9530 C   0  0  0  0  0  0  0  0  0  0  0  0
   62.0250   33.3980   47.0720 C   0  0  0  0  0  0  0  0  0  0  0  0
   62.6890   33.7090   46.0460 O   0  0  0  0  0  0  0  0  0  0  0  0
   62.6960   33.2970   48.3420 N   0  0  0  0  0  0  0  0  0  0  0  0
   61.9190   33.3680   49.5820 C   0  0  0  0  0  0  0  0  0  0  0  0
   62.6930   34.1620   50.6340 C   0  0  0  0  0  0  0  0  0  0  0  0
   64.1240   33.7030   50.7390 C   0  0  0  0  0  0  0  0  0  0  0  0
   64.8540   34.0050   51.9010 C   0  0  0  0  0  0  0  0  0  0  0  0
   66.1990   33.6410   52.0060 C   0  0  0  0  0  0  0  0  0  0  0  0
   66.8310   32.9850   50.9490 C   0  0  0  0  0  0  0  0  0  0  0  0
   66.1220   32.6940   49.7820 C   0  0  0  0  0  0  0  0  0  0  0  0
   64.7710   33.0590   49.6580 C   0  0  0  0  0  0  0  0  0  0  0  0
   64.0330   32.6970   48.3920 C   0  0  0  0  0  0  0  0  0  0  0  0
   60.0760   32.0620   46.2340 C   0  0  0  0  0  0  0  0  0  0  0  0
   59.0202   29.6989   47.6750 H   0  0  0  0  0  0  0  0  0  0  0  0
   58.5377   27.9158   47.2081 H   0  0  0  0  0  0  0  0  0  0  0  0
   57.7007   26.8803   43.5016 H   0  0  0  0  0  0  0  0  0  0  0  0
   56.8235   29.2502   42.7506 H   0  0  0  0  0  0  0  0  0  0  0  0
   57.2308   32.8627   44.0676 H   0  0  0  0  0  0  0  0  0  0  0  0
   58.2679   32.2507   42.7346 H   0  0  0  0  0  0  0  0  0  0  0  0
   56.5059   31.9011   42.7346 H   0  0  0  0  0  0  0  0  0  0  0  0
   56.7167   32.5401   46.6632 H   0  0  0  0  0  0  0  0  0  0  0  0
   57.5703   34.4857   47.9676 H   0  0  0  0  0  0  0  0  0  0  0  0
   60.0228   34.8868   48.1614 H   0  0  0  0  0  0  0  0  0  0  0  0
   60.9584   33.8655   49.3829 H   0  0  0  0  0  0  0  0  0  0  0  0
   61.7387   32.3494   49.9561 H   0  0  0  0  0  0  0  0  0  0  0  0
   62.6797   35.2267   50.3578 H   0  0  0  0  0  0  0  0  0  0  0  0
   62.2094   34.0009   51.6088 H   0  0  0  0  0  0  0  0  0  0  0  0
   64.3636   34.5313   52.7332 H   0  0  0  0  0  0  0  0  0  0  0  0
   66.7604   33.8719   52.9233 H   0  0  0  0  0  0  0  0  0  0  0  0
   67.8891   32.6968   51.0353 H   0  0  0  0  0  0  0  0  0  0  0  0
   66.6252   32.1748   48.9530 H   0  0  0  0  0  0  0  0  0  0  0  0
   64.6141   33.0531   47.5286 H   0  0  0  0  0  0  0  0  0  0  0  0
   63.9146   31.6036   48.3699 H   0  0  0  0  0  0  0  0  0  0  0  0
   60.7820   31.3703   45.7512 H   0  0  0  0  0  0  0  0  0  0  0  0
  1  2  2  0
  2  3  1  0
  3  4  2  3
  4  5  1  0
  5  6  2  0
  6  7  1  0
  6  8  1  0
  8  9  1  0
  9 10  2  0
  9 11  1  0
 11 12  1  0
 12 13  2  0
  3 14  1  0
 14 15  2  0
 15 16  1  0
 15 17  1  0
 17 18  1  0
 18 19  2  0
 19 20  1  0
 20 21  2  0
 21 22  1  0
 22 23  1  0
 23 24  2  0
 23 25  1  0
 25 26  1  0
 26 27  1  0
 27 28  1  0
 28 29  2  0
 29 30  1  0
 30 31  2  0
 31 32  1  0
 32 33  2  0
 33 34  1  0
 22 35  2  0
 17  2  1  0
 35 18  1  0
 12  5  1  0
 34 25  1  0
 33 28  1  0
  1 36  1  0
  1 37  1  0
  4 38  1  0
 14 39  1  0
 16 40  1  0
 16 41  1  0
 16 42  1  0
 19 43  1  0
 20 44  1  0
 21 45  1  0
 26 46  1  0
 26 47  1  0
 27 48  1  0
 27 49  1  0
 29 50  1  0
 30 51  1  0
 31 52  1  0
 32 53  1  0
 34 54  1  0
 34 55  1  0
 35 56  1  0
M  CHG  3   7  -1   8  -1  11  -1
M  END
>  <UniqueID>  (22) 
22

>  <SMILES>  (22) 
C=c1c(=Cc2c([O-])[n-]c(=O)[n-]c2=O)cc(C)n1-c1cccc(C(=O)N2CCc3ccccc3C2)c1

>  <Energy>  (22) 
116.3662772874279

>  <Genealogy>  (22) 
C=c1c(=Cc2c([O-])[n-]c(=O)[n-]c2=O)cc(C)n1-c1cccc(C(=O)N2CCc3ccccc3C2)c1 (protonated)
C=c1c(=Cc2c([O-])[n-]c(=O)[n-]c2=O)cc(C)n1-c1cccc(C(=O)N2CCc3ccccc3C2)c1 (3D coordinates assigned)
C=c1c(=Cc2c([O-])[n-]c(=O)[n-]c2=O)cc(C)n1-c1cccc(C(=O)N2CCc3ccccc3C2)c1 (nonaromatic ring conformer: 116.3662772874279 kcal/mol)

>  <smiles>  (22) 
C=c1c(=Cc2c(O)[nH]c(=O)[nH]c2=O)cc(C)n1-c1cccc(C(=O)N2CCc3ccccc3C2)c1

>  <score_type>  (22) 
oracle

>  <origin>  (22) 
adg

>  <m_score__min__energy>  (22) 
-18.309999999999999

>  <m_primary>  (22) 
energy

$$$$
22:0
     RDKit          3D

 54 57  0  0  0  0  0  0  0  0999 V2000
   59.4075   34.1585   44.7881 H   0  0  0  0  0  0  0  0  0  0  0  0
   59.1680   33.6960   45.7570 C   0  0  0  0  0  0  0  0  0  0  0  0
   59.6550   34.2270   46.9070 N   0  0  0  0  0  0  0  0  0  0  0  0
   59.3910   33.6900   48.1270 C   0  0  0  0  0  0  0  0  0  0  0  0
   59.8060   34.3440   49.1770 N   0  0  0  0  0  0  0  0  0  0  0  0
   60.2220   33.8230   50.4470 C   0  0  0  0  0  0  0  0  0  0  0  0
   59.4100   33.7930   51.4130 O   0  0  0  0  0  0  0  0  0  0  0  0
   61.6540   33.4460   50.6620 C   0  0  0  0  0  0  0  0  0  0  0  0
   62.1708   34.2696   51.1764 H   0  0  0  0  0  0  0  0  0  0  0  0
   61.6910   32.5316   51.2723 H   0  0  0  0  0  0  0  0  0  0  0  0
   62.3380   33.1780   49.3460 C   0  0  0  0  0  0  0  0  0  0  0  0
   62.2830   31.8990   48.7650 C   0  0  0  0  0  0  0  0  0  0  0  0
   61.7648   31.0813   49.2874 H   0  0  0  0  0  0  0  0  0  0  0  0
   62.8850   31.6630   47.5250 C   0  0  0  0  0  0  0  0  0  0  0  0
   62.8449   30.6590   47.0774 H   0  0  0  0  0  0  0  0  0  0  0  0
   63.5370   32.7000   46.8540 C   0  0  0  0  0  0  0  0  0  0  0  0
   64.0097   32.5123   45.8786 H   0  0  0  0  0  0  0  0  0  0  0  0
   63.5890   33.9770   47.4220 C   0  0  0  0  0  0  0  0  0  0  0  0
   64.1001   34.7935   46.8908 H   0  0  0  0  0  0  0  0  0  0  0  0
   62.9930   34.2180   48.6630 C   0  0  0  0  0  0  0  0  0  0  0  0
   63.0364   35.2237   49.1065 H   0  0  0  0  0  0  0  0  0  0  0  0
   58.6590   32.4720   48.1800 C   0  0  0  0  0  0  0  0  0  0  0  0
   58.5910   31.6680   49.3670 N   0  0  0  0  0  0  0  0  0  0  0  0
   58.6040   32.1400   50.2970 H   0  0  0  0  0  0  0  0  0  0  0  0
   58.6520   30.2080   49.3020 C   0  0  0  0  0  0  0  0  0  0  0  0
   58.6229   29.7992   50.3228 H   0  0  0  0  0  0  0  0  0  0  0  0
   57.7923   29.8429   48.7210 H   0  0  0  0  0  0  0  0  0  0  0  0
   59.9420   29.7520   48.6140 C   0  0  0  0  0  0  0  0  0  0  0  0
   60.6139   30.6150   48.4970 H   0  0  0  0  0  0  0  0  0  0  0  0
   60.4202   28.9789   49.2333 H   0  0  0  0  0  0  0  0  0  0  0  0
   59.6420   29.1710   47.2580 C   0  0  0  0  0  0  0  0  0  0  0  0
   58.5610   28.2920   47.0870 C   0  0  0  0  0  0  0  0  0  0  0  0
   57.9458   28.0052   47.9526 H   0  0  0  0  0  0  0  0  0  0  0  0
   58.2630   27.7790   45.8190 C   0  0  0  0  0  0  0  0  0  0  0  0
   57.4225   27.0808   45.6922 H   0  0  0  0  0  0  0  0  0  0  0  0
   59.0320   28.1530   44.7150 C   0  0  0  0  0  0  0  0  0  0  0  0
   58.7985   27.7467   43.7198 H   0  0  0  0  0  0  0  0  0  0  0  0
   60.0980   29.0430   44.8730 C   0  0  0  0  0  0  0  0  0  0  0  0
   60.6995   29.3408   44.0015 H   0  0  0  0  0  0  0  0  0  0  0  0
   60.4000   29.5550   46.1390 C   0  0  0  0  0  0  0  0  0  0  0  0
   61.2346   30.2614   46.2592 H   0  0  0  0  0  0  0  0  0  0  0  0
   58.1550   31.9640   47.0220 N   0  0  0  0  0  0  0  0  0  0  0  0
   58.3570   32.5530   45.8130 C   0  0  0  0  0  0  0  0  0  0  0  0
   57.7720   31.9410   44.5930 C   0  0  0  0  0  0  0  0  0  0  0  0
   58.0150   32.5210   43.3330 C   0  0  0  0  0  0  0  0  0  0  0  0
   58.6313   33.4292   43.2592 H   0  0  0  0  0  0  0  0  0  0  0  0
   57.4780   31.9500   42.1750 C   0  0  0  0  0  0  0  0  0  0  0  0
   57.6663   32.4146   41.1959 H   0  0  0  0  0  0  0  0  0  0  0  0
   56.7030   30.7910   42.2590 C   0  0  0  0  0  0  0  0  0  0  0  0
   56.2793   30.3453   41.3469 H   0  0  0  0  0  0  0  0  0  0  0  0
   56.4660   30.1980   43.5010 C   0  0  0  0  0  0  0  0  0  0  0  0
   55.8597   29.2824   43.5654 H   0  0  0  0  0  0  0  0  0  0  0  0
   56.9980   30.7660   44.6630 C   0  0  0  0  0  0  0  0  0  0  0  0
   56.8109   30.2922   45.6379 H   0  0  0  0  0  0  0  0  0  0  0  0
  1  2  1  0
  2  3  1  0
  3  4  1  0
  4  5  2  0
  5  6  1  0
  6  7  2  0
  6  8  1  0
  8  9  1  0
  8 10  1  0
  8 11  1  0
 11 12  2  0
 12 13  1  0
 12 14  1  0
 14 15  1  0
 14 16  2  0
 16 17  1  0
 16 18  1  0
 18 19  1  0
 18 20  2  0
 20 21  1  0
  4 22  1  0
 22 23  1  0
 23 24  1  0
 23 25  1  0
 25 26  1  0
 25 27  1  0
 25 28  1  0
 28 29  1  0
 28 30  1  0
 28 31  1  0
 31 32  2  0
 32 33  1  0
 32 34  1  0
 34 35  1  0
 34 36  2  0
 36 37  1  0
 36 38  1  0
 38 39  1  0
 38 40  2  0
 40 41  1  0
 22 42  2  0
 42 43  1  0
 43 44  1  0
 44 45  2  0
 45 46  1  0
 45 47  1  0
 47 48  1  0
 47 49  2  0
 49 50  1  0
 49 51  1  0
 51 52  1  0
 51 53  2  0
 53 54  1  0
 43  2  2  0
 53 44  1  0
 20 11  1  0
 40 31  1  0
M  CHG  1   3  -1
M  END
>  <UniqueID>  (23) 
23

>  <SMILES>  (23) 
O=C(Cc1ccccc1)/N=c1/[n-]cc(-c2ccccc2)nc1NCCc1ccccc1

>  <Energy>  (23) 
71.95431247772778

>  <Genealogy>  (23) 
O=C(Cc1ccccc1)N=c1[n-]cc(-c2ccccc2)nc1NCCc1ccccc1 (protonated)
O=C(Cc1ccccc1)/N=c1/[n-]cc(-c2ccccc2)nc1NCCc1ccccc1 (cis-trans isomerization)
O=C(Cc1ccccc1)/N=c1/[n-]cc(-c2ccccc2)nc1NCCc1ccccc1 (3D coordinates assigned)
O=C(Cc1ccccc1)/N=c1/[n-]cc(-c2ccccc2)nc1NCCc1ccccc1 (optimized conformer: 71.95431247772778 kcal/mol)

>  <smiles>  (23) 
O=C(Cc1ccccc1)N=c1[nH]cc(-c2ccccc2)nc1NCCc1ccccc1

>  <score_type>  (23) 
oracle

>  <origin>  (23) 
adg

>  <m_score__min__energy>  (23) 
-11.43

>  <m_primary>  (23) 
energy

$$$$
23:0
     RDKit          3D

 43 45  0  0  0  0  0  0  0  0999 V2000
   55.3900   26.6980   46.2190 O   0  0  0  0  0  0  0  0  0  0  0  0
   56.6390   26.8720   46.2190 C   0  0  0  0  0  0  0  0  0  0  0  0
   57.5090   25.7770   46.5300 N   0  0  0  0  0  0  0  0  0  0  0  0
   58.4820   25.2240   45.5950 C   0  0  0  0  0  0  0  0  0  0  0  0
   57.9050   24.0200   44.9050 C   0  0  0  0  0  0  0  0  0  0  0  0
   56.8740   24.1590   43.9610 C   0  0  0  0  0  0  0  0  0  0  0  0
   56.3260   23.0300   43.3450 C   0  0  0  0  0  0  0  0  0  0  0  0
   56.7980   21.7510   43.6700 C   0  0  0  0  0  0  0  0  0  0  0  0
   56.2600   20.6200   43.0620 O   0  0  0  0  0  0  0  0  0  0  0  0
   57.8190   21.6080   44.6150 C   0  0  0  0  0  0  0  0  0  0  0  0
   58.3690   22.7350   45.2330 C   0  0  0  0  0  0  0  0  0  0  0  0
   57.2130   28.2020   45.9020 C   0  0  0  0  0  0  0  0  0  0  0  0
   58.5420   28.4880   46.2540 C   0  0  0  0  0  0  0  0  0  0  0  0
   59.1210   29.7370   45.9680 C   0  0  0  0  0  0  0  0  0  0  0  0
   60.5380   30.0250   46.3390 C   0  0  0  0  0  0  0  0  0  0  0  0
   61.4740   29.5600   45.6340 O   0  0  0  0  0  0  0  0  0  0  0  0
   60.9060   30.8500   47.5470 C   0  0  0  0  0  0  0  0  0  0  0  0
   60.4480   32.2810   47.4080 C   0  0  0  0  0  0  0  0  0  0  0  0
   59.2770   32.7210   48.0510 C   0  0  0  0  0  0  0  0  0  0  0  0
   58.8490   34.0450   47.9120 C   0  0  0  0  0  0  0  0  0  0  0  0
   59.5770   34.9360   47.1190 C   0  0  0  0  0  0  0  0  0  0  0  0
   60.7300   34.5050   46.4590 C   0  0  0  0  0  0  0  0  0  0  0  0
   61.1630   33.1810   46.5970 C   0  0  0  0  0  0  0  0  0  0  0  0
   58.3180   30.7000   45.3180 C   0  0  0  0  0  0  0  0  0  0  0  0
   58.7700   31.8440   45.0460 O   0  0  0  0  0  0  0  0  0  0  0  0
   57.0340   30.4070   44.9880 N   0  0  0  0  0  0  0  0  0  0  0  0
   56.4650   29.2040   45.2570 C   0  0  0  0  0  0  0  0  0  0  0  0
   55.1480   28.9840   44.8750 O   0  0  0  0  0  0  0  0  0  0  0  0
   58.7394   25.9856   44.8442 H   0  0  0  0  0  0  0  0  0  0  0  0
   59.3848   24.9252   46.1480 H   0  0  0  0  0  0  0  0  0  0  0  0
   56.4964   25.1601   43.7055 H   0  0  0  0  0  0  0  0  0  0  0  0
   55.5221   23.1458   42.6032 H   0  0  0  0  0  0  0  0  0  0  0  0
   56.7210   19.7190   43.1160 H   0  0  0  0  0  0  0  0  0  0  0  0
   58.1906   20.6053   44.8729 H   0  0  0  0  0  0  0  0  0  0  0  0
   59.1683   22.6152   45.9791 H   0  0  0  0  0  0  0  0  0  0  0  0
   59.1420   27.7197   46.7636 H   0  0  0  0  0  0  0  0  0  0  0  0
   60.4327   30.4094   48.4369 H   0  0  0  0  0  0  0  0  0  0  0  0
   62.0020   30.8490   47.6411 H   0  0  0  0  0  0  0  0  0  0  0  0
   58.6946   32.0197   48.6666 H   0  0  0  0  0  0  0  0  0  0  0  0
   57.9387   34.3853   48.4272 H   0  0  0  0  0  0  0  0  0  0  0  0
   59.2415   35.9784   47.0144 H   0  0  0  0  0  0  0  0  0  0  0  0
   61.2982   35.2064   45.8304 H   0  0  0  0  0  0  0  0  0  0  0  0
   62.0666   32.8427   46.0688 H   0  0  0  0  0  0  0  0  0  0  0  0
  1  2  2  0
  2  3  1  0
  3  4  1  0
  4  5  1  0
  5  6  2  0
  6  7  1  0
  7  8  2  0
  8  9  1  0
  8 10  1  0
 10 11  2  0
  2 12  1  0
 12 13  1  0
 13 14  2  0
 14 15  1  0
 15 16  2  0
 15 17  1  0
 17 18  1  0
 18 19  2  0
 19 20  1  0
 20 21  2  0
 21 22  1  0
 22 23  2  0
 14 24  1  0
 24 25  2  0
 24 26  1  0
 26 27  1  0
 27 28  1  0
 11  5  1  0
 27 12  2  0
 23 18  1  0
  4 29  1  0
  4 30  1  0
  6 31  1  0
  7 32  1  0
  9 33  1  0
 10 34  1  0
 11 35  1  0
 13 36  1  0
 17 37  1  0
 17 38  1  0
 19 39  1  0
 20 40  1  0
 21 41  1  0
 22 42  1  0
 23 43  1  0
M  CHG  3   3  -1  26  -1  28  -1
M  END
>  <UniqueID>  (24) 
24

>  <SMILES>  (24) 
O=C([N-]Cc1ccc(O)cc1)c1cc(C(=O)Cc2ccccc2)c(=O)[n-]c1[O-]

>  <Energy>  (24) 
48.83479019743395

>  <Genealogy>  (24) 
O=C([N-]Cc1ccc(O)cc1)c1cc(C(=O)Cc2ccccc2)c(=O)[n-]c1[O-] (protonated)
O=C([N-]Cc1ccc(O)cc1)c1cc(C(=O)Cc2ccccc2)c(=O)[n-]c1[O-] (3D coordinates assigned)
O=C([N-]Cc1ccc(O)cc1)c1cc(C(=O)Cc2ccccc2)c(=O)[n-]c1[O-] (optimized conformer: 48.83479019743395 kcal/mol)

>  <smiles>  (24) 
O=C(NCc1ccc(O)cc1)c1cc(C(=O)Cc2ccccc2)c(=O)[nH]c1O

>  <score_type>  (24) 
oracle

>  <origin>  (24) 
adg

>  <m_score__min__energy>  (24) 
-16.059999999999999

>  <m_primary>  (24) 
energy

$$$$
24:0
     RDKit          3D

 30 31  0  0  0  0  0  0  0  0999 V2000
   62.4570   33.5500   46.9420 C   0  0  0  0  0  0  0  0  0  0  0  0
   61.3550   32.5470   47.1250 C   0  0  0  0  0  0  0  0  0  0  0  0
   61.6120   31.4830   47.7530 O   0  0  0  0  0  0  0  0  0  0  0  0
   59.9870   32.7730   46.5860 C   0  0  0  0  0  0  0  0  0  0  0  0
   59.4610   34.0770   46.5300 C   0  0  0  0  0  0  0  0  0  0  0  0
   58.1820   34.3050   46.0190 C   0  0  0  0  0  0  0  0  0  0  0  0
   57.4110   33.2390   45.5550 C   0  0  0  0  0  0  0  0  0  0  0  0
   57.9080   31.9340   45.5970 C   0  0  0  0  0  0  0  0  0  0  0  0
   57.0940   30.8980   45.1080 O   0  0  0  0  0  0  0  0  0  0  0  0
   57.5470   29.7840   44.3360 C   0  0  0  0  0  0  0  0  0  0  0  0
   57.1950   28.4920   45.0170 C   0  0  0  0  0  0  0  0  0  0  0  0
   58.1870   27.5860   45.4080 C   0  0  0  0  0  0  0  0  0  0  0  0
   57.8150   26.4000   46.0360 C   0  0  0  0  0  0  0  0  0  0  0  0
   58.6940   25.5670   46.3880 O   0  0  0  0  0  0  0  0  0  0  0  0
   56.4590   26.1490   46.2700 C   0  0  0  0  0  0  0  0  0  0  0  0
   56.0930   25.0840   46.8370 O   0  0  0  0  0  0  0  0  0  0  0  0
   55.5330   27.0660   45.8810 N   0  0  0  0  0  0  0  0  0  0  0  0
   55.8930   28.2000   45.2760 N   0  0  0  0  0  0  0  0  0  0  0  0
   59.1950   31.7040   46.1220 C   0  0  0  0  0  0  0  0  0  0  0  0
   62.8196   33.8801   47.9267 H   0  0  0  0  0  0  0  0  0  0  0  0
   63.2839   33.0882   46.3826 H   0  0  0  0  0  0  0  0  0  0  0  0
   62.0749   34.4166   46.3826 H   0  0  0  0  0  0  0  0  0  0  0  0
   60.0627   34.9238   46.8919 H   0  0  0  0  0  0  0  0  0  0  0  0
   57.7808   35.3286   45.9821 H   0  0  0  0  0  0  0  0  0  0  0  0
   56.4045   33.4273   45.1532 H   0  0  0  0  0  0  0  0  0  0  0  0
   57.0697   29.8124   43.3453 H   0  0  0  0  0  0  0  0  0  0  0  0
   58.6405   29.8446   44.2329 H   0  0  0  0  0  0  0  0  0  0  0  0
   59.2481   27.8079   45.2216 H   0  0  0  0  0  0  0  0  0  0  0  0
   54.5180   26.8870   46.0560 H   0  0  0  0  0  0  0  0  0  0  0  0
   59.5864   30.6771   46.1703 H   0  0  0  0  0  0  0  0  0  0  0  0
  1  2  1  0
  2  3  2  0
  2  4  1  0
  4  5  2  0
  5  6  1  0
  6  7  2  0
  7  8  1  0
  8  9  1  0
  9 10  1  0
 10 11  1  0
 11 12  2  0
 12 13  1  0
 13 14  2  0
 13 15  1  0
 15 16  2  0
 15 17  1  0
 17 18  1  0
  8 19  2  0
 19  4  1  0
 18 11  1  0
  1 20  1  0
  1 21  1  0
  1 22  1  0
  5 23  1  0
  6 24  1  0
  7 25  1  0
 10 26  1  0
 10 27  1  0
 12 28  1  0
 17 29  1  0
 19 30  1  0
M  CHG  1  18  -1
M  END
>  <UniqueID>  (25) 
25

>  <SMILES>  (25) 
CC(=O)c1cccc(OCc2cc(=O)c(=O)[nH][n-]2)c1

>  <Energy>  (25) 
31.502607813906348

>  <Genealogy>  (25) 
CC(=O)c1cccc(OCc2cc(=O)c(=O)[nH][n-]2)c1 (protonated)
CC(=O)c1cccc(OCc2cc(=O)c(=O)[nH][n-]2)c1 (3D coordinates assigned)
CC(=O)c1cccc(OCc2cc(=O)c(=O)[nH][n-]2)c1 (optimized conformer: 31.502607813906348 kcal/mol)

>  <smiles>  (25) 
CC(=O)c1cccc(OCc2cc(=O)c(=O)[nH][nH]2)c1

>  <score_type>  (25) 
oracle

>  <origin>  (25) 
adg

>  <m_score__min__energy>  (25) 
-9.3900000000000006

>  <m_primary>  (25) 
energy

$$$$
25:0
     RDKit          3D

 57 60  0  0  0  0  0  0  0  0999 V2000
   62.5800   29.9720   50.8190 N   0  0  0  0  0  0  0  0  0  0  0  0
   63.3810   31.0670   50.3580 C   0  0  0  0  0  0  0  0  0  0  0  0
   64.3430   31.6170   51.2200 C   0  0  0  0  0  0  0  0  0  0  0  0
   65.1750   32.6490   50.7860 C   0  0  0  0  0  0  0  0  0  0  0  0
   65.0520   33.1470   49.4890 C   0  0  0  0  0  0  0  0  0  0  0  0
   64.0940   32.6180   48.6240 C   0  0  0  0  0  0  0  0  0  0  0  0
   63.2510   31.5740   49.0430 C   0  0  0  0  0  0  0  0  0  0  0  0
   62.2290   31.0820   48.1620 N   0  0  0  0  0  0  0  0  0  0  0  0
   60.8680   30.8840   48.5790 C   0  0  0  0  0  0  0  0  0  0  0  0
   60.4530   31.4350   49.6350 O   0  0  0  0  0  0  0  0  0  0  0  0
   59.9310   30.0770   47.7620 C   0  0  0  0  0  0  0  0  0  0  0  0
   59.0280   29.1850   48.3700 C   0  0  0  0  0  0  0  0  0  0  0  0
   58.1450   28.4300   47.5920 C   0  0  0  0  0  0  0  0  0  0  0  0
   58.1550   28.5460   46.1940 C   0  0  0  0  0  0  0  0  0  0  0  0
   57.1800   27.7620   45.3650 C   0  0  0  0  0  0  0  0  0  0  0  0
   55.9360   28.5130   45.2440 N   0  0  0  0  0  0  0  0  0  0  0  0
   55.7040   29.5180   44.2510 C   0  0  0  0  0  0  0  0  0  0  0  0
   54.7450   29.3690   43.4500 O   0  0  0  0  0  0  0  0  0  0  0  0
   56.5740   30.7030   44.1170 C   0  0  0  0  0  0  0  0  0  0  0  0
   57.0250   31.1400   42.8630 C   0  0  0  0  0  0  0  0  0  0  0  0
   57.8140   32.2870   42.7820 C   0  0  0  0  0  0  0  0  0  0  0  0
   58.1310   32.9990   43.9380 C   0  0  0  0  0  0  0  0  0  0  0  0
   57.6490   32.5540   45.1810 C   0  0  0  0  0  0  0  0  0  0  0  0
   57.9290   33.3240   46.4190 C   0  0  0  0  0  0  0  0  0  0  0  0
   56.9570   33.7750   47.0850 O   0  0  0  0  0  0  0  0  0  0  0  0
   59.2660   33.5620   46.8990 N   0  0  0  0  0  0  0  0  0  0  0  0
   60.4800   33.4130   46.1100 C   0  0  0  0  0  0  0  0  0  0  0  0
   61.5760   34.1140   46.9020 C   0  0  0  0  0  0  0  0  0  0  0  0
   61.0400   34.2460   48.3230 C   0  0  0  0  0  0  0  0  0  0  0  0
   59.5250   34.1590   48.2000 C   0  0  0  0  0  0  0  0  0  0  0  0
   56.8810   31.4300   45.2260 N   0  0  0  0  0  0  0  0  0  0  0  0
   59.0350   29.4520   45.5850 C   0  0  0  0  0  0  0  0  0  0  0  0
   59.9160   30.2110   46.3630 C   0  0  0  0  0  0  0  0  0  0  0  0
   63.0250   29.0630   51.0800 H   0  0  0  0  0  0  0  0  0  0  0  0
   61.5370   30.0130   50.8260 H   0  0  0  0  0  0  0  0  0  0  0  0
   64.4414   31.2312   52.2454 H   0  0  0  0  0  0  0  0  0  0  0  0
   65.9288   33.0705   51.4673 H   0  0  0  0  0  0  0  0  0  0  0  0
   65.7116   33.9584   49.1476 H   0  0  0  0  0  0  0  0  0  0  0  0
   63.9974   33.0213   47.6052 H   0  0  0  0  0  0  0  0  0  0  0  0
   62.4740   30.9130   47.1610 H   0  0  0  0  0  0  0  0  0  0  0  0
   59.0168   29.0811   49.4650 H   0  0  0  0  0  0  0  0  0  0  0  0
   57.4387   27.7414   48.0787 H   0  0  0  0  0  0  0  0  0  0  0  0
   57.6038   27.5896   44.3646 H   0  0  0  0  0  0  0  0  0  0  0  0
   56.9803   26.7943   45.8485 H   0  0  0  0  0  0  0  0  0  0  0  0
   56.7590   30.5834   41.9522 H   0  0  0  0  0  0  0  0  0  0  0  0
   58.1864   32.6302   41.8055 H   0  0  0  0  0  0  0  0  0  0  0  0
   58.7544   33.9033   43.8776 H   0  0  0  0  0  0  0  0  0  0  0  0
   60.7234   32.3484   45.9783 H   0  0  0  0  0  0  0  0  0  0  0  0
   60.3661   33.8452   45.1049 H   0  0  0  0  0  0  0  0  0  0  0  0
   62.4979   33.5140   46.8943 H   0  0  0  0  0  0  0  0  0  0  0  0
   61.8246   35.0945   46.4698 H   0  0  0  0  0  0  0  0  0  0  0  0
   61.4213   33.4299   48.9544 H   0  0  0  0  0  0  0  0  0  0  0  0
   61.3564   35.1899   48.7909 H   0  0  0  0  0  0  0  0  0  0  0  0
   59.1115   33.5276   49.0002 H   0  0  0  0  0  0  0  0  0  0  0  0
   59.0541   35.1489   48.2919 H   0  0  0  0  0  0  0  0  0  0  0  0
   59.0327   29.5665   44.4910 H   0  0  0  0  0  0  0  0  0  0  0  0
   60.6028   30.9187   45.8756 H   0  0  0  0  0  0  0  0  0  0  0  0
  1  2  1  0
  2  3  2  0
  3  4  1  0
  4  5  2  0
  5  6  1  0
  6  7  2  0
  7  8  1  0
  8  9  1  0
  9 10  2  0
  9 11  1  0
 11 12  2  0
 12 13  1  0
 13 14  2  0
 14 15  1  0
 15 16  1  0
 16 17  1  0
 17 18  2  0
 17 19  1  0
 19 20  2  0
 20 21  1  0
 21 22  2  0
 22 23  1  0
 23 24  1  0
 24 25  2  0
 24 26  1  0
 26 27  1  0
 27 28  1  0
 28 29  1  0
 29 30  1  0
 23 31  2  0
 14 32  1  0
 32 33  2  0
  7  2  1  0
 33 11  1  0
 31 19  1  0
 30 26  1  0
  1 34  1  0
  1 35  1  0
  3 36  1  0
  4 37  1  0
  5 38  1  0
  6 39  1  0
  8 40  1  0
 12 41  1  0
 13 42  1  0
 15 43  1  0
 15 44  1  0
 20 45  1  0
 21 46  1  0
 22 47  1  0
 27 48  1  0
 27 49  1  0
 28 50  1  0
 28 51  1  0
 29 52  1  0
 29 53  1  0
 30 54  1  0
 30 55  1  0
 32 56  1  0
 33 57  1  0
M  CHG  1  16  -1
M  END
>  <UniqueID>  (26) 
26

>  <SMILES>  (26) 
Nc1ccccc1NC(=O)c1ccc(C[N-]C(=O)c2cccc(C(=O)N3CCCC3)n2)cc1

>  <Energy>  (26) 
73.36154729501476

>  <Genealogy>  (26) 
Nc1ccccc1NC(=O)c1ccc(C[N-]C(=O)c2cccc(C(=O)N3CCCC3)n2)cc1 (protonated)
Nc1ccccc1NC(=O)c1ccc(C[N-]C(=O)c2cccc(C(=O)N3CCCC3)n2)cc1 (3D coordinates assigned)
Nc1ccccc1NC(=O)c1ccc(C[N-]C(=O)c2cccc(C(=O)N3CCCC3)n2)cc1 (nonaromatic ring conformer: 73.36154729501476 kcal/mol)

>  <smiles>  (26) 
Nc1ccccc1NC(=O)c1ccc(CNC(=O)c2cccc(C(=O)N3CCCC3)n2)cc1

>  <score_type>  (26) 
oracle

>  <origin>  (26) 
adg

>  <m_score__min__energy>  (26) 
-11.34

>  <m_primary>  (26) 
energy

$$$$
26:0
     RDKit          3D

 48 51  0  0  0  0  0  0  0  0999 V2000
   57.6200   32.3480   51.2480 C   0  0  0  0  0  0  0  0  0  0  0  0
   58.4540   31.4640   50.3840 C   0  0  0  0  0  0  0  0  0  0  0  0
   58.9380   31.8290   49.1760 N   0  0  0  0  0  0  0  0  0  0  0  0
   59.6240   30.8240   48.5660 C   0  0  0  0  0  0  0  0  0  0  0  0
   60.3040   31.0080   47.2400 C   0  0  0  0  0  0  0  0  0  0  0  0
   60.7040   29.7190   46.6790 N   0  0  0  0  0  0  0  0  0  0  0  0
   59.8290   28.7890   46.0260 C   0  0  0  0  0  0  0  0  0  0  0  0
   59.8830   27.5730   46.3450 O   0  0  0  0  0  0  0  0  0  0  0  0
   58.8310   29.2270   45.0340 C   0  0  0  0  0  0  0  0  0  0  0  0
   57.9600   28.3010   44.4390 C   0  0  0  0  0  0  0  0  0  0  0  0
   57.0440   28.7210   43.4710 C   0  0  0  0  0  0  0  0  0  0  0  0
   56.9900   30.0650   43.0940 C   0  0  0  0  0  0  0  0  0  0  0  0
   57.8460   30.9970   43.6920 C   0  0  0  0  0  0  0  0  0  0  0  0
   57.7790   32.7200   43.2060 S   0  0  0  0  0  0  0  0  0  0  0  0
   58.0270   33.2910   44.8830 C   0  0  0  0  0  0  0  0  0  0  0  0
   57.2190   32.9880   45.9690 C   0  0  0  0  0  0  0  0  0  0  0  0
   57.6150   33.5520   47.1400 N   0  0  0  0  0  0  0  0  0  0  0  0
   58.7340   34.2960   46.9770 C   0  0  0  0  0  0  0  0  0  0  0  0
   59.3270   34.9470   47.9340 N   0  0  0  0  0  0  0  0  0  0  0  0
   60.1330   34.3800   48.9800 C   0  0  0  0  0  0  0  0  0  0  0  0
   59.6640   34.2550   50.1450 O   0  0  0  0  0  0  0  0  0  0  0  0
   61.5240   33.9340   48.6980 C   0  0  0  0  0  0  0  0  0  0  0  0
   61.9700   33.8390   47.3640 C   0  0  0  0  0  0  0  0  0  0  0  0
   63.2720   33.4230   47.0750 C   0  0  0  0  0  0  0  0  0  0  0  0
   64.1470   33.0940   48.1100 C   0  0  0  0  0  0  0  0  0  0  0  0
   63.7230   33.1810   49.4360 C   0  0  0  0  0  0  0  0  0  0  0  0
   62.4210   33.5970   49.7370 C   0  0  0  0  0  0  0  0  0  0  0  0
   62.0530   33.6650   51.0400 F   0  0  0  0  0  0  0  0  0  0  0  0
   59.2800   34.2920   45.3880 S   0  0  0  0  0  0  0  0  0  0  0  0
   58.7610   30.5780   44.6650 C   0  0  0  0  0  0  0  0  0  0  0  0
   59.6670   29.6290   49.2830 C   0  0  0  0  0  0  0  0  0  0  0  0
   58.8290   29.8620   50.7230 S   0  0  0  0  0  0  0  0  0  0  0  0
   57.8273   32.1283   52.3057 H   0  0  0  0  0  0  0  0  0  0  0  0
   57.8620   33.4003   51.0378 H   0  0  0  0  0  0  0  0  0  0  0  0
   56.5554   32.1676   51.0378 H   0  0  0  0  0  0  0  0  0  0  0  0
   58.8090   32.7800   48.7640 H   0  0  0  0  0  0  0  0  0  0  0  0
   59.6108   31.5044   46.5450 H   0  0  0  0  0  0  0  0  0  0  0  0
   61.2040   31.6231   47.3874 H   0  0  0  0  0  0  0  0  0  0  0  0
   57.9986   27.2424   44.7354 H   0  0  0  0  0  0  0  0  0  0  0  0
   56.3644   27.9922   43.0051 H   0  0  0  0  0  0  0  0  0  0  0  0
   56.2735   30.3914   42.3258 H   0  0  0  0  0  0  0  0  0  0  0  0
   56.3308   32.3441   45.8888 H   0  0  0  0  0  0  0  0  0  0  0  0
   61.2855   34.0952   46.5419 H   0  0  0  0  0  0  0  0  0  0  0  0
   63.6075   33.3548   46.0296 H   0  0  0  0  0  0  0  0  0  0  0  0
   65.1716   32.7659   47.8806 H   0  0  0  0  0  0  0  0  0  0  0  0
   64.4159   32.9212   50.2498 H   0  0  0  0  0  0  0  0  0  0  0  0
   59.4277   31.3114   45.1420 H   0  0  0  0  0  0  0  0  0  0  0  0
   60.1609   28.6994   48.9639 H   0  0  0  0  0  0  0  0  0  0  0  0
  1  2  1  0
  2  3  2  0
  3  4  1  0
  4  5  1  0
  5  6  1  0
  6  7  1  0
  7  8  2  0
  7  9  1  0
  9 10  2  0
 10 11  1  0
 11 12  2  0
 12 13  1  0
 13 14  1  0
 14 15  1  0
 15 16  2  0
 16 17  1  0
 17 18  1  0
 18 19  2  3
 19 20  1  0
 20 21  2  0
 20 22  1  0
 22 23  2  0
 23 24  1  0
 24 25  2  0
 25 26  1  0
 26 27  2  0
 27 28  1  0
 18 29  1  0
 13 30  2  0
  4 31  2  0
 31 32  1  0
 32  2  1  0
 30  9  1  0
 29 15  1  0
 27 22  1  0
  1 33  1  0
  1 34  1  0
  1 35  1  0
  3 36  1  0
  5 37  1  0
  5 38  1  0
 10 39  1  0
 11 40  1  0
 12 41  1  0
 16 42  1  0
 23 43  1  0
 24 44  1  0
 25 45  1  0
 26 46  1  0
 30 47  1  0
 31 48  1  0
M  CHG  3   3   1   6  -1  17  -1
M  END
>  <UniqueID>  (27) 
27

>  <SMILES>  (27) 
Cc1[nH+]c(C[N-]C(=O)c2cccc(Sc3c[n-]c(=NC(=O)c4ccccc4F)s3)c2)cs1

>  <Energy>  (27) 
111.50367575430413

>  <Genealogy>  (27) 
Cc1[nH+]c(C[N-]C(=O)c2cccc(Sc3c[n-]c(=NC(=O)c4ccccc4F)s3)c2)cs1 (protonated)
Cc1[nH+]c(C[N-]C(=O)c2cccc(Sc3c[n-]c(=NC(=O)c4ccccc4F)s3)c2)cs1 (3D coordinates assigned)
Cc1[nH+]c(C[N-]C(=O)c2cccc(Sc3c[n-]c(=NC(=O)c4ccccc4F)s3)c2)cs1 (optimized conformer: 111.50367575430413 kcal/mol)

>  <smiles>  (27) 
Cc1nc(CNC(=O)c2cccc(Sc3c[nH]c(=NC(=O)c4ccccc4F)s3)c2)cs1

>  <score_type>  (27) 
oracle

>  <origin>  (27) 
adg

>  <m_score__min__energy>  (27) 
-11.94

>  <m_primary>  (27) 
energy

$$$$
27:0
     RDKit          3D

 43 46  0  0  0  0  0  0  0  0999 V2000
   54.9960   28.3550   44.5020 H   0  0  0  0  0  0  0  0  0  0  0  0
   54.7920   29.3460   44.2430 N   0  0  0  0  0  0  0  0  0  0  0  0
   55.7360   30.1600   43.8990 C   0  0  0  0  0  0  0  0  0  0  0  0
   56.3420   30.9850   44.7770 N   0  0  0  0  0  0  0  0  0  0  0  0
   57.2400   31.6410   44.0130 C   0  0  0  0  0  0  0  0  0  0  0  0
   58.2230   32.6350   44.5470 C   0  0  0  0  0  0  0  0  0  0  0  0
   59.1334   32.6148   43.9299 H   0  0  0  0  0  0  0  0  0  0  0  0
   57.7743   33.6389   44.5168 H   0  0  0  0  0  0  0  0  0  0  0  0
   58.5770   32.2950   45.9680 C   0  0  0  0  0  0  0  0  0  0  0  0
   59.0160   33.2960   46.8490 C   0  0  0  0  0  0  0  0  0  0  0  0
   59.0624   34.3420   46.5117 H   0  0  0  0  0  0  0  0  0  0  0  0
   59.3940   32.9670   48.1530 C   0  0  0  0  0  0  0  0  0  0  0  0
   59.7376   33.7548   48.8396 H   0  0  0  0  0  0  0  0  0  0  0  0
   59.3370   31.6400   48.5880 C   0  0  0  0  0  0  0  0  0  0  0  0
   59.6469   31.3852   49.6122 H   0  0  0  0  0  0  0  0  0  0  0  0
   58.8870   30.6340   47.7250 C   0  0  0  0  0  0  0  0  0  0  0  0
   58.8840   29.2750   48.1830 N   0  0  0  0  0  0  0  0  0  0  0  0
   59.9310   28.3160   47.9870 C   0  0  0  0  0  0  0  0  0  0  0  0
   60.8300   28.2190   48.8650 O   0  0  0  0  0  0  0  0  0  0  0  0
   59.8900   27.3220   46.8440 C   0  0  1  0  0  0  0  0  0  0  0  0
   60.3524   26.3860   47.1906 H   0  0  0  0  0  0  0  0  0  0  0  0
   58.4700   27.0320   46.4390 C   0  0  0  0  0  0  0  0  0  0  0  0
   57.8750   27.5030   45.2950 C   0  0  0  0  0  0  0  0  0  0  0  0
   56.6190   27.1280   45.2530 O   0  0  0  0  0  0  0  0  0  0  0  0
   56.3590   26.4350   46.3430 C   0  0  0  0  0  0  0  0  0  0  0  0
   55.3833   25.9914   46.5906 H   0  0  0  0  0  0  0  0  0  0  0  0
   57.4940   26.3470   47.1310 C   0  0  0  0  0  0  0  0  0  0  0  0
   57.5953   25.8392   48.1015 H   0  0  0  0  0  0  0  0  0  0  0  0
   58.5940   28.2790   44.2360 C   0  0  0  0  0  0  0  0  0  0  0  0
   57.9444   29.0926   43.8811 H   0  0  0  0  0  0  0  0  0  0  0  0
   58.8426   27.5993   43.4076 H   0  0  0  0  0  0  0  0  0  0  0  0
   59.8990   28.8800   44.7910 C   0  0  0  0  0  0  0  0  0  0  0  0
   59.6513   29.7427   45.4269 H   0  0  0  0  0  0  0  0  0  0  0  0
   60.5249   29.1832   43.9388 H   0  0  0  0  0  0  0  0  0  0  0  0
   60.6940   27.8530   45.6290 C   0  0  0  0  0  0  0  0  0  0  0  0
   61.6118   28.3345   45.9975 H   0  0  0  0  0  0  0  0  0  0  0  0
   60.9181   26.9951   44.9781 H   0  0  0  0  0  0  0  0  0  0  0  0
   58.5370   30.9620   46.4050 C   0  0  0  0  0  0  0  0  0  0  0  0
   58.2292   30.1682   45.7085 H   0  0  0  0  0  0  0  0  0  0  0  0
   57.1710   31.1920   42.7100 C   0  0  0  0  0  0  0  0  0  0  0  0
   57.7946   31.5395   41.8731 H   0  0  0  0  0  0  0  0  0  0  0  0
   56.2110   30.2580   42.6420 N   0  0  0  0  0  0  0  0  0  0  0  0
   55.9110   29.7200   41.7990 H   0  0  0  0  0  0  0  0  0  0  0  0
  1  2  1  0
  2  3  2  0
  3  4  1  0
  4  5  1  0
  5  6  1  0
  6  7  1  0
  6  8  1  0
  6  9  1  0
  9 10  2  0
 10 11  1  0
 10 12  1  0
 12 13  1  0
 12 14  2  0
 14 15  1  0
 14 16  1  0
 16 17  1  0
 17 18  1  0
 18 19  2  0
 18 20  1  0
 20 21  1  1
 20 22  1  0
 22 23  2  0
 23 24  1  0
 24 25  1  0
 25 26  1  0
 25 27  2  0
 27 28  1  0
 23 29  1  0
 29 30  1  0
 29 31  1  0
 29 32  1  0
 32 33  1  0
 32 34  1  0
 32 35  1  0
 35 36  1  0
 35 37  1  0
 16 38  2  0
 38 39  1  0
  5 40  2  0
 40 41  1  0
 40 42  1  0
 42 43  1  0
 42  3  1  0
 38  9  1  0
 35 20  1  0
 27 22  1  0
M  CHG  2   4  -1  17  -1
M  END
>  <UniqueID>  (28) 
28

>  <SMILES>  (28) 
[H]/N=c1/[n-]c(Cc2cccc([N-]C(=O)[C@@H]3CCCc4occc43)c2)c[nH]1

>  <Energy>  (28) 
105.11313735097146

>  <Genealogy>  (28) 
N=c1[n-]c(Cc2cccc([N-]C(=O)C3CCCc4occc43)c2)c[nH]1 (protonated)
N=c1[n-]c(Cc2cccc([N-]C(=O)[C@@H]3CCCc4occc43)c2)c[nH]1 (chirality)
[H]/N=c1/[n-]c(Cc2cccc([N-]C(=O)[C@@H]3CCCc4occc43)c2)c[nH]1 (cis-trans isomerization)
[H]/N=c1/[n-]c(Cc2cccc([N-]C(=O)[C@@H]3CCCc4occc43)c2)c[nH]1 (3D coordinates assigned)
[H]/N=c1/[n-]c(Cc2cccc([N-]C(=O)[C@@H]3CCCc4occc43)c2)c[nH]1 (nonaromatic ring conformer: 105.11313735097146 kcal/mol)

>  <smiles>  (28) 
N=c1[nH]cc(Cc2cccc(NC(=O)C3CCCc4occc43)c2)[nH]1

>  <score_type>  (28) 
oracle

>  <origin>  (28) 
adg

>  <m_score__min__energy>  (28) 
-11.380000000000001

>  <m_primary>  (28) 
energy

$$$$
28:0
     RDKit          3D

 41 43  0  0  0  0  0  0  0  0999 V2000
   58.1150   27.4270   43.1020 C   0  0  0  0  0  0  0  0  0  0  0  0
   58.0490   27.1970   44.4220 C   0  0  0  0  0  0  0  0  0  0  0  0
   57.5710   26.0460   45.0700 C   0  0  0  0  0  0  0  0  0  0  0  0
   56.8810   24.9860   44.6010 C   0  0  0  0  0  0  0  0  0  0  0  0
   55.5460   24.5680   45.0580 C   0  0  0  0  0  0  0  0  0  0  0  0
   54.9910   23.3660   44.8110 N   0  0  0  0  0  0  0  0  0  0  0  0
   53.7370   23.4970   45.2930 C   0  0  0  0  0  0  0  0  0  0  0  0
   52.8960   22.5610   45.2580 O   0  0  0  0  0  0  0  0  0  0  0  0
   53.4500   24.7130   45.8040 N   0  0  0  0  0  0  0  0  0  0  0  0
   54.6020   25.3820   45.6330 C   0  0  0  0  0  0  0  0  0  0  0  0
   54.7840   26.7110   45.9920 O   0  0  0  0  0  0  0  0  0  0  0  0
   57.9610   26.2160   46.3970 C   0  0  0  0  0  0  0  0  0  0  0  0
   57.7090   25.2790   47.5380 C   0  0  0  0  0  0  0  0  0  0  0  0
   58.5640   27.4100   46.5340 N   0  0  0  0  0  0  0  0  0  0  0  0
   58.6090   28.0100   45.3560 N   0  0  0  0  0  0  0  0  0  0  0  0
   59.2790   29.2970   45.1380 C   0  0  0  0  0  0  0  0  0  0  0  0
   58.9300   30.2750   46.2300 C   0  0  0  0  0  0  0  0  0  0  0  0
   58.9120   29.8700   47.4250 O   0  0  0  0  0  0  0  0  0  0  0  0
   58.5710   31.6430   45.9350 N   0  0  0  0  0  0  0  0  0  0  0  0
   58.3010   32.0710   44.5560 C   0  0  0  0  0  0  0  0  0  0  0  0
   57.3920   33.3040   44.5480 C   0  0  0  0  0  0  0  0  0  0  0  0
   57.9010   34.3110   45.4000 O   0  0  0  0  0  0  0  0  0  0  0  0
   57.8590   33.8600   46.7400 C   0  0  0  0  0  0  0  0  0  0  0  0
   58.8130   32.6810   46.9470 C   0  0  0  0  0  0  0  0  0  0  0  0
   58.5154   28.3814   42.7293 H   0  0  0  0  0  0  0  0  0  0  0  0
   57.7687   26.6612   42.3923 H   0  0  0  0  0  0  0  0  0  0  0  0
   57.3554   24.3843   43.8117 H   0  0  0  0  0  0  0  0  0  0  0  0
   57.8525   25.8126   48.4892 H   0  0  0  0  0  0  0  0  0  0  0  0
   56.6774   24.9014   47.4814 H   0  0  0  0  0  0  0  0  0  0  0  0
   58.4120   24.4349   47.4814 H   0  0  0  0  0  0  0  0  0  0  0  0
   58.9530   27.8060   47.4200 H   0  0  0  0  0  0  0  0  0  0  0  0
   60.3677   29.1397   45.1295 H   0  0  0  0  0  0  0  0  0  0  0  0
   58.9436   29.7099   44.1752 H   0  0  0  0  0  0  0  0  0  0  0  0
   59.2515   32.3182   44.0605 H   0  0  0  0  0  0  0  0  0  0  0  0
   57.7973   31.2528   44.0205 H   0  0  0  0  0  0  0  0  0  0  0  0
   57.3281   33.6978   43.5229 H   0  0  0  0  0  0  0  0  0  0  0  0
   56.3956   33.0087   44.9087 H   0  0  0  0  0  0  0  0  0  0  0  0
   58.1535   34.6836   47.4071 H   0  0  0  0  0  0  0  0  0  0  0  0
   56.8351   33.5294   46.9687 H   0  0  0  0  0  0  0  0  0  0  0  0
   59.8509   33.0352   46.8620 H   0  0  0  0  0  0  0  0  0  0  0  0
   58.6405   32.2532   47.9456 H   0  0  0  0  0  0  0  0  0  0  0  0
  1  2  2  0
  2  3  1  0
  3  4  2  3
  4  5  1  0
  5  6  1  0
  6  7  1  0
  7  8  2  0
  7  9  1  0
  9 10  1  0
 10 11  1  0
  3 12  1  0
 12 13  1  0
 12 14  2  0
 14 15  1  0
 15 16  1  0
 16 17  1  0
 17 18  2  0
 17 19  1  0
 19 20  1  0
 20 21  1  0
 21 22  1  0
 22 23  1  0
 23 24  1  0
 15  2  1  0
 24 19  1  0
 10  5  2  0
  1 25  1  0
  1 26  1  0
  4 27  1  0
 13 28  1  0
 13 29  1  0
 13 30  1  0
 14 31  1  0
 16 32  1  0
 16 33  1  0
 20 34  1  0
 20 35  1  0
 21 36  1  0
 21 37  1  0
 23 38  1  0
 23 39  1  0
 24 40  1  0
 24 41  1  0
M  CHG  4   6  -1   9  -1  11  -1  14   1
M  END
>  <UniqueID>  (29) 
29

>  <SMILES>  (29) 
C=c1c(=Cc2[n-]c(=O)[n-]c2[O-])c(C)[nH+]n1CC(=O)N1CCOCC1

>  <Energy>  (29) 
115.95917230972827

>  <Genealogy>  (29) 
C=c1c(=Cc2[n-]c(=O)[n-]c2[O-])c(C)[nH+]n1CC(=O)N1CCOCC1 (protonated)
C=c1c(=Cc2[n-]c(=O)[n-]c2[O-])c(C)[nH+]n1CC(=O)N1CCOCC1 (3D coordinates assigned)
C=c1c(=Cc2[n-]c(=O)[n-]c2[O-])c(C)[nH+]n1CC(=O)N1CCOCC1 (nonaromatic ring conformer: 115.95917230972827 kcal/mol)

>  <smiles>  (29) 
C=c1c(=Cc2[nH]c(=O)[nH]c2O)c(C)nn1CC(=O)N1CCOCC1

>  <score_type>  (29) 
oracle

>  <origin>  (29) 
adg

>  <m_score__min__energy>  (29) 
-14.74

>  <m_primary>  (29) 
energy

$$$$
29:0
     RDKit          3D

 51 53  0  0  0  0  0  0  0  0999 V2000
   59.3050   30.3150   47.5470 C   0  0  0  0  0  0  0  0  0  0  0  0
   58.7610   31.0080   46.5300 C   0  0  0  0  0  0  0  0  0  0  0  0
   58.3380   30.4640   45.3110 C   0  0  0  0  0  0  0  0  0  0  0  0
   58.4300   29.1800   44.9100 C   0  0  0  0  0  0  0  0  0  0  0  0
   57.4510   28.1360   45.2590 C   0  0  0  0  0  0  0  0  0  0  0  0
   57.8020   26.9270   45.7340 N   0  0  0  0  0  0  0  0  0  0  0  0
   56.6160   26.3330   45.9880 C   0  0  0  0  0  0  0  0  0  0  0  0
   56.5270   25.1630   46.4400 O   0  0  0  0  0  0  0  0  0  0  0  0
   55.5330   27.0970   45.7270 N   0  0  0  0  0  0  0  0  0  0  0  0
   56.0780   28.2400   45.2780 C   0  0  0  0  0  0  0  0  0  0  0  0
   55.3390   29.3670   44.9340 O   0  0  0  0  0  0  0  0  0  0  0  0
   57.8620   31.5230   44.5560 C   0  0  0  0  0  0  0  0  0  0  0  0
   57.9840   32.6530   45.3350 C   0  0  0  0  0  0  0  0  0  0  0  0
   57.6110   34.0310   44.8760 C   0  0  0  0  0  0  0  0  0  0  0  0
   58.5450   32.3540   46.5320 N   0  0  0  0  0  0  0  0  0  0  0  0
   58.7960   33.3240   47.6140 C   0  0  0  0  0  0  0  0  0  0  0  0
   60.2750   33.5480   47.8270 C   0  0  0  0  0  0  0  0  0  0  0  0
   61.1640   33.3640   46.7520 C   0  0  0  0  0  0  0  0  0  0  0  0
   62.5300   33.5920   46.9130 C   0  0  0  0  0  0  0  0  0  0  0  0
   63.0270   34.0180   48.1440 C   0  0  0  0  0  0  0  0  0  0  0  0
   62.1600   34.2150   49.2200 C   0  0  0  0  0  0  0  0  0  0  0  0
   60.7770   33.9800   49.0750 C   0  0  0  0  0  0  0  0  0  0  0  0
   59.8830   34.1610   50.1430 O   0  0  0  0  0  0  0  0  0  0  0  0
   59.9470   33.4600   51.3820 C   0  0  0  0  0  0  0  0  0  0  0  0
   58.5560   33.1080   51.8210 C   0  0  0  0  0  0  0  0  0  0  0  0
   57.8730   33.9870   52.4120 O   0  0  0  0  0  0  0  0  0  0  0  0
   57.9720   31.8170   51.5350 N   0  0  0  0  0  0  0  0  0  0  0  0
   58.7530   30.7670   50.8710 C   0  0  0  0  0  0  0  0  0  0  0  0
   56.5860   31.5580   51.9400 C   0  0  0  0  0  0  0  0  0  0  0  0
   59.6064   30.8354   48.4681 H   0  0  0  0  0  0  0  0  0  0  0  0
   59.4483   29.2281   47.4574 H   0  0  0  0  0  0  0  0  0  0  0  0
   59.2884   28.8946   44.2841 H   0  0  0  0  0  0  0  0  0  0  0  0
   55.1420   30.0840   45.6220 H   0  0  0  0  0  0  0  0  0  0  0  0
   57.4634   31.4719   43.5320 H   0  0  0  0  0  0  0  0  0  0  0  0
   57.4369   34.6744   45.7511 H   0  0  0  0  0  0  0  0  0  0  0  0
   58.4282   34.4494   44.2701 H   0  0  0  0  0  0  0  0  0  0  0  0
   56.6943   33.9801   44.2701 H   0  0  0  0  0  0  0  0  0  0  0  0
   58.3239   34.2822   47.3513 H   0  0  0  0  0  0  0  0  0  0  0  0
   58.3714   32.9194   48.5446 H   0  0  0  0  0  0  0  0  0  0  0  0
   60.7776   33.0372   45.7753 H   0  0  0  0  0  0  0  0  0  0  0  0
   63.2164   33.4356   46.0678 H   0  0  0  0  0  0  0  0  0  0  0  0
   64.1049   34.1993   48.2675 H   0  0  0  0  0  0  0  0  0  0  0  0
   62.5580   34.5557   50.1872 H   0  0  0  0  0  0  0  0  0  0  0  0
   60.5366   32.5402   51.2545 H   0  0  0  0  0  0  0  0  0  0  0  0
   60.4253   34.0951   52.1422 H   0  0  0  0  0  0  0  0  0  0  0  0
   59.2282   30.1281   51.6299 H   0  0  0  0  0  0  0  0  0  0  0  0
   58.0875   30.1569   50.2427 H   0  0  0  0  0  0  0  0  0  0  0  0
   59.5288   31.2289   50.2427 H   0  0  0  0  0  0  0  0  0  0  0  0
   56.5210   31.5459   53.0380 H   0  0  0  0  0  0  0  0  0  0  0  0
   55.9339   32.3498   51.5428 H   0  0  0  0  0  0  0  0  0  0  0  0
   56.2638   30.5841   51.5428 H   0  0  0  0  0  0  0  0  0  0  0  0
  1  2  2  0
  2  3  1  0
  3  4  2  3
  4  5  1  0
  5  6  1  0
  6  7  1  0
  7  8  2  0
  7  9  1  0
  9 10  1  0
 10 11  1  0
  3 12  1  0
 12 13  2  0
 13 14  1  0
 13 15  1  0
 15 16  1  0
 16 17  1  0
 17 18  2  0
 18 19  1  0
 19 20  2  0
 20 21  1  0
 21 22  2  0
 22 23  1  0
 23 24  1  0
 24 25  1  0
 25 26  2  0
 25 27  1  0
 27 28  1  0
 27 29  1  0
 15  2  1  0
 22 17  1  0
 10  5  2  0
  1 30  1  0
  1 31  1  0
  4 32  1  0
 11 33  1  0
 12 34  1  0
 14 35  1  0
 14 36  1  0
 14 37  1  0
 16 38  1  0
 16 39  1  0
 18 40  1  0
 19 41  1  0
 20 42  1  0
 21 43  1  0
 24 44  1  0
 24 45  1  0
 28 46  1  0
 28 47  1  0
 28 48  1  0
 29 49  1  0
 29 50  1  0
 29 51  1  0
M  CHG  2   6  -1   9  -1
M  END
>  <UniqueID>  (30) 
30

>  <SMILES>  (30) 
C=c1c(=Cc2[n-]c(=O)[n-]c2O)cc(C)n1Cc1ccccc1OCC(=O)N(C)C

>  <Energy>  (30) 
108.53429859581286

>  <Genealogy>  (30) 
C=c1c(=Cc2[n-]c(=O)[n-]c2O)cc(C)n1Cc1ccccc1OCC(=O)N(C)C (protonated)
C=c1c(=Cc2[n-]c(=O)[n-]c2O)cc(C)n1Cc1ccccc1OCC(=O)N(C)C (3D coordinates assigned)
C=c1c(=Cc2[n-]c(=O)[n-]c2O)cc(C)n1Cc1ccccc1OCC(=O)N(C)C (optimized conformer: 108.53429859581286 kcal/mol)

>  <smiles>  (30) 
C=c1c(=Cc2[nH]c(=O)[nH]c2O)cc(C)n1Cc1ccccc1OCC(=O)N(C)C

>  <score_type>  (30) 
oracle

>  <origin>  (30) 
adg

>  <m_score__min__energy>  (30) 
-13.23

>  <m_primary>  (30) 
energy

$$$$
30:0
     RDKit          3D

 62 66  0  0  0  0  0  0  0  0999 V2000
   56.7740   21.5630   42.9610 C   0  0  0  0  0  0  0  0  0  0  0  0
   55.9190   22.5680   43.4980 O   0  0  0  0  0  0  0  0  0  0  0  0
   56.3320   23.5610   44.3980 C   0  0  0  0  0  0  0  0  0  0  0  0
   57.2880   24.4900   43.9710 C   0  0  0  0  0  0  0  0  0  0  0  0
   57.7320   25.4990   44.8300 C   0  0  0  0  0  0  0  0  0  0  0  0
   57.2150   25.5980   46.1310 C   0  0  0  0  0  0  0  0  0  0  0  0
   57.7140   26.6610   47.0730 C   0  0  0  0  0  0  0  0  0  0  0  0
   59.1920   26.4310   47.4070 C   0  0  0  0  0  0  0  0  0  0  0  0
   59.6190   27.3060   48.4950 N   0  0  0  0  0  0  0  0  0  0  0  0
   59.9200   28.7050   48.3920 C   0  0  0  0  0  0  0  0  0  0  0  0
   59.7560   29.4300   49.4080 O   0  0  0  0  0  0  0  0  0  0  0  0
   60.4630   29.3270   47.1290 C   0  0  0  0  0  0  0  0  0  0  0  0
   59.3630   29.6910   46.2090 N   0  0  0  0  0  0  0  0  0  0  0  0
   58.6090   30.8490   46.3710 C   0  0  0  0  0  0  0  0  0  0  0  0
   58.8660   31.8490   47.4730 C   0  0  0  0  0  0  0  0  0  0  0  0
   59.2410   33.1640   46.9100 N   0  0  0  0  0  0  0  0  0  0  0  0
   59.0410   34.2690   47.8690 C   0  0  0  0  0  0  0  0  0  0  0  0
   59.9630   34.1490   49.0930 C   0  0  0  0  0  0  0  0  0  0  0  0
   61.3760   33.7950   48.7080 C   0  0  0  0  0  0  0  0  0  0  0  0
   62.3950   33.9080   49.6670 C   0  0  0  0  0  0  0  0  0  0  0  0
   63.7030   33.5330   49.3550 C   0  0  0  0  0  0  0  0  0  0  0  0
   64.0040   33.0370   48.0850 C   0  0  0  0  0  0  0  0  0  0  0  0
   62.9980   32.9090   47.1250 C   0  0  0  0  0  0  0  0  0  0  0  0
   61.6750   33.2700   47.4340 C   0  0  0  0  0  0  0  0  0  0  0  0
   60.6140   33.1810   46.3610 C   0  0  0  0  0  0  0  0  0  0  0  0
   57.5820   31.1270   45.5110 N   0  0  0  0  0  0  0  0  0  0  0  0
   57.2910   30.2810   44.4990 C   0  0  0  0  0  0  0  0  0  0  0  0
   56.2680   30.4630   43.5670 C   0  0  0  0  0  0  0  0  0  0  0  0
   56.2090   29.4220   42.6390 C   0  0  0  0  0  0  0  0  0  0  0  0
   57.4250   28.2950   42.9920 S   0  0  0  0  0  0  0  0  0  0  0  0
   58.0200   29.1350   44.3190 C   0  0  0  0  0  0  0  0  0  0  0  0
   59.0660   28.8260   45.1750 C   0  0  0  0  0  0  0  0  0  0  0  0
   59.7250   27.7640   45.0010 O   0  0  0  0  0  0  0  0  0  0  0  0
   56.2660   24.6620   46.5660 C   0  0  0  0  0  0  0  0  0  0  0  0
   55.8220   23.6520   45.7070 C   0  0  0  0  0  0  0  0  0  0  0  0
   57.2474   21.0066   43.7834 H   0  0  0  0  0  0  0  0  0  0  0  0
   56.1833   20.8712   42.3425 H   0  0  0  0  0  0  0  0  0  0  0  0
   57.5515   22.0352   42.3425 H   0  0  0  0  0  0  0  0  0  0  0  0
   57.6933   24.4253   42.9504 H   0  0  0  0  0  0  0  0  0  0  0  0
   58.4895   26.2182   44.4852 H   0  0  0  0  0  0  0  0  0  0  0  0
   57.5990   27.6472   46.5996 H   0  0  0  0  0  0  0  0  0  0  0  0
   57.1279   26.6162   48.0028 H   0  0  0  0  0  0  0  0  0  0  0  0
   59.3347   25.3831   47.7096 H   0  0  0  0  0  0  0  0  0  0  0  0
   59.7948   26.6570   46.5150 H   0  0  0  0  0  0  0  0  0  0  0  0
   61.0312   30.2325   47.3881 H   0  0  0  0  0  0  0  0  0  0  0  0
   61.1153   28.5966   46.6279 H   0  0  0  0  0  0  0  0  0  0  0  0
   57.9540   31.9621   48.0776 H   0  0  0  0  0  0  0  0  0  0  0  0
   59.6948   31.4824   48.0964 H   0  0  0  0  0  0  0  0  0  0  0  0
   59.2496   35.2217   47.3603 H   0  0  0  0  0  0  0  0  0  0  0  0
   58.0008   34.2243   48.2239 H   0  0  0  0  0  0  0  0  0  0  0  0
   59.9714   35.1112   49.6260 H   0  0  0  0  0  0  0  0  0  0  0  0
   59.5743   33.3417   49.7310 H   0  0  0  0  0  0  0  0  0  0  0  0
   62.1614   34.2943   50.6701 H   0  0  0  0  0  0  0  0  0  0  0  0
   64.4971   33.6283   50.1102 H   0  0  0  0  0  0  0  0  0  0  0  0
   65.0362   32.7463   47.8400 H   0  0  0  0  0  0  0  0  0  0  0  0
   63.2416   32.5244   46.1236 H   0  0  0  0  0  0  0  0  0  0  0  0
   60.7149   34.0503   45.6946 H   0  0  0  0  0  0  0  0  0  0  0  0
   60.7665   32.2335   45.8234 H   0  0  0  0  0  0  0  0  0  0  0  0
   55.5871   31.3269   43.5642 H   0  0  0  0  0  0  0  0  0  0  0  0
   55.4887   29.3453   41.8112 H   0  0  0  0  0  0  0  0  0  0  0  0
   55.8682   24.7226   47.5897 H   0  0  0  0  0  0  0  0  0  0  0  0
   55.0720   22.9264   46.0550 H   0  0  0  0  0  0  0  0  0  0  0  0
  1  2  1  0
  2  3  1  0
  3  4  2  0
  4  5  1  0
  5  6  2  0
  6  7  1  0
  7  8  1  0
  8  9  1  0
  9 10  1  0
 10 11  2  0
 10 12  1  0
 12 13  1  0
 13 14  1  0
 14 15  1  0
 15 16  1  0
 16 17  1  0
 17 18  1  0
 18 19  1  0
 19 20  2  0
 20 21  1  0
 21 22  2  0
 22 23  1  0
 23 24  2  0
 24 25  1  0
 14 26  2  0
 26 27  1  0
 27 28  1  0
 28 29  2  0
 29 30  1  0
 30 31  1  0
 31 32  1  0
 32 33  2  0
  6 34  1  0
 34 35  2  0
 35  3  1  0
 32 13  1  0
 25 16  1  0
 31 27  2  0
 24 19  1  0
  1 36  1  0
  1 37  1  0
  1 38  1  0
  4 39  1  0
  5 40  1  0
  7 41  1  0
  7 42  1  0
  8 43  1  0
  8 44  1  0
 12 45  1  0
 12 46  1  0
 15 47  1  0
 15 48  1  0
 17 49  1  0
 17 50  1  0
 18 51  1  0
 18 52  1  0
 20 53  1  0
 21 54  1  0
 22 55  1  0
 23 56  1  0
 25 57  1  0
 25 58  1  0
 28 59  1  0
 29 60  1  0
 34 61  1  0
 35 62  1  0
M  CHG  1   9  -1
M  END
>  <UniqueID>  (31) 
31

>  <SMILES>  (31) 
COc1ccc(CC[N-]C(=O)Cn2c(CN3CCc4ccccc4C3)nc3ccsc3c2=O)cc1

>  <Energy>  (31) 
105.08630738589926

>  <Genealogy>  (31) 
COc1ccc(CC[N-]C(=O)Cn2c(CN3CCc4ccccc4C3)nc3ccsc3c2=O)cc1 (protonated)
COc1ccc(CC[N-]C(=O)Cn2c(CN3CCc4ccccc4C3)nc3ccsc3c2=O)cc1 (3D coordinates assigned)
COc1ccc(CC[N-]C(=O)Cn2c(CN3CCc4ccccc4C3)nc3ccsc3c2=O)cc1 (nonaromatic ring conformer: 105.08630738589926 kcal/mol)

>  <smiles>  (31) 
COc1ccc(CCNC(=O)Cn2c(CN3CCc4ccccc4C3)nc3ccsc3c2=O)cc1

>  <score_type>  (31) 
oracle

>  <origin>  (31) 
adg

>  <m_score__min__energy>  (31) 
-10.34

>  <m_primary>  (31) 
energy

$$$$
31:0
     RDKit          3D

 49 52  0  0  0  0  0  0  0  0999 V2000
   55.8080   31.2260   52.4430 C   0  0  0  0  0  0  0  0  0  0  0  0
   57.1610   31.7860   52.1110 C   0  0  0  0  0  0  0  0  0  0  0  0
   57.9870   31.1380   51.1800 C   0  0  0  0  0  0  0  0  0  0  0  0
   59.2290   31.6830   50.8380 C   0  0  0  0  0  0  0  0  0  0  0  0
   59.6470   32.9030   51.4000 C   0  0  0  0  0  0  0  0  0  0  0  0
   60.8950   33.5180   51.0530 N   0  0  0  0  0  0  0  0  0  0  0  0
   61.5950   33.5420   49.4660 S   0  0  0  0  0  0  0  0  0  0  0  0
   62.7250   32.5540   49.4160 O   0  0  0  0  0  0  0  0  0  0  0  0
   62.1390   34.9150   49.1830 O   0  0  0  0  0  0  0  0  0  0  0  0
   60.3880   33.0860   48.2690 C   0  0  0  0  0  0  0  0  0  0  0  0
   60.6380   32.0210   47.3970 C   0  0  0  0  0  0  0  0  0  0  0  0
   59.7140   31.6930   46.4010 C   0  0  0  0  0  0  0  0  0  0  0  0
   58.5190   32.4230   46.2670 C   0  0  0  0  0  0  0  0  0  0  0  0
   57.5670   32.1250   45.1670 C   0  0  0  0  0  0  0  0  0  0  0  0
   57.3850   32.9730   44.2540 O   0  0  0  0  0  0  0  0  0  0  0  0
   56.8990   30.8590   45.0740 N   0  0  0  0  0  0  0  0  0  0  0  0
   57.5080   29.7120   45.0460 C   0  0  0  0  0  0  0  0  0  0  0  0
   57.0000   28.5730   45.5660 N   0  0  0  0  0  0  0  0  0  0  0  0
   57.8310   27.5140   45.3620 C   0  0  0  0  0  0  0  0  0  0  0  0
   57.4570   26.1350   45.7570 C   0  0  0  0  0  0  0  0  0  0  0  0
   58.4640   25.1530   45.8410 C   0  0  0  0  0  0  0  0  0  0  0  0
   58.1430   23.8240   46.1210 C   0  0  0  0  0  0  0  0  0  0  0  0
   56.8130   23.4530   46.3120 C   0  0  0  0  0  0  0  0  0  0  0  0
   55.8020   24.4130   46.2400 C   0  0  0  0  0  0  0  0  0  0  0  0
   56.1100   25.7550   45.9870 C   0  0  0  0  0  0  0  0  0  0  0  0
   55.0620   26.6790   46.0010 O   0  0  0  0  0  0  0  0  0  0  0  0
   59.0020   27.8200   44.6620 C   0  0  0  0  0  0  0  0  0  0  0  0
   58.9870   29.4630   44.2980 S   0  0  0  0  0  0  0  0  0  0  0  0
   58.2700   33.4870   47.1520 C   0  0  0  0  0  0  0  0  0  0  0  0
   59.1970   33.8150   48.1470 C   0  0  0  0  0  0  0  0  0  0  0  0
   58.8130   33.5540   52.3190 C   0  0  0  0  0  0  0  0  0  0  0  0
   57.5780   33.0020   52.6710 C   0  0  0  0  0  0  0  0  0  0  0  0
   55.6895   31.1769   53.5355 H   0  0  0  0  0  0  0  0  0  0  0  0
   55.0282   31.8753   52.0184 H   0  0  0  0  0  0  0  0  0  0  0  0
   55.7151   30.2155   52.0184 H   0  0  0  0  0  0  0  0  0  0  0  0
   57.6562   30.1967   50.7168 H   0  0  0  0  0  0  0  0  0  0  0  0
   59.8815   31.1555   50.1267 H   0  0  0  0  0  0  0  0  0  0  0  0
   61.5662   31.4390   47.4957 H   0  0  0  0  0  0  0  0  0  0  0  0
   59.9228   30.8576   45.7166 H   0  0  0  0  0  0  0  0  0  0  0  0
   59.5150   25.4371   45.6841 H   0  0  0  0  0  0  0  0  0  0  0  0
   58.9399   23.0690   46.1910 H   0  0  0  0  0  0  0  0  0  0  0  0
   56.5598   22.4029   46.5196 H   0  0  0  0  0  0  0  0  0  0  0  0
   54.7537   24.1122   46.3834 H   0  0  0  0  0  0  0  0  0  0  0  0
   55.1410   27.6080   45.6130 H   0  0  0  0  0  0  0  0  0  0  0  0
   59.7972   27.1084   44.3949 H   0  0  0  0  0  0  0  0  0  0  0  0
   57.3391   34.0659   47.0612 H   0  0  0  0  0  0  0  0  0  0  0  0
   58.9907   34.6475   48.8357 H   0  0  0  0  0  0  0  0  0  0  0  0
   59.1327   34.5066   52.7667 H   0  0  0  0  0  0  0  0  0  0  0  0
   56.9302   33.5240   53.3907 H   0  0  0  0  0  0  0  0  0  0  0  0
  1  2  1  0
  2  3  2  0
  3  4  1  0
  4  5  2  0
  5  6  1  0
  6  7  1  0
  7  8  2  0
  7  9  2  0
  7 10  1  0
 10 11  2  0
 11 12  1  0
 12 13  2  0
 13 14  1  0
 14 15  2  0
 14 16  1  0
 16 17  2  3
 17 18  1  0
 18 19  1  0
 19 20  1  0
 20 21  2  0
 21 22  1  0
 22 23  2  0
 23 24  1  0
 24 25  2  0
 25 26  1  0
 19 27  2  0
 27 28  1  0
 13 29  1  0
 29 30  2  0
  5 31  1  0
 31 32  2  0
 32  2  1  0
 30 10  1  0
 28 17  1  0
 25 20  1  0
  1 33  1  0
  1 34  1  0
  1 35  1  0
  3 36  1  0
  4 37  1  0
 11 38  1  0
 12 39  1  0
 21 40  1  0
 22 41  1  0
 23 42  1  0
 24 43  1  0
 26 44  1  0
 27 45  1  0
 29 46  1  0
 30 47  1  0
 31 48  1  0
 32 49  1  0
M  CHG  2   6  -1  18  -1
M  END
>  <UniqueID>  (32) 
32

>  <SMILES>  (32) 
Cc1ccc([N-]S(=O)(=O)c2ccc(C(=O)N=c3[n-]c(-c4ccccc4O)cs3)cc2)cc1

>  <Energy>  (32) 
96.69699279463308

>  <Genealogy>  (32) 
Cc1ccc([N-]S(=O)(=O)c2ccc(C(=O)N=c3[n-]c(-c4ccccc4O)cs3)cc2)cc1 (protonated)
Cc1ccc([N-]S(=O)(=O)c2ccc(C(=O)N=c3[n-]c(-c4ccccc4O)cs3)cc2)cc1 (3D coordinates assigned)
Cc1ccc([N-]S(=O)(=O)c2ccc(C(=O)N=c3[n-]c(-c4ccccc4O)cs3)cc2)cc1 (optimized conformer: 96.69699279463308 kcal/mol)

>  <smiles>  (32) 
Cc1ccc(NS(=O)(=O)c2ccc(C(=O)N=c3[nH]c(-c4ccccc4O)cs3)cc2)cc1

>  <score_type>  (32) 
oracle

>  <origin>  (32) 
adg

>  <m_score__min__energy>  (32) 
-12.9

>  <m_primary>  (32) 
energy

$$$$
32:0
     RDKit          3D

 61 64  0  0  0  0  0  0  0  0999 V2000
   57.0800   34.2790   44.5170 O   0  0  0  0  0  0  0  0  0  0  0  0
   57.2930   33.2000   45.1350 C   0  0  0  0  0  0  0  0  0  0  0  0
   56.4250   32.0740   44.9480 N   0  0  0  0  0  0  0  0  0  0  0  0
   56.8310   30.7680   44.5160 C   0  0  0  0  0  0  0  0  0  0  0  0
   56.5410   30.3710   43.2050 C   0  0  0  0  0  0  0  0  0  0  0  0
   56.9010   29.0970   42.7550 C   0  0  0  0  0  0  0  0  0  0  0  0
   57.5310   28.2000   43.6240 C   0  0  0  0  0  0  0  0  0  0  0  0
   57.7930   28.5710   44.9490 C   0  0  0  0  0  0  0  0  0  0  0  0
   58.5560   27.4400   46.0640 S   0  0  0  0  0  0  0  0  0  0  0  0
   57.5650   27.0580   47.1270 O   0  0  0  0  0  0  0  0  0  0  0  0
   58.9720   26.1950   45.3280 O   0  0  0  0  0  0  0  0  0  0  0  0
   59.9400   28.2050   46.8040 N   0  0  0  0  0  0  0  0  0  0  0  0
   59.5830   28.8320   48.0760 C   0  0  0  0  0  0  0  0  0  0  0  0
   60.5580   29.9820   48.2840 C   0  0  0  0  0  0  0  0  0  0  0  0
   61.1250   30.2810   46.9040 C   0  0  0  0  0  0  0  0  0  0  0  0
   60.4580   29.2880   45.9660 C   0  0  0  0  0  0  0  0  0  0  0  0
   57.4500   29.8560   45.3930 C   0  0  0  0  0  0  0  0  0  0  0  0
   58.3790   33.1240   46.1750 C   0  0  0  0  0  0  0  0  0  0  0  0
   59.2430   34.4060   46.2060 C   0  0  0  0  0  0  0  0  0  0  0  0
   60.0430   34.5400   47.5190 C   0  0  0  0  0  0  0  0  0  0  0  0
   60.1930   33.2270   48.1660 N   0  0  0  0  0  0  0  0  0  0  0  0
   61.3000   33.3390   49.5090 S   0  0  0  0  0  0  0  0  0  0  0  0
   61.5080   31.9680   50.0930 O   0  0  0  0  0  0  0  0  0  0  0  0
   60.6790   34.2070   50.5690 O   0  0  0  0  0  0  0  0  0  0  0  0
   62.8260   34.0220   48.9590 N   0  0  0  0  0  0  0  0  0  0  0  0
   63.0330   33.8350   47.5090 C   0  0  0  0  0  0  0  0  0  0  0  0
   63.7380   32.5030   47.1820 C   0  0  0  0  0  0  0  0  0  0  0  0
   63.5860   31.5780   48.2370 O   0  0  0  0  0  0  0  0  0  0  0  0
   64.2860   32.0330   49.3830 C   0  0  0  0  0  0  0  0  0  0  0  0
   63.9730   33.5080   49.7290 C   0  0  0  0  0  0  0  0  0  0  0  0
   58.8870   32.7250   48.6420 C   0  0  0  0  0  0  0  0  0  0  0  0
   57.7850   32.8370   47.5640 C   0  0  0  0  0  0  0  0  0  0  0  0
   56.0267   31.0658   42.5247 H   0  0  0  0  0  0  0  0  0  0  0  0
   56.6887   28.8001   41.7173 H   0  0  0  0  0  0  0  0  0  0  0  0
   57.8213   27.2012   43.2661 H   0  0  0  0  0  0  0  0  0  0  0  0
   58.5515   29.2119   48.0354 H   0  0  0  0  0  0  0  0  0  0  0  0
   59.6400   28.1096   48.9036 H   0  0  0  0  0  0  0  0  0  0  0  0
   60.0352   30.8628   48.6851 H   0  0  0  0  0  0  0  0  0  0  0  0
   61.3477   29.7252   49.0054 H   0  0  0  0  0  0  0  0  0  0  0  0
   60.8855   31.3122   46.6053 H   0  0  0  0  0  0  0  0  0  0  0  0
   62.2208   30.1876   46.8844 H   0  0  0  0  0  0  0  0  0  0  0  0
   59.6348   29.7739   45.4218 H   0  0  0  0  0  0  0  0  0  0  0  0
   61.1706   28.9065   45.2199 H   0  0  0  0  0  0  0  0  0  0  0  0
   57.6651   30.1530   46.4301 H   0  0  0  0  0  0  0  0  0  0  0  0
   59.0395   32.2901   45.8951 H   0  0  0  0  0  0  0  0  0  0  0  0
   59.9488   34.3777   45.3628 H   0  0  0  0  0  0  0  0  0  0  0  0
   58.5664   35.2703   46.1338 H   0  0  0  0  0  0  0  0  0  0  0  0
   61.0391   34.9498   47.2960 H   0  0  0  0  0  0  0  0  0  0  0  0
   59.5005   35.2127   48.1996 H   0  0  0  0  0  0  0  0  0  0  0  0
   62.0539   33.8486   47.0079 H   0  0  0  0  0  0  0  0  0  0  0  0
   63.6790   34.6518   47.1547 H   0  0  0  0  0  0  0  0  0  0  0  0
   63.2998   32.0794   46.2663 H   0  0  0  0  0  0  0  0  0  0  0  0
   64.8109   32.6999   47.0404 H   0  0  0  0  0  0  0  0  0  0  0  0
   64.0045   31.4034   50.2400 H   0  0  0  0  0  0  0  0  0  0  0  0
   65.3617   31.9650   49.1633 H   0  0  0  0  0  0  0  0  0  0  0  0
   63.7419   33.5802   50.8020 H   0  0  0  0  0  0  0  0  0  0  0  0
   64.8549   34.1130   49.4715 H   0  0  0  0  0  0  0  0  0  0  0  0
   58.9970   31.6681   48.9264 H   0  0  0  0  0  0  0  0  0  0  0  0
   58.5820   33.3431   49.4993 H   0  0  0  0  0  0  0  0  0  0  0  0
   57.2265   31.8901   47.5247 H   0  0  0  0  0  0  0  0  0  0  0  0
   57.1228   33.6727   47.8344 H   0  0  0  0  0  0  0  0  0  0  0  0
  1  2  2  0
  2  3  1  0
  3  4  1  0
  4  5  2  0
  5  6  1  0
  6  7  2  0
  7  8  1  0
  8  9  1  0
  9 10  2  0
  9 11  2  0
  9 12  1  0
 12 13  1  0
 13 14  1  0
 14 15  1  0
 15 16  1  0
  8 17  2  0
  2 18  1  0
 18 19  1  0
 19 20  1  0
 20 21  1  0
 21 22  1  0
 22 23  2  0
 22 24  2  0
 22 25  1  0
 25 26  1  0
 26 27  1  0
 27 28  1  0
 28 29  1  0
 29 30  1  0
 21 31  1  0
 31 32  1  0
 17  4  1  0
 32 18  1  0
 16 12  1  0
 30 25  1  0
  5 33  1  0
  6 34  1  0
  7 35  1  0
 13 36  1  0
 13 37  1  0
 14 38  1  0
 14 39  1  0
 15 40  1  0
 15 41  1  0
 16 42  1  0
 16 43  1  0
 17 44  1  0
 18 45  1  0
 19 46  1  0
 19 47  1  0
 20 48  1  0
 20 49  1  0
 26 50  1  0
 26 51  1  0
 27 52  1  0
 27 53  1  0
 29 54  1  0
 29 55  1  0
 30 56  1  0
 30 57  1  0
 31 58  1  0
 31 59  1  0
 32 60  1  0
 32 61  1  0
M  CHG  1   3  -1
M  END
>  <UniqueID>  (33) 
33

>  <SMILES>  (33) 
O=C([N-]c1cccc(S(=O)(=O)N2CCCC2)c1)C1CCN(S(=O)(=O)N2CCOCC2)CC1

>  <Energy>  (33) 
78.6340862754588

>  <Genealogy>  (33) 
O=C([N-]c1cccc(S(=O)(=O)N2CCCC2)c1)C1CCN(S(=O)(=O)N2CCOCC2)CC1 (protonated)
O=C([N-]c1cccc(S(=O)(=O)N2CCCC2)c1)C1CCN(S(=O)(=O)N2CCOCC2)CC1 (3D coordinates assigned)
O=C([N-]c1cccc(S(=O)(=O)N2CCCC2)c1)C1CCN(S(=O)(=O)N2CCOCC2)CC1 (nonaromatic ring conformer: 78.6340862754588 kcal/mol)

>  <smiles>  (33) 
O=C(Nc1cccc(S(=O)(=O)N2CCCC2)c1)C1CCN(S(=O)(=O)N2CCOCC2)CC1

>  <score_type>  (33) 
oracle

>  <origin>  (33) 
adg

>  <m_score__min__energy>  (33) 
-11.91

>  <m_primary>  (33) 
energy

$$$$
33:0
     RDKit          3D

 64 68  0  0  0  0  0  0  0  0999 V2000
   56.8480   29.3400   45.6320 O   0  0  0  0  0  0  0  0  0  0  0  0
   57.8510   29.0120   46.3230 C   0  0  0  0  0  0  0  0  0  0  0  0
   58.3300   27.6560   46.2950 N   0  0  0  0  0  0  0  0  0  0  0  0
   57.5800   26.5530   45.7560 C   0  0  0  0  0  0  0  0  0  0  0  0
   57.9080   26.0530   44.4880 C   0  0  0  0  0  0  0  0  0  0  0  0
   57.2080   24.9680   43.9520 C   0  0  0  0  0  0  0  0  0  0  0  0
   56.1880   24.3510   44.6890 C   0  0  0  0  0  0  0  0  0  0  0  0
   55.3330   22.9540   44.0330 S   0  0  0  0  0  0  0  0  0  0  0  0
   54.9140   23.2520   42.6190 O   0  0  0  0  0  0  0  0  0  0  0  0
   54.0870   22.7280   44.8410 O   0  0  0  0  0  0  0  0  0  0  0  0
   56.3060   21.4970   44.0560 N   0  0  0  0  0  0  0  0  0  0  0  0
   56.0690   20.6700   45.2600 C   0  0  0  0  0  0  0  0  0  0  0  0
   57.1770   20.8170   46.3160 C   0  0  0  0  0  0  0  0  0  0  0  0
   57.7520   22.1020   46.2500 O   0  0  0  0  0  0  0  0  0  0  0  0
   58.5020   22.2280   45.0580 C   0  0  0  0  0  0  0  0  0  0  0  0
   57.7340   21.7640   43.7990 C   0  0  0  0  0  0  0  0  0  0  0  0
   55.8650   24.8400   45.9630 C   0  0  0  0  0  0  0  0  0  0  0  0
   56.5610   25.9270   46.4970 C   0  0  0  0  0  0  0  0  0  0  0  0
   58.5540   30.0340   47.1300 C   0  0  0  0  0  0  0  0  0  0  0  0
   59.5510   29.6730   48.0460 C   0  0  0  0  0  0  0  0  0  0  0  0
   60.1800   30.6800   48.7930 C   0  0  0  0  0  0  0  0  0  0  0  0
   61.2260   30.3590   49.7920 C   0  0  0  0  0  0  0  0  0  0  0  0
   61.0990   29.2480   50.6480 C   0  0  0  0  0  0  0  0  0  0  0  0
   62.1020   28.9510   51.5750 C   0  0  0  0  0  0  0  0  0  0  0  0
   63.2410   29.7550   51.6570 C   0  0  0  0  0  0  0  0  0  0  0  0
   63.3780   30.8580   50.8110 C   0  0  0  0  0  0  0  0  0  0  0  0
   62.3790   31.1580   49.8820 C   0  0  0  0  0  0  0  0  0  0  0  0
   59.8110   31.9760   48.6040 N   0  0  0  0  0  0  0  0  0  0  0  0
   58.8500   32.3170   47.7030 C   0  0  0  0  0  0  0  0  0  0  0  0
   58.5210   33.5600   47.5120 N   0  0  0  0  0  0  0  0  0  0  0  0
   59.4220   34.6010   47.0170 C   0  0  0  0  0  0  0  0  0  0  0  0
   60.8480   34.2970   47.3890 C   0  0  0  0  0  0  0  0  0  0  0  0
   61.7390   33.8090   46.4190 C   0  0  0  0  0  0  0  0  0  0  0  0
   63.0690   33.5370   46.7580 C   0  0  0  0  0  0  0  0  0  0  0  0
   63.5160   33.7520   48.0660 C   0  0  0  0  0  0  0  0  0  0  0  0
   62.6350   34.2350   49.0360 C   0  0  0  0  0  0  0  0  0  0  0  0
   61.3040   34.5040   48.7030 C   0  0  0  0  0  0  0  0  0  0  0  0
   58.2320   31.3470   46.9810 N   0  0  0  0  0  0  0  0  0  0  0  0
   59.3150   27.4730   46.5910 H   0  0  0  0  0  0  0  0  0  0  0  0
   58.7214   26.5174   43.9111 H   0  0  0  0  0  0  0  0  0  0  0  0
   57.4589   24.5969   42.9473 H   0  0  0  0  0  0  0  0  0  0  0  0
   55.1124   20.9728   45.7108 H   0  0  0  0  0  0  0  0  0  0  0  0
   56.0564   19.6177   44.9398 H   0  0  0  0  0  0  0  0  0  0  0  0
   56.7466   20.6636   47.3166 H   0  0  0  0  0  0  0  0  0  0  0  0
   57.9574   20.0667   46.1208 H   0  0  0  0  0  0  0  0  0  0  0  0
   58.7772   23.2852   44.9290 H   0  0  0  0  0  0  0  0  0  0  0  0
   59.3842   21.5787   45.1586 H   0  0  0  0  0  0  0  0  0  0  0  0
   57.8106   22.5498   43.0331 H   0  0  0  0  0  0  0  0  0  0  0  0
   58.1892   20.8190   43.4676 H   0  0  0  0  0  0  0  0  0  0  0  0
   55.0604   24.3657   46.5441 H   0  0  0  0  0  0  0  0  0  0  0  0
   56.3109   26.2957   47.5027 H   0  0  0  0  0  0  0  0  0  0  0  0
   59.8354   28.6185   48.1770 H   0  0  0  0  0  0  0  0  0  0  0  0
   60.2050   28.6100   50.5867 H   0  0  0  0  0  0  0  0  0  0  0  0
   61.9941   28.0824   52.2412 H   0  0  0  0  0  0  0  0  0  0  0  0
   64.0295   29.5199   52.3871 H   0  0  0  0  0  0  0  0  0  0  0  0
   64.2747   31.4918   50.8765 H   0  0  0  0  0  0  0  0  0  0  0  0
   62.4954   32.0257   49.2160 H   0  0  0  0  0  0  0  0  0  0  0  0
   59.3397   34.6578   45.9216 H   0  0  0  0  0  0  0  0  0  0  0  0
   59.1361   35.5601   47.4735 H   0  0  0  0  0  0  0  0  0  0  0  0
   61.3901   33.6401   45.3896 H   0  0  0  0  0  0  0  0  0  0  0  0
   63.7634   33.1540   45.9957 H   0  0  0  0  0  0  0  0  0  0  0  0
   64.5625   33.5404   48.3308 H   0  0  0  0  0  0  0  0  0  0  0  0
   62.9888   34.4041   50.0637 H   0  0  0  0  0  0  0  0  0  0  0  0
   60.6115   34.8787   49.4712 H   0  0  0  0  0  0  0  0  0  0  0  0
  1  2  2  0
  2  3  1  0
  3  4  1  0
  4  5  2  0
  5  6  1  0
  6  7  2  0
  7  8  1  0
  8  9  2  0
  8 10  2  0
  8 11  1  0
 11 12  1  0
 12 13  1  0
 13 14  1  0
 14 15  1  0
 15 16  1  0
  7 17  1  0
 17 18  2  0
  2 19  1  0
 19 20  2  0
 20 21  1  0
 21 22  1  0
 22 23  2  0
 23 24  1  0
 24 25  2  0
 25 26  1  0
 26 27  2  0
 21 28  2  0
 28 29  1  0
 29 30  2  3
 30 31  1  0
 31 32  1  0
 32 33  2  0
 33 34  1  0
 34 35  2  0
 35 36  1  0
 36 37  2  0
 29 38  1  0
 18  4  1  0
 38 19  1  0
 16 11  1  0
 27 22  1  0
 37 32  1  0
  3 39  1  0
  5 40  1  0
  6 41  1  0
 12 42  1  0
 12 43  1  0
 13 44  1  0
 13 45  1  0
 15 46  1  0
 15 47  1  0
 16 48  1  0
 16 49  1  0
 17 50  1  0
 18 51  1  0
 20 52  1  0
 23 53  1  0
 24 54  1  0
 25 55  1  0
 26 56  1  0
 27 57  1  0
 31 58  1  0
 31 59  1  0
 33 60  1  0
 34 61  1  0
 35 62  1  0
 36 63  1  0
 37 64  1  0
M  CHG  1  38  -1
M  END
>  <UniqueID>  (34) 
34

>  <SMILES>  (34) 
O=C(Nc1ccc(S(=O)(=O)N2CCOCC2)cc1)c1cc(-c2ccccc2)nc(=NCc2ccccc2)[n-]1

>  <Energy>  (34) 
86.97997780570316

>  <Genealogy>  (34) 
O=C(Nc1ccc(S(=O)(=O)N2CCOCC2)cc1)c1cc(-c2ccccc2)nc(=NCc2ccccc2)[n-]1 (protonated)
O=C(Nc1ccc(S(=O)(=O)N2CCOCC2)cc1)c1cc(-c2ccccc2)nc(=NCc2ccccc2)[n-]1 (3D coordinates assigned)
O=C(Nc1ccc(S(=O)(=O)N2CCOCC2)cc1)c1cc(-c2ccccc2)nc(=NCc2ccccc2)[n-]1 (nonaromatic ring conformer: 86.97997780570316 kcal/mol)

>  <smiles>  (34) 
O=C(Nc1ccc(S(=O)(=O)N2CCOCC2)cc1)c1cc(-c2ccccc2)nc(=NCc2ccccc2)[nH]1

>  <score_type>  (34) 
oracle

>  <origin>  (34) 
adg

>  <m_score__min__energy>  (34) 
-10.960000000000001

>  <m_primary>  (34) 
energy

$$$$
34:0
     RDKit          3D

 52 54  0  0  0  0  0  0  0  0999 V2000
   55.4940   29.1610   44.8680 O   0  0  0  0  0  0  0  0  0  0  0  0
   56.6070   28.5910   45.0050 C   0  0  0  0  0  0  0  0  0  0  0  0
   57.7530   29.0040   44.1180 C   0  0  0  0  0  0  0  0  0  0  0  0
   58.5360   30.1830   44.7070 C   0  0  0  0  0  0  0  0  0  0  0  0
   57.7020   31.7450   44.4530 S   0  0  0  0  0  0  0  0  0  0  0  0
   57.8350   32.1820   43.0210 O   0  0  0  0  0  0  0  0  0  0  0  0
   56.2420   31.5980   44.7820 O   0  0  0  0  0  0  0  0  0  0  0  0
   58.4410   32.9580   45.4970 C   0  0  0  0  0  0  0  0  0  0  0  0
   58.4460   32.7990   46.8910 C   0  0  0  0  0  0  0  0  0  0  0  0
   59.0450   33.7670   47.7050 C   0  0  0  0  0  0  0  0  0  0  0  0
   59.6430   34.8930   47.1300 C   0  0  0  0  0  0  0  0  0  0  0  0
   59.6420   35.0500   45.7410 C   0  0  0  0  0  0  0  0  0  0  0  0
   59.0450   34.0860   44.9270 C   0  0  0  0  0  0  0  0  0  0  0  0
   56.7610   27.6130   46.0440 N   0  0  0  0  0  0  0  0  0  0  0  0
   57.1840   26.2560   45.8580 C   0  0  0  0  0  0  0  0  0  0  0  0
   56.2090   25.2790   45.6250 C   0  0  0  0  0  0  0  0  0  0  0  0
   56.5760   23.9430   45.4480 C   0  0  0  0  0  0  0  0  0  0  0  0
   57.9230   23.5770   45.4890 C   0  0  0  0  0  0  0  0  0  0  0  0
   58.9070   24.5490   45.6820 C   0  0  0  0  0  0  0  0  0  0  0  0
   58.5500   25.8940   45.8430 C   0  0  0  0  0  0  0  0  0  0  0  0
   59.8600   27.1250   45.9770 S   0  0  0  0  0  0  0  0  0  0  0  0
   59.6250   27.4260   47.7640 C   0  0  0  0  0  0  0  0  0  0  0  0
   59.5900   28.8940   48.0550 C   0  0  0  0  0  0  0  0  0  0  0  0
   60.2460   29.6820   47.3220 O   0  0  0  0  0  0  0  0  0  0  0  0
   58.8380   29.3960   49.1700 N   0  0  0  0  0  0  0  0  0  0  0  0
   58.9400   30.7820   49.6260 C   0  0  0  0  0  0  0  0  0  0  0  0
   58.0640   31.0150   50.8190 C   0  0  0  0  0  0  0  0  0  0  0  0
   57.9140   32.2200   51.4760 C   0  0  0  0  0  0  0  0  0  0  0  0
   57.0430   31.9690   52.5120 C   0  0  0  0  0  0  0  0  0  0  0  0
   56.7200   30.6290   52.4240 C   0  0  0  0  0  0  0  0  0  0  0  0
   57.3490   30.0860   51.4080 O   0  0  0  0  0  0  0  0  0  0  0  0
   58.4348   28.1493   43.9969 H   0  0  0  0  0  0  0  0  0  0  0  0
   57.3377   29.3204   43.1498 H   0  0  0  0  0  0  0  0  0  0  0  0
   58.6611   30.0202   45.7877 H   0  0  0  0  0  0  0  0  0  0  0  0
   59.5076   30.2324   44.1935 H   0  0  0  0  0  0  0  0  0  0  0  0
   57.9786   31.9125   47.3446 H   0  0  0  0  0  0  0  0  0  0  0  0
   59.0455   33.6422   48.7979 H   0  0  0  0  0  0  0  0  0  0  0  0
   60.1135   35.6540   47.7699 H   0  0  0  0  0  0  0  0  0  0  0  0
   60.1127   35.9352   45.2884 H   0  0  0  0  0  0  0  0  0  0  0  0
   59.0488   34.2125   43.8343 H   0  0  0  0  0  0  0  0  0  0  0  0
   55.1477   25.5650   45.5810 H   0  0  0  0  0  0  0  0  0  0  0  0
   55.8036   23.1788   45.2762 H   0  0  0  0  0  0  0  0  0  0  0  0
   58.2094   22.5217   45.3691 H   0  0  0  0  0  0  0  0  0  0  0  0
   59.9673   24.2571   45.7077 H   0  0  0  0  0  0  0  0  0  0  0  0
   58.6757   26.9719   48.0846 H   0  0  0  0  0  0  0  0  0  0  0  0
   60.4675   26.9778   48.3111 H   0  0  0  0  0  0  0  0  0  0  0  0
   58.2660   28.7290   49.7380 H   0  0  0  0  0  0  0  0  0  0  0  0
   59.9841   30.9964   49.8978 H   0  0  0  0  0  0  0  0  0  0  0  0
   58.6122   31.4460   48.8126 H   0  0  0  0  0  0  0  0  0  0  0  0
   58.3904   33.1791   51.2245 H   0  0  0  0  0  0  0  0  0  0  0  0
   56.6781   32.6896   53.2587 H   0  0  0  0  0  0  0  0  0  0  0  0
   56.0380   30.0968   53.1034 H   0  0  0  0  0  0  0  0  0  0  0  0
  1  2  2  0
  2  3  1  0
  3  4  1  0
  4  5  1  0
  5  6  2  0
  5  7  2  0
  5  8  1  0
  8  9  2  0
  9 10  1  0
 10 11  2  0
 11 12  1  0
 12 13  2  0
  2 14  1  0
 14 15  1  0
 15 16  2  0
 16 17  1  0
 17 18  2  0
 18 19  1  0
 19 20  2  0
 20 21  1  0
 21 22  1  0
 22 23  1  0
 23 24  2  0
 23 25  1  0
 25 26  1  0
 26 27  1  0
 27 28  2  0
 28 29  1  0
 29 30  2  0
 30 31  1  0
 13  8  1  0
 20 15  1  0
 31 27  1  0
  3 32  1  0
  3 33  1  0
  4 34  1  0
  4 35  1  0
  9 36  1  0
 10 37  1  0
 11 38  1  0
 12 39  1  0
 13 40  1  0
 16 41  1  0
 17 42  1  0
 18 43  1  0
 19 44  1  0
 22 45  1  0
 22 46  1  0
 25 47  1  0
 26 48  1  0
 26 49  1  0
 28 50  1  0
 29 51  1  0
 30 52  1  0
M  CHG  1  14  -1
M  END
>  <UniqueID>  (35) 
35

>  <SMILES>  (35) 
O=C(CCS(=O)(=O)c1ccccc1)[N-]c1ccccc1SCC(=O)NCc1ccco1

>  <Energy>  (35) 
72.58091182156855

>  <Genealogy>  (35) 
O=C(CCS(=O)(=O)c1ccccc1)[N-]c1ccccc1SCC(=O)NCc1ccco1 (protonated)
O=C(CCS(=O)(=O)c1ccccc1)[N-]c1ccccc1SCC(=O)NCc1ccco1 (3D coordinates assigned)
O=C(CCS(=O)(=O)c1ccccc1)[N-]c1ccccc1SCC(=O)NCc1ccco1 (optimized conformer: 72.58091182156855 kcal/mol)

>  <smiles>  (35) 
O=C(CSc1ccccc1NC(=O)CCS(=O)(=O)c1ccccc1)NCc1ccco1

>  <score_type>  (35) 
oracle

>  <origin>  (35) 
adg

>  <m_score__min__energy>  (35) 
-10.890000000000001

>  <m_primary>  (35) 
energy

$$$$
35:0
     RDKit          3D

 66 69  0  0  0  0  0  0  0  0999 V2000
   57.8120   25.9260   47.2410 C   0  0  0  0  0  0  0  0  0  0  0  0
   57.6630   25.9000   45.9070 C   0  0  0  0  0  0  0  0  0  0  0  0
   57.0890   24.8790   45.1320 C   0  0  0  0  0  0  0  0  0  0  0  0
   56.3720   23.7960   45.4910 C   0  0  0  0  0  0  0  0  0  0  0  0
   54.9040   23.7240   45.5530 C   0  0  0  0  0  0  0  0  0  0  0  0
   54.2100   22.5850   45.3810 N   0  0  0  0  0  0  0  0  0  0  0  0
   52.9230   22.9980   45.3920 C   0  0  0  0  0  0  0  0  0  0  0  0
   51.9560   22.2040   45.2710 O   0  0  0  0  0  0  0  0  0  0  0  0
   52.7560   24.3300   45.5310 N   0  0  0  0  0  0  0  0  0  0  0  0
   54.0210   24.7790   45.6130 C   0  0  0  0  0  0  0  0  0  0  0  0
   54.3630   26.1240   45.7160 O   0  0  0  0  0  0  0  0  0  0  0  0
   57.3700   25.1900   43.8100 C   0  0  0  0  0  0  0  0  0  0  0  0
   58.0290   26.4020   43.8170 C   0  0  0  0  0  0  0  0  0  0  0  0
   58.4810   27.1440   42.5970 C   0  0  0  0  0  0  0  0  0  0  0  0
   58.1960   26.8360   45.0850 N   0  0  0  0  0  0  0  0  0  0  0  0
   58.8430   28.0610   45.4690 C   0  0  0  0  0  0  0  0  0  0  0  0
   60.1430   28.0210   45.9880 C   0  0  0  0  0  0  0  0  0  0  0  0
   60.7760   29.1940   46.4010 C   0  0  0  0  0  0  0  0  0  0  0  0
   60.1120   30.4270   46.3080 C   0  0  0  0  0  0  0  0  0  0  0  0
   60.7670   31.6640   46.7890 C   0  0  0  0  0  0  0  0  0  0  0  0
   62.0250   31.7420   46.7470 O   0  0  0  0  0  0  0  0  0  0  0  0
   60.0010   32.7750   47.3010 N   0  0  0  0  0  0  0  0  0  0  0  0
   59.5260   33.7820   46.3440 C   0  0  0  0  0  0  0  0  0  0  0  0
   59.8730   32.9820   48.7610 C   0  0  1  0  0  0  0  0  0  0  0  0
   58.5990   32.3100   49.2860 C   0  0  0  0  0  0  0  0  0  0  0  0
   61.1320   32.4800   49.5120 C   0  0  0  0  0  0  0  0  0  0  0  0
   62.3620   33.1650   49.0470 N   0  0  0  0  0  0  0  0  0  0  0  0
   62.5610   34.4560   49.7480 C   0  0  0  0  0  0  0  0  0  0  0  0
   63.5030   34.3050   50.9570 C   0  0  0  0  0  0  0  0  0  0  0  0
   64.8000   33.8240   50.6240 O   0  0  0  0  0  0  0  0  0  0  0  0
   64.8410   33.0870   49.4110 C   0  0  0  0  0  0  0  0  0  0  0  0
   63.5550   32.2850   49.1460 C   0  0  0  0  0  0  0  0  0  0  0  0
   58.8260   30.4740   45.7490 C   0  0  0  0  0  0  0  0  0  0  0  0
   58.1820   29.2980   45.3290 C   0  0  0  0  0  0  0  0  0  0  0  0
   56.7870   29.3710   44.7710 C   0  0  0  0  0  0  0  0  0  0  0  0
   58.2824   26.7946   47.7251 H   0  0  0  0  0  0  0  0  0  0  0  0
   57.4637   25.0787   47.8499 H   0  0  0  0  0  0  0  0  0  0  0  0
   56.9321   22.8885   45.7607 H   0  0  0  0  0  0  0  0  0  0  0  0
   54.3720   26.7180   44.8960 H   0  0  0  0  0  0  0  0  0  0  0  0
   57.1163   24.5865   42.9260 H   0  0  0  0  0  0  0  0  0  0  0  0
   59.0311   28.0471   42.8999 H   0  0  0  0  0  0  0  0  0  0  0  0
   59.1389   26.4977   41.9975 H   0  0  0  0  0  0  0  0  0  0  0  0
   57.6049   27.4322   41.9975 H   0  0  0  0  0  0  0  0  0  0  0  0
   60.6688   27.0583   46.0707 H   0  0  0  0  0  0  0  0  0  0  0  0
   61.7998   29.1521   46.8012 H   0  0  0  0  0  0  0  0  0  0  0  0
   59.1190   34.6449   46.8915 H   0  0  0  0  0  0  0  0  0  0  0  0
   60.3639   34.1110   45.7117 H   0  0  0  0  0  0  0  0  0  0  0  0
   58.7393   33.3446   45.7117 H   0  0  0  0  0  0  0  0  0  0  0  0
   59.7916   34.0623   48.9517 H   0  0  0  0  0  0  0  0  0  0  0  0
   58.6084   32.3150   50.3859 H   0  0  0  0  0  0  0  0  0  0  0  0
   57.7182   32.8608   48.9244 H   0  0  0  0  0  0  0  0  0  0  0  0
   58.5563   31.2720   48.9244 H   0  0  0  0  0  0  0  0  0  0  0  0
   61.0040   32.6702   50.5878 H   0  0  0  0  0  0  0  0  0  0  0  0
   61.2434   31.4044   49.3104 H   0  0  0  0  0  0  0  0  0  0  0  0
   62.9964   35.1809   49.0445 H   0  0  0  0  0  0  0  0  0  0  0  0
   61.5836   34.8029   50.1145 H   0  0  0  0  0  0  0  0  0  0  0  0
   63.6116   35.2893   51.4358 H   0  0  0  0  0  0  0  0  0  0  0  0
   63.0479   33.5575   51.6234 H   0  0  0  0  0  0  0  0  0  0  0  0
   64.9919   33.7907   48.5791 H   0  0  0  0  0  0  0  0  0  0  0  0
   65.6659   32.3641   49.4951 H   0  0  0  0  0  0  0  0  0  0  0  0
   63.6688   31.7330   48.2013 H   0  0  0  0  0  0  0  0  0  0  0  0
   63.4020   31.5982   49.9915 H   0  0  0  0  0  0  0  0  0  0  0  0
   58.3162   31.4424   45.6383 H   0  0  0  0  0  0  0  0  0  0  0  0
   56.0628   29.4089   45.5981 H   0  0  0  0  0  0  0  0  0  0  0  0
   56.6860   30.2757   44.1534 H   0  0  0  0  0  0  0  0  0  0  0  0
   56.5921   28.4818   44.1534 H   0  0  0  0  0  0  0  0  0  0  0  0
  1  2  2  0
  2  3  1  0
  3  4  2  3
  4  5  1  0
  5  6  1  0
  6  7  1  0
  7  8  2  0
  7  9  1  0
  9 10  1  0
 10 11  1  0
  3 12  1  0
 12 13  2  0
 13 14  1  0
 13 15  1  0
 15 16  1  0
 16 17  2  0
 17 18  1  0
 18 19  2  0
 19 20  1  0
 20 21  2  0
 20 22  1  0
 22 23  1  0
 22 24  1  0
 24 25  1  0
 24 26  1  0
 26 27  1  0
 27 28  1  0
 28 29  1  0
 29 30  1  0
 30 31  1  0
 31 32  1  0
 19 33  1  0
 33 34  2  0
 34 35  1  0
 15  2  1  0
 34 16  1  0
 10  5  2  0
 32 27  1  0
  1 36  1  0
  1 37  1  0
  4 38  1  0
 11 39  1  0
 12 40  1  0
 14 41  1  0
 14 42  1  0
 14 43  1  0
 17 44  1  0
 18 45  1  0
 23 46  1  0
 23 47  1  0
 23 48  1  0
 24 49  1  6
 25 50  1  0
 25 51  1  0
 25 52  1  0
 26 53  1  0
 26 54  1  0
 28 55  1  0
 28 56  1  0
 29 57  1  0
 29 58  1  0
 31 59  1  0
 31 60  1  0
 32 61  1  0
 32 62  1  0
 33 63  1  0
 35 64  1  0
 35 65  1  0
 35 66  1  0
M  CHG  2   6  -1   9  -1
M  END
>  <UniqueID>  (36) 
36

>  <SMILES>  (36) 
C=c1c(=Cc2[n-]c(=O)[n-]c2O)cc(C)n1-c1ccc(C(=O)N(C)[C@@H](C)CN2CCOCC2)cc1C

>  <Energy>  (36) 
157.16050657780335

>  <Genealogy>  (36) 
C=c1c(=Cc2[n-]c(=O)[n-]c2O)cc(C)n1-c1ccc(C(=O)N(C)C(C)CN2CCOCC2)cc1C (protonated)
C=c1c(=Cc2[n-]c(=O)[n-]c2O)cc(C)n1-c1ccc(C(=O)N(C)[C@@H](C)CN2CCOCC2)cc1C (chirality)
C=c1c(=Cc2[n-]c(=O)[n-]c2O)cc(C)n1-c1ccc(C(=O)N(C)[C@@H](C)CN2CCOCC2)cc1C (3D coordinates assigned)
C=c1c(=Cc2[n-]c(=O)[n-]c2O)cc(C)n1-c1ccc(C(=O)N(C)[C@@H](C)CN2CCOCC2)cc1C (nonaromatic ring conformer: 157.16050657780335 kcal/mol)

>  <smiles>  (36) 
C=c1c(=Cc2[nH]c(=O)[nH]c2O)cc(C)n1-c1ccc(C(=O)N(C)C(C)CN2CCOCC2)cc1C

>  <score_type>  (36) 
oracle

>  <origin>  (36) 
adg

>  <m_score__min__energy>  (36) 
-13.76

>  <m_primary>  (36) 
energy

$$$$
36:0
     RDKit          3D

 53 56  0  0  0  0  0  0  0  0999 V2000
   58.6816   30.7311   48.6365 H   0  0  0  0  0  0  0  0  0  0  0  0
   58.5950   30.0280   47.7950 C   0  0  0  0  0  0  0  0  0  0  0  0
   58.7246   28.9489   47.9644 H   0  0  0  0  0  0  0  0  0  0  0  0
   58.3310   30.4870   46.5610 C   0  0  0  0  0  0  0  0  0  0  0  0
   58.1890   29.7300   45.3840 C   0  0  0  0  0  0  0  0  0  0  0  0
   58.3910   28.4200   45.1390 C   0  0  0  0  0  0  0  0  0  0  0  0
   59.2863   28.1500   44.5597 H   0  0  0  0  0  0  0  0  0  0  0  0
   57.5160   27.3160   45.5800 C   0  0  0  0  0  0  0  0  0  0  0  0
   56.1200   27.4670   45.6190 C   0  0  0  0  0  0  0  0  0  0  0  0
   55.5210   28.6510   45.2050 O   0  0  0  0  0  0  0  0  0  0  0  0
   55.3420   26.4480   46.0700 N   0  0  0  0  0  0  0  0  0  0  0  0
   55.8920   25.2850   46.5030 C   0  0  0  0  0  0  0  0  0  0  0  0
   55.1530   24.3540   46.9120 O   0  0  0  0  0  0  0  0  0  0  0  0
   57.2410   25.1270   46.4990 N   0  0  0  0  0  0  0  0  0  0  0  0
   58.0620   26.1150   46.0570 C   0  0  0  0  0  0  0  0  0  0  0  0
   59.3090   25.9380   46.0750 O   0  0  0  0  0  0  0  0  0  0  0  0
   57.7890   30.6170   44.4000 C   0  0  0  0  0  0  0  0  0  0  0  0
   57.5559   30.3714   43.3534 H   0  0  0  0  0  0  0  0  0  0  0  0
   57.7380   31.8670   44.9800 C   0  0  0  0  0  0  0  0  0  0  0  0
   57.4040   33.1270   44.2400 C   0  0  0  0  0  0  0  0  0  0  0  0
   57.1911   33.9301   44.9609 H   0  0  0  0  0  0  0  0  0  0  0  0
   58.2561   33.4179   43.6080 H   0  0  0  0  0  0  0  0  0  0  0  0
   56.5197   32.9576   43.6080 H   0  0  0  0  0  0  0  0  0  0  0  0
   58.0730   31.7950   46.2900 N   0  0  0  0  0  0  0  0  0  0  0  0
   58.0850   32.9200   47.2400 C   0  0  0  0  0  0  0  0  0  0  0  0
   57.8039   33.8415   46.7091 H   0  0  0  0  0  0  0  0  0  0  0  0
   57.3683   32.7041   48.0460 H   0  0  0  0  0  0  0  0  0  0  0  0
   59.4530   33.1010   47.8510 C   0  0  0  0  0  0  0  0  0  0  0  0
   60.6020   33.0220   47.0480 C   0  0  0  0  0  0  0  0  0  0  0  0
   60.5033   32.8195   45.9713 H   0  0  0  0  0  0  0  0  0  0  0  0
   61.8710   33.1990   47.6080 C   0  0  0  0  0  0  0  0  0  0  0  0
   62.7648   33.1208   46.9716 H   0  0  0  0  0  0  0  0  0  0  0  0
   62.0120   33.4760   48.9780 C   0  0  0  0  0  0  0  0  0  0  0  0
   63.3210   33.6430   49.5580 N   0  0  0  0  0  0  0  0  0  0  0  0
   63.4950   34.3390   50.8400 C   0  0  0  0  0  0  0  0  0  0  0  0
   64.0907   35.2496   50.6792 H   0  0  0  0  0  0  0  0  0  0  0  0
   62.5039   34.5988   51.2402 H   0  0  0  0  0  0  0  0  0  0  0  0
   64.2170   33.4350   51.8520 C   0  0  0  0  0  0  0  0  0  0  0  0
   64.7141   34.0734   52.5972 H   0  0  0  0  0  0  0  0  0  0  0  0
   63.4562   32.7823   52.3049 H   0  0  0  0  0  0  0  0  0  0  0  0
   65.2800   32.5170   51.2060 C   0  0  0  0  0  0  0  0  0  0  0  0
   64.8211   31.5253   51.0798 H   0  0  0  0  0  0  0  0  0  0  0  0
   66.3890   32.4330   52.0300 F   0  0  0  0  0  0  0  0  0  0  0  0
   65.7120   33.0090   49.8170 C   0  0  0  0  0  0  0  0  0  0  0  0
   66.1605   34.0092   49.9093 H   0  0  0  0  0  0  0  0  0  0  0  0
   66.4465   32.3045   49.3996 H   0  0  0  0  0  0  0  0  0  0  0  0
   64.4990   33.0820   48.8780 C   0  0  0  0  0  0  0  0  0  0  0  0
   64.7515   33.7189   48.0174 H   0  0  0  0  0  0  0  0  0  0  0  0
   64.2541   32.0604   48.5520 H   0  0  0  0  0  0  0  0  0  0  0  0
   60.8610   33.5630   49.7790 C   0  0  0  0  0  0  0  0  0  0  0  0
   60.9583   33.7735   50.8543 H   0  0  0  0  0  0  0  0  0  0  0  0
   59.5940   33.3840   49.2190 C   0  0  0  0  0  0  0  0  0  0  0  0
   58.6999   33.4654   49.8545 H   0  0  0  0  0  0  0  0  0  0  0  0
  1  2  1  0
  2  3  1  0
  2  4  2  0
  4  5  1  0
  5  6  2  0
  6  7  1  0
  6  8  1  0
  8  9  2  0
  9 10  1  0
  9 11  1  0
 11 12  1  0
 12 13  2  0
 12 14  1  0
 14 15  1  0
 15 16  2  0
  5 17  1  0
 17 18  1  0
 17 19  2  0
 19 20  1  0
 20 21  1  0
 20 22  1  0
 20 23  1  0
 19 24  1  0
 24 25  1  0
 25 26  1  0
 25 27  1  0
 25 28  1  0
 28 29  2  0
 29 30  1  0
 29 31  1  0
 31 32  1  0
 31 33  2  0
 33 34  1  0
 34 35  1  0
 35 36  1  0
 35 37  1  0
 35 38  1  0
 38 39  1  0
 38 40  1  0
 38 41  1  0
 41 42  1  0
 41 43  1  0
 41 44  1  0
 44 45  1  0
 44 46  1  0
 44 47  1  0
 47 48  1  0
 47 49  1  0
 33 50  1  0
 50 51  1  0
 50 52  2  0
 52 53  1  0
 24  4  1  0
 52 28  1  0
 15  8  1  0
 47 34  1  0
M  CHG  3  10  -1  11  -1  14  -1
M  END
>  <UniqueID>  (37) 
37

>  <SMILES>  (37) 
C=c1/c(=C\c2c([O-])[n-]c(=O)[n-]c2=O)cc(C)n1Cc1ccc(N2CCC(F)CC2)cc1

>  <Energy>  (37) 
103.75478587961643

>  <Genealogy>  (37) 
C=c1c(=Cc2c([O-])[n-]c(=O)[n-]c2=O)cc(C)n1Cc1ccc(N2CCC(F)CC2)cc1 (protonated)
C=c1/c(=C\c2c([O-])[n-]c(=O)[n-]c2=O)cc(C)n1Cc1ccc(N2CCC(F)CC2)cc1 (cis-trans isomerization)
C=c1/c(=C\c2c([O-])[n-]c(=O)[n-]c2=O)cc(C)n1Cc1ccc(N2CCC(F)CC2)cc1 (3D coordinates assigned)
C=c1/c(=C\c2c([O-])[n-]c(=O)[n-]c2=O)cc(C)n1Cc1ccc(N2CCC(F)CC2)cc1 (nonaromatic ring conformer: 103.75478587961643 kcal/mol)

>  <smiles>  (37) 
C=c1c(=Cc2c(O)[nH]c(=O)[nH]c2=O)cc(C)n1Cc1ccc(N2CCC(F)CC2)cc1

>  <score_type>  (37) 
oracle

>  <origin>  (37) 
adg

>  <m_score__min__energy>  (37) 
-16.239999999999998

>  <m_primary>  (37) 
energy

$$$$
37:0
     RDKit          3D

 50 53  0  0  0  0  0  0  0  0999 V2000
   57.7400   32.6260   40.7390 C   0  0  0  0  0  0  0  0  0  0  0  0
   57.3920   31.8760   41.9860 C   0  0  0  0  0  0  0  0  0  0  0  0
   57.8680   32.3100   43.2300 C   0  0  0  0  0  0  0  0  0  0  0  0
   57.5560   31.5810   44.3910 C   0  0  0  0  0  0  0  0  0  0  0  0
   58.0460   32.0370   45.7150 C   0  0  0  0  0  0  0  0  0  0  0  0
   57.3050   32.7610   46.4340 O   0  0  0  0  0  0  0  0  0  0  0  0
   59.3700   31.7060   46.1660 N   0  0  0  0  0  0  0  0  0  0  0  0
   59.7770   31.7410   47.5450 C   0  0  0  0  0  0  0  0  0  0  0  0
   60.2780   32.9170   48.1280 C   0  0  0  0  0  0  0  0  0  0  0  0
   60.6440   32.9340   49.4750 C   0  0  0  0  0  0  0  0  0  0  0  0
   60.5050   31.7850   50.2570 C   0  0  0  0  0  0  0  0  0  0  0  0
   59.9860   30.6030   49.7000 C   0  0  0  0  0  0  0  0  0  0  0  0
   59.8260   29.3840   50.5290 C   0  0  0  0  0  0  0  0  0  0  0  0
   60.1780   28.2640   50.0680 O   0  0  0  0  0  0  0  0  0  0  0  0
   59.2700   29.4890   51.8520 N   0  0  0  0  0  0  0  0  0  0  0  0
   58.0130   29.6200   52.1690 C   0  0  0  0  0  0  0  0  0  0  0  0
   57.2550   30.6230   51.5540 C   0  0  0  0  0  0  0  0  0  0  0  0
   55.9070   30.7690   51.8860 C   0  0  0  0  0  0  0  0  0  0  0  0
   55.3160   29.9010   52.8160 C   0  0  0  0  0  0  0  0  0  0  0  0
   53.9430   30.0330   53.2090 N   0  0  0  0  0  0  0  0  0  0  0  0
   52.8370   30.2960   52.3350 C   0  0  0  0  0  0  0  0  0  0  0  0
   52.7420   29.6420   51.2640 O   0  0  0  0  0  0  0  0  0  0  0  0
   51.8550   31.3590   52.6240 C   0  0  0  0  0  0  0  0  0  0  0  0
   50.9210   31.3230   53.6460 C   0  0  0  0  0  0  0  0  0  0  0  0
   50.1910   32.4860   53.5420 C   0  0  0  0  0  0  0  0  0  0  0  0
   50.7160   33.1590   52.4610 C   0  0  0  0  0  0  0  0  0  0  0  0
   50.2650   34.3890   52.0020 O   0  0  0  0  0  0  0  0  0  0  0  0
   51.7280   32.4830   51.8880 N   0  0  0  0  0  0  0  0  0  0  0  0
   56.1120   28.9280   53.4280 C   0  0  0  0  0  0  0  0  0  0  0  0
   57.4230   28.8050   53.0900 N   0  0  0  0  0  0  0  0  0  0  0  0
   59.6190   30.5960   48.3400 C   0  0  0  0  0  0  0  0  0  0  0  0
   56.7580   30.4310   44.2710 C   0  0  0  0  0  0  0  0  0  0  0  0
   56.3090   30.0280   43.0110 C   0  0  0  0  0  0  0  0  0  0  0  0
   56.6350   30.7490   41.9070 N   0  0  0  0  0  0  0  0  0  0  0  0
   58.1891   33.5939   41.0065 H   0  0  0  0  0  0  0  0  0  0  0  0
   58.4581   32.0397   40.1469 H   0  0  0  0  0  0  0  0  0  0  0  0
   56.8287   32.7958   40.1469 H   0  0  0  0  0  0  0  0  0  0  0  0
   58.4842   33.2187   43.2983 H   0  0  0  0  0  0  0  0  0  0  0  0
   60.1070   31.5380   45.4430 H   0  0  0  0  0  0  0  0  0  0  0  0
   60.3823   33.8281   47.5205 H   0  0  0  0  0  0  0  0  0  0  0  0
   61.0435   33.8561   49.9224 H   0  0  0  0  0  0  0  0  0  0  0  0
   60.8035   31.8051   51.3155 H   0  0  0  0  0  0  0  0  0  0  0  0
   57.7184   31.2919   50.8139 H   0  0  0  0  0  0  0  0  0  0  0  0
   55.3083   31.5646   51.4184 H   0  0  0  0  0  0  0  0  0  0  0  0
   50.7888   30.5251   54.3916 H   0  0  0  0  0  0  0  0  0  0  0  0
   49.3615   32.8100   54.1877 H   0  0  0  0  0  0  0  0  0  0  0  0
   55.6761   28.2599   54.1854 H   0  0  0  0  0  0  0  0  0  0  0  0
   59.2028   29.6801   47.8952 H   0  0  0  0  0  0  0  0  0  0  0  0
   56.4879   29.8504   45.1654 H   0  0  0  0  0  0  0  0  0  0  0  0
   55.6897   29.1242   42.9127 H   0  0  0  0  0  0  0  0  0  0  0  0
  1  2  1  0
  2  3  2  0
  3  4  1  0
  4  5  1  0
  5  6  2  0
  5  7  1  0
  7  8  1  0
  8  9  2  0
  9 10  1  0
 10 11  2  0
 11 12  1  0
 12 13  1  0
 13 14  2  0
 13 15  1  0
 15 16  2  3
 16 17  1  0
 17 18  2  0
 18 19  1  0
 19 20  1  0
 20 21  1  0
 21 22  2  0
 21 23  1  0
 23 24  2  0
 24 25  1  0
 25 26  2  0
 26 27  1  0
 26 28  1  0
 19 29  2  0
 29 30  1  0
 12 31  2  0
  4 32  2  0
 32 33  1  0
 33 34  2  0
 34  2  1  0
 31  8  1  0
 30 16  1  0
 28 23  1  0
  1 35  1  0
  1 36  1  0
  1 37  1  0
  3 38  1  0
  7 39  1  0
  9 40  1  0
 10 41  1  0
 11 42  1  0
 17 43  1  0
 18 44  1  0
 24 45  1  0
 25 46  1  0
 29 47  1  0
 31 48  1  0
 32 49  1  0
 33 50  1  0
M  CHG  4  20  -1  27  -1  28  -1  30  -1
M  END
>  <UniqueID>  (38) 
38

>  <SMILES>  (38) 
Cc1cc(C(=O)Nc2cccc(C(=O)N=c3ccc([N-]C(=O)c4ccc([O-])[n-]4)c[n-]3)c2)ccn1

>  <Energy>  (38) 
94.10917865113346

>  <Genealogy>  (38) 
Cc1cc(C(=O)Nc2cccc(C(=O)N=c3ccc([N-]C(=O)c4ccc([O-])[n-]4)c[n-]3)c2)ccn1 (protonated)
Cc1cc(C(=O)Nc2cccc(C(=O)N=c3ccc([N-]C(=O)c4ccc([O-])[n-]4)c[n-]3)c2)ccn1 (3D coordinates assigned)
Cc1cc(C(=O)Nc2cccc(C(=O)N=c3ccc([N-]C(=O)c4ccc([O-])[n-]4)c[n-]3)c2)ccn1 (optimized conformer: 94.10917865113346 kcal/mol)

>  <smiles>  (38) 
Cc1cc(C(=O)Nc2cccc(C(=O)N=c3ccc(NC(=O)c4ccc(O)[nH]4)c[nH]3)c2)ccn1

>  <score_type>  (38) 
oracle

>  <origin>  (38) 
adg

>  <m_score__min__energy>  (38) 
-17.469999999999999

>  <m_primary>  (38) 
energy

$$$$
38:0
     RDKit          3D

 50 52  0  0  0  0  0  0  0  0999 V2000
   56.3040   22.0520   43.9530 C   0  0  0  0  0  0  0  0  0  0  0  0
   55.5340   23.7040   43.8940 S   0  0  0  0  0  0  0  0  0  0  0  0
   54.5170   23.5010   45.4040 C   0  0  0  0  0  0  0  0  0  0  0  0
   55.1970   24.0810   46.6510 C   0  0  0  0  0  0  0  0  0  0  0  0
   56.6050   24.4590   46.3940 N   0  0  0  0  0  0  0  0  0  0  0  0
   56.9560   25.7130   45.9280 C   0  0  0  0  0  0  0  0  0  0  0  0
   55.9770   26.7600   45.7770 N   0  0  0  0  0  0  0  0  0  0  0  0
   58.3090   25.9920   45.6250 C   0  0  0  0  0  0  0  0  0  0  0  0
   58.7140   27.2580   45.0660 N   0  0  0  0  0  0  0  0  0  0  0  0
   59.8720   27.9450   45.6550 C   0  0  0  0  0  0  0  0  0  0  0  0
   59.4440   28.7670   46.8410 C   0  0  0  0  0  0  0  0  0  0  0  0
   59.2790   30.1560   46.7130 C   0  0  0  0  0  0  0  0  0  0  0  0
   58.9390   30.9300   47.8270 C   0  0  0  0  0  0  0  0  0  0  0  0
   58.7670   30.3250   49.0740 C   0  0  0  0  0  0  0  0  0  0  0  0
   58.9320   28.9450   49.2100 C   0  0  0  0  0  0  0  0  0  0  0  0
   59.2730   28.1660   48.0990 C   0  0  0  0  0  0  0  0  0  0  0  0
   57.9110   27.9060   44.0520 C   0  0  0  0  0  0  0  0  0  0  0  0
   57.4440   27.2310   43.0950 O   0  0  0  0  0  0  0  0  0  0  0  0
   57.6420   29.3600   44.0870 C   0  0  0  0  0  0  0  0  0  0  0  0
   58.6540   30.2760   43.7540 C   0  0  0  0  0  0  0  0  0  0  0  0
   58.4000   31.6500   43.7780 C   0  0  0  0  0  0  0  0  0  0  0  0
   57.1390   32.1220   44.1440 C   0  0  0  0  0  0  0  0  0  0  0  0
   56.1290   31.2220   44.4910 C   0  0  0  0  0  0  0  0  0  0  0  0
   56.3750   29.8450   44.4660 C   0  0  0  0  0  0  0  0  0  0  0  0
   55.3500   28.9650   44.8040 O   0  0  0  0  0  0  0  0  0  0  0  0
   59.2650   25.0040   45.8690 C   0  0  0  0  0  0  0  0  0  0  0  0
   60.4830   25.2160   45.6280 O   0  0  0  0  0  0  0  0  0  0  0  0
   58.8840   23.8010   46.3510 N   0  0  0  0  0  0  0  0  0  0  0  0
   57.5840   23.5160   46.6040 C   0  0  0  0  0  0  0  0  0  0  0  0
   57.2940   22.3670   47.0370 O   0  0  0  0  0  0  0  0  0  0  0  0
   56.4446   21.7503   45.0014 H   0  0  0  0  0  0  0  0  0  0  0  0
   55.6519   21.3252   43.4466 H   0  0  0  0  0  0  0  0  0  0  0  0
   57.2800   22.0841   43.4466 H   0  0  0  0  0  0  0  0  0  0  0  0
   53.5563   24.0154   45.2543 H   0  0  0  0  0  0  0  0  0  0  0  0
   54.3761   22.4228   45.5704 H   0  0  0  0  0  0  0  0  0  0  0  0
   54.6431   24.9751   46.9733 H   0  0  0  0  0  0  0  0  0  0  0  0
   55.1921   23.3051   47.4307 H   0  0  0  0  0  0  0  0  0  0  0  0
   55.8480   27.2640   44.8730 H   0  0  0  0  0  0  0  0  0  0  0  0
   55.4520   27.1700   46.5760 H   0  0  0  0  0  0  0  0  0  0  0  0
   60.6111   27.1976   45.9792 H   0  0  0  0  0  0  0  0  0  0  0  0
   60.3155   28.6105   44.8997 H   0  0  0  0  0  0  0  0  0  0  0  0
   59.4177   30.6365   45.7333 H   0  0  0  0  0  0  0  0  0  0  0  0
   58.8068   32.0169   47.7210 H   0  0  0  0  0  0  0  0  0  0  0  0
   58.5014   30.9358   49.9494 H   0  0  0  0  0  0  0  0  0  0  0  0
   58.7936   28.4696   50.1923 H   0  0  0  0  0  0  0  0  0  0  0  0
   59.4075   27.0800   48.2110 H   0  0  0  0  0  0  0  0  0  0  0  0
   59.6522   29.9094   43.4727 H   0  0  0  0  0  0  0  0  0  0  0  0
   59.1953   32.3604   43.5080 H   0  0  0  0  0  0  0  0  0  0  0  0
   56.9402   33.2038   44.1592 H   0  0  0  0  0  0  0  0  0  0  0  0
   55.1374   31.5968   44.7848 H   0  0  0  0  0  0  0  0  0  0  0  0
  1  2  1  0
  2  3  1  0
  3  4  1  0
  4  5  1  0
  5  6  1  0
  6  7  1  0
  6  8  2  0
  8  9  1  0
  9 10  1  0
 10 11  1  0
 11 12  2  0
 12 13  1  0
 13 14  2  0
 14 15  1  0
 15 16  2  0
  9 17  1  0
 17 18  2  0
 17 19  1  0
 19 20  2  0
 20 21  1  0
 21 22  2  0
 22 23  1  0
 23 24  2  0
 24 25  1  0
  8 26  1  0
 26 27  2  0
 26 28  1  0
 28 29  1  0
 29 30  2  0
 29  5  1  0
 16 11  1  0
 24 19  1  0
  1 31  1  0
  1 32  1  0
  1 33  1  0
  3 34  1  0
  3 35  1  0
  4 36  1  0
  4 37  1  0
  7 38  1  0
  7 39  1  0
 10 40  1  0
 10 41  1  0
 12 42  1  0
 13 43  1  0
 14 44  1  0
 15 45  1  0
 16 46  1  0
 20 47  1  0
 21 48  1  0
 22 49  1  0
 23 50  1  0
M  CHG  2  25  -1  28  -1
M  END
>  <UniqueID>  (39) 
39

>  <SMILES>  (39) 
CSCCn1c(N)c(N(Cc2ccccc2)C(=O)c2ccccc2[O-])c(=O)[n-]c1=O

>  <Energy>  (39) 
63.44860647007488

>  <Genealogy>  (39) 
CSCCn1c(N)c(N(Cc2ccccc2)C(=O)c2ccccc2[O-])c(=O)[n-]c1=O (protonated)
CSCCn1c(N)c(N(Cc2ccccc2)C(=O)c2ccccc2[O-])c(=O)[n-]c1=O (3D coordinates assigned)
CSCCn1c(N)c(N(Cc2ccccc2)C(=O)c2ccccc2[O-])c(=O)[n-]c1=O (optimized conformer: 63.44860647007488 kcal/mol)

>  <smiles>  (39) 
CSCCn1c(N)c(N(Cc2ccccc2)C(=O)c2ccccc2O)c(=O)[nH]c1=O

>  <score_type>  (39) 
oracle

>  <origin>  (39) 
adg

>  <m_score__min__energy>  (39) 
-12.609999999999999

>  <m_primary>  (39) 
energy

$$$$
39:0
     RDKit          3D

 53 56  0  0  0  0  0  0  0  0999 V2000
   55.1540   27.9110   45.9080 H   0  0  0  0  0  0  0  0  0  0  0  0
   55.5910   26.9640   45.8710 N   0  0  0  0  0  0  0  0  0  0  0  0
   56.8770   26.8090   45.8860 C   0  0  0  0  0  0  0  0  0  0  0  0
   57.4120   25.7210   46.5100 N   0  0  0  0  0  0  0  0  0  0  0  0
   58.7540   25.5140   46.5720 C   0  0  0  0  0  0  0  0  0  0  0  0
   59.1494   24.6206   47.0775 H   0  0  0  0  0  0  0  0  0  0  0  0
   59.6290   26.4320   45.9960 C   0  0  0  0  0  0  0  0  0  0  0  0
   60.7161   26.2733   46.0510 H   0  0  0  0  0  0  0  0  0  0  0  0
   59.1130   27.5540   45.3490 C   0  0  0  0  0  0  0  0  0  0  0  0
   59.7965   28.2867   44.8951 H   0  0  0  0  0  0  0  0  0  0  0  0
   57.7280   27.7530   45.2740 C   0  0  0  0  0  0  0  0  0  0  0  0
   57.1250   29.2000   44.4560 S   0  0  0  0  0  0  0  0  0  0  0  0
   56.8760   28.9340   42.9980 O   0  0  0  0  0  0  0  0  0  0  0  0
   55.8450   29.6220   45.1210 O   0  0  0  0  0  0  0  0  0  0  0  0
   58.3120   30.4570   44.5980 N   0  0  0  0  0  0  0  0  0  0  0  0
   58.3050   31.5010   45.5820 C   0  0  0  0  0  0  0  0  0  0  0  0
   57.4790   32.6320   45.4580 C   0  0  0  0  0  0  0  0  0  0  0  0
   56.8392   32.7479   44.5708 H   0  0  0  0  0  0  0  0  0  0  0  0
   57.4670   33.6090   46.4560 C   0  0  0  0  0  0  0  0  0  0  0  0
   56.8183   34.4912   46.3516 H   0  0  0  0  0  0  0  0  0  0  0  0
   58.2750   33.4700   47.5850 C   0  0  0  0  0  0  0  0  0  0  0  0
   58.2493   34.2360   48.3741 H   0  0  0  0  0  0  0  0  0  0  0  0
   59.1210   32.3570   47.7190 C   0  0  0  0  0  0  0  0  0  0  0  0
   59.9760   32.2060   48.9540 C   0  0  0  0  0  0  0  0  0  0  0  0
   60.4042   31.1930   48.9760 H   0  0  0  0  0  0  0  0  0  0  0  0
   60.7792   32.9570   48.9243 H   0  0  0  0  0  0  0  0  0  0  0  0
   59.1560   32.4220   50.1910 C   0  0  0  0  0  0  0  0  0  0  0  0
   59.2360   33.5230   50.9690 N   0  0  0  0  0  0  0  0  0  0  0  0
   58.2720   33.3310   51.8950 C   0  0  0  0  0  0  0  0  0  0  0  0
   58.0210   34.1680   52.8010 O   0  0  0  0  0  0  0  0  0  0  0  0
   57.5990   32.1700   51.7460 N   0  0  0  0  0  0  0  0  0  0  0  0
   56.4460   31.6970   52.5180 C   0  0  0  0  0  0  0  0  0  0  0  0
   56.6291   31.8864   53.5860 H   0  0  0  0  0  0  0  0  0  0  0  0
   55.5534   32.2383   52.1713 H   0  0  0  0  0  0  0  0  0  0  0  0
   56.2130   30.2260   52.3160 C   0  0  0  0  0  0  0  0  0  0  0  0
   57.2060   29.4560   52.2330 O   0  0  0  0  0  0  0  0  0  0  0  0
   54.8790   29.7030   52.2570 N   0  0  0  0  0  0  0  0  0  0  0  0
   53.6630   30.4590   52.1440 C   0  0  0  0  0  0  0  0  0  0  0  0
   53.3150   31.1420   50.9630 C   0  0  0  0  0  0  0  0  0  0  0  0
   53.9647   31.0742   50.0779 H   0  0  0  0  0  0  0  0  0  0  0  0
   52.1440   31.9070   50.9130 C   0  0  0  0  0  0  0  0  0  0  0  0
   51.8663   32.4246   49.9830 H   0  0  0  0  0  0  0  0  0  0  0  0
   51.3270   32.0150   52.0410 C   0  0  0  0  0  0  0  0  0  0  0  0
   50.1690   32.7800   51.9900 O   0  0  0  0  0  0  0  0  0  0  0  0
   51.6800   31.3570   53.2230 C   0  0  0  0  0  0  0  0  0  0  0  0
   51.0407   31.4472   54.1136 H   0  0  0  0  0  0  0  0  0  0  0  0
   52.8450   30.5840   53.2750 C   0  0  0  0  0  0  0  0  0  0  0  0
   53.1203   30.0716   54.2086 H   0  0  0  0  0  0  0  0  0  0  0  0
   58.1590   31.5970   50.6660 C   0  0  0  0  0  0  0  0  0  0  0  0
   57.7690   30.3830   50.1050 O   0  0  0  0  0  0  0  0  0  0  0  0
   57.1750   29.7360   50.6070 H   0  0  0  0  0  0  0  0  0  0  0  0
   59.1400   31.3790   46.7030 C   0  0  0  0  0  0  0  0  0  0  0  0
   59.9840   30.2760   46.8110 O   0  0  0  0  0  0  0  0  0  0  0  0
  1  2  1  0
  2  3  2  0
  3  4  1  0
  4  5  1  0
  5  6  1  0
  5  7  2  0
  7  8  1  0
  7  9  1  0
  9 10  1  0
  9 11  2  0
 11 12  1  0
 12 13  2  0
 12 14  2  0
 12 15  1  0
 15 16  1  0
 16 17  2  0
 17 18  1  0
 17 19  1  0
 19 20  1  0
 19 21  2  0
 21 22  1  0
 21 23  1  0
 23 24  1  0
 24 25  1  0
 24 26  1  0
 24 27  1  0
 27 28  1  0
 28 29  1  0
 29 30  2  0
 29 31  1  0
 31 32  1  0
 32 33  1  0
 32 34  1  0
 32 35  1  0
 35 36  2  0
 35 37  1  0
 37 38  1  0
 38 39  2  0
 39 40  1  0
 39 41  1  0
 41 42  1  0
 41 43  2  0
 43 44  1  0
 43 45  1  0
 45 46  1  0
 45 47  2  0
 47 48  1  0
 31 49  1  0
 49 50  1  0
 50 51  1  0
 23 52  2  0
 52 53  1  0
 11  3  1  0
 52 16  1  0
 49 27  2  0
 47 38  1  0
M  CHG  6   4  -1  15  -1  28  -1  37  -1  44  -1  53  -1
M  END
>  <UniqueID>  (40) 
40

>  <SMILES>  (40) 
[H]/N=c1\[n-]cccc1S(=O)(=O)[N-]c1cccc(Cc2[n-]c(=O)n(CC(=O)[N-]c3ccc([O-])cc3)c2O)c1[O-]

>  <Energy>  (40) 
96.27548457511014

>  <Genealogy>  (40) 
N=c1[n-]cccc1S(=O)(=O)[N-]c1cccc(Cc2[n-]c(=O)n(CC(=O)[N-]c3ccc([O-])cc3)c2O)c1[O-] (protonated)
[H]/N=c1\[n-]cccc1S(=O)(=O)[N-]c1cccc(Cc2[n-]c(=O)n(CC(=O)[N-]c3ccc([O-])cc3)c2O)c1[O-] (cis-trans isomerization)
[H]/N=c1\[n-]cccc1S(=O)(=O)[N-]c1cccc(Cc2[n-]c(=O)n(CC(=O)[N-]c3ccc([O-])cc3)c2O)c1[O-] (3D coordinates assigned)
[H]/N=c1\[n-]cccc1S(=O)(=O)[N-]c1cccc(Cc2[n-]c(=O)n(CC(=O)[N-]c3ccc([O-])cc3)c2O)c1[O-] (optimized conformer: 96.27548457511014 kcal/mol)

>  <smiles>  (40) 
N=c1[nH]cccc1S(=O)(=O)Nc1cccc(Cc2[nH]c(=O)n(CC(=O)Nc3ccc(O)cc3)c2O)c1O

>  <score_type>  (40) 
oracle

>  <origin>  (40) 
adg

>  <m_score__min__energy>  (40) 
-20.27

>  <m_primary>  (40) 
energy

$$$$
40:0
     RDKit          3D

 66 69  0  0  0  0  0  0  0  0999 V2000
   58.2910   30.0050   43.9430 O   0  0  0  0  0  0  0  0  0  0  0  0
   57.2780   30.1270   44.6860 C   0  0  0  0  0  0  0  0  0  0  0  0
   56.3430   28.9730   44.8610 C   0  0  0  0  0  0  0  0  0  0  0  0
   57.0380   27.8340   45.5610 C   0  0  0  0  0  0  0  0  0  0  0  0
   58.4350   27.8660   45.7140 C   0  0  0  0  0  0  0  0  0  0  0  0
   59.0980   26.8240   46.3660 C   0  0  0  0  0  0  0  0  0  0  0  0
   58.3740   25.7460   46.8800 C   0  0  0  0  0  0  0  0  0  0  0  0
   56.9840   25.7130   46.7500 C   0  0  0  0  0  0  0  0  0  0  0  0
   56.3110   26.7540   46.1000 C   0  0  0  0  0  0  0  0  0  0  0  0
   54.9240   26.7060   45.9990 O   0  0  0  0  0  0  0  0  0  0  0  0
   57.0540   31.3370   45.4190 N   0  0  0  0  0  0  0  0  0  0  0  0
   58.0150   32.3880   45.5990 C   0  0  0  0  0  0  0  0  0  0  0  0
   57.8700   33.5890   44.8870 C   0  0  0  0  0  0  0  0  0  0  0  0
   58.7650   34.6390   45.0740 C   0  0  0  0  0  0  0  0  0  0  0  0
   59.8310   34.4960   45.9560 C   0  0  0  0  0  0  0  0  0  0  0  0
   60.0150   33.3050   46.6690 C   0  0  0  0  0  0  0  0  0  0  0  0
   61.2030   33.1790   47.4690 N   0  0  0  0  0  0  0  0  0  0  0  0
   62.2890   32.5000   47.0100 O   0  0  0  0  0  0  0  0  0  0  0  0
   63.2870   33.4570   46.7440 C   0  0  0  0  0  0  0  0  0  0  0  0
   64.1460   33.6520   47.9860 C   0  0  0  0  0  0  0  0  0  0  0  0
   63.2890   33.9410   49.1330 N   0  0  0  0  0  0  0  0  0  0  0  0
   63.9520   33.2310   50.5750 S   0  0  0  0  0  0  0  0  0  0  0  0
   64.7700   32.0130   50.2410 O   0  0  0  0  0  0  0  0  0  0  0  0
   64.8210   34.2370   51.2730 O   0  0  0  0  0  0  0  0  0  0  0  0
   62.6190   32.7280   51.6470 C   0  0  0  0  0  0  0  0  0  0  0  0
   62.0350   31.4110   51.2100 C   0  0  0  0  0  0  0  0  0  0  0  0
   62.0430   31.0450   49.8550 C   0  0  0  0  0  0  0  0  0  0  0  0
   61.4300   29.8580   49.4430 C   0  0  0  0  0  0  0  0  0  0  0  0
   60.8190   29.0220   50.3830 C   0  0  0  0  0  0  0  0  0  0  0  0
   60.8490   29.3560   51.7390 C   0  0  0  0  0  0  0  0  0  0  0  0
   61.4520   30.5470   52.1520 C   0  0  0  0  0  0  0  0  0  0  0  0
   59.0710   32.2460   46.5410 C   0  0  0  0  0  0  0  0  0  0  0  0
   59.1630   31.0320   47.4070 C   0  0  0  0  0  0  0  0  0  0  0  0
   59.8650   30.0480   47.0370 O   0  0  0  0  0  0  0  0  0  0  0  0
   58.5220   30.9930   48.6910 N   0  0  0  0  0  0  0  0  0  0  0  0
   58.6990   31.8480   49.6580 C   0  0  0  0  0  0  0  0  0  0  0  0
   59.4390   32.9780   49.4690 N   0  0  0  0  0  0  0  0  0  0  0  0
   59.6660   33.8660   50.4740 C   0  0  0  0  0  0  0  0  0  0  0  0
   59.1400   33.6330   51.7450 C   0  0  0  0  0  0  0  0  0  0  0  0
   58.3700   32.4900   51.9660 C   0  0  0  0  0  0  0  0  0  0  0  0
   58.1440   31.5910   50.9200 C   0  0  0  0  0  0  0  0  0  0  0  0
   57.3640   30.4600   51.1360 O   0  0  0  0  0  0  0  0  0  0  0  0
   55.4793   29.2944   45.4617 H   0  0  0  0  0  0  0  0  0  0  0  0
   56.0089   28.6316   43.8701 H   0  0  0  0  0  0  0  0  0  0  0  0
   59.0092   28.7165   45.3180 H   0  0  0  0  0  0  0  0  0  0  0  0
   60.1922   26.8524   46.4749 H   0  0  0  0  0  0  0  0  0  0  0  0
   58.8987   24.9229   47.3872 H   0  0  0  0  0  0  0  0  0  0  0  0
   56.4156   24.8653   47.1602 H   0  0  0  0  0  0  0  0  0  0  0  0
   57.0403   33.7018   44.1736 H   0  0  0  0  0  0  0  0  0  0  0  0
   58.6290   35.5819   44.5241 H   0  0  0  0  0  0  0  0  0  0  0  0
   60.5373   35.3278   46.0949 H   0  0  0  0  0  0  0  0  0  0  0  0
   61.2770   33.7080   48.3670 H   0  0  0  0  0  0  0  0  0  0  0  0
   63.9176   33.1081   45.9129 H   0  0  0  0  0  0  0  0  0  0  0  0
   62.8156   34.4124   46.4701 H   0  0  0  0  0  0  0  0  0  0  0  0
   64.7217   32.7352   48.1808 H   0  0  0  0  0  0  0  0  0  0  0  0
   64.8368   34.4927   47.8246 H   0  0  0  0  0  0  0  0  0  0  0  0
   63.0024   32.6274   52.6731 H   0  0  0  0  0  0  0  0  0  0  0  0
   61.8285   33.4915   51.6009 H   0  0  0  0  0  0  0  0  0  0  0  0
   62.5333   31.6943   49.1147 H   0  0  0  0  0  0  0  0  0  0  0  0
   61.4283   29.5813   48.3784 H   0  0  0  0  0  0  0  0  0  0  0  0
   60.3147   28.1013   50.0545 H   0  0  0  0  0  0  0  0  0  0  0  0
   60.3980   28.6815   52.4817 H   0  0  0  0  0  0  0  0  0  0  0  0
   61.4703   30.8094   53.2201 H   0  0  0  0  0  0  0  0  0  0  0  0
   60.2650   34.7689   50.2844 H   0  0  0  0  0  0  0  0  0  0  0  0
   59.3300   34.3423   52.5640 H   0  0  0  0  0  0  0  0  0  0  0  0
   57.9421   32.2973   52.9609 H   0  0  0  0  0  0  0  0  0  0  0  0
  1  2  2  0
  2  3  1  0
  3  4  1  0
  4  5  2  0
  5  6  1  0
  6  7  2  0
  7  8  1  0
  8  9  2  0
  9 10  1  0
  2 11  1  0
 11 12  1  0
 12 13  2  0
 13 14  1  0
 14 15  2  0
 15 16  1  0
 16 17  1  0
 17 18  1  0
 18 19  1  0
 19 20  1  0
 20 21  1  0
 21 22  1  0
 22 23  2  0
 22 24  2  0
 22 25  1  0
 25 26  1  0
 26 27  2  0
 27 28  1  0
 28 29  2  0
 29 30  1  0
 30 31  2  0
 16 32  2  0
 32 33  1  0
 33 34  2  0
 33 35  1  0
 35 36  2  3
 36 37  1  0
 37 38  1  0
 38 39  2  0
 39 40  1  0
 40 41  2  0
 41 42  1  0
  9  4  1  0
 32 12  1  0
 41 36  1  0
 31 26  1  0
  3 43  1  0
  3 44  1  0
  5 45  1  0
  6 46  1  0
  7 47  1  0
  8 48  1  0
 13 49  1  0
 14 50  1  0
 15 51  1  0
 17 52  1  0
 19 53  1  0
 19 54  1  0
 20 55  1  0
 20 56  1  0
 25 57  1  0
 25 58  1  0
 27 59  1  0
 28 60  1  0
 29 61  1  0
 30 62  1  0
 31 63  1  0
 38 64  1  0
 39 65  1  0
 40 66  1  0
M  CHG  5  10  -1  11  -1  21  -1  37  -1  42  -1
M  END
>  <UniqueID>  (41) 
41

>  <SMILES>  (41) 
O=C(Cc1ccccc1[O-])[N-]c1cccc(NOCC[N-]S(=O)(=O)Cc2ccccc2)c1C(=O)N=c1[n-]cccc1[O-]

>  <Energy>  (41) 
71.70103406721809

>  <Genealogy>  (41) 
O=C(Cc1ccccc1[O-])[N-]c1cccc(NOCC[N-]S(=O)(=O)Cc2ccccc2)c1C(=O)N=c1[n-]cccc1[O-] (protonated)
O=C(Cc1ccccc1[O-])[N-]c1cccc(NOCC[N-]S(=O)(=O)Cc2ccccc2)c1C(=O)N=c1[n-]cccc1[O-] (3D coordinates assigned)
O=C(Cc1ccccc1[O-])[N-]c1cccc(NOCC[N-]S(=O)(=O)Cc2ccccc2)c1C(=O)N=c1[n-]cccc1[O-] (optimized conformer: 71.70103406721809 kcal/mol)

>  <smiles>  (41) 
O=C(Cc1ccccc1O)Nc1cccc(NOCCNS(=O)(=O)Cc2ccccc2)c1C(=O)N=c1[nH]cccc1O

>  <score_type>  (41) 
oracle

>  <origin>  (41) 
adg

>  <m_score__min__energy>  (41) 
-19.879999999999999

>  <m_primary>  (41) 
energy

$$$$
41:0
     RDKit          3D

 81 85  0  0  1  0  0  0  0  0999 V2000
   58.4120   32.7780   51.2820 C   0  0  0  0  0  0  0  0  0  0  0  0
   57.5180   31.8000   50.7700 O   0  0  0  0  0  0  0  0  0  0  0  0
   56.8440   30.9030   51.5780 C   0  0  0  0  0  0  0  0  0  0  0  0
   55.4530   30.8290   51.6260 C   0  0  0  0  0  0  0  0  0  0  0  0
   54.7920   29.9310   52.4360 C   0  0  0  0  0  0  0  0  0  0  0  0
   53.3810   29.8210   52.5070 N   0  0  0  0  0  0  0  0  0  0  0  0
   52.5100   29.7100   51.3600 C   0  0  0  0  0  0  0  0  0  0  0  0
   51.6110   30.9490   51.3160 C   0  0  0  0  0  0  0  0  0  0  0  0
   51.2530   31.3000   52.6780 N   0  0  0  0  0  0  0  0  0  0  0  0
   50.9080   32.6440   52.9830 C   0  0  0  0  0  0  0  0  0  0  0  0
   50.5300   33.1050   54.3300 C   0  0  0  0  0  0  0  0  0  0  0  0
   50.9370   33.4610   52.0130 O   0  0  0  0  0  0  0  0  0  0  0  0
   51.2730   30.2330   53.6570 C   0  0  0  0  0  0  0  0  0  0  0  0
   52.7360   29.8230   53.8160 C   0  0  0  0  0  0  0  0  0  0  0  0
   55.5850   29.1000   53.2060 C   0  0  0  0  0  0  0  0  0  0  0  0
   58.1760   30.2210   46.5580 C   0  0  0  0  0  0  0  0  0  0  0  0
   59.2560   30.1090   47.4290 C   0  0  0  0  0  0  0  0  0  0  0  0
   59.0400   30.0830   52.3540 N   0  0  0  0  0  0  0  0  0  0  0  0
   59.6220   29.3520   51.4370 C   0  0  0  0  0  0  0  0  0  0  0  0
   59.2860   29.4390   50.1400 N   0  0  0  0  0  0  0  0  0  0  0  0
   59.8820   28.6780   49.1790 C   0  0  0  0  0  0  0  0  0  0  0  0
   59.4870   28.8450   47.9920 N   0  0  0  0  0  0  0  0  0  0  0  0
   57.6100   30.0590   52.3610 C   0  0  0  0  0  0  0  0  0  0  0  0
   56.9630   29.1420   53.1880 C   0  0  0  0  0  0  0  0  0  0  0  0
   57.8740   31.4490   45.9830 C   0  0  0  0  0  0  0  0  0  0  0  0
   58.6220   32.5910   46.2500 C   0  0  0  0  0  0  0  0  0  0  0  0
   58.2000   33.8130   45.6070 C   0  0  0  0  0  0  0  0  0  0  0  0
   56.8900   34.1370   45.1960 N   0  0  0  0  0  0  0  0  0  0  0  0
   59.0860   34.6860   45.3870 O   0  0  0  0  0  0  0  0  0  0  0  0
   59.6900   32.4870   47.1070 C   0  0  0  0  0  0  0  0  0  0  0  0
   60.5360   33.5460   47.4710 N   0  0  0  0  0  0  0  0  0  0  0  0
   61.8190   33.8830   46.8900 C   0  0  0  0  0  0  0  0  0  0  0  0
   62.9180   33.7770   47.9690 C   0  0  0  0  0  0  0  0  0  0  0  0
   62.2320   33.4900   49.2270 N   0  0  0  0  0  0  0  0  0  0  0  0
   62.7870   32.4310   50.0270 C   0  0  0  0  0  0  0  0  0  0  0  0
   62.2490   32.0860   51.1060 O   0  0  0  0  0  0  0  0  0  0  0  0
   64.0130   31.7070   49.6170 C   0  0  0  0  0  0  0  0  0  0  0  0
   65.1840   32.5020   49.9300 C   0  0  0  0  0  0  0  0  0  0  0  0
   66.1170   33.1490   50.1980 N   0  0  0  0  0  0  0  0  0  0  0  0
   61.0770   34.2020   49.7010 C   0  0  0  0  0  0  0  0  0  0  0  0
   60.1050   34.4000   48.5730 C   0  0  0  0  0  0  0  0  0  0  0  0
   59.9840   31.2440   47.6810 C   0  0  0  0  0  0  0  0  0  0  0  0
   60.8400   27.8010   49.5050 N   0  0  0  0  0  0  0  0  0  0  0  0
   61.1820   27.7060   50.7920 C   0  0  0  0  0  0  0  0  0  0  0  0
   60.6050   28.4580   51.8020 C   0  0  0  0  0  0  0  0  0  0  0  0
   61.0110   28.3020   53.0920 F   0  0  0  0  0  0  0  0  0  0  0  0
   58.3906   32.7545   52.3815 H   0  0  0  0  0  0  0  0  0  0  0  0
   59.4318   32.5624   50.9305 H   0  0  0  0  0  0  0  0  0  0  0  0
   58.1059   33.7744   50.9305 H   0  0  0  0  0  0  0  0  0  0  0  0
   54.8627   31.5105   50.9959 H   0  0  0  0  0  0  0  0  0  0  0  0
   53.1113   29.6541   50.4406 H   0  0  0  0  0  0  0  0  0  0  0  0
   51.8969   28.7999   51.4368 H   0  0  0  0  0  0  0  0  0  0  0  0
   52.1512   31.7842   50.8463 H   0  0  0  0  0  0  0  0  0  0  0  0
   50.7054   30.7398   50.7277 H   0  0  0  0  0  0  0  0  0  0  0  0
   51.0372   32.4864   55.0850 H   0  0  0  0  0  0  0  0  0  0  0  0
   50.8298   34.1559   54.4554 H   0  0  0  0  0  0  0  0  0  0  0  0
   49.4407   33.0169   54.4554 H   0  0  0  0  0  0  0  0  0  0  0  0
   50.8710   30.5895   54.6169 H   0  0  0  0  0  0  0  0  0  0  0  0
   50.6529   29.3835   53.3347 H   0  0  0  0  0  0  0  0  0  0  0  0
   53.2482   30.5377   54.4770 H   0  0  0  0  0  0  0  0  0  0  0  0
   52.7910   28.8161   54.2556 H   0  0  0  0  0  0  0  0  0  0  0  0
   55.0924   28.3699   53.8650 H   0  0  0  0  0  0  0  0  0  0  0  0
   57.5624   29.3382   46.3253 H   0  0  0  0  0  0  0  0  0  0  0  0
   58.5410   30.1170   49.8670 H   0  0  0  0  0  0  0  0  0  0  0  0
   57.5470   28.4576   53.8209 H   0  0  0  0  0  0  0  0  0  0  0  0
   57.0178   31.5204   45.2961 H   0  0  0  0  0  0  0  0  0  0  0  0
   56.3330   33.6200   44.5030 H   0  0  0  0  0  0  0  0  0  0  0  0
   56.4470   34.9770   45.6340 H   0  0  0  0  0  0  0  0  0  0  0  0
   62.0435   33.1866   46.0686 H   0  0  0  0  0  0  0  0  0  0  0  0
   61.7859   34.9114   46.5010 H   0  0  0  0  0  0  0  0  0  0  0  0
   63.6168   32.9641   47.7222 H   0  0  0  0  0  0  0  0  0  0  0  0
   63.5033   34.7060   48.0359 H   0  0  0  0  0  0  0  0  0  0  0  0
   64.0680   30.7492   50.1551 H   0  0  0  0  0  0  0  0  0  0  0  0
   63.9794   31.5233   48.5330 H   0  0  0  0  0  0  0  0  0  0  0  0
   60.5942   33.6232   50.5021 H   0  0  0  0  0  0  0  0  0  0  0  0
   61.3883   35.1829   50.0895 H   0  0  0  0  0  0  0  0  0  0  0  0
   59.0923   34.1159   48.8950 H   0  0  0  0  0  0  0  0  0  0  0  0
   60.0814   35.4546   48.2610 H   0  0  0  0  0  0  0  0  0  0  0  0
   60.8406   31.1743   48.3675 H   0  0  0  0  0  0  0  0  0  0  0  0
   61.2580   27.2470   48.7290 H   0  0  0  0  0  0  0  0  0  0  0  0
   61.9687   26.9879   51.0666 H   0  0  0  0  0  0  0  0  0  0  0  0
  1  2  1  0
  2  3  1  0
  3  4  2  0
  4  5  1  0
  5  6  1  0
  6  7  1  0
  7  8  1  0
  8  9  1  0
  9 10  1  0
 10 11  1  0
 10 12  2  0
  9 13  1  0
 13 14  1  0
  5 15  2  0
 15 16  1  0
 16 17  2  0
 17 18  1  0
 18 19  2  0
 19 20  1  0
 20 21  1  0
 21 22  2  0
 22 23  1  0
 23 24  2  0
 24 25  1  0
 25 26  2  0
 26 27  1  0
 27 28  1  0
 27 29  2  0
 26 30  1  0
 30 31  1  0
 31 32  1  0
 32 33  1  0
 33 34  1  0
 34 35  1  0
 35 36  2  0
 35 37  1  0
 37 38  1  0
 38 39  3  0
 34 40  1  0
 40 41  1  0
 30 42  2  0
 21 43  1  0
 43 44  1  0
 44 45  2  0
 45 46  1  0
 17  3  1  0
 45 19  1  0
 14  6  1  0
 42 23  1  0
 41 31  1  0
  1 47  1  0
  1 48  1  0
  1 49  1  0
  4 50  1  0
  7 51  1  0
  7 52  1  0
  8 53  1  0
  8 54  1  0
 11 55  1  0
 11 56  1  0
 11 57  1  0
 13 58  1  0
 13 59  1  0
 14 60  1  0
 14 61  1  0
 15 62  1  0
 16 63  1  0
 20 64  1  0
 24 65  1  0
 25 66  1  0
 28 67  1  0
 28 68  1  0
 32 69  1  0
 32 70  1  0
 33 71  1  0
 33 72  1  0
 37 73  1  0
 37 74  1  0
 40 75  1  0
 40 76  1  0
 41 77  1  0
 41 78  1  0
 42 79  1  0
 43 80  1  0
 44 81  1  0
M  END
>  <smiles>  (42) 
COc1cc(N2CCN(C(C)=O)CC2)ccc1N=c1[nH]c(=Nc2ccc(C(N)=O)c(N3CCN(C(=O)CC#N)CC3)c2)[nH]cc1F

>  <score_type>  (42) 
oracle

>  <origin>  (42) 
adg

>  <m_score__min__energy>  (42) 
-10.699999999999999

>  <m_primary>  (42) 
energy

$$$$
42:0
     RDKit          3D

 49 52  0  0  0  0  0  0  0  0999 V2000
   55.0355   28.4022   55.0455 H   0  0  0  0  0  0  0  0  0  0  0  0
   54.4450   29.1190   54.4560 C   0  0  0  0  0  0  0  0  0  0  0  0
   53.4105   29.3516   54.7488 H   0  0  0  0  0  0  0  0  0  0  0  0
   54.9870   29.7100   53.3790 C   0  0  0  0  0  0  0  0  0  0  0  0
   54.3690   30.6400   52.5290 C   0  0  0  0  0  0  0  0  0  0  0  0
   53.0810   31.0240   52.4260 C   0  0  0  0  0  0  0  0  0  0  0  0
   52.5582   31.2836   53.3583 H   0  0  0  0  0  0  0  0  0  0  0  0
   52.3140   31.1260   51.1750 C   0  0  0  0  0  0  0  0  0  0  0  0
   52.3210   30.1810   50.2190 N   0  0  0  0  0  0  0  0  0  0  0  0
   51.4010   30.6250   49.3350 C   0  0  0  0  0  0  0  0  0  0  0  0
   51.1280   30.0060   48.2730 O   0  0  0  0  0  0  0  0  0  0  0  0
   50.7870   31.7760   49.6830 N   0  0  0  0  0  0  0  0  0  0  0  0
   51.3650   32.0720   50.8580 C   0  0  0  0  0  0  0  0  0  0  0  0
   51.0130   33.1700   51.6350 O   0  0  0  0  0  0  0  0  0  0  0  0
   55.3670   31.1460   51.7180 C   0  0  0  0  0  0  0  0  0  0  0  0
   55.2552   31.9295   50.9540 H   0  0  0  0  0  0  0  0  0  0  0  0
   56.5280   30.4830   52.0480 C   0  0  0  0  0  0  0  0  0  0  0  0
   57.8290   30.7560   51.4050 C   0  0  0  0  0  0  0  0  0  0  0  0
   58.1170   30.1360   50.3430 O   0  0  0  0  0  0  0  0  0  0  0  0
   58.6780   31.8270   51.8780 N   0  0  0  0  0  0  0  0  0  0  0  0
   59.2860   31.4640   52.6510 H   0  0  0  0  0  0  0  0  0  0  0  0
   59.5500   32.3340   50.8000 C   0  0  0  0  0  0  0  0  0  0  0  0
   60.1828   31.5138   50.4301 H   0  0  0  0  0  0  0  0  0  0  0  0
   58.9206   32.7233   49.9862 H   0  0  0  0  0  0  0  0  0  0  0  0
   60.4520   33.4760   51.3260 C   0  0  0  0  0  0  0  0  0  0  0  0
   61.4885   33.1111   51.3771 H   0  0  0  0  0  0  0  0  0  0  0  0
   60.3540   34.3241   50.6324 H   0  0  0  0  0  0  0  0  0  0  0  0
   60.0660   33.9270   52.6120 O   0  0  0  0  0  0  0  0  0  0  0  0
   58.6800   34.2080   52.6290 C   0  0  0  0  0  0  0  0  0  0  0  0
   58.4166   34.6593   53.5970 H   0  0  0  0  0  0  0  0  0  0  0  0
   58.4535   34.9011   51.8054 H   0  0  0  0  0  0  0  0  0  0  0  0
   57.8510   32.9220   52.4300 C   0  0  0  0  0  0  0  0  0  0  0  0
   57.4412   32.6065   53.4008 H   0  0  0  0  0  0  0  0  0  0  0  0
   57.0421   33.1384   51.7167 H   0  0  0  0  0  0  0  0  0  0  0  0
   56.3000   29.5860   53.0400 N   0  0  0  0  0  0  0  0  0  0  0  0
   57.2580   28.6000   53.5690 C   0  0  0  0  0  0  0  0  0  0  0  0
   56.8034   28.0788   54.4244 H   0  0  0  0  0  0  0  0  0  0  0  0
   57.5038   27.8845   52.7705 H   0  0  0  0  0  0  0  0  0  0  0  0
   58.5310   29.2760   54.0210 C   0  0  0  0  0  0  0  0  0  0  0  0
   59.7780   28.8040   53.5790 C   0  0  0  0  0  0  0  0  0  0  0  0
   59.8265   27.9361   52.9049 H   0  0  0  0  0  0  0  0  0  0  0  0
   60.9580   29.4310   53.9910 C   0  0  0  0  0  0  0  0  0  0  0  0
   61.9303   29.0598   53.6349 H   0  0  0  0  0  0  0  0  0  0  0  0
   60.9040   30.5280   54.8540 C   0  0  0  0  0  0  0  0  0  0  0  0
   62.0490   31.1350   55.2530 F   0  0  0  0  0  0  0  0  0  0  0  0
   59.6680   30.9960   55.3120 C   0  0  0  0  0  0  0  0  0  0  0  0
   59.6263   31.8569   55.9955 H   0  0  0  0  0  0  0  0  0  0  0  0
   58.4850   30.3720   54.9030 C   0  0  0  0  0  0  0  0  0  0  0  0
   57.3000   30.8350   55.3730 F   0  0  0  0  0  0  0  0  0  0  0  0
  1  2  1  0
  2  3  1  0
  2  4  2  0
  4  5  1  0
  5  6  2  0
  6  7  1  0
  6  8  1  0
  8  9  1  0
  9 10  1  0
 10 11  2  0
 10 12  1  0
 12 13  1  0
 13 14  1  0
  5 15  1  0
 15 16  1  0
 15 17  2  0
 17 18  1  0
 18 19  2  0
 18 20  1  0
 20 21  1  0
 20 22  1  0
 22 23  1  0
 22 24  1  0
 22 25  1  0
 25 26  1  0
 25 27  1  0
 25 28  1  0
 28 29  1  0
 29 30  1  0
 29 31  1  0
 29 32  1  0
 32 33  1  0
 32 34  1  0
 17 35  1  0
 35 36  1  0
 36 37  1  0
 36 38  1  0
 36 39  1  0
 39 40  2  0
 40 41  1  0
 40 42  1  0
 42 43  1  0
 42 44  2  0
 44 45  1  0
 44 46  1  0
 46 47  1  0
 46 48  2  0
 48 49  1  0
 35  4  1  0
 48 39  1  0
 13  8  2  0
 32 20  1  0
M  CHG  4   9  -1  12  -1  14  -1  20   1
M  END
>  <UniqueID>  (43) 
42

>  <SMILES>  (43) 
C=c1/c(=C\c2[n-]c(=O)[n-]c2[O-])cc(C(=O)[NH+]2CCOCC2)n1Cc1ccc(F)cc1F

>  <Energy>  (43) 
139.32019472826215

>  <Genealogy>  (43) 
C=c1c(=Cc2[n-]c(=O)[n-]c2[O-])cc(C(=O)[NH+]2CCOCC2)n1Cc1ccc(F)cc1F (protonated)
C=c1/c(=C\c2[n-]c(=O)[n-]c2[O-])cc(C(=O)[NH+]2CCOCC2)n1Cc1ccc(F)cc1F (cis-trans isomerization)
C=c1/c(=C\c2[n-]c(=O)[n-]c2[O-])cc(C(=O)[NH+]2CCOCC2)n1Cc1ccc(F)cc1F (3D coordinates assigned)
C=c1/c(=C\c2[n-]c(=O)[n-]c2[O-])cc(C(=O)[NH+]2CCOCC2)n1Cc1ccc(F)cc1F (nonaromatic ring conformer: 139.32019472826215 kcal/mol)

>  <smiles>  (43) 
C=c1c(=Cc2[nH]c(=O)[nH]c2O)cc(C(=O)N2CCOCC2)n1Cc1ccc(F)cc1F

>  <score_type>  (43) 
oracle

>  <origin>  (43) 
adg

>  <m_score__min__energy>  (43) 
-15.619999999999999

>  <m_primary>  (43) 
energy

$$$$
43:0
     RDKit          3D

 25 26  0  0  0  0  0  0  0  0999 V2000
   56.9150   26.0010   53.4140 H   0  0  0  0  0  0  0  0  0  0  0  0
   56.6920   26.7200   54.1380 N   0  0  0  0  0  0  0  0  0  0  0  0
   56.4700   27.9570   53.8240 C   0  0  0  0  0  0  0  0  0  0  0  0
   57.5100   28.8340   53.8050 N   0  0  0  0  0  0  0  0  0  0  0  0
   57.3420   30.1450   53.5010 C   0  0  0  0  0  0  0  0  0  0  0  0
   58.2094   30.8214   53.4891 H   0  0  0  0  0  0  0  0  0  0  0  0
   56.0740   30.6360   53.2040 C   0  0  0  0  0  0  0  0  0  0  0  0
   55.9355   31.7040   52.9798 H   0  0  0  0  0  0  0  0  0  0  0  0
   54.9730   29.7670   53.1910 C   0  0  0  0  0  0  0  0  0  0  0  0
   53.6160   30.3070   52.9320 C   0  0  0  0  0  0  0  0  0  0  0  0
   52.7706   29.8179   53.4381 H   0  0  0  0  0  0  0  0  0  0  0  0
   53.3390   31.3450   52.1290 C   0  0  0  0  0  0  0  0  0  0  0  0
   53.9121   32.2712   52.2834 H   0  0  0  0  0  0  0  0  0  0  0  0
   52.3270   31.3440   51.0550 C   0  0  0  0  0  0  0  0  0  0  0  0
   52.3320   30.4600   50.0430 N   0  0  0  0  0  0  0  0  0  0  0  0
   51.2970   30.8570   49.2720 C   0  0  0  0  0  0  0  0  0  0  0  0
   50.9700   30.2570   48.2150 O   0  0  0  0  0  0  0  0  0  0  0  0
   50.6470   31.9520   49.7180 N   0  0  0  0  0  0  0  0  0  0  0  0
   51.3160   32.2570   50.8410 C   0  0  0  0  0  0  0  0  0  0  0  0
   51.0340   33.3700   51.6230 O   0  0  0  0  0  0  0  0  0  0  0  0
   55.1650   28.4000   53.5060 C   0  0  0  0  0  0  0  0  0  0  0  0
   53.9920   27.4450   53.5320 C   0  0  0  0  0  0  0  0  0  0  0  0
   53.7215   27.2248   54.5752 H   0  0  0  0  0  0  0  0  0  0  0  0
   53.1337   27.9044   53.0198 H   0  0  0  0  0  0  0  0  0  0  0  0
   54.2678   26.5114   53.0198 H   0  0  0  0  0  0  0  0  0  0  0  0
  1  2  1  0
  2  3  2  0
  3  4  1  0
  4  5  1  0
  5  6  1  0
  5  7  2  0
  7  8  1  0
  7  9  1  0
  9 10  1  0
 10 11  1  0
 10 12  2  3
 12 13  1  0
 12 14  1  0
 14 15  1  0
 15 16  1  0
 16 17  2  0
 16 18  1  0
 18 19  1  0
 19 20  1  0
  9 21  2  0
 21 22  1  0
 22 23  1  0
 22 24  1  0
 22 25  1  0
 21  3  1  0
 19 14  2  0
M  CHG  4   4  -1  15  -1  18  -1  20  -1
M  END
>  <UniqueID>  (44) 
43

>  <SMILES>  (44) 
[H]/N=c1\[n-]ccc(C=Cc2[n-]c(=O)[n-]c2[O-])c1C

>  <Energy>  (44) 
67.582216108515

>  <Genealogy>  (44) 
Cc1c(C=Cc2[n-]c(=O)[n-]c2[O-])cc[n-]c1=N (protonated)
[H]/N=c1\[n-]ccc(C=Cc2[n-]c(=O)[n-]c2[O-])c1C (cis-trans isomerization)
[H]/N=c1\[n-]ccc(C=Cc2[n-]c(=O)[n-]c2[O-])c1C (3D coordinates assigned)
[H]/N=c1\[n-]ccc(C=Cc2[n-]c(=O)[n-]c2[O-])c1C (optimized conformer: 67.582216108515 kcal/mol)

>  <smiles>  (44) 
Cc1c(C=Cc2[nH]c(=O)[nH]c2O)cc[nH]c1=N

>  <score_type>  (44) 
oracle

>  <origin>  (44) 
adg

>  <m_score__min__energy>  (44) 
-15.75

>  <m_primary>  (44) 
energy

$$$$
44:0
     RDKit          3D

 40 41  0  0  0  0  0  0  0  0999 V2000
   58.7060   34.1560   45.0480 C   0  0  0  0  0  0  0  0  0  0  0  0
   59.1650   33.1840   46.1460 C   0  0  0  0  0  0  0  0  0  0  0  0
   59.3950   33.9550   47.4560 C   0  0  0  0  0  0  0  0  0  0  0  0
   58.2260   31.9550   46.3760 C   0  0  1  0  0  0  0  0  0  0  0  0
   57.1020   31.9270   45.4260 N   0  0  0  0  0  0  0  0  0  0  0  0
   56.8790   31.2160   44.1950 C   0  0  0  0  0  0  0  0  0  0  0  0
   57.4060   31.6800   43.1500 O   0  0  0  0  0  0  0  0  0  0  0  0
   56.0460   29.9960   44.0710 C   0  0  0  0  0  0  0  0  0  0  0  0
   55.5520   29.6750   42.9620 O   0  0  0  0  0  0  0  0  0  0  0  0
   55.9100   29.0720   45.1640 N   0  0  0  0  0  0  0  0  0  0  0  0
   56.4450   27.8910   45.3010 C   0  0  0  0  0  0  0  0  0  0  0  0
   57.7240   27.5650   44.7990 C   0  0  0  0  0  0  0  0  0  0  0  0
   58.2350   26.2810   45.0040 C   0  0  0  0  0  0  0  0  0  0  0  0
   57.4880   25.3360   45.7060 C   0  0  0  0  0  0  0  0  0  0  0  0
   56.2340   25.6930   46.2030 C   0  0  0  0  0  0  0  0  0  0  0  0
   55.7510   26.9470   45.9950 N   0  0  0  0  0  0  0  0  0  0  0  0
   58.8790   30.5860   46.5610 C   0  0  0  0  0  0  0  0  0  0  0  0
   58.6270   29.8530   47.7410 C   0  0  0  0  0  0  0  0  0  0  0  0
   59.2560   28.6270   47.9710 C   0  0  0  0  0  0  0  0  0  0  0  0
   60.1790   28.1250   47.0470 C   0  0  0  0  0  0  0  0  0  0  0  0
   60.8100   26.9020   47.2640 O   0  0  0  0  0  0  0  0  0  0  0  0
   60.4780   28.8630   45.9000 C   0  0  0  0  0  0  0  0  0  0  0  0
   59.8510   30.0900   45.6660 C   0  0  0  0  0  0  0  0  0  0  0  0
   58.2800   35.0581   45.5115 H   0  0  0  0  0  0  0  0  0  0  0  0
   59.5668   34.4364   44.4232 H   0  0  0  0  0  0  0  0  0  0  0  0
   57.9425   33.6694   44.4232 H   0  0  0  0  0  0  0  0  0  0  0  0
   60.1083   32.7459   45.7878 H   0  0  0  0  0  0  0  0  0  0  0  0
   59.1972   33.2920   48.3112 H   0  0  0  0  0  0  0  0  0  0  0  0
   60.4368   34.3056   47.4971 H   0  0  0  0  0  0  0  0  0  0  0  0
   58.7155   34.8191   47.4971 H   0  0  0  0  0  0  0  0  0  0  0  0
   57.8294   32.1486   47.3836 H   0  0  0  0  0  0  0  0  0  0  0  0
   58.3128   28.3155   44.2513 H   0  0  0  0  0  0  0  0  0  0  0  0
   59.2276   26.0154   44.6112 H   0  0  0  0  0  0  0  0  0  0  0  0
   57.8823   24.3216   45.8661 H   0  0  0  0  0  0  0  0  0  0  0  0
   55.6357   24.9595   46.7634 H   0  0  0  0  0  0  0  0  0  0  0  0
   57.9263   30.2524   48.4890 H   0  0  0  0  0  0  0  0  0  0  0  0
   59.0249   28.0545   48.8814 H   0  0  0  0  0  0  0  0  0  0  0  0
   61.2800   26.4090   46.5150 H   0  0  0  0  0  0  0  0  0  0  0  0
   61.2110   28.4766   45.1766 H   0  0  0  0  0  0  0  0  0  0  0  0
   60.1182   30.6758   44.7741 H   0  0  0  0  0  0  0  0  0  0  0  0
  1  2  1  0
  2  3  1  0
  2  4  1  0
  4  5  1  0
  5  6  1  0
  6  7  2  0
  6  8  1  0
  8  9  2  0
  8 10  1  0
 10 11  2  3
 11 12  1  0
 12 13  2  0
 13 14  1  0
 14 15  2  0
 15 16  1  0
  4 17  1  0
 17 18  2  0
 18 19  1  0
 19 20  2  0
 20 21  1  0
 20 22  1  0
 22 23  2  0
 16 11  1  0
 23 17  1  0
  1 24  1  0
  1 25  1  0
  1 26  1  0
  2 27  1  0
  3 28  1  0
  3 29  1  0
  3 30  1  0
  4 31  1  1
 12 32  1  0
 13 33  1  0
 14 34  1  0
 15 35  1  0
 18 36  1  0
 19 37  1  0
 21 38  1  0
 22 39  1  0
 23 40  1  0
M  CHG  2   5  -1  16  -1
M  END
>  <UniqueID>  (45) 
44

>  <SMILES>  (45) 
CC(C)[C@@H]([N-]C(=O)C(=O)N=c1cccc[n-]1)c1ccc(O)cc1

>  <Energy>  (45) 
58.0974860529932

>  <Genealogy>  (45) 
CC(C)C([N-]C(=O)C(=O)N=c1cccc[n-]1)c1ccc(O)cc1 (protonated)
CC(C)[C@@H]([N-]C(=O)C(=O)N=c1cccc[n-]1)c1ccc(O)cc1 (chirality)
CC(C)[C@@H]([N-]C(=O)C(=O)N=c1cccc[n-]1)c1ccc(O)cc1 (3D coordinates assigned)
CC(C)[C@@H]([N-]C(=O)C(=O)N=c1cccc[n-]1)c1ccc(O)cc1 (optimized conformer: 58.0974860529932 kcal/mol)

>  <smiles>  (45) 
CC(C)C(NC(=O)C(=O)N=c1cccc[nH]1)c1ccc(O)cc1

>  <score_type>  (45) 
oracle

>  <origin>  (45) 
adg

>  <m_score__min__energy>  (45) 
-10.44

>  <m_primary>  (45) 
energy

$$$$
45:0
     RDKit          3D

 56 59  0  0  1  0  0  0  0  0999 V2000
   59.4390   35.1060   47.4830 O   0  0  0  0  0  0  0  0  0  0  0  0
   59.8100   33.9690   46.9900 C   0  0  0  0  0  0  0  0  0  0  0  0
   58.9580   33.4620   45.9390 C   0  0  0  0  0  0  0  0  0  0  0  0
   57.9120   32.5860   46.1850 C   0  0  0  0  0  0  0  0  0  0  0  0
   57.2920   32.3380   44.9520 C   0  0  0  0  0  0  0  0  0  0  0  0
   56.2910   31.5740   44.8460 N   0  0  0  0  0  0  0  0  0  0  0  0
   56.3210   30.1520   43.9240 S   0  0  0  0  0  0  0  0  0  0  0  0
   55.0740   29.3480   43.9160 O   0  0  0  0  0  0  0  0  0  0  0  0
   56.8760   30.3730   42.5290 O   0  0  0  0  0  0  0  0  0  0  0  0
   57.5420   29.1080   44.7170 C   0  0  0  0  0  0  0  0  0  0  0  0
   58.8730   29.3400   44.5420 C   0  0  0  0  0  0  0  0  0  0  0  0
   59.8630   28.5620   45.0890 C   0  0  0  0  0  0  0  0  0  0  0  0
   59.4450   27.4840   45.8660 C   0  0  0  0  0  0  0  0  0  0  0  0
   60.7690   26.3490   46.6710 Br  0  0  0  0  0  0  0  0  0  0  0  0
   58.1160   27.2240   46.0620 C   0  0  0  0  0  0  0  0  0  0  0  0
   57.1390   28.0380   45.4870 C   0  0  0  0  0  0  0  0  0  0  0  0
   57.9580   33.0440   44.0220 N   0  0  0  0  0  0  0  0  0  0  0  0
   58.9460   33.7090   44.6170 N   0  0  0  0  0  0  0  0  0  0  0  0
   60.9640   33.4110   47.5370 N   0  0  0  0  0  0  0  0  0  0  0  0
   61.6040   34.2100   48.6170 C   0  0  0  0  0  0  0  0  0  0  0  0
   63.0840   33.8410   48.5560 C   0  0  0  0  0  0  0  0  0  0  0  0
   63.2240   32.4760   48.8310 N   0  0  0  0  0  0  0  0  0  0  0  0
   64.3720   31.9660   49.3870 C   0  0  0  0  0  0  0  0  0  0  0  0
   64.6470   32.2640   50.8250 C   0  0  0  0  0  0  0  0  0  0  0  0
   65.8150   33.1020   51.0780 C   0  0  0  0  0  0  0  0  0  0  0  0
   65.8390   34.2320   51.8600 C   0  0  0  0  0  0  0  0  0  0  0  0
   66.9880   34.9830   51.9800 C   0  0  0  0  0  0  0  0  0  0  0  0
   68.1470   34.6160   51.3140 C   0  0  0  0  0  0  0  0  0  0  0  0
   68.1520   33.4800   50.5180 C   0  0  0  0  0  0  0  0  0  0  0  0
   66.9980   32.7480   50.4140 C   0  0  0  0  0  0  0  0  0  0  0  0
   62.3450   31.5490   48.2240 C   0  0  0  0  0  0  0  0  0  0  0  0
   61.5410   32.1550   47.0950 C   0  0  0  0  0  0  0  0  0  0  0  0
   57.6238   32.1662   47.1600 H   0  0  0  0  0  0  0  0  0  0  0  0
   59.1719   30.2012   43.9263 H   0  0  0  0  0  0  0  0  0  0  0  0
   60.9287   28.7781   44.9227 H   0  0  0  0  0  0  0  0  0  0  0  0
   57.8146   26.3647   46.6790 H   0  0  0  0  0  0  0  0  0  0  0  0
   56.0704   27.8302   45.6448 H   0  0  0  0  0  0  0  0  0  0  0  0
   57.7120   33.0460   43.0110 H   0  0  0  0  0  0  0  0  0  0  0  0
   59.6190   34.3410   44.1440 H   0  0  0  0  0  0  0  0  0  0  0  0
   61.4659   35.2861   48.4356 H   0  0  0  0  0  0  0  0  0  0  0  0
   61.1653   33.9984   49.6033 H   0  0  0  0  0  0  0  0  0  0  0  0
   63.4771   34.0573   47.5517 H   0  0  0  0  0  0  0  0  0  0  0  0
   63.6450   34.4293   49.2971 H   0  0  0  0  0  0  0  0  0  0  0  0
   64.3282   30.8719   49.2822 H   0  0  0  0  0  0  0  0  0  0  0  0
   65.1867   32.4655   48.8421 H   0  0  0  0  0  0  0  0  0  0  0  0
   63.7660   32.7753   51.2402 H   0  0  0  0  0  0  0  0  0  0  0  0
   64.8602   31.2951   51.3001 H   0  0  0  0  0  0  0  0  0  0  0  0
   64.9298   34.5406   52.3967 H   0  0  0  0  0  0  0  0  0  0  0  0
   66.9855   35.8838   52.6113 H   0  0  0  0  0  0  0  0  0  0  0  0
   69.0587   35.2229   51.4163 H   0  0  0  0  0  0  0  0  0  0  0  0
   69.0623   33.1734   49.9820 H   0  0  0  0  0  0  0  0  0  0  0  0
   67.0000   31.8462   49.7841 H   0  0  0  0  0  0  0  0  0  0  0  0
   62.9376   30.7130   47.8240 H   0  0  0  0  0  0  0  0  0  0  0  0
   61.6341   31.2142   48.9938 H   0  0  0  0  0  0  0  0  0  0  0  0
   62.1984   32.3363   46.2319 H   0  0  0  0  0  0  0  0  0  0  0  0
   60.7374   31.4632   46.8025 H   0  0  0  0  0  0  0  0  0  0  0  0
  1  2  2  0
  2  3  1  0
  3  4  2  0
  4  5  1  0
  5  6  2  0
  6  7  1  0
  7  8  2  0
  7  9  2  0
  7 10  1  0
 10 11  2  0
 11 12  1  0
 12 13  2  0
 13 14  1  0
 13 15  1  0
 15 16  2  0
  5 17  1  0
 17 18  1  0
  2 19  1  0
 19 20  1  0
 20 21  1  0
 21 22  1  0
 22 23  1  0
 23 24  1  0
 24 25  1  0
 25 26  2  0
 26 27  1  0
 27 28  2  0
 28 29  1  0
 29 30  2  0
 22 31  1  0
 31 32  1  0
 18  3  1  0
 32 19  1  0
 16 10  1  0
 30 25  1  0
  4 33  1  0
 11 34  1  0
 12 35  1  0
 15 36  1  0
 16 37  1  0
 17 38  1  0
 18 39  1  0
 20 40  1  0
 20 41  1  0
 21 42  1  0
 21 43  1  0
 23 44  1  0
 23 45  1  0
 24 46  1  0
 24 47  1  0
 26 48  1  0
 27 49  1  0
 28 50  1  0
 29 51  1  0
 30 52  1  0
 31 53  1  0
 31 54  1  0
 32 55  1  0
 32 56  1  0
M  END
>  <smiles>  (46) 
O=C(c1cc(=NS(=O)(=O)c2ccc(Br)cc2)[nH][nH]1)N1CCN(CCc2ccccc2)CC1

>  <score_type>  (46) 
oracle

>  <origin>  (46) 
adg

>  <m_score__min__energy>  (46) 
-9.7599999999999998

>  <m_primary>  (46) 
energy

$$$$
46:0
     RDKit          3D

 31 33  0  0  1  0  0  0  0  0999 V2000
   60.1420   27.0270   45.9350 C   0  0  0  0  0  0  0  0  0  0  0  0
   58.8670   27.2680   45.7270 C   0  0  0  0  0  0  0  0  0  0  0  0
   58.4430   28.4540   45.1430 C   0  0  0  0  0  0  0  0  0  0  0  0
   59.3060   29.2840   44.8220 O   0  0  0  0  0  0  0  0  0  0  0  0
   57.1160   28.7320   44.9130 C   0  0  0  0  0  0  0  0  0  0  0  0
   56.8110   29.8910   44.3510 C   0  0  0  0  0  0  0  0  0  0  0  0
   57.3780   31.1540   44.8130 C   0  0  0  0  0  0  0  0  0  0  0  0
   57.7680   31.4150   46.0820 C   0  0  0  0  0  0  0  0  0  0  0  0
   58.3000   32.6610   46.4170 C   0  0  0  0  0  0  0  0  0  0  0  0
   58.4360   33.6550   45.4510 C   0  0  0  0  0  0  0  0  0  0  0  0
   58.0330   33.3840   44.1440 C   0  0  0  0  0  0  0  0  0  0  0  0
   57.5120   32.1480   43.8400 C   0  0  0  0  0  0  0  0  0  0  0  0
   56.1630   27.8660   45.2440 N   0  0  0  0  0  0  0  0  0  0  0  0
   56.5270   26.7020   45.8130 C   0  0  0  0  0  0  0  0  0  0  0  0
   55.5280   25.8400   46.1380 N   0  0  0  0  0  0  0  0  0  0  0  0
   55.8610   24.6630   46.7100 C   0  0  0  0  0  0  0  0  0  0  0  0
   57.1740   24.3440   46.9590 C   0  0  0  0  0  0  0  0  0  0  0  0
   57.4750   23.2290   47.5000 O   0  0  0  0  0  0  0  0  0  0  0  0
   58.1450   25.2050   46.6320 N   0  0  0  0  0  0  0  0  0  0  0  0
   57.8540   26.3800   46.0630 C   0  0  0  0  0  0  0  0  0  0  0  0
   60.4541   26.0799   46.3994 H   0  0  0  0  0  0  0  0  0  0  0  0
   60.8971   27.7723   45.6447 H   0  0  0  0  0  0  0  0  0  0  0  0
   56.1060   29.9026   43.5067 H   0  0  0  0  0  0  0  0  0  0  0  0
   57.6650   30.6395   46.8553 H   0  0  0  0  0  0  0  0  0  0  0  0
   58.6144   32.8596   47.4522 H   0  0  0  0  0  0  0  0  0  0  0  0
   58.8544   34.6375   45.7148 H   0  0  0  0  0  0  0  0  0  0  0  0
   58.1309   34.1521   43.3627 H   0  0  0  0  0  0  0  0  0  0  0  0
   57.1938   31.9373   42.8083 H   0  0  0  0  0  0  0  0  0  0  0  0
   55.1580   28.0870   45.0660 H   0  0  0  0  0  0  0  0  0  0  0  0
   55.0692   23.9489   46.9806 H   0  0  0  0  0  0  0  0  0  0  0  0
   59.1240   24.9180   46.8390 H   0  0  0  0  0  0  0  0  0  0  0  0
  1  2  2  0
  2  3  1  0
  3  4  2  0
  3  5  1  0
  5  6  2  0
  6  7  1  0
  7  8  2  0
  8  9  1  0
  9 10  2  0
 10 11  1  0
 11 12  2  0
  5 13  1  0
 13 14  1  0
 14 15  1  0
 15 16  2  0
 16 17  1  0
 17 18  2  0
 17 19  1  0
 19 20  1  0
 20  2  1  0
 12  7  1  0
 20 14  2  0
  1 21  1  0
  1 22  1  0
  6 23  1  0
  8 24  1  0
  9 25  1  0
 10 26  1  0
 11 27  1  0
 12 28  1  0
 13 29  1  0
 16 30  1  0
 19 31  1  0
M  END
>  <smiles>  (47) 
C=c1c(=O)c(=Cc2ccccc2)[nH]c2ncc(=O)[nH]c12

>  <score_type>  (47) 
oracle

>  <origin>  (47) 
adg

>  <m_score__min__energy>  (47) 
-7.3899999999999997

>  <m_primary>  (47) 
energy

$$$$
47:0
     RDKit          3D

 47 49  0  0  1  0  0  0  0  0999 V2000
   63.3240   31.6730   47.4440 C   0  0  0  0  0  0  0  0  0  0  0  0
   63.6050   33.1230   47.1540 C   0  0  0  0  0  0  0  0  0  0  0  0
   57.6990   25.8500   45.3910 N   0  0  0  0  0  0  0  0  0  0  0  0
   61.3470   33.7310   47.5970 C   0  0  0  0  0  0  0  0  0  0  0  0
   60.4580   33.5670   48.6560 C   0  0  0  0  0  0  0  0  0  0  0  0
   59.1040   33.3320   48.4050 C   0  0  0  0  0  0  0  0  0  0  0  0
   58.7480   33.2780   47.1150 N   0  0  0  0  0  0  0  0  0  0  0  0
   59.5880   33.4330   46.0870 C   0  0  0  0  0  0  0  0  0  0  0  0
   59.1490   33.3630   44.8850 N   0  0  0  0  0  0  0  0  0  0  0  0
   57.8560   32.3780   44.3340 S   0  0  0  0  0  0  0  0  0  0  0  0
   56.6660   32.7740   45.2180 O   0  0  0  0  0  0  0  0  0  0  0  0
   57.3920   32.7180   42.9430 O   0  0  0  0  0  0  0  0  0  0  0  0
   58.1560   30.6680   44.5370 C   0  0  0  0  0  0  0  0  0  0  0  0
   57.2640   29.7840   43.9190 C   0  0  0  0  0  0  0  0  0  0  0  0
   57.4540   28.4190   44.0410 C   0  0  0  0  0  0  0  0  0  0  0  0
   58.5180   27.9020   44.7700 C   0  0  0  0  0  0  0  0  0  0  0  0
   62.6050   33.9500   47.7890 N   0  0  0  0  0  0  0  0  0  0  0  0
   58.6580   26.4890   44.8570 N   0  0  0  0  0  0  0  0  0  0  0  0
   57.4290   24.5530   44.8720 C   0  0  0  0  0  0  0  0  0  0  0  0
   56.6370   24.4190   43.7430 C   0  0  0  0  0  0  0  0  0  0  0  0
   56.3310   23.2110   43.1830 C   0  0  0  0  0  0  0  0  0  0  0  0
   56.8150   22.0520   43.7380 C   0  0  0  0  0  0  0  0  0  0  0  0
   56.4970   20.8260   43.1590 O   0  0  0  0  0  0  0  0  0  0  0  0
   57.6080   22.1540   44.8640 C   0  0  0  0  0  0  0  0  0  0  0  0
   58.1050   20.9790   45.4370 O   0  0  0  0  0  0  0  0  0  0  0  0
   57.9170   23.3930   45.4320 C   0  0  0  0  0  0  0  0  0  0  0  0
   59.3990   28.7790   45.3800 C   0  0  0  0  0  0  0  0  0  0  0  0
   59.2100   30.1580   45.2580 C   0  0  0  0  0  0  0  0  0  0  0  0
   60.8920   33.6600   46.3170 N   0  0  0  0  0  0  0  0  0  0  0  0
   63.2936   31.5159   48.5323 H   0  0  0  0  0  0  0  0  0  0  0  0
   62.3548   31.3926   47.0058 H   0  0  0  0  0  0  0  0  0  0  0  0
   64.1183   31.0508   47.0058 H   0  0  0  0  0  0  0  0  0  0  0  0
   64.5992   33.3876   47.5434 H   0  0  0  0  0  0  0  0  0  0  0  0
   63.5775   33.2887   46.0669 H   0  0  0  0  0  0  0  0  0  0  0  0
   60.8226   33.6226   49.6923 H   0  0  0  0  0  0  0  0  0  0  0  0
   58.3745   33.1994   49.2175 H   0  0  0  0  0  0  0  0  0  0  0  0
   57.7490   33.1040   46.8920 H   0  0  0  0  0  0  0  0  0  0  0  0
   56.4147   30.1732   43.3382 H   0  0  0  0  0  0  0  0  0  0  0  0
   56.7496   27.7302   43.5518 H   0  0  0  0  0  0  0  0  0  0  0  0
   56.2350   25.3296   43.2748 H   0  0  0  0  0  0  0  0  0  0  0  0
   55.6958   23.1667   42.2860 H   0  0  0  0  0  0  0  0  0  0  0  0
   57.0050   19.9740   43.4290 H   0  0  0  0  0  0  0  0  0  0  0  0
   58.1540   20.1210   44.8840 H   0  0  0  0  0  0  0  0  0  0  0  0
   58.5518   23.4420   46.3290 H   0  0  0  0  0  0  0  0  0  0  0  0
   60.2481   28.3898   45.9610 H   0  0  0  0  0  0  0  0  0  0  0  0
   59.9154   30.8464   45.7464 H   0  0  0  0  0  0  0  0  0  0  0  0
   61.5260   33.7770   45.4940 H   0  0  0  0  0  0  0  0  0  0  0  0
  1  2  1  0
  2  3  1  0
  3  4  2  0
  4  5  1  0
  5  6  2  0
  6  7  1  0
  7  8  1  0
  8  9  2  0
  9 10  1  0
 10 11  2  0
 10 12  2  0
 10 13  1  0
 13 14  2  0
 14 15  1  0
 15 16  2  0
 16 17  1  0
 17 18  2  0
 18 19  1  0
 19 20  2  0
 20 21  1  0
 21 22  2  0
 22 23  1  0
 22 24  1  0
 24 25  1  0
 24 26  2  0
 16 27  1  0
 27 28  2  0
  8 29  1  0
 29  4  1  0
 28 13  1  0
 26 19  1  0
  1 30  1  0
  1 31  1  0
  1 32  1  0
  2 33  1  0
  2 34  1  0
  5 35  1  0
  6 36  1  0
  7 37  1  0
 14 38  1  0
 15 39  1  0
 20 40  1  0
 21 41  1  0
 23 42  1  0
 25 43  1  0
 26 44  1  0
 27 45  1  0
 28 46  1  0
 29 47  1  0
M  END
>  <smiles>  (48) 
CCN=c1cc[nH]c(=NS(=O)(=O)c2ccc(N=Nc3ccc(O)c(O)c3)cc2)[nH]1

>  <score_type>  (48) 
oracle

>  <origin>  (48) 
adg

>  <m_score__min__energy>  (48) 
-9.5299999999999994

>  <m_primary>  (48) 
energy

$$$$
48:0
     RDKit          3D

 54 56  0  0  0  0  0  0  0  0999 V2000
   54.4020   29.1310   52.0300 N   0  0  0  0  0  0  0  0  0  0  0  0
   54.4470   30.5180   51.7000 C   0  0  0  0  0  0  0  0  0  0  0  0
   53.2890   31.1330   51.1200 N   0  0  0  0  0  0  0  0  0  0  0  0
   55.5580   31.1710   51.8850 N   0  0  0  0  0  0  0  0  0  0  0  0
   56.9030   30.7000   51.7000 C   0  0  0  0  0  0  0  0  0  0  0  0
   57.2050   29.5070   51.9790 O   0  0  0  0  0  0  0  0  0  0  0  0
   57.9180   31.5930   51.0940 C   0  0  0  0  0  0  0  0  0  0  0  0
   58.2950   32.7860   51.7380 C   0  0  0  0  0  0  0  0  0  0  0  0
   59.2440   33.6340   51.1620 C   0  0  0  0  0  0  0  0  0  0  0  0
   59.8140   33.3220   49.9170 C   0  0  0  0  0  0  0  0  0  0  0  0
   60.8380   34.1940   49.3020 C   0  0  0  0  0  0  0  0  0  0  0  0
   61.9760   33.7640   48.7350 C   0  0  0  0  0  0  0  0  0  0  0  0
   62.0550   32.8750   47.5620 C   0  0  0  0  0  0  0  0  0  0  0  0
   62.8030   31.8590   47.5770 O   0  0  0  0  0  0  0  0  0  0  0  0
   61.3550   33.2400   46.3680 N   0  0  0  0  0  0  0  0  0  0  0  0
   59.9310   33.2150   46.1810 C   0  0  0  0  0  0  0  0  0  0  0  0
   59.2160   34.4200   46.0800 C   0  0  0  0  0  0  0  0  0  0  0  0
   57.8550   34.4140   45.8070 C   0  0  0  0  0  0  0  0  0  0  0  0
   57.1960   33.2120   45.5760 C   0  0  0  0  0  0  0  0  0  0  0  0
   57.8830   31.9960   45.6320 C   0  0  0  0  0  0  0  0  0  0  0  0
   57.1580   30.8480   45.2990 O   0  0  0  0  0  0  0  0  0  0  0  0
   59.2620   31.9750   45.9940 C   0  0  0  0  0  0  0  0  0  0  0  0
   60.0280   30.6620   46.1750 C   0  0  0  0  0  0  0  0  0  0  0  0
   59.1920   29.4290   46.1790 N   0  0  0  0  0  0  0  0  0  0  0  0
   58.8990   28.8750   47.5050 C   0  0  0  0  0  0  0  0  0  0  0  0
   59.8740   27.7340   47.7550 C   0  0  0  0  0  0  0  0  0  0  0  0
   60.3970   27.3430   46.3840 C   0  0  0  0  0  0  0  0  0  0  0  0
   59.7530   28.3180   45.4060 C   0  0  0  0  0  0  0  0  0  0  0  0
   59.4700   32.1170   49.2910 C   0  0  0  0  0  0  0  0  0  0  0  0
   58.5260   31.2630   49.8690 C   0  0  0  0  0  0  0  0  0  0  0  0
   55.2380   28.6550   52.4290 H   0  0  0  0  0  0  0  0  0  0  0  0
   53.5340   28.5730   51.8580 H   0  0  0  0  0  0  0  0  0  0  0  0
   52.3800   30.6210   51.1200 H   0  0  0  0  0  0  0  0  0  0  0  0
   53.3490   31.9990   50.5410 H   0  0  0  0  0  0  0  0  0  0  0  0
   57.8388   33.0530   52.7027 H   0  0  0  0  0  0  0  0  0  0  0  0
   59.5467   34.5520   51.6870 H   0  0  0  0  0  0  0  0  0  0  0  0
   60.6527   35.2783   49.3099 H   0  0  0  0  0  0  0  0  0  0  0  0
   62.9235   34.1013   49.1804 H   0  0  0  0  0  0  0  0  0  0  0  0
   59.7396   35.3774   46.2186 H   0  0  0  0  0  0  0  0  0  0  0  0
   57.2973   35.3615   45.7734 H   0  0  0  0  0  0  0  0  0  0  0  0
   56.1203   33.2179   45.3462 H   0  0  0  0  0  0  0  0  0  0  0  0
   57.5510   29.9230   45.2100 H   0  0  0  0  0  0  0  0  0  0  0  0
   60.7541   30.5768   45.3531 H   0  0  0  0  0  0  0  0  0  0  0  0
   60.4915   30.7167   47.1711 H   0  0  0  0  0  0  0  0  0  0  0  0
   59.0272   29.6524   48.2726 H   0  0  0  0  0  0  0  0  0  0  0  0
   57.8615   28.5124   47.5505 H   0  0  0  0  0  0  0  0  0  0  0  0
   60.6994   28.0676   48.4010 H   0  0  0  0  0  0  0  0  0  0  0  0
   59.3911   26.8876   48.2654 H   0  0  0  0  0  0  0  0  0  0  0  0
   61.4928   27.4336   46.3509 H   0  0  0  0  0  0  0  0  0  0  0  0
   60.1529   26.2990   46.1379 H   0  0  0  0  0  0  0  0  0  0  0  0
   60.5098   28.6966   44.7032 H   0  0  0  0  0  0  0  0  0  0  0  0
   58.9624   27.8154   44.8296 H   0  0  0  0  0  0  0  0  0  0  0  0
   59.9457   31.8409   48.3384 H   0  0  0  0  0  0  0  0  0  0  0  0
   58.2563   30.3250   49.3616 H   0  0  0  0  0  0  0  0  0  0  0  0
  1  2  1  0
  2  3  1  0
  2  4  2  3
  4  5  1  0
  5  6  2  0
  5  7  1  0
  7  8  2  0
  8  9  1  0
  9 10  2  0
 10 11  1  0
 11 12  2  3
 12 13  1  0
 13 14  2  0
 13 15  1  0
 15 16  1  0
 16 17  2  0
 17 18  1  0
 18 19  2  0
 19 20  1  0
 20 21  1  0
 20 22  2  0
 22 23  1  0
 23 24  1  0
 24 25  1  0
 25 26  1  0
 26 27  1  0
 27 28  1  0
 10 29  1  0
 29 30  2  0
 30  7  1  0
 22 16  1  0
 28 24  1  0
  1 31  1  0
  1 32  1  0
  3 33  1  0
  3 34  1  0
  8 35  1  0
  9 36  1  0
 11 37  1  0
 12 38  1  0
 17 39  1  0
 18 40  1  0
 19 41  1  0
 21 42  1  0
 23 43  1  0
 23 44  1  0
 25 45  1  0
 25 46  1  0
 26 47  1  0
 26 48  1  0
 27 49  1  0
 27 50  1  0
 28 51  1  0
 28 52  1  0
 29 53  1  0
 30 54  1  0
M  CHG  1  15  -1
M  END
>  <UniqueID>  (49) 
45

>  <SMILES>  (49) 
NC(N)=NC(=O)c1ccc(C=CC(=O)[N-]c2cccc(O)c2CN2CCCC2)cc1

>  <Energy>  (49) 
81.18245497617886

>  <Genealogy>  (49) 
NC(N)=NC(=O)c1ccc(C=CC(=O)[N-]c2cccc(O)c2CN2CCCC2)cc1 (protonated)
NC(N)=NC(=O)c1ccc(C=CC(=O)[N-]c2cccc(O)c2CN2CCCC2)cc1 (3D coordinates assigned)
NC(N)=NC(=O)c1ccc(C=CC(=O)[N-]c2cccc(O)c2CN2CCCC2)cc1 (nonaromatic ring conformer: 81.18245497617886 kcal/mol)

>  <smiles>  (49) 
NC(N)=NC(=O)c1ccc(C=CC(=O)Nc2cccc(O)c2CN2CCCC2)cc1

>  <score_type>  (49) 
oracle

>  <origin>  (49) 
adg

>  <m_score__min__energy>  (49) 
-9.9399999999999995

>  <m_primary>  (49) 
energy

$$$$
49:0
     RDKit          3D

 50 52  0  0  0  0  0  0  0  0999 V2000
   59.2830   34.9190   47.6310 C   0  0  0  0  0  0  0  0  0  0  0  0
   58.5540   33.7390   46.9780 C   0  0  1  0  0  0  0  0  0  0  0  0
   58.4440   33.9420   45.4600 C   0  0  0  0  0  0  0  0  0  0  0  0
   57.5900   32.8350   44.8340 C   0  0  0  0  0  0  0  0  0  0  0  0
   57.9930   31.4540   45.2950 C   0  0  0  0  0  0  0  0  0  0  0  0
   57.5430   30.3400   44.5690 C   0  0  0  0  0  0  0  0  0  0  0  0
   57.8370   29.0380   44.9970 C   0  0  0  0  0  0  0  0  0  0  0  0
   57.3910   27.8550   44.1840 C   0  0  0  0  0  0  0  0  0  0  0  0
   57.4360   26.6130   45.0180 C   0  0  0  0  0  0  0  0  0  0  0  0
   58.5170   25.8100   45.1180 N   0  0  0  0  0  0  0  0  0  0  0  0
   58.1310   24.8660   46.0050 C   0  0  0  0  0  0  0  0  0  0  0  0
   58.8750   23.9090   46.3490 O   0  0  0  0  0  0  0  0  0  0  0  0
   56.8800   25.0450   46.4820 N   0  0  0  0  0  0  0  0  0  0  0  0
   56.1480   24.1800   47.4090 C   0  0  0  0  0  0  0  0  0  0  0  0
   55.1240   23.3340   46.6460 C   0  0  0  0  0  0  0  0  0  0  0  0
   54.4850   24.1270   45.5730 N   0  0  0  0  0  0  0  0  0  0  0  0
   53.0250   23.9270   45.5650 C   0  0  0  0  0  0  0  0  0  0  0  0
   55.0370   23.7480   44.2630 C   0  0  0  0  0  0  0  0  0  0  0  0
   56.4390   26.1490   45.8490 C   0  0  0  0  0  0  0  0  0  0  0  0
   55.1790   26.7220   46.0080 O   0  0  0  0  0  0  0  0  0  0  0  0
   58.5980   28.8510   46.1590 C   0  0  0  0  0  0  0  0  0  0  0  0
   59.0390   29.9510   46.8980 C   0  0  0  0  0  0  0  0  0  0  0  0
   58.7260   31.2560   46.4900 C   0  0  0  0  0  0  0  0  0  0  0  0
   59.2850   32.4190   47.2770 C   0  0  0  0  0  0  0  0  0  0  0  0
   59.2252   34.8254   48.7255 H   0  0  0  0  0  0  0  0  0  0  0  0
   60.3375   34.9171   47.3180 H   0  0  0  0  0  0  0  0  0  0  0  0
   58.8094   35.8612   47.3180 H   0  0  0  0  0  0  0  0  0  0  0  0
   57.5405   33.6885   47.4026 H   0  0  0  0  0  0  0  0  0  0  0  0
   57.9780   34.9176   45.2576 H   0  0  0  0  0  0  0  0  0  0  0  0
   59.4520   33.9065   45.0211 H   0  0  0  0  0  0  0  0  0  0  0  0
   56.5384   33.0044   45.1088 H   0  0  0  0  0  0  0  0  0  0  0  0
   57.7389   32.8774   43.7449 H   0  0  0  0  0  0  0  0  0  0  0  0
   56.9525   30.4906   43.6532 H   0  0  0  0  0  0  0  0  0  0  0  0
   56.3616   28.0212   43.8337 H   0  0  0  0  0  0  0  0  0  0  0  0
   58.0641   27.7353   43.3223 H   0  0  0  0  0  0  0  0  0  0  0  0
   56.8578   23.5152   47.9231 H   0  0  0  0  0  0  0  0  0  0  0  0
   55.6204   24.8061   48.1437 H   0  0  0  0  0  0  0  0  0  0  0  0
   55.6329   22.4669   46.1997 H   0  0  0  0  0  0  0  0  0  0  0  0
   54.3469   23.0005   47.3494 H   0  0  0  0  0  0  0  0  0  0  0  0
   52.6562   23.8765   46.6001 H   0  0  0  0  0  0  0  0  0  0  0  0
   52.5426   24.7675   45.0445 H   0  0  0  0  0  0  0  0  0  0  0  0
   52.7864   22.9878   45.0445 H   0  0  0  0  0  0  0  0  0  0  0  0
   55.9359   23.1308   44.4085 H   0  0  0  0  0  0  0  0  0  0  0  0
   54.2856   23.1745   43.7005 H   0  0  0  0  0  0  0  0  0  0  0  0
   55.3023   24.6553   43.7005 H   0  0  0  0  0  0  0  0  0  0  0  0
   54.3970   26.1950   46.3720 H   0  0  0  0  0  0  0  0  0  0  0  0
   58.8492   27.8327   46.4906 H   0  0  0  0  0  0  0  0  0  0  0  0
   59.6368   29.7926   47.8077 H   0  0  0  0  0  0  0  0  0  0  0  0
   59.1883   32.1976   48.3501 H   0  0  0  0  0  0  0  0  0  0  0  0
   60.3374   32.5460   46.9832 H   0  0  0  0  0  0  0  0  0  0  0  0
  1  2  1  0
  2  3  1  0
  3  4  1  0
  4  5  1  0
  5  6  2  0
  6  7  1  0
  7  8  1  0
  8  9  1  0
  9 10  1  0
 10 11  1  0
 11 12  2  0
 11 13  1  0
 13 14  1  0
 14 15  1  0
 15 16  1  0
 16 17  1  0
 16 18  1  0
 13 19  1  0
 19 20  1  0
  7 21  2  0
 21 22  1  0
 22 23  2  0
 23 24  1  0
 24  2  1  0
 23  5  1  0
 19  9  2  0
  1 25  1  0
  1 26  1  0
  1 27  1  0
  2 28  1  1
  3 29  1  0
  3 30  1  0
  4 31  1  0
  4 32  1  0
  6 33  1  0
  8 34  1  0
  8 35  1  0
 14 36  1  0
 14 37  1  0
 15 38  1  0
 15 39  1  0
 17 40  1  0
 17 41  1  0
 17 42  1  0
 18 43  1  0
 18 44  1  0
 18 45  1  0
 20 46  1  0
 21 47  1  0
 22 48  1  0
 24 49  1  0
 24 50  1  0
M  CHG  1  10  -1
M  END
>  <UniqueID>  (50) 
46

>  <SMILES>  (50) 
C[C@H]1CCc2cc(Cc3[n-]c(=O)n(CCN(C)C)c3O)ccc2C1

>  <Energy>  (50) 
75.95976245658964

>  <Genealogy>  (50) 
CC1CCc2cc(Cc3[n-]c(=O)n(CCN(C)C)c3O)ccc2C1 (protonated)
C[C@H]1CCc2cc(Cc3[n-]c(=O)n(CCN(C)C)c3O)ccc2C1 (chirality)
C[C@H]1CCc2cc(Cc3[n-]c(=O)n(CCN(C)C)c3O)ccc2C1 (3D coordinates assigned)
C[C@H]1CCc2cc(Cc3[n-]c(=O)n(CCN(C)C)c3O)ccc2C1 (nonaromatic ring conformer: 75.95976245658964 kcal/mol)

>  <smiles>  (50) 
CC1CCc2cc(Cc3[nH]c(=O)n(CCN(C)C)c3O)ccc2C1

>  <score_type>  (50) 
oracle

>  <origin>  (50) 
adg

>  <m_score__min__energy>  (50) 
-9.8599999999999994

>  <m_primary>  (50) 
energy

$$$$
50:0
     RDKit          3D

 54 57  0  0  0  0  0  0  0  0999 V2000
   56.4420   25.1240   45.6520 C   0  0  0  0  0  0  0  0  0  0  0  0
   56.0120   26.4080   46.3550 C   0  0  0  0  0  0  0  0  0  0  0  0
   57.1430   27.3480   46.4510 N   0  0  0  0  0  0  0  0  0  0  0  0
   58.0520   27.1750   47.4570 C   0  0  0  0  0  0  0  0  0  0  0  0
   59.1470   28.0430   47.6190 C   0  0  0  0  0  0  0  0  0  0  0  0
   60.1150   27.8000   48.7270 C   0  0  0  0  0  0  0  0  0  0  0  0
   61.0750   26.9970   48.5550 O   0  0  0  0  0  0  0  0  0  0  0  0
   60.0020   28.5030   49.9700 N   0  0  0  0  0  0  0  0  0  0  0  0
   59.4610   29.8210   50.1390 C   0  0  0  0  0  0  0  0  0  0  0  0
   59.9470   30.8520   49.3260 C   0  0  0  0  0  0  0  0  0  0  0  0
   59.4460   32.1530   49.4480 C   0  0  0  0  0  0  0  0  0  0  0  0
   60.1100   33.4380   48.4420 S   0  0  0  0  0  0  0  0  0  0  0  0
   60.9500   34.3360   49.3080 O   0  0  0  0  0  0  0  0  0  0  0  0
   60.9840   32.8510   47.3680 O   0  0  0  0  0  0  0  0  0  0  0  0
   58.7920   34.3420   47.7300 N   0  0  0  0  0  0  0  0  0  0  0  0
   59.2710   35.3370   46.7510 C   0  0  0  0  0  0  0  0  0  0  0  0
   59.7150   34.7020   45.4200 C   0  0  0  0  0  0  0  0  0  0  0  0
   58.8060   33.5450   44.9670 C   0  0  0  0  0  0  0  0  0  0  0  0
   57.4750   33.5390   45.7150 C   0  0  0  0  0  0  0  0  0  0  0  0
   57.7110   33.4520   47.2330 C   0  0  0  0  0  0  0  0  0  0  0  0
   58.4410   32.4240   50.3850 C   0  0  0  0  0  0  0  0  0  0  0  0
   57.9260   31.3940   51.1770 C   0  0  0  0  0  0  0  0  0  0  0  0
   58.4170   30.0910   51.0480 C   0  0  0  0  0  0  0  0  0  0  0  0
   57.8410   29.0720   51.7990 O   0  0  0  0  0  0  0  0  0  0  0  0
   59.2840   29.1230   46.7210 C   0  0  0  0  0  0  0  0  0  0  0  0
   60.2500   29.9280   46.8280 O   0  0  0  0  0  0  0  0  0  0  0  0
   58.3360   29.3080   45.7000 C   0  0  0  0  0  0  0  0  0  0  0  0
   58.4250   30.3770   44.7900 C   0  0  0  0  0  0  0  0  0  0  0  0
   57.4600   30.5340   43.7970 C   0  0  0  0  0  0  0  0  0  0  0  0
   56.4070   29.6220   43.7150 C   0  0  0  0  0  0  0  0  0  0  0  0
   55.5280   29.7490   42.8240 O   0  0  0  0  0  0  0  0  0  0  0  0
   56.3320   28.5910   44.5970 N   0  0  0  0  0  0  0  0  0  0  0  0
   57.2570   28.4020   45.5820 C   0  0  0  0  0  0  0  0  0  0  0  0
   56.6971   24.3623   46.4035 H   0  0  0  0  0  0  0  0  0  0  0  0
   55.6178   24.7568   45.0228 H   0  0  0  0  0  0  0  0  0  0  0  0
   57.3211   25.3272   45.0228 H   0  0  0  0  0  0  0  0  0  0  0  0
   55.1981   26.8782   45.7837 H   0  0  0  0  0  0  0  0  0  0  0  0
   55.6688   26.1598   47.3702 H   0  0  0  0  0  0  0  0  0  0  0  0
   57.9241   26.3363   48.1572 H   0  0  0  0  0  0  0  0  0  0  0  0
   60.7303   30.6373   48.5841 H   0  0  0  0  0  0  0  0  0  0  0  0
   58.4571   36.0482   46.5464 H   0  0  0  0  0  0  0  0  0  0  0  0
   60.1490   35.8347   47.1886 H   0  0  0  0  0  0  0  0  0  0  0  0
   59.7058   35.4792   44.6416 H   0  0  0  0  0  0  0  0  0  0  0  0
   60.7210   34.2854   45.5761 H   0  0  0  0  0  0  0  0  0  0  0  0
   58.6080   33.6493   43.8900 H   0  0  0  0  0  0  0  0  0  0  0  0
   59.3238   32.5995   45.1858 H   0  0  0  0  0  0  0  0  0  0  0  0
   56.9269   34.4649   45.4862 H   0  0  0  0  0  0  0  0  0  0  0  0
   56.8906   32.6638   45.3948 H   0  0  0  0  0  0  0  0  0  0  0  0
   56.7761   33.7250   47.7443 H   0  0  0  0  0  0  0  0  0  0  0  0
   58.0259   32.4199   47.4468 H   0  0  0  0  0  0  0  0  0  0  0  0
   58.0566   33.4485   50.4977 H   0  0  0  0  0  0  0  0  0  0  0  0
   57.1304   31.6094   51.9055 H   0  0  0  0  0  0  0  0  0  0  0  0
   59.2586   31.0910   44.8624 H   0  0  0  0  0  0  0  0  0  0  0  0
   57.5277   31.3692   43.0843 H   0  0  0  0  0  0  0  0  0  0  0  0
  1  2  1  0
  2  3  1  0
  3  4  1  0
  4  5  2  0
  5  6  1  0
  6  7  2  0
  6  8  1  0
  8  9  1  0
  9 10  2  0
 10 11  1  0
 11 12  1  0
 12 13  2  0
 12 14  2  0
 12 15  1  0
 15 16  1  0
 16 17  1  0
 17 18  1  0
 18 19  1  0
 19 20  1  0
 11 21  2  0
 21 22  1  0
 22 23  2  0
 23 24  1  0
  5 25  1  0
 25 26  2  0
 25 27  1  0
 27 28  1  0
 28 29  2  0
 29 30  1  0
 30 31  2  0
 30 32  1  0
 32 33  1  0
 33  3  1  0
 23  9  1  0
 33 27  2  0
 20 15  1  0
  1 34  1  0
  1 35  1  0
  1 36  1  0
  2 37  1  0
  2 38  1  0
  4 39  1  0
 10 40  1  0
 16 41  1  0
 16 42  1  0
 17 43  1  0
 17 44  1  0
 18 45  1  0
 18 46  1  0
 19 47  1  0
 19 48  1  0
 20 49  1  0
 20 50  1  0
 21 51  1  0
 22 52  1  0
 28 53  1  0
 29 54  1  0
M  CHG  3   8  -1  24  -1  32  -1
M  END
>  <UniqueID>  (51) 
47

>  <SMILES>  (51) 
CCn1cc(C(=O)[N-]c2cc(S(=O)(=O)N3CCCCC3)ccc2[O-])c(=O)c2ccc(=O)[n-]c21

>  <Energy>  (51) 
77.38200270811423

>  <Genealogy>  (51) 
CCn1cc(C(=O)[N-]c2cc(S(=O)(=O)N3CCCCC3)ccc2[O-])c(=O)c2ccc(=O)[n-]c21 (protonated)
CCn1cc(C(=O)[N-]c2cc(S(=O)(=O)N3CCCCC3)ccc2[O-])c(=O)c2ccc(=O)[n-]c21 (3D coordinates assigned)
CCn1cc(C(=O)[N-]c2cc(S(=O)(=O)N3CCCCC3)ccc2[O-])c(=O)c2ccc(=O)[n-]c21 (nonaromatic ring conformer: 77.38200270811423 kcal/mol)

>  <smiles>  (51) 
CCn1cc(C(=O)Nc2cc(S(=O)(=O)N3CCCCC3)ccc2O)c(=O)c2ccc(=O)[nH]c21

>  <score_type>  (51) 
oracle

>  <origin>  (51) 
adg

>  <m_score__min__energy>  (51) 
-14.640000000000001

>  <m_primary>  (51) 
energy

$$$$
51:0
     RDKit          3D

 72 76  0  0  0  0  0  0  0  0999 V2000
   61.0210   34.3290   47.8420 O   0  0  0  0  0  0  0  0  0  0  0  0
   60.1700   33.5870   48.4000 C   0  0  0  0  0  0  0  0  0  0  0  0
   59.8410   32.2620   47.7650 C   0  0  0  0  0  0  0  0  0  0  0  0
   58.9200   32.4650   46.5890 C   0  0  0  0  0  0  0  0  0  0  0  0
   58.3900   33.7330   46.2990 C   0  0  0  0  0  0  0  0  0  0  0  0
   57.4640   33.8890   45.2630 C   0  0  0  0  0  0  0  0  0  0  0  0
   57.0450   32.7790   44.5200 C   0  0  0  0  0  0  0  0  0  0  0  0
   57.5750   31.5120   44.7860 C   0  0  0  0  0  0  0  0  0  0  0  0
   57.0470   30.3780   44.0850 N   0  0  0  0  0  0  0  0  0  0  0  0
   56.6760   29.1440   44.7120 C   0  0  0  0  0  0  0  0  0  0  0  0
   55.5340   29.0170   45.2320 O   0  0  0  0  0  0  0  0  0  0  0  0
   57.6030   27.9610   44.6690 C   0  0  1  0  0  0  0  0  0  0  0  0
   59.0390   28.4010   44.9640 C   0  0  0  0  0  0  0  0  0  0  0  0
   59.2770   28.0520   46.4300 C   0  0  0  0  0  0  0  0  0  0  0  0
   58.3070   26.9180   46.7410 C   0  0  0  0  0  0  0  0  0  0  0  0
   57.2770   27.0010   45.7200 N   0  0  0  0  0  0  0  0  0  0  0  0
   56.1690   26.0920   45.6460 C   0  0  0  0  0  0  0  0  0  0  0  0
   55.1400   26.3060   46.3440 O   0  0  0  0  0  0  0  0  0  0  0  0
   56.2090   24.9860   44.7330 N   0  0  0  0  0  0  0  0  0  0  0  0
   57.1810   23.9350   44.7050 C   0  0  0  0  0  0  0  0  0  0  0  0
   58.4260   24.0610   45.3520 C   0  0  0  0  0  0  0  0  0  0  0  0
   59.3780   23.0380   45.2560 C   0  0  0  0  0  0  0  0  0  0  0  0
   59.1020   21.8900   44.5090 C   0  0  0  0  0  0  0  0  0  0  0  0
   57.8750   21.7670   43.8460 C   0  0  0  0  0  0  0  0  0  0  0  0
   56.9180   22.7870   43.9410 C   0  0  0  0  0  0  0  0  0  0  0  0
   55.7370   22.6610   43.2820 F   0  0  0  0  0  0  0  0  0  0  0  0
   58.5180   31.3590   45.8200 C   0  0  0  0  0  0  0  0  0  0  0  0
   59.5810   34.0320   49.6270 N   0  0  0  0  0  0  0  0  0  0  0  0
   59.6490   33.1940   51.1460 S   0  0  0  0  0  0  0  0  0  0  0  0
   59.5030   34.1820   52.2700 O   0  0  0  0  0  0  0  0  0  0  0  0
   58.5120   32.2120   51.2120 O   0  0  0  0  0  0  0  0  0  0  0  0
   61.1670   32.3110   51.2780 C   0  0  0  0  0  0  0  0  0  0  0  0
   61.4270   31.2200   50.4360 C   0  0  0  0  0  0  0  0  0  0  0  0
   62.6330   30.5200   50.5430 C   0  0  0  0  0  0  0  0  0  0  0  0
   63.5970   30.9140   51.4850 C   0  0  0  0  0  0  0  0  0  0  0  0
   64.8220   30.1770   51.6180 N   0  0  0  0  0  0  0  0  0  0  0  0
   64.7480   28.7480   51.9700 C   0  0  0  0  0  0  0  0  0  0  0  0
   66.1350   28.1040   52.1390 C   0  0  0  0  0  0  0  0  0  0  0  0
   67.0760   28.6390   51.2320 O   0  0  0  0  0  0  0  0  0  0  0  0
   67.2940   29.9960   51.5540 C   0  0  0  0  0  0  0  0  0  0  0  0
   66.0670   30.8280   51.1910 C   0  0  0  0  0  0  0  0  0  0  0  0
   63.3320   32.0010   52.3280 C   0  0  0  0  0  0  0  0  0  0  0  0
   62.1260   32.6970   52.2240 C   0  0  0  0  0  0  0  0  0  0  0  0
   60.7696   31.7828   47.4213 H   0  0  0  0  0  0  0  0  0  0  0  0
   59.3415   31.6216   48.5069 H   0  0  0  0  0  0  0  0  0  0  0  0
   58.7045   34.6065   46.8890 H   0  0  0  0  0  0  0  0  0  0  0  0
   57.0636   34.8869   45.0311 H   0  0  0  0  0  0  0  0  0  0  0  0
   56.2961   32.9035   43.7240 H   0  0  0  0  0  0  0  0  0  0  0  0
   57.4983   27.5175   43.6678 H   0  0  0  0  0  0  0  0  0  0  0  0
   59.7474   27.8597   44.3197 H   0  0  0  0  0  0  0  0  0  0  0  0
   59.1860   29.4737   44.7699 H   0  0  0  0  0  0  0  0  0  0  0  0
   60.3153   27.7227   46.5832 H   0  0  0  0  0  0  0  0  0  0  0  0
   59.1157   28.9190   47.0874 H   0  0  0  0  0  0  0  0  0  0  0  0
   58.8213   25.9469   46.6909 H   0  0  0  0  0  0  0  0  0  0  0  0
   57.8871   27.0049   47.7540 H   0  0  0  0  0  0  0  0  0  0  0  0
   58.6514   24.9662   45.9348 H   0  0  0  0  0  0  0  0  0  0  0  0
   60.3453   23.1387   45.7700 H   0  0  0  0  0  0  0  0  0  0  0  0
   59.8476   21.0840   44.4419 H   0  0  0  0  0  0  0  0  0  0  0  0
   57.6614   20.8680   43.2492 H   0  0  0  0  0  0  0  0  0  0  0  0
   58.9436   30.3662   46.0278 H   0  0  0  0  0  0  0  0  0  0  0  0
   60.6799   30.9138   49.6889 H   0  0  0  0  0  0  0  0  0  0  0  0
   62.8270   29.6583   49.8874 H   0  0  0  0  0  0  0  0  0  0  0  0
   64.1958   28.6470   52.9160 H   0  0  0  0  0  0  0  0  0  0  0  0
   64.2398   28.2289   51.1440 H   0  0  0  0  0  0  0  0  0  0  0  0
   66.4881   28.2832   53.1653 H   0  0  0  0  0  0  0  0  0  0  0  0
   66.0388   27.0271   51.9362 H   0  0  0  0  0  0  0  0  0  0  0  0
   67.4882   30.0867   52.6329 H   0  0  0  0  0  0  0  0  0  0  0  0
   68.1593   30.3654   50.9841 H   0  0  0  0  0  0  0  0  0  0  0  0
   66.1432   31.8087   51.6834 H   0  0  0  0  0  0  0  0  0  0  0  0
   66.0386   30.9366   50.0967 H   0  0  0  0  0  0  0  0  0  0  0  0
   64.0780   32.3079   53.0759 H   0  0  0  0  0  0  0  0  0  0  0  0
   61.9279   33.5518   52.8874 H   0  0  0  0  0  0  0  0  0  0  0  0
  1  2  2  0
  2  3  1  0
  3  4  1  0
  4  5  2  0
  5  6  1  0
  6  7  2  0
  7  8  1  0
  8  9  1  0
  9 10  1  0
 10 11  2  0
 10 12  1  0
 12 13  1  0
 13 14  1  0
 14 15  1  0
 15 16  1  0
 16 17  1  0
 17 18  2  0
 17 19  1  0
 19 20  1  0
 20 21  2  0
 21 22  1  0
 22 23  2  0
 23 24  1  0
 24 25  2  0
 25 26  1  0
  8 27  2  0
  2 28  1  0
 28 29  1  0
 29 30  2  0
 29 31  2  0
 29 32  1  0
 32 33  2  0
 33 34  1  0
 34 35  2  0
 35 36  1  0
 36 37  1  0
 37 38  1  0
 38 39  1  0
 39 40  1  0
 40 41  1  0
 35 42  1  0
 42 43  2  0
 27  4  1  0
 43 32  1  0
 16 12  1  0
 25 20  1  0
 41 36  1  0
  3 44  1  0
  3 45  1  0
  5 46  1  0
  6 47  1  0
  7 48  1  0
 12 49  1  6
 13 50  1  0
 13 51  1  0
 14 52  1  0
 14 53  1  0
 15 54  1  0
 15 55  1  0
 21 56  1  0
 22 57  1  0
 23 58  1  0
 24 59  1  0
 27 60  1  0
 33 61  1  0
 34 62  1  0
 37 63  1  0
 37 64  1  0
 38 65  1  0
 38 66  1  0
 40 67  1  0
 40 68  1  0
 41 69  1  0
 41 70  1  0
 42 71  1  0
 43 72  1  0
M  CHG  3   9  -1  19  -1  28  -1
M  END
>  <UniqueID>  (52) 
48

>  <SMILES>  (52) 
O=C(Cc1cccc([N-]C(=O)[C@H]2CCCN2C(=O)[N-]c2ccccc2F)c1)[N-]S(=O)(=O)c1ccc(N2CCOCC2)cc1

>  <Energy>  (52) 
93.5268218757249

>  <Genealogy>  (52) 
O=C(Cc1cccc([N-]C(=O)C2CCCN2C(=O)[N-]c2ccccc2F)c1)[N-]S(=O)(=O)c1ccc(N2CCOCC2)cc1 (protonated)
O=C(Cc1cccc([N-]C(=O)[C@H]2CCCN2C(=O)[N-]c2ccccc2F)c1)[N-]S(=O)(=O)c1ccc(N2CCOCC2)cc1 (chirality)
O=C(Cc1cccc([N-]C(=O)[C@H]2CCCN2C(=O)[N-]c2ccccc2F)c1)[N-]S(=O)(=O)c1ccc(N2CCOCC2)cc1 (3D coordinates assigned)
O=C(Cc1cccc([N-]C(=O)[C@H]2CCCN2C(=O)[N-]c2ccccc2F)c1)[N-]S(=O)(=O)c1ccc(N2CCOCC2)cc1 (nonaromatic ring conformer: 93.5268218757249 kcal/mol)

>  <smiles>  (52) 
O=C(Cc1cccc(NC(=O)C2CCCN2C(=O)Nc2ccccc2F)c1)NS(=O)(=O)c1ccc(N2CCOCC2)cc1

>  <score_type>  (52) 
oracle

>  <origin>  (52) 
adg

>  <m_score__min__energy>  (52) 
-14.66

>  <m_primary>  (52) 
energy

$$$$
52:0
     RDKit          3D

 49 50  0  0  0  0  0  0  0  0999 V2000
   63.7400   33.1030   47.2110 C   0  0  0  0  0  0  0  0  0  0  0  0
   62.7800   33.8360   48.1400 C   0  0  0  0  0  0  0  0  0  0  0  0
   61.3940   33.7100   47.6640 N   0  0  0  0  0  0  0  0  0  0  0  0
   61.0420   34.2330   46.3370 C   0  0  0  0  0  0  0  0  0  0  0  0
   59.6910   34.9420   46.3660 C   0  0  0  0  0  0  0  0  0  0  0  0
   60.3850   33.0770   48.4860 C   0  0  0  0  0  0  0  0  0  0  0  0
   59.9540   33.6790   49.6830 C   0  0  0  0  0  0  0  0  0  0  0  0
   58.9890   33.0580   50.4820 C   0  0  0  0  0  0  0  0  0  0  0  0
   58.4510   31.8180   50.1140 C   0  0  0  0  0  0  0  0  0  0  0  0
   57.4570   31.2030   50.9480 N   0  0  0  0  0  0  0  0  0  0  0  0
   57.7670   30.3370   52.0540 C   0  0  0  0  0  0  0  0  0  0  0  0
   58.9550   30.2240   52.4630 O   0  0  0  0  0  0  0  0  0  0  0  0
   56.6580   29.6040   52.7540 C   0  0  0  0  0  0  0  0  0  0  0  0
   55.4440   29.6560   52.0020 O   0  0  0  0  0  0  0  0  0  0  0  0
   54.6590   30.8110   51.8850 C   0  0  0  0  0  0  0  0  0  0  0  0
   55.0840   31.9270   52.2960 O   0  0  0  0  0  0  0  0  0  0  0  0
   53.2870   30.7090   51.2950 C   0  0  0  0  0  0  0  0  0  0  0  0
   52.2670   31.2950   52.2360 C   0  0  0  0  0  0  0  0  0  0  0  0
   52.1870   30.8270   53.5600 C   0  0  0  0  0  0  0  0  0  0  0  0
   51.2370   31.3550   54.4410 C   0  0  0  0  0  0  0  0  0  0  0  0
   50.3530   32.3460   54.0070 C   0  0  0  0  0  0  0  0  0  0  0  0
   50.4110   32.8070   52.6880 C   0  0  0  0  0  0  0  0  0  0  0  0
   51.3600   32.2850   51.8010 C   0  0  0  0  0  0  0  0  0  0  0  0
   51.3950   32.7520   50.4910 O   0  0  0  0  0  0  0  0  0  0  0  0
   58.8590   31.2260   48.9060 C   0  0  0  0  0  0  0  0  0  0  0  0
   59.8190   31.8480   48.1030 C   0  0  0  0  0  0  0  0  0  0  0  0
   64.4735   32.5429   47.8095 H   0  0  0  0  0  0  0  0  0  0  0  0
   63.1747   32.4046   46.5764 H   0  0  0  0  0  0  0  0  0  0  0  0
   64.2648   33.8323   46.5764 H   0  0  0  0  0  0  0  0  0  0  0  0
   62.8553   33.4051   49.1493 H   0  0  0  0  0  0  0  0  0  0  0  0
   63.0512   34.9019   48.1575 H   0  0  0  0  0  0  0  0  0  0  0  0
   61.8151   34.9463   46.0154 H   0  0  0  0  0  0  0  0  0  0  0  0
   60.9783   33.3888   45.6346 H   0  0  0  0  0  0  0  0  0  0  0  0
   59.3838   35.1032   47.4099 H   0  0  0  0  0  0  0  0  0  0  0  0
   59.7750   35.9122   45.8545 H   0  0  0  0  0  0  0  0  0  0  0  0
   58.9403   34.3217   45.8545 H   0  0  0  0  0  0  0  0  0  0  0  0
   60.3794   34.6451   49.9922 H   0  0  0  0  0  0  0  0  0  0  0  0
   58.6496   33.5471   51.4070 H   0  0  0  0  0  0  0  0  0  0  0  0
   56.4560   31.4780   50.8080 H   0  0  0  0  0  0  0  0  0  0  0  0
   56.9520   28.5524   52.8871 H   0  0  0  0  0  0  0  0  0  0  0  0
   56.4839   30.0863   53.7272 H   0  0  0  0  0  0  0  0  0  0  0  0
   53.2600   31.2589   50.3427 H   0  0  0  0  0  0  0  0  0  0  0  0
   53.0489   29.6485   51.1254 H   0  0  0  0  0  0  0  0  0  0  0  0
   52.8753   30.0413   53.9048 H   0  0  0  0  0  0  0  0  0  0  0  0
   51.1860   30.9892   55.4772 H   0  0  0  0  0  0  0  0  0  0  0  0
   49.6109   32.7639   54.7032 H   0  0  0  0  0  0  0  0  0  0  0  0
   49.7090   33.5819   52.3465 H   0  0  0  0  0  0  0  0  0  0  0  0
   58.4202   30.2678   48.5910 H   0  0  0  0  0  0  0  0  0  0  0  0
   60.1347   31.3719   47.1630 H   0  0  0  0  0  0  0  0  0  0  0  0
  1  2  1  0
  2  3  1  0
  3  4  1  0
  4  5  1  0
  3  6  1  0
  6  7  2  0
  7  8  1  0
  8  9  2  0
  9 10  1  0
 10 11  1  0
 11 12  2  0
 11 13  1  0
 13 14  1  0
 14 15  1  0
 15 16  2  0
 15 17  1  0
 17 18  1  0
 18 19  2  0
 19 20  1  0
 20 21  2  0
 21 22  1  0
 22 23  2  0
 23 24  1  0
  9 25  1  0
 25 26  2  0
 26  6  1  0
 23 18  1  0
  1 27  1  0
  1 28  1  0
  1 29  1  0
  2 30  1  0
  2 31  1  0
  4 32  1  0
  4 33  1  0
  5 34  1  0
  5 35  1  0
  5 36  1  0
  7 37  1  0
  8 38  1  0
 10 39  1  0
 13 40  1  0
 13 41  1  0
 17 42  1  0
 17 43  1  0
 19 44  1  0
 20 45  1  0
 21 46  1  0
 22 47  1  0
 25 48  1  0
 26 49  1  0
M  CHG  1  24  -1
M  END
>  <UniqueID>  (53) 
49

>  <SMILES>  (53) 
CCN(CC)c1ccc(NC(=O)COC(=O)Cc2ccccc2[O-])cc1

>  <Energy>  (53) 
47.04063267477012

>  <Genealogy>  (53) 
CCN(CC)c1ccc(NC(=O)COC(=O)Cc2ccccc2[O-])cc1 (protonated)
CCN(CC)c1ccc(NC(=O)COC(=O)Cc2ccccc2[O-])cc1 (3D coordinates assigned)
CCN(CC)c1ccc(NC(=O)COC(=O)Cc2ccccc2[O-])cc1 (optimized conformer: 47.04063267477012 kcal/mol)

>  <smiles>  (53) 
CCN(CC)c1ccc(NC(=O)COC(=O)Cc2ccccc2O)cc1

>  <score_type>  (53) 
oracle

>  <origin>  (53) 
adg

>  <m_score__min__energy>  (53) 
-11.73

>  <m_primary>  (53) 
energy

$$$$
53:0
     RDKit          3D

 59 62  0  0  0  0  0  0  0  0999 V2000
   56.6073   29.8269   42.2233 H   0  0  0  0  0  0  0  0  0  0  0  0
   56.9560   30.6770   42.8280 C   0  0  0  0  0  0  0  0  0  0  0  0
   57.6230   31.7020   42.2350 N   0  0  0  0  0  0  0  0  0  0  0  0
   58.0730   32.7730   42.9410 C   0  0  0  0  0  0  0  0  0  0  0  0
   58.6186   33.5775   42.4261 H   0  0  0  0  0  0  0  0  0  0  0  0
   57.8450   32.8580   44.3250 C   0  0  0  0  0  0  0  0  0  0  0  0
   58.4170   33.9790   45.1170 C   0  0  0  0  0  0  0  0  0  0  0  0
   58.6140   35.0970   44.5700 O   0  0  0  0  0  0  0  0  0  0  0  0
   58.8320   33.8050   46.5210 C   0  0  0  0  0  0  0  0  0  0  0  0
   59.7120   34.7120   47.1230 C   0  0  0  0  0  0  0  0  0  0  0  0
   60.1284   35.5493   46.5437 H   0  0  0  0  0  0  0  0  0  0  0  0
   60.0560   34.5440   48.4650 C   0  0  0  0  0  0  0  0  0  0  0  0
   60.7512   35.2476   48.9462 H   0  0  0  0  0  0  0  0  0  0  0  0
   59.5330   33.5120   49.1780 N   0  0  0  0  0  0  0  0  0  0  0  0
   58.6680   32.6150   48.6230 C   0  0  0  0  0  0  0  0  0  0  0  0
   58.1810   31.6250   49.3140 N   0  0  0  0  0  0  0  0  0  0  0  0
   57.9620   31.5850   50.7330 C   0  0  0  0  0  0  0  0  0  0  0  0
   57.3630   30.5910   51.2220 O   0  0  0  0  0  0  0  0  0  0  0  0
   58.3350   32.6800   51.5830 N   0  0  0  0  0  0  0  0  0  0  0  0
   58.6460   33.5790   51.1520 H   0  0  0  0  0  0  0  0  0  0  0  0
   58.1800   32.6020   53.0350 C   0  0  0  0  0  0  0  0  0  0  0  0
   58.6034   31.6513   53.3912 H   0  0  0  0  0  0  0  0  0  0  0  0
   57.1085   32.6617   53.2764 H   0  0  0  0  0  0  0  0  0  0  0  0
   58.8980   33.7570   53.7250 C   0  0  0  0  0  0  0  0  0  0  0  0
   58.8229   33.6362   54.8158 H   0  0  0  0  0  0  0  0  0  0  0  0
   59.9573   33.7598   53.4285 H   0  0  0  0  0  0  0  0  0  0  0  0
   58.4317   34.7081   53.4285 H   0  0  0  0  0  0  0  0  0  0  0  0
   58.3230   32.7380   47.2720 C   0  0  0  0  0  0  0  0  0  0  0  0
   57.6555   32.0004   46.8025 H   0  0  0  0  0  0  0  0  0  0  0  0
   57.1230   31.8200   44.9400 C   0  0  0  0  0  0  0  0  0  0  0  0
   56.8780   31.8872   46.0103 H   0  0  0  0  0  0  0  0  0  0  0  0
   56.7120   30.7000   44.2030 C   0  0  0  0  0  0  0  0  0  0  0  0
   56.0210   29.5950   44.8100 N   0  0  0  0  0  0  0  0  0  0  0  0
   56.6080   28.4500   45.4500 C   0  0  0  0  0  0  0  0  0  0  0  0
   55.8880   27.4320   45.6340 O   0  0  0  0  0  0  0  0  0  0  0  0
   58.0310   28.4080   45.8590 C   0  0  0  0  0  0  0  0  0  0  0  0
   58.9700   27.7260   45.0700 C   0  0  0  0  0  0  0  0  0  0  0  0
   58.6551   27.2606   44.1243 H   0  0  0  0  0  0  0  0  0  0  0  0
   60.3020   27.6350   45.4790 C   0  0  0  0  0  0  0  0  0  0  0  0
   61.0332   27.1056   44.8504 H   0  0  0  0  0  0  0  0  0  0  0  0
   60.7090   28.2130   46.6820 C   0  0  0  0  0  0  0  0  0  0  0  0
   61.7574   28.1240   47.0029 H   0  0  0  0  0  0  0  0  0  0  0  0
   59.7900   28.9080   47.4870 C   0  0  0  0  0  0  0  0  0  0  0  0
   60.2900   29.5400   48.7720 C   0  0  0  0  0  0  0  0  0  0  0  0
   59.4250   29.9469   49.3163 H   0  0  0  0  0  0  0  0  0  0  0  0
   60.8110   28.7499   49.3325 H   0  0  0  0  0  0  0  0  0  0  0  0
   61.2860   30.6550   48.5630 C   0  0  0  0  0  0  0  0  0  0  0  0
   61.4490   31.2350   47.2930 C   0  0  0  0  0  0  0  0  0  0  0  0
   60.8199   30.9032   46.4539 H   0  0  0  0  0  0  0  0  0  0  0  0
   62.4080   32.2320   47.0930 C   0  0  0  0  0  0  0  0  0  0  0  0
   62.5240   32.6904   46.0998 H   0  0  0  0  0  0  0  0  0  0  0  0
   63.2200   32.6480   48.1520 C   0  0  0  0  0  0  0  0  0  0  0  0
   63.9757   33.4310   47.9914 H   0  0  0  0  0  0  0  0  0  0  0  0
   63.0710   32.0680   49.4160 C   0  0  0  0  0  0  0  0  0  0  0  0
   63.7122   32.3928   50.2487 H   0  0  0  0  0  0  0  0  0  0  0  0
   62.1080   31.0760   49.6220 C   0  0  0  0  0  0  0  0  0  0  0  0
   61.9931   30.6228   50.6177 H   0  0  0  0  0  0  0  0  0  0  0  0
   58.4570   29.0320   47.0440 C   0  0  0  0  0  0  0  0  0  0  0  0
   57.7417   29.6245   47.6333 H   0  0  0  0  0  0  0  0  0  0  0  0
  1  2  1  0
  2  3  2  0
  3  4  1  0
  4  5  1  0
  4  6  2  0
  6  7  1  0
  7  8  2  0
  7  9  1  0
  9 10  1  0
 10 11  1  0
 10 12  2  0
 12 13  1  0
 12 14  1  0
 14 15  1  0
 15 16  2  0
 16 17  1  0
 17 18  2  0
 17 19  1  0
 19 20  1  0
 19 21  1  0
 21 22  1  0
 21 23  1  0
 21 24  1  0
 24 25  1  0
 24 26  1  0
 24 27  1  0
 15 28  1  0
 28 29  1  0
  6 30  1  0
 30 31  1  0
 30 32  2  0
 32 33  1  0
 33 34  1  0
 34 35  2  0
 34 36  1  0
 36 37  2  0
 37 38  1  0
 37 39  1  0
 39 40  1  0
 39 41  2  0
 41 42  1  0
 41 43  1  0
 43 44  1  0
 44 45  1  0
 44 46  1  0
 44 47  1  0
 47 48  2  0
 48 49  1  0
 48 50  1  0
 50 51  1  0
 50 52  2  0
 52 53  1  0
 52 54  1  0
 54 55  1  0
 54 56  2  0
 56 57  1  0
 43 58  2  0
 58 59  1  0
 32  2  1  0
 58 36  1  0
 28  9  2  0
 56 47  1  0
M  CHG  2  14  -1  33  -1
M  END
>  <UniqueID>  (54) 
50

>  <SMILES>  (54) 
CCNC(=O)/N=c1/cc(C(=O)c2cncc([N-]C(=O)c3cccc(Cc4ccccc4)c3)c2)cc[n-]1

>  <Energy>  (54) 
73.45468271971562

>  <Genealogy>  (54) 
CCNC(=O)N=c1cc(C(=O)c2cncc([N-]C(=O)c3cccc(Cc4ccccc4)c3)c2)cc[n-]1 (protonated)
CCNC(=O)/N=c1/cc(C(=O)c2cncc([N-]C(=O)c3cccc(Cc4ccccc4)c3)c2)cc[n-]1 (cis-trans isomerization)
CCNC(=O)/N=c1/cc(C(=O)c2cncc([N-]C(=O)c3cccc(Cc4ccccc4)c3)c2)cc[n-]1 (3D coordinates assigned)
CCNC(=O)/N=c1/cc(C(=O)c2cncc([N-]C(=O)c3cccc(Cc4ccccc4)c3)c2)cc[n-]1 (optimized conformer: 73.45468271971562 kcal/mol)

>  <smiles>  (54) 
CCNC(=O)N=c1cc(C(=O)c2cncc(NC(=O)c3cccc(Cc4ccccc4)c3)c2)cc[nH]1

>  <score_type>  (54) 
oracle

>  <origin>  (54) 
adg

>  <m_score__min__energy>  (54) 
-13.140000000000001

>  <m_primary>  (54) 
energy

$$$$
54:0
     RDKit          3D

 58 62  0  0  0  0  0  0  0  0999 V2000
   58.4640   27.4710   43.4320 O   0  0  0  0  0  0  0  0  0  0  0  0
   58.4650   26.9740   44.5910 C   0  0  0  0  0  0  0  0  0  0  0  0
   57.2700   26.1760   45.0580 C   0  0  0  0  0  0  0  0  0  0  0  0
   57.4190   24.7100   44.7390 C   0  0  0  0  0  0  0  0  0  0  0  0
   58.4310   23.9550   45.3530 C   0  0  0  0  0  0  0  0  0  0  0  0
   58.5900   22.6020   45.0370 C   0  0  0  0  0  0  0  0  0  0  0  0
   57.7480   21.9970   44.1020 C   0  0  0  0  0  0  0  0  0  0  0  0
   56.7410   22.7450   43.4740 C   0  0  0  0  0  0  0  0  0  0  0  0
   55.8980   22.1540   42.5350 O   0  0  0  0  0  0  0  0  0  0  0  0
   56.5810   24.0990   43.7910 C   0  0  0  0  0  0  0  0  0  0  0  0
   59.6170   27.1910   45.4220 N   0  0  0  0  0  0  0  0  0  0  0  0
   59.6500   27.7810   46.5800 C   0  0  0  0  0  0  0  0  0  0  0  0
   59.1580   29.0150   46.8270 N   0  0  0  0  0  0  0  0  0  0  0  0
   59.3540   29.3790   48.1230 C   0  0  0  0  0  0  0  0  0  0  0  0
   58.9140   30.7150   48.6440 C   0  0  0  0  0  0  0  0  0  0  0  0
   60.0600   31.4770   49.2630 C   0  0  0  0  0  0  0  0  0  0  0  0
   60.1790   31.4950   50.5200 O   0  0  0  0  0  0  0  0  0  0  0  0
   61.0640   32.1160   48.4510 N   0  0  0  0  0  0  0  0  0  0  0  0
   62.3260   31.4710   48.1260 C   0  0  0  0  0  0  0  0  0  0  0  0
   63.0190   32.3890   47.1270 C   0  0  0  0  0  0  0  0  0  0  0  0
   62.3110   33.7360   47.2390 C   0  0  0  0  0  0  0  0  0  0  0  0
   60.9370   33.4340   47.8410 C   0  0  1  0  0  0  0  0  0  0  0  0
   59.8720   33.4150   46.7790 C   0  0  0  0  0  0  0  0  0  0  0  0
   59.4860   32.2900   46.1420 N   0  0  0  0  0  0  0  0  0  0  0  0
   58.5370   32.7100   45.2860 C   0  0  0  0  0  0  0  0  0  0  0  0
   57.8050   31.8080   44.3640 C   0  0  0  0  0  0  0  0  0  0  0  0
   57.7090   32.0870   42.9880 C   0  0  0  0  0  0  0  0  0  0  0  0
   57.0130   31.2230   42.1380 C   0  0  0  0  0  0  0  0  0  0  0  0
   56.4020   30.0770   42.6480 C   0  0  0  0  0  0  0  0  0  0  0  0
   56.4850   29.7910   44.0100 C   0  0  0  0  0  0  0  0  0  0  0  0
   57.1840   30.6500   44.8650 C   0  0  0  0  0  0  0  0  0  0  0  0
   58.3790   34.0750   45.4230 C   0  0  0  0  0  0  0  0  0  0  0  0
   59.2270   34.5240   46.3660 N   0  0  0  0  0  0  0  0  0  0  0  0
   60.0180   28.4380   48.9090 C   0  0  0  0  0  0  0  0  0  0  0  0
   60.3680   27.1070   47.9400 S   0  0  0  0  0  0  0  0  0  0  0  0
   57.1652   26.2951   46.1465 H   0  0  0  0  0  0  0  0  0  0  0  0
   56.3799   26.5524   44.5326 H   0  0  0  0  0  0  0  0  0  0  0  0
   59.1011   24.4293   46.0851 H   0  0  0  0  0  0  0  0  0  0  0  0
   59.3800   22.0133   45.5261 H   0  0  0  0  0  0  0  0  0  0  0  0
   57.8744   20.9320   43.8574 H   0  0  0  0  0  0  0  0  0  0  0  0
   56.0130   22.3220   41.5420 H   0  0  0  0  0  0  0  0  0  0  0  0
   55.7951   24.6878   43.2953 H   0  0  0  0  0  0  0  0  0  0  0  0
   58.5022   31.3044   47.8115 H   0  0  0  0  0  0  0  0  0  0  0  0
   58.1541   30.5469   49.4213 H   0  0  0  0  0  0  0  0  0  0  0  0
   62.9411   31.3562   49.0307 H   0  0  0  0  0  0  0  0  0  0  0  0
   62.1699   30.4651   47.7092 H   0  0  0  0  0  0  0  0  0  0  0  0
   64.0846   32.4943   47.3789 H   0  0  0  0  0  0  0  0  0  0  0  0
   62.9658   31.9877   46.1042 H   0  0  0  0  0  0  0  0  0  0  0  0
   62.8769   34.4131   47.8958 H   0  0  0  0  0  0  0  0  0  0  0  0
   62.2251   34.2316   46.2607 H   0  0  0  0  0  0  0  0  0  0  0  0
   60.6408   34.2033   48.5693 H   0  0  0  0  0  0  0  0  0  0  0  0
   58.1846   32.9906   42.5789 H   0  0  0  0  0  0  0  0  0  0  0  0
   56.9467   31.4473   41.0632 H   0  0  0  0  0  0  0  0  0  0  0  0
   55.8551   29.3995   41.9758 H   0  0  0  0  0  0  0  0  0  0  0  0
   56.0005   28.8893   44.4127 H   0  0  0  0  0  0  0  0  0  0  0  0
   57.2484   30.4176   45.9382 H   0  0  0  0  0  0  0  0  0  0  0  0
   57.6727   34.6959   44.8523 H   0  0  0  0  0  0  0  0  0  0  0  0
   60.2689   28.5464   49.9745 H   0  0  0  0  0  0  0  0  0  0  0  0
  1  2  2  0
  2  3  1  0
  3  4  1  0
  4  5  2  0
  5  6  1  0
  6  7  2  0
  7  8  1  0
  8  9  1  0
  8 10  2  0
  2 11  1  0
 11 12  2  3
 12 13  1  0
 13 14  1  0
 14 15  1  0
 15 16  1  0
 16 17  2  0
 16 18  1  0
 18 19  1  0
 19 20  1  0
 20 21  1  0
 21 22  1  0
 22 23  1  0
 23 24  2  0
 24 25  1  0
 25 26  1  0
 26 27  2  0
 27 28  1  0
 28 29  2  0
 29 30  1  0
 30 31  2  0
 25 32  2  0
 32 33  1  0
 14 34  2  0
 34 35  1  0
 10  4  1  0
 35 12  1  0
 22 18  1  0
 33 23  1  0
 31 26  1  0
  3 36  1  0
  3 37  1  0
  5 38  1  0
  6 39  1  0
  7 40  1  0
  9 41  1  0
 10 42  1  0
 15 43  1  0
 15 44  1  0
 19 45  1  0
 19 46  1  0
 20 47  1  0
 20 48  1  0
 21 49  1  0
 21 50  1  0
 22 51  1  1
 27 52  1  0
 28 53  1  0
 29 54  1  0
 30 55  1  0
 31 56  1  0
 32 57  1  0
 34 58  1  0
M  CHG  2  13  -1  33  -1
M  END
>  <UniqueID>  (55) 
51

>  <SMILES>  (55) 
O=C(Cc1cccc(O)c1)N=c1[n-]c(CC(=O)N2CCC[C@H]2c2nc(-c3ccccc3)c[n-]2)cs1

>  <Energy>  (55) 
123.01714487114442

>  <Genealogy>  (55) 
O=C(Cc1cccc(O)c1)N=c1[n-]c(CC(=O)N2CCCC2c2nc(-c3ccccc3)c[n-]2)cs1 (protonated)
O=C(Cc1cccc(O)c1)N=c1[n-]c(CC(=O)N2CCC[C@H]2c2nc(-c3ccccc3)c[n-]2)cs1 (chirality)
O=C(Cc1cccc(O)c1)N=c1[n-]c(CC(=O)N2CCC[C@H]2c2nc(-c3ccccc3)c[n-]2)cs1 (3D coordinates assigned)
O=C(Cc1cccc(O)c1)N=c1[n-]c(CC(=O)N2CCC[C@H]2c2nc(-c3ccccc3)c[n-]2)cs1 (nonaromatic ring conformer: 123.01714487114442 kcal/mol)

>  <smiles>  (55) 
O=C(Cc1cccc(O)c1)N=c1[nH]c(CC(=O)N2CCCC2c2nc(-c3ccccc3)c[nH]2)cs1

>  <score_type>  (55) 
oracle

>  <origin>  (55) 
adg

>  <m_score__min__energy>  (55) 
-12.67

>  <m_primary>  (55) 
energy

$$$$
55:0
     RDKit          3D

 96 97  0  0  0  0  0  0  0  0999 V2000
   61.2115   28.7201   45.7859 H   0  0  0  0  0  0  0  0  0  0  0  0
   60.4380   29.4890   45.6430 C   0  0  0  0  0  0  0  0  0  0  0  0
   60.4070   30.6100   46.5850 C   0  0  0  0  0  0  0  0  0  0  0  0
   59.5635   31.3132   46.5211 H   0  0  0  0  0  0  0  0  0  0  0  0
   57.6810   27.7230   44.5060 C   0  0  0  0  0  0  0  0  0  0  0  0
   59.2840   29.1080   52.9980 C   0  0  0  0  0  0  0  0  0  0  0  0
   56.6929   27.5021   44.0761 H   0  0  0  0  0  0  0  0  0  0  0  0
   59.8800   26.5400   47.1300 C   0  0  0  0  0  0  0  0  0  0  0  0
   60.8791   26.0801   47.1485 H   0  0  0  0  0  0  0  0  0  0  0  0
   60.5330   27.5920   51.5940 C   0  0  0  0  0  0  0  0  0  0  0  0
   60.9310   27.1395   52.5143 H   0  0  0  0  0  0  0  0  0  0  0  0
   60.7910   26.9630   50.2790 C   0  0  0  0  0  0  0  0  0  0  0  0
   61.0573   25.8967   50.2335 H   0  0  0  0  0  0  0  0  0  0  0  0
   59.6560   27.4920   48.0770 C   0  0  0  0  0  0  0  0  0  0  0  0
   58.1070   29.0080   44.7260 C   0  0  0  0  0  0  0  0  0  0  0  0
   54.3797   28.7898   54.5513 H   0  0  0  0  0  0  0  0  0  0  0  0
   54.4790   29.0690   53.4920 C   0  0  0  0  0  0  0  0  0  0  0  0
   58.4724   25.0626   46.2617 H   0  0  0  0  0  0  0  0  0  0  0  0
   61.3510   30.8360   47.5300 C   0  0  0  0  0  0  0  0  0  0  0  0
   59.2243   26.2385   44.0371 H   0  0  0  0  0  0  0  0  0  0  0  0
   59.5760   29.3350   44.6050 C   0  0  0  0  0  0  0  0  0  0  0  0
   59.9824   29.4590   43.5904 H   0  0  0  0  0  0  0  0  0  0  0  0
   58.9560   26.0310   46.0660 C   0  0  0  0  0  0  0  0  0  0  0  0
   55.4950   28.5220   52.8000 C   0  0  0  0  0  0  0  0  0  0  0  0
   56.7890   29.2200   52.6930 C   0  0  0  0  0  0  0  0  0  0  0  0
   56.7940   30.2940   52.0000 O   0  0  0  0  0  0  0  0  0  0  0  0
   59.8130   28.7130   51.6510 C   0  0  0  0  0  0  0  0  0  0  0  0
   59.6166   29.3186   50.7539 H   0  0  0  0  0  0  0  0  0  0  0  0
   60.7050   27.6780   49.1280 C   0  0  0  0  0  0  0  0  0  0  0  0
   61.4651   28.4540   48.9546 H   0  0  0  0  0  0  0  0  0  0  0  0
   53.4860   30.0150   52.9420 C   0  0  0  0  0  0  0  0  0  0  0  0
   52.7570   30.8080   53.8470 C   0  0  0  0  0  0  0  0  0  0  0  0
   53.0131   30.7905   54.9166 H   0  0  0  0  0  0  0  0  0  0  0  0
   51.7190   31.6110   53.4020 C   0  0  0  0  0  0  0  0  0  0  0  0
   51.1716   32.2468   54.1134 H   0  0  0  0  0  0  0  0  0  0  0  0
   51.3670   31.6130   52.0470 C   0  0  0  0  0  0  0  0  0  0  0  0
   50.2640   32.3510   51.6120 O   0  0  0  0  0  0  0  0  0  0  0  0
   52.0760   30.8450   51.1380 C   0  0  0  0  0  0  0  0  0  0  0  0
   51.6560   30.8500   49.7790 O   0  0  0  0  0  0  0  0  0  0  0  0
   51.7130   29.7450   48.8800 C   0  0  0  0  0  0  0  0  0  0  0  0
   51.7614   28.8077   49.4537 H   0  0  0  0  0  0  0  0  0  0  0  0
   50.8139   29.7411   48.2463 H   0  0  0  0  0  0  0  0  0  0  0  0
   52.6078   29.8336   48.2463 H   0  0  0  0  0  0  0  0  0  0  0  0
   53.1690   30.0770   51.5750 C   0  0  0  0  0  0  0  0  0  0  0  0
   53.7775   29.5233   50.8449 H   0  0  0  0  0  0  0  0  0  0  0  0
   57.8920   27.6170   54.4130 C   0  0  0  0  0  0  0  0  0  0  0  0
   57.9568   28.0813   55.4081 H   0  0  0  0  0  0  0  0  0  0  0  0
   56.9161   27.1217   54.3023 H   0  0  0  0  0  0  0  0  0  0  0  0
   58.6951   26.8735   54.3023 H   0  0  0  0  0  0  0  0  0  0  0  0
   57.0700   30.1080   44.5520 C   0  0  0  0  0  0  0  0  0  0  0  0
   56.7388   30.4593   45.5404 H   0  0  0  0  0  0  0  0  0  0  0  0
   57.5143   30.9460   43.9949 H   0  0  0  0  0  0  0  0  0  0  0  0
   56.2073   29.7138   43.9949 H   0  0  0  0  0  0  0  0  0  0  0  0
   58.4730   28.4030   48.0830 C   0  0  0  0  0  0  0  0  0  0  0  0
   58.1858   28.6242   49.1216 H   0  0  0  0  0  0  0  0  0  0  0  0
   58.7288   29.3396   47.5659 H   0  0  0  0  0  0  0  0  0  0  0  0
   57.6329   27.9164   47.5659 H   0  0  0  0  0  0  0  0  0  0  0  0
   59.9940   30.2360   53.7240 C   0  0  0  0  0  0  0  0  0  0  0  0
   59.9013   30.0887   54.8101 H   0  0  0  0  0  0  0  0  0  0  0  0
   61.0578   30.2400   53.4440 H   0  0  0  0  0  0  0  0  0  0  0  0
   59.5375   31.1969   53.4440 H   0  0  0  0  0  0  0  0  0  0  0  0
   58.0410   28.6850   53.3460 C   0  0  0  0  0  0  0  0  0  0  0  0
   55.3590   27.5464   52.3103 H   0  0  0  0  0  0  0  0  0  0  0  0
   58.6490   26.6300   44.8890 C   0  0  0  0  0  0  0  0  0  0  0  0
   60.9230   30.8530   48.9610 C   0  0  0  0  0  0  0  0  0  0  0  0
   60.1653   30.1373   49.3126 H   0  0  0  0  0  0  0  0  0  0  0  0
   61.4620   31.7450   49.8310 C   0  0  0  0  0  0  0  0  0  0  0  0
   60.7227   32.3295   50.3983 H   0  0  0  0  0  0  0  0  0  0  0  0
   62.9180   32.0790   50.1600 C   0  0  0  0  0  0  0  0  0  0  0  0
   63.6420   33.1020   49.5770 C   0  0  0  0  0  0  0  0  0  0  0  0
   63.0470   34.2620   48.8290 C   0  0  0  0  0  0  0  0  0  0  0  0
   62.6663   35.0042   49.5461 H   0  0  0  0  0  0  0  0  0  0  0  0
   63.8188   34.7253   48.1968 H   0  0  0  0  0  0  0  0  0  0  0  0
   62.2205   33.9055   48.1968 H   0  0  0  0  0  0  0  0  0  0  0  0
   65.1430   33.0360   49.6330 C   0  0  0  0  0  0  0  0  0  0  0  0
   65.4964   32.2645   48.9331 H   0  0  0  0  0  0  0  0  0  0  0  0
   65.5496   34.0198   49.3559 H   0  0  0  0  0  0  0  0  0  0  0  0
   65.6190   32.6890   51.0430 C   0  0  0  0  0  0  0  0  0  0  0  0
   66.7184   32.6957   51.0786 H   0  0  0  0  0  0  0  0  0  0  0  0
   65.2430   33.4269   51.7669 H   0  0  0  0  0  0  0  0  0  0  0  0
   65.1040   31.3130   51.3800 C   0  0  0  0  0  0  0  0  0  0  0  0
   65.5282   30.5926   50.6651 H   0  0  0  0  0  0  0  0  0  0  0  0
   65.4087   31.0853   52.4121 H   0  0  0  0  0  0  0  0  0  0  0  0
   63.5550   31.2260   51.3150 C   0  0  0  0  0  0  0  0  0  0  0  0
   62.9810   31.7470   52.6690 C   0  0  0  0  0  0  0  0  0  0  0  0
   63.5125   31.2645   53.5025 H   0  0  0  0  0  0  0  0  0  0  0  0
   63.1165   32.8369   52.7296 H   0  0  0  0  0  0  0  0  0  0  0  0
   61.9092   31.5068   52.7296 H   0  0  0  0  0  0  0  0  0  0  0  0
   63.2160   29.6990   51.1970 C   0  0  0  0  0  0  0  0  0  0  0  0
   63.1199   29.2659   52.2036 H   0  0  0  0  0  0  0  0  0  0  0  0
   62.2684   29.5748   50.6523 H   0  0  0  0  0  0  0  0  0  0  0  0
   64.0220   29.1855   50.6523 H   0  0  0  0  0  0  0  0  0  0  0  0
   62.6710   31.4710   47.1270 C   0  0  0  0  0  0  0  0  0  0  0  0
   63.2375   31.7435   48.0297 H   0  0  0  0  0  0  0  0  0  0  0  0
   63.2550   30.7553   46.5298 H   0  0  0  0  0  0  0  0  0  0  0  0
   62.4763   32.3740   46.5298 H   0  0  0  0  0  0  0  0  0  0  0  0
  1  2  1  0
  2  3  2  3
  3  4  1  0
  3  5  1  0
  5  6  2  3
  6  7  1  0
  6  8  1  0
  8  9  1  0
  8 10  2  0
 10 11  1  0
 10 12  1  0
 12 13  1  0
 12 14  2  0
 14 15  1  0
 15 16  1  0
 15 17  2  0
 17 18  1  0
 17 19  1  0
 19 20  1  0
 19 21  2  3
 21 22  1  0
 21 23  1  0
 23 24  2  3
 24 25  1  0
 25 26  2  0
 25 27  1  0
 27 28  1  0
 27 29  2  0
 29 30  1  0
 29 31  1  0
 31 32  2  0
 32 33  1  0
 32 34  1  0
 34 35  1  0
 34 36  2  0
 36 37  1  0
 36 38  1  0
 38 39  1  0
 39 40  1  0
 40 41  1  0
 40 42  1  0
 40 43  1  0
 38 44  2  0
 44 45  1  0
 24 46  1  0
 46 47  1  0
 46 48  1  0
 46 49  1  0
 23 50  1  0
 50 51  1  0
 50 52  1  0
 50 53  1  0
 14 54  1  0
 54 55  1  0
 54 56  1  0
 54 57  1  0
  5 58  1  0
 58 59  1  0
 58 60  1  0
 58 61  1  0
  2 62  1  0
 62 63  1  0
 62 64  2  3
 64 65  1  0
 65 66  1  0
 65 67  2  3
 67 68  1  0
 67 69  1  0
 69 70  2  0
 70 71  1  0
 71 72  1  0
 71 73  1  0
 71 74  1  0
 70 75  1  0
 75 76  1  0
 75 77  1  0
 75 78  1  0
 78 79  1  0
 78 80  1  0
 78 81  1  0
 81 82  1  0
 81 83  1  0
 81 84  1  0
 84 85  1  0
 85 86  1  0
 85 87  1  0
 85 88  1  0
 84 89  1  0
 89 90  1  0
 89 91  1  0
 89 92  1  0
 64 93  1  0
 93 94  1  0
 93 95  1  0
 93 96  1  0
 44 31  1  0
 84 69  1  0
M  CHG  1  37  -1
M  END
>  <UniqueID>  (56) 
52

>  <SMILES>  (56) 
COc1cc(/C=C/C(=O)C(C)=C(C)C=CC=C/C(C)=C\C=CC=C(C)C=CC=C(C)C=CC2=C(C)CCCC2(C)C)ccc1[O-]

>  <Energy>  (56) 
217.13661581801162

>  <Genealogy>  (56) 
COc1cc(C=CC(=O)C(C)=C(C)C=CC=CC(C)=CC=CC=C(C)C=CC=C(C)C=CC2=C(C)CCCC2(C)C)ccc1[O-] (protonated)
COc1cc(/C=C/C(=O)C(C)=C(C)C=CC=C/C(C)=C\C=CC=C(C)C=CC=C(C)C=CC2=C(C)CCCC2(C)C)ccc1[O-] (cis-trans isomerization)
COc1cc(/C=C/C(=O)C(C)=C(C)C=CC=C/C(C)=C\C=CC=C(C)C=CC=C(C)C=CC2=C(C)CCCC2(C)C)ccc1[O-] (3D coordinates assigned)
COc1cc(/C=C/C(=O)C(C)=C(C)C=CC=C/C(C)=C\C=CC=C(C)C=CC=C(C)C=CC2=C(C)CCCC2(C)C)ccc1[O-] (nonaromatic ring conformer: 217.13661581801162 kcal/mol)

>  <smiles>  (56) 
COc1cc(C=CC(=O)C(C)=C(C)C=CC=CC(C)=CC=CC=C(C)C=CC=C(C)C=CC2=C(C)CCCC2(C)C)ccc1O

>  <score_type>  (56) 
oracle

>  <origin>  (56) 
adg

>  <m_score__min__energy>  (56) 
-13.65

>  <m_primary>  (56) 
energy

$$$$
56:0
     RDKit          3D

 55 58  0  0  0  0  0  0  0  0999 V2000
   57.8610   26.5900   47.4420 C   0  0  0  0  0  0  0  0  0  0  0  0
   58.0380   27.1460   46.2320 C   0  0  0  0  0  0  0  0  0  0  0  0
   57.6500   26.6110   44.9930 C   0  0  0  0  0  0  0  0  0  0  0  0
   57.2440   25.3720   44.6520 C   0  0  0  0  0  0  0  0  0  0  0  0
   55.9950   24.7300   45.0930 C   0  0  0  0  0  0  0  0  0  0  0  0
   55.6630   23.4480   44.8470 N   0  0  0  0  0  0  0  0  0  0  0  0
   54.3980   23.3590   45.3150 C   0  0  0  0  0  0  0  0  0  0  0  0
   53.7370   22.2900   45.2790 O   0  0  0  0  0  0  0  0  0  0  0  0
   53.8960   24.5090   45.8150 N   0  0  0  0  0  0  0  0  0  0  0  0
   54.9160   25.3680   45.6530 C   0  0  0  0  0  0  0  0  0  0  0  0
   54.8580   26.7100   46.0050 O   0  0  0  0  0  0  0  0  0  0  0  0
   57.7760   27.6380   44.0710 C   0  0  0  0  0  0  0  0  0  0  0  0
   58.3050   28.7190   44.7470 C   0  0  0  0  0  0  0  0  0  0  0  0
   58.6350   30.0370   44.1160 C   0  0  0  0  0  0  0  0  0  0  0  0
   58.4650   28.4230   46.0570 N   0  0  0  0  0  0  0  0  0  0  0  0
   58.9720   29.3150   47.0660 C   0  0  0  0  0  0  0  0  0  0  0  0
   58.5110   30.6370   47.1400 C   0  0  0  0  0  0  0  0  0  0  0  0
   59.0150   31.5050   48.1120 C   0  0  0  0  0  0  0  0  0  0  0  0
   59.9950   31.0680   49.0180 C   0  0  0  0  0  0  0  0  0  0  0  0
   60.5230   31.9910   50.0480 C   0  0  0  0  0  0  0  0  0  0  0  0
   59.7640   32.3550   50.9870 O   0  0  0  0  0  0  0  0  0  0  0  0
   61.8740   32.4920   49.9970 N   0  0  0  0  0  0  0  0  0  0  0  0
   62.9550   31.7000   49.3880 C   0  0  0  0  0  0  0  0  0  0  0  0
   64.2660   31.7880   50.2010 C   0  0  0  0  0  0  0  0  0  0  0  0
   64.3400   32.9780   51.0780 N   0  0  0  0  0  0  0  0  0  0  0  0
   66.0020   33.3760   51.4400 S   0  0  0  0  0  0  0  0  0  0  0  0
   67.1080   32.8440   50.1450 C   0  0  0  0  0  0  0  0  0  0  0  0
   66.1260   34.8650   51.6000 O   0  0  0  0  0  0  0  0  0  0  0  0
   66.4080   32.7170   52.7290 O   0  0  0  0  0  0  0  0  0  0  0  0
   63.6480   34.1360   50.4990 C   0  0  0  0  0  0  0  0  0  0  0  0
   62.1490   33.8470   50.4950 C   0  0  0  0  0  0  0  0  0  0  0  0
   60.4420   29.7350   48.9540 C   0  0  0  0  0  0  0  0  0  0  0  0
   61.3890   29.2790   49.8130 F   0  0  0  0  0  0  0  0  0  0  0  0
   59.9370   28.8700   47.9790 C   0  0  0  0  0  0  0  0  0  0  0  0
   58.2121   27.1125   48.3441 H   0  0  0  0  0  0  0  0  0  0  0  0
   57.3650   25.6122   47.5307 H   0  0  0  0  0  0  0  0  0  0  0  0
   57.9015   24.7915   43.9881 H   0  0  0  0  0  0  0  0  0  0  0  0
   57.5063   27.5992   43.0053 H   0  0  0  0  0  0  0  0  0  0  0  0
   58.8219   30.7833   44.9022 H   0  0  0  0  0  0  0  0  0  0  0  0
   59.5340   29.9296   43.4913 H   0  0  0  0  0  0  0  0  0  0  0  0
   57.7915   30.3659   43.4913 H   0  0  0  0  0  0  0  0  0  0  0  0
   57.7496   30.9922   46.4301 H   0  0  0  0  0  0  0  0  0  0  0  0
   58.6415   32.5381   48.1680 H   0  0  0  0  0  0  0  0  0  0  0  0
   62.6388   30.6477   49.3370 H   0  0  0  0  0  0  0  0  0  0  0  0
   63.1497   32.1062   48.3845 H   0  0  0  0  0  0  0  0  0  0  0  0
   64.3474   30.8880   50.8282 H   0  0  0  0  0  0  0  0  0  0  0  0
   65.0901   31.8689   49.4769 H   0  0  0  0  0  0  0  0  0  0  0  0
   68.0136   32.4084   50.5923 H   0  0  0  0  0  0  0  0  0  0  0  0
   66.6068   32.0884   49.5222 H   0  0  0  0  0  0  0  0  0  0  0  0
   67.3854   33.7072   49.5222 H   0  0  0  0  0  0  0  0  0  0  0  0
   63.8523   35.0318   51.1038 H   0  0  0  0  0  0  0  0  0  0  0  0
   64.0019   34.3144   49.4729 H   0  0  0  0  0  0  0  0  0  0  0  0
   61.7625   33.9383   51.5208 H   0  0  0  0  0  0  0  0  0  0  0  0
   61.6548   34.5710   49.8305 H   0  0  0  0  0  0  0  0  0  0  0  0
   60.2998   27.8328   47.9282 H   0  0  0  0  0  0  0  0  0  0  0  0
  1  2  2  0
  2  3  1  0
  3  4  2  3
  4  5  1  0
  5  6  1  0
  6  7  1  0
  7  8  2  0
  7  9  1  0
  9 10  1  0
 10 11  1  0
  3 12  1  0
 12 13  2  0
 13 14  1  0
 13 15  1  0
 15 16  1  0
 16 17  2  0
 17 18  1  0
 18 19  2  0
 19 20  1  0
 20 21  2  0
 20 22  1  0
 22 23  1  0
 23 24  1  0
 24 25  1  0
 25 26  1  0
 26 27  1  0
 26 28  2  0
 26 29  2  0
 25 30  1  0
 30 31  1  0
 19 32  1  0
 32 33  1  0
 32 34  2  0
 15  2  1  0
 34 16  1  0
 10  5  2  0
 31 22  1  0
  1 35  1  0
  1 36  1  0
  4 37  1  0
 12 38  1  0
 14 39  1  0
 14 40  1  0
 14 41  1  0
 17 42  1  0
 18 43  1  0
 23 44  1  0
 23 45  1  0
 24 46  1  0
 24 47  1  0
 27 48  1  0
 27 49  1  0
 27 50  1  0
 30 51  1  0
 30 52  1  0
 31 53  1  0
 31 54  1  0
 34 55  1  0
M  CHG  3   6  -1   9  -1  11  -1
M  END
>  <UniqueID>  (57) 
53

>  <SMILES>  (57) 
C=c1c(=Cc2[n-]c(=O)[n-]c2[O-])cc(C)n1-c1ccc(C(=O)N2CCN(S(C)(=O)=O)CC2)c(F)c1

>  <Energy>  (57) 
137.62781061052084

>  <Genealogy>  (57) 
C=c1c(=Cc2[n-]c(=O)[n-]c2[O-])cc(C)n1-c1ccc(C(=O)N2CCN(S(C)(=O)=O)CC2)c(F)c1 (protonated)
C=c1c(=Cc2[n-]c(=O)[n-]c2[O-])cc(C)n1-c1ccc(C(=O)N2CCN(S(C)(=O)=O)CC2)c(F)c1 (3D coordinates assigned)
C=c1c(=Cc2[n-]c(=O)[n-]c2[O-])cc(C)n1-c1ccc(C(=O)N2CCN(S(C)(=O)=O)CC2)c(F)c1 (nonaromatic ring conformer: 137.62781061052084 kcal/mol)

>  <smiles>  (57) 
C=c1c(=Cc2[nH]c(=O)[nH]c2O)cc(C)n1-c1ccc(C(=O)N2CCN(S(C)(=O)=O)CC2)c(F)c1

>  <score_type>  (57) 
oracle

>  <origin>  (57) 
adg

>  <m_score__min__energy>  (57) 
-15.69

>  <m_primary>  (57) 
energy

$$$$
57:0
     RDKit          3D

 36 38  0  0  0  0  0  0  0  0999 V2000
   56.1420   30.8950   44.5530 O   0  0  0  0  0  0  0  0  0  0  0  0
   57.3150   31.0610   44.1220 C   0  0  0  0  0  0  0  0  0  0  0  0
   57.7710   32.4410   43.7560 C   0  0  0  0  0  0  0  0  0  0  0  0
   58.2630   33.1640   44.9780 C   0  0  0  0  0  0  0  0  0  0  0  0
   59.1360   34.2580   44.8550 C   0  0  0  0  0  0  0  0  0  0  0  0
   59.5660   34.9490   45.9920 C   0  0  0  0  0  0  0  0  0  0  0  0
   59.1210   34.5590   47.2580 C   0  0  0  0  0  0  0  0  0  0  0  0
   58.2420   33.4790   47.3880 C   0  0  0  0  0  0  0  0  0  0  0  0
   57.8100   32.7850   46.2540 C   0  0  0  0  0  0  0  0  0  0  0  0
   58.1790   29.9360   43.8960 N   0  0  0  0  0  0  0  0  0  0  0  0
   57.8900   28.5970   44.3300 C   0  0  0  0  0  0  0  0  0  0  0  0
   57.3320   28.3920   45.6010 C   0  0  0  0  0  0  0  0  0  0  0  0
   57.0240   27.1010   46.0410 C   0  0  0  0  0  0  0  0  0  0  0  0
   57.2480   25.9960   45.2060 C   0  0  0  0  0  0  0  0  0  0  0  0
   56.9480   24.6050   45.6910 C   0  0  0  0  0  0  0  0  0  0  0  0
   55.4830   24.3280   45.5780 C   0  0  0  0  0  0  0  0  0  0  0  0
   54.5190   25.1910   45.9430 N   0  0  0  0  0  0  0  0  0  0  0  0
   53.3900   24.5830   45.6210 N   0  0  0  0  0  0  0  0  0  0  0  0
   53.6530   23.4050   45.0760 N   0  0  0  0  0  0  0  0  0  0  0  0
   54.9610   23.2170   45.0290 N   0  0  0  0  0  0  0  0  0  0  0  0
   57.7950   26.1980   43.9290 C   0  0  0  0  0  0  0  0  0  0  0  0
   58.1040   27.4900   43.4890 C   0  0  0  0  0  0  0  0  0  0  0  0
   58.5868   32.3716   43.0214 H   0  0  0  0  0  0  0  0  0  0  0  0
   56.9252   32.9969   43.3252 H   0  0  0  0  0  0  0  0  0  0  0  0
   59.4828   34.5724   43.8596 H   0  0  0  0  0  0  0  0  0  0  0  0
   60.2551   35.8003   45.8899 H   0  0  0  0  0  0  0  0  0  0  0  0
   59.4620   35.1014   48.1522 H   0  0  0  0  0  0  0  0  0  0  0  0
   57.8898   33.1750   48.3848 H   0  0  0  0  0  0  0  0  0  0  0  0
   57.1137   31.9401   46.3602 H   0  0  0  0  0  0  0  0  0  0  0  0
   59.0220   30.0840   43.2950 H   0  0  0  0  0  0  0  0  0  0  0  0
   57.1354   29.2534   46.2562 H   0  0  0  0  0  0  0  0  0  0  0  0
   56.6041   26.9510   47.0466 H   0  0  0  0  0  0  0  0  0  0  0  0
   57.5041   23.8786   45.0802 H   0  0  0  0  0  0  0  0  0  0  0  0
   57.2515   24.5170   46.7446 H   0  0  0  0  0  0  0  0  0  0  0  0
   57.9816   25.3365   43.2710 H   0  0  0  0  0  0  0  0  0  0  0  0
   58.5163   27.6406   42.4804 H   0  0  0  0  0  0  0  0  0  0  0  0
  1  2  2  0
  2  3  1  0
  3  4  1  0
  4  5  2  0
  5  6  1  0
  6  7  2  0
  7  8  1  0
  8  9  2  0
  2 10  1  0
 10 11  1  0
 11 12  2  0
 12 13  1  0
 13 14  2  0
 14 15  1  0
 15 16  1  0
 16 17  1  0
 17 18  2  0
 18 19  1  0
 19 20  1  0
 14 21  1  0
 21 22  2  0
  9  4  1  0
 22 11  1  0
 20 16  2  0
  3 23  1  0
  3 24  1  0
  5 25  1  0
  6 26  1  0
  7 27  1  0
  8 28  1  0
  9 29  1  0
 10 30  1  0
 12 31  1  0
 13 32  1  0
 15 33  1  0
 15 34  1  0
 21 35  1  0
 22 36  1  0
M  CHG  1  19  -1
M  END
>  <UniqueID>  (58) 
54

>  <SMILES>  (58) 
O=C(Cc1ccccc1)Nc1ccc(Cc2nn[n-]n2)cc1

>  <Energy>  (58) 
75.84781812739547

>  <Genealogy>  (58) 
O=C(Cc1ccccc1)Nc1ccc(Cc2nn[n-]n2)cc1 (protonated)
O=C(Cc1ccccc1)Nc1ccc(Cc2nn[n-]n2)cc1 (3D coordinates assigned)
O=C(Cc1ccccc1)Nc1ccc(Cc2nn[n-]n2)cc1 (optimized conformer: 75.84781812739547 kcal/mol)

>  <smiles>  (58) 
O=C(Cc1ccccc1)Nc1ccc(Cc2nn[nH]n2)cc1

>  <score_type>  (58) 
oracle

>  <origin>  (58) 
adg

>  <m_score__min__energy>  (58) 
-10.49

>  <m_primary>  (58) 
energy

$$$$
58:0
     RDKit          3D

 60 63  0  0  0  0  0  0  0  0999 V2000
   56.6002   34.3546   44.3653 H   0  0  0  0  0  0  0  0  0  0  0  0
   57.3260   33.6970   44.8660 C   0  0  0  0  0  0  0  0  0  0  0  0
   58.1470   34.1990   45.8220 N   0  0  0  0  0  0  0  0  0  0  0  0
   59.0650   33.4410   46.4800 C   0  0  0  0  0  0  0  0  0  0  0  0
   59.7910   34.0490   47.3810 N   0  0  0  0  0  0  0  0  0  0  0  0
   60.2780   33.5430   48.6270 C   0  0  0  0  0  0  0  0  0  0  0  0
   59.4630   33.3460   49.5690 O   0  0  0  0  0  0  0  0  0  0  0  0
   61.7230   33.2670   48.8140 C   0  0  0  0  0  0  0  0  0  0  0  0
   62.6430   33.5160   47.7770 C   0  0  0  0  0  0  0  0  0  0  0  0
   62.2937   33.9505   46.8287 H   0  0  0  0  0  0  0  0  0  0  0  0
   63.9980   33.2140   47.9460 C   0  0  0  0  0  0  0  0  0  0  0  0
   64.7086   33.4051   47.1283 H   0  0  0  0  0  0  0  0  0  0  0  0
   64.4520   32.6700   49.1510 C   0  0  0  0  0  0  0  0  0  0  0  0
   65.5187   32.4348   49.2807 H   0  0  0  0  0  0  0  0  0  0  0  0
   63.5520   32.4250   50.1900 C   0  0  0  0  0  0  0  0  0  0  0  0
   63.9110   32.0006   51.1392 H   0  0  0  0  0  0  0  0  0  0  0  0
   62.1930   32.7190   50.0250 C   0  0  0  0  0  0  0  0  0  0  0  0
   61.4875   32.5211   50.8455 H   0  0  0  0  0  0  0  0  0  0  0  0
   59.1850   32.0560   46.1410 C   0  0  0  0  0  0  0  0  0  0  0  0
   60.4070   30.9720   46.8220 Cl  0  0  0  0  0  0  0  0  0  0  0  0
   58.3280   31.5260   45.1550 C   0  0  0  0  0  0  0  0  0  0  0  0
   58.3970   30.1400   44.7920 N   0  0  0  0  0  0  0  0  0  0  0  0
   57.2210   29.3290   44.5290 C   0  0  0  0  0  0  0  0  0  0  0  0
   56.5572   29.8335   43.8115 H   0  0  0  0  0  0  0  0  0  0  0  0
   56.6297   29.1549   45.4401 H   0  0  0  0  0  0  0  0  0  0  0  0
   57.7560   28.0270   43.9390 C   0  0  0  0  0  0  0  0  0  0  0  0
   57.6034   28.0102   42.8498 H   0  0  0  0  0  0  0  0  0  0  0  0
   57.2347   27.1525   44.3556 H   0  0  0  0  0  0  0  0  0  0  0  0
   59.2520   27.9960   44.2670 C   0  0  2  0  0  0  0  0  0  0  0  0
   59.8540   27.5392   43.4677 H   0  0  0  0  0  0  0  0  0  0  0  0
   59.4530   27.2310   45.4600 O   0  0  0  0  0  0  0  0  0  0  0  0
   59.5010   27.7580   46.7620 C   0  0  0  0  0  0  0  0  0  0  0  0
   58.4380   28.4870   47.3310 C   0  0  0  0  0  0  0  0  0  0  0  0
   57.5166   28.6503   46.7527 H   0  0  0  0  0  0  0  0  0  0  0  0
   58.5460   29.0050   48.6270 C   0  0  0  0  0  0  0  0  0  0  0  0
   57.7066   29.5667   49.0627 H   0  0  0  0  0  0  0  0  0  0  0  0
   59.7200   28.8120   49.3750 C   0  0  0  0  0  0  0  0  0  0  0  0
   59.8210   29.3640   50.7870 C   0  0  2  0  0  0  0  0  0  0  0  0
   59.3788   28.6259   51.4723 H   0  0  0  0  0  0  0  0  0  0  0  0
   59.0750   30.6220   50.9050 N   0  0  0  0  0  0  0  0  0  0  0  0
   59.5690   31.5310   50.7440 H   0  0  0  0  0  0  0  0  0  0  0  0
   57.7380   30.6810   51.4310 C   0  0  0  0  0  0  0  0  0  0  0  0
   57.1220   29.6220   51.7380 O   0  0  0  0  0  0  0  0  0  0  0  0
   57.0830   32.0040   51.6530 C   0  0  0  0  0  0  0  0  0  0  0  0
   56.9906   32.1907   52.7331 H   0  0  0  0  0  0  0  0  0  0  0  0
   57.6928   32.7966   51.1947 H   0  0  0  0  0  0  0  0  0  0  0  0
   56.0830   31.9996   51.1947 H   0  0  0  0  0  0  0  0  0  0  0  0
   61.2820   29.5800   51.1830 C   0  0  0  0  0  0  0  0  0  0  0  0
   61.3666   29.5925   52.2797 H   0  0  0  0  0  0  0  0  0  0  0  0
   61.8966   28.7630   50.7771 H   0  0  0  0  0  0  0  0  0  0  0  0
   61.6338   30.5399   50.7771 H   0  0  0  0  0  0  0  0  0  0  0  0
   60.7710   28.0610   48.8100 C   0  0  0  0  0  0  0  0  0  0  0  0
   61.6872   27.8800   49.3911 H   0  0  0  0  0  0  0  0  0  0  0  0
   60.6560   27.5450   47.5160 C   0  0  0  0  0  0  0  0  0  0  0  0
   61.4857   26.9641   47.0868 H   0  0  0  0  0  0  0  0  0  0  0  0
   59.6430   29.4570   44.4990 C   0  0  0  0  0  0  0  0  0  0  0  0
   60.1120   29.8790   43.5979 H   0  0  0  0  0  0  0  0  0  0  0  0
   60.3731   29.5636   45.3149 H   0  0  0  0  0  0  0  0  0  0  0  0
   57.4000   32.3510   44.5170 C   0  0  0  0  0  0  0  0  0  0  0  0
   56.7325   31.9410   43.7447 H   0  0  0  0  0  0  0  0  0  0  0  0
  1  2  1  0
  2  3  1  0
  3  4  1  0
  4  5  2  0
  5  6  1  0
  6  7  2  0
  6  8  1  0
  8  9  2  0
  9 10  1  0
  9 11  1  0
 11 12  1  0
 11 13  2  0
 13 14  1  0
 13 15  1  0
 15 16  1  0
 15 17  2  0
 17 18  1  0
  4 19  1  0
 19 20  1  0
 19 21  2  0
 21 22  1  0
 22 23  1  0
 23 24  1  0
 23 25  1  0
 23 26  1  0
 26 27  1  0
 26 28  1  0
 26 29  1  0
 29 30  1  6
 29 31  1  0
 31 32  1  0
 32 33  2  0
 33 34  1  0
 33 35  1  0
 35 36  1  0
 35 37  2  0
 37 38  1  0
 38 39  1  1
 38 40  1  0
 40 41  1  0
 40 42  1  0
 42 43  2  0
 42 44  1  0
 44 45  1  0
 44 46  1  0
 44 47  1  0
 38 48  1  0
 48 49  1  0
 48 50  1  0
 48 51  1  0
 37 52  1  0
 52 53  1  0
 52 54  2  0
 54 55  1  0
 29 56  1  0
 56 57  1  0
 56 58  1  0
 21 59  1  0
 59 60  1  0
 59  2  2  0
 17  8  1  0
 56 22  1  0
 54 32  1  0
M  CHG  1   3  -1
M  END
>  <UniqueID>  (59) 
55

>  <SMILES>  (59) 
CC(=O)N[C@H](C)c1ccc(O[C@H]2CCN(c3cc[n-]/c(=N/C(=O)c4ccccc4)c3Cl)C2)cc1

>  <Energy>  (59) 
84.66512848178989

>  <Genealogy>  (59) 
CC(=O)NC(C)c1ccc(OC2CCN(c3cc[n-]c(=NC(=O)c4ccccc4)c3Cl)C2)cc1 (protonated)
CC(=O)N[C@H](C)c1ccc(O[C@H]2CCN(c3cc[n-]c(=NC(=O)c4ccccc4)c3Cl)C2)cc1 (chirality)
CC(=O)N[C@H](C)c1ccc(O[C@H]2CCN(c3cc[n-]/c(=N/C(=O)c4ccccc4)c3Cl)C2)cc1 (cis-trans isomerization)
CC(=O)N[C@H](C)c1ccc(O[C@H]2CCN(c3cc[n-]/c(=N/C(=O)c4ccccc4)c3Cl)C2)cc1 (3D coordinates assigned)
CC(=O)N[C@H](C)c1ccc(O[C@H]2CCN(c3cc[n-]/c(=N/C(=O)c4ccccc4)c3Cl)C2)cc1 (nonaromatic ring conformer: 84.66512848178989 kcal/mol)

>  <smiles>  (59) 
CC(=O)NC(C)c1ccc(OC2CCN(c3cc[nH]c(=NC(=O)c4ccccc4)c3Cl)C2)cc1

>  <score_type>  (59) 
oracle

>  <origin>  (59) 
adg

>  <m_score__min__energy>  (59) 
-11.9

>  <m_primary>  (59) 
energy

$$$$
59:0
     RDKit          3D

 43 45  0  0  0  0  0  0  0  0999 V2000
   60.0020   27.1050   47.9020 C   0  0  0  0  0  0  0  0  0  0  0  0
   59.5840   28.1130   46.9150 N   0  0  0  0  0  0  0  0  0  0  0  0
   60.4080   28.0010   45.6870 C   0  0  0  0  0  0  0  0  0  0  0  0
   59.7370   28.6920   44.4950 C   0  0  0  0  0  0  0  0  0  0  0  0
   58.3840   28.0290   44.1510 C   0  0  0  0  0  0  0  0  0  0  0  0
   57.4740   29.0080   43.6470 O   0  0  0  0  0  0  0  0  0  0  0  0
   56.8110   29.9380   44.4580 C   0  0  0  0  0  0  0  0  0  0  0  0
   55.6400   29.7120   44.8680 O   0  0  0  0  0  0  0  0  0  0  0  0
   57.4900   31.1800   44.8370 C   0  0  0  0  0  0  0  0  0  0  0  0
   58.3010   31.3440   45.9590 C   0  0  0  0  0  0  0  0  0  0  0  0
   58.8130   32.6440   46.0640 C   0  0  0  0  0  0  0  0  0  0  0  0
   59.6570   33.1310   47.0710 C   0  0  0  0  0  0  0  0  0  0  0  0
   60.0660   32.3170   48.1250 O   0  0  0  0  0  0  0  0  0  0  0  0
   61.5060   31.4050   48.0260 S   0  0  0  0  0  0  0  0  0  0  0  0
   61.5050   30.6270   46.7400 O   0  0  0  0  0  0  0  0  0  0  0  0
   61.5840   30.4470   49.1820 O   0  0  0  0  0  0  0  0  0  0  0  0
   62.9190   32.4880   48.0570 C   0  0  0  0  0  0  0  0  0  0  0  0
   62.5610   33.6970   48.6220 F   0  0  0  0  0  0  0  0  0  0  0  0
   63.9260   31.9110   48.8090 F   0  0  0  0  0  0  0  0  0  0  0  0
   63.3710   32.7020   46.7700 F   0  0  0  0  0  0  0  0  0  0  0  0
   60.0980   34.4650   46.9980 C   0  0  0  0  0  0  0  0  0  0  0  0
   59.6820   35.2980   45.9420 C   0  0  0  0  0  0  0  0  0  0  0  0
   58.8260   34.8040   44.9450 C   0  0  0  0  0  0  0  0  0  0  0  0
   58.4120   33.4780   45.0290 C   0  0  0  0  0  0  0  0  0  0  0  0
   57.4140   32.6350   43.9750 S   0  0  0  0  0  0  0  0  0  0  0  0
   57.7510   27.3360   45.3750 C   0  0  0  0  0  0  0  0  0  0  0  0
   58.1180   28.0620   46.6760 C   0  0  0  0  0  0  0  0  0  0  0  0
   59.8397   27.4964   48.9171 H   0  0  0  0  0  0  0  0  0  0  0  0
   59.4098   26.1885   47.7634 H   0  0  0  0  0  0  0  0  0  0  0  0
   61.0690   26.8765   47.7634 H   0  0  0  0  0  0  0  0  0  0  0  0
   61.3857   28.4711   45.8686 H   0  0  0  0  0  0  0  0  0  0  0  0
   60.5250   26.9341   45.4462 H   0  0  0  0  0  0  0  0  0  0  0  0
   59.5649   29.7495   44.7441 H   0  0  0  0  0  0  0  0  0  0  0  0
   60.4003   28.6010   43.6222 H   0  0  0  0  0  0  0  0  0  0  0  0
   58.5821   27.2629   43.3869 H   0  0  0  0  0  0  0  0  0  0  0  0
   58.5150   30.5424   46.6812 H   0  0  0  0  0  0  0  0  0  0  0  0
   60.7728   34.8601   47.7717 H   0  0  0  0  0  0  0  0  0  0  0  0
   60.0293   36.3408   45.8979 H   0  0  0  0  0  0  0  0  0  0  0  0
   58.4912   35.4484   44.1188 H   0  0  0  0  0  0  0  0  0  0  0  0
   56.6569   27.3355   45.2609 H   0  0  0  0  0  0  0  0  0  0  0  0
   58.1361   26.3071   45.4301 H   0  0  0  0  0  0  0  0  0  0  0  0
   57.7347   29.0917   46.6237 H   0  0  0  0  0  0  0  0  0  0  0  0
   57.6670   27.4996   47.5069 H   0  0  0  0  0  0  0  0  0  0  0  0
  1  2  1  0
  2  3  1  0
  3  4  1  0
  4  5  1  0
  5  6  1  0
  6  7  1  0
  7  8  2  0
  7  9  1  0
  9 10  2  0
 10 11  1  0
 11 12  2  0
 12 13  1  0
 13 14  1  0
 14 15  2  0
 14 16  2  0
 14 17  1  0
 17 18  1  0
 17 19  1  0
 17 20  1  0
 12 21  1  0
 21 22  2  0
 22 23  1  0
 23 24  2  0
 24 25  1  0
  5 26  1  0
 26 27  1  0
 27  2  1  0
 25  9  1  0
 24 11  1  0
  1 28  1  0
  1 29  1  0
  1 30  1  0
  3 31  1  0
  3 32  1  0
  4 33  1  0
  4 34  1  0
  5 35  1  0
 10 36  1  0
 21 37  1  0
 22 38  1  0
 23 39  1  0
 26 40  1  0
 26 41  1  0
 27 42  1  0
 27 43  1  0
M  END
>  <UniqueID>  (60) 
56

>  <SMILES>  (60) 
CN1CCC(OC(=O)c2cc3c(OS(=O)(=O)C(F)(F)F)cccc3s2)CC1

>  <Energy>  (60) 
80.3297595025856

>  <Genealogy>  (60) 
CN1CCC(OC(=O)c2cc3c(OS(=O)(=O)C(F)(F)F)cccc3s2)CC1 (3D coordinates assigned)
CN1CCC(OC(=O)c2cc3c(OS(=O)(=O)C(F)(F)F)cccc3s2)CC1 (nonaromatic ring conformer: 80.3297595025856 kcal/mol)

>  <smiles>  (60) 
CN1CCC(OC(=O)c2cc3c(OS(=O)(=O)C(F)(F)F)cccc3s2)CC1

>  <score_type>  (60) 
oracle

>  <origin>  (60) 
adg

>  <m_score__min__energy>  (60) 
-8.3599999999999994

>  <m_primary>  (60) 
energy

$$$$
60:0
     RDKit          3D

 53 56  0  0  0  0  0  0  0  0999 V2000
   57.2460   34.1170   45.2130 C   0  0  0  0  0  0  0  0  0  0  0  0
   58.4990   34.2200   45.9460 N   0  0  0  0  0  0  0  0  0  0  0  0
   58.6270   34.2460   47.2840 C   0  0  0  0  0  0  0  0  0  0  0  0
   59.9720   34.2660   47.5800 C   0  0  0  0  0  0  0  0  0  0  0  0
   60.6020   34.2470   48.9370 C   0  0  0  0  0  0  0  0  0  0  0  0
   59.8870   33.2790   49.8430 C   0  0  0  0  0  0  0  0  0  0  0  0
   58.9950   33.7340   50.6110 O   0  0  0  0  0  0  0  0  0  0  0  0
   60.1620   31.8590   49.8130 N   0  0  0  0  0  0  0  0  0  0  0  0
   61.4010   31.3600   49.1940 C   0  0  0  0  0  0  0  0  0  0  0  0
   61.5250   29.8450   49.3440 C   0  0  0  0  0  0  0  0  0  0  0  0
   60.2370   29.2240   48.9920 N   0  0  0  0  0  0  0  0  0  0  0  0
   60.3380   27.7660   48.7630 C   0  0  0  0  0  0  0  0  0  0  0  0
   59.4330   27.2750   47.6670 C   0  0  0  0  0  0  0  0  0  0  0  0
   58.1330   27.6190   47.5730 N   0  0  0  0  0  0  0  0  0  0  0  0
   57.7330   27.0020   46.4450 C   0  0  0  0  0  0  0  0  0  0  0  0
   56.3590   27.0580   45.9100 C   0  0  0  0  0  0  0  0  0  0  0  0
   55.5830   26.0840   46.0960 O   0  0  0  0  0  0  0  0  0  0  0  0
   55.8590   28.2280   45.2460 N   0  0  0  0  0  0  0  0  0  0  0  0
   56.6560   29.3170   44.7620 C   0  0  0  0  0  0  0  0  0  0  0  0
   57.6410   29.8630   45.5940 C   0  0  0  0  0  0  0  0  0  0  0  0
   58.4310   30.9290   45.1470 C   0  0  0  0  0  0  0  0  0  0  0  0
   58.2330   31.4570   43.8680 C   0  0  0  0  0  0  0  0  0  0  0  0
   57.2290   30.9390   43.0440 C   0  0  0  0  0  0  0  0  0  0  0  0
   56.4370   29.8770   43.4900 C   0  0  0  0  0  0  0  0  0  0  0  0
   58.7890   26.2990   45.9080 C   0  0  0  0  0  0  0  0  0  0  0  0
   59.8240   26.4910   46.6870 O   0  0  0  0  0  0  0  0  0  0  0  0
   59.1450   29.5800   49.9290 C   0  0  0  0  0  0  0  0  0  0  0  0
   59.3470   30.9420   50.6270 C   0  0  0  0  0  0  0  0  0  0  0  0
   60.6140   34.2280   46.3550 C   0  0  0  0  0  0  0  0  0  0  0  0
   59.6940   34.1940   45.3740 N   0  0  0  0  0  0  0  0  0  0  0  0
   56.4097   34.0483   45.9243 H   0  0  0  0  0  0  0  0  0  0  0  0
   57.1170   35.0076   44.5804 H   0  0  0  0  0  0  0  0  0  0  0  0
   57.2642   33.2173   44.5804 H   0  0  0  0  0  0  0  0  0  0  0  0
   57.8035   34.2505   48.0132 H   0  0  0  0  0  0  0  0  0  0  0  0
   61.6547   33.9423   48.8420 H   0  0  0  0  0  0  0  0  0  0  0  0
   60.5339   35.2549   49.3724 H   0  0  0  0  0  0  0  0  0  0  0  0
   61.3948   31.6148   48.1239 H   0  0  0  0  0  0  0  0  0  0  0  0
   62.2564   31.8303   49.7011 H   0  0  0  0  0  0  0  0  0  0  0  0
   62.3114   29.4705   48.6721 H   0  0  0  0  0  0  0  0  0  0  0  0
   61.7888   29.5935   50.3819 H   0  0  0  0  0  0  0  0  0  0  0  0
   61.3768   27.5256   48.4927 H   0  0  0  0  0  0  0  0  0  0  0  0
   60.0270   27.2665   49.6924 H   0  0  0  0  0  0  0  0  0  0  0  0
   57.7948   29.4527   46.6030 H   0  0  0  0  0  0  0  0  0  0  0  0
   59.2073   31.3509   45.8022 H   0  0  0  0  0  0  0  0  0  0  0  0
   58.8676   32.2808   43.5093 H   0  0  0  0  0  0  0  0  0  0  0  0
   57.0624   31.3673   42.0446 H   0  0  0  0  0  0  0  0  0  0  0  0
   55.6404   29.4781   42.8448 H   0  0  0  0  0  0  0  0  0  0  0  0
   58.7669   25.6886   44.9931 H   0  0  0  0  0  0  0  0  0  0  0  0
   58.2011   29.6151   49.3653 H   0  0  0  0  0  0  0  0  0  0  0  0
   59.1343   28.8128   50.7172 H   0  0  0  0  0  0  0  0  0  0  0  0
   58.3630   31.4012   50.8028 H   0  0  0  0  0  0  0  0  0  0  0  0
   59.8762   30.7648   51.5749 H   0  0  0  0  0  0  0  0  0  0  0  0
   61.7039   34.2259   46.2067 H   0  0  0  0  0  0  0  0  0  0  0  0
  1  2  1  0
  2  3  1  0
  3  4  2  0
  4  5  1  0
  5  6  1  0
  6  7  2  0
  6  8  1  0
  8  9  1  0
  9 10  1  0
 10 11  1  0
 11 12  1  0
 12 13  1  0
 13 14  2  0
 14 15  1  0
 15 16  1  0
 16 17  2  0
 16 18  1  0
 18 19  1  0
 19 20  2  0
 20 21  1  0
 21 22  2  0
 22 23  1  0
 23 24  2  0
 15 25  2  0
 25 26  1  0
 11 27  1  0
 27 28  1  0
  4 29  1  0
 29 30  2  0
 30  2  1  0
 28  8  1  0
 26 13  1  0
 24 19  1  0
  1 31  1  0
  1 32  1  0
  1 33  1  0
  3 34  1  0
  5 35  1  0
  5 36  1  0
  9 37  1  0
  9 38  1  0
 10 39  1  0
 10 40  1  0
 12 41  1  0
 12 42  1  0
 20 43  1  0
 21 44  1  0
 22 45  1  0
 23 46  1  0
 24 47  1  0
 25 48  1  0
 27 49  1  0
 27 50  1  0
 28 51  1  0
 28 52  1  0
 29 53  1  0
M  CHG  1  18  -1
M  END
>  <UniqueID>  (61) 
57

>  <SMILES>  (61) 
Cn1cc(CC(=O)N2CCN(Cc3nc(C(=O)[N-]c4ccccc4)co3)CC2)cn1

>  <Energy>  (61) 
122.05935017570141

>  <Genealogy>  (61) 
Cn1cc(CC(=O)N2CCN(Cc3nc(C(=O)[N-]c4ccccc4)co3)CC2)cn1 (protonated)
Cn1cc(CC(=O)N2CCN(Cc3nc(C(=O)[N-]c4ccccc4)co3)CC2)cn1 (3D coordinates assigned)
Cn1cc(CC(=O)N2CCN(Cc3nc(C(=O)[N-]c4ccccc4)co3)CC2)cn1 (nonaromatic ring conformer: 122.05935017570141 kcal/mol)

>  <smiles>  (61) 
Cn1cc(CC(=O)N2CCN(Cc3nc(C(=O)Nc4ccccc4)co3)CC2)cn1

>  <score_type>  (61) 
oracle

>  <origin>  (61) 
adg

>  <m_score__min__energy>  (61) 
-11.52

>  <m_primary>  (61) 
energy

$$$$
61:0
     RDKit          3D

 42 43  0  0  0  0  0  0  0  0999 V2000
   58.9627   24.7606   47.3153 H   0  0  0  0  0  0  0  0  0  0  0  0
   57.9390   24.4120   47.1140 C   0  0  0  0  0  0  0  0  0  0  0  0
   57.6721   23.3593   47.2887 H   0  0  0  0  0  0  0  0  0  0  0  0
   57.0190   25.2680   46.6570 C   0  0  0  0  0  0  0  0  0  0  0  0
   55.7630   24.8490   46.4080 N   0  0  0  0  0  0  0  0  0  0  0  0
   55.1290   25.9500   45.9710 C   0  0  0  0  0  0  0  0  0  0  0  0
   53.9170   25.9500   45.6340 O   0  0  0  0  0  0  0  0  0  0  0  0
   55.8980   27.0510   45.9230 N   0  0  0  0  0  0  0  0  0  0  0  0
   57.1090   26.6430   46.3560 C   0  0  0  0  0  0  0  0  0  0  0  0
   58.1250   27.5320   46.4390 C   0  0  0  0  0  0  0  0  0  0  0  0
   58.2485   28.0603   47.3959 H   0  0  0  0  0  0  0  0  0  0  0  0
   59.0650   27.8530   45.3860 N   0  0  0  0  0  0  0  0  0  0  0  0
   59.7290   27.0550   45.2840 H   0  0  0  0  0  0  0  0  0  0  0  0
   58.3770   28.1100   44.1000 C   0  0  0  0  0  0  0  0  0  0  0  0
   59.1323   28.1750   43.3030 H   0  0  0  0  0  0  0  0  0  0  0  0
   57.6746   27.2815   43.9260 H   0  0  0  0  0  0  0  0  0  0  0  0
   57.5660   29.4120   44.1160 C   0  0  0  0  0  0  0  0  0  0  0  0
   57.1921   29.6184   43.1023 H   0  0  0  0  0  0  0  0  0  0  0  0
   56.7237   29.2987   44.8143 H   0  0  0  0  0  0  0  0  0  0  0  0
   58.4030   30.5310   44.5590 N   0  0  0  0  0  0  0  0  0  0  0  0
   58.1610   31.8600   44.0590 C   0  0  0  0  0  0  0  0  0  0  0  0
   57.3740   32.0350   43.0900 O   0  0  0  0  0  0  0  0  0  0  0  0
   58.8070   32.9560   44.6560 O   0  0  0  0  0  0  0  0  0  0  0  0
   58.2310   33.8790   45.5930 C   0  0  0  0  0  0  0  0  0  0  0  0
   57.0270   34.5360   44.8990 C   0  0  0  0  0  0  0  0  0  0  0  0
   56.3288   34.9170   45.6588 H   0  0  0  0  0  0  0  0  0  0  0  0
   57.3755   35.3690   44.2708 H   0  0  0  0  0  0  0  0  0  0  0  0
   56.5151   33.7922   44.2708 H   0  0  0  0  0  0  0  0  0  0  0  0
   57.7380   33.1410   46.8520 C   0  0  0  0  0  0  0  0  0  0  0  0
   58.0915   33.6702   47.7492 H   0  0  0  0  0  0  0  0  0  0  0  0
   56.6384   33.1118   46.8529 H   0  0  0  0  0  0  0  0  0  0  0  0
   58.1321   32.1140   46.8529 H   0  0  0  0  0  0  0  0  0  0  0  0
   59.2470   34.9760   45.9670 C   0  0  0  0  0  0  0  0  0  0  0  0
   59.3177   35.0523   47.0621 H   0  0  0  0  0  0  0  0  0  0  0  0
   60.2332   34.7190   45.5529 H   0  0  0  0  0  0  0  0  0  0  0  0
   58.9153   35.9396   45.5529 H   0  0  0  0  0  0  0  0  0  0  0  0
   59.1950   30.3480   45.7790 C   0  0  0  0  0  0  0  0  0  0  0  0
   59.9331   31.1601   45.8543 H   0  0  0  0  0  0  0  0  0  0  0  0
   58.5161   30.3642   46.6443 H   0  0  0  0  0  0  0  0  0  0  0  0
   59.9320   28.9980   45.7580 C   0  0  0  0  0  0  0  0  0  0  0  0
   60.7544   29.0622   45.0303 H   0  0  0  0  0  0  0  0  0  0  0  0
   60.2915   28.8111   46.7807 H   0  0  0  0  0  0  0  0  0  0  0  0
  1  2  1  0
  2  3  1  0
  2  4  2  0
  4  5  1  0
  5  6  1  0
  6  7  2  0
  6  8  1  0
  8  9  1  0
  9 10  2  0
 10 11  1  0
 10 12  1  0
 12 13  1  0
 12 14  1  0
 14 15  1  0
 14 16  1  0
 14 17  1  0
 17 18  1  0
 17 19  1  0
 17 20  1  0
 20 21  1  0
 21 22  2  0
 21 23  1  0
 23 24  1  0
 24 25  1  0
 25 26  1  0
 25 27  1  0
 25 28  1  0
 24 29  1  0
 29 30  1  0
 29 31  1  0
 29 32  1  0
 24 33  1  0
 33 34  1  0
 33 35  1  0
 33 36  1  0
 20 37  1  0
 37 38  1  0
 37 39  1  0
 37 40  1  0
 40 41  1  0
 40 42  1  0
  9  4  1  0
 40 12  1  0
M  CHG  3   5  -1   8  -1  12   1
M  END
>  <UniqueID>  (62) 
58

>  <SMILES>  (62) 
C=c1[n-]c(=O)[n-]/c1=C/[NH+]1CCN(C(=O)OC(C)(C)C)CC1

>  <Energy>  (62) 
77.77839054762089

>  <Genealogy>  (62) 
C=c1[n-]c(=O)[n-]c1=C[NH+]1CCN(C(=O)OC(C)(C)C)CC1 (protonated)
C=c1[n-]c(=O)[n-]/c1=C/[NH+]1CCN(C(=O)OC(C)(C)C)CC1 (cis-trans isomerization)
C=c1[n-]c(=O)[n-]/c1=C/[NH+]1CCN(C(=O)OC(C)(C)C)CC1 (3D coordinates assigned)
C=c1[n-]c(=O)[n-]/c1=C/[NH+]1CCN(C(=O)OC(C)(C)C)CC1 (nonaromatic ring conformer: 77.77839054762089 kcal/mol)

>  <smiles>  (62) 
C=c1[nH]c(=O)[nH]c1=CN1CCN(C(=O)OC(C)(C)C)CC1

>  <score_type>  (62) 
oracle

>  <origin>  (62) 
adg

>  <m_score__min__energy>  (62) 
-9.2599999999999998

>  <m_primary>  (62) 
energy

$$$$
62:0
     RDKit          3D

 39 40  0  0  0  0  0  0  0  0999 V2000
   58.1110   32.7360   47.2820 C   0  0  0  0  0  0  0  0  0  0  0  0
   57.8340   32.5090   45.8360 C   0  0  0  0  0  0  0  0  0  0  0  0
   57.1920   31.4220   45.3590 N   0  0  0  0  0  0  0  0  0  0  0  0
   57.1410   31.4210   43.9980 C   0  0  0  0  0  0  0  0  0  0  0  0
   56.5180   30.2950   43.2340 C   0  0  0  0  0  0  0  0  0  0  0  0
   57.0040   28.9850   43.7720 C   0  0  0  0  0  0  0  0  0  0  0  0
   57.6900   28.2290   43.0320 O   0  0  0  0  0  0  0  0  0  0  0  0
   56.7630   28.6390   45.1430 N   0  0  0  0  0  0  0  0  0  0  0  0
   57.1460   27.3790   45.7170 C   0  0  0  0  0  0  0  0  0  0  0  0
   58.5080   27.1030   45.9050 C   0  0  0  0  0  0  0  0  0  0  0  0
   58.9130   25.8790   46.4400 C   0  0  0  0  0  0  0  0  0  0  0  0
   57.9610   24.9320   46.8210 C   0  0  0  0  0  0  0  0  0  0  0  0
   56.5940   25.2120   46.7000 C   0  0  0  0  0  0  0  0  0  0  0  0
   55.6530   24.2090   47.1080 N   0  0  0  0  0  0  0  0  0  0  0  0
   55.1110   23.1860   46.2660 C   0  0  0  0  0  0  0  0  0  0  0  0
   55.7950   22.1640   45.9780 O   0  0  0  0  0  0  0  0  0  0  0  0
   53.7580   23.3810   45.6440 C   0  0  1  0  0  0  0  0  0  0  0  0
   52.7030   22.6110   46.4400 C   0  0  0  0  0  0  0  0  0  0  0  0
   53.4220   24.8030   45.6030 N   0  0  0  0  0  0  0  0  0  0  0  0
   56.1830   26.4360   46.1290 C   0  0  0  0  0  0  0  0  0  0  0  0
   54.8280   26.7110   45.9630 O   0  0  0  0  0  0  0  0  0  0  0  0
   57.7750   32.4980   43.3810 C   0  0  0  0  0  0  0  0  0  0  0  0
   58.4010   33.4860   44.5900 S   0  0  0  0  0  0  0  0  0  0  0  0
   57.4006   32.1538   47.8872 H   0  0  0  0  0  0  0  0  0  0  0  0
   59.1378   32.4162   47.5133 H   0  0  0  0  0  0  0  0  0  0  0  0
   57.9992   33.8056   47.5133 H   0  0  0  0  0  0  0  0  0  0  0  0
   55.4238   30.3473   43.3343 H   0  0  0  0  0  0  0  0  0  0  0  0
   56.7981   30.3777   42.1735 H   0  0  0  0  0  0  0  0  0  0  0  0
   56.4400   29.3940   45.7910 H   0  0  0  0  0  0  0  0  0  0  0  0
   59.2616   27.8554   45.6293 H   0  0  0  0  0  0  0  0  0  0  0  0
   59.9842   25.6604   46.5615 H   0  0  0  0  0  0  0  0  0  0  0  0
   58.2865   23.9595   47.2189 H   0  0  0  0  0  0  0  0  0  0  0  0
   53.7793   22.9952   44.6141 H   0  0  0  0  0  0  0  0  0  0  0  0
   52.8860   22.7446   47.5164 H   0  0  0  0  0  0  0  0  0  0  0  0
   51.7026   22.9928   46.1880 H   0  0  0  0  0  0  0  0  0  0  0  0
   52.7616   21.5419   46.1880 H   0  0  0  0  0  0  0  0  0  0  0  0
   53.9510   25.2870   46.3660 H   0  0  0  0  0  0  0  0  0  0  0  0
   53.7870   25.2020   44.7050 H   0  0  0  0  0  0  0  0  0  0  0  0
   57.8522   32.6710   42.2974 H   0  0  0  0  0  0  0  0  0  0  0  0
  1  2  1  0
  2  3  2  0
  3  4  1  0
  4  5  1  0
  5  6  1  0
  6  7  2  0
  6  8  1  0
  8  9  1  0
  9 10  2  0
 10 11  1  0
 11 12  2  0
 12 13  1  0
 13 14  1  0
 14 15  1  0
 15 16  2  0
 15 17  1  0
 17 18  1  0
 17 19  1  0
 13 20  2  0
 20 21  1  0
  4 22  2  0
 22 23  1  0
 23  2  1  0
 20  9  1  0
  1 24  1  0
  1 25  1  0
  1 26  1  0
  5 27  1  0
  5 28  1  0
  8 29  1  0
 10 30  1  0
 11 31  1  0
 12 32  1  0
 17 33  1  6
 18 34  1  0
 18 35  1  0
 18 36  1  0
 19 37  1  0
 19 38  1  0
 22 39  1  0
M  CHG  2  14  -1  21  -1
M  END
>  <UniqueID>  (63) 
59

>  <SMILES>  (63) 
Cc1nc(CC(=O)Nc2cccc([N-]C(=O)[C@@H](C)N)c2[O-])cs1

>  <Energy>  (63) 
70.6951119357099

>  <Genealogy>  (63) 
Cc1nc(CC(=O)Nc2cccc([N-]C(=O)C(C)N)c2[O-])cs1 (protonated)
Cc1nc(CC(=O)Nc2cccc([N-]C(=O)[C@@H](C)N)c2[O-])cs1 (chirality)
Cc1nc(CC(=O)Nc2cccc([N-]C(=O)[C@@H](C)N)c2[O-])cs1 (3D coordinates assigned)
Cc1nc(CC(=O)Nc2cccc([N-]C(=O)[C@@H](C)N)c2[O-])cs1 (optimized conformer: 70.6951119357099 kcal/mol)

>  <smiles>  (63) 
Cc1nc(CC(=O)Nc2cccc(NC(=O)C(C)N)c2O)cs1

>  <score_type>  (63) 
oracle

>  <origin>  (63) 
adg

>  <m_score__min__energy>  (63) 
-13.390000000000001

>  <m_primary>  (63) 
energy

$$$$
63:0
     RDKit          3D

 35 37  0  0  0  0  0  0  0  0999 V2000
   60.3930   34.1460   46.1430 C   0  0  0  0  0  0  0  0  0  0  0  0
   59.9770   33.7140   47.5250 C   0  0  0  0  0  0  0  0  0  0  0  0
   60.4360   34.4540   48.6290 C   0  0  0  0  0  0  0  0  0  0  0  0
   60.1070   34.0700   49.9290 C   0  0  0  0  0  0  0  0  0  0  0  0
   59.3140   32.9450   50.1470 C   0  0  0  0  0  0  0  0  0  0  0  0
   58.8330   32.2080   49.0620 C   0  0  0  0  0  0  0  0  0  0  0  0
   59.1360   32.5920   47.7450 C   0  0  0  0  0  0  0  0  0  0  0  0
   58.5740   31.7910   46.6360 C   0  0  0  0  0  0  0  0  0  0  0  0
   58.5110   30.3940   46.7130 C   0  0  0  0  0  0  0  0  0  0  0  0
   57.9810   29.6580   45.6450 C   0  0  0  0  0  0  0  0  0  0  0  0
   57.9090   28.1830   45.7580 C   0  0  0  0  0  0  0  0  0  0  0  0
   59.0610   27.4550   46.0990 C   0  0  0  0  0  0  0  0  0  0  0  0
   59.0080   26.0630   46.2130 C   0  0  0  0  0  0  0  0  0  0  0  0
   57.8050   25.3880   45.9950 C   0  0  0  0  0  0  0  0  0  0  0  0
   56.6500   26.1040   45.6690 C   0  0  0  0  0  0  0  0  0  0  0  0
   56.6940   27.4990   45.5560 C   0  0  0  0  0  0  0  0  0  0  0  0
   55.5280   28.1950   45.2570 O   0  0  0  0  0  0  0  0  0  0  0  0
   57.5500   30.3400   44.4860 C   0  0  0  0  0  0  0  0  0  0  0  0
   57.0500   29.6170   43.3360 C   0  0  0  0  0  0  0  0  0  0  0  0
   56.6500   29.0380   42.4170 N   0  0  0  0  0  0  0  0  0  0  0  0
   57.6530   31.7400   44.4420 C   0  0  0  0  0  0  0  0  0  0  0  0
   57.2850   32.3800   43.4210 O   0  0  0  0  0  0  0  0  0  0  0  0
   58.1580   32.4200   45.5040 N   0  0  0  0  0  0  0  0  0  0  0  0
   61.1542   34.9364   46.2195 H   0  0  0  0  0  0  0  0  0  0  0  0
   60.8112   33.2855   45.6002 H   0  0  0  0  0  0  0  0  0  0  0  0
   59.5173   34.5315   45.6002 H   0  0  0  0  0  0  0  0  0  0  0  0
   61.0607   35.3446   48.4659 H   0  0  0  0  0  0  0  0  0  0  0  0
   60.4743   34.6565   50.7840 H   0  0  0  0  0  0  0  0  0  0  0  0
   59.0667   32.6372   51.1737 H   0  0  0  0  0  0  0  0  0  0  0  0
   58.2110   31.3185   49.2406 H   0  0  0  0  0  0  0  0  0  0  0  0
   58.8773   29.8751   47.6111 H   0  0  0  0  0  0  0  0  0  0  0  0
   60.0094   27.9830   46.2772 H   0  0  0  0  0  0  0  0  0  0  0  0
   59.9150   25.4984   46.4748 H   0  0  0  0  0  0  0  0  0  0  0  0
   57.7666   24.2920   46.0800 H   0  0  0  0  0  0  0  0  0  0  0  0
   55.7032   25.5700   45.5006 H   0  0  0  0  0  0  0  0  0  0  0  0
  1  2  1  0
  2  3  2  0
  3  4  1  0
  4  5  2  0
  5  6  1  0
  6  7  2  0
  7  8  1  0
  8  9  2  0
  9 10  1  0
 10 11  1  0
 11 12  2  0
 12 13  1  0
 13 14  2  0
 14 15  1  0
 15 16  2  0
 16 17  1  0
 10 18  2  0
 18 19  1  0
 19 20  3  0
 18 21  1  0
 21 22  2  0
 21 23  1  0
  7  2  1  0
 23  8  1  0
 16 11  1  0
  1 24  1  0
  1 25  1  0
  1 26  1  0
  3 27  1  0
  4 28  1  0
  5 29  1  0
  6 30  1  0
  9 31  1  0
 12 32  1  0
 13 33  1  0
 14 34  1  0
 15 35  1  0
M  CHG  2  17  -1  23  -1
M  END
>  <UniqueID>  (64) 
60

>  <SMILES>  (64) 
Cc1ccccc1-c1cc(-c2ccccc2[O-])c(C#N)c(=O)[n-]1

>  <Energy>  (64) 
54.24144505465262

>  <Genealogy>  (64) 
Cc1ccccc1-c1cc(-c2ccccc2[O-])c(C#N)c(=O)[n-]1 (protonated)
Cc1ccccc1-c1cc(-c2ccccc2[O-])c(C#N)c(=O)[n-]1 (3D coordinates assigned)
Cc1ccccc1-c1cc(-c2ccccc2[O-])c(C#N)c(=O)[n-]1 (optimized conformer: 54.24144505465262 kcal/mol)

>  <smiles>  (64) 
Cc1ccccc1-c1cc(-c2ccccc2O)c(C#N)c(=O)[nH]1

>  <score_type>  (64) 
oracle

>  <origin>  (64) 
adg

>  <m_score__min__energy>  (64) 
-11.66

>  <m_primary>  (64) 
energy

$$$$
64:0
     RDKit          3D

 63 66  0  0  0  0  0  0  0  0999 V2000
   56.6020   28.9610   45.6020 O   0  0  0  0  0  0  0  0  0  0  0  0
   57.4060   28.1560   46.1480 C   0  0  0  0  0  0  0  0  0  0  0  0
   58.3490   28.6340   47.1210 N   0  0  0  0  0  0  0  0  0  0  0  0
   58.5530   30.0620   47.3950 C   0  0  2  0  0  0  0  0  0  0  0  0
   59.5260   30.6750   46.3720 C   0  0  0  0  0  0  0  0  0  0  0  0
   59.0580   32.0310   45.9120 C   0  0  0  0  0  0  0  0  0  0  0  0
   59.9270   33.1340   45.9650 C   0  0  0  0  0  0  0  0  0  0  0  0
   59.4800   34.4030   45.5830 C   0  0  0  0  0  0  0  0  0  0  0  0
   58.1640   34.5810   45.1500 C   0  0  0  0  0  0  0  0  0  0  0  0
   57.2920   33.4890   45.0950 C   0  0  0  0  0  0  0  0  0  0  0  0
   57.7360   32.2190   45.4730 C   0  0  0  0  0  0  0  0  0  0  0  0
   59.0800   30.2380   48.7920 C   0  0  0  0  0  0  0  0  0  0  0  0
   59.8760   29.3900   49.2800 O   0  0  0  0  0  0  0  0  0  0  0  0
   58.6710   31.3730   49.5620 N   0  0  0  0  0  0  0  0  0  0  0  0
   58.7870   32.7500   49.0940 C   0  0  0  0  0  0  0  0  0  0  0  0
   59.9340   33.4850   49.8030 C   0  0  0  0  0  0  0  0  0  0  0  0
   60.8070   34.3100   48.8400 C   0  0  0  0  0  0  0  0  0  0  0  0
   62.1700   33.7480   48.7010 N   0  0  0  0  0  0  0  0  0  0  0  0
   62.2450   32.3620   49.2300 C   0  0  0  0  0  0  0  0  0  0  0  0
   62.2140   31.3150   48.1020 C   0  0  0  0  0  0  0  0  0  0  0  0
   63.2730   31.4520   47.1630 O   0  0  0  0  0  0  0  0  0  0  0  0
   63.7410   32.7880   47.0220 C   0  0  0  0  0  0  0  0  0  0  0  0
   62.6630   33.8470   47.3070 C   0  0  0  0  0  0  0  0  0  0  0  0
   57.3280   26.7170   45.8030 C   0  0  0  0  0  0  0  0  0  0  0  0
   58.5190   26.0060   45.5790 C   0  0  0  0  0  0  0  0  0  0  0  0
   58.4910   24.6540   45.2420 C   0  0  0  0  0  0  0  0  0  0  0  0
   57.2690   23.9780   45.1290 C   0  0  0  0  0  0  0  0  0  0  0  0
   57.2390   22.6180   44.7860 C   0  0  0  0  0  0  0  0  0  0  0  0
   56.0200   21.9460   44.6820 C   0  0  0  0  0  0  0  0  0  0  0  0
   54.8230   22.6250   44.9190 C   0  0  0  0  0  0  0  0  0  0  0  0
   54.8370   23.9790   45.2620 C   0  0  0  0  0  0  0  0  0  0  0  0
   56.0580   24.6720   45.3700 C   0  0  0  0  0  0  0  0  0  0  0  0
   56.0920   26.0390   45.7170 C   0  0  0  0  0  0  0  0  0  0  0  0
   54.9050   26.7080   46.0030 O   0  0  0  0  0  0  0  0  0  0  0  0
   58.9420   27.9410   47.6330 H   0  0  0  0  0  0  0  0  0  0  0  0
   57.5890   30.5844   47.3059 H   0  0  0  0  0  0  0  0  0  0  0  0
   60.5172   30.7776   46.8378 H   0  0  0  0  0  0  0  0  0  0  0  0
   59.5727   30.0099   45.4971 H   0  0  0  0  0  0  0  0  0  0  0  0
   60.9632   32.9988   46.3084 H   0  0  0  0  0  0  0  0  0  0  0  0
   60.1658   35.2621   45.6236 H   0  0  0  0  0  0  0  0  0  0  0  0
   57.8134   35.5802   44.8522 H   0  0  0  0  0  0  0  0  0  0  0  0
   56.2558   33.6299   44.7539 H   0  0  0  0  0  0  0  0  0  0  0  0
   57.0476   31.3623   45.4268 H   0  0  0  0  0  0  0  0  0  0  0  0
   58.9795   32.7455   48.0110 H   0  0  0  0  0  0  0  0  0  0  0  0
   57.8465   33.2740   49.3197 H   0  0  0  0  0  0  0  0  0  0  0  0
   59.5039   34.1635   50.5545 H   0  0  0  0  0  0  0  0  0  0  0  0
   60.5805   32.7216   50.2606 H   0  0  0  0  0  0  0  0  0  0  0  0
   60.3269   34.3242   47.8504 H   0  0  0  0  0  0  0  0  0  0  0  0
   60.9004   35.3249   49.2538 H   0  0  0  0  0  0  0  0  0  0  0  0
   63.1813   32.2475   49.7960 H   0  0  0  0  0  0  0  0  0  0  0  0
   61.3693   32.1951   49.8744 H   0  0  0  0  0  0  0  0  0  0  0  0
   62.2795   30.3148   48.5552 H   0  0  0  0  0  0  0  0  0  0  0  0
   61.2746   31.4662   47.5500 H   0  0  0  0  0  0  0  0  0  0  0  0
   64.5742   32.9413   47.7236 H   0  0  0  0  0  0  0  0  0  0  0  0
   64.0507   32.9143   45.9741 H   0  0  0  0  0  0  0  0  0  0  0  0
   63.0919   34.8474   47.1483 H   0  0  0  0  0  0  0  0  0  0  0  0
   61.8170   33.6752   46.6253 H   0  0  0  0  0  0  0  0  0  0  0  0
   59.4856   26.5230   45.6708 H   0  0  0  0  0  0  0  0  0  0  0  0
   59.4331   24.1149   45.0638 H   0  0  0  0  0  0  0  0  0  0  0  0
   58.1795   22.0793   44.5983 H   0  0  0  0  0  0  0  0  0  0  0  0
   56.0022   20.8796   44.4129 H   0  0  0  0  0  0  0  0  0  0  0  0
   53.8648   22.0912   44.8352 H   0  0  0  0  0  0  0  0  0  0  0  0
   53.8898   24.5063   45.4486 H   0  0  0  0  0  0  0  0  0  0  0  0
  1  2  2  0
  2  3  1  0
  3  4  1  0
  4  5  1  0
  5  6  1  0
  6  7  2  0
  7  8  1  0
  8  9  2  0
  9 10  1  0
 10 11  2  0
  4 12  1  0
 12 13  2  0
 12 14  1  0
 14 15  1  0
 15 16  1  0
 16 17  1  0
 17 18  1  0
 18 19  1  0
 19 20  1  0
 20 21  1  0
 21 22  1  0
 22 23  1  0
  2 24  1  0
 24 25  2  0
 25 26  1  0
 26 27  2  0
 27 28  1  0
 28 29  2  0
 29 30  1  0
 30 31  2  0
 31 32  1  0
 32 33  2  0
 33 34  1  0
 11  6  1  0
 23 18  1  0
 33 24  1  0
 32 27  1  0
  3 35  1  0
  4 36  1  1
  5 37  1  0
  5 38  1  0
  7 39  1  0
  8 40  1  0
  9 41  1  0
 10 42  1  0
 11 43  1  0
 15 44  1  0
 15 45  1  0
 16 46  1  0
 16 47  1  0
 17 48  1  0
 17 49  1  0
 19 50  1  0
 19 51  1  0
 20 52  1  0
 20 53  1  0
 22 54  1  0
 22 55  1  0
 23 56  1  0
 23 57  1  0
 25 58  1  0
 26 59  1  0
 28 60  1  0
 29 61  1  0
 30 62  1  0
 31 63  1  0
M  CHG  2  14  -1  34  -1
M  END
>  <UniqueID>  (65) 
61

>  <SMILES>  (65) 
O=C(N[C@H](Cc1ccccc1)C(=O)[N-]CCCN1CCOCC1)c1ccc2ccccc2c1[O-]

>  <Energy>  (65) 
79.38378565310761

>  <Genealogy>  (65) 
O=C(NC(Cc1ccccc1)C(=O)[N-]CCCN1CCOCC1)c1ccc2ccccc2c1[O-] (protonated)
O=C(N[C@H](Cc1ccccc1)C(=O)[N-]CCCN1CCOCC1)c1ccc2ccccc2c1[O-] (chirality)
O=C(N[C@H](Cc1ccccc1)C(=O)[N-]CCCN1CCOCC1)c1ccc2ccccc2c1[O-] (3D coordinates assigned)
O=C(N[C@H](Cc1ccccc1)C(=O)[N-]CCCN1CCOCC1)c1ccc2ccccc2c1[O-] (nonaromatic ring conformer: 79.38378565310761 kcal/mol)

>  <smiles>  (65) 
O=C(NC(Cc1ccccc1)C(=O)NCCCN1CCOCC1)c1ccc2ccccc2c1O

>  <score_type>  (65) 
oracle

>  <origin>  (65) 
adg

>  <m_score__min__energy>  (65) 
-13.41

>  <m_primary>  (65) 
energy

$$$$
65:0
     RDKit          3D

 57 61  0  0  0  0  0  0  0  0999 V2000
   61.4550   29.0710   45.2030 O   0  0  0  0  0  0  0  0  0  0  0  0
   60.3610   29.4520   45.7030 C   0  0  0  0  0  0  0  0  0  0  0  0
   60.4010   30.5610   46.7150 C   0  0  0  0  0  0  0  0  0  0  0  0
   60.3090   29.8640   48.4040 S   0  0  0  0  0  0  0  0  0  0  0  0
   60.6590   31.4250   49.2530 C   0  0  0  0  0  0  0  0  0  0  0  0
   61.8380   32.1530   48.9630 C   0  0  0  0  0  0  0  0  0  0  0  0
   62.0380   33.4040   49.5690 C   0  0  0  0  0  0  0  0  0  0  0  0
   61.1260   33.9000   50.4430 N   0  0  0  0  0  0  0  0  0  0  0  0
   60.0010   33.2180   50.7730 C   0  0  0  0  0  0  0  0  0  0  0  0
   59.1040   33.7770   51.6890 C   0  0  0  0  0  0  0  0  0  0  0  0
   57.9510   33.0810   52.0570 C   0  0  0  0  0  0  0  0  0  0  0  0
   57.6930   31.8180   51.5190 C   0  0  0  0  0  0  0  0  0  0  0  0
   56.2470   30.9460   51.9980 Cl  0  0  0  0  0  0  0  0  0  0  0  0
   58.5820   31.2500   50.5990 C   0  0  0  0  0  0  0  0  0  0  0  0
   59.7400   31.9510   50.1960 C   0  0  0  0  0  0  0  0  0  0  0  0
   63.2670   34.1950   49.2330 C   0  0  0  0  0  0  0  0  0  0  0  0
   63.5060   34.1550   47.7170 C   0  0  0  0  0  0  0  0  0  0  0  0
   63.4760   32.7240   47.1200 C   0  0  0  0  0  0  0  0  0  0  0  0
   62.9490   31.6330   48.0740 C   0  0  0  0  0  0  0  0  0  0  0  0
   59.1320   28.7920   45.3110 N   0  0  0  0  0  0  0  0  0  0  0  0
   59.1750   27.8470   44.1800 C   0  0  0  0  0  0  0  0  0  0  0  0
   57.7890   27.2780   43.8520 C   0  0  0  0  0  0  0  0  0  0  0  0
   57.1110   26.8750   45.0900 N   0  0  0  0  0  0  0  0  0  0  0  0
   56.6290   25.5300   45.2460 C   0  0  0  0  0  0  0  0  0  0  0  0
   57.4740   24.4450   44.9630 C   0  0  0  0  0  0  0  0  0  0  0  0
   57.0270   23.1340   45.1520 C   0  0  0  0  0  0  0  0  0  0  0  0
   55.7330   22.8970   45.6260 C   0  0  0  0  0  0  0  0  0  0  0  0
   54.8840   23.9700   45.9070 C   0  0  0  0  0  0  0  0  0  0  0  0
   55.3240   25.2850   45.7140 C   0  0  0  0  0  0  0  0  0  0  0  0
   54.4580   26.3390   45.9760 O   0  0  0  0  0  0  0  0  0  0  0  0
   57.0890   27.7790   46.2460 C   0  0  0  0  0  0  0  0  0  0  0  0
   57.8390   29.0820   45.9550 C   0  0  0  0  0  0  0  0  0  0  0  0
   61.3395   31.1237   46.6030 H   0  0  0  0  0  0  0  0  0  0  0  0
   59.5445   31.2317   46.5522 H   0  0  0  0  0  0  0  0  0  0  0  0
   59.3076   34.7680   52.1208 H   0  0  0  0  0  0  0  0  0  0  0  0
   57.2445   33.5280   52.7719 H   0  0  0  0  0  0  0  0  0  0  0  0
   58.3773   30.2508   50.1871 H   0  0  0  0  0  0  0  0  0  0  0  0
   63.1305   35.2380   49.5548 H   0  0  0  0  0  0  0  0  0  0  0  0
   64.1344   33.7605   49.7514 H   0  0  0  0  0  0  0  0  0  0  0  0
   62.7240   34.7528   47.2260 H   0  0  0  0  0  0  0  0  0  0  0  0
   64.5144   34.5570   47.5393 H   0  0  0  0  0  0  0  0  0  0  0  0
   62.8313   32.7391   46.2288 H   0  0  0  0  0  0  0  0  0  0  0  0
   64.5206   32.4607   46.8976 H   0  0  0  0  0  0  0  0  0  0  0  0
   62.5639   30.7933   47.4768 H   0  0  0  0  0  0  0  0  0  0  0  0
   63.7804   31.3109   48.7182 H   0  0  0  0  0  0  0  0  0  0  0  0
   59.5621   28.3714   43.2939 H   0  0  0  0  0  0  0  0  0  0  0  0
   59.8276   27.0081   44.4635 H   0  0  0  0  0  0  0  0  0  0  0  0
   57.1903   28.0466   43.3413 H   0  0  0  0  0  0  0  0  0  0  0  0
   57.9021   26.4009   43.1979 H   0  0  0  0  0  0  0  0  0  0  0  0
   58.4929   24.6275   44.5907 H   0  0  0  0  0  0  0  0  0  0  0  0
   57.6937   22.2883   44.9277 H   0  0  0  0  0  0  0  0  0  0  0  0
   55.3835   21.8651   45.7777 H   0  0  0  0  0  0  0  0  0  0  0  0
   53.8669   23.7813   46.2810 H   0  0  0  0  0  0  0  0  0  0  0  0
   56.0439   28.0161   46.4943 H   0  0  0  0  0  0  0  0  0  0  0  0
   57.5872   27.2750   47.0873 H   0  0  0  0  0  0  0  0  0  0  0  0
   57.2320   29.7088   45.2852 H   0  0  0  0  0  0  0  0  0  0  0  0
   58.0205   29.6109   46.9023 H   0  0  0  0  0  0  0  0  0  0  0  0
  1  2  2  0
  2  3  1  0
  3  4  1  0
  4  5  1  0
  5  6  2  0
  6  7  1  0
  7  8  2  0
  8  9  1  0
  9 10  2  0
 10 11  1  0
 11 12  2  0
 12 13  1  0
 12 14  1  0
 14 15  2  0
  7 16  1  0
 16 17  1  0
 17 18  1  0
 18 19  1  0
  2 20  1  0
 20 21  1  0
 21 22  1  0
 22 23  1  0
 23 24  1  0
 24 25  2  0
 25 26  1  0
 26 27  2  0
 27 28  1  0
 28 29  2  0
 29 30  1  0
 23 31  1  0
 31 32  1  0
 15  5  1  0
 32 20  1  0
 19  6  1  0
 29 24  1  0
 15  9  1  0
  3 33  1  0
  3 34  1  0
 10 35  1  0
 11 36  1  0
 14 37  1  0
 16 38  1  0
 16 39  1  0
 17 40  1  0
 17 41  1  0
 18 42  1  0
 18 43  1  0
 19 44  1  0
 19 45  1  0
 21 46  1  0
 21 47  1  0
 22 48  1  0
 22 49  1  0
 25 50  1  0
 26 51  1  0
 27 52  1  0
 28 53  1  0
 31 54  1  0
 31 55  1  0
 32 56  1  0
 32 57  1  0
M  CHG  1  30  -1
M  END
>  <UniqueID>  (66) 
62

>  <SMILES>  (66) 
O=C(CSc1c2c(nc3ccc(Cl)cc13)CCCC2)N1CCN(c2ccccc2[O-])CC1

>  <Energy>  (66) 
74.17322906214085

>  <Genealogy>  (66) 
O=C(CSc1c2c(nc3ccc(Cl)cc13)CCCC2)N1CCN(c2ccccc2[O-])CC1 (protonated)
O=C(CSc1c2c(nc3ccc(Cl)cc13)CCCC2)N1CCN(c2ccccc2[O-])CC1 (3D coordinates assigned)
O=C(CSc1c2c(nc3ccc(Cl)cc13)CCCC2)N1CCN(c2ccccc2[O-])CC1 (nonaromatic ring conformer: 74.17322906214085 kcal/mol)

>  <smiles>  (66) 
O=C(CSc1c2c(nc3ccc(Cl)cc13)CCCC2)N1CCN(c2ccccc2O)CC1

>  <score_type>  (66) 
oracle

>  <origin>  (66) 
adg

>  <m_score__min__energy>  (66) 
-13.279999999999999

>  <m_primary>  (66) 
energy

$$$$
66:0
     RDKit          3D

 45 47  0  0  0  0  0  0  0  0999 V2000
   55.1450   27.4850   45.3000 H   0  0  0  0  0  0  0  0  0  0  0  0
   55.4000   26.7530   45.9520 O   0  0  0  0  0  0  0  0  0  0  0  0
   55.2750   25.4110   45.6060 C   0  0  0  0  0  0  0  0  0  0  0  0
   54.2550   24.6740   46.1220 N   0  0  0  0  0  0  0  0  0  0  0  0
   54.1020   23.3640   45.7990 C   0  0  0  0  0  0  0  0  0  0  0  0
   53.1540   22.7010   46.2920 O   0  0  0  0  0  0  0  0  0  0  0  0
   54.9680   22.7700   44.9370 N   0  0  0  0  0  0  0  0  0  0  0  0
   56.0020   23.4620   44.3930 C   0  0  0  0  0  0  0  0  0  0  0  0
   56.7720   22.8850   43.5800 O   0  0  0  0  0  0  0  0  0  0  0  0
   56.1980   24.8130   44.7360 C   0  0  0  0  0  0  0  0  0  0  0  0
   57.2810   25.6160   44.1360 C   0  0  0  0  0  0  0  0  0  0  0  0
   57.3517   25.6226   43.0383 H   0  0  0  0  0  0  0  0  0  0  0  0
   58.1910   26.3420   44.8150 C   0  0  0  0  0  0  0  0  0  0  0  0
   58.9600   27.3220   44.2130 C   0  0  0  0  0  0  0  0  0  0  0  0
   58.9032   27.6461   43.1634 H   0  0  0  0  0  0  0  0  0  0  0  0
   59.8110   27.8150   45.1790 C   0  0  0  0  0  0  0  0  0  0  0  0
   60.8350   28.8850   44.9420 C   0  0  0  0  0  0  0  0  0  0  0  0
   61.1986   29.2650   45.9081 H   0  0  0  0  0  0  0  0  0  0  0  0
   61.6776   28.4664   44.3720 H   0  0  0  0  0  0  0  0  0  0  0  0
   60.3798   29.7084   44.3720 H   0  0  0  0  0  0  0  0  0  0  0  0
   59.6020   27.1870   46.3590 N   0  0  0  0  0  0  0  0  0  0  0  0
   60.2860   27.5050   47.6210 C   0  0  0  0  0  0  0  0  0  0  0  0
   60.3423   26.5985   48.2416 H   0  0  0  0  0  0  0  0  0  0  0  0
   61.2985   27.8717   47.3966 H   0  0  0  0  0  0  0  0  0  0  0  0
   59.5190   28.5930   48.3830 C   0  0  0  0  0  0  0  0  0  0  0  0
   58.6066   28.1510   48.8098 H   0  0  0  0  0  0  0  0  0  0  0  0
   60.1793   28.9841   49.1711 H   0  0  0  0  0  0  0  0  0  0  0  0
   59.1230   29.7640   47.4740 C   0  0  0  0  0  0  0  0  0  0  0  0
   59.1703   30.6980   48.0531 H   0  0  0  0  0  0  0  0  0  0  0  0
   59.8220   29.7939   46.6252 H   0  0  0  0  0  0  0  0  0  0  0  0
   57.7670   29.5990   46.9470 N   0  0  0  0  0  0  0  0  0  0  0  0
   57.3950   29.8920   45.7350 C   0  0  0  0  0  0  0  0  0  0  0  0
   56.2670   29.3440   45.1950 N   0  0  0  0  0  0  0  0  0  0  0  0
   55.8650   29.6320   43.9290 C   0  0  0  0  0  0  0  0  0  0  0  0
   54.9511   29.1722   43.5247 H   0  0  0  0  0  0  0  0  0  0  0  0
   56.6110   30.5110   43.1410 C   0  0  0  0  0  0  0  0  0  0  0  0
   56.2924   30.7455   42.1146 H   0  0  0  0  0  0  0  0  0  0  0  0
   57.7650   31.0880   43.6710 C   0  0  0  0  0  0  0  0  0  0  0  0
   58.3610   31.7849   43.0635 H   0  0  0  0  0  0  0  0  0  0  0  0
   58.1630   30.7800   44.9740 C   0  0  0  0  0  0  0  0  0  0  0  0
   59.0720   31.2315   45.3980 H   0  0  0  0  0  0  0  0  0  0  0  0
   58.5820   26.3080   46.1650 C   0  0  0  0  0  0  0  0  0  0  0  0
   57.9990   25.6190   47.1600 C   0  0  0  0  0  0  0  0  0  0  0  0
   58.4048   25.6773   48.1807 H   0  0  0  0  0  0  0  0  0  0  0  0
   57.1158   24.9965   46.9540 H   0  0  0  0  0  0  0  0  0  0  0  0
  1  2  1  0
  2  3  1  0
  3  4  1  0
  4  5  1  0
  5  6  2  0
  5  7  1  0
  7  8  1  0
  8  9  2  0
  8 10  1  0
 10 11  1  0
 11 12  1  0
 11 13  2  3
 13 14  1  0
 14 15  1  0
 14 16  2  0
 16 17  1  0
 17 18  1  0
 17 19  1  0
 17 20  1  0
 16 21  1  0
 21 22  1  0
 22 23  1  0
 22 24  1  0
 22 25  1  0
 25 26  1  0
 25 27  1  0
 25 28  1  0
 28 29  1  0
 28 30  1  0
 28 31  1  0
 31 32  2  0
 32 33  1  0
 33 34  1  0
 34 35  1  0
 34 36  2  0
 36 37  1  0
 36 38  1  0
 38 39  1  0
 38 40  2  0
 40 41  1  0
 21 42  1  0
 42 43  2  0
 43 44  1  0
 43 45  1  0
 10  3  2  0
 42 13  1  0
 40 32  1  0
M  CHG  3   4  -1   7  -1  33  -1
M  END
>  <UniqueID>  (67) 
63

>  <SMILES>  (67) 
C=c1c(=Cc2c(O)[n-]c(=O)[n-]c2=O)cc(C)n1CCC/N=c1/cccc[n-]1

>  <Energy>  (67) 
85.10242149030046

>  <Genealogy>  (67) 
C=c1c(=Cc2c(O)[n-]c(=O)[n-]c2=O)cc(C)n1CCCN=c1cccc[n-]1 (protonated)
C=c1c(=Cc2c(O)[n-]c(=O)[n-]c2=O)cc(C)n1CCC/N=c1/cccc[n-]1 (cis-trans isomerization)
C=c1c(=Cc2c(O)[n-]c(=O)[n-]c2=O)cc(C)n1CCC/N=c1/cccc[n-]1 (3D coordinates assigned)
C=c1c(=Cc2c(O)[n-]c(=O)[n-]c2=O)cc(C)n1CCC/N=c1/cccc[n-]1 (optimized conformer: 85.10242149030046 kcal/mol)

>  <smiles>  (67) 
C=c1c(=Cc2c(O)[nH]c(=O)[nH]c2=O)cc(C)n1CCCN=c1cccc[nH]1

>  <score_type>  (67) 
oracle

>  <origin>  (67) 
adg

>  <m_score__min__energy>  (67) 
-14.1

>  <m_primary>  (67) 
energy

$$$$
67:0
     RDKit          3D

 32 33  0  0  0  0  0  0  0  0999 V2000
   55.3960   22.5380   45.2240 C   0  0  0  0  0  0  0  0  0  0  0  0
   55.7760   23.8300   45.7830 N   0  0  0  0  0  0  0  0  0  0  0  0
   56.6510   23.9390   46.9090 C   0  0  0  0  0  0  0  0  0  0  0  0
   57.0950   22.8990   47.4700 O   0  0  0  0  0  0  0  0  0  0  0  0
   56.9770   25.2350   47.4230 N   0  0  0  0  0  0  0  0  0  0  0  0
   57.2740   26.3940   46.6310 C   0  0  0  0  0  0  0  0  0  0  0  0
   58.5860   26.8790   46.6210 C   0  0  0  0  0  0  0  0  0  0  0  0
   58.9200   28.0080   45.8690 C   0  0  0  0  0  0  0  0  0  0  0  0
   57.9440   28.6710   45.1130 C   0  0  0  0  0  0  0  0  0  0  0  0
   58.3050   29.8450   44.3640 N   0  0  0  0  0  0  0  0  0  0  0  0
   58.2380   31.1870   44.8750 C   0  0  0  0  0  0  0  0  0  0  0  0
   58.4610   31.4650   46.2380 C   0  0  0  0  0  0  0  0  0  0  0  0
   58.3620   32.7740   46.7150 C   0  0  0  0  0  0  0  0  0  0  0  0
   58.0260   33.8150   45.8460 C   0  0  0  0  0  0  0  0  0  0  0  0
   57.7790   33.5440   44.4970 C   0  0  0  0  0  0  0  0  0  0  0  0
   57.8770   32.2360   44.0150 C   0  0  0  0  0  0  0  0  0  0  0  0
   56.6130   28.2200   45.1670 C   0  0  0  0  0  0  0  0  0  0  0  0
   56.2740   27.0940   45.9260 C   0  0  0  0  0  0  0  0  0  0  0  0
   54.9420   26.7090   46.0030 O   0  0  0  0  0  0  0  0  0  0  0  0
   55.1883   21.8317   46.0413 H   0  0  0  0  0  0  0  0  0  0  0  0
   54.4949   22.6573   44.6045 H   0  0  0  0  0  0  0  0  0  0  0  0
   56.2182   22.1504   44.6045 H   0  0  0  0  0  0  0  0  0  0  0  0
   55.4030   24.7020   45.3450 H   0  0  0  0  0  0  0  0  0  0  0  0
   59.3612   26.3672   47.2101 H   0  0  0  0  0  0  0  0  0  0  0  0
   59.9556   28.3788   45.8703 H   0  0  0  0  0  0  0  0  0  0  0  0
   58.6380   29.7130   43.3830 H   0  0  0  0  0  0  0  0  0  0  0  0
   58.7141   30.6478   46.9294 H   0  0  0  0  0  0  0  0  0  0  0  0
   58.5491   32.9859   47.7781 H   0  0  0  0  0  0  0  0  0  0  0  0
   57.9559   34.8461   46.2226 H   0  0  0  0  0  0  0  0  0  0  0  0
   57.5070   34.3619   43.8136 H   0  0  0  0  0  0  0  0  0  0  0  0
   57.6700   32.0271   42.9550 H   0  0  0  0  0  0  0  0  0  0  0  0
   55.8321   28.7566   44.6082 H   0  0  0  0  0  0  0  0  0  0  0  0
  1  2  1  0
  2  3  1  0
  3  4  2  0
  3  5  1  0
  5  6  1  0
  6  7  2  0
  7  8  1  0
  8  9  2  0
  9 10  1  0
 10 11  1  0
 11 12  2  0
 12 13  1  0
 13 14  2  0
 14 15  1  0
 15 16  2  0
  9 17  1  0
 17 18  2  0
 18 19  1  0
 18  6  1  0
 16 11  1  0
  1 20  1  0
  1 21  1  0
  1 22  1  0
  2 23  1  0
  7 24  1  0
  8 25  1  0
 10 26  1  0
 12 27  1  0
 13 28  1  0
 14 29  1  0
 15 30  1  0
 16 31  1  0
 17 32  1  0
M  CHG  2   5  -1  19  -1
M  END
>  <UniqueID>  (68) 
64

>  <SMILES>  (68) 
CNC(=O)[N-]c1ccc(Nc2ccccc2)cc1[O-]

>  <Energy>  (68) 
39.943143491408165

>  <Genealogy>  (68) 
CNC(=O)[N-]c1ccc(Nc2ccccc2)cc1[O-] (protonated)
CNC(=O)[N-]c1ccc(Nc2ccccc2)cc1[O-] (3D coordinates assigned)
CNC(=O)[N-]c1ccc(Nc2ccccc2)cc1[O-] (optimized conformer: 39.943143491408165 kcal/mol)

>  <smiles>  (68) 
CNC(=O)Nc1ccc(Nc2ccccc2)cc1O

>  <score_type>  (68) 
oracle

>  <origin>  (68) 
adg

>  <m_score__min__energy>  (68) 
-11.869999999999999

>  <m_primary>  (68) 
energy

$$$$
68:0
     RDKit          3D

 49 51  0  0  0  0  0  0  0  0999 V2000
   61.3850   29.3280   45.5060 O   0  0  0  0  0  0  0  0  0  0  0  0
   60.2560   28.7840   45.6480 C   0  0  0  0  0  0  0  0  0  0  0  0
   59.5430   28.2420   44.4460 C   0  0  0  0  0  0  0  0  0  0  0  0
   58.2260   27.5880   44.8590 C   0  0  0  0  0  0  0  0  0  0  0  0
   57.3910   28.5510   45.5800 N   0  0  0  0  0  0  0  0  0  0  0  0
   56.5700   29.6150   44.4770 S   0  0  0  0  0  0  0  0  0  0  0  0
   55.1300   29.7670   44.8830 O   0  0  0  0  0  0  0  0  0  0  0  0
   56.6280   29.0390   43.0900 O   0  0  0  0  0  0  0  0  0  0  0  0
   57.3550   31.1840   44.4800 C   0  0  0  0  0  0  0  0  0  0  0  0
   57.7550   31.8830   43.3520 C   0  0  0  0  0  0  0  0  0  0  0  0
   58.3990   33.0880   43.6570 C   0  0  0  0  0  0  0  0  0  0  0  0
   58.5020   33.3220   45.0210 C   0  0  0  0  0  0  0  0  0  0  0  0
   59.3260   34.8390   45.8310 Br  0  0  0  0  0  0  0  0  0  0  0  0
   57.8030   32.0410   45.8560 S   0  0  0  0  0  0  0  0  0  0  0  0
   59.6490   28.6820   46.9460 N   0  0  0  0  0  0  0  0  0  0  0  0
   60.1120   29.3850   48.1120 C   0  0  0  0  0  0  0  0  0  0  0  0
   60.6410   28.7000   49.2190 C   0  0  0  0  0  0  0  0  0  0  0  0
   61.1040   29.4100   50.3300 C   0  0  0  0  0  0  0  0  0  0  0  0
   61.0630   30.8060   50.3410 C   0  0  0  0  0  0  0  0  0  0  0  0
   61.5050   31.4730   51.4360 F   0  0  0  0  0  0  0  0  0  0  0  0
   60.5700   31.5040   49.2270 C   0  0  0  0  0  0  0  0  0  0  0  0
   60.5190   33.2680   49.2280 S   0  0  0  0  0  0  0  0  0  0  0  0
   60.6950   33.7680   50.6360 O   0  0  0  0  0  0  0  0  0  0  0  0
   59.1750   33.7010   48.7120 O   0  0  0  0  0  0  0  0  0  0  0  0
   61.7910   33.9040   48.2050 N   0  0  0  0  0  0  0  0  0  0  0  0
   62.0550   33.0270   47.0420 C   0  0  0  0  0  0  0  0  0  0  0  0
   63.2820   32.1200   47.2460 C   0  0  0  0  0  0  0  0  0  0  0  0
   63.4140   31.7750   48.6070 O   0  0  0  0  0  0  0  0  0  0  0  0
   63.7830   32.9130   49.3670 C   0  0  0  0  0  0  0  0  0  0  0  0
   63.0140   34.1980   48.9730 C   0  0  0  0  0  0  0  0  0  0  0  0
   60.0930   30.7870   48.1190 C   0  0  0  0  0  0  0  0  0  0  0  0
   59.3354   29.0647   43.7460 H   0  0  0  0  0  0  0  0  0  0  0  0
   60.1806   27.4870   43.9629 H   0  0  0  0  0  0  0  0  0  0  0  0
   57.6925   27.2449   43.9603 H   0  0  0  0  0  0  0  0  0  0  0  0
   58.4393   26.7325   45.5168 H   0  0  0  0  0  0  0  0  0  0  0  0
   57.5843   31.5282   42.3249 H   0  0  0  0  0  0  0  0  0  0  0  0
   58.7843   33.7792   42.8930 H   0  0  0  0  0  0  0  0  0  0  0  0
   58.8660   28.0000   47.0630 H   0  0  0  0  0  0  0  0  0  0  0  0
   60.6908   27.6012   49.2110 H   0  0  0  0  0  0  0  0  0  0  0  0
   61.5025   28.8670   51.1997 H   0  0  0  0  0  0  0  0  0  0  0  0
   61.1727   32.3922   46.8729 H   0  0  0  0  0  0  0  0  0  0  0  0
   62.2622   33.6756   46.1780 H   0  0  0  0  0  0  0  0  0  0  0  0
   63.1594   31.2039   46.6495 H   0  0  0  0  0  0  0  0  0  0  0  0
   64.1844   32.6607   46.9245 H   0  0  0  0  0  0  0  0  0  0  0  0
   63.5856   32.7013   50.4282 H   0  0  0  0  0  0  0  0  0  0  0  0
   64.8485   33.1014   49.1689 H   0  0  0  0  0  0  0  0  0  0  0  0
   62.7349   34.7384   49.8896 H   0  0  0  0  0  0  0  0  0  0  0  0
   63.6747   34.8036   48.3353 H   0  0  0  0  0  0  0  0  0  0  0  0
   59.7002   31.3304   47.2470 H   0  0  0  0  0  0  0  0  0  0  0  0
  1  2  2  0
  2  3  1  0
  3  4  1  0
  4  5  1  0
  5  6  1  0
  6  7  2  0
  6  8  2  0
  6  9  1  0
  9 10  2  0
 10 11  1  0
 11 12  2  0
 12 13  1  0
 12 14  1  0
  2 15  1  0
 15 16  1  0
 16 17  2  0
 17 18  1  0
 18 19  2  0
 19 20  1  0
 19 21  1  0
 21 22  1  0
 22 23  2  0
 22 24  2  0
 22 25  1  0
 25 26  1  0
 26 27  1  0
 27 28  1  0
 28 29  1  0
 29 30  1  0
 21 31  2  0
 14  9  1  0
 31 16  1  0
 30 25  1  0
  3 32  1  0
  3 33  1  0
  4 34  1  0
  4 35  1  0
 10 36  1  0
 11 37  1  0
 15 38  1  0
 17 39  1  0
 18 40  1  0
 26 41  1  0
 26 42  1  0
 27 43  1  0
 27 44  1  0
 29 45  1  0
 29 46  1  0
 30 47  1  0
 30 48  1  0
 31 49  1  0
M  CHG  1   5  -1
M  END
>  <UniqueID>  (69) 
65

>  <SMILES>  (69) 
O=C(CC[N-]S(=O)(=O)c1ccc(Br)s1)Nc1ccc(F)c(S(=O)(=O)N2CCOCC2)c1

>  <Energy>  (69) 
87.29909168332904

>  <Genealogy>  (69) 
O=C(CC[N-]S(=O)(=O)c1ccc(Br)s1)Nc1ccc(F)c(S(=O)(=O)N2CCOCC2)c1 (protonated)
O=C(CC[N-]S(=O)(=O)c1ccc(Br)s1)Nc1ccc(F)c(S(=O)(=O)N2CCOCC2)c1 (3D coordinates assigned)
O=C(CC[N-]S(=O)(=O)c1ccc(Br)s1)Nc1ccc(F)c(S(=O)(=O)N2CCOCC2)c1 (nonaromatic ring conformer: 87.29909168332904 kcal/mol)

>  <smiles>  (69) 
O=C(CCNS(=O)(=O)c1ccc(Br)s1)Nc1ccc(F)c(S(=O)(=O)N2CCOCC2)c1

>  <score_type>  (69) 
oracle

>  <origin>  (69) 
adg

>  <m_score__min__energy>  (69) 
-11.07

>  <m_primary>  (69) 
energy

$$$$
69:0
     RDKit          3D

 57 60  0  0  0  0  0  0  0  0999 V2000
   57.6750   30.0250   51.2720 N   0  0  0  0  0  0  0  0  0  0  0  0
   58.4800   31.1740   50.2620 S   0  0  0  0  0  0  0  0  0  0  0  0
   58.9060   30.5090   48.9840 O   0  0  0  0  0  0  0  0  0  0  0  0
   57.5390   32.2990   49.9320 O   0  0  0  0  0  0  0  0  0  0  0  0
   59.8910   31.8000   51.1070 C   0  0  0  0  0  0  0  0  0  0  0  0
   59.7320   32.6080   52.2410 C   0  0  0  0  0  0  0  0  0  0  0  0
   60.8510   33.1360   52.8900 C   0  0  0  0  0  0  0  0  0  0  0  0
   62.1340   32.8640   52.4090 C   0  0  0  0  0  0  0  0  0  0  0  0
   62.3070   32.0510   51.2780 C   0  0  0  0  0  0  0  0  0  0  0  0
   63.6840   31.7880   50.7350 C   0  0  0  0  0  0  0  0  0  0  0  0
   64.1120   33.0020   49.4920 S   0  0  0  0  0  0  0  0  0  0  0  0
   65.5740   33.3420   49.6120 O   0  0  0  0  0  0  0  0  0  0  0  0
   63.3000   34.2450   49.7340 O   0  0  0  0  0  0  0  0  0  0  0  0
   63.7540   32.3970   47.8890 N   0  0  0  0  0  0  0  0  0  0  0  0
   63.3260   33.4650   46.9620 C   0  0  0  0  0  0  0  0  0  0  0  0
   61.8670   33.9190   47.1800 C   0  0  0  0  0  0  0  0  0  0  0  0
   60.9310   32.7540   47.5580 C   0  0  0  0  0  0  0  0  0  0  0  0
   59.5570   32.9670   47.0520 N   0  0  0  0  0  0  0  0  0  0  0  0
   58.8310   32.3300   46.0940 C   0  0  0  0  0  0  0  0  0  0  0  0
   59.2130   31.1200   45.2730 C   0  0  0  0  0  0  0  0  0  0  0  0
   58.2290   29.9880   45.4200 C   0  0  0  0  0  0  0  0  0  0  0  0
   58.6010   28.8010   46.0780 C   0  0  0  0  0  0  0  0  0  0  0  0
   57.6910   27.7480   46.1980 C   0  0  0  0  0  0  0  0  0  0  0  0
   56.4130   27.8550   45.6440 C   0  0  0  0  0  0  0  0  0  0  0  0
   55.5150   26.8020   45.7700 O   0  0  0  0  0  0  0  0  0  0  0  0
   56.0460   29.0170   44.9600 C   0  0  0  0  0  0  0  0  0  0  0  0
   54.7790   29.1270   44.3950 O   0  0  0  0  0  0  0  0  0  0  0  0
   56.9530   30.0750   44.8370 C   0  0  0  0  0  0  0  0  0  0  0  0
   57.6400   33.0120   45.9480 C   0  0  0  0  0  0  0  0  0  0  0  0
   56.6190   32.6830   45.0640 O   0  0  0  0  0  0  0  0  0  0  0  0
   57.5890   34.0710   46.7720 N   0  0  0  0  0  0  0  0  0  0  0  0
   58.7710   34.0110   47.4160 C   0  0  0  0  0  0  0  0  0  0  0  0
   59.1110   34.8700   48.2730 O   0  0  0  0  0  0  0  0  0  0  0  0
   61.5330   31.3970   47.1790 C   0  0  0  0  0  0  0  0  0  0  0  0
   62.8630   31.2050   47.9270 C   0  0  0  0  0  0  0  0  0  0  0  0
   61.1790   31.5300   50.6250 C   0  0  0  0  0  0  0  0  0  0  0  0
   56.6560   30.2640   51.2520 H   0  0  0  0  0  0  0  0  0  0  0  0
   58.7233   32.8271   52.6212 H   0  0  0  0  0  0  0  0  0  0  0  0
   60.7214   33.7672   53.7815 H   0  0  0  0  0  0  0  0  0  0  0  0
   63.0117   33.2884   52.9184 H   0  0  0  0  0  0  0  0  0  0  0  0
   64.4130   31.8397   51.5572 H   0  0  0  0  0  0  0  0  0  0  0  0
   63.6996   30.7887   50.2755 H   0  0  0  0  0  0  0  0  0  0  0  0
   63.9860   34.3337   47.1027 H   0  0  0  0  0  0  0  0  0  0  0  0
   63.3892   33.0548   45.9433 H   0  0  0  0  0  0  0  0  0  0  0  0
   61.8474   34.6630   47.9899 H   0  0  0  0  0  0  0  0  0  0  0  0
   61.5052   34.3409   46.2307 H   0  0  0  0  0  0  0  0  0  0  0  0
   60.8371   32.7356   48.6538 H   0  0  0  0  0  0  0  0  0  0  0  0
   59.2582   31.4126   44.2136 H   0  0  0  0  0  0  0  0  0  0  0  0
   60.1883   30.7641   45.6366 H   0  0  0  0  0  0  0  0  0  0  0  0
   59.6122   28.7020   46.4994 H   0  0  0  0  0  0  0  0  0  0  0  0
   57.9819   26.8307   46.7309 H   0  0  0  0  0  0  0  0  0  0  0  0
   56.6660   30.9798   44.2811 H   0  0  0  0  0  0  0  0  0  0  0  0
   60.8349   30.5942   47.4585 H   0  0  0  0  0  0  0  0  0  0  0  0
   61.7118   31.3629   46.0942 H   0  0  0  0  0  0  0  0  0  0  0  0
   62.6386   30.9737   48.9787 H   0  0  0  0  0  0  0  0  0  0  0  0
   63.3994   30.3892   47.4203 H   0  0  0  0  0  0  0  0  0  0  0  0
   61.3068   30.9054   49.7286 H   0  0  0  0  0  0  0  0  0  0  0  0
  1  2  1  0
  2  3  2  0
  2  4  2  0
  2  5  1  0
  5  6  2  0
  6  7  1  0
  7  8  2  0
  8  9  1  0
  9 10  1  0
 10 11  1  0
 11 12  2  0
 11 13  2  0
 11 14  1  0
 14 15  1  0
 15 16  1  0
 16 17  1  0
 17 18  1  0
 18 19  1  0
 19 20  1  0
 20 21  1  0
 21 22  2  0
 22 23  1  0
 23 24  2  0
 24 25  1  0
 24 26  1  0
 26 27  1  0
 26 28  2  0
 19 29  2  0
 29 30  1  0
 29 31  1  0
 31 32  1  0
 32 33  2  0
 17 34  1  0
 34 35  1  0
  9 36  2  0
 36  5  1  0
 35 14  1  0
 32 18  1  0
 28 21  1  0
  1 37  1  0
  6 38  1  0
  7 39  1  0
  8 40  1  0
 10 41  1  0
 10 42  1  0
 15 43  1  0
 15 44  1  0
 16 45  1  0
 16 46  1  0
 17 47  1  0
 20 48  1  0
 20 49  1  0
 22 50  1  0
 23 51  1  0
 28 52  1  0
 34 53  1  0
 34 54  1  0
 35 55  1  0
 35 56  1  0
 36 57  1  0
M  CHG  5   1  -1  25  -1  27  -1  30  -1  31  -1
M  END
>  <UniqueID>  (70) 
66

>  <SMILES>  (70) 
[NH-]S(=O)(=O)c1cccc(CS(=O)(=O)N2CCC(n3c(Cc4ccc([O-])c([O-])c4)c([O-])[n-]c3=O)CC2)c1

>  <Energy>  (70) 
98.90323890417335

>  <Genealogy>  (70) 
[NH-]S(=O)(=O)c1cccc(CS(=O)(=O)N2CCC(n3c(Cc4ccc([O-])c([O-])c4)c([O-])[n-]c3=O)CC2)c1 (protonated)
[NH-]S(=O)(=O)c1cccc(CS(=O)(=O)N2CCC(n3c(Cc4ccc([O-])c([O-])c4)c([O-])[n-]c3=O)CC2)c1 (3D coordinates assigned)
[NH-]S(=O)(=O)c1cccc(CS(=O)(=O)N2CCC(n3c(Cc4ccc([O-])c([O-])c4)c([O-])[n-]c3=O)CC2)c1 (nonaromatic ring conformer: 98.90323890417335 kcal/mol)

>  <smiles>  (70) 
NS(=O)(=O)c1cccc(CS(=O)(=O)N2CCC(n3c(Cc4ccc(O)c(O)c4)c(O)[nH]c3=O)CC2)c1

>  <score_type>  (70) 
oracle

>  <origin>  (70) 
adg

>  <m_score__min__energy>  (70) 
-22.649999999999999

>  <m_primary>  (70) 
energy

$$$$
70:0
     RDKit          3D

 79 82  0  0  0  0  0  0  0  0999 V2000
   55.5060   26.7360   45.9880 N   0  0  0  0  0  0  0  0  0  0  0  0
   56.4780   25.9270   46.6460 C   0  0  0  0  0  0  0  0  0  0  0  0
   56.1060   24.9290   47.3180 O   0  0  0  0  0  0  0  0  0  0  0  0
   57.9430   26.2320   46.5020 C   0  0  1  0  0  0  0  0  0  0  0  0
   58.2640   26.5590   45.0330 C   0  0  0  0  0  0  0  0  0  0  0  0
   59.1310   27.8170   44.8710 C   0  0  0  0  0  0  0  0  0  0  0  0
   58.3030   29.0380   44.5560 C   0  0  0  0  0  0  0  0  0  0  0  0
   56.9110   28.9320   44.3940 C   0  0  0  0  0  0  0  0  0  0  0  0
   56.1430   30.0720   44.1340 C   0  0  0  0  0  0  0  0  0  0  0  0
   56.7550   31.3250   44.0440 C   0  0  0  0  0  0  0  0  0  0  0  0
   58.1370   31.4390   44.2120 C   0  0  0  0  0  0  0  0  0  0  0  0
   58.9090   30.3000   44.4710 C   0  0  0  0  0  0  0  0  0  0  0  0
   58.3080   27.3650   47.3550 N   0  0  0  0  0  0  0  0  0  0  0  0
   59.4420   27.4320   48.2290 C   0  0  0  0  0  0  0  0  0  0  0  0
   60.0100   26.3550   48.5510 O   0  0  0  0  0  0  0  0  0  0  0  0
   60.0340   28.7470   48.6730 C   0  0  1  0  0  0  0  0  0  0  0  0
   60.7830   29.4370   47.5170 C   0  0  0  0  0  0  0  0  0  0  0  0
   61.5950   30.6100   48.0040 C   0  0  0  0  0  0  0  0  0  0  0  0
   62.1270   31.5280   47.0840 C   0  0  0  0  0  0  0  0  0  0  0  0
   62.9270   32.5850   47.5270 C   0  0  0  0  0  0  0  0  0  0  0  0
   63.2060   32.7290   48.8900 C   0  0  0  0  0  0  0  0  0  0  0  0
   62.6850   31.8180   49.8110 C   0  0  0  0  0  0  0  0  0  0  0  0
   61.8810   30.7600   49.3720 C   0  0  0  0  0  0  0  0  0  0  0  0
   58.9460   29.5920   49.1520 N   0  0  0  0  0  0  0  0  0  0  0  0
   58.5150   30.8070   48.5300 C   0  0  0  0  0  0  0  0  0  0  0  0
   58.2150   30.8090   47.3050 O   0  0  0  0  0  0  0  0  0  0  0  0
   58.5350   32.1040   49.3110 C   0  0  2  0  0  0  0  0  0  0  0  0
   59.5290   33.1280   48.7240 C   0  0  0  0  0  0  0  0  0  0  0  0
   59.0810   33.6840   47.3910 C   0  0  0  0  0  0  0  0  0  0  0  0
   60.0160   34.2310   46.4920 C   0  0  0  0  0  0  0  0  0  0  0  0
   59.6000   34.7030   45.2430 C   0  0  0  0  0  0  0  0  0  0  0  0
   58.2480   34.6470   44.8860 C   0  0  0  0  0  0  0  0  0  0  0  0
   57.3080   34.1300   45.7810 C   0  0  0  0  0  0  0  0  0  0  0  0
   57.7200   33.6500   47.0300 C   0  0  0  0  0  0  0  0  0  0  0  0
   58.8990   31.8520   50.7070 N   0  0  0  0  0  0  0  0  0  0  0  0
   58.2120   32.4410   51.8110 C   0  0  0  0  0  0  0  0  0  0  0  0
   58.4890   33.6240   52.1510 O   0  0  0  0  0  0  0  0  0  0  0  0
   57.2550   31.7010   52.5160 O   0  0  0  0  0  0  0  0  0  0  0  0
   57.0350   30.3130   52.2940 C   0  0  0  0  0  0  0  0  0  0  0  0
   55.5620   30.0390   52.3680 C   0  0  0  0  0  0  0  0  0  0  0  0
   54.6540   30.8140   51.6270 C   0  0  0  0  0  0  0  0  0  0  0  0
   53.2880   30.5140   51.6540 C   0  0  0  0  0  0  0  0  0  0  0  0
   52.8220   29.4350   52.4090 C   0  0  0  0  0  0  0  0  0  0  0  0
   53.7210   28.6500   53.1380 C   0  0  0  0  0  0  0  0  0  0  0  0
   55.0870   28.9480   53.1160 C   0  0  0  0  0  0  0  0  0  0  0  0
   54.6580   27.0760   46.4990 H   0  0  0  0  0  0  0  0  0  0  0  0
   58.5240   25.3512   46.8128 H   0  0  0  0  0  0  0  0  0  0  0  0
   58.8004   25.7052   44.5935 H   0  0  0  0  0  0  0  0  0  0  0  0
   57.3083   26.7515   44.5235 H   0  0  0  0  0  0  0  0  0  0  0  0
   59.6804   27.9926   45.8077 H   0  0  0  0  0  0  0  0  0  0  0  0
   59.8204   27.6483   44.0306 H   0  0  0  0  0  0  0  0  0  0  0  0
   56.4236   27.9490   44.4719 H   0  0  0  0  0  0  0  0  0  0  0  0
   55.0549   29.9818   44.0001 H   0  0  0  0  0  0  0  0  0  0  0  0
   56.1492   32.2205   43.8411 H   0  0  0  0  0  0  0  0  0  0  0  0
   58.6195   32.4250   44.1407 H   0  0  0  0  0  0  0  0  0  0  0  0
   59.9962   30.3954   44.6085 H   0  0  0  0  0  0  0  0  0  0  0  0
   60.7652   28.5724   49.4760 H   0  0  0  0  0  0  0  0  0  0  0  0
   61.4571   28.7083   47.0430 H   0  0  0  0  0  0  0  0  0  0  0  0
   60.0383   29.8088   46.7978 H   0  0  0  0  0  0  0  0  0  0  0  0
   61.9133   31.4148   46.0109 H   0  0  0  0  0  0  0  0  0  0  0  0
   63.3376   33.3043   46.8031 H   0  0  0  0  0  0  0  0  0  0  0  0
   63.8366   33.5609   49.2368 H   0  0  0  0  0  0  0  0  0  0  0  0
   62.9067   31.9320   50.8824 H   0  0  0  0  0  0  0  0  0  0  0  0
   61.4717   30.0437   50.0996 H   0  0  0  0  0  0  0  0  0  0  0  0
   57.5209   32.5250   49.2453 H   0  0  0  0  0  0  0  0  0  0  0  0
   59.6352   33.9612   49.4342 H   0  0  0  0  0  0  0  0  0  0  0  0
   60.4833   32.6060   48.5605 H   0  0  0  0  0  0  0  0  0  0  0  0
   61.0780   34.2874   46.7730 H   0  0  0  0  0  0  0  0  0  0  0  0
   60.3367   35.1190   44.5400 H   0  0  0  0  0  0  0  0  0  0  0  0
   57.9250   35.0105   43.8994 H   0  0  0  0  0  0  0  0  0  0  0  0
   56.2438   34.1001   45.5042 H   0  0  0  0  0  0  0  0  0  0  0  0
   56.9773   33.2444   47.7327 H   0  0  0  0  0  0  0  0  0  0  0  0
   57.4136   30.0331   51.2999 H   0  0  0  0  0  0  0  0  0  0  0  0
   57.5635   29.7240   53.0580 H   0  0  0  0  0  0  0  0  0  0  0  0
   55.0183   31.6589   51.0241 H   0  0  0  0  0  0  0  0  0  0  0  0
   52.5794   31.1289   51.0797 H   0  0  0  0  0  0  0  0  0  0  0  0
   51.7470   29.2026   52.4301 H   0  0  0  0  0  0  0  0  0  0  0  0
   53.3535   27.7980   53.7288 H   0  0  0  0  0  0  0  0  0  0  0  0
   55.7926   28.3261   53.6864 H   0  0  0  0  0  0  0  0  0  0  0  0
  1  2  1  0
  2  3  2  0
  2  4  1  0
  4  5  1  0
  5  6  1  0
  6  7  1  0
  7  8  2  0
  8  9  1  0
  9 10  2  0
 10 11  1  0
 11 12  2  0
  4 13  1  0
 13 14  1  0
 14 15  2  0
 14 16  1  0
 16 17  1  0
 17 18  1  0
 18 19  2  0
 19 20  1  0
 20 21  2  0
 21 22  1  0
 22 23  2  0
 16 24  1  0
 24 25  1  0
 25 26  2  0
 25 27  1  0
 27 28  1  0
 28 29  1  0
 29 30  2  0
 30 31  1  0
 31 32  2  0
 32 33  1  0
 33 34  2  0
 27 35  1  0
 35 36  1  0
 36 37  2  0
 36 38  1  0
 38 39  1  0
 39 40  1  0
 40 41  2  0
 41 42  1  0
 42 43  2  0
 43 44  1  0
 44 45  2  0
 12  7  1  0
 23 18  1  0
 34 29  1  0
 45 40  1  0
  1 46  1  0
  4 47  1  1
  5 48  1  0
  5 49  1  0
  6 50  1  0
  6 51  1  0
  8 52  1  0
  9 53  1  0
 10 54  1  0
 11 55  1  0
 12 56  1  0
 16 57  1  1
 17 58  1  0
 17 59  1  0
 19 60  1  0
 20 61  1  0
 21 62  1  0
 22 63  1  0
 23 64  1  0
 27 65  1  1
 28 66  1  0
 28 67  1  0
 30 68  1  0
 31 69  1  0
 32 70  1  0
 33 71  1  0
 34 72  1  0
 39 73  1  0
 39 74  1  0
 41 75  1  0
 42 76  1  0
 43 77  1  0
 44 78  1  0
 45 79  1  0
M  CHG  4   1  -1  13  -1  24  -1  35  -1
M  END
>  <UniqueID>  (71) 
67

>  <SMILES>  (71) 
[NH-]C(=O)[C@@H](CCc1ccccc1)[N-]C(=O)[C@@H](Cc1ccccc1)[N-]C(=O)C(Cc1ccccc1)[N-]C(=O)OCc1ccccc1

>  <Energy>  (71) 
60.92479661439878

>  <Genealogy>  (71) 
[NH-]C(=O)C(CCc1ccccc1)[N-]C(=O)C(Cc1ccccc1)[N-]C(=O)C(Cc1ccccc1)[N-]C(=O)OCc1ccccc1 (protonated)
[NH-]C(=O)[C@@H](CCc1ccccc1)[N-]C(=O)[C@@H](Cc1ccccc1)[N-]C(=O)C(Cc1ccccc1)[N-]C(=O)OCc1ccccc1 (chirality)
[NH-]C(=O)[C@@H](CCc1ccccc1)[N-]C(=O)[C@@H](Cc1ccccc1)[N-]C(=O)C(Cc1ccccc1)[N-]C(=O)OCc1ccccc1 (3D coordinates assigned)
[NH-]C(=O)[C@@H](CCc1ccccc1)[N-]C(=O)[C@@H](Cc1ccccc1)[N-]C(=O)C(Cc1ccccc1)[N-]C(=O)OCc1ccccc1 (optimized conformer: 60.92479661439878 kcal/mol)

>  <smiles>  (71) 
NC(=O)C(CCc1ccccc1)NC(=O)C(Cc1ccccc1)NC(=O)C(Cc1ccccc1)NC(=O)OCc1ccccc1

>  <score_type>  (71) 
oracle

>  <origin>  (71) 
adg

>  <m_score__min__energy>  (71) 
-17.98

>  <m_primary>  (71) 
energy

$$$$
71:0
     RDKit          3D

 36 38  0  0  0  0  0  0  0  0999 V2000
   56.8460   25.2390   44.2160 N   0  0  0  0  0  0  0  0  0  0  0  0
   56.3490   25.9220   45.7330 S   0  0  0  0  0  0  0  0  0  0  0  0
   54.8650   25.9740   45.8360 O   0  0  0  0  0  0  0  0  0  0  0  0
   56.9520   25.1040   46.8610 O   0  0  0  0  0  0  0  0  0  0  0  0
   57.0500   27.5220   45.8280 C   0  0  0  0  0  0  0  0  0  0  0  0
   58.0500   27.7420   46.7760 C   0  0  0  0  0  0  0  0  0  0  0  0
   58.6280   28.9960   46.8810 C   0  0  0  0  0  0  0  0  0  0  0  0
   58.2540   30.0490   46.0770 C   0  0  0  0  0  0  0  0  0  0  0  0
   58.8400   31.3790   46.1600 C   0  0  0  0  0  0  0  0  0  0  0  0
   58.2540   32.3770   45.4750 N   0  0  0  0  0  0  0  0  0  0  0  0
   58.6980   33.6350   45.4720 C   0  0  0  0  0  0  0  0  0  0  0  0
   58.1200   34.5430   44.8170 O   0  0  0  0  0  0  0  0  0  0  0  0
   59.8420   33.8960   46.2380 C   0  0  0  0  0  0  0  0  0  0  0  0
   60.4750   32.9010   46.9560 C   0  0  0  0  0  0  0  0  0  0  0  0
   61.6640   33.2010   47.7430 C   0  0  0  0  0  0  0  0  0  0  0  0
   61.5750   33.9080   48.9340 C   0  0  0  0  0  0  0  0  0  0  0  0
   62.7150   34.1980   49.6930 C   0  0  0  0  0  0  0  0  0  0  0  0
   63.9710   33.7970   49.2940 C   0  0  0  0  0  0  0  0  0  0  0  0
   64.0580   33.0970   48.1130 C   0  0  0  0  0  0  0  0  0  0  0  0
   62.9150   32.8060   47.3530 C   0  0  0  0  0  0  0  0  0  0  0  0
   59.9340   31.6710   46.8800 N   0  0  0  0  0  0  0  0  0  0  0  0
   57.2580   29.7870   45.1480 C   0  0  0  0  0  0  0  0  0  0  0  0
   56.6590   28.5610   45.0110 C   0  0  0  0  0  0  0  0  0  0  0  0
   57.0250   25.9910   43.5230 H   0  0  0  0  0  0  0  0  0  0  0  0
   56.1100   24.6190   43.8580 H   0  0  0  0  0  0  0  0  0  0  0  0
   58.3770   26.9247   47.4356 H   0  0  0  0  0  0  0  0  0  0  0  0
   59.4140   29.1564   47.6337 H   0  0  0  0  0  0  0  0  0  0  0  0
   60.2457   34.9188   46.2680 H   0  0  0  0  0  0  0  0  0  0  0  0
   60.5902   34.2468   49.2882 H   0  0  0  0  0  0  0  0  0  0  0  0
   62.6050   34.7604   50.6319 H   0  0  0  0  0  0  0  0  0  0  0  0
   64.8646   34.0263   49.8931 H   0  0  0  0  0  0  0  0  0  0  0  0
   65.0426   32.7589   47.7576 H   0  0  0  0  0  0  0  0  0  0  0  0
   63.0279   32.2430   46.4148 H   0  0  0  0  0  0  0  0  0  0  0  0
   60.3680   30.8810   47.4000 H   0  0  0  0  0  0  0  0  0  0  0  0
   56.9320   30.6041   44.4876 H   0  0  0  0  0  0  0  0  0  0  0  0
   55.8737   28.4082   44.2560 H   0  0  0  0  0  0  0  0  0  0  0  0
  1  2  1  0
  2  3  2  0
  2  4  2  0
  2  5  1  0
  5  6  2  0
  6  7  1  0
  7  8  2  0
  8  9  1  0
  9 10  2  0
 10 11  1  0
 11 12  2  0
 11 13  1  0
 13 14  2  0
 14 15  1  0
 15 16  2  0
 16 17  1  0
 17 18  2  0
 18 19  1  0
 19 20  2  0
 14 21  1  0
  8 22  1  0
 22 23  2  0
 23  5  1  0
 21  9  1  0
 20 15  1  0
  1 24  1  0
  1 25  1  0
  6 26  1  0
  7 27  1  0
 13 28  1  0
 16 29  1  0
 17 30  1  0
 18 31  1  0
 19 32  1  0
 20 33  1  0
 21 34  1  0
 22 35  1  0
 23 36  1  0
M  END
>  <smiles>  (72) 
NS(=O)(=O)c1ccc(-c2nc(=O)cc(-c3ccccc3)[nH]2)cc1

>  <score_type>  (72) 
oracle

>  <origin>  (72) 
adg

>  <m_score__min__energy>  (72) 
-8.0700000000000003

>  <m_primary>  (72) 
energy

$$$$
72:0
     RDKit          3D

 36 37  0  0  0  0  0  0  0  0999 V2000
   63.8840   32.0740   47.1990 N   0  0  0  0  0  0  0  0  0  0  0  0
   62.9750   33.5440   47.1870 S   0  0  0  0  0  0  0  0  0  0  0  0
   62.9770   34.1500   48.5620 O   0  0  0  0  0  0  0  0  0  0  0  0
   63.6050   34.5180   46.2300 O   0  0  0  0  0  0  0  0  0  0  0  0
   61.3220   33.2030   46.6850 C   0  0  0  0  0  0  0  0  0  0  0  0
   60.5590   34.1920   46.0510 C   0  0  0  0  0  0  0  0  0  0  0  0
   59.2520   33.9150   45.6400 C   0  0  0  0  0  0  0  0  0  0  0  0
   58.6870   32.6520   45.8750 C   0  0  0  0  0  0  0  0  0  0  0  0
   57.3340   32.3160   45.3110 C   0  0  0  0  0  0  0  0  0  0  0  0
   57.1050   30.8840   45.4510 N   0  0  0  0  0  0  0  0  0  0  0  0
   56.3980   30.1240   44.4670 C   0  0  0  0  0  0  0  0  0  0  0  0
   55.1850   30.3650   44.2260 O   0  0  0  0  0  0  0  0  0  0  0  0
   57.0700   28.9560   43.8220 C   0  0  0  0  0  0  0  0  0  0  0  0
   57.8010   28.1660   44.8780 C   0  0  0  0  0  0  0  0  0  0  0  0
   59.2050   28.2390   44.9740 C   0  0  0  0  0  0  0  0  0  0  0  0
   59.9110   29.0610   44.1560 F   0  0  0  0  0  0  0  0  0  0  0  0
   59.8910   27.4450   45.8980 C   0  0  0  0  0  0  0  0  0  0  0  0
   59.1880   26.5710   46.7300 C   0  0  0  0  0  0  0  0  0  0  0  0
   57.7980   26.4810   46.6350 C   0  0  0  0  0  0  0  0  0  0  0  0
   57.1050   27.2670   45.7100 C   0  0  0  0  0  0  0  0  0  0  0  0
   55.7560   27.1410   45.6170 F   0  0  0  0  0  0  0  0  0  0  0  0
   59.4520   31.6670   46.5210 C   0  0  0  0  0  0  0  0  0  0  0  0
   60.7590   31.9440   46.9290 C   0  0  0  0  0  0  0  0  0  0  0  0
   64.5210   32.1030   46.3720 H   0  0  0  0  0  0  0  0  0  0  0  0
   64.4910   32.0980   48.0480 H   0  0  0  0  0  0  0  0  0  0  0  0
   60.9894   35.1891   45.8761 H   0  0  0  0  0  0  0  0  0  0  0  0
   58.6630   34.6913   45.1295 H   0  0  0  0  0  0  0  0  0  0  0  0
   56.5577   32.8692   45.8599 H   0  0  0  0  0  0  0  0  0  0  0  0
   57.2937   32.5970   44.2483 H   0  0  0  0  0  0  0  0  0  0  0  0
   56.3160   28.3170   43.3392 H   0  0  0  0  0  0  0  0  0  0  0  0
   57.7827   29.3099   43.0625 H   0  0  0  0  0  0  0  0  0  0  0  0
   60.9868   27.5089   45.9698 H   0  0  0  0  0  0  0  0  0  0  0  0
   59.7300   25.9529   47.4609 H   0  0  0  0  0  0  0  0  0  0  0  0
   57.2469   25.7899   47.2897 H   0  0  0  0  0  0  0  0  0  0  0  0
   59.0198   30.6726   46.7066 H   0  0  0  0  0  0  0  0  0  0  0  0
   61.3480   31.1706   47.4437 H   0  0  0  0  0  0  0  0  0  0  0  0
  1  2  1  0
  2  3  2  0
  2  4  2  0
  2  5  1  0
  5  6  2  0
  6  7  1  0
  7  8  2  0
  8  9  1  0
  9 10  1  0
 10 11  1  0
 11 12  2  0
 11 13  1  0
 13 14  1  0
 14 15  2  0
 15 16  1  0
 15 17  1  0
 17 18  2  0
 18 19  1  0
 19 20  2  0
 20 21  1  0
  8 22  1  0
 22 23  2  0
 23  5  1  0
 20 14  1  0
  1 24  1  0
  1 25  1  0
  6 26  1  0
  7 27  1  0
  9 28  1  0
  9 29  1  0
 13 30  1  0
 13 31  1  0
 17 32  1  0
 18 33  1  0
 19 34  1  0
 22 35  1  0
 23 36  1  0
M  CHG  1  10  -1
M  END
>  <UniqueID>  (73) 
68

>  <SMILES>  (73) 
NS(=O)(=O)c1ccc(C[N-]C(=O)Cc2c(F)cccc2F)cc1

>  <Energy>  (73) 
29.263256759005795

>  <Genealogy>  (73) 
NS(=O)(=O)c1ccc(C[N-]C(=O)Cc2c(F)cccc2F)cc1 (protonated)
NS(=O)(=O)c1ccc(C[N-]C(=O)Cc2c(F)cccc2F)cc1 (3D coordinates assigned)
NS(=O)(=O)c1ccc(C[N-]C(=O)Cc2c(F)cccc2F)cc1 (optimized conformer: 29.263256759005795 kcal/mol)

>  <smiles>  (73) 
NS(=O)(=O)c1ccc(CNC(=O)Cc2c(F)cccc2F)cc1

>  <score_type>  (73) 
oracle

>  <origin>  (73) 
adg

>  <m_score__min__energy>  (73) 
-10.32

>  <m_primary>  (73) 
energy

$$$$
73:0
     RDKit          3D

 60 63  0  0  0  0  0  0  0  0999 V2000
   57.0860   28.2660   44.9380 C   0  0  0  0  0  0  0  0  0  0  0  0
   57.8730   27.4060   45.6040 C   0  0  0  0  0  0  0  0  0  0  0  0
   57.7800   26.0040   45.6060 C   0  0  0  0  0  0  0  0  0  0  0  0
   57.1030   25.1610   44.8030 C   0  0  0  0  0  0  0  0  0  0  0  0
   55.7310   24.6750   45.0270 C   0  0  0  0  0  0  0  0  0  0  0  0
   55.3290   23.4000   44.8540 N   0  0  0  0  0  0  0  0  0  0  0  0
   54.0580   23.4090   45.3080 C   0  0  0  0  0  0  0  0  0  0  0  0
   53.3250   22.3870   45.2910 O   0  0  0  0  0  0  0  0  0  0  0  0
   53.6370   24.5960   45.7930 N   0  0  0  0  0  0  0  0  0  0  0  0
   54.7140   25.3800   45.6190 C   0  0  0  0  0  0  0  0  0  0  0  0
   54.7700   26.7130   46.0080 O   0  0  0  0  0  0  0  0  0  0  0  0
   58.5920   25.5650   46.6390 C   0  0  0  0  0  0  0  0  0  0  0  0
   59.2070   26.6800   47.1660 C   0  0  0  0  0  0  0  0  0  0  0  0
   60.1960   26.6530   48.2950 C   0  0  0  0  0  0  0  0  0  0  0  0
   58.7760   27.7970   46.5390 N   0  0  0  0  0  0  0  0  0  0  0  0
   59.2120   29.1400   46.8160 C   0  0  0  0  0  0  0  0  0  0  0  0
   58.5460   29.9250   47.7680 C   0  0  0  0  0  0  0  0  0  0  0  0
   58.9840   31.2250   48.0420 C   0  0  0  0  0  0  0  0  0  0  0  0
   60.0990   31.7580   47.3690 C   0  0  0  0  0  0  0  0  0  0  0  0
   60.5630   33.1360   47.6540 C   0  0  0  0  0  0  0  0  0  0  0  0
   60.1220   34.1060   46.9770 O   0  0  0  0  0  0  0  0  0  0  0  0
   61.5230   33.3870   48.6870 N   0  0  0  0  0  0  0  0  0  0  0  0
   61.1120   33.3350   50.0910 C   0  0  0  0  0  0  0  0  0  0  0  0
   62.1980   32.6530   50.9300 C   0  0  0  0  0  0  0  0  0  0  0  0
   63.5480   33.1360   50.5940 N   0  0  0  0  0  0  0  0  0  0  0  0
   64.6610   32.6320   51.3710 C   0  0  0  0  0  0  0  0  0  0  0  0
   64.5140   31.5650   52.0270 O   0  0  0  0  0  0  0  0  0  0  0  0
   66.0120   33.3190   51.3990 C   0  0  0  0  0  0  0  0  0  0  0  0
   66.7680   33.0010   52.6970 C   0  0  0  0  0  0  0  0  0  0  0  0
   66.8420   32.8990   50.1810 C   0  0  0  0  0  0  0  0  0  0  0  0
   63.7180   34.1620   49.5490 C   0  0  0  0  0  0  0  0  0  0  0  0
   62.8700   33.8260   48.3150 C   0  0  0  0  0  0  0  0  0  0  0  0
   60.7560   30.9690   46.4090 C   0  0  0  0  0  0  0  0  0  0  0  0
   60.3180   29.6710   46.1380 C   0  0  0  0  0  0  0  0  0  0  0  0
   57.2625   29.3487   45.0189 H   0  0  0  0  0  0  0  0  0  0  0  0
   56.2647   27.8879   44.3115 H   0  0  0  0  0  0  0  0  0  0  0  0
   57.6204   24.8040   43.9003 H   0  0  0  0  0  0  0  0  0  0  0  0
   58.7211   24.5254   46.9744 H   0  0  0  0  0  0  0  0  0  0  0  0
   59.6579   26.6677   49.2543 H   0  0  0  0  0  0  0  0  0  0  0  0
   60.8029   25.7380   48.2290 H   0  0  0  0  0  0  0  0  0  0  0  0
   60.8519   27.5336   48.2290 H   0  0  0  0  0  0  0  0  0  0  0  0
   57.6752   29.5167   48.3018 H   0  0  0  0  0  0  0  0  0  0  0  0
   58.4534   31.8345   48.7883 H   0  0  0  0  0  0  0  0  0  0  0  0
   60.9536   34.3582   50.4624 H   0  0  0  0  0  0  0  0  0  0  0  0
   60.1780   32.7597   50.1728 H   0  0  0  0  0  0  0  0  0  0  0  0
   62.0037   32.8565   51.9934 H   0  0  0  0  0  0  0  0  0  0  0  0
   62.1626   31.5748   50.7149 H   0  0  0  0  0  0  0  0  0  0  0  0
   65.8460   34.4058   51.3616 H   0  0  0  0  0  0  0  0  0  0  0  0
   66.1404   33.2650   53.5609 H   0  0  0  0  0  0  0  0  0  0  0  0
   67.0044   31.9272   52.7300 H   0  0  0  0  0  0  0  0  0  0  0  0
   67.7009   33.5830   52.7300 H   0  0  0  0  0  0  0  0  0  0  0  0
   67.7760   32.4264   50.5191 H   0  0  0  0  0  0  0  0  0  0  0  0
   66.2674   32.1832   49.5749 H   0  0  0  0  0  0  0  0  0  0  0  0
   67.0784   33.7860   49.5749 H   0  0  0  0  0  0  0  0  0  0  0  0
   63.4047   35.1383   49.9473 H   0  0  0  0  0  0  0  0  0  0  0  0
   64.7769   34.1924   49.2525 H   0  0  0  0  0  0  0  0  0  0  0  0
   62.7909   34.7221   47.6820 H   0  0  0  0  0  0  0  0  0  0  0  0
   63.3617   33.0039   47.7743 H   0  0  0  0  0  0  0  0  0  0  0  0
   61.6218   31.3771   45.8670 H   0  0  0  0  0  0  0  0  0  0  0  0
   60.8439   29.0618   45.3882 H   0  0  0  0  0  0  0  0  0  0  0  0
  1  2  2  0
  2  3  1  0
  3  4  2  3
  4  5  1  0
  5  6  1  0
  6  7  1  0
  7  8  2  0
  7  9  1  0
  9 10  1  0
 10 11  1  0
  3 12  1  0
 12 13  2  0
 13 14  1  0
 13 15  1  0
 15 16  1  0
 16 17  2  0
 17 18  1  0
 18 19  2  0
 19 20  1  0
 20 21  2  0
 20 22  1  0
 22 23  1  0
 23 24  1  0
 24 25  1  0
 25 26  1  0
 26 27  2  0
 26 28  1  0
 28 29  1  0
 28 30  1  0
 25 31  1  0
 31 32  1  0
 19 33  1  0
 33 34  2  0
 15  2  1  0
 34 16  1  0
 10  5  2  0
 32 22  1  0
  1 35  1  0
  1 36  1  0
  4 37  1  0
 12 38  1  0
 14 39  1  0
 14 40  1  0
 14 41  1  0
 17 42  1  0
 18 43  1  0
 23 44  1  0
 23 45  1  0
 24 46  1  0
 24 47  1  0
 28 48  1  0
 29 49  1  0
 29 50  1  0
 29 51  1  0
 30 52  1  0
 30 53  1  0
 30 54  1  0
 31 55  1  0
 31 56  1  0
 32 57  1  0
 32 58  1  0
 33 59  1  0
 34 60  1  0
M  CHG  3   6  -1   9  -1  11  -1
M  END
>  <UniqueID>  (74) 
69

>  <SMILES>  (74) 
C=c1c(=Cc2[n-]c(=O)[n-]c2[O-])cc(C)n1-c1ccc(C(=O)N2CCN(C(=O)C(C)C)CC2)cc1

>  <Energy>  (74) 
140.35227099074666

>  <Genealogy>  (74) 
C=c1c(=Cc2[n-]c(=O)[n-]c2[O-])cc(C)n1-c1ccc(C(=O)N2CCN(C(=O)C(C)C)CC2)cc1 (protonated)
C=c1c(=Cc2[n-]c(=O)[n-]c2[O-])cc(C)n1-c1ccc(C(=O)N2CCN(C(=O)C(C)C)CC2)cc1 (3D coordinates assigned)
C=c1c(=Cc2[n-]c(=O)[n-]c2[O-])cc(C)n1-c1ccc(C(=O)N2CCN(C(=O)C(C)C)CC2)cc1 (nonaromatic ring conformer: 140.35227099074666 kcal/mol)

>  <smiles>  (74) 
C=c1c(=Cc2[nH]c(=O)[nH]c2O)cc(C)n1-c1ccc(C(=O)N2CCN(C(=O)C(C)C)CC2)cc1

>  <score_type>  (74) 
oracle

>  <origin>  (74) 
adg

>  <m_score__min__energy>  (74) 
-16.199999999999999

>  <m_primary>  (74) 
energy

$$$$
74:0
     RDKit          3D

 66 70  0  0  0  0  0  0  0  0999 V2000
   64.2418   31.3240   47.6721 H   0  0  0  0  0  0  0  0  0  0  0  0
   63.3250   31.8820   47.4310 C   0  0  0  0  0  0  0  0  0  0  0  0
   63.4120   33.1350   46.8190 C   0  0  0  0  0  0  0  0  0  0  0  0
   64.3975   33.5594   46.5765 H   0  0  0  0  0  0  0  0  0  0  0  0
   62.2480   33.8530   46.5130 C   0  0  0  0  0  0  0  0  0  0  0  0
   62.3198   34.8398   46.0323 H   0  0  0  0  0  0  0  0  0  0  0  0
   60.9860   33.3090   46.8220 C   0  0  0  0  0  0  0  0  0  0  0  0
   59.7670   33.9940   46.5020 N   0  0  0  0  0  0  0  0  0  0  0  0
   58.4940   33.3710   46.3100 C   0  0  0  0  0  0  0  0  0  0  0  0
   57.6550   33.4190   47.2530 O   0  0  0  0  0  0  0  0  0  0  0  0
   58.1460   32.6930   45.0350 C   0  0  0  0  0  0  0  0  0  0  0  0
   58.5020   33.2740   43.8020 C   0  0  0  0  0  0  0  0  0  0  0  0
   59.0564   34.2240   43.7868 H   0  0  0  0  0  0  0  0  0  0  0  0
   58.1570   32.6540   42.5980 C   0  0  0  0  0  0  0  0  0  0  0  0
   58.4563   33.1094   41.6425 H   0  0  0  0  0  0  0  0  0  0  0  0
   57.4340   31.4590   42.6020 C   0  0  0  0  0  0  0  0  0  0  0  0
   57.1428   30.9896   41.6507 H   0  0  0  0  0  0  0  0  0  0  0  0
   57.0790   30.8570   43.8180 C   0  0  0  0  0  0  0  0  0  0  0  0
   56.1920   29.6480   43.8450 C   0  0  0  0  0  0  0  0  0  0  0  0
   56.5390   28.9129   43.1039 H   0  0  0  0  0  0  0  0  0  0  0  0
   55.1564   29.9262   43.5996 H   0  0  0  0  0  0  0  0  0  0  0  0
   56.2610   29.0720   45.1860 N   0  0  0  0  0  0  0  0  0  0  0  0
   57.0190   28.1080   45.6310 C   0  0  0  0  0  0  0  0  0  0  0  0
   56.6010   26.6840   45.6770 C   0  0  0  0  0  0  0  0  0  0  0  0
   55.4050   26.3650   45.9180 O   0  0  0  0  0  0  0  0  0  0  0  0
   57.5970   25.6570   45.5330 N   0  0  0  0  0  0  0  0  0  0  0  0
   57.2330   24.3920   44.9550 C   0  0  0  0  0  0  0  0  0  0  0  0
   56.9310   24.3140   43.5860 C   0  0  0  0  0  0  0  0  0  0  0  0
   56.8782   25.2337   42.9848 H   0  0  0  0  0  0  0  0  0  0  0  0
   56.6970   23.0750   42.9820 C   0  0  0  0  0  0  0  0  0  0  0  0
   56.4563   23.0222   41.9100 H   0  0  0  0  0  0  0  0  0  0  0  0
   56.7690   21.9050   43.7400 C   0  0  0  0  0  0  0  0  0  0  0  0
   56.6041   20.9287   43.2608 H   0  0  0  0  0  0  0  0  0  0  0  0
   57.0500   21.9730   45.1050 C   0  0  0  0  0  0  0  0  0  0  0  0
   57.0947   21.0495   45.7010 H   0  0  0  0  0  0  0  0  0  0  0  0
   57.2760   23.2140   45.7220 C   0  0  0  0  0  0  0  0  0  0  0  0
   57.4520   23.2920   47.1410 N   0  0  0  0  0  0  0  0  0  0  0  0
   56.6510   22.5730   48.0840 C   0  0  0  0  0  0  0  0  0  0  0  0
   57.1110   21.5410   48.6430 O   0  0  0  0  0  0  0  0  0  0  0  0
   55.3200   23.0000   48.3980 N   0  0  0  0  0  0  0  0  0  0  0  0
   54.2000   22.9730   47.5030 C   0  0  0  0  0  0  0  0  0  0  0  0
   54.2830   23.7110   46.3130 C   0  0  0  0  0  0  0  0  0  0  0  0
   55.1953   24.2824   46.0868 H   0  0  0  0  0  0  0  0  0  0  0  0
   53.2140   23.7250   45.4130 C   0  0  0  0  0  0  0  0  0  0  0  0
   53.2796   24.3212   44.4909 H   0  0  0  0  0  0  0  0  0  0  0  0
   52.0600   22.9810   45.6840 C   0  0  0  0  0  0  0  0  0  0  0  0
   51.2150   22.9996   44.9800 H   0  0  0  0  0  0  0  0  0  0  0  0
   51.9820   22.2130   46.8520 C   0  0  0  0  0  0  0  0  0  0  0  0
   51.0789   21.6197   47.0581 H   0  0  0  0  0  0  0  0  0  0  0  0
   53.0490   22.1970   47.7590 C   0  0  0  0  0  0  0  0  0  0  0  0
   52.9820   21.3850   48.8420 F   0  0  0  0  0  0  0  0  0  0  0  0
   59.0200   26.0110   45.5870 C   0  0  0  0  0  0  0  0  0  0  0  0
   59.5864   25.1648   46.0032 H   0  0  0  0  0  0  0  0  0  0  0  0
   59.3650   26.2390   44.5677 H   0  0  0  0  0  0  0  0  0  0  0  0
   59.2420   27.2460   46.4680 C   0  0  0  0  0  0  0  0  0  0  0  0
   58.9095   27.0210   47.4921 H   0  0  0  0  0  0  0  0  0  0  0  0
   60.3131   27.4960   46.4549 H   0  0  0  0  0  0  0  0  0  0  0  0
   58.4540   28.4520   45.9390 C   0  0  0  0  0  0  0  0  0  0  0  0
   59.0540   28.9160   44.7810 F   0  0  0  0  0  0  0  0  0  0  0  0
   58.4870   29.4640   46.8840 F   0  0  0  0  0  0  0  0  0  0  0  0
   57.4430   31.4740   45.0290 C   0  0  0  0  0  0  0  0  0  0  0  0
   57.1746   30.9973   45.9833 H   0  0  0  0  0  0  0  0  0  0  0  0
   60.9110   32.0470   47.4330 C   0  0  0  0  0  0  0  0  0  0  0  0
   59.9290   31.6140   47.6741 H   0  0  0  0  0  0  0  0  0  0  0  0
   62.0770   31.3370   47.7370 C   0  0  0  0  0  0  0  0  0  0  0  0
   62.0105   30.3495   48.2170 H   0  0  0  0  0  0  0  0  0  0  0  0
  1  2  1  0
  2  3  2  0
  3  4  1  0
  3  5  1  0
  5  6  1  0
  5  7  2  0
  7  8  1  0
  8  9  1  0
  9 10  2  0
  9 11  1  0
 11 12  2  0
 12 13  1  0
 12 14  1  0
 14 15  1  0
 14 16  2  0
 16 17  1  0
 16 18  1  0
 18 19  1  0
 19 20  1  0
 19 21  1  0
 19 22  1  0
 22 23  2  0
 23 24  1  0
 24 25  2  0
 24 26  1  0
 26 27  1  0
 27 28  2  0
 28 29  1  0
 28 30  1  0
 30 31  1  0
 30 32  2  0
 32 33  1  0
 32 34  1  0
 34 35  1  0
 34 36  2  0
 36 37  1  0
 37 38  1  0
 38 39  2  0
 38 40  1  0
 40 41  1  0
 41 42  2  0
 42 43  1  0
 42 44  1  0
 44 45  1  0
 44 46  2  0
 46 47  1  0
 46 48  1  0
 48 49  1  0
 48 50  2  0
 50 51  1  0
 26 52  1  0
 52 53  1  0
 52 54  1  0
 52 55  1  0
 55 56  1  0
 55 57  1  0
 55 58  1  0
 58 59  1  0
 58 60  1  0
 18 61  2  0
 61 62  1  0
  7 63  1  0
 63 64  1  0
 63 65  2  0
 65 66  1  0
 65  2  1  0
 61 11  1  0
 58 23  1  0
 36 27  1  0
 50 41  1  0
M  CHG  3   8  -1  37  -1  40  -1
M  END
>  <UniqueID>  (75) 
70

>  <SMILES>  (75) 
O=C([N-]c1ccccc1F)[N-]c1ccccc1N1CCC(F)(F)/C(=N/Cc2cccc(C(=O)[N-]c3ccccc3)c2)C1=O

>  <Energy>  (75) 
99.79983080737385

>  <Genealogy>  (75) 
O=C([N-]c1ccccc1F)[N-]c1ccccc1N1CCC(F)(F)C(=NCc2cccc(C(=O)[N-]c3ccccc3)c2)C1=O (protonated)
O=C([N-]c1ccccc1F)[N-]c1ccccc1N1CCC(F)(F)/C(=N/Cc2cccc(C(=O)[N-]c3ccccc3)c2)C1=O (cis-trans isomerization)
O=C([N-]c1ccccc1F)[N-]c1ccccc1N1CCC(F)(F)/C(=N/Cc2cccc(C(=O)[N-]c3ccccc3)c2)C1=O (3D coordinates assigned)
O=C([N-]c1ccccc1F)[N-]c1ccccc1N1CCC(F)(F)/C(=N/Cc2cccc(C(=O)[N-]c3ccccc3)c2)C1=O (nonaromatic ring conformer: 99.79983080737385 kcal/mol)

>  <smiles>  (75) 
O=C(Nc1ccccc1F)Nc1ccccc1N1CCC(F)(F)C(=NCc2cccc(C(=O)Nc3ccccc3)c2)C1=O

>  <score_type>  (75) 
oracle

>  <origin>  (75) 
adg

>  <m_score__min__energy>  (75) 
-14.470000000000001

>  <m_primary>  (75) 
energy

$$$$
75:0
     RDKit          3D

 46 49  0  0  0  0  0  0  0  0999 V2000
   53.8480   25.6340   45.6200 N   0  0  0  0  0  0  0  0  0  0  0  0
   53.6490   24.3750   45.7290 C   0  0  0  0  0  0  0  0  0  0  0  0
   52.4020   23.8380   45.6520 N   0  0  0  0  0  0  0  0  0  0  0  0
   52.2010   22.5020   45.7660 C   0  0  0  0  0  0  0  0  0  0  0  0
   53.2440   21.6630   45.9600 N   0  0  0  0  0  0  0  0  0  0  0  0
   54.5040   22.1830   46.0410 C   0  0  0  0  0  0  0  0  0  0  0  0
   55.7260   21.6090   46.2240 N   0  0  0  0  0  0  0  0  0  0  0  0
   56.6820   22.5540   46.2290 C   0  0  0  0  0  0  0  0  0  0  0  0
   56.0900   23.8030   46.0420 C   0  0  0  0  0  0  0  0  0  0  0  0
   56.7360   25.1090   45.9650 C   0  0  0  0  0  0  0  0  0  0  0  0
   56.2030   26.0410   46.6150 O   0  0  0  0  0  0  0  0  0  0  0  0
   57.9090   25.3620   45.2070 N   0  0  0  0  0  0  0  0  0  0  0  0
   58.3960   26.7220   45.2580 C   0  0  0  0  0  0  0  0  0  0  0  0
   59.6940   26.9520   45.7320 C   0  0  0  0  0  0  0  0  0  0  0  0
   60.2040   28.2350   45.8150 C   0  0  0  0  0  0  0  0  0  0  0  0
   59.4040   29.2870   45.4200 C   0  0  0  0  0  0  0  0  0  0  0  0
   58.1150   29.1100   44.9420 C   0  0  0  0  0  0  0  0  0  0  0  0
   57.1390   30.4880   44.4870 S   0  0  0  0  0  0  0  0  0  0  0  0
   55.6760   30.1950   44.7660 O   0  0  0  0  0  0  0  0  0  0  0  0
   57.2120   30.5460   42.9590 O   0  0  0  0  0  0  0  0  0  0  0  0
   57.6350   31.9660   45.0720 N   0  0  0  0  0  0  0  0  0  0  0  0
   57.7650   33.0700   44.2140 C   0  0  0  0  0  0  0  0  0  0  0  0
   58.6360   34.1280   44.8810 C   0  0  0  0  0  0  0  0  0  0  0  0
   58.2380   34.4550   46.1510 O   0  0  0  0  0  0  0  0  0  0  0  0
   57.7080   33.4590   46.9160 C   0  0  0  0  0  0  0  0  0  0  0  0
   58.1060   32.0780   46.3980 C   0  0  0  0  0  0  0  0  0  0  0  0
   57.6290   27.7990   44.8710 C   0  0  0  0  0  0  0  0  0  0  0  0
   54.7240   23.5400   45.9270 C   0  0  0  0  0  0  0  0  0  0  0  0
   54.0540   26.2960   46.3800 H   0  0  0  0  0  0  0  0  0  0  0  0
   51.5810   24.4510   45.5020 H   0  0  0  0  0  0  0  0  0  0  0  0
   51.1805   22.0968   45.7001 H   0  0  0  0  0  0  0  0  0  0  0  0
   55.8520   20.5790   46.3440 H   0  0  0  0  0  0  0  0  0  0  0  0
   57.7589   22.3715   46.3597 H   0  0  0  0  0  0  0  0  0  0  0  0
   58.3670   24.6170   44.6610 H   0  0  0  0  0  0  0  0  0  0  0  0
   60.3166   26.1000   46.0427 H   0  0  0  0  0  0  0  0  0  0  0  0
   61.2238   28.4123   46.1873 H   0  0  0  0  0  0  0  0  0  0  0  0
   59.8057   30.3088   45.4871 H   0  0  0  0  0  0  0  0  0  0  0  0
   58.2333   32.7496   43.2716 H   0  0  0  0  0  0  0  0  0  0  0  0
   56.7710   33.4912   44.0031 H   0  0  0  0  0  0  0  0  0  0  0  0
   59.6673   33.7481   44.9282 H   0  0  0  0  0  0  0  0  0  0  0  0
   58.5498   35.0415   44.2742 H   0  0  0  0  0  0  0  0  0  0  0  0
   58.0706   33.5709   47.9485 H   0  0  0  0  0  0  0  0  0  0  0  0
   56.6118   33.5392   46.8731 H   0  0  0  0  0  0  0  0  0  0  0  0
   59.2007   31.9716   46.4172 H   0  0  0  0  0  0  0  0  0  0  0  0
   57.6715   31.2892   47.0296 H   0  0  0  0  0  0  0  0  0  0  0  0
   56.6094   27.6245   44.4969 H   0  0  0  0  0  0  0  0  0  0  0  0
  1  2  2  3
  2  3  1  0
  3  4  1  0
  4  5  2  0
  5  6  1  0
  6  7  1  0
  7  8  1  0
  8  9  2  0
  9 10  1  0
 10 11  2  0
 10 12  1  0
 12 13  1  0
 13 14  2  0
 14 15  1  0
 15 16  2  0
 16 17  1  0
 17 18  1  0
 18 19  2  0
 18 20  2  0
 18 21  1  0
 21 22  1  0
 22 23  1  0
 23 24  1  0
 24 25  1  0
 25 26  1  0
 17 27  2  0
  9 28  1  0
 28  2  1  0
 28  6  2  0
 27 13  1  0
 26 21  1  0
  1 29  1  0
  3 30  1  0
  4 31  1  0
  7 32  1  0
  8 33  1  0
 12 34  1  0
 14 35  1  0
 15 36  1  0
 16 37  1  0
 22 38  1  0
 22 39  1  0
 23 40  1  0
 23 41  1  0
 25 42  1  0
 25 43  1  0
 26 44  1  0
 26 45  1  0
 27 46  1  0
M  END
>  <smiles>  (76) 
N=c1[nH]cnc2[nH]cc(C(=O)Nc3cccc(S(=O)(=O)N4CCOCC4)c3)c12

>  <score_type>  (76) 
oracle

>  <origin>  (76) 
adg

>  <m_score__min__energy>  (76) 
-8.7599999999999998

>  <m_primary>  (76) 
energy

$$$$
76:0
     RDKit          3D

 55 58  0  0  0  0  0  0  0  0999 V2000
   55.1380   26.3910   45.9680 N   0  0  0  0  0  0  0  0  0  0  0  0
   56.8390   26.6530   45.8270 S   0  0  0  0  0  0  0  0  0  0  0  0
   57.5200   26.2510   47.1060 O   0  0  0  0  0  0  0  0  0  0  0  0
   57.3810   25.8120   44.7060 O   0  0  0  0  0  0  0  0  0  0  0  0
   57.1430   28.3570   45.5040 C   0  0  0  0  0  0  0  0  0  0  0  0
   57.9440   29.1040   46.3760 C   0  0  0  0  0  0  0  0  0  0  0  0
   58.1770   30.4600   46.1300 C   0  0  0  0  0  0  0  0  0  0  0  0
   57.6130   31.0840   45.0030 C   0  0  0  0  0  0  0  0  0  0  0  0
   57.8360   32.5550   44.7590 C   0  0  0  0  0  0  0  0  0  0  0  0
   57.8210   33.3000   46.0130 N   0  0  0  0  0  0  0  0  0  0  0  0
   58.9970   33.8190   46.6490 C   0  0  0  0  0  0  0  0  0  0  0  0
   59.8070   34.5230   45.9860 O   0  0  0  0  0  0  0  0  0  0  0  0
   59.2600   33.5240   48.0760 C   0  0  0  0  0  0  0  0  0  0  0  0
   60.3420   34.1290   48.7390 C   0  0  0  0  0  0  0  0  0  0  0  0
   60.5940   33.8480   50.0830 C   0  0  0  0  0  0  0  0  0  0  0  0
   59.7690   32.9670   50.7840 C   0  0  0  0  0  0  0  0  0  0  0  0
   58.6770   32.3530   50.1480 C   0  0  0  0  0  0  0  0  0  0  0  0
   57.7970   31.4350   50.9140 C   0  0  0  0  0  0  0  0  0  0  0  0
   56.6750   31.7730   51.6520 C   0  0  0  0  0  0  0  0  0  0  0  0
   56.2430   30.5730   52.1750 C   0  0  0  0  0  0  0  0  0  0  0  0
   55.0650   30.3640   53.0340 C   0  0  0  0  0  0  0  0  0  0  0  0
   55.1890   30.4850   54.2820 O   0  0  0  0  0  0  0  0  0  0  0  0
   53.7870   30.0110   52.4750 N   0  0  0  0  0  0  0  0  0  0  0  0
   53.1940   30.8280   51.4100 C   0  0  0  0  0  0  0  0  0  0  0  0
   52.0560   31.6750   51.9910 C   0  0  0  0  0  0  0  0  0  0  0  0
   51.0470   30.7950   52.7430 C   0  0  0  0  0  0  0  0  0  0  0  0
   51.7410   29.9470   53.8200 C   0  0  0  0  0  0  0  0  0  0  0  0
   52.8810   29.1240   53.2100 C   0  0  0  0  0  0  0  0  0  0  0  0
   57.0530   29.5790   51.7620 N   0  0  0  0  0  0  0  0  0  0  0  0
   57.9990   30.1040   50.9980 N   0  0  0  0  0  0  0  0  0  0  0  0
   58.4340   32.6350   48.7890 C   0  0  0  0  0  0  0  0  0  0  0  0
   56.8020   30.3340   44.1370 C   0  0  0  0  0  0  0  0  0  0  0  0
   56.5680   28.9790   44.3860 C   0  0  0  0  0  0  0  0  0  0  0  0
   54.7770   27.0940   46.6500 H   0  0  0  0  0  0  0  0  0  0  0  0
   58.3915   28.6221   47.2578 H   0  0  0  0  0  0  0  0  0  0  0  0
   58.8045   31.0418   46.8212 H   0  0  0  0  0  0  0  0  0  0  0  0
   58.8108   32.6948   44.2689 H   0  0  0  0  0  0  0  0  0  0  0  0
   57.0254   32.9312   44.1176 H   0  0  0  0  0  0  0  0  0  0  0  0
   60.9942   34.8283   48.1953 H   0  0  0  0  0  0  0  0  0  0  0  0
   61.4461   34.3227   50.5916 H   0  0  0  0  0  0  0  0  0  0  0  0
   59.9754   32.7517   51.8428 H   0  0  0  0  0  0  0  0  0  0  0  0
   56.2307   32.7699   51.7893 H   0  0  0  0  0  0  0  0  0  0  0  0
   53.9628   31.4893   50.9837 H   0  0  0  0  0  0  0  0  0  0  0  0
   52.7975   30.1716   50.6214 H   0  0  0  0  0  0  0  0  0  0  0  0
   52.4772   32.4153   52.6871 H   0  0  0  0  0  0  0  0  0  0  0  0
   51.5349   32.1787   51.1635 H   0  0  0  0  0  0  0  0  0  0  0  0
   50.2966   31.4402   53.2232 H   0  0  0  0  0  0  0  0  0  0  0  0
   50.5708   30.1166   52.0198 H   0  0  0  0  0  0  0  0  0  0  0  0
   52.1501   30.6118   54.5950 H   0  0  0  0  0  0  0  0  0  0  0  0
   51.0032   29.2589   54.2583 H   0  0  0  0  0  0  0  0  0  0  0  0
   53.4364   28.6163   54.0124 H   0  0  0  0  0  0  0  0  0  0  0  0
   52.4636   28.3749   52.5211 H   0  0  0  0  0  0  0  0  0  0  0  0
   57.5870   32.1537   48.2782 H   0  0  0  0  0  0  0  0  0  0  0  0
   56.3484   30.8152   43.2580 H   0  0  0  0  0  0  0  0  0  0  0  0
   55.9307   28.3982   43.7029 H   0  0  0  0  0  0  0  0  0  0  0  0
  1  2  1  0
  2  3  2  0
  2  4  2  0
  2  5  1  0
  5  6  2  0
  6  7  1  0
  7  8  2  0
  8  9  1  0
  9 10  1  0
 10 11  1  0
 11 12  2  0
 11 13  1  0
 13 14  2  0
 14 15  1  0
 15 16  2  0
 16 17  1  0
 17 18  1  0
 18 19  2  0
 19 20  1  0
 20 21  1  0
 21 22  2  0
 21 23  1  0
 23 24  1  0
 24 25  1  0
 25 26  1  0
 26 27  1  0
 27 28  1  0
 20 29  2  0
 29 30  1  0
 17 31  2  0
  8 32  1  0
 32 33  2  0
 33  5  1  0
 31 13  1  0
 30 18  1  0
 28 23  1  0
  1 34  1  0
  6 35  1  0
  7 36  1  0
  9 37  1  0
  9 38  1  0
 14 39  1  0
 15 40  1  0
 16 41  1  0
 19 42  1  0
 24 43  1  0
 24 44  1  0
 25 45  1  0
 25 46  1  0
 26 47  1  0
 26 48  1  0
 27 49  1  0
 27 50  1  0
 28 51  1  0
 28 52  1  0
 31 53  1  0
 32 54  1  0
 33 55  1  0
M  CHG  3   1  -1  10  -1  30  -1
M  END
>  <UniqueID>  (77) 
71

>  <SMILES>  (77) 
[NH-]S(=O)(=O)c1ccc(C[N-]C(=O)c2cccc(-c3cc(C(=O)N4CCCCC4)n[n-]3)c2)cc1

>  <Energy>  (77) 
86.30966649492662

>  <Genealogy>  (77) 
[NH-]S(=O)(=O)c1ccc(C[N-]C(=O)c2cccc(-c3cc(C(=O)N4CCCCC4)n[n-]3)c2)cc1 (protonated)
[NH-]S(=O)(=O)c1ccc(C[N-]C(=O)c2cccc(-c3cc(C(=O)N4CCCCC4)n[n-]3)c2)cc1 (3D coordinates assigned)
[NH-]S(=O)(=O)c1ccc(C[N-]C(=O)c2cccc(-c3cc(C(=O)N4CCCCC4)n[n-]3)c2)cc1 (nonaromatic ring conformer: 86.30966649492662 kcal/mol)

>  <smiles>  (77) 
NS(=O)(=O)c1ccc(CNC(=O)c2cccc(-c3cc(C(=O)N4CCCCC4)n[nH]3)c2)cc1

>  <score_type>  (77) 
oracle

>  <origin>  (77) 
adg

>  <m_score__min__energy>  (77) 
-14.68

>  <m_primary>  (77) 
energy

$$$$
77:0
     RDKit          3D

 52 54  0  0  0  0  0  0  0  0999 V2000
   60.2960   33.7640   47.3120 C   0  0  0  0  0  0  0  0  0  0  0  0
   58.9170   34.0240   46.6910 C   0  0  1  0  0  0  0  0  0  0  0  0
   59.0390   34.7990   45.3550 C   0  0  0  0  0  0  0  0  0  0  0  0
   58.9550   33.8510   44.1540 C   0  0  0  0  0  0  0  0  0  0  0  0
   57.6440   33.1570   44.0970 N   0  0  1  0  0  0  0  0  0  0  0  0
   57.7600   31.7420   43.0720 S   0  0  0  0  0  0  0  0  0  0  0  0
   56.4860   31.5910   42.2870 O   0  0  0  0  0  0  0  0  0  0  0  0
   58.8880   31.9200   42.0950 O   0  0  0  0  0  0  0  0  0  0  0  0
   58.0350   30.2740   44.0140 C   0  0  0  0  0  0  0  0  0  0  0  0
   57.0080   29.3350   44.1730 C   0  0  0  0  0  0  0  0  0  0  0  0
   57.2150   28.1850   44.9400 C   0  0  0  0  0  0  0  0  0  0  0  0
   58.4590   27.9510   45.5560 C   0  0  0  0  0  0  0  0  0  0  0  0
   58.6970   26.7370   46.3800 C   0  0  0  0  0  0  0  0  0  0  0  0
   59.8260   26.1730   46.3380 O   0  0  0  0  0  0  0  0  0  0  0  0
   57.6390   26.1870   47.3010 C   0  0  0  0  0  0  0  0  0  0  0  0
   58.0550   24.9080   47.8810 N   0  0  0  0  0  0  0  0  0  0  0  0
   56.8910   23.6600   47.5380 S   0  0  0  0  0  0  0  0  0  0  0  0
   55.5970   24.0170   48.2130 O   0  0  0  0  0  0  0  0  0  0  0  0
   57.3870   22.3440   48.0700 O   0  0  0  0  0  0  0  0  0  0  0  0
   56.6200   23.5370   45.7980 C   0  0  0  0  0  0  0  0  0  0  0  0
   57.4320   22.7400   44.9760 C   0  0  0  0  0  0  0  0  0  0  0  0
   57.0610   22.7440   43.6400 C   0  0  0  0  0  0  0  0  0  0  0  0
   55.7270   23.7470   43.4730 S   0  0  0  0  0  0  0  0  0  0  0  0
   55.6000   24.1920   45.0920 C   0  0  0  0  0  0  0  0  0  0  0  0
   54.5800   25.1280   45.6020 C   0  0  0  0  0  0  0  0  0  0  0  0
   54.9260   26.2760   45.9870 O   0  0  0  0  0  0  0  0  0  0  0  0
   53.2430   24.7660   45.6870 O   0  0  0  0  0  0  0  0  0  0  0  0
   59.4860   28.8980   45.3890 C   0  0  0  0  0  0  0  0  0  0  0  0
   59.2760   30.0460   44.6200 C   0  0  0  0  0  0  0  0  0  0  0  0
   57.0740   32.8140   45.4290 C   0  0  0  0  0  0  0  0  0  0  0  0
   58.1440   32.6950   46.5240 C   0  0  0  0  0  0  0  0  0  0  0  0
   60.2131   33.7796   48.4088 H   0  0  0  0  0  0  0  0  0  0  0  0
   60.6653   32.7804   46.9862 H   0  0  0  0  0  0  0  0  0  0  0  0
   60.9981   34.5456   46.9862 H   0  0  0  0  0  0  0  0  0  0  0  0
   58.3395   34.6632   47.3750 H   0  0  0  0  0  0  0  0  0  0  0  0
   60.0058   35.3231   45.3313 H   0  0  0  0  0  0  0  0  0  0  0  0
   58.2072   35.5159   45.2913 H   0  0  0  0  0  0  0  0  0  0  0  0
   59.7538   33.0992   44.2360 H   0  0  0  0  0  0  0  0  0  0  0  0
   59.0694   34.4468   43.2364 H   0  0  0  0  0  0  0  0  0  0  0  0
   56.9690   33.8010   43.6230 H   0  0  0  0  0  0  0  0  0  0  0  0
   56.0333   29.5035   43.6917 H   0  0  0  0  0  0  0  0  0  0  0  0
   56.3995   27.4571   45.0632 H   0  0  0  0  0  0  0  0  0  0  0  0
   57.4597   26.9077   48.1125 H   0  0  0  0  0  0  0  0  0  0  0  0
   56.7206   26.0231   46.7182 H   0  0  0  0  0  0  0  0  0  0  0  0
   58.2872   22.1632   45.3580 H   0  0  0  0  0  0  0  0  0  0  0  0
   57.5553   22.1866   42.8307 H   0  0  0  0  0  0  0  0  0  0  0  0
   60.4626   28.7335   45.8678 H   0  0  0  0  0  0  0  0  0  0  0  0
   60.0902   30.7742   44.4903 H   0  0  0  0  0  0  0  0  0  0  0  0
   56.5463   31.8523   45.3479 H   0  0  0  0  0  0  0  0  0  0  0  0
   56.3954   33.6301   45.7178 H   0  0  0  0  0  0  0  0  0  0  0  0
   58.8521   31.8991   46.2499 H   0  0  0  0  0  0  0  0  0  0  0  0
   57.6463   32.4574   47.4757 H   0  0  0  0  0  0  0  0  0  0  0  0
  1  2  1  0
  2  3  1  0
  3  4  1  0
  4  5  1  0
  5  6  1  0
  6  7  2  0
  6  8  2  0
  6  9  1  0
  9 10  2  0
 10 11  1  0
 11 12  2  0
 12 13  1  0
 13 14  2  0
 13 15  1  0
 15 16  1  0
 16 17  1  0
 17 18  2  0
 17 19  2  0
 17 20  1  0
 20 21  1  0
 21 22  2  0
 22 23  1  0
 23 24  1  0
 24 25  1  0
 25 26  2  0
 25 27  1  0
 12 28  1  0
 28 29  2  0
  5 30  1  0
 30 31  1  0
 31  2  1  0
 29  9  1  0
 24 20  2  0
  1 32  1  0
  1 33  1  0
  1 34  1  0
  2 35  1  1
  3 36  1  0
  3 37  1  0
  4 38  1  0
  4 39  1  0
  5 40  1  6
 10 41  1  0
 11 42  1  0
 15 43  1  0
 15 44  1  0
 21 45  1  0
 22 46  1  0
 28 47  1  0
 29 48  1  0
 30 49  1  0
 30 50  1  0
 31 51  1  0
 31 52  1  0
M  CHG  3   5   1  16  -1  27  -1
M  END
>  <UniqueID>  (78) 
72

>  <SMILES>  (78) 
CC1CC[NH+](S(=O)(=O)c2ccc(C(=O)C[N-]S(=O)(=O)c3ccsc3C(=O)[O-])cc2)CC1

>  <Energy>  (78) 
85.04851311704581

>  <Genealogy>  (78) 
CC1CC[NH+](S(=O)(=O)c2ccc(C(=O)C[N-]S(=O)(=O)c3ccsc3C(=O)[O-])cc2)CC1 (protonated)
CC1CC[NH+](S(=O)(=O)c2ccc(C(=O)C[N-]S(=O)(=O)c3ccsc3C(=O)[O-])cc2)CC1 (3D coordinates assigned)
CC1CC[NH+](S(=O)(=O)c2ccc(C(=O)C[N-]S(=O)(=O)c3ccsc3C(=O)[O-])cc2)CC1 (nonaromatic ring conformer: 85.04851311704581 kcal/mol)

>  <smiles>  (78) 
CC1CCN(S(=O)(=O)c2ccc(C(=O)CNS(=O)(=O)c3ccsc3C(=O)O)cc2)CC1

>  <score_type>  (78) 
oracle

>  <origin>  (78) 
adg

>  <m_score__min__energy>  (78) 
-12.67

>  <m_primary>  (78) 
energy

$$$$
78:0
     RDKit          3D

 28 30  0  0  0  0  0  0  0  0999 V2000
   55.5380   30.4630   44.4980 O   0  0  0  0  0  0  0  0  0  0  0  0
   56.3540   29.6720   45.0430 C   0  0  0  0  0  0  0  0  0  0  0  0
   55.9980   28.3750   45.2300 N   0  0  0  0  0  0  0  0  0  0  0  0
   56.8350   27.4940   45.8380 C   0  0  0  0  0  0  0  0  0  0  0  0
   56.4310   26.0950   46.0270 C   0  0  0  0  0  0  0  0  0  0  0  0
   57.2770   25.0270   46.2510 C   0  0  0  0  0  0  0  0  0  0  0  0
   56.4580   23.9240   46.3640 C   0  0  0  0  0  0  0  0  0  0  0  0
   55.1680   24.3850   46.2020 C   0  0  0  0  0  0  0  0  0  0  0  0
   55.1850   25.6830   46.0020 O   0  0  0  0  0  0  0  0  0  0  0  0
   58.0510   27.9110   46.2770 N   0  0  0  0  0  0  0  0  0  0  0  0
   58.4520   29.1980   46.1150 C   0  0  0  0  0  0  0  0  0  0  0  0
   57.6140   30.1220   45.4760 C   0  0  0  0  0  0  0  0  0  0  0  0
   58.0530   31.5260   45.2980 C   0  0  0  0  0  0  0  0  0  0  0  0
   58.4860   32.2640   46.4130 C   0  0  0  0  0  0  0  0  0  0  0  0
   58.9010   33.5920   46.2670 C   0  0  0  0  0  0  0  0  0  0  0  0
   59.4280   34.5050   47.6690 Cl  0  0  0  0  0  0  0  0  0  0  0  0
   58.8940   34.1900   45.0050 C   0  0  0  0  0  0  0  0  0  0  0  0
   58.4790   33.4640   43.8880 C   0  0  0  0  0  0  0  0  0  0  0  0
   58.0640   32.1310   44.0240 C   0  0  0  0  0  0  0  0  0  0  0  0
   57.6840   31.4020   42.8960 O   0  0  0  0  0  0  0  0  0  0  0  0
   58.3743   25.0513   46.3240 H   0  0  0  0  0  0  0  0  0  0  0  0
   56.7703   22.8852   46.5466 H   0  0  0  0  0  0  0  0  0  0  0  0
   54.2630   23.7607   46.2353 H   0  0  0  0  0  0  0  0  0  0  0  0
   59.4373   29.5164   46.4863 H   0  0  0  0  0  0  0  0  0  0  0  0
   58.4987   31.7941   47.4075 H   0  0  0  0  0  0  0  0  0  0  0  0
   59.2163   35.2356   44.8913 H   0  0  0  0  0  0  0  0  0  0  0  0
   58.4773   33.9393   42.8960 H   0  0  0  0  0  0  0  0  0  0  0  0
   57.0780   30.5930   42.9660 H   0  0  0  0  0  0  0  0  0  0  0  0
  1  2  2  0
  2  3  1  0
  3  4  2  0
  4  5  1  0
  5  6  2  0
  6  7  1  0
  7  8  2  0
  8  9  1  0
  4 10  1  0
 10 11  1  0
 11 12  2  0
 12 13  1  0
 13 14  2  0
 14 15  1  0
 15 16  1  0
 15 17  2  0
 17 18  1  0
 18 19  2  0
 19 20  1  0
 12  2  1  0
 19 13  1  0
  9  5  1  0
  6 21  1  0
  7 22  1  0
  8 23  1  0
 11 24  1  0
 14 25  1  0
 17 26  1  0
 18 27  1  0
 20 28  1  0
M  CHG  1  10  -1
M  END
>  <UniqueID>  (79) 
73

>  <SMILES>  (79) 
O=c1nc(-c2ccco2)[n-]cc1-c1cc(Cl)ccc1O

>  <Energy>  (79) 
64.62497192883528

>  <Genealogy>  (79) 
O=c1nc(-c2ccco2)[n-]cc1-c1cc(Cl)ccc1O (protonated)
O=c1nc(-c2ccco2)[n-]cc1-c1cc(Cl)ccc1O (3D coordinates assigned)
O=c1nc(-c2ccco2)[n-]cc1-c1cc(Cl)ccc1O (optimized conformer: 64.62497192883528 kcal/mol)

>  <smiles>  (79) 
O=c1nc(-c2ccco2)[nH]cc1-c1cc(Cl)ccc1O

>  <score_type>  (79) 
oracle

>  <origin>  (79) 
adg

>  <m_score__min__energy>  (79) 
-8.8599999999999994

>  <m_primary>  (79) 
energy

$$$$
79:0
     RDKit          3D

 70 74  0  0  0  0  0  0  0  0999 V2000
   50.3990   19.9440   47.6150 C   0  0  0  0  0  0  0  0  0  0  0  0
   51.4200   20.9840   47.5710 N   0  0  0  0  0  0  0  0  0  0  0  0
   51.7750   21.6650   48.7910 C   0  0  0  0  0  0  0  0  0  0  0  0
   53.1280   21.2880   49.2940 C   0  0  0  0  0  0  0  0  0  0  0  0
   54.0730   22.2590   49.6460 C   0  0  0  0  0  0  0  0  0  0  0  0
   55.3210   21.8410   50.1060 C   0  0  0  0  0  0  0  0  0  0  0  0
   55.6610   20.5160   50.2280 C   0  0  0  0  0  0  0  0  0  0  0  0
   54.7200   19.5810   49.8790 C   0  0  0  0  0  0  0  0  0  0  0  0
   53.4730   19.9370   49.4190 C   0  0  0  0  0  0  0  0  0  0  0  0
   52.0610   21.3280   46.3520 C   0  0  0  0  0  0  0  0  0  0  0  0
   51.3910   21.4230   45.2870 O   0  0  0  0  0  0  0  0  0  0  0  0
   53.4910   21.5880   46.2390 C   0  0  0  0  0  0  0  0  0  0  0  0
   54.2900   20.4650   45.9930 C   0  0  0  0  0  0  0  0  0  0  0  0
   55.6580   20.5830   45.8710 C   0  0  0  0  0  0  0  0  0  0  0  0
   56.1980   21.8470   45.9990 C   0  0  0  0  0  0  0  0  0  0  0  0
   55.4100   22.9700   46.2430 C   0  0  0  0  0  0  0  0  0  0  0  0
   56.1150   24.2380   46.3590 C   0  0  0  0  0  0  0  0  0  0  0  0
   55.9900   24.9210   47.4080 O   0  0  0  0  0  0  0  0  0  0  0  0
   56.9520   24.7700   45.3450 N   0  0  0  0  0  0  0  0  0  0  0  0
   57.5660   26.0310   45.6230 C   0  0  0  0  0  0  0  0  0  0  0  0
   56.8060   27.1940   45.6750 C   0  0  0  0  0  0  0  0  0  0  0  0
   57.4310   28.3830   45.9460 C   0  0  0  0  0  0  0  0  0  0  0  0
   58.8080   28.4770   46.1730 C   0  0  0  0  0  0  0  0  0  0  0  0
   59.3690   29.7750   46.4460 C   0  0  0  0  0  0  0  0  0  0  0  0
   58.8560   30.9670   45.9850 C   0  0  0  0  0  0  0  0  0  0  0  0
   59.4730   32.1610   46.3110 C   0  0  0  0  0  0  0  0  0  0  0  0
   60.6000   32.2410   47.0910 C   0  0  0  0  0  0  0  0  0  0  0  0
   61.2730   33.4710   47.4530 C   0  0  0  0  0  0  0  0  0  0  0  0
   60.8210   34.5710   46.9950 O   0  0  0  0  0  0  0  0  0  0  0  0
   62.4390   33.5690   48.3090 C   0  0  0  0  0  0  0  0  0  0  0  0
   62.2080   34.0320   49.6120 C   0  0  0  0  0  0  0  0  0  0  0  0
   63.2100   34.1380   50.5080 N   0  0  0  0  0  0  0  0  0  0  0  0
   64.4430   33.7830   50.1050 C   0  0  0  0  0  0  0  0  0  0  0  0
   65.4340   33.8740   50.9530 N   0  0  0  0  0  0  0  0  0  0  0  0
   64.6840   33.3360   48.8590 N   0  0  0  0  0  0  0  0  0  0  0  0
   63.7100   33.2130   47.9250 C   0  0  0  0  0  0  0  0  0  0  0  0
   64.0300   32.8150   46.7700 N   0  0  0  0  0  0  0  0  0  0  0  0
   61.1120   31.0330   47.5540 C   0  0  0  0  0  0  0  0  0  0  0  0
   60.5030   29.8370   47.2320 C   0  0  0  0  0  0  0  0  0  0  0  0
   59.5520   27.3200   46.1190 C   0  0  0  0  0  0  0  0  0  0  0  0
   58.9400   26.1220   45.8500 C   0  0  0  0  0  0  0  0  0  0  0  0
   54.0540   22.8360   46.3620 C   0  0  0  0  0  0  0  0  0  0  0  0
   50.1642   19.7048   48.6627 H   0  0  0  0  0  0  0  0  0  0  0  0
   49.4904   20.3005   47.1078 H   0  0  0  0  0  0  0  0  0  0  0  0
   50.7722   19.0421   47.1078 H   0  0  0  0  0  0  0  0  0  0  0  0
   51.7592   22.7491   48.6052 H   0  0  0  0  0  0  0  0  0  0  0  0
   51.0438   21.3704   49.5582 H   0  0  0  0  0  0  0  0  0  0  0  0
   53.8358   23.3298   49.5614 H   0  0  0  0  0  0  0  0  0  0  0  0
   56.0638   22.6038   50.3826 H   0  0  0  0  0  0  0  0  0  0  0  0
   56.6540   20.2148   50.5931 H   0  0  0  0  0  0  0  0  0  0  0  0
   54.9700   18.5136   49.9697 H   0  0  0  0  0  0  0  0  0  0  0  0
   52.7451   19.1578   49.1487 H   0  0  0  0  0  0  0  0  0  0  0  0
   53.8199   19.4753   45.8958 H   0  0  0  0  0  0  0  0  0  0  0  0
   56.2934   19.7058   45.6795 H   0  0  0  0  0  0  0  0  0  0  0  0
   57.2869   21.9719   45.9052 H   0  0  0  0  0  0  0  0  0  0  0  0
   57.0930   24.2460   44.4550 H   0  0  0  0  0  0  0  0  0  0  0  0
   55.7203   27.1603   45.5014 H   0  0  0  0  0  0  0  0  0  0  0  0
   56.8255   29.3004   45.9867 H   0  0  0  0  0  0  0  0  0  0  0  0
   57.9535   30.9694   45.3561 H   0  0  0  0  0  0  0  0  0  0  0  0
   59.0383   33.0950   45.9254 H   0  0  0  0  0  0  0  0  0  0  0  0
   61.1875   34.3148   49.9097 H   0  0  0  0  0  0  0  0  0  0  0  0
   62.9950   34.4910   51.4720 H   0  0  0  0  0  0  0  0  0  0  0  0
   65.4840   33.1460   51.7080 H   0  0  0  0  0  0  0  0  0  0  0  0
   65.6490   33.0790   48.6160 H   0  0  0  0  0  0  0  0  0  0  0  0
   64.8580   32.2640   46.5330 H   0  0  0  0  0  0  0  0  0  0  0  0
   62.0134   31.0311   48.1845 H   0  0  0  0  0  0  0  0  0  0  0  0
   60.9357   28.9009   47.6146 H   0  0  0  0  0  0  0  0  0  0  0  0
   60.6378   27.3561   46.2916 H   0  0  0  0  0  0  0  0  0  0  0  0
   59.5496   25.2071   45.8122 H   0  0  0  0  0  0  0  0  0  0  0  0
   53.4220   23.7157   46.5537 H   0  0  0  0  0  0  0  0  0  0  0  0
  1  2  1  0
  2  3  1  0
  3  4  1  0
  4  5  2  0
  5  6  1  0
  6  7  2  0
  7  8  1  0
  8  9  2  0
  2 10  1  0
 10 11  2  0
 10 12  1  0
 12 13  2  0
 13 14  1  0
 14 15  2  0
 15 16  1  0
 16 17  1  0
 17 18  2  0
 17 19  1  0
 19 20  1  0
 20 21  2  0
 21 22  1  0
 22 23  2  0
 23 24  1  0
 24 25  2  0
 25 26  1  0
 26 27  2  0
 27 28  1  0
 28 29  2  0
 28 30  1  0
 30 31  2  0
 31 32  1  0
 32 33  1  0
 33 34  2  3
 33 35  1  0
 35 36  1  0
 36 37  2  3
 27 38  1  0
 38 39  2  0
 23 40  1  0
 40 41  2  0
 16 42  2  0
  9  4  1  0
 42 12  1  0
 41 20  1  0
 39 24  1  0
 36 30  1  0
  1 43  1  0
  1 44  1  0
  1 45  1  0
  3 46  1  0
  3 47  1  0
  5 48  1  0
  6 49  1  0
  7 50  1  0
  8 51  1  0
  9 52  1  0
 13 53  1  0
 14 54  1  0
 15 55  1  0
 19 56  1  0
 21 57  1  0
 22 58  1  0
 25 59  1  0
 26 60  1  0
 31 61  1  0
 32 62  1  0
 34 63  1  0
 35 64  1  0
 37 65  1  0
 38 66  1  0
 39 67  1  0
 40 68  1  0
 41 69  1  0
 42 70  1  0
M  END
>  <smiles>  (80) 
CN(Cc1ccccc1)C(=O)c1cccc(C(=O)Nc2ccc(-c3ccc(C(=O)c4c[nH]c(=N)[nH]c4=N)cc3)cc2)c1

>  <score_type>  (80) 
oracle

>  <origin>  (80) 
adg

>  <m_score__min__energy>  (80) 
-7.6200000000000001

>  <m_primary>  (80) 
energy

$$$$
80:0
     RDKit          3D

 50 53  0  0  0  0  0  0  0  0999 V2000
   54.3850   28.2440   53.2550 C   0  0  0  0  0  0  0  0  0  0  0  0
   54.6860   29.4450   52.7350 C   0  0  0  0  0  0  0  0  0  0  0  0
   53.7870   30.4550   52.3620 C   0  0  0  0  0  0  0  0  0  0  0  0
   52.4480   30.4330   52.2020 C   0  0  0  0  0  0  0  0  0  0  0  0
   51.7290   30.7980   50.9710 C   0  0  0  0  0  0  0  0  0  0  0  0
   51.6980   30.0520   49.8500 N   0  0  0  0  0  0  0  0  0  0  0  0
   51.0510   30.8450   48.9670 C   0  0  0  0  0  0  0  0  0  0  0  0
   50.8080   30.4850   47.7860 O   0  0  0  0  0  0  0  0  0  0  0  0
   50.6940   32.0550   49.4470 N   0  0  0  0  0  0  0  0  0  0  0  0
   51.1440   32.0130   50.7120 C   0  0  0  0  0  0  0  0  0  0  0  0
   51.0280   33.0670   51.6100 O   0  0  0  0  0  0  0  0  0  0  0  0
   54.5490   31.5920   52.1430 C   0  0  0  0  0  0  0  0  0  0  0  0
   55.8690   31.2250   52.3060 C   0  0  0  0  0  0  0  0  0  0  0  0
   57.0360   32.1520   52.1470 C   0  0  0  0  0  0  0  0  0  0  0  0
   55.9550   29.9240   52.6620 N   0  0  0  0  0  0  0  0  0  0  0  0
   57.1720   29.2140   52.9600 C   0  0  0  0  0  0  0  0  0  0  0  0
   57.3220   28.5670   54.1880 C   0  0  0  0  0  0  0  0  0  0  0  0
   58.4650   27.8920   54.4800 N   0  0  0  0  0  0  0  0  0  0  0  0
   59.5120   27.8070   53.5960 C   0  0  0  0  0  0  0  0  0  0  0  0
   60.7240   27.0670   53.9420 N   0  0  0  0  0  0  0  0  0  0  0  0
   61.9440   27.8170   54.3080 C   0  0  0  0  0  0  0  0  0  0  0  0
   63.1140   26.9200   54.7200 C   0  0  0  0  0  0  0  0  0  0  0  0
   63.1660   25.7630   53.9230 O   0  0  0  0  0  0  0  0  0  0  0  0
   62.0620   24.9530   54.2450 C   0  0  0  0  0  0  0  0  0  0  0  0
   60.7530   25.5970   53.7800 C   0  0  0  0  0  0  0  0  0  0  0  0
   59.3870   28.4620   52.3500 C   0  0  0  0  0  0  0  0  0  0  0  0
   58.2150   29.1680   52.0300 C   0  0  0  0  0  0  0  0  0  0  0  0
   58.0540   29.8410   50.8070 O   0  0  0  0  0  0  0  0  0  0  0  0
   59.1080   30.1210   49.8920 C   0  0  0  0  0  0  0  0  0  0  0  0
   55.1888   27.5365   53.5066 H   0  0  0  0  0  0  0  0  0  0  0  0
   53.3346   27.9678   53.4294 H   0  0  0  0  0  0  0  0  0  0  0  0
   51.8427   30.1156   53.0639 H   0  0  0  0  0  0  0  0  0  0  0  0
   54.1736   32.5941   51.8883 H   0  0  0  0  0  0  0  0  0  0  0  0
   57.4076   32.4472   53.1393 H   0  0  0  0  0  0  0  0  0  0  0  0
   57.8371   31.6413   51.5925 H   0  0  0  0  0  0  0  0  0  0  0  0
   56.7198   33.0478   51.5925 H   0  0  0  0  0  0  0  0  0  0  0  0
   56.5074   28.6039   54.9263 H   0  0  0  0  0  0  0  0  0  0  0  0
   58.5060   27.4410   55.4170 H   0  0  0  0  0  0  0  0  0  0  0  0
   62.2554   28.4187   53.4414 H   0  0  0  0  0  0  0  0  0  0  0  0
   61.6914   28.4385   55.1797 H   0  0  0  0  0  0  0  0  0  0  0  0
   64.0542   27.4792   54.6044 H   0  0  0  0  0  0  0  0  0  0  0  0
   62.9721   26.6178   55.7681 H   0  0  0  0  0  0  0  0  0  0  0  0
   62.1769   23.9762   53.7523 H   0  0  0  0  0  0  0  0  0  0  0  0
   62.0236   24.8321   55.3377 H   0  0  0  0  0  0  0  0  0  0  0  0
   60.6093   25.3619   52.7151 H   0  0  0  0  0  0  0  0  0  0  0  0
   59.9508   25.1877   54.4117 H   0  0  0  0  0  0  0  0  0  0  0  0
   60.2134   28.4188   51.6252 H   0  0  0  0  0  0  0  0  0  0  0  0
   60.0237   30.3643   50.4508 H   0  0  0  0  0  0  0  0  0  0  0  0
   59.2880   29.2395   49.2591 H   0  0  0  0  0  0  0  0  0  0  0  0
   58.8268   30.9756   49.2591 H   0  0  0  0  0  0  0  0  0  0  0  0
  1  2  2  0
  2  3  1  0
  3  4  2  3
  4  5  1  0
  5  6  1  0
  6  7  1  0
  7  8  2  0
  7  9  1  0
  9 10  1  0
 10 11  1  0
  3 12  1  0
 12 13  2  0
 13 14  1  0
 13 15  1  0
 15 16  1  0
 16 17  2  0
 17 18  1  0
 18 19  2  0
 19 20  1  0
 20 21  1  0
 21 22  1  0
 22 23  1  0
 23 24  1  0
 24 25  1  0
 19 26  1  0
 26 27  2  0
 27 28  1  0
 28 29  1  0
 15  2  1  0
 27 16  1  0
 10  5  2  0
 25 20  1  0
  1 30  1  0
  1 31  1  0
  4 32  1  0
 12 33  1  0
 14 34  1  0
 14 35  1  0
 14 36  1  0
 17 37  1  0
 18 38  1  0
 21 39  1  0
 21 40  1  0
 22 41  1  0
 22 42  1  0
 24 43  1  0
 24 44  1  0
 25 45  1  0
 25 46  1  0
 26 47  1  0
 29 48  1  0
 29 49  1  0
 29 50  1  0
M  CHG  4   6  -1   9  -1  11  -1  18   1
M  END
>  <UniqueID>  (81) 
74

>  <SMILES>  (81) 
C=c1c(=Cc2[n-]c(=O)[n-]c2[O-])cc(C)n1-c1c[nH+]c(N2CCOCC2)cc1OC

>  <Energy>  (81) 
134.54633267067086

>  <Genealogy>  (81) 
C=c1c(=Cc2[n-]c(=O)[n-]c2[O-])cc(C)n1-c1c[nH+]c(N2CCOCC2)cc1OC (protonated)
C=c1c(=Cc2[n-]c(=O)[n-]c2[O-])cc(C)n1-c1c[nH+]c(N2CCOCC2)cc1OC (3D coordinates assigned)
C=c1c(=Cc2[n-]c(=O)[n-]c2[O-])cc(C)n1-c1c[nH+]c(N2CCOCC2)cc1OC (nonaromatic ring conformer: 134.54633267067086 kcal/mol)

>  <smiles>  (81) 
C=c1c(=Cc2[nH]c(=O)[nH]c2O)cc(C)n1-c1cnc(N2CCOCC2)cc1OC

>  <score_type>  (81) 
oracle

>  <origin>  (81) 
adg

>  <m_score__min__energy>  (81) 
-14.4

>  <m_primary>  (81) 
energy

$$$$
81:0
     RDKit          3D

 47 49  0  0  0  0  0  0  0  0999 V2000
   56.8020   29.4960   51.9950 O   0  0  0  0  0  0  0  0  0  0  0  0
   55.8770   30.1270   52.5710 C   0  0  0  0  0  0  0  0  0  0  0  0
   54.5280   29.4740   52.7020 C   0  0  0  0  0  0  0  0  0  0  0  0
   53.4920   30.2240   51.9080 C   0  0  0  0  0  0  0  0  0  0  0  0
   52.9910   31.4480   52.3830 C   0  0  0  0  0  0  0  0  0  0  0  0
   52.0290   32.1490   51.6500 C   0  0  0  0  0  0  0  0  0  0  0  0
   51.5530   31.6320   50.4420 C   0  0  0  0  0  0  0  0  0  0  0  0
   50.5920   32.3370   49.7250 O   0  0  0  0  0  0  0  0  0  0  0  0
   52.0440   30.4120   49.9610 C   0  0  0  0  0  0  0  0  0  0  0  0
   51.4050   29.6850   48.3100 Br  0  0  0  0  0  0  0  0  0  0  0  0
   53.0130   29.7120   50.6900 C   0  0  0  0  0  0  0  0  0  0  0  0
   56.1400   31.4570   53.0360 N   0  0  0  0  0  0  0  0  0  0  0  0
   57.4510   32.0070   53.3720 C   0  0  0  0  0  0  0  0  0  0  0  0
   58.2230   32.3470   52.1230 C   0  0  0  0  0  0  0  0  0  0  0  0
   57.6910   32.0420   50.8600 C   0  0  0  0  0  0  0  0  0  0  0  0
   58.4060   32.3490   49.6990 C   0  0  0  0  0  0  0  0  0  0  0  0
   59.6530   32.9880   49.7830 C   0  0  0  0  0  0  0  0  0  0  0  0
   60.4440   33.2740   48.5380 C   0  0  0  0  0  0  0  0  0  0  0  0
   59.8490   32.5600   47.4170 N   0  0  0  0  0  0  0  0  0  0  0  0
   58.9830   33.1490   46.4410 C   0  0  0  0  0  0  0  0  0  0  0  0
   58.3260   34.1760   46.7560 O   0  0  0  0  0  0  0  0  0  0  0  0
   58.8630   32.6070   45.0440 C   0  0  0  0  0  0  0  0  0  0  0  0
   57.8540   31.5000   44.9910 C   0  0  0  0  0  0  0  0  0  0  0  0
   56.6310   31.3520   43.8420 S   0  0  0  0  0  0  0  0  0  0  0  0
   56.0260   29.9500   44.5430 C   0  0  0  0  0  0  0  0  0  0  0  0
   55.0330   29.3100   44.1090 O   0  0  0  0  0  0  0  0  0  0  0  0
   56.7230   29.5740   45.6360 N   0  0  0  0  0  0  0  0  0  0  0  0
   57.7420   30.4370   45.8860 C   0  0  0  0  0  0  0  0  0  0  0  0
   58.6030   30.2640   46.9640 O   0  0  0  0  0  0  0  0  0  0  0  0
   60.1800   33.3050   51.0430 C   0  0  0  0  0  0  0  0  0  0  0  0
   59.4670   32.9960   52.2060 C   0  0  0  0  0  0  0  0  0  0  0  0
   54.5897   28.4408   52.3295 H   0  0  0  0  0  0  0  0  0  0  0  0
   54.2338   29.4818   53.7619 H   0  0  0  0  0  0  0  0  0  0  0  0
   53.3576   31.8565   53.3363 H   0  0  0  0  0  0  0  0  0  0  0  0
   51.6458   33.1096   52.0248 H   0  0  0  0  0  0  0  0  0  0  0  0
   53.4013   28.7565   50.3075 H   0  0  0  0  0  0  0  0  0  0  0  0
   57.3168   32.9186   53.9728 H   0  0  0  0  0  0  0  0  0  0  0  0
   58.0148   31.2536   53.9417 H   0  0  0  0  0  0  0  0  0  0  0  0
   56.7058   31.5587   50.7838 H   0  0  0  0  0  0  0  0  0  0  0  0
   57.9895   32.0886   48.7147 H   0  0  0  0  0  0  0  0  0  0  0  0
   60.4309   34.3549   48.3342 H   0  0  0  0  0  0  0  0  0  0  0  0
   61.4836   32.9425   48.6769 H   0  0  0  0  0  0  0  0  0  0  0  0
   58.5476   33.4159   44.3685 H   0  0  0  0  0  0  0  0  0  0  0  0
   59.8406   32.2101   44.7331 H   0  0  0  0  0  0  0  0  0  0  0  0
   59.1610   31.0350   47.3090 H   0  0  0  0  0  0  0  0  0  0  0  0
   61.1598   33.7995   51.1173 H   0  0  0  0  0  0  0  0  0  0  0  0
   59.8815   33.2620   53.1896 H   0  0  0  0  0  0  0  0  0  0  0  0
  1  2  2  0
  2  3  1  0
  3  4  1  0
  4  5  2  0
  5  6  1  0
  6  7  2  0
  7  8  1  0
  7  9  1  0
  9 10  1  0
  9 11  2  0
  2 12  1  0
 12 13  1  0
 13 14  1  0
 14 15  2  0
 15 16  1  0
 16 17  2  0
 17 18  1  0
 18 19  1  0
 19 20  1  0
 20 21  2  0
 20 22  1  0
 22 23  1  0
 23 24  1  0
 24 25  1  0
 25 26  2  0
 25 27  1  0
 27 28  1  0
 28 29  1  0
 17 30  1  0
 30 31  2  0
 11  4  1  0
 31 14  1  0
 28 23  2  0
  3 32  1  0
  3 33  1  0
  5 34  1  0
  6 35  1  0
 11 36  1  0
 13 37  1  0
 13 38  1  0
 15 39  1  0
 16 40  1  0
 18 41  1  0
 18 42  1  0
 22 43  1  0
 22 44  1  0
 29 45  1  0
 30 46  1  0
 31 47  1  0
M  CHG  4   8  -1  12  -1  19  -1  27  -1
M  END
>  <UniqueID>  (82) 
75

>  <SMILES>  (82) 
O=C(Cc1ccc([O-])c(Br)c1)[N-]Cc1ccc(C[N-]C(=O)Cc2sc(=O)[n-]c2O)cc1

>  <Energy>  (82) 
72.15888988604637

>  <Genealogy>  (82) 
O=C(Cc1ccc([O-])c(Br)c1)[N-]Cc1ccc(C[N-]C(=O)Cc2sc(=O)[n-]c2O)cc1 (protonated)
O=C(Cc1ccc([O-])c(Br)c1)[N-]Cc1ccc(C[N-]C(=O)Cc2sc(=O)[n-]c2O)cc1 (3D coordinates assigned)
O=C(Cc1ccc([O-])c(Br)c1)[N-]Cc1ccc(C[N-]C(=O)Cc2sc(=O)[n-]c2O)cc1 (optimized conformer: 72.15888988604637 kcal/mol)

>  <smiles>  (82) 
O=C(Cc1ccc(O)c(Br)c1)NCc1ccc(CNC(=O)Cc2sc(=O)[nH]c2O)cc1

>  <score_type>  (82) 
oracle

>  <origin>  (82) 
adg

>  <m_score__min__energy>  (82) 
-17.629999999999999

>  <m_primary>  (82) 
energy

$$$$
82:0
     RDKit          3D

 43 45  0  0  0  0  0  0  0  0999 V2000
   63.9210   32.8900   46.7490 N   0  0  0  0  0  0  0  0  0  0  0  0
   62.6690   33.3200   47.2860 C   0  0  0  0  0  0  0  0  0  0  0  0
   62.2540   32.8950   48.5510 C   0  0  0  0  0  0  0  0  0  0  0  0
   61.0230   33.3460   49.0340 C   0  0  0  0  0  0  0  0  0  0  0  0
   60.6160   32.9820   50.1680 O   0  0  0  0  0  0  0  0  0  0  0  0
   60.2640   34.1820   48.2800 N   0  0  0  0  0  0  0  0  0  0  0  0
   60.6850   34.5880   47.0530 C   0  0  0  0  0  0  0  0  0  0  0  0
   59.6850   35.7170   46.0840 S   0  0  0  0  0  0  0  0  0  0  0  0
   59.0800   34.4510   44.9080 C   0  0  0  0  0  0  0  0  0  0  0  0
   58.6850   33.1890   45.6140 C   0  0  0  0  0  0  0  0  0  0  0  0
   57.4610   32.9460   45.7950 O   0  0  0  0  0  0  0  0  0  0  0  0
   59.6890   32.2370   46.0070 N   0  0  0  0  0  0  0  0  0  0  0  0
   59.3940   30.8580   46.2810 C   0  0  0  0  0  0  0  0  0  0  0  0
   58.5980   30.1350   45.3820 C   0  0  0  0  0  0  0  0  0  0  0  0
   58.2580   28.8060   45.6490 C   0  0  0  0  0  0  0  0  0  0  0  0
   58.7130   28.1780   46.8190 C   0  0  0  0  0  0  0  0  0  0  0  0
   58.3160   26.7840   47.1190 C   0  0  0  0  0  0  0  0  0  0  0  0
   59.1820   25.9710   47.5400 O   0  0  0  0  0  0  0  0  0  0  0  0
   56.9600   26.3350   46.9860 N   0  0  0  0  0  0  0  0  0  0  0  0
   56.5070   25.2490   46.1620 C   0  0  0  0  0  0  0  0  0  0  0  0
   57.3320   24.1420   45.8860 C   0  0  0  0  0  0  0  0  0  0  0  0
   56.8630   23.0960   45.0870 C   0  0  0  0  0  0  0  0  0  0  0  0
   55.5650   23.1350   44.5730 C   0  0  0  0  0  0  0  0  0  0  0  0
   54.7310   24.2180   44.8640 C   0  0  0  0  0  0  0  0  0  0  0  0
   55.1970   25.2700   45.6600 C   0  0  0  0  0  0  0  0  0  0  0  0
   54.3560   26.3400   45.9440 O   0  0  0  0  0  0  0  0  0  0  0  0
   59.5570   28.8870   47.6910 C   0  0  0  0  0  0  0  0  0  0  0  0
   59.8970   30.2150   47.4230 C   0  0  0  0  0  0  0  0  0  0  0  0
   61.8760   34.1540   46.5640 N   0  0  0  0  0  0  0  0  0  0  0  0
   64.5850   32.3450   47.3410 H   0  0  0  0  0  0  0  0  0  0  0  0
   64.1870   33.1100   45.7640 H   0  0  0  0  0  0  0  0  0  0  0  0
   62.8819   32.2211   49.1524 H   0  0  0  0  0  0  0  0  0  0  0  0
   58.2057   34.8495   44.3724 H   0  0  0  0  0  0  0  0  0  0  0  0
   59.8941   34.2140   44.2073 H   0  0  0  0  0  0  0  0  0  0  0  0
   60.6870   32.4940   45.8330 H   0  0  0  0  0  0  0  0  0  0  0  0
   58.2387   30.6166   44.4606 H   0  0  0  0  0  0  0  0  0  0  0  0
   57.6301   28.2488   44.9381 H   0  0  0  0  0  0  0  0  0  0  0  0
   58.3499   24.1004   46.3010 H   0  0  0  0  0  0  0  0  0  0  0  0
   57.5171   22.2406   44.8625 H   0  0  0  0  0  0  0  0  0  0  0  0
   55.1992   22.3136   43.9394 H   0  0  0  0  0  0  0  0  0  0  0  0
   53.7057   24.2434   44.4663 H   0  0  0  0  0  0  0  0  0  0  0  0
   59.9525   28.3927   48.5906 H   0  0  0  0  0  0  0  0  0  0  0  0
   60.5618   30.7594   48.1098 H   0  0  0  0  0  0  0  0  0  0  0  0
  1  2  1  0
  2  3  2  0
  3  4  1  0
  4  5  2  0
  4  6  1  0
  6  7  2  0
  7  8  1  0
  8  9  1  0
  9 10  1  0
 10 11  2  0
 10 12  1  0
 12 13  1  0
 13 14  2  0
 14 15  1  0
 15 16  2  0
 16 17  1  0
 17 18  2  0
 17 19  1  0
 19 20  1  0
 20 21  2  0
 21 22  1  0
 22 23  2  0
 23 24  1  0
 24 25  2  0
 25 26  1  0
 16 27  1  0
 27 28  2  0
  7 29  1  0
 29  2  1  0
 28 13  1  0
 25 20  1  0
  1 30  1  0
  1 31  1  0
  3 32  1  0
  9 33  1  0
  9 34  1  0
 12 35  1  0
 14 36  1  0
 15 37  1  0
 21 38  1  0
 22 39  1  0
 23 40  1  0
 24 41  1  0
 27 42  1  0
 28 43  1  0
M  CHG  3  19  -1  26  -1  29  -1
M  END
>  <UniqueID>  (83) 
76

>  <SMILES>  (83) 
Nc1cc(=O)nc(SCC(=O)Nc2ccc(C(=O)[N-]c3ccccc3[O-])cc2)[n-]1

>  <Energy>  (83) 
50.16245505285123

>  <Genealogy>  (83) 
Nc1cc(=O)nc(SCC(=O)Nc2ccc(C(=O)[N-]c3ccccc3[O-])cc2)[n-]1 (protonated)
Nc1cc(=O)nc(SCC(=O)Nc2ccc(C(=O)[N-]c3ccccc3[O-])cc2)[n-]1 (3D coordinates assigned)
Nc1cc(=O)nc(SCC(=O)Nc2ccc(C(=O)[N-]c3ccccc3[O-])cc2)[n-]1 (optimized conformer: 50.16245505285123 kcal/mol)

>  <smiles>  (83) 
Nc1cc(=O)nc(SCC(=O)Nc2ccc(C(=O)Nc3ccccc3O)cc2)[nH]1

>  <score_type>  (83) 
oracle

>  <origin>  (83) 
adg

>  <m_score__min__energy>  (83) 
-14.98

>  <m_primary>  (83) 
energy

$$$$
83:0
     RDKit          3D

 37 39  0  0  0  0  0  0  0  0999 V2000
   58.2810   29.5730   51.5500 O   0  0  0  0  0  0  0  0  0  0  0  0
   57.8500   30.5380   50.8600 C   0  0  0  0  0  0  0  0  0  0  0  0
   56.7890   31.3610   51.3720 N   0  0  0  0  0  0  0  0  0  0  0  0
   55.8690   30.9320   52.3910 C   0  0  0  0  0  0  0  0  0  0  0  0
   56.3550   30.2420   53.5120 C   0  0  0  0  0  0  0  0  0  0  0  0
   55.4810   29.8250   54.5190 C   0  0  0  0  0  0  0  0  0  0  0  0
   54.1160   30.1050   54.4230 C   0  0  0  0  0  0  0  0  0  0  0  0
   53.6150   30.8190   53.3240 C   0  0  0  0  0  0  0  0  0  0  0  0
   52.1410   31.1030   53.2080 C   0  0  0  0  0  0  0  0  0  0  0  0
   51.7140   31.1060   51.7580 C   0  0  0  0  0  0  0  0  0  0  0  0
   51.0130   32.1950   51.2080 C   0  0  0  0  0  0  0  0  0  0  0  0
   50.6580   33.2850   51.9950 O   0  0  0  0  0  0  0  0  0  0  0  0
   50.6710   32.1890   49.8940 N   0  0  0  0  0  0  0  0  0  0  0  0
   50.9980   31.1490   49.0870 C   0  0  0  0  0  0  0  0  0  0  0  0
   50.6690   31.1670   47.8740 O   0  0  0  0  0  0  0  0  0  0  0  0
   51.6790   30.0890   49.5900 N   0  0  0  0  0  0  0  0  0  0  0  0
   52.0460   30.0430   50.8970 C   0  0  0  0  0  0  0  0  0  0  0  0
   52.6820   29.0420   51.3220 O   0  0  0  0  0  0  0  0  0  0  0  0
   54.4980   31.2330   52.3120 C   0  0  0  0  0  0  0  0  0  0  0  0
   58.4800   30.8370   49.5510 C   0  0  0  0  0  0  0  0  0  0  0  0
   58.6530   32.1710   49.1360 C   0  0  0  0  0  0  0  0  0  0  0  0
   59.2510   32.4590   47.9050 C   0  0  0  0  0  0  0  0  0  0  0  0
   59.4520   34.1260   47.3960 Cl  0  0  0  0  0  0  0  0  0  0  0  0
   59.6900   31.4210   47.0780 C   0  0  0  0  0  0  0  0  0  0  0  0
   59.5350   30.0920   47.4840 C   0  0  0  0  0  0  0  0  0  0  0  0
   60.0990   28.7910   46.4510 Cl  0  0  0  0  0  0  0  0  0  0  0  0
   58.9360   29.8000   48.7140 C   0  0  0  0  0  0  0  0  0  0  0  0
   56.7580   32.3630   51.0760 H   0  0  0  0  0  0  0  0  0  0  0  0
   57.4305   30.0281   53.5984 H   0  0  0  0  0  0  0  0  0  0  0  0
   55.8686   29.2751   55.3892 H   0  0  0  0  0  0  0  0  0  0  0  0
   53.4305   29.7641   55.2128 H   0  0  0  0  0  0  0  0  0  0  0  0
   51.5794   30.3272   53.7490 H   0  0  0  0  0  0  0  0  0  0  0  0
   51.9346   32.0928   53.6413 H   0  0  0  0  0  0  0  0  0  0  0  0
   54.1128   31.7977   51.4502 H   0  0  0  0  0  0  0  0  0  0  0  0
   58.3154   32.9928   49.7846 H   0  0  0  0  0  0  0  0  0  0  0  0
   60.1570   31.6495   46.1086 H   0  0  0  0  0  0  0  0  0  0  0  0
   58.8203   28.7527   49.0299 H   0  0  0  0  0  0  0  0  0  0  0  0
  1  2  2  0
  2  3  1  0
  3  4  1  0
  4  5  2  0
  5  6  1  0
  6  7  2  0
  7  8  1  0
  8  9  1  0
  9 10  1  0
 10 11  2  0
 11 12  1  0
 11 13  1  0
 13 14  1  0
 14 15  2  0
 14 16  1  0
 16 17  1  0
 17 18  2  0
  8 19  2  0
  2 20  1  0
 20 21  2  0
 21 22  1  0
 22 23  1  0
 22 24  2  0
 24 25  1  0
 25 26  1  0
 25 27  2  0
 19  4  1  0
 27 20  1  0
 17 10  1  0
  3 28  1  0
  5 29  1  0
  6 30  1  0
  7 31  1  0
  9 32  1  0
  9 33  1  0
 19 34  1  0
 21 35  1  0
 24 36  1  0
 27 37  1  0
M  CHG  3  12  -1  13  -1  16  -1
M  END
>  <UniqueID>  (84) 
77

>  <SMILES>  (84) 
O=C(Nc1cccc(Cc2c([O-])[n-]c(=O)[n-]c2=O)c1)c1cc(Cl)cc(Cl)c1

>  <Energy>  (84) 
46.831980418745985

>  <Genealogy>  (84) 
O=C(Nc1cccc(Cc2c([O-])[n-]c(=O)[n-]c2=O)c1)c1cc(Cl)cc(Cl)c1 (protonated)
O=C(Nc1cccc(Cc2c([O-])[n-]c(=O)[n-]c2=O)c1)c1cc(Cl)cc(Cl)c1 (3D coordinates assigned)
O=C(Nc1cccc(Cc2c([O-])[n-]c(=O)[n-]c2=O)c1)c1cc(Cl)cc(Cl)c1 (optimized conformer: 46.831980418745985 kcal/mol)

>  <smiles>  (84) 
O=C(Nc1cccc(Cc2c(O)[nH]c(=O)[nH]c2=O)c1)c1cc(Cl)cc(Cl)c1

>  <score_type>  (84) 
oracle

>  <origin>  (84) 
adg

>  <m_score__min__energy>  (84) 
-17.129999999999999

>  <m_primary>  (84) 
energy

$$$$
84:0
     RDKit          3D

 50 52  0  0  0  0  0  0  0  0999 V2000
   64.6730   31.7900   50.4940 C   0  0  0  0  0  0  0  0  0  0  0  0
   64.7020   32.8390   49.3700 C   0  0  0  0  0  0  0  0  0  0  0  0
   63.4000   33.0310   48.6950 N   0  0  0  0  0  0  0  0  0  0  0  0
   62.6270   34.1730   49.2190 C   0  0  0  0  0  0  0  0  0  0  0  0
   61.1890   34.0760   48.7110 C   0  0  0  0  0  0  0  0  0  0  0  0
   61.1620   33.8310   47.2630 N   0  0  0  0  0  0  0  0  0  0  0  0
   59.9070   33.8880   46.5660 C   0  0  0  0  0  0  0  0  0  0  0  0
   59.6900   34.8930   45.6100 C   0  0  0  0  0  0  0  0  0  0  0  0
   58.4730   34.9690   44.9290 C   0  0  0  0  0  0  0  0  0  0  0  0
   57.4620   34.0460   45.2000 C   0  0  0  0  0  0  0  0  0  0  0  0
   57.6690   33.0380   46.1430 C   0  0  0  0  0  0  0  0  0  0  0  0
   58.9010   32.9350   46.8170 C   0  0  0  0  0  0  0  0  0  0  0  0
   59.1410   31.8890   47.7720 N   0  0  0  0  0  0  0  0  0  0  0  0
   59.7730   30.6270   47.5120 C   0  0  0  0  0  0  0  0  0  0  0  0
   60.7510   30.2850   48.2260 O   0  0  0  0  0  0  0  0  0  0  0  0
   59.3540   29.7540   46.3920 C   0  0  0  0  0  0  0  0  0  0  0  0
   60.1890   28.7290   45.9300 C   0  0  0  0  0  0  0  0  0  0  0  0
   59.7750   27.8900   44.8950 C   0  0  0  0  0  0  0  0  0  0  0  0
   58.5150   28.0550   44.2980 C   0  0  0  0  0  0  0  0  0  0  0  0
   58.1000   27.1070   43.2050 C   0  0  0  0  0  0  0  0  0  0  0  0
   57.6670   29.1000   44.7430 C   0  0  0  0  0  0  0  0  0  0  0  0
   56.3790   29.3330   44.1430 N   0  0  0  0  0  0  0  0  0  0  0  0
   55.3570   29.3970   44.8590 O   0  0  0  0  0  0  0  0  0  0  0  0
   56.2740   29.6580   42.8110 O   0  0  0  0  0  0  0  0  0  0  0  0
   58.0900   29.9230   45.8030 C   0  0  0  0  0  0  0  0  0  0  0  0
   62.4140   33.8140   46.4990 C   0  0  0  0  0  0  0  0  0  0  0  0
   63.4870   32.9710   47.2160 C   0  0  0  0  0  0  0  0  0  0  0  0
   64.6870   32.2976   51.4698 H   0  0  0  0  0  0  0  0  0  0  0  0
   63.7578   31.1858   50.4081 H   0  0  0  0  0  0  0  0  0  0  0  0
   65.5534   31.1362   50.4081 H   0  0  0  0  0  0  0  0  0  0  0  0
   65.0130   33.8014   49.8025 H   0  0  0  0  0  0  0  0  0  0  0  0
   65.4051   32.4711   48.6083 H   0  0  0  0  0  0  0  0  0  0  0  0
   62.6320   34.1481   50.3187 H   0  0  0  0  0  0  0  0  0  0  0  0
   63.0790   35.1157   48.8770 H   0  0  0  0  0  0  0  0  0  0  0  0
   60.6797   33.2482   49.2262 H   0  0  0  0  0  0  0  0  0  0  0  0
   60.6777   35.0280   48.9168 H   0  0  0  0  0  0  0  0  0  0  0  0
   60.4830   35.6247   45.3961 H   0  0  0  0  0  0  0  0  0  0  0  0
   58.3113   35.7569   44.1786 H   0  0  0  0  0  0  0  0  0  0  0  0
   56.5006   34.1130   44.6697 H   0  0  0  0  0  0  0  0  0  0  0  0
   56.8649   32.3198   46.3610 H   0  0  0  0  0  0  0  0  0  0  0  0
   61.1791   28.5842   46.3868 H   0  0  0  0  0  0  0  0  0  0  0  0
   60.4432   27.0903   44.5428 H   0  0  0  0  0  0  0  0  0  0  0  0
   57.6969   26.1862   43.6518 H   0  0  0  0  0  0  0  0  0  0  0  0
   57.3271   27.5812   42.5822 H   0  0  0  0  0  0  0  0  0  0  0  0
   58.9727   26.8608   42.5822 H   0  0  0  0  0  0  0  0  0  0  0  0
   57.4200   30.7115   46.1765 H   0  0  0  0  0  0  0  0  0  0  0  0
   62.2231   33.3833   45.5050 H   0  0  0  0  0  0  0  0  0  0  0  0
   62.7827   34.8463   46.4073 H   0  0  0  0  0  0  0  0  0  0  0  0
   63.3717   31.9227   46.9033 H   0  0  0  0  0  0  0  0  0  0  0  0
   64.4653   33.3871   46.9337 H   0  0  0  0  0  0  0  0  0  0  0  0
  1  2  1  0
  2  3  1  0
  3  4  1  0
  4  5  1  0
  5  6  1  0
  6  7  1  0
  7  8  2  0
  8  9  1  0
  9 10  2  0
 10 11  1  0
 11 12  2  0
 12 13  1  0
 13 14  1  0
 14 15  2  0
 14 16  1  0
 16 17  2  0
 17 18  1  0
 18 19  2  0
 19 20  1  0
 19 21  1  0
 21 22  1  0
 22 23  2  0
 22 24  1  0
 21 25  2  0
  6 26  1  0
 26 27  1  0
 27  3  1  0
 12  7  1  0
 25 16  1  0
  1 28  1  0
  1 29  1  0
  1 30  1  0
  2 31  1  0
  2 32  1  0
  4 33  1  0
  4 34  1  0
  5 35  1  0
  5 36  1  0
  8 37  1  0
  9 38  1  0
 10 39  1  0
 11 40  1  0
 17 41  1  0
 18 42  1  0
 20 43  1  0
 20 44  1  0
 20 45  1  0
 25 46  1  0
 26 47  1  0
 26 48  1  0
 27 49  1  0
 27 50  1  0
M  CHG  3  13  -1  22   1  24  -1
M  END
>  <UniqueID>  (85) 
78

>  <SMILES>  (85) 
CCN1CCN(c2ccccc2[N-]C(=O)c2ccc(C)c([N+](=O)[O-])c2)CC1

>  <Energy>  (85) 
74.3884503379972

>  <Genealogy>  (85) 
CCN1CCN(c2ccccc2[N-]C(=O)c2ccc(C)c([N+](=O)[O-])c2)CC1 (protonated)
CCN1CCN(c2ccccc2[N-]C(=O)c2ccc(C)c([N+](=O)[O-])c2)CC1 (3D coordinates assigned)
CCN1CCN(c2ccccc2[N-]C(=O)c2ccc(C)c([N+](=O)[O-])c2)CC1 (nonaromatic ring conformer: 74.3884503379972 kcal/mol)

>  <smiles>  (85) 
CCN1CCN(c2ccccc2NC(=O)c2ccc(C)c([N+](=O)[O-])c2)CC1

>  <score_type>  (85) 
oracle

>  <origin>  (85) 
adg

>  <m_score__min__energy>  (85) 
-10.119999999999999

>  <m_primary>  (85) 
energy

$$$$
85:0
     RDKit          3D

 42 45  0  0  0  0  0  0  0  0999 V2000
   58.1060   33.3310   53.4260 H   0  0  0  0  0  0  0  0  0  0  0  0
   57.8220   32.7330   52.6580 O   0  0  0  0  0  0  0  0  0  0  0  0
   58.5930   32.6150   51.5050 C   0  0  0  0  0  0  0  0  0  0  0  0
   58.1790   31.7650   50.4570 C   0  0  0  0  0  0  0  0  0  0  0  0
   57.2468   31.1862   50.5349 H   0  0  0  0  0  0  0  0  0  0  0  0
   58.9810   31.6780   49.3220 C   0  0  0  0  0  0  0  0  0  0  0  0
   60.1510   32.3990   49.2160 C   0  0  0  0  0  0  0  0  0  0  0  0
   60.5880   33.2460   50.2320 C   0  0  0  0  0  0  0  0  0  0  0  0
   61.5248   33.8139   50.1326 H   0  0  0  0  0  0  0  0  0  0  0  0
   59.7950   33.3530   51.3890 C   0  0  0  0  0  0  0  0  0  0  0  0
   60.2000   34.1880   52.4230 O   0  0  0  0  0  0  0  0  0  0  0  0
   60.7290   32.0820   47.9260 C   0  0  0  0  0  0  0  0  0  0  0  0
   61.8010   32.5330   47.4420 O   0  0  0  0  0  0  0  0  0  0  0  0
   59.8040   31.1350   47.3060 C   0  0  0  0  0  0  0  0  0  0  0  0
   59.9430   30.5670   46.1040 C   0  0  0  0  0  0  0  0  0  0  0  0
   60.7695   30.8998   45.4589 H   0  0  0  0  0  0  0  0  0  0  0  0
   59.0380   29.5130   45.6020 C   0  0  0  0  0  0  0  0  0  0  0  0
   59.5910   28.2630   45.2850 C   0  0  0  0  0  0  0  0  0  0  0  0
   60.6767   28.1091   45.3721 H   0  0  0  0  0  0  0  0  0  0  0  0
   58.7750   27.2130   44.8600 C   0  0  0  0  0  0  0  0  0  0  0  0
   59.2187   26.2357   44.6192 H   0  0  0  0  0  0  0  0  0  0  0  0
   57.3970   27.4010   44.7400 C   0  0  0  0  0  0  0  0  0  0  0  0
   56.7536   26.5661   44.4254 H   0  0  0  0  0  0  0  0  0  0  0  0
   56.8350   28.6480   45.0190 C   0  0  0  0  0  0  0  0  0  0  0  0
   55.4650   28.8320   44.8710 O   0  0  0  0  0  0  0  0  0  0  0  0
   57.6470   29.7180   45.4220 C   0  0  0  0  0  0  0  0  0  0  0  0
   57.0520   30.9710   45.6150 O   0  0  0  0  0  0  0  0  0  0  0  0
   57.1350   32.0220   44.6540 C   0  0  0  0  0  0  0  0  0  0  0  0
   57.6287   31.6461   43.7457 H   0  0  0  0  0  0  0  0  0  0  0  0
   56.1196   32.3692   44.4122 H   0  0  0  0  0  0  0  0  0  0  0  0
   57.9290   33.1730   45.2120 C   0  0  0  0  0  0  0  0  0  0  0  0
   58.8230   33.8700   44.3830 C   0  0  0  0  0  0  0  0  0  0  0  0
   58.9079   33.6001   43.3200 H   0  0  0  0  0  0  0  0  0  0  0  0
   59.6060   34.9060   44.9030 C   0  0  0  0  0  0  0  0  0  0  0  0
   60.2976   35.4544   44.2465 H   0  0  0  0  0  0  0  0  0  0  0  0
   59.5110   35.2450   46.2540 C   0  0  0  0  0  0  0  0  0  0  0  0
   60.1249   36.0623   46.6604 H   0  0  0  0  0  0  0  0  0  0  0  0
   58.6360   34.5460   47.0900 C   0  0  0  0  0  0  0  0  0  0  0  0
   58.5653   34.8126   48.1549 H   0  0  0  0  0  0  0  0  0  0  0  0
   57.8500   33.5090   46.5780 C   0  0  0  0  0  0  0  0  0  0  0  0
   57.0210   32.8320   47.4120 F   0  0  0  0  0  0  0  0  0  0  0  0
   58.7460   30.9020   48.1890 O   0  0  0  0  0  0  0  0  0  0  0  0
  1  2  1  0
  2  3  1  0
  3  4  2  0
  4  5  1  0
  4  6  1  0
  6  7  2  0
  7  8  1  0
  8  9  1  0
  8 10  2  0
 10 11  1  0
  7 12  1  0
 12 13  2  0
 12 14  1  0
 14 15  2  0
 15 16  1  0
 15 17  1  0
 17 18  2  0
 18 19  1  0
 18 20  1  0
 20 21  1  0
 20 22  2  0
 22 23  1  0
 22 24  1  0
 24 25  1  0
 24 26  2  0
 26 27  1  0
 27 28  1  0
 28 29  1  0
 28 30  1  0
 28 31  1  0
 31 32  2  0
 32 33  1  0
 32 34  1  0
 34 35  1  0
 34 36  2  0
 36 37  1  0
 36 38  1  0
 38 39  1  0
 38 40  2  0
 40 41  1  0
 14 42  1  0
 10  3  1  0
 26 17  1  0
 40 31  1  0
 42  6  1  0
M  CHG  2  11  -1  25  -1
M  END
>  <UniqueID>  (86) 
79

>  <SMILES>  (86) 
O=C1/C(=C/c2cccc([O-])c2OCc2ccccc2F)Oc2cc(O)c([O-])cc21

>  <Energy>  (86) 
88.05295549908027

>  <Genealogy>  (86) 
O=C1C(=Cc2cccc([O-])c2OCc2ccccc2F)Oc2cc(O)c([O-])cc21 (protonated)
O=C1/C(=C/c2cccc([O-])c2OCc2ccccc2F)Oc2cc(O)c([O-])cc21 (cis-trans isomerization)
O=C1/C(=C/c2cccc([O-])c2OCc2ccccc2F)Oc2cc(O)c([O-])cc21 (3D coordinates assigned)
O=C1/C(=C/c2cccc([O-])c2OCc2ccccc2F)Oc2cc(O)c([O-])cc21 (nonaromatic ring conformer: 88.05295549908027 kcal/mol)

>  <smiles>  (86) 
O=C1C(=Cc2cccc(O)c2OCc2ccccc2F)Oc2cc(O)c(O)cc21

>  <score_type>  (86) 
oracle

>  <origin>  (86) 
adg

>  <m_score__min__energy>  (86) 
-12.289999999999999

>  <m_primary>  (86) 
energy

$$$$
86:0
     RDKit          3D

 50 53  0  0  0  0  0  0  0  0999 V2000
   57.9760   27.3813   43.1975 H   0  0  0  0  0  0  0  0  0  0  0  0
   58.0750   27.5220   44.2840 C   0  0  0  0  0  0  0  0  0  0  0  0
   58.1410   26.3080   45.1130 C   0  0  0  0  0  0  0  0  0  0  0  0
   59.2790   25.9160   45.4950 O   0  0  0  0  0  0  0  0  0  0  0  0
   56.9520   25.4720   45.4120 C   0  0  0  0  0  0  0  0  0  0  0  0
   55.7000   26.0460   45.6880 C   0  0  0  0  0  0  0  0  0  0  0  0
   55.5260   27.4260   45.6540 O   0  0  0  0  0  0  0  0  0  0  0  0
   54.6360   25.2530   45.9770 N   0  0  0  0  0  0  0  0  0  0  0  0
   53.7100   25.6970   46.1810 H   0  0  0  0  0  0  0  0  0  0  0  0
   54.7490   23.8990   46.0000 C   0  0  0  0  0  0  0  0  0  0  0  0
   53.7320   23.2010   46.2710 O   0  0  0  0  0  0  0  0  0  0  0  0
   55.9510   23.3000   45.7210 N   0  0  0  0  0  0  0  0  0  0  0  0
   56.0680   21.8630   45.7600 C   0  0  0  0  0  0  0  0  0  0  0  0
   56.0860   21.1260   44.5640 C   0  0  0  0  0  0  0  0  0  0  0  0
   56.0285   21.6471   43.5970 H   0  0  0  0  0  0  0  0  0  0  0  0
   56.1770   19.7300   44.6010 C   0  0  0  0  0  0  0  0  0  0  0  0
   56.1879   19.1550   43.6633 H   0  0  0  0  0  0  0  0  0  0  0  0
   56.2540   19.0660   45.8280 C   0  0  0  0  0  0  0  0  0  0  0  0
   56.3265   17.9687   45.8552 H   0  0  0  0  0  0  0  0  0  0  0  0
   56.2390   19.7950   47.0220 C   0  0  0  0  0  0  0  0  0  0  0  0
   56.3019   19.2709   47.9870 H   0  0  0  0  0  0  0  0  0  0  0  0
   56.1440   21.1910   46.9890 C   0  0  0  0  0  0  0  0  0  0  0  0
   56.1289   21.7624   47.9288 H   0  0  0  0  0  0  0  0  0  0  0  0
   57.0470   24.0660   45.4210 C   0  0  0  0  0  0  0  0  0  0  0  0
   58.1570   23.5120   45.1840 O   0  0  0  0  0  0  0  0  0  0  0  0
   58.1250   28.7940   44.7370 C   0  0  0  0  0  0  0  0  0  0  0  0
   57.3130   29.8320   44.1570 N   0  0  0  0  0  0  0  0  0  0  0  0
   56.4490   29.7040   42.9810 C   0  0  0  0  0  0  0  0  0  0  0  0
   55.4092   29.5499   43.3050 H   0  0  0  0  0  0  0  0  0  0  0  0
   56.5129   30.6214   42.3775 H   0  0  0  0  0  0  0  0  0  0  0  0
   56.7762   28.8445   42.3775 H   0  0  0  0  0  0  0  0  0  0  0  0
   57.7820   31.0550   44.7090 C   0  0  0  0  0  0  0  0  0  0  0  0
   57.3500   32.3490   44.3900 C   0  0  0  0  0  0  0  0  0  0  0  0
   56.5621   32.5078   43.6390 H   0  0  0  0  0  0  0  0  0  0  0  0
   57.9410   33.4370   45.0460 C   0  0  0  0  0  0  0  0  0  0  0  0
   57.6132   34.4609   44.8133 H   0  0  0  0  0  0  0  0  0  0  0  0
   58.9520   33.2250   46.0010 C   0  0  0  0  0  0  0  0  0  0  0  0
   59.4125   34.0838   46.5112 H   0  0  0  0  0  0  0  0  0  0  0  0
   59.3750   31.9230   46.3050 C   0  0  0  0  0  0  0  0  0  0  0  0
   60.1646   31.7515   47.0514 H   0  0  0  0  0  0  0  0  0  0  0  0
   58.7750   30.8440   45.6420 C   0  0  0  0  0  0  0  0  0  0  0  0
   59.0800   29.3760   45.7910 C   0  0  0  0  0  0  0  0  0  0  0  0
   60.5630   29.1240   45.4600 C   0  0  0  0  0  0  0  0  0  0  0  0
   61.1358   29.0267   46.3941 H   0  0  0  0  0  0  0  0  0  0  0  0
   60.6557   28.1972   44.8748 H   0  0  0  0  0  0  0  0  0  0  0  0
   60.9566   29.9681   44.8748 H   0  0  0  0  0  0  0  0  0  0  0  0
   58.7190   28.9300   47.2210 C   0  0  0  0  0  0  0  0  0  0  0  0
   59.2387   29.5720   47.9475 H   0  0  0  0  0  0  0  0  0  0  0  0
   57.6322   29.0149   47.3682 H   0  0  0  0  0  0  0  0  0  0  0  0
   59.0284   27.8847   47.3682 H   0  0  0  0  0  0  0  0  0  0  0  0
  1  2  1  0
  2  3  1  0
  3  4  2  0
  3  5  1  0
  5  6  2  0
  6  7  1  0
  6  8  1  0
  8  9  1  0
  8 10  1  0
 10 11  2  0
 10 12  1  0
 12 13  1  0
 13 14  2  0
 14 15  1  0
 14 16  1  0
 16 17  1  0
 16 18  2  0
 18 19  1  0
 18 20  1  0
 20 21  1  0
 20 22  2  0
 22 23  1  0
 12 24  1  0
 24 25  2  0
  2 26  2  0
 26 27  1  0
 27 28  1  0
 28 29  1  0
 28 30  1  0
 28 31  1  0
 27 32  1  0
 32 33  2  0
 33 34  1  0
 33 35  1  0
 35 36  1  0
 35 37  2  0
 37 38  1  0
 37 39  1  0
 39 40  1  0
 39 41  2  0
 41 42  1  0
 42 43  1  0
 43 44  1  0
 43 45  1  0
 43 46  1  0
 42 47  1  0
 47 48  1  0
 47 49  1  0
 47 50  1  0
 24  5  1  0
 42 26  1  0
 22 13  1  0
 41 32  1  0
M  CHG  1   7  -1
M  END
>  <UniqueID>  (87) 
80

>  <SMILES>  (87) 
CN1/C(=C/C(=O)c2c([O-])[nH]c(=O)n(-c3ccccc3)c2=O)C(C)(C)c2ccccc21

>  <Energy>  (87) 
97.11546487447495

>  <Genealogy>  (87) 
CN1C(=CC(=O)c2c([O-])[nH]c(=O)n(-c3ccccc3)c2=O)C(C)(C)c2ccccc21 (protonated)
CN1/C(=C/C(=O)c2c([O-])[nH]c(=O)n(-c3ccccc3)c2=O)C(C)(C)c2ccccc21 (cis-trans isomerization)
CN1/C(=C/C(=O)c2c([O-])[nH]c(=O)n(-c3ccccc3)c2=O)C(C)(C)c2ccccc21 (3D coordinates assigned)
CN1/C(=C/C(=O)c2c([O-])[nH]c(=O)n(-c3ccccc3)c2=O)C(C)(C)c2ccccc21 (nonaromatic ring conformer: 97.11546487447495 kcal/mol)

>  <smiles>  (87) 
CN1C(=CC(=O)c2c(O)[nH]c(=O)n(-c3ccccc3)c2=O)C(C)(C)c2ccccc21

>  <score_type>  (87) 
oracle

>  <origin>  (87) 
adg

>  <m_score__min__energy>  (87) 
-11.140000000000001

>  <m_primary>  (87) 
energy

$$$$
87:0
     RDKit          3D

 80 84  0  0  0  0  0  0  0  0999 V2000
   52.7060   22.5680   46.3920 C   0  0  0  0  0  0  0  0  0  0  0  0
   53.1030   23.4540   45.2040 C   0  0  0  0  0  0  0  0  0  0  0  0
   51.8870   24.1990   44.6490 C   0  0  0  0  0  0  0  0  0  0  0  0
   54.1720   24.4330   45.6100 C   0  0  0  0  0  0  0  0  0  0  0  0
   55.4530   24.1140   46.0050 C   0  0  0  0  0  0  0  0  0  0  0  0
   56.0390   25.3400   46.2430 C   0  0  0  0  0  0  0  0  0  0  0  0
   57.4410   25.5690   46.7180 C   0  0  0  0  0  0  0  0  0  0  0  0
   57.9230   26.8680   46.2590 N   0  0  0  0  0  0  0  0  0  0  0  0
   59.3050   27.1070   45.9580 C   0  0  0  0  0  0  0  0  0  0  0  0
   60.1930   26.2970   46.3510 O   0  0  0  0  0  0  0  0  0  0  0  0
   59.7060   28.3240   45.1760 C   0  0  0  0  0  0  0  0  0  0  0  0
   58.4810   29.0770   44.7220 C   0  0  0  0  0  0  0  0  0  0  0  0
   57.7130   28.5910   43.6520 C   0  0  0  0  0  0  0  0  0  0  0  0
   56.6500   29.3490   43.1470 C   0  0  0  0  0  0  0  0  0  0  0  0
   56.3500   30.5940   43.7040 C   0  0  0  0  0  0  0  0  0  0  0  0
   57.0900   31.0810   44.7860 C   0  0  0  0  0  0  0  0  0  0  0  0
   56.7730   32.3330   45.3220 O   0  0  0  0  0  0  0  0  0  0  0  0
   57.7480   33.2520   45.7120 C   0  0  0  0  0  0  0  0  0  0  0  0
   58.2180   34.1950   44.7920 C   0  0  0  0  0  0  0  0  0  0  0  0
   59.2340   35.0790   45.1560 C   0  0  0  0  0  0  0  0  0  0  0  0
   59.7670   35.0380   46.4470 C   0  0  0  0  0  0  0  0  0  0  0  0
   59.2800   34.1200   47.3950 C   0  0  0  0  0  0  0  0  0  0  0  0
   59.8490   34.0780   48.7580 C   0  0  0  0  0  0  0  0  0  0  0  0
   60.9320   34.6710   49.0000 O   0  0  0  0  0  0  0  0  0  0  0  0
   59.1650   33.3800   49.8060 N   0  0  0  0  0  0  0  0  0  0  0  0
   59.8100   32.4260   50.7010 C   0  0  0  0  0  0  0  0  0  0  0  0
   59.8230   31.0590   50.0570 C   0  0  0  0  0  0  0  0  0  0  0  0
   58.5880   30.5360   49.6240 C   0  0  0  0  0  0  0  0  0  0  0  0
   58.5180   29.2970   48.9920 C   0  0  0  0  0  0  0  0  0  0  0  0
   59.6770   28.5540   48.7720 C   0  0  0  0  0  0  0  0  0  0  0  0
   60.9130   29.0590   49.1760 C   0  0  0  0  0  0  0  0  0  0  0  0
   61.0120   30.3150   49.8080 C   0  0  0  0  0  0  0  0  0  0  0  0
   62.4030   30.8080   50.1440 C   0  0  0  0  0  0  0  0  0  0  0  0
   62.9390   31.6090   49.0210 N   0  0  0  0  0  0  0  0  0  0  0  0
   61.9530   31.6950   47.9260 C   0  0  0  0  0  0  0  0  0  0  0  0
   62.4220   32.6690   46.8260 C   0  0  0  0  0  0  0  0  0  0  0  0
   63.7480   33.0980   47.0570 O   0  0  0  0  0  0  0  0  0  0  0  0
   63.7990   33.8180   48.2740 C   0  0  0  0  0  0  0  0  0  0  0  0
   63.3180   32.9620   49.4690 C   0  0  0  0  0  0  0  0  0  0  0  0
   58.2670   33.2210   47.0120 C   0  0  0  0  0  0  0  0  0  0  0  0
   58.1580   30.3200   45.2920 C   0  0  0  0  0  0  0  0  0  0  0  0
   55.1500   26.3250   46.0070 N   0  0  0  0  0  0  0  0  0  0  0  0
   54.0110   25.7720   45.6190 N   0  0  0  0  0  0  0  0  0  0  0  0
   52.9395   23.0891   47.3322 H   0  0  0  0  0  0  0  0  0  0  0  0
   51.6273   22.3571   46.3478 H   0  0  0  0  0  0  0  0  0  0  0  0
   53.2666   21.6226   46.3478 H   0  0  0  0  0  0  0  0  0  0  0  0
   53.5020   22.8033   44.4119 H   0  0  0  0  0  0  0  0  0  0  0  0
   51.2749   24.5740   45.4825 H   0  0  0  0  0  0  0  0  0  0  0  0
   52.2252   25.0451   44.0328 H   0  0  0  0  0  0  0  0  0  0  0  0
   51.2868   23.5134   44.0328 H   0  0  0  0  0  0  0  0  0  0  0  0
   55.9030   23.1154   46.1067 H   0  0  0  0  0  0  0  0  0  0  0  0
   57.4611   25.5418   47.8175 H   0  0  0  0  0  0  0  0  0  0  0  0
   58.0911   24.7806   46.3108 H   0  0  0  0  0  0  0  0  0  0  0  0
   57.2220   27.6280   46.0910 H   0  0  0  0  0  0  0  0  0  0  0  0
   60.3202   28.9786   45.8118 H   0  0  0  0  0  0  0  0  0  0  0  0
   60.2825   28.0101   44.2933 H   0  0  0  0  0  0  0  0  0  0  0  0
   57.9472   27.6117   43.2092 H   0  0  0  0  0  0  0  0  0  0  0  0
   56.0498   28.9632   42.3098 H   0  0  0  0  0  0  0  0  0  0  0  0
   55.5271   31.1948   43.2894 H   0  0  0  0  0  0  0  0  0  0  0  0
   57.7864   34.2396   43.7812 H   0  0  0  0  0  0  0  0  0  0  0  0
   59.6156   35.8085   44.4265 H   0  0  0  0  0  0  0  0  0  0  0  0
   60.5754   35.7304   46.7247 H   0  0  0  0  0  0  0  0  0  0  0  0
   60.8432   32.7485   50.8974 H   0  0  0  0  0  0  0  0  0  0  0  0
   59.2536   32.3791   51.6488 H   0  0  0  0  0  0  0  0  0  0  0  0
   57.6667   31.1144   49.7875 H   0  0  0  0  0  0  0  0  0  0  0  0
   57.5444   28.9030   48.6651 H   0  0  0  0  0  0  0  0  0  0  0  0
   59.6169   27.5716   48.2809 H   0  0  0  0  0  0  0  0  0  0  0  0
   61.8238   28.4683   48.9987 H   0  0  0  0  0  0  0  0  0  0  0  0
   62.3601   31.4318   51.0490 H   0  0  0  0  0  0  0  0  0  0  0  0
   63.0609   29.9439   50.3186 H   0  0  0  0  0  0  0  0  0  0  0  0
   61.8176   30.6959   47.4862 H   0  0  0  0  0  0  0  0  0  0  0  0
   61.0052   32.0690   48.3404 H   0  0  0  0  0  0  0  0  0  0  0  0
   62.3736   32.1606   45.8517 H   0  0  0  0  0  0  0  0  0  0  0  0
   61.7634   33.5500   46.8360 H   0  0  0  0  0  0  0  0  0  0  0  0
   64.8365   34.1341   48.4574 H   0  0  0  0  0  0  0  0  0  0  0  0
   63.1305   34.6870   48.1852 H   0  0  0  0  0  0  0  0  0  0  0  0
   64.1297   32.8839   50.2073 H   0  0  0  0  0  0  0  0  0  0  0  0
   62.4383   33.4452   49.9192 H   0  0  0  0  0  0  0  0  0  0  0  0
   57.8810   32.4902   47.7379 H   0  0  0  0  0  0  0  0  0  0  0  0
   58.7454   30.7005   46.1407 H   0  0  0  0  0  0  0  0  0  0  0  0
  1  2  1  0
  2  3  1  0
  2  4  1  0
  4  5  1  0
  5  6  2  0
  6  7  1  0
  7  8  1  0
  8  9  1  0
  9 10  2  0
  9 11  1  0
 11 12  1  0
 12 13  2  0
 13 14  1  0
 14 15  2  0
 15 16  1  0
 16 17  1  0
 17 18  1  0
 18 19  2  0
 19 20  1  0
 20 21  2  0
 21 22  1  0
 22 23  1  0
 23 24  2  0
 23 25  1  0
 25 26  1  0
 26 27  1  0
 27 28  2  0
 28 29  1  0
 29 30  2  0
 30 31  1  0
 31 32  2  0
 32 33  1  0
 33 34  1  0
 34 35  1  0
 35 36  1  0
 36 37  1  0
 37 38  1  0
 38 39  1  0
 22 40  2  0
 16 41  2  0
  6 42  1  0
 42 43  1  0
 43  4  2  0
 41 12  1  0
 40 18  1  0
 32 27  1  0
 39 34  1  0
  1 44  1  0
  1 45  1  0
  1 46  1  0
  2 47  1  0
  3 48  1  0
  3 49  1  0
  3 50  1  0
  5 51  1  0
  7 52  1  0
  7 53  1  0
  8 54  1  0
 11 55  1  0
 11 56  1  0
 13 57  1  0
 14 58  1  0
 15 59  1  0
 19 60  1  0
 20 61  1  0
 21 62  1  0
 26 63  1  0
 26 64  1  0
 28 65  1  0
 29 66  1  0
 30 67  1  0
 31 68  1  0
 33 69  1  0
 33 70  1  0
 35 71  1  0
 35 72  1  0
 36 73  1  0
 36 74  1  0
 38 75  1  0
 38 76  1  0
 39 77  1  0
 39 78  1  0
 40 79  1  0
 41 80  1  0
M  CHG  2  25  -1  42  -1
M  END
>  <UniqueID>  (88) 
81

>  <SMILES>  (88) 
CC(C)c1cc(CNC(=O)Cc2cccc(Oc3cccc(C(=O)[N-]Cc4ccccc4CN4CCOCC4)c3)c2)[n-]n1

>  <Energy>  (88) 
127.17617074757794

>  <Genealogy>  (88) 
CC(C)c1cc(CNC(=O)Cc2cccc(Oc3cccc(C(=O)[N-]Cc4ccccc4CN4CCOCC4)c3)c2)[n-]n1 (protonated)
CC(C)c1cc(CNC(=O)Cc2cccc(Oc3cccc(C(=O)[N-]Cc4ccccc4CN4CCOCC4)c3)c2)[n-]n1 (3D coordinates assigned)
CC(C)c1cc(CNC(=O)Cc2cccc(Oc3cccc(C(=O)[N-]Cc4ccccc4CN4CCOCC4)c3)c2)[n-]n1 (nonaromatic ring conformer: 127.17617074757794 kcal/mol)

>  <smiles>  (88) 
CC(C)c1cc(CNC(=O)Cc2cccc(Oc3cccc(C(=O)NCc4ccccc4CN4CCOCC4)c3)c2)[nH]n1

>  <score_type>  (88) 
oracle

>  <origin>  (88) 
adg

>  <m_score__min__energy>  (88) 
-15.02

>  <m_primary>  (88) 
energy

$$$$
88:0
     RDKit          3D

 41 43  0  0  0  0  0  0  0  0999 V2000
   53.6930   26.3420   45.2190 H   0  0  0  0  0  0  0  0  0  0  0  0
   54.3010   25.9570   45.9780 N   0  0  0  0  0  0  0  0  0  0  0  0
   55.5230   26.3470   46.1280 C   0  0  0  0  0  0  0  0  0  0  0  0
   55.9300   27.5390   45.6130 N   0  0  0  0  0  0  0  0  0  0  0  0
   57.2100   27.9730   45.7700 C   0  0  0  0  0  0  0  0  0  0  0  0
   57.6160   29.3010   45.2020 C   0  0  0  0  0  0  0  0  0  0  0  0
   57.8528   29.1775   44.1349 H   0  0  0  0  0  0  0  0  0  0  0  0
   56.7824   30.0063   45.3353 H   0  0  0  0  0  0  0  0  0  0  0  0
   59.0830   29.9690   46.0650 S   0  0  0  0  0  0  0  0  0  0  0  0
   58.5280   31.6810   46.0150 C   0  0  0  0  0  0  0  0  0  0  0  0
   57.4230   31.9800   45.2800 N   0  0  0  0  0  0  0  0  0  0  0  0
   56.9000   33.2330   45.2370 C   0  0  0  0  0  0  0  0  0  0  0  0
   56.0086   33.4363   44.6254 H   0  0  0  0  0  0  0  0  0  0  0  0
   57.4930   34.2610   45.9680 C   0  0  0  0  0  0  0  0  0  0  0  0
   57.0660   35.2745   45.9480 H   0  0  0  0  0  0  0  0  0  0  0  0
   58.6330   33.9920   46.7250 C   0  0  0  0  0  0  0  0  0  0  0  0
   59.1089   34.7979   47.3030 H   0  0  0  0  0  0  0  0  0  0  0  0
   59.1760   32.6980   46.7530 C   0  0  0  0  0  0  0  0  0  0  0  0
   60.4150   32.4420   47.5170 C   0  0  0  0  0  0  0  0  0  0  0  0
   60.8130   31.2550   47.6670 O   0  0  0  0  0  0  0  0  0  0  0  0
   61.1850   33.5380   48.0410 N   0  0  0  0  0  0  0  0  0  0  0  0
   60.8830   34.5090   47.7990 H   0  0  0  0  0  0  0  0  0  0  0  0
   62.3600   33.3800   48.8580 C   0  0  0  0  0  0  0  0  0  0  0  0
   62.2740   33.4830   50.2590 C   0  0  0  0  0  0  0  0  0  0  0  0
   61.2954   33.6454   50.7343 H   0  0  0  0  0  0  0  0  0  0  0  0
   63.4190   33.3810   51.0510 C   0  0  0  0  0  0  0  0  0  0  0  0
   63.3380   33.4554   52.1455 H   0  0  0  0  0  0  0  0  0  0  0  0
   64.6650   33.1850   50.4570 C   0  0  0  0  0  0  0  0  0  0  0  0
   65.5652   33.1027   51.0837 H   0  0  0  0  0  0  0  0  0  0  0  0
   64.7720   33.0930   49.0680 C   0  0  0  0  0  0  0  0  0  0  0  0
   65.7590   32.9483   48.6045 H   0  0  0  0  0  0  0  0  0  0  0  0
   63.6270   33.1840   48.2580 C   0  0  0  0  0  0  0  0  0  0  0  0
   63.7730   33.0900   46.7630 C   0  0  0  0  0  0  0  0  0  0  0  0
   64.6747   32.5094   46.5184 H   0  0  0  0  0  0  0  0  0  0  0  0
   62.8893   32.5908   46.3390 H   0  0  0  0  0  0  0  0  0  0  0  0
   63.8617   34.1011   46.3390 H   0  0  0  0  0  0  0  0  0  0  0  0
   58.1220   27.1870   46.4810 C   0  0  0  0  0  0  0  0  0  0  0  0
   59.1574   27.5257   46.6334 H   0  0  0  0  0  0  0  0  0  0  0  0
   57.6890   25.9630   46.9930 C   0  0  0  0  0  0  0  0  0  0  0  0
   58.4860   25.2250   47.6290 O   0  0  0  0  0  0  0  0  0  0  0  0
   56.4020   25.5690   46.8110 N   0  0  0  0  0  0  0  0  0  0  0  0
  1  2  1  0
  2  3  2  0
  3  4  1  0
  4  5  1  0
  5  6  1  0
  6  7  1  0
  6  8  1  0
  6  9  1  0
  9 10  1  0
 10 11  2  0
 11 12  1  0
 12 13  1  0
 12 14  2  0
 14 15  1  0
 14 16  1  0
 16 17  1  0
 16 18  2  0
 18 19  1  0
 19 20  2  0
 19 21  1  0
 21 22  1  0
 21 23  1  0
 23 24  2  0
 24 25  1  0
 24 26  1  0
 26 27  1  0
 26 28  2  0
 28 29  1  0
 28 30  1  0
 30 31  1  0
 30 32  2  0
 32 33  1  0
 33 34  1  0
 33 35  1  0
 33 36  1  0
  5 37  2  0
 37 38  1  0
 37 39  1  0
 39 40  2  0
 39 41  1  0
 41  3  1  0
 18 10  1  0
 32 23  1  0
M  CHG  2   4  -1  41  -1
M  END
>  <UniqueID>  (89) 
82

>  <SMILES>  (89) 
[H]/N=c1\[n-]c(CSc2ncccc2C(=O)Nc2ccccc2C)cc(=O)[n-]1

>  <Energy>  (89) 
45.74521305292133

>  <Genealogy>  (89) 
Cc1ccccc1NC(=O)c1cccnc1SCc1cc(=O)[n-]c(=N)[n-]1 (protonated)
[H]/N=c1\[n-]c(CSc2ncccc2C(=O)Nc2ccccc2C)cc(=O)[n-]1 (cis-trans isomerization)
[H]/N=c1\[n-]c(CSc2ncccc2C(=O)Nc2ccccc2C)cc(=O)[n-]1 (3D coordinates assigned)
[H]/N=c1\[n-]c(CSc2ncccc2C(=O)Nc2ccccc2C)cc(=O)[n-]1 (optimized conformer: 45.74521305292133 kcal/mol)

>  <smiles>  (89) 
Cc1ccccc1NC(=O)c1cccnc1SCc1cc(=O)[nH]c(=N)[nH]1

>  <score_type>  (89) 
oracle

>  <origin>  (89) 
adg

>  <m_score__min__energy>  (89) 
-12.859999999999999

>  <m_primary>  (89) 
energy

$$$$
89:0
     RDKit          3D

 39 41  0  0  0  0  0  0  0  0999 V2000
   58.0812   28.0620   43.0396 H   0  0  0  0  0  0  0  0  0  0  0  0
   57.9030   27.2600   43.7710 C   0  0  0  0  0  0  0  0  0  0  0  0
   57.4660   26.3048   43.4443 H   0  0  0  0  0  0  0  0  0  0  0  0
   58.2190   27.4470   45.0630 C   0  0  0  0  0  0  0  0  0  0  0  0
   58.0540   26.5270   46.1120 C   0  0  0  0  0  0  0  0  0  0  0  0
   57.7490   25.2140   46.0990 C   0  0  0  0  0  0  0  0  0  0  0  0
   58.5828   24.5042   46.2038 H   0  0  0  0  0  0  0  0  0  0  0  0
   56.3990   24.6470   45.9570 C   0  0  0  0  0  0  0  0  0  0  0  0
   56.1620   23.3480   45.7070 N   0  0  0  0  0  0  0  0  0  0  0  0
   54.8230   23.3030   45.5310 C   0  0  0  0  0  0  0  0  0  0  0  0
   54.2080   22.2320   45.2890 O   0  0  0  0  0  0  0  0  0  0  0  0
   54.1990   24.4960   45.6240 N   0  0  0  0  0  0  0  0  0  0  0  0
   55.2120   25.3390   45.8790 C   0  0  0  0  0  0  0  0  0  0  0  0
   55.0580   26.7140   46.0080 O   0  0  0  0  0  0  0  0  0  0  0  0
   58.2770   27.2300   47.2830 C   0  0  0  0  0  0  0  0  0  0  0  0
   58.1932   26.8391   48.3078 H   0  0  0  0  0  0  0  0  0  0  0  0
   58.6240   28.5130   46.9200 C   0  0  0  0  0  0  0  0  0  0  0  0
   58.9610   29.6090   47.8860 C   0  0  0  0  0  0  0  0  0  0  0  0
   58.8470   29.2383   48.9154 H   0  0  0  0  0  0  0  0  0  0  0  0
   60.0001   29.9324   47.7257 H   0  0  0  0  0  0  0  0  0  0  0  0
   58.2831   30.4603   47.7257 H   0  0  0  0  0  0  0  0  0  0  0  0
   58.6140   28.6450   45.5730 N   0  0  0  0  0  0  0  0  0  0  0  0
   58.8800   29.8940   44.8410 C   0  0  0  0  0  0  0  0  0  0  0  0
   59.6082   30.4939   45.4065 H   0  0  0  0  0  0  0  0  0  0  0  0
   59.2780   29.6393   43.8477 H   0  0  0  0  0  0  0  0  0  0  0  0
   57.6170   30.6950   44.6600 C   0  0  0  0  0  0  0  0  0  0  0  0
   56.5020   30.1480   44.8690 O   0  0  0  0  0  0  0  0  0  0  0  0
   57.6360   32.0440   44.1750 N   0  0  0  0  0  0  0  0  0  0  0  0
   57.1480   33.2120   44.9000 C   0  0  0  0  0  0  0  0  0  0  0  0
   57.0117   34.0452   44.1949 H   0  0  0  0  0  0  0  0  0  0  0  0
   56.1898   32.9601   45.3780 H   0  0  0  0  0  0  0  0  0  0  0  0
   58.1270   33.6170   45.9590 C   0  0  0  0  0  0  0  0  0  0  0  0
   59.3510   34.7550   45.7680 S   0  0  0  0  0  0  0  0  0  0  0  0
   59.9800   34.6060   47.3210 C   0  0  0  0  0  0  0  0  0  0  0  0
   60.8325   35.1700   47.7272 H   0  0  0  0  0  0  0  0  0  0  0  0
   59.2390   33.6490   48.0030 C   0  0  0  0  0  0  0  0  0  0  0  0
   59.4449   33.3576   49.0435 H   0  0  0  0  0  0  0  0  0  0  0  0
   58.2050   33.0900   47.2410 C   0  0  0  0  0  0  0  0  0  0  0  0
   57.5246   32.3131   47.6196 H   0  0  0  0  0  0  0  0  0  0  0  0
  1  2  1  0
  2  3  1  0
  2  4  2  0
  4  5  1  0
  5  6  2  0
  6  7  1  0
  6  8  1  0
  8  9  1  0
  9 10  1  0
 10 11  2  0
 10 12  1  0
 12 13  1  0
 13 14  1  0
  5 15  1  0
 15 16  1  0
 15 17  2  0
 17 18  1  0
 18 19  1  0
 18 20  1  0
 18 21  1  0
 17 22  1  0
 22 23  1  0
 23 24  1  0
 23 25  1  0
 23 26  1  0
 26 27  2  0
 26 28  1  0
 28 29  1  0
 29 30  1  0
 29 31  1  0
 29 32  1  0
 32 33  1  0
 33 34  1  0
 34 35  1  0
 34 36  2  0
 36 37  1  0
 36 38  1  0
 38 39  1  0
 22  4  1  0
 38 32  2  0
 13  8  2  0
M  CHG  4   9  -1  12  -1  14  -1  28  -1
M  END
>  <UniqueID>  (90) 
83

>  <SMILES>  (90) 
C=c1/c(=C\c2[n-]c(=O)[n-]c2[O-])cc(C)n1CC(=O)[N-]Cc1cccs1

>  <Energy>  (90) 
131.90329336716766

>  <Genealogy>  (90) 
C=c1c(=Cc2[n-]c(=O)[n-]c2[O-])cc(C)n1CC(=O)[N-]Cc1cccs1 (protonated)
C=c1/c(=C\c2[n-]c(=O)[n-]c2[O-])cc(C)n1CC(=O)[N-]Cc1cccs1 (cis-trans isomerization)
C=c1/c(=C\c2[n-]c(=O)[n-]c2[O-])cc(C)n1CC(=O)[N-]Cc1cccs1 (3D coordinates assigned)
C=c1/c(=C\c2[n-]c(=O)[n-]c2[O-])cc(C)n1CC(=O)[N-]Cc1cccs1 (optimized conformer: 131.90329336716766 kcal/mol)

>  <smiles>  (90) 
C=c1c(=Cc2[nH]c(=O)[nH]c2O)cc(C)n1CC(=O)NCc1cccs1

>  <score_type>  (90) 
oracle

>  <origin>  (90) 
adg

>  <m_score__min__energy>  (90) 
-16.510000000000002

>  <m_primary>  (90) 
energy

$$$$
90:0
     RDKit          3D

 64 67  0  0  0  0  0  0  0  0999 V2000
   57.1290   28.0400   53.8580 C   0  0  0  0  0  0  0  0  0  0  0  0
   57.1680   29.3150   53.0560 C   0  0  0  0  0  0  0  0  0  0  0  0
   55.9820   30.0480   52.8790 C   0  0  0  0  0  0  0  0  0  0  0  0
   55.9830   31.2370   52.1480 C   0  0  0  0  0  0  0  0  0  0  0  0
   57.1690   31.7110   51.5860 C   0  0  0  0  0  0  0  0  0  0  0  0
   58.3610   31.0020   51.7620 C   0  0  0  0  0  0  0  0  0  0  0  0
   58.3790   29.8100   52.5080 C   0  0  0  0  0  0  0  0  0  0  0  0
   59.6810   29.0540   52.6430 C   0  0  0  0  0  0  0  0  0  0  0  0
   60.2510   28.7700   51.3230 N   0  0  0  0  0  0  0  0  0  0  0  0
   60.9710   29.7500   50.5450 C   0  0  0  0  0  0  0  0  0  0  0  0
   61.8200   30.6870   51.1650 C   0  0  0  0  0  0  0  0  0  0  0  0
   62.5130   31.6320   50.4050 C   0  0  0  0  0  0  0  0  0  0  0  0
   62.3830   31.6530   49.0160 C   0  0  0  0  0  0  0  0  0  0  0  0
   63.2560   32.8440   48.0530 S   0  0  0  0  0  0  0  0  0  0  0  0
   63.7530   32.1910   46.7940 O   0  0  0  0  0  0  0  0  0  0  0  0
   64.4450   33.3500   48.8220 O   0  0  0  0  0  0  0  0  0  0  0  0
   62.1970   34.1580   47.6260 N   0  0  0  0  0  0  0  0  0  0  0  0
   60.9080   34.0440   48.3110 C   0  0  0  0  0  0  0  0  0  0  0  0
   59.7950   33.8530   47.3140 C   0  0  0  0  0  0  0  0  0  0  0  0
   58.8100   32.8710   47.5220 C   0  0  0  0  0  0  0  0  0  0  0  0
   57.7750   32.7060   46.5940 C   0  0  0  0  0  0  0  0  0  0  0  0
   57.7200   33.5140   45.4550 C   0  0  0  0  0  0  0  0  0  0  0  0
   58.7050   34.4840   45.2350 C   0  0  0  0  0  0  0  0  0  0  0  0
   59.7390   34.6510   46.1600 C   0  0  0  0  0  0  0  0  0  0  0  0
   61.5370   30.7330   48.3880 C   0  0  0  0  0  0  0  0  0  0  0  0
   60.8090   29.7960   49.1420 C   0  0  0  0  0  0  0  0  0  0  0  0
   59.9710   28.8280   48.4890 N   0  0  0  0  0  0  0  0  0  0  0  0
   60.2910   27.4510   48.2440 C   0  0  0  0  0  0  0  0  0  0  0  0
   60.8300   26.7790   49.1620 O   0  0  0  0  0  0  0  0  0  0  0  0
   59.9550   26.7800   46.9390 C   0  0  0  0  0  0  0  0  0  0  0  0
   58.7360   27.4050   46.3170 C   0  0  0  0  0  0  0  0  0  0  0  0
   58.8320   28.6510   45.6760 C   0  0  0  0  0  0  0  0  0  0  0  0
   57.6980   29.2410   45.1090 C   0  0  0  0  0  0  0  0  0  0  0  0
   56.4560   28.5950   45.1830 C   0  0  0  0  0  0  0  0  0  0  0  0
   55.3210   29.1780   44.6220 O   0  0  0  0  0  0  0  0  0  0  0  0
   56.3560   27.3550   45.8250 C   0  0  0  0  0  0  0  0  0  0  0  0
   55.1280   26.7080   45.8990 O   0  0  0  0  0  0  0  0  0  0  0  0
   57.4880   26.7640   46.3950 C   0  0  0  0  0  0  0  0  0  0  0  0
   57.1364   28.2815   54.9311 H   0  0  0  0  0  0  0  0  0  0  0  0
   56.2133   27.4813   53.6142 H   0  0  0  0  0  0  0  0  0  0  0  0
   58.0088   27.4264   53.6142 H   0  0  0  0  0  0  0  0  0  0  0  0
   55.0438   29.6811   53.3209 H   0  0  0  0  0  0  0  0  0  0  0  0
   55.0480   31.8009   52.0148 H   0  0  0  0  0  0  0  0  0  0  0  0
   57.1660   32.6441   51.0035 H   0  0  0  0  0  0  0  0  0  0  0  0
   59.2919   31.3794   51.3136 H   0  0  0  0  0  0  0  0  0  0  0  0
   60.3932   29.6607   53.2215 H   0  0  0  0  0  0  0  0  0  0  0  0
   59.4867   28.1017   53.1581 H   0  0  0  0  0  0  0  0  0  0  0  0
   60.1500   27.8010   50.9440 H   0  0  0  0  0  0  0  0  0  0  0  0
   61.9385   30.6745   52.2585 H   0  0  0  0  0  0  0  0  0  0  0  0
   63.1650   32.3638   50.9044 H   0  0  0  0  0  0  0  0  0  0  0  0
   60.9354   33.1809   48.9925 H   0  0  0  0  0  0  0  0  0  0  0  0
   60.7233   34.9689   48.8771 H   0  0  0  0  0  0  0  0  0  0  0  0
   58.8529   32.2312   48.4158 H   0  0  0  0  0  0  0  0  0  0  0  0
   57.0041   31.9395   46.7615 H   0  0  0  0  0  0  0  0  0  0  0  0
   56.9019   33.3876   44.7307 H   0  0  0  0  0  0  0  0  0  0  0  0
   58.6651   35.1144   44.3345 H   0  0  0  0  0  0  0  0  0  0  0  0
   60.5134   35.4119   45.9831 H   0  0  0  0  0  0  0  0  0  0  0  0
   61.4403   30.7427   47.2923 H   0  0  0  0  0  0  0  0  0  0  0  0
   60.8059   26.8848   46.2497 H   0  0  0  0  0  0  0  0  0  0  0  0
   59.7478   25.7170   47.1314 H   0  0  0  0  0  0  0  0  0  0  0  0
   59.8030   29.1648   45.6198 H   0  0  0  0  0  0  0  0  0  0  0  0
   57.7807   30.2145   44.6036 H   0  0  0  0  0  0  0  0  0  0  0  0
   54.4640   28.6510   44.4950 H   0  0  0  0  0  0  0  0  0  0  0  0
   57.4011   25.7939   46.9062 H   0  0  0  0  0  0  0  0  0  0  0  0
  1  2  1  0
  2  3  2  0
  3  4  1  0
  4  5  2  0
  5  6  1  0
  6  7  2  0
  7  8  1  0
  8  9  1  0
  9 10  1  0
 10 11  2  0
 11 12  1  0
 12 13  2  0
 13 14  1  0
 14 15  2  0
 14 16  2  0
 14 17  1  0
 17 18  1  0
 18 19  1  0
 19 20  2  0
 20 21  1  0
 21 22  2  0
 22 23  1  0
 23 24  2  0
 13 25  1  0
 25 26  2  0
 26 27  1  0
 27 28  1  0
 28 29  2  0
 28 30  1  0
 30 31  1  0
 31 32  2  0
 32 33  1  0
 33 34  2  0
 34 35  1  0
 34 36  1  0
 36 37  1  0
 36 38  2  0
  7  2  1  0
 26 10  1  0
 38 31  1  0
 24 19  1  0
  1 39  1  0
  1 40  1  0
  1 41  1  0
  3 42  1  0
  4 43  1  0
  5 44  1  0
  6 45  1  0
  8 46  1  0
  8 47  1  0
  9 48  1  0
 11 49  1  0
 12 50  1  0
 18 51  1  0
 18 52  1  0
 20 53  1  0
 21 54  1  0
 22 55  1  0
 23 56  1  0
 24 57  1  0
 25 58  1  0
 30 59  1  0
 30 60  1  0
 32 61  1  0
 33 62  1  0
 35 63  1  0
 38 64  1  0
M  CHG  3  17  -1  27  -1  37  -1
M  END
>  <UniqueID>  (91) 
84

>  <SMILES>  (91) 
Cc1ccccc1CNc1ccc(S(=O)(=O)[N-]Cc2ccccc2)cc1[N-]C(=O)Cc1ccc(O)c([O-])c1

>  <Energy>  (91) 
72.20916507312873

>  <Genealogy>  (91) 
Cc1ccccc1CNc1ccc(S(=O)(=O)[N-]Cc2ccccc2)cc1[N-]C(=O)Cc1ccc(O)c([O-])c1 (protonated)
Cc1ccccc1CNc1ccc(S(=O)(=O)[N-]Cc2ccccc2)cc1[N-]C(=O)Cc1ccc(O)c([O-])c1 (3D coordinates assigned)
Cc1ccccc1CNc1ccc(S(=O)(=O)[N-]Cc2ccccc2)cc1[N-]C(=O)Cc1ccc(O)c([O-])c1 (optimized conformer: 72.20916507312873 kcal/mol)

>  <smiles>  (91) 
Cc1ccccc1CNc1ccc(S(=O)(=O)NCc2ccccc2)cc1NC(=O)Cc1ccc(O)c(O)c1

>  <score_type>  (91) 
oracle

>  <origin>  (91) 
adg

>  <m_score__min__energy>  (91) 
-15.83

>  <m_primary>  (91) 
energy

$$$$
