0:0
     RDKit          3D

 45 47  0  0  0  0  0  0  0  0999 V2000
   55.4930   24.1030   46.4120 C   0  0  0  0  0  0  0  0  0  0  0  0
   54.7820   25.1510   45.5680 C   0  0  0  0  0  0  0  0  0  0  0  0
   55.1720   26.4930   46.0070 N   0  0  0  0  0  0  0  0  0  0  0  0
   56.8820   26.7450   45.8350 S   0  0  0  0  0  0  0  0  0  0  0  0
   57.5530   26.5220   47.1610 O   0  0  0  0  0  0  0  0  0  0  0  0
   57.4380   25.7620   44.8420 O   0  0  0  0  0  0  0  0  0  0  0  0
   57.2130   28.3820   45.2990 C   0  0  0  0  0  0  0  0  0  0  0  0
   57.0120   28.8740   44.0180 C   0  0  0  0  0  0  0  0  0  0  0  0
   57.3560   30.2250   43.8900 C   0  0  0  0  0  0  0  0  0  0  0  0
   57.8210   30.7930   45.0740 C   0  0  0  0  0  0  0  0  0  0  0  0
   58.2170   32.2050   45.2440 C   0  0  0  0  0  0  0  0  0  0  0  0
   57.4570   33.2510   44.6980 C   0  0  0  0  0  0  0  0  0  0  0  0
   57.8880   34.5690   44.8610 C   0  0  0  0  0  0  0  0  0  0  0  0
   59.0650   34.8370   45.5600 C   0  0  0  0  0  0  0  0  0  0  0  0
   59.8000   33.7730   46.0990 C   0  0  0  0  0  0  0  0  0  0  0  0
   61.0950   34.0080   46.8190 C   0  0  0  0  0  0  0  0  0  0  0  0
   61.6280   32.7330   47.2910 N   0  0  0  0  0  0  0  0  0  0  0  0
   62.4160   32.6320   48.4850 C   0  0  0  0  0  0  0  0  0  0  0  0
   62.9990   33.6490   48.9510 O   0  0  0  0  0  0  0  0  0  0  0  0
   62.4870   31.3370   49.2310 C   0  0  0  0  0  0  0  0  0  0  0  0
   61.1290   30.7120   49.2860 C   0  0  0  0  0  0  0  0  0  0  0  0
   59.9670   31.3240   49.7420 C   0  0  0  0  0  0  0  0  0  0  0  0
   58.8570   30.4710   49.7330 C   0  0  0  0  0  0  0  0  0  0  0  0
   59.1420   29.1900   49.2770 C   0  0  0  0  0  0  0  0  0  0  0  0
   60.7770   29.1150   48.8940 S   0  0  0  0  0  0  0  0  0  0  0  0
   59.3580   32.4980   45.9270 N   0  0  0  0  0  0  0  0  0  0  0  0
   57.8090   29.6100   46.2760 S   0  0  0  0  0  0  0  0  0  0  0  0
   55.3414   24.3265   47.4783 H   0  0  0  0  0  0  0  0  0  0  0  0
   55.0825   23.1083   46.1838 H   0  0  0  0  0  0  0  0  0  0  0  0
   56.5690   24.1168   46.1838 H   0  0  0  0  0  0  0  0  0  0  0  0
   55.0589   25.0179   44.5118 H   0  0  0  0  0  0  0  0  0  0  0  0
   53.6946   25.0334   45.6849 H   0  0  0  0  0  0  0  0  0  0  0  0
   56.6226   28.2657   43.1884 H   0  0  0  0  0  0  0  0  0  0  0  0
   57.2677   30.7836   42.9465 H   0  0  0  0  0  0  0  0  0  0  0  0
   56.5301   33.0344   44.1466 H   0  0  0  0  0  0  0  0  0  0  0  0
   57.2992   35.3963   44.4381 H   0  0  0  0  0  0  0  0  0  0  0  0
   59.4125   35.8730   45.6867 H   0  0  0  0  0  0  0  0  0  0  0  0
   61.8165   34.4755   46.1327 H   0  0  0  0  0  0  0  0  0  0  0  0
   60.9216   34.6733   47.6777 H   0  0  0  0  0  0  0  0  0  0  0  0
   61.2270   31.8600   46.8790 H   0  0  0  0  0  0  0  0  0  0  0  0
   63.1821   30.6567   48.7173 H   0  0  0  0  0  0  0  0  0  0  0  0
   62.8433   31.5252   50.2546 H   0  0  0  0  0  0  0  0  0  0  0  0
   59.9242   32.3713   50.0757 H   0  0  0  0  0  0  0  0  0  0  0  0
   57.8537   30.7854   50.0565 H   0  0  0  0  0  0  0  0  0  0  0  0
   58.4204   28.3651   49.1826 H   0  0  0  0  0  0  0  0  0  0  0  0
  1  2  1  0
  2  3  1  0
  3  4  1  0
  4  5  2  0
  4  6  2  0
  4  7  1  0
  7  8  2  0
  8  9  1  0
  9 10  2  0
 10 11  1  0
 11 12  2  0
 12 13  1  0
 13 14  2  0
 14 15  1  0
 15 16  1  0
 16 17  1  0
 17 18  1  0
 18 19  2  0
 18 20  1  0
 20 21  1  0
 21 22  2  0
 22 23  1  0
 23 24  2  0
 24 25  1  0
 15 26  2  0
 10 27  1  0
 27  7  1  0
 26 11  1  0
 25 21  1  0
  1 28  1  0
  1 29  1  0
  1 30  1  0
  2 31  1  0
  2 32  1  0
  8 33  1  0
  9 34  1  0
 12 35  1  0
 13 36  1  0
 14 37  1  0
 16 38  1  0
 16 39  1  0
 17 40  1  0
 20 41  1  0
 20 42  1  0
 22 43  1  0
 23 44  1  0
 24 45  1  0
M  CHG  1   3  -1
M  END
>  <UniqueID>  (1) 
1

>  <SMILES>  (1) 
CC[N-]S(=O)(=O)c1ccc(-c2cccc(CNC(=O)Cc3cccs3)n2)s1

>  <Energy>  (1) 
86.15646870899167

>  <Genealogy>  (1) 
CC[N-]S(=O)(=O)c1ccc(-c2cccc(CNC(=O)Cc3cccs3)n2)s1 (protonated)
CC[N-]S(=O)(=O)c1ccc(-c2cccc(CNC(=O)Cc3cccs3)n2)s1 (3D coordinates assigned)
CC[N-]S(=O)(=O)c1ccc(-c2cccc(CNC(=O)Cc3cccs3)n2)s1 (optimized conformer: 86.15646870899167 kcal/mol)

>  <smiles>  (1) 
CCNS(=O)(=O)c1ccc(-c2cccc(CNC(=O)Cc3cccs3)n2)s1

>  <score_type>  (1) 
oracle

>  <origin>  (1) 
adg

>  <m_score__min__energy>  (1) 
-10.460000000000001

>  <m_primary>  (1) 
energy

$$$$
1:0
     RDKit          3D

 32 34  0  0  0  0  0  0  0  0999 V2000
   61.3530   28.7200   44.8910 C   0  0  0  0  0  0  0  0  0  0  0  0
   60.1110   28.0490   45.2630 N   0  0  0  0  0  0  0  0  0  0  0  0
   60.0030   26.8710   45.9210 C   0  0  0  0  0  0  0  0  0  0  0  0
   58.6630   26.5660   46.1400 C   0  0  0  0  0  0  0  0  0  0  0  0
   58.1340   25.3910   46.9100 C   0  0  0  0  0  0  0  0  0  0  0  0
   57.5290   24.3800   45.9710 C   0  0  0  0  0  0  0  0  0  0  0  0
   58.3560   23.4470   45.3200 C   0  0  0  0  0  0  0  0  0  0  0  0
   57.8130   22.5280   44.4190 C   0  0  0  0  0  0  0  0  0  0  0  0
   56.4410   22.5330   44.1530 C   0  0  0  0  0  0  0  0  0  0  0  0
   55.9030   21.6180   43.2550 O   0  0  0  0  0  0  0  0  0  0  0  0
   55.6100   23.4600   44.7880 C   0  0  0  0  0  0  0  0  0  0  0  0
   56.1460   24.3840   45.6920 C   0  0  0  0  0  0  0  0  0  0  0  0
   55.3010   25.3010   46.3060 O   0  0  0  0  0  0  0  0  0  0  0  0
   57.9430   27.6200   45.6060 C   0  0  0  0  0  0  0  0  0  0  0  0
   56.5700   27.8640   45.5560 C   0  0  0  0  0  0  0  0  0  0  0  0
   56.1350   29.0570   44.9470 C   0  0  0  0  0  0  0  0  0  0  0  0
   54.7770   29.3400   44.8760 O   0  0  0  0  0  0  0  0  0  0  0  0
   57.0720   29.9680   44.4100 C   0  0  0  0  0  0  0  0  0  0  0  0
   58.4500   29.6940   44.4740 C   0  0  0  0  0  0  0  0  0  0  0  0
   58.8550   28.5030   45.0800 C   0  0  0  0  0  0  0  0  0  0  0  0
   61.8975   29.0141   45.8004 H   0  0  0  0  0  0  0  0  0  0  0  0
   61.9756   28.0355   44.2961 H   0  0  0  0  0  0  0  0  0  0  0  0
   61.1218   29.6159   44.2961 H   0  0  0  0  0  0  0  0  0  0  0  0
   60.8511   26.2457   46.2367 H   0  0  0  0  0  0  0  0  0  0  0  0
   58.9582   24.9213   47.4669 H   0  0  0  0  0  0  0  0  0  0  0  0
   57.3586   25.7402   47.6077 H   0  0  0  0  0  0  0  0  0  0  0  0
   59.4373   23.4410   45.5217 H   0  0  0  0  0  0  0  0  0  0  0  0
   58.4666   21.7989   43.9178 H   0  0  0  0  0  0  0  0  0  0  0  0
   54.5305   23.4633   44.5764 H   0  0  0  0  0  0  0  0  0  0  0  0
   55.8504   27.1474   45.9788 H   0  0  0  0  0  0  0  0  0  0  0  0
   56.7213   30.8980   43.9386 H   0  0  0  0  0  0  0  0  0  0  0  0
   59.1870   30.3972   44.0589 H   0  0  0  0  0  0  0  0  0  0  0  0
  1  2  1  0
  2  3  1  0
  3  4  2  0
  4  5  1  0
  5  6  1  0
  6  7  2  0
  7  8  1  0
  8  9  2  0
  9 10  1  0
  9 11  1  0
 11 12  2  0
 12 13  1  0
  4 14  1  0
 14 15  2  0
 15 16  1  0
 16 17  1  0
 16 18  2  0
 18 19  1  0
 19 20  2  0
 20  2  1  0
 12  6  1  0
 20 14  1  0
  1 21  1  0
  1 22  1  0
  1 23  1  0
  3 24  1  0
  5 25  1  0
  5 26  1  0
  7 27  1  0
  8 28  1  0
 11 29  1  0
 15 30  1  0
 18 31  1  0
 19 32  1  0
M  CHG  3  10  -1  13  -1  17  -1
M  END
>  <UniqueID>  (2) 
2

>  <SMILES>  (2) 
Cn1cc(Cc2ccc([O-])cc2[O-])c2cc([O-])ccc21

>  <Energy>  (2) 
66.51787712554585

>  <Genealogy>  (2) 
Cn1cc(Cc2ccc([O-])cc2[O-])c2cc([O-])ccc21 (protonated)
Cn1cc(Cc2ccc([O-])cc2[O-])c2cc([O-])ccc21 (3D coordinates assigned)
Cn1cc(Cc2ccc([O-])cc2[O-])c2cc([O-])ccc21 (optimized conformer: 66.51787712554585 kcal/mol)

>  <smiles>  (2) 
Cn1cc(Cc2ccc(O)cc2O)c2cc(O)ccc21

>  <score_type>  (2) 
oracle

>  <origin>  (2) 
adg

>  <m_score__min__energy>  (2) 
-14.029999999999999

>  <m_primary>  (2) 
energy

$$$$
2:0
     RDKit          3D

 52 54  0  0  0  0  0  0  0  0999 V2000
   58.0940   32.4900   42.8300 C   0  0  0  0  0  0  0  0  0  0  0  0
   57.7850   33.4850   43.8010 O   0  0  0  0  0  0  0  0  0  0  0  0
   58.4060   33.5910   45.0530 C   0  0  0  0  0  0  0  0  0  0  0  0
   59.5170   34.4350   45.1730 C   0  0  0  0  0  0  0  0  0  0  0  0
   60.1640   34.5930   46.4030 C   0  0  0  0  0  0  0  0  0  0  0  0
   59.7040   33.9000   47.5340 C   0  0  0  0  0  0  0  0  0  0  0  0
   60.3150   34.0190   48.7940 C   0  0  0  0  0  0  0  0  0  0  0  0
   61.3150   34.7670   48.9610 O   0  0  0  0  0  0  0  0  0  0  0  0
   59.8290   33.3130   49.8470 N   0  0  0  0  0  0  0  0  0  0  0  0
   58.7520   32.4940   49.7140 C   0  0  0  0  0  0  0  0  0  0  0  0
   58.2770   31.6810   50.8800 C   0  0  0  0  0  0  0  0  0  0  0  0
   58.5220   30.1910   50.6350 C   0  0  0  0  0  0  0  0  0  0  0  0
   59.7890   29.7760   51.2780 N   0  0  0  0  0  0  0  0  0  0  0  0
   59.5690   28.6700   52.2190 C   0  0  0  0  0  0  0  0  0  0  0  0
   60.9650   29.3010   50.0780 S   0  0  0  0  0  0  0  0  0  0  0  0
   62.1240   30.2600   50.0760 O   0  0  0  0  0  0  0  0  0  0  0  0
   61.4850   27.9210   50.3770 O   0  0  0  0  0  0  0  0  0  0  0  0
   60.2040   29.3350   48.4900 C   0  0  0  0  0  0  0  0  0  0  0  0
   59.1610   28.4550   48.1770 C   0  0  0  0  0  0  0  0  0  0  0  0
   58.5470   28.5070   46.9210 C   0  0  0  0  0  0  0  0  0  0  0  0
   58.9730   29.4410   45.9590 C   0  0  0  0  0  0  0  0  0  0  0  0
   58.3600   29.5330   44.6610 N   0  0  0  0  0  0  0  0  0  0  0  0
   56.6520   29.6930   44.3960 S   0  0  0  0  0  0  0  0  0  0  0  0
   56.2830   29.5170   42.6640 C   0  0  0  0  0  0  0  0  0  0  0  0
   56.2180   31.0600   44.8440 O   0  0  0  0  0  0  0  0  0  0  0  0
   55.9050   28.6630   45.1960 O   0  0  0  0  0  0  0  0  0  0  0  0
   60.0100   30.3290   46.2860 C   0  0  0  0  0  0  0  0  0  0  0  0
   60.6200   30.2780   47.5420 C   0  0  0  0  0  0  0  0  0  0  0  0
   58.1510   32.3540   48.5020 N   0  0  0  0  0  0  0  0  0  0  0  0
   58.5940   33.0380   47.4160 C   0  0  0  0  0  0  0  0  0  0  0  0
   57.9520   32.8850   46.1830 C   0  0  0  0  0  0  0  0  0  0  0  0
   58.3833   31.5586   43.3387 H   0  0  0  0  0  0  0  0  0  0  0  0
   57.2110   32.3051   42.2007 H   0  0  0  0  0  0  0  0  0  0  0  0
   58.9264   32.8378   42.2007 H   0  0  0  0  0  0  0  0  0  0  0  0
   59.8847   34.9794   44.2907 H   0  0  0  0  0  0  0  0  0  0  0  0
   61.0342   35.2610   46.4842 H   0  0  0  0  0  0  0  0  0  0  0  0
   58.8215   31.9928   51.7835 H   0  0  0  0  0  0  0  0  0  0  0  0
   57.1971   31.8455   51.0097 H   0  0  0  0  0  0  0  0  0  0  0  0
   57.6901   29.6100   51.0597 H   0  0  0  0  0  0  0  0  0  0  0  0
   58.5887   30.0083   49.5523 H   0  0  0  0  0  0  0  0  0  0  0  0
   59.6437   29.0456   53.2502 H   0  0  0  0  0  0  0  0  0  0  0  0
   58.5684   28.2433   52.0558 H   0  0  0  0  0  0  0  0  0  0  0  0
   60.3301   27.8928   52.0558 H   0  0  0  0  0  0  0  0  0  0  0  0
   58.8229   27.7196   48.9218 H   0  0  0  0  0  0  0  0  0  0  0  0
   57.7265   27.8137   46.6843 H   0  0  0  0  0  0  0  0  0  0  0  0
   58.9530   29.3900   43.8120 H   0  0  0  0  0  0  0  0  0  0  0  0
   55.2959   29.0462   42.5454 H   0  0  0  0  0  0  0  0  0  0  0  0
   56.2758   30.5087   42.1880 H   0  0  0  0  0  0  0  0  0  0  0  0
   57.0491   28.8873   42.1880 H   0  0  0  0  0  0  0  0  0  0  0  0
   60.3453   31.0715   45.5469 H   0  0  0  0  0  0  0  0  0  0  0  0
   61.4298   30.9810   47.7870 H   0  0  0  0  0  0  0  0  0  0  0  0
   57.0881   32.2097   46.0958 H   0  0  0  0  0  0  0  0  0  0  0  0
  1  2  1  0
  2  3  1  0
  3  4  2  0
  4  5  1  0
  5  6  2  0
  6  7  1  0
  7  8  2  0
  7  9  1  0
  9 10  2  0
 10 11  1  0
 11 12  1  0
 12 13  1  0
 13 14  1  0
 13 15  1  0
 15 16  2  0
 15 17  2  0
 15 18  1  0
 18 19  2  0
 19 20  1  0
 20 21  2  0
 21 22  1  0
 22 23  1  0
 23 24  1  0
 23 25  2  0
 23 26  2  0
 21 27  1  0
 27 28  2  0
 10 29  1  0
 29 30  1  0
 30 31  2  0
 31  3  1  0
 30  6  1  0
 28 18  1  0
  1 32  1  0
  1 33  1  0
  1 34  1  0
  4 35  1  0
  5 36  1  0
 11 37  1  0
 11 38  1  0
 12 39  1  0
 12 40  1  0
 14 41  1  0
 14 42  1  0
 14 43  1  0
 19 44  1  0
 20 45  1  0
 22 46  1  0
 24 47  1  0
 24 48  1  0
 24 49  1  0
 27 50  1  0
 28 51  1  0
 31 52  1  0
M  CHG  1  29  -1
M  END
>  <UniqueID>  (3) 
3

>  <SMILES>  (3) 
COc1ccc2c(=O)nc(CCN(C)S(=O)(=O)c3ccc(NS(C)(=O)=O)cc3)[n-]c2c1

>  <Energy>  (3) 
45.80052191057691

>  <Genealogy>  (3) 
COc1ccc2c(=O)nc(CCN(C)S(=O)(=O)c3ccc(NS(C)(=O)=O)cc3)[n-]c2c1 (protonated)
COc1ccc2c(=O)nc(CCN(C)S(=O)(=O)c3ccc(NS(C)(=O)=O)cc3)[n-]c2c1 (3D coordinates assigned)
COc1ccc2c(=O)nc(CCN(C)S(=O)(=O)c3ccc(NS(C)(=O)=O)cc3)[n-]c2c1 (optimized conformer: 45.80052191057691 kcal/mol)

>  <smiles>  (3) 
COc1ccc2c(=O)nc(CCN(C)S(=O)(=O)c3ccc(NS(C)(=O)=O)cc3)[nH]c2c1

>  <score_type>  (3) 
oracle

>  <origin>  (3) 
adg

>  <m_score__min__energy>  (3) 
-11.01

>  <m_primary>  (3) 
energy

$$$$
3:0
     RDKit          3D

 45 48  0  0  0  0  0  0  0  0999 V2000
   58.5430   24.7047   46.1426 H   0  0  0  0  0  0  0  0  0  0  0  0
   57.6090   25.2460   46.3540 C   0  0  0  0  0  0  0  0  0  0  0  0
   57.7060   26.4510   46.9370 C   0  0  0  0  0  0  0  0  0  0  0  0
   57.5972   26.4986   48.0306 H   0  0  0  0  0  0  0  0  0  0  0  0
   57.9490   27.7220   46.2150 C   0  0  0  0  0  0  0  0  0  0  0  0
   58.9550   28.6220   46.6100 C   0  0  0  0  0  0  0  0  0  0  0  0
   59.6370   28.3660   47.6440 O   0  0  0  0  0  0  0  0  0  0  0  0
   59.1820   29.7790   45.8980 N   0  0  0  0  0  0  0  0  0  0  0  0
   60.2870   30.6570   46.3500 C   0  0  0  0  0  0  0  0  0  0  0  0
   60.7200   30.2442   47.2731 H   0  0  0  0  0  0  0  0  0  0  0  0
   61.0462   30.7025   45.5553 H   0  0  0  0  0  0  0  0  0  0  0  0
   59.7890   32.0570   46.6210 C   0  0  0  0  0  0  0  0  0  0  0  0
   58.5020   32.2710   47.1430 C   0  0  0  0  0  0  0  0  0  0  0  0
   57.8435   31.4131   47.3442 H   0  0  0  0  0  0  0  0  0  0  0  0
   58.0540   33.5690   47.4080 C   0  0  0  0  0  0  0  0  0  0  0  0
   57.0449   33.7290   47.8155 H   0  0  0  0  0  0  0  0  0  0  0  0
   58.8860   34.6630   47.1560 C   0  0  0  0  0  0  0  0  0  0  0  0
   58.5326   35.6833   47.3661 H   0  0  0  0  0  0  0  0  0  0  0  0
   60.1670   34.4600   46.6370 C   0  0  0  0  0  0  0  0  0  0  0  0
   60.8216   35.3212   46.4374 H   0  0  0  0  0  0  0  0  0  0  0  0
   60.6180   33.1640   46.3710 C   0  0  0  0  0  0  0  0  0  0  0  0
   61.6280   33.0096   45.9635 H   0  0  0  0  0  0  0  0  0  0  0  0
   58.3670   30.0850   44.8200 C   0  0  0  0  0  0  0  0  0  0  0  0
   58.5120   31.2680   44.0480 C   0  0  0  0  0  0  0  0  0  0  0  0
   59.3049   31.9871   44.3012 H   0  0  0  0  0  0  0  0  0  0  0  0
   57.6620   31.5310   42.9720 C   0  0  0  0  0  0  0  0  0  0  0  0
   57.7916   32.4531   42.3864 H   0  0  0  0  0  0  0  0  0  0  0  0
   56.6520   30.6350   42.6350 C   0  0  0  0  0  0  0  0  0  0  0  0
   55.9884   30.8484   41.7841 H   0  0  0  0  0  0  0  0  0  0  0  0
   56.4820   29.4690   43.3750 C   0  0  0  0  0  0  0  0  0  0  0  0
   55.6808   28.7642   43.1079 H   0  0  0  0  0  0  0  0  0  0  0  0
   57.3270   29.1860   44.4610 C   0  0  0  0  0  0  0  0  0  0  0  0
   57.1460   28.0410   45.1700 N   0  0  0  0  0  0  0  0  0  0  0  0
   56.3850   27.3780   44.8970 H   0  0  0  0  0  0  0  0  0  0  0  0
   56.3360   24.5930   45.9750 C   0  0  0  0  0  0  0  0  0  0  0  0
   56.3020   23.1950   45.8670 C   0  0  0  0  0  0  0  0  0  0  0  0
   57.2098   22.6084   46.0715 H   0  0  0  0  0  0  0  0  0  0  0  0
   55.1210   22.5430   45.5010 C   0  0  0  0  0  0  0  0  0  0  0  0
   55.1052   21.4472   45.4066 H   0  0  0  0  0  0  0  0  0  0  0  0
   53.9610   23.2810   45.2550 C   0  0  0  0  0  0  0  0  0  0  0  0
   53.0359   22.7678   44.9536 H   0  0  0  0  0  0  0  0  0  0  0  0
   53.9760   24.6720   45.3920 C   0  0  0  0  0  0  0  0  0  0  0  0
   53.0593   25.2508   45.2059 H   0  0  0  0  0  0  0  0  0  0  0  0
   55.1530   25.3310   45.7650 C   0  0  0  0  0  0  0  0  0  0  0  0
   55.1270   26.7100   45.9470 O   0  0  0  0  0  0  0  0  0  0  0  0
  1  2  1  0
  2  3  2  0
  3  4  1  0
  3  5  1  0
  5  6  1  0
  6  7  2  0
  6  8  1  0
  8  9  1  0
  9 10  1  0
  9 11  1  0
  9 12  1  0
 12 13  2  0
 13 14  1  0
 13 15  1  0
 15 16  1  0
 15 17  2  0
 17 18  1  0
 17 19  1  0
 19 20  1  0
 19 21  2  0
 21 22  1  0
  8 23  1  0
 23 24  2  0
 24 25  1  0
 24 26  1  0
 26 27  1  0
 26 28  2  0
 28 29  1  0
 28 30  1  0
 30 31  1  0
 30 32  2  0
 32 33  1  0
 33 34  1  0
  2 35  1  0
 35 36  2  0
 36 37  1  0
 36 38  1  0
 38 39  1  0
 38 40  2  0
 40 41  1  0
 40 42  1  0
 42 43  1  0
 42 44  2  0
 44 45  1  0
 33  5  2  0
 44 35  1  0
 21 12  1  0
 32 23  1  0
M  CHG  2  33   1  45  -1
M  END
>  <UniqueID>  (4) 
4

>  <SMILES>  (4) 
O=c1c(/C=C\c2ccccc2[O-])[nH+]c2ccccc2n1Cc1ccccc1

>  <Energy>  (4) 
74.30019033092731

>  <Genealogy>  (4) 
O=c1c(C=Cc2ccccc2[O-])[nH+]c2ccccc2n1Cc1ccccc1 (protonated)
O=c1c(/C=C\c2ccccc2[O-])[nH+]c2ccccc2n1Cc1ccccc1 (cis-trans isomerization)
O=c1c(/C=C\c2ccccc2[O-])[nH+]c2ccccc2n1Cc1ccccc1 (3D coordinates assigned)
O=c1c(/C=C\c2ccccc2[O-])[nH+]c2ccccc2n1Cc1ccccc1 (optimized conformer: 74.30019033092731 kcal/mol)

>  <smiles>  (4) 
O=c1c(C=Cc2ccccc2O)nc2ccccc2n1Cc1ccccc1

>  <score_type>  (4) 
oracle

>  <origin>  (4) 
adg

>  <m_score__min__energy>  (4) 
-11.109999999999999

>  <m_primary>  (4) 
energy

$$$$
4:0
     RDKit          3D

 57 60  0  0  0  0  0  0  0  0999 V2000
   60.9360   29.7440   46.0950 O   0  0  0  0  0  0  0  0  0  0  0  0
   60.7840   30.0420   47.3110 C   0  0  0  0  0  0  0  0  0  0  0  0
   61.5690   31.1720   47.8510 C   0  0  0  0  0  0  0  0  0  0  0  0
   62.0100   31.2070   49.1150 C   0  0  0  0  0  0  0  0  0  0  0  0
   63.3080   31.7940   49.4870 C   0  0  0  0  0  0  0  0  0  0  0  0
   64.0470   31.3270   50.5170 N   0  0  0  0  0  0  0  0  0  0  0  0
   65.2080   32.0200   50.6690 C   0  0  0  0  0  0  0  0  0  0  0  0
   65.4070   33.0490   49.7580 C   0  0  0  0  0  0  0  0  0  0  0  0
   64.0790   33.0860   48.7270 S   0  0  0  0  0  0  0  0  0  0  0  0
   59.8370   29.2370   48.1110 C   0  0  0  0  0  0  0  0  0  0  0  0
   59.3610   28.0530   47.7070 C   0  0  0  0  0  0  0  0  0  0  0  0
   58.6150   27.8950   46.4380 C   0  0  0  0  0  0  0  0  0  0  0  0
   58.5860   28.8320   45.4650 N   0  0  0  0  0  0  0  0  0  0  0  0
   57.8400   28.2990   44.4770 C   0  0  0  0  0  0  0  0  0  0  0  0
   57.4570   28.9840   43.2270 C   0  0  0  0  0  0  0  0  0  0  0  0
   57.0330   30.2530   43.1470 C   0  0  0  0  0  0  0  0  0  0  0  0
   56.6320   31.0780   44.3070 C   0  0  0  0  0  0  0  0  0  0  0  0
   55.5210   30.8550   44.8620 O   0  0  0  0  0  0  0  0  0  0  0  0
   57.5300   32.1250   44.8600 C   0  0  0  0  0  0  0  0  0  0  0  0
   57.8970   32.1280   46.2200 C   0  0  0  0  0  0  0  0  0  0  0  0
   58.7700   33.1000   46.7170 C   0  0  0  0  0  0  0  0  0  0  0  0
   59.2900   34.0770   45.8650 C   0  0  0  0  0  0  0  0  0  0  0  0
   58.9400   34.0830   44.5130 C   0  0  0  0  0  0  0  0  0  0  0  0
   58.0690   33.1120   44.0120 C   0  0  0  0  0  0  0  0  0  0  0  0
   57.3960   27.0570   44.8710 C   0  0  0  0  0  0  0  0  0  0  0  0
   57.8710   26.8070   46.1100 N   0  0  0  0  0  0  0  0  0  0  0  0
   57.7520   25.5360   46.8380 C   0  0  0  0  0  0  0  0  0  0  0  0
   57.4220   24.3910   45.9010 C   0  0  0  0  0  0  0  0  0  0  0  0
   58.4830   23.5880   45.4430 C   0  0  0  0  0  0  0  0  0  0  0  0
   58.2600   22.5560   44.5320 C   0  0  0  0  0  0  0  0  0  0  0  0
   56.9750   22.3130   44.0560 C   0  0  0  0  0  0  0  0  0  0  0  0
   55.9060   23.0940   44.4940 C   0  0  0  0  0  0  0  0  0  0  0  0
   56.1030   24.1360   45.4220 C   0  0  0  0  0  0  0  0  0  0  0  0
   54.9120   24.9280   45.8320 C   0  0  0  0  0  0  0  0  0  0  0  0
   53.7890   24.3840   46.0030 O   0  0  0  0  0  0  0  0  0  0  0  0
   55.0150   26.3050   46.0020 O   0  0  0  0  0  0  0  0  0  0  0  0
   61.8003   32.0185   47.1877 H   0  0  0  0  0  0  0  0  0  0  0  0
   61.3772   30.7801   49.9070 H   0  0  0  0  0  0  0  0  0  0  0  0
   65.9372   31.7821   51.4575 H   0  0  0  0  0  0  0  0  0  0  0  0
   66.2777   33.7200   49.7179 H   0  0  0  0  0  0  0  0  0  0  0  0
   59.5079   29.6295   49.0844 H   0  0  0  0  0  0  0  0  0  0  0  0
   59.5296   27.1683   48.3386 H   0  0  0  0  0  0  0  0  0  0  0  0
   58.9980   29.7900   45.4950 H   0  0  0  0  0  0  0  0  0  0  0  0
   57.5246   28.4101   42.2910 H   0  0  0  0  0  0  0  0  0  0  0  0
   56.9796   30.7128   42.1491 H   0  0  0  0  0  0  0  0  0  0  0  0
   57.4936   31.3597   46.8960 H   0  0  0  0  0  0  0  0  0  0  0  0
   59.0480   33.0954   47.7813 H   0  0  0  0  0  0  0  0  0  0  0  0
   59.9754   34.8419   46.2590 H   0  0  0  0  0  0  0  0  0  0  0  0
   59.3501   34.8524   43.8423 H   0  0  0  0  0  0  0  0  0  0  0  0
   57.8017   33.1185   42.9450 H   0  0  0  0  0  0  0  0  0  0  0  0
   56.7617   26.3825   44.2771 H   0  0  0  0  0  0  0  0  0  0  0  0
   58.7056   25.3220   47.3428 H   0  0  0  0  0  0  0  0  0  0  0  0
   56.9360   25.6310   47.5695 H   0  0  0  0  0  0  0  0  0  0  0  0
   59.5030   23.7771   45.8089 H   0  0  0  0  0  0  0  0  0  0  0  0
   59.1000   21.9338   44.1895 H   0  0  0  0  0  0  0  0  0  0  0  0
   56.8021   21.5028   43.3324 H   0  0  0  0  0  0  0  0  0  0  0  0
   54.8949   22.8939   44.1098 H   0  0  0  0  0  0  0  0  0  0  0  0
  1  2  2  0
  2  3  1  0
  3  4  2  3
  4  5  1  0
  5  6  2  0
  6  7  1  0
  7  8  2  0
  8  9  1  0
  2 10  1  0
 10 11  2  3
 11 12  1  0
 12 13  2  0
 13 14  1  0
 14 15  1  0
 15 16  2  3
 16 17  1  0
 17 18  2  0
 17 19  1  0
 19 20  2  0
 20 21  1  0
 21 22  2  0
 22 23  1  0
 23 24  2  0
 14 25  2  0
 25 26  1  0
 26 27  1  0
 27 28  1  0
 28 29  2  0
 29 30  1  0
 30 31  2  0
 31 32  1  0
 32 33  2  0
 33 34  1  0
 34 35  2  0
 34 36  1  0
  9  5  1  0
 26 12  1  0
 33 28  1  0
 24 19  1  0
  3 37  1  0
  4 38  1  0
  7 39  1  0
  8 40  1  0
 10 41  1  0
 11 42  1  0
 13 43  1  0
 15 44  1  0
 16 45  1  0
 20 46  1  0
 21 47  1  0
 22 48  1  0
 23 49  1  0
 24 50  1  0
 25 51  1  0
 27 52  1  0
 27 53  1  0
 29 54  1  0
 30 55  1  0
 31 56  1  0
 32 57  1  0
M  CHG  2  13   1  36  -1
M  END
>  <UniqueID>  (5) 
5

>  <SMILES>  (5) 
O=C(C=Cc1nccs1)C=Cc1[nH+]c(C=CC(=O)c2ccccc2)cn1Cc1ccccc1C(=O)[O-]

>  <Energy>  (5) 
138.7759815298141

>  <Genealogy>  (5) 
O=C(C=Cc1nccs1)C=Cc1[nH+]c(C=CC(=O)c2ccccc2)cn1Cc1ccccc1C(=O)[O-] (protonated)
O=C(C=Cc1nccs1)C=Cc1[nH+]c(C=CC(=O)c2ccccc2)cn1Cc1ccccc1C(=O)[O-] (3D coordinates assigned)
O=C(C=Cc1nccs1)C=Cc1[nH+]c(C=CC(=O)c2ccccc2)cn1Cc1ccccc1C(=O)[O-] (optimized conformer: 138.7759815298141 kcal/mol)

>  <smiles>  (5) 
O=C(C=Cc1nccs1)C=Cc1nc(C=CC(=O)c2ccccc2)cn1Cc1ccccc1C(=O)O

>  <score_type>  (5) 
oracle

>  <origin>  (5) 
adg

>  <m_score__min__energy>  (5) 
-11.039999999999999

>  <m_primary>  (5) 
energy

$$$$
5:0
     RDKit          3D

 68 72  0  0  0  0  0  0  0  0999 V2000
   64.9040   32.9230   49.4700 C   0  0  0  0  0  0  0  0  0  0  0  0
   63.6000   33.2010   48.7810 C   0  0  0  0  0  0  0  0  0  0  0  0
   62.6040   33.9370   49.4410 C   0  0  0  0  0  0  0  0  0  0  0  0
   61.3960   34.2230   48.7980 C   0  0  0  0  0  0  0  0  0  0  0  0
   61.1740   33.7810   47.4860 C   0  0  0  0  0  0  0  0  0  0  0  0
   59.6800   34.1780   46.6420 S   0  0  0  0  0  0  0  0  0  0  0  0
   59.9120   34.3040   45.1630 O   0  0  0  0  0  0  0  0  0  0  0  0
   59.1580   35.4860   47.1670 O   0  0  0  0  0  0  0  0  0  0  0  0
   58.5160   32.9290   46.9430 N   0  0  0  0  0  0  0  0  0  0  0  0
   58.1650   32.0010   45.9100 C   0  0  0  0  0  0  0  0  0  0  0  0
   57.1710   32.3130   44.9700 C   0  0  0  0  0  0  0  0  0  0  0  0
   56.8950   31.4330   43.9210 C   0  0  0  0  0  0  0  0  0  0  0  0
   57.6230   30.2480   43.7890 C   0  0  0  0  0  0  0  0  0  0  0  0
   58.6240   29.9270   44.7190 C   0  0  0  0  0  0  0  0  0  0  0  0
   59.5030   28.7210   44.5150 C   0  0  0  0  0  0  0  0  0  0  0  0
   59.1640   27.6790   45.4860 N   0  0  0  0  0  0  0  0  0  0  0  0
   59.5320   27.6790   46.7330 C   0  0  0  0  0  0  0  0  0  0  0  0
   59.1160   28.6810   47.5510 N   0  0  0  0  0  0  0  0  0  0  0  0
   59.5060   28.7480   48.8550 C   0  0  0  0  0  0  0  0  0  0  0  0
   59.0830   29.8920   49.6960 C   0  0  0  0  0  0  0  0  0  0  0  0
   59.5890   31.1840   49.4740 C   0  0  0  0  0  0  0  0  0  0  0  0
   59.1930   32.2300   50.3060 C   0  0  0  0  0  0  0  0  0  0  0  0
   58.3030   31.9890   51.3550 C   0  0  0  0  0  0  0  0  0  0  0  0
   57.8160   30.6960   51.5560 C   0  0  0  0  0  0  0  0  0  0  0  0
   56.9980   30.4630   52.5380 N   0  0  0  0  0  0  0  0  0  0  0  0
   55.8720   31.3260   52.8870 C   0  0  0  0  0  0  0  0  0  0  0  0
   54.5880   30.6250   52.5540 C   0  0  0  0  0  0  0  0  0  0  0  0
   54.1840   29.5010   53.2890 C   0  0  0  0  0  0  0  0  0  0  0  0
   52.9690   28.8750   53.0060 C   0  0  0  0  0  0  0  0  0  0  0  0
   52.1390   29.3750   51.9990 C   0  0  0  0  0  0  0  0  0  0  0  0
   52.5160   30.5120   51.2620 C   0  0  0  0  0  0  0  0  0  0  0  0
   51.6310   31.0520   50.2020 C   0  0  0  0  0  0  0  0  0  0  0  0
   51.0340   32.3400   50.3430 N   0  0  0  0  0  0  0  0  0  0  0  0
   51.3960   30.3780   49.1630 O   0  0  0  0  0  0  0  0  0  0  0  0
   53.7460   31.1330   51.5510 C   0  0  0  0  0  0  0  0  0  0  0  0
   58.2150   29.6890   50.7260 N   0  0  0  0  0  0  0  0  0  0  0  0
   60.3450   27.7470   49.3650 C   0  0  0  0  0  0  0  0  0  0  0  0
   60.7630   26.7240   48.5150 C   0  0  0  0  0  0  0  0  0  0  0  0
   60.3570   26.7100   47.2210 N   0  0  0  0  0  0  0  0  0  0  0  0
   58.8690   30.7950   45.7960 C   0  0  0  0  0  0  0  0  0  0  0  0
   62.1770   33.0660   46.8190 C   0  0  0  0  0  0  0  0  0  0  0  0
   63.3850   32.7790   47.4600 C   0  0  0  0  0  0  0  0  0  0  0  0
   64.7569   32.9544   50.5597 H   0  0  0  0  0  0  0  0  0  0  0  0
   65.2681   31.9270   49.1777 H   0  0  0  0  0  0  0  0  0  0  0  0
   65.6427   33.6839   49.1777 H   0  0  0  0  0  0  0  0  0  0  0  0
   62.7745   34.2904   50.4686 H   0  0  0  0  0  0  0  0  0  0  0  0
   60.6176   34.7963   49.3228 H   0  0  0  0  0  0  0  0  0  0  0  0
   58.3440   32.6660   47.9380 H   0  0  0  0  0  0  0  0  0  0  0  0
   56.6075   33.2534   45.0595 H   0  0  0  0  0  0  0  0  0  0  0  0
   56.1025   31.6736   43.1971 H   0  0  0  0  0  0  0  0  0  0  0  0
   57.4111   29.5644   42.9536 H   0  0  0  0  0  0  0  0  0  0  0  0
   59.3549   28.3313   43.4971 H   0  0  0  0  0  0  0  0  0  0  0  0
   60.5538   29.0145   44.6552 H   0  0  0  0  0  0  0  0  0  0  0  0
   60.2929   31.3687   48.6492 H   0  0  0  0  0  0  0  0  0  0  0  0
   59.5814   33.2451   50.1364 H   0  0  0  0  0  0  0  0  0  0  0  0
   57.9888   32.8099   52.0164 H   0  0  0  0  0  0  0  0  0  0  0  0
   55.9002   31.5493   53.9637 H   0  0  0  0  0  0  0  0  0  0  0  0
   55.9374   32.2651   52.3180 H   0  0  0  0  0  0  0  0  0  0  0  0
   54.8272   29.1112   54.0917 H   0  0  0  0  0  0  0  0  0  0  0  0
   52.6640   27.9857   53.5771 H   0  0  0  0  0  0  0  0  0  0  0  0
   51.1835   28.8755   51.7811 H   0  0  0  0  0  0  0  0  0  0  0  0
   51.1140   33.0540   49.5870 H   0  0  0  0  0  0  0  0  0  0  0  0
   54.0510   32.0257   50.9852 H   0  0  0  0  0  0  0  0  0  0  0  0
   60.6675   27.7684   50.4164 H   0  0  0  0  0  0  0  0  0  0  0  0
   61.4218   25.9286   48.8937 H   0  0  0  0  0  0  0  0  0  0  0  0
   59.6185   30.5261   46.5549 H   0  0  0  0  0  0  0  0  0  0  0  0
   62.0128   32.7286   45.7850 H   0  0  0  0  0  0  0  0  0  0  0  0
   64.1694   32.2209   46.9278 H   0  0  0  0  0  0  0  0  0  0  0  0
  1  2  1  0
  2  3  2  0
  3  4  1  0
  4  5  2  0
  5  6  1  0
  6  7  2  0
  6  8  2  0
  6  9  1  0
  9 10  1  0
 10 11  2  0
 11 12  1  0
 12 13  2  0
 13 14  1  0
 14 15  1  0
 15 16  1  0
 16 17  2  3
 17 18  1  0
 18 19  2  0
 19 20  1  0
 20 21  2  0
 21 22  1  0
 22 23  2  0
 23 24  1  0
 24 25  2  3
 25 26  1  0
 26 27  1  0
 27 28  2  0
 28 29  1  0
 29 30  2  0
 30 31  1  0
 31 32  1  0
 32 33  1  0
 32 34  2  0
 31 35  2  0
 24 36  1  0
 19 37  1  0
 37 38  2  0
 38 39  1  0
 14 40  2  0
  5 41  1  0
 41 42  2  0
 42  2  1  0
 40 10  1  0
 39 17  1  0
 36 20  1  0
 35 27  1  0
  1 43  1  0
  1 44  1  0
  1 45  1  0
  3 46  1  0
  4 47  1  0
  9 48  1  0
 11 49  1  0
 12 50  1  0
 13 51  1  0
 15 52  1  0
 15 53  1  0
 21 54  1  0
 22 55  1  0
 23 56  1  0
 26 57  1  0
 26 58  1  0
 28 59  1  0
 29 60  1  0
 30 61  1  0
 33 62  1  0
 35 63  1  0
 37 64  1  0
 38 65  1  0
 40 66  1  0
 41 67  1  0
 42 68  1  0
M  CHG  3  33  -1  36  -1  39  -1
M  END
>  <UniqueID>  (6) 
6

>  <SMILES>  (6) 
Cc1ccc(S(=O)(=O)Nc2cccc(CN=c3nc(-c4cccc(=NCc5cccc(C([NH-])=O)c5)[n-]4)cc[n-]3)c2)cc1

>  <Energy>  (6) 
74.27963034371197

>  <Genealogy>  (6) 
Cc1ccc(S(=O)(=O)Nc2cccc(CN=c3nc(-c4cccc(=NCc5cccc(C([NH-])=O)c5)[n-]4)cc[n-]3)c2)cc1 (protonated)
Cc1ccc(S(=O)(=O)Nc2cccc(CN=c3nc(-c4cccc(=NCc5cccc(C([NH-])=O)c5)[n-]4)cc[n-]3)c2)cc1 (3D coordinates assigned)
Cc1ccc(S(=O)(=O)Nc2cccc(CN=c3nc(-c4cccc(=NCc5cccc(C([NH-])=O)c5)[n-]4)cc[n-]3)c2)cc1 (optimized conformer: 74.27963034371197 kcal/mol)

>  <smiles>  (6) 
Cc1ccc(S(=O)(=O)Nc2cccc(CN=c3nc(-c4cccc(=NCc5cccc(C(N)=O)c5)[nH]4)cc[nH]3)c2)cc1

>  <score_type>  (6) 
oracle

>  <origin>  (6) 
adg

>  <m_score__min__energy>  (6) 
-18.600000000000001

>  <m_primary>  (6) 
energy

$$$$
6:0
     RDKit          3D

 49 52  0  0  0  0  0  0  0  0999 V2000
   58.1450   32.0463   40.7051 H   0  0  0  0  0  0  0  0  0  0  0  0
   58.1240   32.7140   41.5790 C   0  0  0  0  0  0  0  0  0  0  0  0
   58.3638   33.7811   41.4617 H   0  0  0  0  0  0  0  0  0  0  0  0
   57.8080   32.2300   42.7800 C   0  0  0  0  0  0  0  0  0  0  0  0
   57.7480   32.9650   43.9460 C   0  0  0  0  0  0  0  0  0  0  0  0
   57.9382   34.0427   44.0576 H   0  0  0  0  0  0  0  0  0  0  0  0
   57.4010   32.0760   44.9460 C   0  0  0  0  0  0  0  0  0  0  0  0
   57.2730   32.3068   46.0139 H   0  0  0  0  0  0  0  0  0  0  0  0
   57.2450   30.8330   44.3410 C   0  0  0  0  0  0  0  0  0  0  0  0
   56.9950   29.6520   44.9490 C   0  0  0  0  0  0  0  0  0  0  0  0
   55.8050   29.0340   44.8010 N   0  0  0  0  0  0  0  0  0  0  0  0
   55.8850   27.8110   45.2920 N   0  0  0  0  0  0  0  0  0  0  0  0
   57.1280   27.6140   45.7660 C   0  0  0  0  0  0  0  0  0  0  0  0
   57.4610   26.4310   46.5810 C   0  0  0  0  0  0  0  0  0  0  0  0
   57.5460   26.5600   47.8330 O   0  0  0  0  0  0  0  0  0  0  0  0
   57.6160   25.1220   45.9870 N   0  0  0  0  0  0  0  0  0  0  0  0
   58.0290   24.9600   44.5850 C   0  0  0  0  0  0  0  0  0  0  0  0
   57.8626   25.9038   44.0450 H   0  0  0  0  0  0  0  0  0  0  0  0
   59.0958   24.6938   44.5515 H   0  0  0  0  0  0  0  0  0  0  0  0
   57.2120   23.8460   43.9230 C   0  0  0  0  0  0  0  0  0  0  0  0
   56.1958   24.2190   43.7278 H   0  0  0  0  0  0  0  0  0  0  0  0
   57.7184   23.5629   42.9885 H   0  0  0  0  0  0  0  0  0  0  0  0
   57.1230   22.6460   44.7740 N   0  0  0  0  0  0  0  0  0  0  0  0
   56.4990   21.4610   44.2320 C   0  0  0  0  0  0  0  0  0  0  0  0
   56.2580   21.3910   42.9930 O   0  0  0  0  0  0  0  0  0  0  0  0
   56.1380   20.2880   45.0960 C   0  0  0  0  0  0  0  0  0  0  0  0
   56.2254   20.5720   46.1551 H   0  0  0  0  0  0  0  0  0  0  0  0
   55.1036   19.9803   44.8831 H   0  0  0  0  0  0  0  0  0  0  0  0
   56.8204   19.4520   44.8831 H   0  0  0  0  0  0  0  0  0  0  0  0
   57.7900   22.6420   46.0850 C   0  0  0  0  0  0  0  0  0  0  0  0
   57.4319   21.7829   46.6713 H   0  0  0  0  0  0  0  0  0  0  0  0
   58.8769   22.5685   45.9323 H   0  0  0  0  0  0  0  0  0  0  0  0
   57.4810   23.9360   46.8450 C   0  0  0  0  0  0  0  0  0  0  0  0
   56.4498   23.8876   47.2249 H   0  0  0  0  0  0  0  0  0  0  0  0
   58.2037   24.0278   47.6692 H   0  0  0  0  0  0  0  0  0  0  0  0
   57.8740   28.7850   45.6120 C   0  0  0  0  0  0  0  0  0  0  0  0
   59.0940   29.0380   46.1370 C   0  0  0  0  0  0  0  0  0  0  0  0
   59.4530   28.7810   47.4810 N   0  0  0  0  0  0  0  0  0  0  0  0
   58.9510   28.1350   48.1280 H   0  0  0  0  0  0  0  0  0  0  0  0
   60.8060   29.2690   47.7010 C   0  0  0  0  0  0  0  0  0  0  0  0
   60.8253   29.9807   48.5395 H   0  0  0  0  0  0  0  0  0  0  0  0
   61.4959   28.4509   47.9556 H   0  0  0  0  0  0  0  0  0  0  0  0
   61.2160   29.9720   46.3890 C   0  0  0  0  0  0  0  0  0  0  0  0
   61.3497   31.0508   46.5572 H   0  0  0  0  0  0  0  0  0  0  0  0
   62.1704   29.5857   46.0018 H   0  0  0  0  0  0  0  0  0  0  0  0
   60.1230   29.7350   45.4590 N   0  0  0  0  0  0  0  0  0  0  0  0
   60.0230   30.2310   44.5450 H   0  0  0  0  0  0  0  0  0  0  0  0
   57.5180   30.9360   43.0200 N   0  0  0  0  0  0  0  0  0  0  0  0
   57.5130   30.1640   42.3150 H   0  0  0  0  0  0  0  0  0  0  0  0
  1  2  1  0
  2  3  1  0
  2  4  2  0
  4  5  1  0
  5  6  1  0
  5  7  2  0
  7  8  1  0
  7  9  1  0
  9 10  2  0
 10 11  1  0
 11 12  1  0
 12 13  2  0
 13 14  1  0
 14 15  2  0
 14 16  1  0
 16 17  1  0
 17 18  1  0
 17 19  1  0
 17 20  1  0
 20 21  1  0
 20 22  1  0
 20 23  1  0
 23 24  1  0
 24 25  2  0
 24 26  1  0
 26 27  1  0
 26 28  1  0
 26 29  1  0
 23 30  1  0
 30 31  1  0
 30 32  1  0
 30 33  1  0
 33 34  1  0
 33 35  1  0
 13 36  1  0
 36 37  2  3
 37 38  1  0
 38 39  1  0
 38 40  1  0
 40 41  1  0
 40 42  1  0
 40 43  1  0
 43 44  1  0
 43 45  1  0
 43 46  1  0
 46 47  1  0
  9 48  1  0
 48 49  1  0
 48  4  1  0
 36 10  1  0
 46 37  1  0
 33 16  1  0
M  CHG  1  11  -1
M  END
>  <UniqueID>  (7) 
7

>  <SMILES>  (7) 
C=c1cc/c(=c2/[n-]nc(C(=O)N3CCN(C(C)=O)CC3)c2=C2NCCN2)[nH]1

>  <Energy>  (7) 
145.0001969187612

>  <Genealogy>  (7) 
C=c1ccc(=c2[n-]nc(C(=O)N3CCN(C(C)=O)CC3)c2=C2NCCN2)[nH]1 (protonated)
C=c1cc/c(=c2/[n-]nc(C(=O)N3CCN(C(C)=O)CC3)c2=C2NCCN2)[nH]1 (cis-trans isomerization)
C=c1cc/c(=c2/[n-]nc(C(=O)N3CCN(C(C)=O)CC3)c2=C2NCCN2)[nH]1 (3D coordinates assigned)
C=c1cc/c(=c2/[n-]nc(C(=O)N3CCN(C(C)=O)CC3)c2=C2NCCN2)[nH]1 (nonaromatic ring conformer: 145.0001969187612 kcal/mol)

>  <smiles>  (7) 
C=c1ccc(=c2[nH]nc(C(=O)N3CCN(C(C)=O)CC3)c2=C2NCCN2)[nH]1

>  <score_type>  (7) 
oracle

>  <origin>  (7) 
adg

>  <m_score__min__energy>  (7) 
-9.3399999999999999

>  <m_primary>  (7) 
energy

$$$$
7:0
     RDKit          3D

 51 53  0  0  0  0  0  0  0  0999 V2000
   60.0100   34.2030   45.0980 O   0  0  0  0  0  0  0  0  0  0  0  0
   59.3590   34.0580   46.1680 C   0  0  0  0  0  0  0  0  0  0  0  0
   57.9250   34.1100   46.1360 N   0  0  0  0  0  0  0  0  0  0  0  0
   57.1930   34.0630   44.8680 C   0  0  0  0  0  0  0  0  0  0  0  0
   57.4280   32.7330   44.1100 C   0  0  0  0  0  0  0  0  0  0  0  0
   57.0200   31.5180   44.8520 N   0  0  0  0  0  0  0  0  0  0  0  0
   56.3530   30.4920   44.0390 C   0  0  0  0  0  0  0  0  0  0  0  0
   56.7460   29.1500   44.6260 C   0  0  0  0  0  0  0  0  0  0  0  0
   58.1080   29.3930   45.2380 C   0  0  0  0  0  0  0  0  0  0  0  0
   58.1120   30.8710   45.5960 C   0  0  0  0  0  0  0  0  0  0  0  0
   60.0880   33.8280   47.4390 C   0  0  0  0  0  0  0  0  0  0  0  0
   59.3730   33.6480   48.6350 C   0  0  0  0  0  0  0  0  0  0  0  0
   60.0500   33.4740   49.8500 C   0  0  0  0  0  0  0  0  0  0  0  0
   59.2990   33.2990   51.1090 C   0  0  0  0  0  0  0  0  0  0  0  0
   59.2600   34.2590   51.9250 O   0  0  0  0  0  0  0  0  0  0  0  0
   58.6200   32.0660   51.4200 N   0  0  0  0  0  0  0  0  0  0  0  0
   57.6660   32.0460   52.5360 C   0  0  0  0  0  0  0  0  0  0  0  0
   56.7260   30.8350   52.4220 C   0  0  0  0  0  0  0  0  0  0  0  0
   57.4510   29.6380   52.2010 O   0  0  0  0  0  0  0  0  0  0  0  0
   58.1270   29.7150   50.9620 C   0  0  0  0  0  0  0  0  0  0  0  0
   59.2150   30.7830   51.0270 C   0  0  0  0  0  0  0  0  0  0  0  0
   61.4510   33.4920   49.8750 C   0  0  0  0  0  0  0  0  0  0  0  0
   62.1860   33.6600   48.6900 C   0  0  0  0  0  0  0  0  0  0  0  0
   63.6260   33.6610   48.7270 N   0  0  0  0  0  0  0  0  0  0  0  0
   64.2920   33.5100   47.6810 O   0  0  0  0  0  0  0  0  0  0  0  0
   64.2960   33.8140   49.9190 O   0  0  0  0  0  0  0  0  0  0  0  0
   61.4950   33.8340   47.4760 C   0  0  0  0  0  0  0  0  0  0  0  0
   57.4040   34.2140   47.0360 H   0  0  0  0  0  0  0  0  0  0  0  0
   56.1178   34.1685   45.0748 H   0  0  0  0  0  0  0  0  0  0  0  0
   57.5593   34.8840   44.2342 H   0  0  0  0  0  0  0  0  0  0  0  0
   56.8572   32.7686   43.1703 H   0  0  0  0  0  0  0  0  0  0  0  0
   58.5138   32.6519   43.9537 H   0  0  0  0  0  0  0  0  0  0  0  0
   55.2616   30.6215   44.0853 H   0  0  0  0  0  0  0  0  0  0  0  0
   56.6528   30.5660   42.9832 H   0  0  0  0  0  0  0  0  0  0  0  0
   56.0245   28.8345   45.3941 H   0  0  0  0  0  0  0  0  0  0  0  0
   56.7615   28.3499   43.8713 H   0  0  0  0  0  0  0  0  0  0  0  0
   58.2447   28.7755   46.1380 H   0  0  0  0  0  0  0  0  0  0  0  0
   58.9259   29.1287   44.5516 H   0  0  0  0  0  0  0  0  0  0  0  0
   57.9522   30.9943   46.6773 H   0  0  0  0  0  0  0  0  0  0  0  0
   59.0780   31.3269   45.3334 H   0  0  0  0  0  0  0  0  0  0  0  0
   58.2731   33.6436   48.6178 H   0  0  0  0  0  0  0  0  0  0  0  0
   58.2201   31.9856   53.4843 H   0  0  0  0  0  0  0  0  0  0  0  0
   57.0643   32.9664   52.5050 H   0  0  0  0  0  0  0  0  0  0  0  0
   56.1515   30.7386   53.3551 H   0  0  0  0  0  0  0  0  0  0  0  0
   56.0547   30.9967   51.5658 H   0  0  0  0  0  0  0  0  0  0  0  0
   58.5856   28.7410   50.7360 H   0  0  0  0  0  0  0  0  0  0  0  0
   57.4072   29.9802   50.1736 H   0  0  0  0  0  0  0  0  0  0  0  0
   59.9735   30.4888   51.7673 H   0  0  0  0  0  0  0  0  0  0  0  0
   59.6868   30.8857   50.0386 H   0  0  0  0  0  0  0  0  0  0  0  0
   61.9802   33.3734   50.8320 H   0  0  0  0  0  0  0  0  0  0  0  0
   62.0620   33.9765   46.5442 H   0  0  0  0  0  0  0  0  0  0  0  0
  1  2  2  0
  2  3  1  0
  3  4  1  0
  4  5  1  0
  5  6  1  0
  6  7  1  0
  7  8  1  0
  8  9  1  0
  9 10  1  0
  2 11  1  0
 11 12  2  0
 12 13  1  0
 13 14  1  0
 14 15  2  0
 14 16  1  0
 16 17  1  0
 17 18  1  0
 18 19  1  0
 19 20  1  0
 20 21  1  0
 13 22  2  0
 22 23  1  0
 23 24  1  0
 24 25  2  0
 24 26  1  0
 23 27  2  0
 10  6  1  0
 27 11  1  0
 21 16  1  0
  3 28  1  0
  4 29  1  0
  4 30  1  0
  5 31  1  0
  5 32  1  0
  7 33  1  0
  7 34  1  0
  8 35  1  0
  8 36  1  0
  9 37  1  0
  9 38  1  0
 10 39  1  0
 10 40  1  0
 12 41  1  0
 17 42  1  0
 17 43  1  0
 18 44  1  0
 18 45  1  0
 20 46  1  0
 20 47  1  0
 21 48  1  0
 21 49  1  0
 22 50  1  0
 27 51  1  0
M  CHG  2  24   1  26  -1
M  END
>  <UniqueID>  (8) 
8

>  <SMILES>  (8) 
O=C(NCCN1CCCC1)c1cc(C(=O)N2CCOCC2)cc([N+](=O)[O-])c1

>  <Energy>  (8) 
66.58737514434151

>  <Genealogy>  (8) 
O=C(NCCN1CCCC1)c1cc(C(=O)N2CCOCC2)cc([N+](=O)[O-])c1 (3D coordinates assigned)
O=C(NCCN1CCCC1)c1cc(C(=O)N2CCOCC2)cc([N+](=O)[O-])c1 (nonaromatic ring conformer: 66.58737514434151 kcal/mol)

>  <smiles>  (8) 
O=C(NCCN1CCCC1)c1cc(C(=O)N2CCOCC2)cc([N+](=O)[O-])c1

>  <score_type>  (8) 
oracle

>  <origin>  (8) 
adg

>  <m_score__min__energy>  (8) 
-8.8200000000000003

>  <m_primary>  (8) 
energy

$$$$
8:0
     RDKit          3D

 80 84  0  0  0  0  0  0  0  0999 V2000
   58.5090   34.0730   52.4340 C   0  0  0  0  0  0  0  0  0  0  0  0
   59.0660   33.0450   51.4480 C   0  0  0  0  0  0  0  0  0  0  0  0
   57.9800   32.0960   50.9170 C   0  0  0  0  0  0  0  0  0  0  0  0
   58.5380   30.8910   50.1350 C   0  0  0  0  0  0  0  0  0  0  0  0
   59.0210   29.7780   51.0550 C   0  0  0  0  0  0  0  0  0  0  0  0
   58.3700   29.6520   52.2950 C   0  0  0  0  0  0  0  0  0  0  0  0
   58.7580   28.6640   53.1910 C   0  0  0  0  0  0  0  0  0  0  0  0
   58.1770   28.5540   54.3040 O   0  0  0  0  0  0  0  0  0  0  0  0
   59.7890   27.7980   52.8540 C   0  0  0  0  0  0  0  0  0  0  0  0
   60.4230   27.9210   51.6130 C   0  0  0  0  0  0  0  0  0  0  0  0
   61.4400   27.0190   51.2880 O   0  0  0  0  0  0  0  0  0  0  0  0
   60.0450   28.9040   50.7240 N   0  0  0  0  0  0  0  0  0  0  0  0
   60.7200   28.9680   49.4080 C   0  0  0  0  0  0  0  0  0  0  0  0
   60.0620   28.0470   48.4080 C   0  0  0  0  0  0  0  0  0  0  0  0
   58.6790   28.1300   48.1780 C   0  0  0  0  0  0  0  0  0  0  0  0
   58.0630   27.2780   47.2590 C   0  0  0  0  0  0  0  0  0  0  0  0
   58.8210   26.3310   46.5570 C   0  0  0  0  0  0  0  0  0  0  0  0
   58.1570   25.3900   45.6360 C   0  0  0  0  0  0  0  0  0  0  0  0
   58.0440   24.0440   46.0210 C   0  0  0  0  0  0  0  0  0  0  0  0
   57.4400   23.1140   45.1720 C   0  0  0  0  0  0  0  0  0  0  0  0
   56.9460   23.5160   43.9310 C   0  0  0  0  0  0  0  0  0  0  0  0
   57.0610   24.8490   43.5310 C   0  0  0  0  0  0  0  0  0  0  0  0
   57.6740   25.7980   44.3680 C   0  0  0  0  0  0  0  0  0  0  0  0
   57.8800   27.4540   43.7710 S   0  0  0  0  0  0  0  0  0  0  0  0
   57.5060   27.5040   42.3180 O   0  0  0  0  0  0  0  0  0  0  0  0
   59.3160   27.8830   43.9040 O   0  0  0  0  0  0  0  0  0  0  0  0
   56.8810   28.5710   44.6490 N   0  0  0  0  0  0  0  0  0  0  0  0
   57.1340   29.9760   44.7570 C   0  0  0  0  0  0  0  0  0  0  0  0
   56.4160   30.7790   44.1060 O   0  0  0  0  0  0  0  0  0  0  0  0
   58.2160   30.5050   45.6020 C   0  0  0  0  0  0  0  0  0  0  0  0
   59.4700   29.8840   45.6190 C   0  0  0  0  0  0  0  0  0  0  0  0
   60.5170   30.4240   46.3680 C   0  0  0  0  0  0  0  0  0  0  0  0
   60.3160   31.5810   47.1430 C   0  0  0  0  0  0  0  0  0  0  0  0
   61.4420   32.1780   47.9080 C   0  0  0  0  0  0  0  0  0  0  0  0
   61.2120   33.2120   48.8360 C   0  0  0  0  0  0  0  0  0  0  0  0
   62.2650   33.7380   49.5900 C   0  0  0  0  0  0  0  0  0  0  0  0
   63.5690   33.2500   49.4220 C   0  0  0  0  0  0  0  0  0  0  0  0
   64.6990   33.7830   50.2600 C   0  0  0  0  0  0  0  0  0  0  0  0
   65.8100   32.7830   50.3490 C   0  0  0  0  0  0  0  0  0  0  0  0
   67.0700   33.0650   49.7450 N   0  0  0  0  0  0  0  0  0  0  0  0
   65.6360   31.6930   50.9580 O   0  0  0  0  0  0  0  0  0  0  0  0
   63.8060   32.2310   48.4870 C   0  0  0  0  0  0  0  0  0  0  0  0
   62.7530   31.6980   47.7380 C   0  0  0  0  0  0  0  0  0  0  0  0
   59.0390   32.1720   47.1620 C   0  0  0  0  0  0  0  0  0  0  0  0
   57.9970   31.6370   46.3980 C   0  0  0  0  0  0  0  0  0  0  0  0
   60.2090   26.2790   46.7450 C   0  0  0  0  0  0  0  0  0  0  0  0
   60.8270   27.1350   47.6590 C   0  0  0  0  0  0  0  0  0  0  0  0
   58.6940   33.7316   53.4632 H   0  0  0  0  0  0  0  0  0  0  0  0
   59.0059   35.0412   52.2740 H   0  0  0  0  0  0  0  0  0  0  0  0
   57.4265   34.1855   52.2740 H   0  0  0  0  0  0  0  0  0  0  0  0
   59.5159   33.5784   50.5977 H   0  0  0  0  0  0  0  0  0  0  0  0
   59.8115   32.4372   51.9817 H   0  0  0  0  0  0  0  0  0  0  0  0
   57.4016   31.7170   51.7725 H   0  0  0  0  0  0  0  0  0  0  0  0
   57.3617   32.6756   50.2157 H   0  0  0  0  0  0  0  0  0  0  0  0
   57.7448   30.4933   49.4849 H   0  0  0  0  0  0  0  0  0  0  0  0
   59.4005   31.2408   49.5487 H   0  0  0  0  0  0  0  0  0  0  0  0
   57.5508   30.3381   52.5563 H   0  0  0  0  0  0  0  0  0  0  0  0
   60.1067   27.0172   53.5607 H   0  0  0  0  0  0  0  0  0  0  0  0
   61.9400   26.4940   51.9980 H   0  0  0  0  0  0  0  0  0  0  0  0
   60.6717   30.0000   49.0304 H   0  0  0  0  0  0  0  0  0  0  0  0
   61.7648   28.6495   49.5380 H   0  0  0  0  0  0  0  0  0  0  0  0
   58.0774   28.8707   48.7252 H   0  0  0  0  0  0  0  0  0  0  0  0
   56.9792   27.3504   47.0855 H   0  0  0  0  0  0  0  0  0  0  0  0
   58.4337   23.7203   46.9974 H   0  0  0  0  0  0  0  0  0  0  0  0
   57.3537   22.0623   45.4826 H   0  0  0  0  0  0  0  0  0  0  0  0
   56.4655   22.7824   43.2669 H   0  0  0  0  0  0  0  0  0  0  0  0
   56.6682   25.1596   42.5516 H   0  0  0  0  0  0  0  0  0  0  0  0
   59.6318   28.9640   45.0381 H   0  0  0  0  0  0  0  0  0  0  0  0
   61.5056   29.9418   46.3522 H   0  0  0  0  0  0  0  0  0  0  0  0
   60.1948   33.6092   48.9687 H   0  0  0  0  0  0  0  0  0  0  0  0
   62.0699   34.5386   50.3187 H   0  0  0  0  0  0  0  0  0  0  0  0
   65.0816   34.7080   49.8039 H   0  0  0  0  0  0  0  0  0  0  0  0
   64.3227   33.9844   51.2738 H   0  0  0  0  0  0  0  0  0  0  0  0
   67.1820   33.0430   48.7060 H   0  0  0  0  0  0  0  0  0  0  0  0
   64.8274   31.8490   48.3424 H   0  0  0  0  0  0  0  0  0  0  0  0
   62.9512   30.8973   47.0103 H   0  0  0  0  0  0  0  0  0  0  0  0
   58.8590   33.0620   47.7828 H   0  0  0  0  0  0  0  0  0  0  0  0
   57.0024   32.1063   46.4221 H   0  0  0  0  0  0  0  0  0  0  0  0
   60.8135   25.5615   46.1707 H   0  0  0  0  0  0  0  0  0  0  0  0
   61.9180   27.0958   47.7939 H   0  0  0  0  0  0  0  0  0  0  0  0
  1  2  1  0
  2  3  1  0
  3  4  1  0
  4  5  1  0
  5  6  2  0
  6  7  1  0
  7  8  2  0
  7  9  1  0
  9 10  2  0
 10 11  1  0
 10 12  1  0
 12 13  1  0
 13 14  1  0
 14 15  2  0
 15 16  1  0
 16 17  2  0
 17 18  1  0
 18 19  2  0
 19 20  1  0
 20 21  2  0
 21 22  1  0
 22 23  2  0
 23 24  1  0
 24 25  2  0
 24 26  2  0
 24 27  1  0
 27 28  1  0
 28 29  2  0
 28 30  1  0
 30 31  2  0
 31 32  1  0
 32 33  2  0
 33 34  1  0
 34 35  2  0
 35 36  1  0
 36 37  2  0
 37 38  1  0
 38 39  1  0
 39 40  1  0
 39 41  2  0
 37 42  1  0
 42 43  2  0
 33 44  1  0
 44 45  2  0
 17 46  1  0
 46 47  2  0
 12  5  1  0
 47 14  1  0
 23 18  1  0
 45 30  1  0
 43 34  1  0
  1 48  1  0
  1 49  1  0
  1 50  1  0
  2 51  1  0
  2 52  1  0
  3 53  1  0
  3 54  1  0
  4 55  1  0
  4 56  1  0
  6 57  1  0
  9 58  1  0
 11 59  1  0
 13 60  1  0
 13 61  1  0
 15 62  1  0
 16 63  1  0
 19 64  1  0
 20 65  1  0
 21 66  1  0
 22 67  1  0
 31 68  1  0
 32 69  1  0
 35 70  1  0
 36 71  1  0
 38 72  1  0
 38 73  1  0
 40 74  1  0
 42 75  1  0
 43 76  1  0
 44 77  1  0
 45 78  1  0
 46 79  1  0
 47 80  1  0
M  CHG  2  27  -1  40  -1
M  END
>  <UniqueID>  (9) 
9

>  <SMILES>  (9) 
CCCCc1cc(=O)cc(O)n1Cc1ccc(-c2ccccc2S(=O)(=O)[N-]C(=O)c2ccc(-c3ccc(CC([NH-])=O)cc3)cc2)cc1

>  <Energy>  (9) 
103.03268516267353

>  <Genealogy>  (9) 
CCCCc1cc(=O)cc(O)n1Cc1ccc(-c2ccccc2S(=O)(=O)[N-]C(=O)c2ccc(-c3ccc(CC([NH-])=O)cc3)cc2)cc1 (protonated)
CCCCc1cc(=O)cc(O)n1Cc1ccc(-c2ccccc2S(=O)(=O)[N-]C(=O)c2ccc(-c3ccc(CC([NH-])=O)cc3)cc2)cc1 (3D coordinates assigned)
CCCCc1cc(=O)cc(O)n1Cc1ccc(-c2ccccc2S(=O)(=O)[N-]C(=O)c2ccc(-c3ccc(CC([NH-])=O)cc3)cc2)cc1 (optimized conformer: 103.03268516267353 kcal/mol)

>  <smiles>  (9) 
CCCCc1cc(=O)cc(O)n1Cc1ccc(-c2ccccc2S(=O)(=O)NC(=O)c2ccc(-c3ccc(CC(N)=O)cc3)cc2)cc1

>  <score_type>  (9) 
oracle

>  <origin>  (9) 
adg

>  <m_score__min__energy>  (9) 
-13.640000000000001

>  <m_primary>  (9) 
energy

$$$$
9:0
     RDKit          3D

 56 59  0  0  0  0  0  0  0  0999 V2000
   58.8420   29.4480   46.9740 O   0  0  0  0  0  0  0  0  0  0  0  0
   58.8600   30.9490   46.8740 S   0  0  0  0  0  0  0  0  0  0  0  0
   60.1200   31.3390   46.1500 O   0  0  0  0  0  0  0  0  0  0  0  0
   58.9060   31.6270   48.5010 C   0  0  0  0  0  0  0  0  0  0  0  0
   59.3420   32.9410   48.7050 C   0  0  0  0  0  0  0  0  0  0  0  0
   59.3860   33.4760   49.9940 C   0  0  0  0  0  0  0  0  0  0  0  0
   58.9750   32.7110   51.0970 C   0  0  0  0  0  0  0  0  0  0  0  0
   59.1100   33.2470   52.4230 N   0  0  0  0  0  0  0  0  0  0  0  0
   58.5060   34.5030   52.8320 C   0  0  0  0  0  0  0  0  0  0  0  0
   58.9180   34.6950   54.2840 C   0  0  0  0  0  0  0  0  0  0  0  0
   59.3400   33.3150   54.7830 C   0  0  0  0  0  0  0  0  0  0  0  0
   59.6720   32.5020   53.5370 C   0  0  0  0  0  0  0  0  0  0  0  0
   58.4860   31.4020   50.8880 C   0  0  0  0  0  0  0  0  0  0  0  0
   58.0130   30.5990   51.9760 N   0  0  0  0  0  0  0  0  0  0  0  0
   56.6530   30.6200   52.4350 C   0  0  0  0  0  0  0  0  0  0  0  0
   56.3480   30.1880   53.9900 S   0  0  0  0  0  0  0  0  0  0  0  0
   55.5960   31.0830   51.5710 N   0  0  0  0  0  0  0  0  0  0  0  0
   54.1960   30.8490   51.7960 C   0  0  0  0  0  0  0  0  0  0  0  0
   53.7980   29.7870   52.6200 C   0  0  0  0  0  0  0  0  0  0  0  0
   52.4420   29.5610   52.8780 C   0  0  0  0  0  0  0  0  0  0  0  0
   51.4750   30.4080   52.3280 C   0  0  0  0  0  0  0  0  0  0  0  0
   51.8640   31.4880   51.5300 C   0  0  0  0  0  0  0  0  0  0  0  0
   50.9030   32.3390   50.9990 O   0  0  0  0  0  0  0  0  0  0  0  0
   53.2190   31.7140   51.2700 C   0  0  0  0  0  0  0  0  0  0  0  0
   58.4700   30.8650   49.5940 C   0  0  0  0  0  0  0  0  0  0  0  0
   57.4770   31.4800   45.9420 N   0  0  0  0  0  0  0  0  0  0  0  0
   57.5110   32.9170   45.6030 C   0  0  0  0  0  0  0  0  0  0  0  0
   58.1840   33.1900   44.2510 C   0  0  0  0  0  0  0  0  0  0  0  0
   57.6020   32.4040   43.2350 O   0  0  0  0  0  0  0  0  0  0  0  0
   57.8580   31.0430   43.5030 C   0  0  0  0  0  0  0  0  0  0  0  0
   57.1630   30.6010   44.7990 C   0  0  0  0  0  0  0  0  0  0  0  0
   59.6513   33.5550   47.8463 H   0  0  0  0  0  0  0  0  0  0  0  0
   59.7453   34.5044   50.1463 H   0  0  0  0  0  0  0  0  0  0  0  0
   58.8819   35.3306   52.2125 H   0  0  0  0  0  0  0  0  0  0  0  0
   57.4123   34.4883   52.7154 H   0  0  0  0  0  0  0  0  0  0  0  0
   59.7587   35.4010   54.3534 H   0  0  0  0  0  0  0  0  0  0  0  0
   58.0962   35.1094   54.8865 H   0  0  0  0  0  0  0  0  0  0  0  0
   60.2238   33.3971   55.4327 H   0  0  0  0  0  0  0  0  0  0  0  0
   58.5439   32.8393   55.3746 H   0  0  0  0  0  0  0  0  0  0  0  0
   60.7615   32.4031   53.4221 H   0  0  0  0  0  0  0  0  0  0  0  0
   59.2608   31.4833   53.5942 H   0  0  0  0  0  0  0  0  0  0  0  0
   58.6760   29.9170   52.4090 H   0  0  0  0  0  0  0  0  0  0  0  0
   55.8490   31.6450   50.7280 H   0  0  0  0  0  0  0  0  0  0  0  0
   54.5567   29.1274   53.0664 H   0  0  0  0  0  0  0  0  0  0  0  0
   52.1363   28.7169   53.5136 H   0  0  0  0  0  0  0  0  0  0  0  0
   50.4081   30.2246   52.5232 H   0  0  0  0  0  0  0  0  0  0  0  0
   53.5225   32.5716   50.6516 H   0  0  0  0  0  0  0  0  0  0  0  0
   58.1124   29.8371   49.4344 H   0  0  0  0  0  0  0  0  0  0  0  0
   56.4784   33.2942   45.5648 H   0  0  0  0  0  0  0  0  0  0  0  0
   58.1018   33.4276   46.3777 H   0  0  0  0  0  0  0  0  0  0  0  0
   58.0651   34.2537   43.9970 H   0  0  0  0  0  0  0  0  0  0  0  0
   59.2505   32.9324   44.3292 H   0  0  0  0  0  0  0  0  0  0  0  0
   57.4827   30.4343   42.6671 H   0  0  0  0  0  0  0  0  0  0  0  0
   58.9430   30.9054   43.6208 H   0  0  0  0  0  0  0  0  0  0  0  0
   56.0752   30.6108   44.6360 H   0  0  0  0  0  0  0  0  0  0  0  0
   57.5284   29.5930   45.0448 H   0  0  0  0  0  0  0  0  0  0  0  0
  1  2  2  0
  2  3  2  0
  2  4  1  0
  4  5  2  0
  5  6  1  0
  6  7  2  0
  7  8  1  0
  8  9  1  0
  9 10  1  0
 10 11  1  0
 11 12  1  0
  7 13  1  0
 13 14  1  0
 14 15  1  0
 15 16  2  0
 15 17  1  0
 17 18  1  0
 18 19  2  0
 19 20  1  0
 20 21  2  0
 21 22  1  0
 22 23  1  0
 22 24  2  0
 13 25  2  0
  2 26  1  0
 26 27  1  0
 27 28  1  0
 28 29  1  0
 29 30  1  0
 30 31  1  0
 25  4  1  0
 31 26  1  0
 12  8  1  0
 24 18  1  0
  5 32  1  0
  6 33  1  0
  9 34  1  0
  9 35  1  0
 10 36  1  0
 10 37  1  0
 11 38  1  0
 11 39  1  0
 12 40  1  0
 12 41  1  0
 14 42  1  0
 17 43  1  0
 19 44  1  0
 20 45  1  0
 21 46  1  0
 24 47  1  0
 25 48  1  0
 27 49  1  0
 27 50  1  0
 28 51  1  0
 28 52  1  0
 30 53  1  0
 30 54  1  0
 31 55  1  0
 31 56  1  0
M  CHG  1  23  -1
M  END
>  <UniqueID>  (10) 
10

>  <SMILES>  (10) 
O=S(=O)(c1ccc(N2CCCC2)c(NC(=S)Nc2cccc([O-])c2)c1)N1CCOCC1

>  <Energy>  (10) 
77.96204570315878

>  <Genealogy>  (10) 
O=S(=O)(c1ccc(N2CCCC2)c(NC(=S)Nc2cccc([O-])c2)c1)N1CCOCC1 (protonated)
O=S(=O)(c1ccc(N2CCCC2)c(NC(=S)Nc2cccc([O-])c2)c1)N1CCOCC1 (3D coordinates assigned)
O=S(=O)(c1ccc(N2CCCC2)c(NC(=S)Nc2cccc([O-])c2)c1)N1CCOCC1 (nonaromatic ring conformer: 77.96204570315878 kcal/mol)

>  <smiles>  (10) 
O=S(=O)(c1ccc(N2CCCC2)c(NC(=S)Nc2cccc(O)c2)c1)N1CCOCC1

>  <score_type>  (10) 
oracle

>  <origin>  (10) 
adg

>  <m_score__min__energy>  (10) 
-12.84

>  <m_primary>  (10) 
energy

$$$$
10:0
     RDKit          3D

 33 34  0  0  0  0  0  0  0  0999 V2000
   57.0580   31.0860   42.8430 C   0  0  0  0  0  0  0  0  0  0  0  0
   57.5400   31.4220   44.2530 C   0  0  1  0  0  0  0  0  0  0  0  0
   57.4160   32.9350   44.5100 C   0  0  0  0  0  0  0  0  0  0  0  0
   58.2160   33.3670   45.7150 C   0  0  0  0  0  0  0  0  0  0  0  0
   58.1330   32.6280   46.9080 C   0  0  0  0  0  0  0  0  0  0  0  0
   58.8330   33.0430   48.0440 C   0  0  0  0  0  0  0  0  0  0  0  0
   59.6150   34.2000   48.0020 C   0  0  0  0  0  0  0  0  0  0  0  0
   59.6990   34.9440   46.8230 C   0  0  0  0  0  0  0  0  0  0  0  0
   59.0030   34.5340   45.6810 C   0  0  0  0  0  0  0  0  0  0  0  0
   59.0840   35.2850   44.5530 F   0  0  0  0  0  0  0  0  0  0  0  0
   56.7470   30.6890   45.1900 O   0  0  0  0  0  0  0  0  0  0  0  0
   56.3230   29.3680   44.9940 C   0  0  0  0  0  0  0  0  0  0  0  0
   55.1860   29.1370   44.5000 O   0  0  0  0  0  0  0  0  0  0  0  0
   57.2230   28.2480   45.3660 C   0  0  0  0  0  0  0  0  0  0  0  0
   58.6120   28.3920   45.2290 C   0  0  0  0  0  0  0  0  0  0  0  0
   59.4470   27.3720   45.5580 N   0  0  0  0  0  0  0  0  0  0  0  0
   58.9570   26.1930   46.0240 C   0  0  0  0  0  0  0  0  0  0  0  0
   59.7410   25.2560   46.3260 O   0  0  0  0  0  0  0  0  0  0  0  0
   57.6180   26.0230   46.1650 N   0  0  0  0  0  0  0  0  0  0  0  0
   56.7430   27.0130   45.8500 C   0  0  0  0  0  0  0  0  0  0  0  0
   55.5100   26.8050   45.9950 O   0  0  0  0  0  0  0  0  0  0  0  0
   56.1570   30.4579   42.9035 H   0  0  0  0  0  0  0  0  0  0  0  0
   56.8213   32.0159   42.3051 H   0  0  0  0  0  0  0  0  0  0  0  0
   57.8486   30.5423   42.3051 H   0  0  0  0  0  0  0  0  0  0  0  0
   58.5983   31.1437   44.3652 H   0  0  0  0  0  0  0  0  0  0  0  0
   57.7828   33.4774   43.6261 H   0  0  0  0  0  0  0  0  0  0  0  0
   56.3574   33.1631   44.7031 H   0  0  0  0  0  0  0  0  0  0  0  0
   57.5144   31.7193   46.9474 H   0  0  0  0  0  0  0  0  0  0  0  0
   58.7682   32.4576   48.9731 H   0  0  0  0  0  0  0  0  0  0  0  0
   60.1646   34.5250   48.8977 H   0  0  0  0  0  0  0  0  0  0  0  0
   60.3144   35.8552   46.7924 H   0  0  0  0  0  0  0  0  0  0  0  0
   59.0281   29.3380   44.8523 H   0  0  0  0  0  0  0  0  0  0  0  0
   60.4790   27.5000   45.4480 H   0  0  0  0  0  0  0  0  0  0  0  0
  1  2  1  0
  2  3  1  0
  3  4  1  0
  4  5  2  0
  5  6  1  0
  6  7  2  0
  7  8  1  0
  8  9  2  0
  9 10  1  0
  2 11  1  0
 11 12  1  0
 12 13  2  0
 12 14  1  0
 14 15  2  0
 15 16  1  0
 16 17  1  0
 17 18  2  0
 17 19  1  0
 19 20  1  0
 20 21  2  0
  9  4  1  0
 20 14  1  0
  1 22  1  0
  1 23  1  0
  1 24  1  0
  2 25  1  6
  3 26  1  0
  3 27  1  0
  5 28  1  0
  6 29  1  0
  7 30  1  0
  8 31  1  0
 15 32  1  0
 16 33  1  0
M  CHG  1  19  -1
M  END
>  <UniqueID>  (11) 
11

>  <SMILES>  (11) 
C[C@@H](Cc1ccccc1F)OC(=O)c1c[nH]c(=O)[n-]c1=O

>  <Energy>  (11) 
30.759615938957474

>  <Genealogy>  (11) 
CC(Cc1ccccc1F)OC(=O)c1c[nH]c(=O)[n-]c1=O (protonated)
C[C@@H](Cc1ccccc1F)OC(=O)c1c[nH]c(=O)[n-]c1=O (chirality)
C[C@@H](Cc1ccccc1F)OC(=O)c1c[nH]c(=O)[n-]c1=O (3D coordinates assigned)
C[C@@H](Cc1ccccc1F)OC(=O)c1c[nH]c(=O)[n-]c1=O (optimized conformer: 30.759615938957474 kcal/mol)

>  <smiles>  (11) 
CC(Cc1ccccc1F)OC(=O)c1c[nH]c(=O)[nH]c1=O

>  <score_type>  (11) 
oracle

>  <origin>  (11) 
adg

>  <m_score__min__energy>  (11) 
-8.9700000000000006

>  <m_primary>  (11) 
energy

$$$$
11:0
     RDKit          3D

 49 51  0  0  0  0  0  0  0  0999 V2000
   59.4370   29.0410   48.1290 C   0  0  0  0  0  0  0  0  0  0  0  0
   59.0690   29.7780   47.0650 C   0  0  0  0  0  0  0  0  0  0  0  0
   58.6910   29.2750   45.8190 C   0  0  0  0  0  0  0  0  0  0  0  0
   58.5740   27.9760   45.4660 C   0  0  0  0  0  0  0  0  0  0  0  0
   57.4360   27.0920   45.8000 C   0  0  0  0  0  0  0  0  0  0  0  0
   57.5230   25.8660   46.3480 N   0  0  0  0  0  0  0  0  0  0  0  0
   56.2350   25.5020   46.5160 C   0  0  0  0  0  0  0  0  0  0  0  0
   55.9030   24.3910   47.0060 O   0  0  0  0  0  0  0  0  0  0  0  0
   55.3300   26.4220   46.1210 N   0  0  0  0  0  0  0  0  0  0  0  0
   56.1070   27.4240   45.6770 C   0  0  0  0  0  0  0  0  0  0  0  0
   55.6140   28.6220   45.1710 O   0  0  0  0  0  0  0  0  0  0  0  0
   58.4340   30.3800   45.0280 C   0  0  0  0  0  0  0  0  0  0  0  0
   58.6690   31.5230   45.7900 C   0  0  0  0  0  0  0  0  0  0  0  0
   58.4770   32.9640   45.2580 C   0  0  0  0  0  0  0  0  0  0  0  0
   58.1020   32.9690   43.7570 C   0  0  0  0  0  0  0  0  0  0  0  0
   57.3140   33.6770   45.9970 C   0  0  0  0  0  0  0  0  0  0  0  0
   59.7480   33.8030   45.5110 C   0  0  0  0  0  0  0  0  0  0  0  0
   59.0420   31.1410   47.0510 N   0  0  0  0  0  0  0  0  0  0  0  0
   59.3830   31.9900   48.2090 C   0  0  0  0  0  0  0  0  0  0  0  0
   60.8500   32.3960   48.2350 C   0  0  0  0  0  0  0  0  0  0  0  0
   61.7850   31.7720   47.3830 C   0  0  0  0  0  0  0  0  0  0  0  0
   63.1270   32.1490   47.3980 C   0  0  0  0  0  0  0  0  0  0  0  0
   63.5630   33.1550   48.2550 C   0  0  0  0  0  0  0  0  0  0  0  0
   62.6560   33.8030   49.0950 C   0  0  0  0  0  0  0  0  0  0  0  0
   63.1150   34.7810   49.9190 F   0  0  0  0  0  0  0  0  0  0  0  0
   61.2910   33.4500   49.0820 C   0  0  0  0  0  0  0  0  0  0  0  0
   60.3310   34.1690   49.9970 C   0  0  0  0  0  0  0  0  0  0  0  0
   59.7181   29.5360   49.0702 H   0  0  0  0  0  0  0  0  0  0  0  0
   59.4567   27.9435   48.0575 H   0  0  0  0  0  0  0  0  0  0  0  0
   59.3955   27.5383   44.8799 H   0  0  0  0  0  0  0  0  0  0  0  0
   54.7070   28.9690   45.4600 H   0  0  0  0  0  0  0  0  0  0  0  0
   58.1018   30.3602   43.9795 H   0  0  0  0  0  0  0  0  0  0  0  0
   57.0071   32.9836   43.6527 H   0  0  0  0  0  0  0  0  0  0  0  0
   58.5281   33.8615   43.2756 H   0  0  0  0  0  0  0  0  0  0  0  0
   58.5042   32.0654   43.2756 H   0  0  0  0  0  0  0  0  0  0  0  0
   57.4603   33.5873   47.0835 H   0  0  0  0  0  0  0  0  0  0  0  0
   57.2980   34.7403   45.7157 H   0  0  0  0  0  0  0  0  0  0  0  0
   56.3591   33.2089   45.7157 H   0  0  0  0  0  0  0  0  0  0  0  0
   59.9080   33.9086   46.5942 H   0  0  0  0  0  0  0  0  0  0  0  0
   60.6156   33.2995   45.0596 H   0  0  0  0  0  0  0  0  0  0  0  0
   59.6260   34.7986   45.0596 H   0  0  0  0  0  0  0  0  0  0  0  0
   58.7675   32.9008   48.1697 H   0  0  0  0  0  0  0  0  0  0  0  0
   59.1872   31.4023   49.1180 H   0  0  0  0  0  0  0  0  0  0  0  0
   61.4512   30.9783   46.6984 H   0  0  0  0  0  0  0  0  0  0  0  0
   63.8440   31.6494   46.7299 H   0  0  0  0  0  0  0  0  0  0  0  0
   64.6253   33.4403   48.2705 H   0  0  0  0  0  0  0  0  0  0  0  0
   60.6011   33.9667   51.0439 H   0  0  0  0  0  0  0  0  0  0  0  0
   60.3843   35.2512   49.8071 H   0  0  0  0  0  0  0  0  0  0  0  0
   59.3075   33.8134   49.8071 H   0  0  0  0  0  0  0  0  0  0  0  0
  1  2  2  0
  2  3  1  0
  3  4  2  3
  4  5  1  0
  5  6  1  0
  6  7  1  0
  7  8  2  0
  7  9  1  0
  9 10  1  0
 10 11  1  0
  3 12  1  0
 12 13  2  0
 13 14  1  0
 14 15  1  0
 14 16  1  0
 14 17  1  0
 13 18  1  0
 18 19  1  0
 19 20  1  0
 20 21  2  0
 21 22  1  0
 22 23  2  0
 23 24  1  0
 24 25  1  0
 24 26  2  0
 26 27  1  0
 18  2  1  0
 26 20  1  0
 10  5  2  0
  1 28  1  0
  1 29  1  0
  4 30  1  0
 11 31  1  0
 12 32  1  0
 15 33  1  0
 15 34  1  0
 15 35  1  0
 16 36  1  0
 16 37  1  0
 16 38  1  0
 17 39  1  0
 17 40  1  0
 17 41  1  0
 19 42  1  0
 19 43  1  0
 21 44  1  0
 22 45  1  0
 23 46  1  0
 27 47  1  0
 27 48  1  0
 27 49  1  0
M  CHG  2   6  -1   9  -1
M  END
>  <UniqueID>  (12) 
12

>  <SMILES>  (12) 
C=c1c(=Cc2[n-]c(=O)[n-]c2O)cc(C(C)(C)C)n1Cc1cccc(F)c1C

>  <Energy>  (12) 
119.49119513931987

>  <Genealogy>  (12) 
C=c1c(=Cc2[n-]c(=O)[n-]c2O)cc(C(C)(C)C)n1Cc1cccc(F)c1C (protonated)
C=c1c(=Cc2[n-]c(=O)[n-]c2O)cc(C(C)(C)C)n1Cc1cccc(F)c1C (3D coordinates assigned)
C=c1c(=Cc2[n-]c(=O)[n-]c2O)cc(C(C)(C)C)n1Cc1cccc(F)c1C (optimized conformer: 119.49119513931987 kcal/mol)

>  <smiles>  (12) 
C=c1c(=Cc2[nH]c(=O)[nH]c2O)cc(C(C)(C)C)n1Cc1cccc(F)c1C

>  <score_type>  (12) 
oracle

>  <origin>  (12) 
adg

>  <m_score__min__energy>  (12) 
-13.640000000000001

>  <m_primary>  (12) 
energy

$$$$
12:0
     RDKit          3D

 58 61  0  0  0  0  0  0  0  0999 V2000
   57.3950   28.5640   46.7620 O   0  0  0  0  0  0  0  0  0  0  0  0
   57.3020   27.9310   45.6750 C   0  0  0  0  0  0  0  0  0  0  0  0
   57.4020   26.4330   45.6830 C   0  0  0  0  0  0  0  0  0  0  0  0
   58.8500   25.9660   45.4910 C   0  0  0  0  0  0  0  0  0  0  0  0
   59.6760   26.3510   46.5930 O   0  0  0  0  0  0  0  0  0  0  0  0
   60.0410   27.6660   46.9230 C   0  0  0  0  0  0  0  0  0  0  0  0
   60.4120   28.5290   45.8820 C   0  0  0  0  0  0  0  0  0  0  0  0
   60.7900   29.8460   46.1540 C   0  0  0  0  0  0  0  0  0  0  0  0
   60.7980   30.3130   47.4710 C   0  0  0  0  0  0  0  0  0  0  0  0
   60.4260   29.4650   48.5160 C   0  0  0  0  0  0  0  0  0  0  0  0
   60.0430   28.1470   48.2470 C   0  0  0  0  0  0  0  0  0  0  0  0
   57.0720   28.6310   44.4450 N   0  0  0  0  0  0  0  0  0  0  0  0
   57.3130   30.0360   44.2730 C   0  0  0  0  0  0  0  0  0  0  0  0
   57.4020   30.6070   42.9930 C   0  0  0  0  0  0  0  0  0  0  0  0
   57.6070   31.9810   42.8480 C   0  0  0  0  0  0  0  0  0  0  0  0
   57.7130   32.7990   43.9750 C   0  0  0  0  0  0  0  0  0  0  0  0
   57.6060   32.2480   45.2640 C   0  0  0  0  0  0  0  0  0  0  0  0
   57.7550   33.1070   46.4630 C   0  0  0  0  0  0  0  0  0  0  0  0
   56.7300   33.4520   47.1110 O   0  0  0  0  0  0  0  0  0  0  0  0
   59.0500   33.5270   46.9200 N   0  0  0  0  0  0  0  0  0  0  0  0
   59.9470   34.2570   46.0160 C   0  0  0  0  0  0  0  0  0  0  0  0
   61.4000   33.8230   46.2410 C   0  0  0  0  0  0  0  0  0  0  0  0
   61.7150   33.6870   47.6720 N   0  0  0  0  0  0  0  0  0  0  0  0
   63.0500   33.3230   48.0580 C   0  0  0  0  0  0  0  0  0  0  0  0
   64.0320   33.8050   47.4310 O   0  0  0  0  0  0  0  0  0  0  0  0
   63.2920   32.3650   49.1500 C   0  0  0  0  0  0  0  0  0  0  0  0
   64.4950   32.1710   49.8010 C   0  0  0  0  0  0  0  0  0  0  0  0
   64.2630   31.1690   50.7180 C   0  0  0  0  0  0  0  0  0  0  0  0
   62.9370   30.8110   50.5690 C   0  0  0  0  0  0  0  0  0  0  0  0
   62.3860   31.5420   49.6270 O   0  0  0  0  0  0  0  0  0  0  0  0
   60.7170   34.0660   48.6810 C   0  0  0  0  0  0  0  0  0  0  0  0
   59.3690   33.4190   48.3520 C   0  0  0  0  0  0  0  0  0  0  0  0
   57.4030   30.8640   45.4020 C   0  0  0  0  0  0  0  0  0  0  0  0
   57.0291   26.0549   46.6463 H   0  0  0  0  0  0  0  0  0  0  0  0
   56.7997   26.0422   44.8497 H   0  0  0  0  0  0  0  0  0  0  0  0
   58.8629   24.8698   45.4007 H   0  0  0  0  0  0  0  0  0  0  0  0
   59.2470   26.4390   44.5807 H   0  0  0  0  0  0  0  0  0  0  0  0
   60.4053   28.1663   44.8435 H   0  0  0  0  0  0  0  0  0  0  0  0
   61.0814   30.5156   45.3313 H   0  0  0  0  0  0  0  0  0  0  0  0
   61.0976   31.3496   47.6846 H   0  0  0  0  0  0  0  0  0  0  0  0
   60.4342   29.8340   49.5522 H   0  0  0  0  0  0  0  0  0  0  0  0
   59.7425   27.4841   49.0717 H   0  0  0  0  0  0  0  0  0  0  0  0
   56.6520   28.1010   43.6480 H   0  0  0  0  0  0  0  0  0  0  0  0
   57.3099   29.9697   42.1012 H   0  0  0  0  0  0  0  0  0  0  0  0
   57.6852   32.4204   41.8426 H   0  0  0  0  0  0  0  0  0  0  0  0
   57.8810   33.8793   43.8536 H   0  0  0  0  0  0  0  0  0  0  0  0
   59.6626   34.0459   44.9746 H   0  0  0  0  0  0  0  0  0  0  0  0
   59.8603   35.3344   46.2200 H   0  0  0  0  0  0  0  0  0  0  0  0
   61.5625   32.8537   45.7471 H   0  0  0  0  0  0  0  0  0  0  0  0
   62.0572   34.5974   45.8186 H   0  0  0  0  0  0  0  0  0  0  0  0
   65.4404   32.7048   49.6242 H   0  0  0  0  0  0  0  0  0  0  0  0
   64.9876   30.7405   51.4260 H   0  0  0  0  0  0  0  0  0  0  0  0
   62.4213   30.0326   51.1505 H   0  0  0  0  0  0  0  0  0  0  0  0
   61.0527   33.7252   49.6715 H   0  0  0  0  0  0  0  0  0  0  0  0
   60.6020   35.1600   48.6824 H   0  0  0  0  0  0  0  0  0  0  0  0
   59.4066   32.3553   48.6298 H   0  0  0  0  0  0  0  0  0  0  0  0
   58.5875   33.9464   48.9187 H   0  0  0  0  0  0  0  0  0  0  0  0
   57.3137   30.4251   46.4067 H   0  0  0  0  0  0  0  0  0  0  0  0
  1  2  2  0
  2  3  1  0
  3  4  1  0
  4  5  1  0
  5  6  1  0
  6  7  2  0
  7  8  1  0
  8  9  2  0
  9 10  1  0
 10 11  2  0
  2 12  1  0
 12 13  1  0
 13 14  2  0
 14 15  1  0
 15 16  2  0
 16 17  1  0
 17 18  1  0
 18 19  2  0
 18 20  1  0
 20 21  1  0
 21 22  1  0
 22 23  1  0
 23 24  1  0
 24 25  2  0
 24 26  1  0
 26 27  2  0
 27 28  1  0
 28 29  2  0
 29 30  1  0
 23 31  1  0
 31 32  1  0
 17 33  2  0
 11  6  1  0
 33 13  1  0
 32 20  1  0
 30 26  1  0
  3 34  1  0
  3 35  1  0
  4 36  1  0
  4 37  1  0
  7 38  1  0
  8 39  1  0
  9 40  1  0
 10 41  1  0
 11 42  1  0
 12 43  1  0
 14 44  1  0
 15 45  1  0
 16 46  1  0
 21 47  1  0
 21 48  1  0
 22 49  1  0
 22 50  1  0
 27 51  1  0
 28 52  1  0
 29 53  1  0
 31 54  1  0
 31 55  1  0
 32 56  1  0
 32 57  1  0
 33 58  1  0
M  END
>  <UniqueID>  (13) 
13

>  <SMILES>  (13) 
O=C(CCOc1ccccc1)Nc1cccc(C(=O)N2CCN(C(=O)c3ccco3)CC2)c1

>  <Energy>  (13) 
95.37712748464067

>  <Genealogy>  (13) 
O=C(CCOc1ccccc1)Nc1cccc(C(=O)N2CCN(C(=O)c3ccco3)CC2)c1 (3D coordinates assigned)
O=C(CCOc1ccccc1)Nc1cccc(C(=O)N2CCN(C(=O)c3ccco3)CC2)c1 (nonaromatic ring conformer: 95.37712748464067 kcal/mol)

>  <smiles>  (13) 
O=C(CCOc1ccccc1)Nc1cccc(C(=O)N2CCN(C(=O)c3ccco3)CC2)c1

>  <score_type>  (13) 
oracle

>  <origin>  (13) 
adg

>  <m_score__min__energy>  (13) 
-8.8399999999999999

>  <m_primary>  (13) 
energy

$$$$
13:0
     RDKit          3D

 59 62  0  0  0  0  0  0  0  0999 V2000
   66.9950   30.5810   51.2810 C   0  0  0  0  0  0  0  0  0  0  0  0
   66.6500   31.8980   51.8400 N   0  0  0  0  0  0  0  0  0  0  0  0
   66.9280   32.9890   50.8790 C   0  0  0  0  0  0  0  0  0  0  0  0
   65.8710   33.0630   49.7660 C   0  0  0  0  0  0  0  0  0  0  0  0
   64.5180   32.9330   50.3140 N   0  0  0  0  0  0  0  0  0  0  0  0
   63.3930   32.7680   49.4310 C   0  0  0  0  0  0  0  0  0  0  0  0
   63.4700   31.8940   48.3360 C   0  0  0  0  0  0  0  0  0  0  0  0
   62.3720   31.7230   47.4870 C   0  0  0  0  0  0  0  0  0  0  0  0
   61.1760   32.4220   47.7220 C   0  0  0  0  0  0  0  0  0  0  0  0
   60.0360   32.2220   46.8610 N   0  0  0  0  0  0  0  0  0  0  0  0
   59.2430   31.1290   47.0580 C   0  0  0  0  0  0  0  0  0  0  0  0
   58.1240   30.9180   46.2540 C   0  0  0  0  0  0  0  0  0  0  0  0
   57.8130   31.8030   45.2620 N   0  0  0  0  0  0  0  0  0  0  0  0
   56.5790   31.5990   44.4870 C   0  0  0  0  0  0  0  0  0  0  0  0
   56.3960   30.1380   44.2230 C   0  0  0  0  0  0  0  0  0  0  0  0
   55.5920   29.4710   44.9290 O   0  0  0  0  0  0  0  0  0  0  0  0
   57.2120   29.4830   43.2450 N   0  0  0  0  0  0  0  0  0  0  0  0
   57.7470   28.1440   43.4820 C   0  0  0  0  0  0  0  0  0  0  0  0
   58.6190   28.1660   44.7080 C   0  0  0  0  0  0  0  0  0  0  0  0
   58.1720   27.5740   45.9010 C   0  0  0  0  0  0  0  0  0  0  0  0
   59.0110   27.5210   47.0200 C   0  0  0  0  0  0  0  0  0  0  0  0
   60.3040   28.0460   46.9510 C   0  0  0  0  0  0  0  0  0  0  0  0
   60.7620   28.6210   45.7630 C   0  0  0  0  0  0  0  0  0  0  0  0
   59.9260   28.6770   44.6430 C   0  0  0  0  0  0  0  0  0  0  0  0
   58.5990   32.9080   45.0640 C   0  0  0  0  0  0  0  0  0  0  0  0
   58.3110   33.7490   44.1670 O   0  0  0  0  0  0  0  0  0  0  0  0
   59.7340   33.1120   45.8640 C   0  0  0  0  0  0  0  0  0  0  0  0
   60.4750   34.1130   45.6490 O   0  0  0  0  0  0  0  0  0  0  0  0
   61.0980   33.2910   48.8210 C   0  0  0  0  0  0  0  0  0  0  0  0
   62.1950   33.4600   49.6700 C   0  0  0  0  0  0  0  0  0  0  0  0
   64.3410   32.9450   51.7700 C   0  0  0  0  0  0  0  0  0  0  0  0
   65.2760   31.9110   52.4140 C   0  0  0  0  0  0  0  0  0  0  0  0
   67.1808   29.8718   52.1011 H   0  0  0  0  0  0  0  0  0  0  0  0
   66.1622   30.2158   50.6620 H   0  0  0  0  0  0  0  0  0  0  0  0
   67.8999   30.6710   50.6620 H   0  0  0  0  0  0  0  0  0  0  0  0
   66.9388   33.9456   51.4220 H   0  0  0  0  0  0  0  0  0  0  0  0
   67.9013   32.7858   50.4085 H   0  0  0  0  0  0  0  0  0  0  0  0
   65.9586   34.0311   49.2511 H   0  0  0  0  0  0  0  0  0  0  0  0
   66.0446   32.2345   49.0636 H   0  0  0  0  0  0  0  0  0  0  0  0
   64.4004   31.3395   48.1441 H   0  0  0  0  0  0  0  0  0  0  0  0
   62.4451   31.0372   46.6301 H   0  0  0  0  0  0  0  0  0  0  0  0
   59.4879   30.4113   47.8548 H   0  0  0  0  0  0  0  0  0  0  0  0
   57.4891   30.0351   46.4194 H   0  0  0  0  0  0  0  0  0  0  0  0
   55.7194   31.9796   45.0582 H   0  0  0  0  0  0  0  0  0  0  0  0
   56.6506   32.1396   43.5317 H   0  0  0  0  0  0  0  0  0  0  0  0
   57.6870   30.0680   42.5220 H   0  0  0  0  0  0  0  0  0  0  0  0
   56.9169   27.4384   43.6342 H   0  0  0  0  0  0  0  0  0  0  0  0
   58.3416   27.8259   42.6129 H   0  0  0  0  0  0  0  0  0  0  0  0
   57.1583   27.1503   45.9559 H   0  0  0  0  0  0  0  0  0  0  0  0
   58.6521   27.0656   47.9547 H   0  0  0  0  0  0  0  0  0  0  0  0
   60.9613   28.0066   47.8321 H   0  0  0  0  0  0  0  0  0  0  0  0
   61.7816   29.0303   45.7083 H   0  0  0  0  0  0  0  0  0  0  0  0
   60.2936   29.1231   43.7071 H   0  0  0  0  0  0  0  0  0  0  0  0
   60.1667   33.8431   49.0156 H   0  0  0  0  0  0  0  0  0  0  0  0
   62.1194   34.1398   50.5314 H   0  0  0  0  0  0  0  0  0  0  0  0
   64.5795   33.9459   52.1590 H   0  0  0  0  0  0  0  0  0  0  0  0
   63.2979   32.6933   52.0121 H   0  0  0  0  0  0  0  0  0  0  0  0
   65.3518   32.1347   53.4883 H   0  0  0  0  0  0  0  0  0  0  0  0
   64.8393   30.9206   52.2179 H   0  0  0  0  0  0  0  0  0  0  0  0
  1  2  1  0
  2  3  1  0
  3  4  1  0
  4  5  1  0
  5  6  1  0
  6  7  2  0
  7  8  1  0
  8  9  2  0
  9 10  1  0
 10 11  1  0
 11 12  2  0
 12 13  1  0
 13 14  1  0
 14 15  1  0
 15 16  2  0
 15 17  1  0
 17 18  1  0
 18 19  1  0
 19 20  2  0
 20 21  1  0
 21 22  2  0
 22 23  1  0
 23 24  2  0
 13 25  1  0
 25 26  2  0
 25 27  1  0
 27 28  2  0
  9 29  1  0
 29 30  2  0
  5 31  1  0
 31 32  1  0
 32  2  1  0
 30  6  1  0
 27 10  1  0
 24 19  1  0
  1 33  1  0
  1 34  1  0
  1 35  1  0
  3 36  1  0
  3 37  1  0
  4 38  1  0
  4 39  1  0
  7 40  1  0
  8 41  1  0
 11 42  1  0
 12 43  1  0
 14 44  1  0
 14 45  1  0
 17 46  1  0
 18 47  1  0
 18 48  1  0
 20 49  1  0
 21 50  1  0
 22 51  1  0
 23 52  1  0
 24 53  1  0
 29 54  1  0
 30 55  1  0
 31 56  1  0
 31 57  1  0
 32 58  1  0
 32 59  1  0
M  END
>  <UniqueID>  (14) 
14

>  <SMILES>  (14) 
CN1CCN(c2ccc(-n3ccn(CC(=O)NCc4ccccc4)c(=O)c3=O)cc2)CC1

>  <Energy>  (14) 
77.84337327164924

>  <Genealogy>  (14) 
CN1CCN(c2ccc(-n3ccn(CC(=O)NCc4ccccc4)c(=O)c3=O)cc2)CC1 (3D coordinates assigned)
CN1CCN(c2ccc(-n3ccn(CC(=O)NCc4ccccc4)c(=O)c3=O)cc2)CC1 (nonaromatic ring conformer: 77.84337327164924 kcal/mol)

>  <smiles>  (14) 
CN1CCN(c2ccc(-n3ccn(CC(=O)NCc4ccccc4)c(=O)c3=O)cc2)CC1

>  <score_type>  (14) 
oracle

>  <origin>  (14) 
adg

>  <m_score__min__energy>  (14) 
-8.5399999999999991

>  <m_primary>  (14) 
energy

$$$$
14:0
     RDKit          3D

 61 63  0  0  0  0  0  0  0  0999 V2000
   57.4060   33.1840   46.9750 C   0  0  0  0  0  0  0  0  0  0  0  0
   57.4580   33.6090   45.5120 C   0  0  0  0  0  0  0  0  0  0  0  0
   58.7930   34.2220   45.1820 C   0  0  0  0  0  0  0  0  0  0  0  0
   59.2600   34.0830   44.0210 O   0  0  0  0  0  0  0  0  0  0  0  0
   59.6060   34.8520   46.1820 N   0  0  0  0  0  0  0  0  0  0  0  0
   60.6050   34.2060   46.9780 C   0  0  0  0  0  0  0  0  0  0  0  0
   61.8440   33.8360   46.4300 C   0  0  0  0  0  0  0  0  0  0  0  0
   62.7880   33.1690   47.2150 C   0  0  0  0  0  0  0  0  0  0  0  0
   62.4980   32.8540   48.5440 C   0  0  0  0  0  0  0  0  0  0  0  0
   61.2550   33.2010   49.0980 C   0  0  0  0  0  0  0  0  0  0  0  0
   60.9270   32.8180   50.5160 C   0  0  0  0  0  0  0  0  0  0  0  0
   59.4490   32.5780   50.6700 C   0  0  0  0  0  0  0  0  0  0  0  0
   58.7320   33.4680   51.2010 O   0  0  0  0  0  0  0  0  0  0  0  0
   58.8200   31.3870   50.1810 N   0  0  0  0  0  0  0  0  0  0  0  0
   59.4700   30.2950   49.5150 C   0  0  0  0  0  0  0  0  0  0  0  0
   59.6580   29.0550   50.1500 C   0  0  0  0  0  0  0  0  0  0  0  0
   60.2670   28.0030   49.4640 C   0  0  0  0  0  0  0  0  0  0  0  0
   60.6740   28.1700   48.1400 C   0  0  0  0  0  0  0  0  0  0  0  0
   60.4650   29.3870   47.4800 C   0  0  0  0  0  0  0  0  0  0  0  0
   60.8740   29.4960   46.1410 O   0  0  0  0  0  0  0  0  0  0  0  0
   60.4510   28.6430   45.0770 C   0  0  0  0  0  0  0  0  0  0  0  0
   59.0540   28.1320   45.3240 C   0  0  0  0  0  0  0  0  0  0  0  0
   57.9530   28.9680   45.1020 C   0  0  0  0  0  0  0  0  0  0  0  0
   56.6450   28.5040   45.3220 C   0  0  0  0  0  0  0  0  0  0  0  0
   55.5240   29.3160   45.0840 O   0  0  0  0  0  0  0  0  0  0  0  0
   55.4720   30.3630   44.1200 C   0  0  0  0  0  0  0  0  0  0  0  0
   56.4440   27.1890   45.7870 C   0  0  0  0  0  0  0  0  0  0  0  0
   55.1450   26.7090   45.9660 O   0  0  0  0  0  0  0  0  0  0  0  0
   57.5520   26.3510   46.0510 C   0  0  0  0  0  0  0  0  0  0  0  0
   57.3950   24.9650   46.5670 C   0  0  0  0  0  0  0  0  0  0  0  0
   58.3270   23.8550   46.1860 C   0  0  0  0  0  0  0  0  0  0  0  0
   56.4440   24.7020   47.3520 O   0  0  0  0  0  0  0  0  0  0  0  0
   58.8480   26.8330   45.8050 C   0  0  0  0  0  0  0  0  0  0  0  0
   59.8550   30.4490   48.1770 C   0  0  0  0  0  0  0  0  0  0  0  0
   60.3050   33.8600   48.3010 C   0  0  0  0  0  0  0  0  0  0  0  0
   57.5144   34.0697   47.6182 H   0  0  0  0  0  0  0  0  0  0  0  0
   56.4416   32.6969   47.1813 H   0  0  0  0  0  0  0  0  0  0  0  0
   58.2245   32.4787   47.1813 H   0  0  0  0  0  0  0  0  0  0  0  0
   57.2982   32.7272   44.8741 H   0  0  0  0  0  0  0  0  0  0  0  0
   56.6718   34.3574   45.3334 H   0  0  0  0  0  0  0  0  0  0  0  0
   62.0719   34.0719   45.3800 H   0  0  0  0  0  0  0  0  0  0  0  0
   63.7617   32.8915   46.7851 H   0  0  0  0  0  0  0  0  0  0  0  0
   63.2458   32.3322   49.1593 H   0  0  0  0  0  0  0  0  0  0  0  0
   61.4720   31.8991   50.7778 H   0  0  0  0  0  0  0  0  0  0  0  0
   61.2250   33.6396   51.1839 H   0  0  0  0  0  0  0  0  0  0  0  0
   59.3248   28.9136   51.1887 H   0  0  0  0  0  0  0  0  0  0  0  0
   60.4266   27.0389   49.9690 H   0  0  0  0  0  0  0  0  0  0  0  0
   61.1629   27.3390   47.6105 H   0  0  0  0  0  0  0  0  0  0  0  0
   60.4667   29.2083   44.1335 H   0  0  0  0  0  0  0  0  0  0  0  0
   61.1358   27.7841   45.0200 H   0  0  0  0  0  0  0  0  0  0  0  0
   58.1135   29.9984   44.7519 H   0  0  0  0  0  0  0  0  0  0  0  0
   55.4238   31.3337   44.6352 H   0  0  0  0  0  0  0  0  0  0  0  0
   56.3731   30.3265   43.4901 H   0  0  0  0  0  0  0  0  0  0  0  0
   54.5790   30.2374   43.4901 H   0  0  0  0  0  0  0  0  0  0  0  0
   54.8800   26.1300   46.7530 H   0  0  0  0  0  0  0  0  0  0  0  0
   58.7246   23.3815   47.0958 H   0  0  0  0  0  0  0  0  0  0  0  0
   57.7824   23.1068   45.5913 H   0  0  0  0  0  0  0  0  0  0  0  0
   59.1581   24.2619   45.5913 H   0  0  0  0  0  0  0  0  0  0  0  0
   59.7137   26.1808   45.9928 H   0  0  0  0  0  0  0  0  0  0  0  0
   59.6797   31.4072   47.6660 H   0  0  0  0  0  0  0  0  0  0  0  0
   59.3179   34.1062   48.7193 H   0  0  0  0  0  0  0  0  0  0  0  0
  1  2  1  0
  2  3  1  0
  3  4  2  0
  3  5  1  0
  5  6  1  0
  6  7  2  0
  7  8  1  0
  8  9  2  0
  9 10  1  0
 10 11  1  0
 11 12  1  0
 12 13  2  0
 12 14  1  0
 14 15  1  0
 15 16  2  0
 16 17  1  0
 17 18  2  0
 18 19  1  0
 19 20  1  0
 20 21  1  0
 21 22  1  0
 22 23  2  0
 23 24  1  0
 24 25  1  0
 25 26  1  0
 24 27  2  0
 27 28  1  0
 27 29  1  0
 29 30  1  0
 30 31  1  0
 30 32  2  0
 29 33  2  0
 19 34  2  0
 10 35  2  0
 35  6  1  0
 34 15  1  0
 33 22  1  0
  1 36  1  0
  1 37  1  0
  1 38  1  0
  2 39  1  0
  2 40  1  0
  7 41  1  0
  8 42  1  0
  9 43  1  0
 11 44  1  0
 11 45  1  0
 16 46  1  0
 17 47  1  0
 18 48  1  0
 21 49  1  0
 21 50  1  0
 23 51  1  0
 26 52  1  0
 26 53  1  0
 26 54  1  0
 28 55  1  0
 31 56  1  0
 31 57  1  0
 31 58  1  0
 33 59  1  0
 34 60  1  0
 35 61  1  0
M  CHG  2   5  -1  14  -1
M  END
>  <UniqueID>  (15) 
15

>  <SMILES>  (15) 
CCC(=O)[N-]c1cccc(CC(=O)[N-]c2cccc(OCc3cc(OC)c(O)c(C(C)=O)c3)c2)c1

>  <Energy>  (15) 
71.22664526473379

>  <Genealogy>  (15) 
CCC(=O)[N-]c1cccc(CC(=O)[N-]c2cccc(OCc3cc(OC)c(O)c(C(C)=O)c3)c2)c1 (protonated)
CCC(=O)[N-]c1cccc(CC(=O)[N-]c2cccc(OCc3cc(OC)c(O)c(C(C)=O)c3)c2)c1 (3D coordinates assigned)
CCC(=O)[N-]c1cccc(CC(=O)[N-]c2cccc(OCc3cc(OC)c(O)c(C(C)=O)c3)c2)c1 (optimized conformer: 71.22664526473379 kcal/mol)

>  <smiles>  (15) 
CCC(=O)Nc1cccc(CC(=O)Nc2cccc(OCc3cc(OC)c(O)c(C(C)=O)c3)c2)c1

>  <score_type>  (15) 
oracle

>  <origin>  (15) 
adg

>  <m_score__min__energy>  (15) 
-12.19

>  <m_primary>  (15) 
energy

$$$$
15:0
     RDKit          3D

 54 57  0  0  0  0  0  0  0  0999 V2000
   55.5520   29.0150   44.7840 O   0  0  0  0  0  0  0  0  0  0  0  0
   56.5430   29.7910   44.9220 C   0  0  0  0  0  0  0  0  0  0  0  0
   56.4040   31.1930   44.6520 N   0  0  0  0  0  0  0  0  0  0  0  0
   57.3060   32.2330   45.0730 C   0  0  0  0  0  0  0  0  0  0  0  0
   57.7910   33.1310   44.1160 C   0  0  0  0  0  0  0  0  0  0  0  0
   58.7470   34.0930   44.4630 C   0  0  0  0  0  0  0  0  0  0  0  0
   59.2360   34.1510   45.7680 C   0  0  0  0  0  0  0  0  0  0  0  0
   58.7710   33.2490   46.7360 C   0  0  0  0  0  0  0  0  0  0  0  0
   59.4320   33.3090   48.3670 S   0  0  0  0  0  0  0  0  0  0  0  0
   58.4290   32.7190   49.3190 O   0  0  0  0  0  0  0  0  0  0  0  0
   59.6810   34.7450   48.7400 O   0  0  0  0  0  0  0  0  0  0  0  0
   60.9380   32.4190   48.4560 N   0  0  0  0  0  0  0  0  0  0  0  0
   61.5840   32.3360   47.1220 C   0  0  0  0  0  0  0  0  0  0  0  0
   62.9460   33.0460   47.0810 C   0  0  0  0  0  0  0  0  0  0  0  0
   63.8280   32.5610   48.0790 O   0  0  0  0  0  0  0  0  0  0  0  0
   63.2380   32.4650   49.3670 C   0  0  0  0  0  0  0  0  0  0  0  0
   61.8090   33.0230   49.4800 C   0  0  0  0  0  0  0  0  0  0  0  0
   57.8020   32.3000   46.3880 C   0  0  0  0  0  0  0  0  0  0  0  0
   57.8380   29.2550   45.3850 C   0  0  0  0  0  0  0  0  0  0  0  0
   58.8060   28.8270   44.4630 C   0  0  0  0  0  0  0  0  0  0  0  0
   60.0550   28.3900   44.9080 C   0  0  0  0  0  0  0  0  0  0  0  0
   60.3530   28.3930   46.2750 C   0  0  0  0  0  0  0  0  0  0  0  0
   59.4040   28.8330   47.2040 C   0  0  0  0  0  0  0  0  0  0  0  0
   59.7370   28.9560   48.5960 N   0  0  0  0  0  0  0  0  0  0  0  0
   58.9230   29.7970   49.4810 C   0  0  0  0  0  0  0  0  0  0  0  0
   59.7650   30.2460   50.6860 C   0  0  0  0  0  0  0  0  0  0  0  0
   60.3830   29.1330   51.3130 O   0  0  0  0  0  0  0  0  0  0  0  0
   61.3160   28.5420   50.4280 C   0  0  0  0  0  0  0  0  0  0  0  0
   60.6080   27.9450   49.2080 C   0  0  0  0  0  0  0  0  0  0  0  0
   58.1420   29.2410   46.7570 C   0  0  0  0  0  0  0  0  0  0  0  0
   57.4180   33.0807   43.0824 H   0  0  0  0  0  0  0  0  0  0  0  0
   59.1125   34.8031   43.7066 H   0  0  0  0  0  0  0  0  0  0  0  0
   59.9885   34.9063   46.0387 H   0  0  0  0  0  0  0  0  0  0  0  0
   61.7312   31.2761   46.8669 H   0  0  0  0  0  0  0  0  0  0  0  0
   60.9239   32.8387   46.3998 H   0  0  0  0  0  0  0  0  0  0  0  0
   63.4024   32.8821   46.0936 H   0  0  0  0  0  0  0  0  0  0  0  0
   62.7768   34.1166   47.2684 H   0  0  0  0  0  0  0  0  0  0  0  0
   63.2110   31.4023   49.6498 H   0  0  0  0  0  0  0  0  0  0  0  0
   63.8588   33.0831   50.0322 H   0  0  0  0  0  0  0  0  0  0  0  0
   61.4081   32.7928   50.4781 H   0  0  0  0  0  0  0  0  0  0  0  0
   61.8383   34.1117   49.3257 H   0  0  0  0  0  0  0  0  0  0  0  0
   57.4253   31.6009   47.1492 H   0  0  0  0  0  0  0  0  0  0  0  0
   58.5798   28.8359   43.3866 H   0  0  0  0  0  0  0  0  0  0  0  0
   60.8058   28.0429   44.1829 H   0  0  0  0  0  0  0  0  0  0  0  0
   61.3384   28.0477   46.6210 H   0  0  0  0  0  0  0  0  0  0  0  0
   58.5757   30.6818   48.9273 H   0  0  0  0  0  0  0  0  0  0  0  0
   58.0562   29.2205   49.8363 H   0  0  0  0  0  0  0  0  0  0  0  0
   60.5428   30.9438   50.3423 H   0  0  0  0  0  0  0  0  0  0  0  0
   59.1033   30.7378   51.4142 H   0  0  0  0  0  0  0  0  0  0  0  0
   62.0291   29.3089   50.0913 H   0  0  0  0  0  0  0  0  0  0  0  0
   61.8425   27.7353   50.9590 H   0  0  0  0  0  0  0  0  0  0  0  0
   61.3588   27.6169   48.4741 H   0  0  0  0  0  0  0  0  0  0  0  0
   60.0000   27.0849   49.5251 H   0  0  0  0  0  0  0  0  0  0  0  0
   57.3806   29.5538   47.4867 H   0  0  0  0  0  0  0  0  0  0  0  0
  1  2  2  0
  2  3  1  0
  3  4  1  0
  4  5  2  0
  5  6  1  0
  6  7  2  0
  7  8  1  0
  8  9  1  0
  9 10  2  0
  9 11  2  0
  9 12  1  0
 12 13  1  0
 13 14  1  0
 14 15  1  0
 15 16  1  0
 16 17  1  0
  8 18  2  0
  2 19  1  0
 19 20  2  0
 20 21  1  0
 21 22  2  0
 22 23  1  0
 23 24  1  0
 24 25  1  0
 25 26  1  0
 26 27  1  0
 27 28  1  0
 28 29  1  0
 23 30  2  0
 18  4  1  0
 30 19  1  0
 17 12  1  0
 29 24  1  0
  5 31  1  0
  6 32  1  0
  7 33  1  0
 13 34  1  0
 13 35  1  0
 14 36  1  0
 14 37  1  0
 16 38  1  0
 16 39  1  0
 17 40  1  0
 17 41  1  0
 18 42  1  0
 20 43  1  0
 21 44  1  0
 22 45  1  0
 25 46  1  0
 25 47  1  0
 26 48  1  0
 26 49  1  0
 28 50  1  0
 28 51  1  0
 29 52  1  0
 29 53  1  0
 30 54  1  0
M  CHG  1   3  -1
M  END
>  <UniqueID>  (16) 
16

>  <SMILES>  (16) 
O=C([N-]c1cccc(S(=O)(=O)N2CCOCC2)c1)c1cccc(N2CCOCC2)c1

>  <Energy>  (16) 
81.10709944896969

>  <Genealogy>  (16) 
O=C([N-]c1cccc(S(=O)(=O)N2CCOCC2)c1)c1cccc(N2CCOCC2)c1 (protonated)
O=C([N-]c1cccc(S(=O)(=O)N2CCOCC2)c1)c1cccc(N2CCOCC2)c1 (3D coordinates assigned)
O=C([N-]c1cccc(S(=O)(=O)N2CCOCC2)c1)c1cccc(N2CCOCC2)c1 (nonaromatic ring conformer: 81.10709944896969 kcal/mol)

>  <smiles>  (16) 
O=C(Nc1cccc(S(=O)(=O)N2CCOCC2)c1)c1cccc(N2CCOCC2)c1

>  <score_type>  (16) 
oracle

>  <origin>  (16) 
adg

>  <m_score__min__energy>  (16) 
-12.56

>  <m_primary>  (16) 
energy

$$$$
16:0
     RDKit          3D

 62 66  0  0  0  0  0  0  0  0999 V2000
   57.6497   28.3760   42.9033 H   0  0  0  0  0  0  0  0  0  0  0  0
   57.7610   28.0000   43.9310 C   0  0  0  0  0  0  0  0  0  0  0  0
   57.7570   26.6640   44.1640 N   0  0  0  0  0  0  0  0  0  0  0  0
   57.9030   26.1650   45.4210 C   0  0  0  0  0  0  0  0  0  0  0  0
   57.8920   24.7380   45.6450 N   0  0  0  0  0  0  0  0  0  0  0  0
   57.6950   24.2210   47.0120 C   0  0  0  0  0  0  0  0  0  0  0  0
   57.0827   24.9437   47.5713 H   0  0  0  0  0  0  0  0  0  0  0  0
   58.6946   24.0873   47.4512 H   0  0  0  0  0  0  0  0  0  0  0  0
   56.9940   22.8470   47.0630 C   0  0  0  0  0  0  0  0  0  0  0  0
   55.9551   23.0045   47.3884 H   0  0  0  0  0  0  0  0  0  0  0  0
   57.5771   22.2269   47.7598 H   0  0  0  0  0  0  0  0  0  0  0  0
   56.9670   22.0900   45.7290 C   0  0  0  0  0  0  0  0  0  0  0  0
   56.0729   22.3989   45.1675 H   0  0  0  0  0  0  0  0  0  0  0  0
   56.9529   21.0143   45.9586 H   0  0  0  0  0  0  0  0  0  0  0  0
   58.2050   22.3620   44.8670 C   0  0  2  0  0  0  0  0  0  0  0  0
   58.0848   21.7992   43.9295 H   0  0  0  0  0  0  0  0  0  0  0  0
   59.4400   21.8690   45.4850 N   0  0  0  0  0  0  0  0  0  0  0  0
   59.4490   20.8260   45.5160 H   0  0  0  0  0  0  0  0  0  0  0  0
   60.2530   22.1710   44.8990 H   0  0  0  0  0  0  0  0  0  0  0  0
   58.3030   23.8590   44.5340 C   0  0  0  0  0  0  0  0  0  0  0  0
   57.6561   24.0661   43.6688 H   0  0  0  0  0  0  0  0  0  0  0  0
   59.3612   24.0750   44.3255 H   0  0  0  0  0  0  0  0  0  0  0  0
   58.0780   27.0250   46.4590 N   0  0  0  0  0  0  0  0  0  0  0  0
   58.0940   28.3740   46.2860 C   0  0  0  0  0  0  0  0  0  0  0  0
   58.3540   29.2230   47.4170 N   0  0  0  0  0  0  0  0  0  0  0  0
   57.7590   30.0670   47.5730 H   0  0  0  0  0  0  0  0  0  0  0  0
   59.5170   29.0030   48.2820 C   0  0  0  0  0  0  0  0  0  0  0  0
   59.5142   27.9057   48.3585 H   0  0  0  0  0  0  0  0  0  0  0  0
   59.4810   29.8790   49.5300 C   0  0  0  0  0  0  0  0  0  0  0  0
   58.5902   30.5202   49.6034 H   0  0  0  0  0  0  0  0  0  0  0  0
   59.4475   29.4229   50.5304 H   0  0  0  0  0  0  0  0  0  0  0  0
   60.7330   30.6050   49.0540 C   0  0  0  0  0  0  0  0  0  0  0  0
   60.5805   31.6753   48.8509 H   0  0  0  0  0  0  0  0  0  0  0  0
   61.6154   30.6752   49.7070 H   0  0  0  0  0  0  0  0  0  0  0  0
   60.7700   29.7360   47.8050 C   0  0  0  0  0  0  0  0  0  0  0  0
   60.6351   30.2926   46.8659 H   0  0  0  0  0  0  0  0  0  0  0  0
   61.6789   29.1746   47.5427 H   0  0  0  0  0  0  0  0  0  0  0  0
   57.9060   28.9040   44.9910 C   0  0  0  0  0  0  0  0  0  0  0  0
   57.8310   30.3540   44.7150 C   0  0  0  0  0  0  0  0  0  0  0  0
   57.8010   31.2330   45.7550 N   0  0  0  0  0  0  0  0  0  0  0  0
   57.7630   32.5830   45.5680 C   0  0  0  0  0  0  0  0  0  0  0  0
   57.7290   33.3960   46.5810 N   0  0  0  0  0  0  0  0  0  0  0  0
   58.5640   34.5870   46.7010 C   0  0  0  0  0  0  0  0  0  0  0  0
   58.6325   35.0872   45.7237 H   0  0  0  0  0  0  0  0  0  0  0  0
   58.1186   35.2758   47.4340 H   0  0  0  0  0  0  0  0  0  0  0  0
   59.9370   34.1890   47.1570 C   0  0  0  0  0  0  0  0  0  0  0  0
   60.9350   33.8870   46.2160 C   0  0  0  0  0  0  0  0  0  0  0  0
   60.7012   33.9125   45.1414 H   0  0  0  0  0  0  0  0  0  0  0  0
   62.2250   33.5540   46.6410 C   0  0  0  0  0  0  0  0  0  0  0  0
   63.0013   33.3099   45.9009 H   0  0  0  0  0  0  0  0  0  0  0  0
   62.5290   33.5310   48.0050 C   0  0  0  0  0  0  0  0  0  0  0  0
   63.5435   33.2656   48.3373 H   0  0  0  0  0  0  0  0  0  0  0  0
   61.5450   33.8450   48.9480 C   0  0  0  0  0  0  0  0  0  0  0  0
   61.9310   33.8270   50.6590 Cl  0  0  0  0  0  0  0  0  0  0  0  0
   60.2530   34.1790   48.5250 C   0  0  0  0  0  0  0  0  0  0  0  0
   59.4824   34.4346   49.2672 H   0  0  0  0  0  0  0  0  0  0  0  0
   57.7640   33.1000   44.2680 C   0  0  0  0  0  0  0  0  0  0  0  0
   57.7250   34.1868   44.1030 H   0  0  0  0  0  0  0  0  0  0  0  0
   57.8150   32.2240   43.1820 C   0  0  0  0  0  0  0  0  0  0  0  0
   57.8221   32.6191   42.1554 H   0  0  0  0  0  0  0  0  0  0  0  0
   57.8570   30.8460   43.4010 C   0  0  0  0  0  0  0  0  0  0  0  0
   57.9101   30.1510   42.5500 H   0  0  0  0  0  0  0  0  0  0  0  0
  1  2  1  0
  2  3  2  0
  3  4  1  0
  4  5  1  0
  5  6  1  0
  6  7  1  0
  6  8  1  0
  6  9  1  0
  9 10  1  0
  9 11  1  0
  9 12  1  0
 12 13  1  0
 12 14  1  0
 12 15  1  0
 15 16  1  6
 15 17  1  0
 17 18  1  0
 17 19  1  0
 15 20  1  0
 20 21  1  0
 20 22  1  0
  4 23  2  0
 23 24  1  0
 24 25  1  0
 25 26  1  0
 25 27  1  0
 27 28  1  0
 27 29  1  0
 29 30  1  0
 29 31  1  0
 29 32  1  0
 32 33  1  0
 32 34  1  0
 32 35  1  0
 35 36  1  0
 35 37  1  0
 24 38  2  0
 38 39  1  0
 39 40  1  0
 40 41  1  0
 41 42  2  0
 42 43  1  0
 43 44  1  0
 43 45  1  0
 43 46  1  0
 46 47  2  0
 47 48  1  0
 47 49  1  0
 49 50  1  0
 49 51  2  0
 51 52  1  0
 51 53  1  0
 53 54  1  0
 53 55  2  0
 55 56  1  0
 41 57  1  0
 57 58  1  0
 57 59  2  0
 59 60  1  0
 59 61  1  0
 61 62  1  0
 38  2  1  0
 61 39  2  0
 20  5  1  0
 35 27  1  0
 55 46  1  0
M  CHG  1  40  -1
M  END
>  <UniqueID>  (17) 
17

>  <SMILES>  (17) 
N[C@H]1CCCN(c2ncc(-c3ccc/c(=N/Cc4cccc(Cl)c4)[n-]3)c(NC3CCC3)n2)C1

>  <Energy>  (17) 
134.7218651043468

>  <Genealogy>  (17) 
NC1CCCN(c2ncc(-c3cccc(=NCc4cccc(Cl)c4)[n-]3)c(NC3CCC3)n2)C1 (protonated)
N[C@H]1CCCN(c2ncc(-c3cccc(=NCc4cccc(Cl)c4)[n-]3)c(NC3CCC3)n2)C1 (chirality)
N[C@H]1CCCN(c2ncc(-c3ccc/c(=N/Cc4cccc(Cl)c4)[n-]3)c(NC3CCC3)n2)C1 (cis-trans isomerization)
N[C@H]1CCCN(c2ncc(-c3ccc/c(=N/Cc4cccc(Cl)c4)[n-]3)c(NC3CCC3)n2)C1 (3D coordinates assigned)
N[C@H]1CCCN(c2ncc(-c3ccc/c(=N/Cc4cccc(Cl)c4)[n-]3)c(NC3CCC3)n2)C1 (nonaromatic ring conformer: 134.7218651043468 kcal/mol)

>  <smiles>  (17) 
NC1CCCN(c2ncc(-c3cccc(=NCc4cccc(Cl)c4)[nH]3)c(NC3CCC3)n2)C1

>  <score_type>  (17) 
oracle

>  <origin>  (17) 
adg

>  <m_score__min__energy>  (17) 
-10.550000000000001

>  <m_primary>  (17) 
energy

$$$$
17:0
     RDKit          3D

 45 47  0  0  0  0  0  0  0  0999 V2000
   59.6490   35.8960   46.4910 N   0  0  0  0  0  0  0  0  0  0  0  0
   59.2250   34.8550   47.1330 C   0  0  0  0  0  0  0  0  0  0  0  0
   59.3250   34.8180   48.5610 N   0  0  0  0  0  0  0  0  0  0  0  0
   58.6410   33.7190   46.3810 C   0  0  0  0  0  0  0  0  0  0  0  0
   57.9740   33.9410   45.1620 C   0  0  0  0  0  0  0  0  0  0  0  0
   57.4060   32.8760   44.4590 C   0  0  0  0  0  0  0  0  0  0  0  0
   57.4880   31.5740   44.9660 C   0  0  0  0  0  0  0  0  0  0  0  0
   56.7620   30.2340   44.0760 S   0  0  0  0  0  0  0  0  0  0  0  0
   56.2650   30.7330   42.7500 O   0  0  0  0  0  0  0  0  0  0  0  0
   55.6000   29.6640   44.8420 O   0  0  0  0  0  0  0  0  0  0  0  0
   57.9360   28.9780   43.8110 N   0  0  0  0  0  0  0  0  0  0  0  0
   58.5110   28.1750   44.8530 C   0  0  0  0  0  0  0  0  0  0  0  0
   59.7470   28.5510   45.3920 C   0  0  0  0  0  0  0  0  0  0  0  0
   60.3670   27.7600   46.3640 C   0  0  0  0  0  0  0  0  0  0  0  0
   59.7510   26.5900   46.8120 C   0  0  0  0  0  0  0  0  0  0  0  0
   58.5040   26.2050   46.3040 C   0  0  0  0  0  0  0  0  0  0  0  0
   57.8500   24.9550   46.8520 C   0  0  0  0  0  0  0  0  0  0  0  0
   57.3610   24.0490   45.7870 N   0  0  0  0  0  0  0  0  0  0  0  0
   58.2220   23.1980   45.1270 C   0  0  0  0  0  0  0  0  0  0  0  0
   59.6290   23.1620   45.4240 N   0  0  0  0  0  0  0  0  0  0  0  0
   57.7340   22.3500   44.1270 C   0  0  0  0  0  0  0  0  0  0  0  0
   56.3850   22.4000   43.7990 C   0  0  0  0  0  0  0  0  0  0  0  0
   55.9240   21.6540   42.8960 O   0  0  0  0  0  0  0  0  0  0  0  0
   55.5660   23.2550   44.4510 N   0  0  0  0  0  0  0  0  0  0  0  0
   56.0310   24.0730   45.4290 C   0  0  0  0  0  0  0  0  0  0  0  0
   55.2170   24.8520   46.0030 O   0  0  0  0  0  0  0  0  0  0  0  0
   57.8800   27.0140   45.3290 C   0  0  0  0  0  0  0  0  0  0  0  0
   58.1460   31.3440   46.1810 C   0  0  0  0  0  0  0  0  0  0  0  0
   58.7160   32.4060   46.8840 C   0  0  0  0  0  0  0  0  0  0  0  0
   59.3890   36.8650   46.7800 H   0  0  0  0  0  0  0  0  0  0  0  0
   59.6510   35.6570   49.0940 H   0  0  0  0  0  0  0  0  0  0  0  0
   59.1590   33.9350   49.0930 H   0  0  0  0  0  0  0  0  0  0  0  0
   57.8993   34.9619   44.7593 H   0  0  0  0  0  0  0  0  0  0  0  0
   56.8926   33.0611   43.5039 H   0  0  0  0  0  0  0  0  0  0  0  0
   60.2340   29.4755   45.0483 H   0  0  0  0  0  0  0  0  0  0  0  0
   61.3417   28.0600   46.7764 H   0  0  0  0  0  0  0  0  0  0  0  0
   60.2485   25.9662   47.5692 H   0  0  0  0  0  0  0  0  0  0  0  0
   58.5858   24.4129   47.4642 H   0  0  0  0  0  0  0  0  0  0  0  0
   56.9786   25.2698   47.4449 H   0  0  0  0  0  0  0  0  0  0  0  0
   60.1070   23.8910   45.9920 H   0  0  0  0  0  0  0  0  0  0  0  0
   60.2370   22.4240   45.0020 H   0  0  0  0  0  0  0  0  0  0  0  0
   58.4089   21.6536   43.6078 H   0  0  0  0  0  0  0  0  0  0  0  0
   56.8908   26.7323   44.9389 H   0  0  0  0  0  0  0  0  0  0  0  0
   58.2136   30.3221   46.5825 H   0  0  0  0  0  0  0  0  0  0  0  0
   59.2281   32.2159   47.8388 H   0  0  0  0  0  0  0  0  0  0  0  0
  1  2  2  3
  2  3  1  0
  2  4  1  0
  4  5  2  0
  5  6  1  0
  6  7  2  0
  7  8  1  0
  8  9  2  0
  8 10  2  0
  8 11  1  0
 11 12  1  0
 12 13  2  0
 13 14  1  0
 14 15  2  0
 15 16  1  0
 16 17  1  0
 17 18  1  0
 18 19  1  0
 19 20  1  0
 19 21  2  0
 21 22  1  0
 22 23  2  0
 22 24  1  0
 24 25  1  0
 25 26  2  0
 16 27  2  0
  7 28  1  0
 28 29  2  0
 29  4  1  0
 27 12  1  0
 25 18  1  0
  1 30  1  0
  3 31  1  0
  3 32  1  0
  5 33  1  0
  6 34  1  0
 13 35  1  0
 14 36  1  0
 15 37  1  0
 17 38  1  0
 17 39  1  0
 20 40  1  0
 20 41  1  0
 21 42  1  0
 27 43  1  0
 28 44  1  0
 29 45  1  0
M  CHG  2  11  -1  24  -1
M  END
>  <UniqueID>  (18) 
18

>  <SMILES>  (18) 
N=C(N)c1ccc(S(=O)(=O)[N-]c2cccc(Cn3c(N)cc(=O)[n-]c3=O)c2)cc1

>  <Energy>  (18) 
55.67935964817608

>  <Genealogy>  (18) 
N=C(N)c1ccc(S(=O)(=O)[N-]c2cccc(Cn3c(N)cc(=O)[n-]c3=O)c2)cc1 (protonated)
N=C(N)c1ccc(S(=O)(=O)[N-]c2cccc(Cn3c(N)cc(=O)[n-]c3=O)c2)cc1 (3D coordinates assigned)
N=C(N)c1ccc(S(=O)(=O)[N-]c2cccc(Cn3c(N)cc(=O)[n-]c3=O)c2)cc1 (optimized conformer: 55.67935964817608 kcal/mol)

>  <smiles>  (18) 
N=C(N)c1ccc(S(=O)(=O)Nc2cccc(Cn3c(N)cc(=O)[nH]c3=O)c2)cc1

>  <score_type>  (18) 
oracle

>  <origin>  (18) 
adg

>  <m_score__min__energy>  (18) 
-12.06

>  <m_primary>  (18) 
energy

$$$$
18:0
     RDKit          3D

 55 57  0  0  0  0  0  0  0  0999 V2000
   57.8470   27.4610   43.0700 C   0  0  0  0  0  0  0  0  0  0  0  0
   57.5540   28.7380   43.7840 C   0  0  0  0  0  0  0  0  0  0  0  0
   56.3690   29.4500   43.7680 C   0  0  0  0  0  0  0  0  0  0  0  0
   56.4680   30.4880   44.6210 N   0  0  0  0  0  0  0  0  0  0  0  0
   57.6710   30.4410   45.1720 N   0  0  0  0  0  0  0  0  0  0  0  0
   58.1390   31.3850   46.1840 C   0  0  0  0  0  0  0  0  0  0  0  0
   59.2530   32.2960   45.6250 C   0  0  1  0  0  0  0  0  0  0  0  0
   58.6890   33.5830   44.9820 C   0  0  0  0  0  0  0  0  0  0  0  0
   58.1210   34.5690   46.0190 C   0  0  0  0  0  0  0  0  0  0  0  0
   58.9430   34.6390   47.3240 C   0  0  0  0  0  0  0  0  0  0  0  0
   60.3310   34.0100   47.1820 C   0  0  0  0  0  0  0  0  0  0  0  0
   60.2070   32.6240   46.7020 N   0  0  0  0  0  0  0  0  0  0  0  0
   61.1330   31.6210   47.1610 C   0  0  0  0  0  0  0  0  0  0  0  0
   60.8110   30.4040   47.0970 O   0  0  0  0  0  0  0  0  0  0  0  0
   62.4110   32.0110   47.7910 C   0  0  0  0  0  0  0  0  0  0  0  0
   63.4340   32.6720   47.1540 C   0  0  0  0  0  0  0  0  0  0  0  0
   64.4150   32.9040   48.0380 N   0  0  0  0  0  0  0  0  0  0  0  0
   64.0850   32.4070   49.2280 N   0  0  0  0  0  0  0  0  0  0  0  0
   64.9290   32.5590   50.4510 C   0  0  0  0  0  0  0  0  0  0  0  0
   66.3570   33.0390   50.0850 C   0  0  0  0  0  0  0  0  0  0  0  0
   64.3000   33.6140   51.3800 C   0  0  0  0  0  0  0  0  0  0  0  0
   65.0840   31.2130   51.1990 C   0  0  0  0  0  0  0  0  0  0  0  0
   62.8340   31.8670   49.1110 C   0  0  0  0  0  0  0  0  0  0  0  0
   62.0840   31.1170   50.1810 C   0  0  0  0  0  0  0  0  0  0  0  0
   58.3570   29.3840   44.6970 C   0  0  0  0  0  0  0  0  0  0  0  0
   58.0300   26.6635   43.8052 H   0  0  0  0  0  0  0  0  0  0  0  0
   56.9881   27.1882   42.4392 H   0  0  0  0  0  0  0  0  0  0  0  0
   58.7389   27.5899   42.4392 H   0  0  0  0  0  0  0  0  0  0  0  0
   55.4870   29.2078   43.1569 H   0  0  0  0  0  0  0  0  0  0  0  0
   57.2943   32.0098   46.5098 H   0  0  0  0  0  0  0  0  0  0  0  0
   58.5481   30.8138   47.0304 H   0  0  0  0  0  0  0  0  0  0  0  0
   59.7730   31.7465   44.8265 H   0  0  0  0  0  0  0  0  0  0  0  0
   59.4976   34.0826   44.4282 H   0  0  0  0  0  0  0  0  0  0  0  0
   57.8625   33.2871   44.3192 H   0  0  0  0  0  0  0  0  0  0  0  0
   58.0986   35.5722   45.5684 H   0  0  0  0  0  0  0  0  0  0  0  0
   57.1178   34.2081   46.2899 H   0  0  0  0  0  0  0  0  0  0  0  0
   59.0625   35.6948   47.6085 H   0  0  0  0  0  0  0  0  0  0  0  0
   58.3974   34.0703   48.0914 H   0  0  0  0  0  0  0  0  0  0  0  0
   60.9238   34.5935   46.4622 H   0  0  0  0  0  0  0  0  0  0  0  0
   60.8303   34.0102   48.1621 H   0  0  0  0  0  0  0  0  0  0  0  0
   63.4459   32.9629   46.0932 H   0  0  0  0  0  0  0  0  0  0  0  0
   65.2920   33.4140   47.8020 H   0  0  0  0  0  0  0  0  0  0  0  0
   66.9268   33.2305   51.0062 H   0  0  0  0  0  0  0  0  0  0  0  0
   66.8649   32.2622   49.4945 H   0  0  0  0  0  0  0  0  0  0  0  0
   66.2925   33.9649   49.4945 H   0  0  0  0  0  0  0  0  0  0  0  0
   64.4706   33.3278   52.4283 H   0  0  0  0  0  0  0  0  0  0  0  0
   64.7615   34.5938   51.1876 H   0  0  0  0  0  0  0  0  0  0  0  0
   63.2186   33.6739   51.1876 H   0  0  0  0  0  0  0  0  0  0  0  0
   65.0634   31.3921   52.2841 H   0  0  0  0  0  0  0  0  0  0  0  0
   64.2571   30.5424   50.9223 H   0  0  0  0  0  0  0  0  0  0  0  0
   66.0416   30.7479   50.9223 H   0  0  0  0  0  0  0  0  0  0  0  0
   62.4223   31.4553   51.1715 H   0  0  0  0  0  0  0  0  0  0  0  0
   61.0060   31.3091   50.0764 H   0  0  0  0  0  0  0  0  0  0  0  0
   62.2761   30.0390   50.0764 H   0  0  0  0  0  0  0  0  0  0  0  0
   59.3765   29.0894   44.9866 H   0  0  0  0  0  0  0  0  0  0  0  0
  1  2  1  0
  2  3  1  0
  3  4  2  0
  4  5  1  0
  5  6  1  0
  6  7  1  0
  7  8  1  0
  8  9  1  0
  9 10  1  0
 10 11  1  0
 11 12  1  0
 12 13  1  0
 13 14  2  0
 13 15  1  0
 15 16  1  0
 16 17  2  0
 17 18  1  0
 18 19  1  0
 19 20  1  0
 19 21  1  0
 19 22  1  0
 18 23  1  0
 23 24  1  0
  5 25  1  0
 25  2  2  0
 12  7  1  0
 23 15  2  0
  1 26  1  0
  1 27  1  0
  1 28  1  0
  3 29  1  0
  6 30  1  0
  6 31  1  0
  7 32  1  6
  8 33  1  0
  8 34  1  0
  9 35  1  0
  9 36  1  0
 10 37  1  0
 10 38  1  0
 11 39  1  0
 11 40  1  0
 16 41  1  0
 17 42  1  0
 20 43  1  0
 20 44  1  0
 20 45  1  0
 21 46  1  0
 21 47  1  0
 21 48  1  0
 22 49  1  0
 22 50  1  0
 22 51  1  0
 24 52  1  0
 24 53  1  0
 24 54  1  0
 25 55  1  0
M  CHG  1  17   1
M  END
>  <UniqueID>  (19) 
19

>  <SMILES>  (19) 
Cc1cnn(C[C@H]2CCCCN2C(=O)c2c[nH+]n(C(C)(C)C)c2C)c1

>  <Energy>  (19) 
121.51877745114842

>  <Genealogy>  (19) 
Cc1cnn(CC2CCCCN2C(=O)c2c[nH+]n(C(C)(C)C)c2C)c1 (protonated)
Cc1cnn(C[C@H]2CCCCN2C(=O)c2c[nH+]n(C(C)(C)C)c2C)c1 (chirality)
Cc1cnn(C[C@H]2CCCCN2C(=O)c2c[nH+]n(C(C)(C)C)c2C)c1 (3D coordinates assigned)
Cc1cnn(C[C@H]2CCCCN2C(=O)c2c[nH+]n(C(C)(C)C)c2C)c1 (nonaromatic ring conformer: 121.51877745114842 kcal/mol)

>  <smiles>  (19) 
Cc1cnn(CC2CCCCN2C(=O)c2cnn(C(C)(C)C)c2C)c1

>  <score_type>  (19) 
oracle

>  <origin>  (19) 
adg

>  <m_score__min__energy>  (19) 
-6.9500000000000002

>  <m_primary>  (19) 
energy

$$$$
19:0
     RDKit          3D

 44 47  0  0  0  0  0  0  0  0999 V2000
   56.9494   31.3150   41.2304 H   0  0  0  0  0  0  0  0  0  0  0  0
   57.0180   31.2180   42.3240 C   0  0  0  0  0  0  0  0  0  0  0  0
   56.3920   30.1920   42.9550 N   0  0  0  0  0  0  0  0  0  0  0  0
   56.4610   30.0530   44.3040 C   0  0  0  0  0  0  0  0  0  0  0  0
   55.8500   29.0590   44.8750 N   0  0  0  0  0  0  0  0  0  0  0  0
   56.5330   27.9600   45.5510 C   0  0  0  0  0  0  0  0  0  0  0  0
   56.3801   27.0294   44.9848 H   0  0  0  0  0  0  0  0  0  0  0  0
   56.1246   27.8427   46.5656 H   0  0  0  0  0  0  0  0  0  0  0  0
   58.0060   28.2610   45.6340 C   0  0  0  0  0  0  0  0  0  0  0  0
   58.5290   28.8340   46.8070 C   0  0  0  0  0  0  0  0  0  0  0  0
   57.8582   29.0740   47.6451 H   0  0  0  0  0  0  0  0  0  0  0  0
   59.8970   29.1000   46.9130 C   0  0  0  0  0  0  0  0  0  0  0  0
   60.2976   29.5544   47.8311 H   0  0  0  0  0  0  0  0  0  0  0  0
   60.7560   28.7910   45.8580 C   0  0  0  0  0  0  0  0  0  0  0  0
   61.8313   29.0067   45.9432 H   0  0  0  0  0  0  0  0  0  0  0  0
   60.2510   28.2080   44.6940 C   0  0  0  0  0  0  0  0  0  0  0  0
   60.9321   27.9601   43.8666 H   0  0  0  0  0  0  0  0  0  0  0  0
   58.8820   27.9370   44.5740 C   0  0  0  0  0  0  0  0  0  0  0  0
   58.3040   27.1810   43.0930 Cl  0  0  0  0  0  0  0  0  0  0  0  0
   57.1700   30.9540   45.0380 N   0  0  0  0  0  0  0  0  0  0  0  0
   57.8180   31.9990   44.4550 C   0  0  0  0  0  0  0  0  0  0  0  0
   58.5530   32.9260   45.2760 N   0  0  0  0  0  0  0  0  0  0  0  0
   58.5310   34.3620   45.0510 C   0  0  0  0  0  0  0  0  0  0  0  0
   58.8076   34.5903   44.0111 H   0  0  0  0  0  0  0  0  0  0  0  0
   57.5284   34.7814   45.2211 H   0  0  0  0  0  0  0  0  0  0  0  0
   59.5540   34.9530   46.0130 C   0  0  0  0  0  0  0  0  0  0  0  0
   60.4838   35.2015   45.4804 H   0  0  0  0  0  0  0  0  0  0  0  0
   59.1905   35.8830   46.4744 H   0  0  0  0  0  0  0  0  0  0  0  0
   59.8110   33.8620   47.0590 C   0  0  2  0  0  0  0  0  0  0  0  0
   59.2359   34.0529   47.9770 H   0  0  0  0  0  0  0  0  0  0  0  0
   61.2130   33.8340   47.4980 N   0  0  0  0  0  0  0  0  0  0  0  0
   62.3040   33.6460   46.7270 C   0  0  0  0  0  0  0  0  0  0  0  0
   62.3014   33.4814   45.6394 H   0  0  0  0  0  0  0  0  0  0  0  0
   63.4250   33.6950   47.5330 C   0  0  0  0  0  0  0  0  0  0  0  0
   64.4752   33.5786   47.2272 H   0  0  0  0  0  0  0  0  0  0  0  0
   62.9400   33.9220   48.8070 C   0  0  0  0  0  0  0  0  0  0  0  0
   63.5510   34.0217   49.7162 H   0  0  0  0  0  0  0  0  0  0  0  0
   61.5990   34.0010   48.7530 N   0  0  0  0  0  0  0  0  0  0  0  0
   60.9590   34.1680   49.5620 H   0  0  0  0  0  0  0  0  0  0  0  0
   59.3830   32.5460   46.4090 C   0  0  0  0  0  0  0  0  0  0  0  0
   60.2632   31.9808   46.0687 H   0  0  0  0  0  0  0  0  0  0  0  0
   58.8407   31.8990   47.1143 H   0  0  0  0  0  0  0  0  0  0  0  0
   57.7480   32.1490   43.0620 C   0  0  0  0  0  0  0  0  0  0  0  0
   58.2590   32.9848   42.5616 H   0  0  0  0  0  0  0  0  0  0  0  0
  1  2  1  0
  2  3  1  0
  3  4  1  0
  4  5  2  0
  5  6  1  0
  6  7  1  0
  6  8  1  0
  6  9  1  0
  9 10  2  0
 10 11  1  0
 10 12  1  0
 12 13  1  0
 12 14  2  0
 14 15  1  0
 14 16  1  0
 16 17  1  0
 16 18  2  0
 18 19  1  0
  4 20  1  0
 20 21  2  0
 21 22  1  0
 22 23  1  0
 23 24  1  0
 23 25  1  0
 23 26  1  0
 26 27  1  0
 26 28  1  0
 26 29  1  0
 29 30  1  1
 29 31  1  0
 31 32  1  0
 32 33  1  0
 32 34  2  0
 34 35  1  0
 34 36  1  0
 36 37  1  0
 36 38  2  0
 38 39  1  0
 29 40  1  0
 40 41  1  0
 40 42  1  0
 21 43  1  0
 43 44  1  0
 43  2  2  0
 18  9  1  0
 40 22  1  0
 38 31  1  0
M  CHG  2   3  -1  38   1
M  END
>  <UniqueID>  (20) 
20

>  <SMILES>  (20) 
Clc1ccccc1C/N=c1\nc(N2CC[C@H](n3ccc[nH+]3)C2)cc[n-]1

>  <Energy>  (20) 
79.20679399770871

>  <Genealogy>  (20) 
Clc1ccccc1CN=c1nc(N2CCC(n3ccc[nH+]3)C2)cc[n-]1 (protonated)
Clc1ccccc1CN=c1nc(N2CC[C@H](n3ccc[nH+]3)C2)cc[n-]1 (chirality)
Clc1ccccc1C/N=c1\nc(N2CC[C@H](n3ccc[nH+]3)C2)cc[n-]1 (cis-trans isomerization)
Clc1ccccc1C/N=c1\nc(N2CC[C@H](n3ccc[nH+]3)C2)cc[n-]1 (3D coordinates assigned)
Clc1ccccc1C/N=c1\nc(N2CC[C@H](n3ccc[nH+]3)C2)cc[n-]1 (nonaromatic ring conformer: 79.20679399770871 kcal/mol)

>  <smiles>  (20) 
Clc1ccccc1CN=c1nc(N2CCC(n3cccn3)C2)cc[nH]1

>  <score_type>  (20) 
oracle

>  <origin>  (20) 
adg

>  <m_score__min__energy>  (20) 
-8.9800000000000004

>  <m_primary>  (20) 
energy

$$$$
20:0
     RDKit          3D

 69 73  0  0  0  0  0  0  0  0999 V2000
   60.9310   34.2790   46.7550 C   0  0  0  0  0  0  0  0  0  0  0  0
   59.3990   34.1320   46.7160 C   0  0  2  0  0  0  0  0  0  0  0  0
   58.8810   34.9270   47.7570 O   0  0  0  0  0  0  0  0  0  0  0  0
   59.0060   32.6430   46.9680 C   0  0  0  0  0  0  0  0  0  0  0  0
   58.9190   31.8400   45.6630 C   0  0  0  0  0  0  0  0  0  0  0  0
   57.8570   32.4140   44.6890 C   0  0  1  0  0  0  0  0  0  0  0  0
   56.5950   31.6870   44.8410 N   0  0  0  0  0  0  0  0  0  0  0  0
   56.3310   30.3440   44.4150 C   0  0  0  0  0  0  0  0  0  0  0  0
   55.4520   30.1580   43.5340 O   0  0  0  0  0  0  0  0  0  0  0  0
   57.0540   29.1730   44.9530 C   0  0  0  0  0  0  0  0  0  0  0  0
   57.7370   29.1570   46.1700 C   0  0  0  0  0  0  0  0  0  0  0  0
   58.3120   27.9020   46.2520 C   0  0  0  0  0  0  0  0  0  0  0  0
   59.1300   27.2980   47.2190 C   0  0  0  0  0  0  0  0  0  0  0  0
   59.4800   27.9590   48.5010 C   0  0  0  0  0  0  0  0  0  0  0  0
   58.7320   29.0510   48.9730 C   0  0  0  0  0  0  0  0  0  0  0  0
   59.0170   29.6200   50.2160 C   0  0  0  0  0  0  0  0  0  0  0  0
   60.0520   29.1140   51.0110 C   0  0  0  0  0  0  0  0  0  0  0  0
   60.2480   29.6680   52.3190 N   0  0  0  0  0  0  0  0  0  0  0  0
   59.4970   29.3630   53.4980 C   0  0  0  0  0  0  0  0  0  0  0  0
   60.1130   29.0090   54.5410 O   0  0  0  0  0  0  0  0  0  0  0  0
   58.0660   29.3870   53.4810 N   0  0  0  0  0  0  0  0  0  0  0  0
   57.2630   30.4870   54.0120 C   0  0  0  0  0  0  0  0  0  0  0  0
   55.8950   30.5180   53.3770 C   0  0  0  0  0  0  0  0  0  0  0  0
   55.7030   31.1270   52.1260 C   0  0  0  0  0  0  0  0  0  0  0  0
   54.4310   31.1600   51.5420 C   0  0  0  0  0  0  0  0  0  0  0  0
   53.3360   30.5880   52.2030 C   0  0  0  0  0  0  0  0  0  0  0  0
   51.7390   30.6550   51.4580 S   0  0  0  0  0  0  0  0  0  0  0  0
   51.2910   32.3030   51.1880 N   0  0  0  0  0  0  0  0  0  0  0  0
   51.7460   29.9280   50.1410 O   0  0  0  0  0  0  0  0  0  0  0  0
   50.7390   30.0010   52.3690 O   0  0  0  0  0  0  0  0  0  0  0  0
   53.5220   29.9770   53.4530 C   0  0  0  0  0  0  0  0  0  0  0  0
   54.7940   29.9430   54.0370 C   0  0  0  0  0  0  0  0  0  0  0  0
   60.7940   28.0120   50.5500 C   0  0  0  0  0  0  0  0  0  0  0  0
   60.5150   27.4470   49.3020 C   0  0  0  0  0  0  0  0  0  0  0  0
   59.5930   25.9930   46.9310 C   0  0  0  0  0  0  0  0  0  0  0  0
   59.2300   25.3600   45.7210 C   0  0  0  0  0  0  0  0  0  0  0  0
   58.4280   25.9970   44.8190 N   0  0  0  0  0  0  0  0  0  0  0  0
   57.9820   27.2450   45.0970 C   0  0  0  0  0  0  0  0  0  0  0  0
   57.2190   28.0010   44.2930 N   0  0  0  0  0  0  0  0  0  0  0  0
   57.5940   33.9200   44.9070 C   0  0  0  0  0  0  0  0  0  0  0  0
   58.8710   34.6530   45.3400 C   0  0  0  0  0  0  0  0  0  0  0  0
   61.2697   34.3115   47.8010 H   0  0  0  0  0  0  0  0  0  0  0  0
   61.3947   33.4212   46.2459 H   0  0  0  0  0  0  0  0  0  0  0  0
   61.2232   35.2093   46.2459 H   0  0  0  0  0  0  0  0  0  0  0  0
   58.9810   35.8800   47.4990 H   0  0  0  0  0  0  0  0  0  0  0  0
   58.0266   32.6144   47.4680 H   0  0  0  0  0  0  0  0  0  0  0  0
   59.7874   32.1878   47.5943 H   0  0  0  0  0  0  0  0  0  0  0  0
   58.6526   30.8004   45.9043 H   0  0  0  0  0  0  0  0  0  0  0  0
   59.8985   31.8983   45.1657 H   0  0  0  0  0  0  0  0  0  0  0  0
   58.2611   32.2876   43.6738 H   0  0  0  0  0  0  0  0  0  0  0  0
   57.8038   29.9703   46.9076 H   0  0  0  0  0  0  0  0  0  0  0  0
   57.9163   29.4604   48.3590 H   0  0  0  0  0  0  0  0  0  0  0  0
   58.4227   30.4737   50.5737 H   0  0  0  0  0  0  0  0  0  0  0  0
   57.1516   30.3582   55.0987 H   0  0  0  0  0  0  0  0  0  0  0  0
   57.7747   31.4339   53.7848 H   0  0  0  0  0  0  0  0  0  0  0  0
   56.5571   31.5807   51.6020 H   0  0  0  0  0  0  0  0  0  0  0  0
   54.2908   31.6367   50.5606 H   0  0  0  0  0  0  0  0  0  0  0  0
   50.2830   32.3040   50.9080 H   0  0  0  0  0  0  0  0  0  0  0  0
   52.6663   29.5238   53.9750 H   0  0  0  0  0  0  0  0  0  0  0  0
   54.9331   29.4640   55.0174 H   0  0  0  0  0  0  0  0  0  0  0  0
   61.5972   27.5928   51.1738 H   0  0  0  0  0  0  0  0  0  0  0  0
   61.1107   26.5944   48.9440 H   0  0  0  0  0  0  0  0  0  0  0  0
   60.2380   25.4689   47.6516 H   0  0  0  0  0  0  0  0  0  0  0  0
   59.5967   24.3458   45.5043 H   0  0  0  0  0  0  0  0  0  0  0  0
   56.8840   27.7440   43.3390 H   0  0  0  0  0  0  0  0  0  0  0  0
   56.8293   34.0406   45.6885 H   0  0  0  0  0  0  0  0  0  0  0  0
   57.2509   34.3534   43.9560 H   0  0  0  0  0  0  0  0  0  0  0  0
   58.6533   35.7278   45.4256 H   0  0  0  0  0  0  0  0  0  0  0  0
   59.6466   34.4667   44.5826 H   0  0  0  0  0  0  0  0  0  0  0  0
  1  2  1  0
  2  3  1  1
  2  4  1  0
  4  5  1  0
  5  6  1  0
  6  7  1  0
  7  8  1  0
  8  9  2  0
  8 10  1  0
 10 11  2  0
 11 12  1  0
 12 13  2  0
 13 14  1  0
 14 15  2  0
 15 16  1  0
 16 17  2  0
 17 18  1  0
 18 19  1  0
 19 20  2  0
 19 21  1  0
 21 22  1  0
 22 23  1  0
 23 24  2  0
 24 25  1  0
 25 26  2  0
 26 27  1  0
 27 28  1  0
 27 29  2  0
 27 30  2  0
 26 31  1  0
 31 32  2  0
 17 33  1  0
 33 34  2  0
 13 35  1  0
 35 36  2  0
 36 37  1  0
 37 38  2  0
 38 39  1  0
  6 40  1  0
 40 41  1  0
 41  2  1  0
 39 10  1  0
 38 12  1  0
 34 14  1  0
 32 23  1  0
  1 42  1  0
  1 43  1  0
  1 44  1  0
  3 45  1  0
  4 46  1  0
  4 47  1  0
  5 48  1  0
  5 49  1  0
  6 50  1  6
 11 51  1  0
 15 52  1  0
 16 53  1  0
 22 54  1  0
 22 55  1  0
 24 56  1  0
 25 57  1  0
 28 58  1  0
 31 59  1  0
 32 60  1  0
 33 61  1  0
 34 62  1  0
 35 63  1  0
 36 64  1  0
 39 65  1  0
 40 66  1  0
 40 67  1  0
 41 68  1  0
 41 69  1  0
M  CHG  4   7  -1  18  -1  21  -1  28  -1
M  END
>  <UniqueID>  (21) 
21

>  <SMILES>  (21) 
CC1(O)CCC([N-]C(=O)c2cc3c(-c4ccc([N-]C(=O)[N-]Cc5ccc(S([NH-])(=O)=O)cc5)cc4)ccnc3[nH]2)CC1

>  <Energy>  (21) 
123.68799262027461

>  <Genealogy>  (21) 
CC1(O)CCC([N-]C(=O)c2cc3c(-c4ccc([N-]C(=O)[N-]Cc5ccc(S([NH-])(=O)=O)cc5)cc4)ccnc3[nH]2)CC1 (protonated)
CC1(O)CCC([N-]C(=O)c2cc3c(-c4ccc([N-]C(=O)[N-]Cc5ccc(S([NH-])(=O)=O)cc5)cc4)ccnc3[nH]2)CC1 (3D coordinates assigned)
CC1(O)CCC([N-]C(=O)c2cc3c(-c4ccc([N-]C(=O)[N-]Cc5ccc(S([NH-])(=O)=O)cc5)cc4)ccnc3[nH]2)CC1 (nonaromatic ring conformer: 123.68799262027461 kcal/mol)

>  <smiles>  (21) 
CC1(O)CCC(NC(=O)c2cc3c(-c4ccc(NC(=O)NCc5ccc(S(N)(=O)=O)cc5)cc4)ccnc3[nH]2)CC1

>  <score_type>  (21) 
oracle

>  <origin>  (21) 
adg

>  <m_score__min__energy>  (21) 
-17.079999999999998

>  <m_primary>  (21) 
energy

$$$$
21:0
     RDKit          3D

 38 40  0  0  0  0  0  0  0  0999 V2000
   56.1100   25.6370   46.6310 O   0  0  0  0  0  0  0  0  0  0  0  0
   56.6690   26.6840   46.2130 C   0  0  0  0  0  0  0  0  0  0  0  0
   55.8860   27.7170   45.6180 N   0  0  0  0  0  0  0  0  0  0  0  0
   56.4870   28.9130   45.1190 C   0  0  0  0  0  0  0  0  0  0  0  0
   55.7380   29.8540   44.7470 O   0  0  0  0  0  0  0  0  0  0  0  0
   57.9720   29.0490   45.1080 C   0  0  0  0  0  0  0  0  0  0  0  0
   58.6240   30.0700   44.5080 C   0  0  0  0  0  0  0  0  0  0  0  0
   58.4450   31.5000   44.8350 C   0  0  0  0  0  0  0  0  0  0  0  0
   58.7630   31.9740   46.1170 C   0  0  0  0  0  0  0  0  0  0  0  0
   58.5650   33.3220   46.4440 C   0  0  0  0  0  0  0  0  0  0  0  0
   58.8990   33.8400   47.7860 C   0  0  0  0  0  0  0  0  0  0  0  0
   59.1990   35.0570   47.9130 O   0  0  0  0  0  0  0  0  0  0  0  0
   58.9330   32.9990   48.9460 N   0  0  0  0  0  0  0  0  0  0  0  0
   59.8880   31.9190   49.1690 C   0  0  0  0  0  0  0  0  0  0  0  0
   61.2460   32.3540   48.7020 C   0  0  0  0  0  0  0  0  0  0  0  0
   61.8880   31.6670   47.6580 C   0  0  0  0  0  0  0  0  0  0  0  0
   63.1390   32.0910   47.2010 C   0  0  0  0  0  0  0  0  0  0  0  0
   63.7520   33.2090   47.7740 C   0  0  0  0  0  0  0  0  0  0  0  0
   63.1120   33.9070   48.8020 C   0  0  0  0  0  0  0  0  0  0  0  0
   61.8610   33.4850   49.2620 C   0  0  0  0  0  0  0  0  0  0  0  0
   57.9840   34.1650   45.4870 C   0  0  0  0  0  0  0  0  0  0  0  0
   57.6530   33.6840   44.2610 N   0  0  0  0  0  0  0  0  0  0  0  0
   57.8630   32.3870   43.9130 C   0  0  0  0  0  0  0  0  0  0  0  0
   57.4050   31.8630   42.2990 Cl  0  0  0  0  0  0  0  0  0  0  0  0
   58.7450   28.0030   45.8270 C   0  0  0  0  0  0  0  0  0  0  0  0
   59.9920   28.1120   45.9740 O   0  0  0  0  0  0  0  0  0  0  0  0
   58.0820   26.8460   46.3470 N   0  0  0  0  0  0  0  0  0  0  0  0
   59.3433   29.8168   43.7152 H   0  0  0  0  0  0  0  0  0  0  0  0
   59.1702   31.2830   46.8698 H   0  0  0  0  0  0  0  0  0  0  0  0
   59.9277   31.6792   50.2418 H   0  0  0  0  0  0  0  0  0  0  0  0
   59.5734   31.0269   48.6076 H   0  0  0  0  0  0  0  0  0  0  0  0
   61.4044   30.7923   47.1986 H   0  0  0  0  0  0  0  0  0  0  0  0
   63.6417   31.5443   46.3896 H   0  0  0  0  0  0  0  0  0  0  0  0
   64.7382   33.5395   47.4158 H   0  0  0  0  0  0  0  0  0  0  0  0
   63.5930   34.7892   49.2495 H   0  0  0  0  0  0  0  0  0  0  0  0
   61.3566   34.0413   50.0658 H   0  0  0  0  0  0  0  0  0  0  0  0
   57.7953   35.2211   45.7301 H   0  0  0  0  0  0  0  0  0  0  0  0
   58.6420   26.1010   46.8210 H   0  0  0  0  0  0  0  0  0  0  0  0
  1  2  2  0
  2  3  1  0
  3  4  1  0
  4  5  2  0
  4  6  1  0
  6  7  2  3
  7  8  1  0
  8  9  2  0
  9 10  1  0
 10 11  1  0
 11 12  2  0
 11 13  1  0
 13 14  1  0
 14 15  1  0
 15 16  2  0
 16 17  1  0
 17 18  2  0
 18 19  1  0
 19 20  2  0
 10 21  2  0
 21 22  1  0
 22 23  2  0
 23 24  1  0
  6 25  1  0
 25 26  2  0
 25 27  1  0
 27  2  1  0
 23  8  1  0
 20 15  1  0
  7 28  1  0
  9 29  1  0
 14 30  1  0
 14 31  1  0
 16 32  1  0
 17 33  1  0
 18 34  1  0
 19 35  1  0
 20 36  1  0
 21 37  1  0
 27 38  1  0
M  CHG  2   3  -1  13  -1
M  END
>  <UniqueID>  (22) 
22

>  <SMILES>  (22) 
O=C1[N-]C(=O)C(=Cc2cc(C(=O)[N-]Cc3ccccc3)cnc2Cl)C(=O)N1

>  <Energy>  (22) 
52.25328676877882

>  <Genealogy>  (22) 
O=C1[N-]C(=O)C(=Cc2cc(C(=O)[N-]Cc3ccccc3)cnc2Cl)C(=O)N1 (protonated)
O=C1[N-]C(=O)C(=Cc2cc(C(=O)[N-]Cc3ccccc3)cnc2Cl)C(=O)N1 (3D coordinates assigned)
O=C1[N-]C(=O)C(=Cc2cc(C(=O)[N-]Cc3ccccc3)cnc2Cl)C(=O)N1 (nonaromatic ring conformer: 52.25328676877882 kcal/mol)

>  <smiles>  (22) 
O=C1NC(=O)C(=Cc2cc(C(=O)NCc3ccccc3)cnc2Cl)C(=O)N1

>  <score_type>  (22) 
oracle

>  <origin>  (22) 
adg

>  <m_score__min__energy>  (22) 
-13.16

>  <m_primary>  (22) 
energy

$$$$
22:0
     RDKit          3D

 48 50  0  0  0  0  0  0  0  0999 V2000
   62.5420   34.2780   49.4610 C   0  0  0  0  0  0  0  0  0  0  0  0
   61.4450   33.8600   48.5400 C   0  0  0  0  0  0  0  0  0  0  0  0
   61.1570   32.5550   48.1680 C   0  0  0  0  0  0  0  0  0  0  0  0
   60.0560   32.4510   47.3020 C   0  0  0  0  0  0  0  0  0  0  0  0
   59.6160   31.1330   46.7200 C   0  0  0  0  0  0  0  0  0  0  0  0
   60.7610   30.3380   46.2760 N   0  0  0  0  0  0  0  0  0  0  0  0
   60.6950   29.0730   45.6030 C   0  0  0  0  0  0  0  0  0  0  0  0
   61.6660   28.7100   44.8890 O   0  0  0  0  0  0  0  0  0  0  0  0
   59.5530   28.1620   45.7730 C   0  0  0  0  0  0  0  0  0  0  0  0
   58.4220   28.2760   44.9550 C   0  0  0  0  0  0  0  0  0  0  0  0
   57.3120   27.4510   45.1680 C   0  0  0  0  0  0  0  0  0  0  0  0
   57.3190   26.4990   46.2030 C   0  0  0  0  0  0  0  0  0  0  0  0
   56.1340   25.6470   46.4530 C   0  0  0  0  0  0  0  0  0  0  0  0
   54.8520   26.0180   45.9480 N   0  0  0  0  0  0  0  0  0  0  0  0
   56.2450   24.5840   47.1220 O   0  0  0  0  0  0  0  0  0  0  0  0
   58.4690   26.3740   47.0040 C   0  0  0  0  0  0  0  0  0  0  0  0
   59.5790   27.1940   46.7850 C   0  0  0  0  0  0  0  0  0  0  0  0
   59.4520   33.6860   47.0340 C   0  0  0  0  0  0  0  0  0  0  0  0
   58.2630   33.9490   46.1570 C   0  0  0  0  0  0  0  0  0  0  0  0
   58.5790   33.5870   44.7330 C   0  0  0  0  0  0  0  0  0  0  0  0
   59.4410   34.2660   44.1130 O   0  0  0  0  0  0  0  0  0  0  0  0
   57.8850   32.5290   44.0470 N   0  0  0  0  0  0  0  0  0  0  0  0
   57.9770   32.3360   42.6100 C   0  0  0  0  0  0  0  0  0  0  0  0
   57.0080   31.2070   42.2850 C   0  0  0  0  0  0  0  0  0  0  0  0
   56.7130   30.5120   43.6120 C   0  0  0  0  0  0  0  0  0  0  0  0
   57.0710   31.5170   44.6990 C   0  0  0  0  0  0  0  0  0  0  0  0
   60.3110   34.8850   47.8480 S   0  0  0  0  0  0  0  0  0  0  0  0
   62.2134   34.1528   50.5033 H   0  0  0  0  0  0  0  0  0  0  0  0
   63.4305   33.6554   49.2793 H   0  0  0  0  0  0  0  0  0  0  0  0
   62.7909   35.3340   49.2793 H   0  0  0  0  0  0  0  0  0  0  0  0
   61.7345   31.6864   48.5172 H   0  0  0  0  0  0  0  0  0  0  0  0
   59.0644   30.5693   47.4867 H   0  0  0  0  0  0  0  0  0  0  0  0
   58.9756   31.3352   45.8488 H   0  0  0  0  0  0  0  0  0  0  0  0
   58.4062   29.0168   44.1420 H   0  0  0  0  0  0  0  0  0  0  0  0
   56.4276   27.5478   44.5212 H   0  0  0  0  0  0  0  0  0  0  0  0
   54.7640   26.7040   45.1670 H   0  0  0  0  0  0  0  0  0  0  0  0
   58.4944   25.6248   47.8090 H   0  0  0  0  0  0  0  0  0  0  0  0
   60.4769   27.0788   47.4099 H   0  0  0  0  0  0  0  0  0  0  0  0
   57.4131   33.3440   46.5058 H   0  0  0  0  0  0  0  0  0  0  0  0
   58.0086   35.0180   46.2079 H   0  0  0  0  0  0  0  0  0  0  0  0
   57.6871   33.2552   42.0799 H   0  0  0  0  0  0  0  0  0  0  0  0
   59.0034   32.0939   42.2969 H   0  0  0  0  0  0  0  0  0  0  0  0
   56.0817   31.6112   41.8508 H   0  0  0  0  0  0  0  0  0  0  0  0
   57.4344   30.5085   41.5499 H   0  0  0  0  0  0  0  0  0  0  0  0
   55.6481   30.2437   43.6748 H   0  0  0  0  0  0  0  0  0  0  0  0
   57.2898   29.5813   43.7171 H   0  0  0  0  0  0  0  0  0  0  0  0
   56.1601   31.9692   45.1182 H   0  0  0  0  0  0  0  0  0  0  0  0
   57.6075   31.0396   45.5322 H   0  0  0  0  0  0  0  0  0  0  0  0
  1  2  1  0
  2  3  2  0
  3  4  1  0
  4  5  1  0
  5  6  1  0
  6  7  1  0
  7  8  2  0
  7  9  1  0
  9 10  2  0
 10 11  1  0
 11 12  2  0
 12 13  1  0
 13 14  1  0
 13 15  2  0
 12 16  1  0
 16 17  2  0
  4 18  2  0
 18 19  1  0
 19 20  1  0
 20 21  2  0
 20 22  1  0
 22 23  1  0
 23 24  1  0
 24 25  1  0
 25 26  1  0
 18 27  1  0
 27  2  1  0
 17  9  1  0
 26 22  1  0
  1 28  1  0
  1 29  1  0
  1 30  1  0
  3 31  1  0
  5 32  1  0
  5 33  1  0
 10 34  1  0
 11 35  1  0
 14 36  1  0
 16 37  1  0
 17 38  1  0
 19 39  1  0
 19 40  1  0
 23 41  1  0
 23 42  1  0
 24 43  1  0
 24 44  1  0
 25 45  1  0
 25 46  1  0
 26 47  1  0
 26 48  1  0
M  CHG  2   6  -1  14  -1
M  END
>  <UniqueID>  (23) 
23

>  <SMILES>  (23) 
Cc1cc(C[N-]C(=O)c2ccc(C([NH-])=O)cc2)c(CC(=O)N2CCCC2)s1

>  <Energy>  (23) 
70.96250109577164

>  <Genealogy>  (23) 
Cc1cc(C[N-]C(=O)c2ccc(C([NH-])=O)cc2)c(CC(=O)N2CCCC2)s1 (protonated)
Cc1cc(C[N-]C(=O)c2ccc(C([NH-])=O)cc2)c(CC(=O)N2CCCC2)s1 (3D coordinates assigned)
Cc1cc(C[N-]C(=O)c2ccc(C([NH-])=O)cc2)c(CC(=O)N2CCCC2)s1 (nonaromatic ring conformer: 70.96250109577164 kcal/mol)

>  <smiles>  (23) 
Cc1cc(CNC(=O)c2ccc(C(N)=O)cc2)c(CC(=O)N2CCCC2)s1

>  <score_type>  (23) 
oracle

>  <origin>  (23) 
adg

>  <m_score__min__energy>  (23) 
-12.529999999999999

>  <m_primary>  (23) 
energy

$$$$
23:0
     RDKit          3D

 52 55  0  0  0  0  0  0  0  0999 V2000
   56.6270   30.6600   42.6350 C   0  0  0  0  0  0  0  0  0  0  0  0
   57.0910   29.7910   43.7590 C   0  0  0  0  0  0  0  0  0  0  0  0
   57.0460   28.4480   43.7130 N   0  0  0  0  0  0  0  0  0  0  0  0
   57.5130   28.0590   44.9210 C   0  0  0  0  0  0  0  0  0  0  0  0
   57.6300   26.6120   45.3590 C   0  0  0  0  0  0  0  0  0  0  0  0
   56.4930   26.3330   46.3330 C   0  0  0  0  0  0  0  0  0  0  0  0
   55.1420   26.6720   46.0160 N   0  0  0  0  0  0  0  0  0  0  0  0
   56.7440   25.8040   47.4500 O   0  0  0  0  0  0  0  0  0  0  0  0
   59.0300   26.4020   46.0050 C   0  0  0  0  0  0  0  0  0  0  0  0
   59.4610   24.9180   46.0040 C   0  0  0  0  0  0  0  0  0  0  0  0
   58.3510   24.0570   45.8520 O   0  0  0  0  0  0  0  0  0  0  0  0
   57.8090   24.1840   44.5480 C   0  0  0  0  0  0  0  0  0  0  0  0
   57.5130   25.6500   44.1490 C   0  0  0  0  0  0  0  0  0  0  0  0
   57.8480   29.0910   45.7270 N   0  0  0  0  0  0  0  0  0  0  0  0
   57.5950   30.1870   44.9870 C   0  0  0  0  0  0  0  0  0  0  0  0
   57.8040   31.5620   45.4890 C   0  0  0  0  0  0  0  0  0  0  0  0
   56.8710   32.5800   45.2340 C   0  0  0  0  0  0  0  0  0  0  0  0
   57.0990   33.8760   45.6990 C   0  0  0  0  0  0  0  0  0  0  0  0
   58.2590   34.1730   46.4180 C   0  0  0  0  0  0  0  0  0  0  0  0
   59.2100   33.1710   46.6810 C   0  0  0  0  0  0  0  0  0  0  0  0
   60.4490   33.4740   47.4370 C   0  0  0  0  0  0  0  0  0  0  0  0
   61.0490   34.5660   47.2350 O   0  0  0  0  0  0  0  0  0  0  0  0
   60.9940   32.5290   48.3720 N   0  0  0  0  0  0  0  0  0  0  0  0
   62.0680   32.8620   49.2640 C   0  0  0  0  0  0  0  0  0  0  0  0
   61.7990   32.9940   50.6350 C   0  0  0  0  0  0  0  0  0  0  0  0
   62.8220   33.3140   51.5300 C   0  0  0  0  0  0  0  0  0  0  0  0
   64.1220   33.5210   51.0620 C   0  0  0  0  0  0  0  0  0  0  0  0
   64.3960   33.4190   49.6960 C   0  0  0  0  0  0  0  0  0  0  0  0
   63.3760   33.0990   48.7910 C   0  0  0  0  0  0  0  0  0  0  0  0
   63.7550   33.0840   47.0730 Cl  0  0  0  0  0  0  0  0  0  0  0  0
   58.9780   31.8700   46.1960 C   0  0  0  0  0  0  0  0  0  0  0  0
   56.1458   31.5612   43.0428 H   0  0  0  0  0  0  0  0  0  0  0  0
   57.4891   30.9522   42.0175 H   0  0  0  0  0  0  0  0  0  0  0  0
   55.9046   30.1062   42.0175 H   0  0  0  0  0  0  0  0  0  0  0  0
   54.5080   27.0840   46.7350 H   0  0  0  0  0  0  0  0  0  0  0  0
   59.7714   26.9858   45.4397 H   0  0  0  0  0  0  0  0  0  0  0  0
   58.9701   26.7338   47.0521 H   0  0  0  0  0  0  0  0  0  0  0  0
   60.1607   24.7495   45.1722 H   0  0  0  0  0  0  0  0  0  0  0  0
   59.9400   24.6968   46.9692 H   0  0  0  0  0  0  0  0  0  0  0  0
   58.5277   23.7645   43.8286 H   0  0  0  0  0  0  0  0  0  0  0  0
   56.8509   23.6437   44.5390 H   0  0  0  0  0  0  0  0  0  0  0  0
   58.2319   25.9607   43.3766 H   0  0  0  0  0  0  0  0  0  0  0  0
   56.4808   25.6995   43.7720 H   0  0  0  0  0  0  0  0  0  0  0  0
   55.9566   32.3551   44.6654 H   0  0  0  0  0  0  0  0  0  0  0  0
   56.3617   34.6672   45.4983 H   0  0  0  0  0  0  0  0  0  0  0  0
   58.4298   35.1973   46.7809 H   0  0  0  0  0  0  0  0  0  0  0  0
   60.7660   31.5170   48.2460 H   0  0  0  0  0  0  0  0  0  0  0  0
   60.7748   32.8443   51.0073 H   0  0  0  0  0  0  0  0  0  0  0  0
   62.6041   33.4032   52.6045 H   0  0  0  0  0  0  0  0  0  0  0  0
   64.9292   33.7641   51.7686 H   0  0  0  0  0  0  0  0  0  0  0  0
   65.4186   33.5910   49.3290 H   0  0  0  0  0  0  0  0  0  0  0  0
   59.7265   31.0837   46.3731 H   0  0  0  0  0  0  0  0  0  0  0  0
  1  2  1  0
  2  3  1  0
  3  4  2  0
  4  5  1  0
  5  6  1  0
  6  7  1  0
  6  8  2  0
  5  9  1  0
  9 10  1  0
 10 11  1  0
 11 12  1  0
 12 13  1  0
  4 14  1  0
 14 15  1  0
 15 16  1  0
 16 17  2  0
 17 18  1  0
 18 19  2  0
 19 20  1  0
 20 21  1  0
 21 22  2  0
 21 23  1  0
 23 24  1  0
 24 25  2  0
 25 26  1  0
 26 27  2  0
 27 28  1  0
 28 29  2  0
 29 30  1  0
 20 31  2  0
 15  2  2  0
 31 16  1  0
 13  5  1  0
 29 24  1  0
  1 32  1  0
  1 33  1  0
  1 34  1  0
  7 35  1  0
  9 36  1  0
  9 37  1  0
 10 38  1  0
 10 39  1  0
 12 40  1  0
 12 41  1  0
 13 42  1  0
 13 43  1  0
 17 44  1  0
 18 45  1  0
 19 46  1  0
 23 47  1  0
 25 48  1  0
 26 49  1  0
 27 50  1  0
 28 51  1  0
 31 52  1  0
M  CHG  2   7  -1  14  -1
M  END
>  <UniqueID>  (24) 
24

>  <SMILES>  (24) 
Cc1nc(C2(C([NH-])=O)CCOCC2)[n-]c1-c1cccc(C(=O)Nc2ccccc2Cl)c1

>  <Energy>  (24) 
104.95778253164134

>  <Genealogy>  (24) 
Cc1nc(C2(C([NH-])=O)CCOCC2)[n-]c1-c1cccc(C(=O)Nc2ccccc2Cl)c1 (protonated)
Cc1nc(C2(C([NH-])=O)CCOCC2)[n-]c1-c1cccc(C(=O)Nc2ccccc2Cl)c1 (3D coordinates assigned)
Cc1nc(C2(C([NH-])=O)CCOCC2)[n-]c1-c1cccc(C(=O)Nc2ccccc2Cl)c1 (nonaromatic ring conformer: 104.95778253164134 kcal/mol)

>  <smiles>  (24) 
Cc1nc(C2(C(N)=O)CCOCC2)[nH]c1-c1cccc(C(=O)Nc2ccccc2Cl)c1

>  <score_type>  (24) 
oracle

>  <origin>  (24) 
adg

>  <m_score__min__energy>  (24) 
-13.99

>  <m_primary>  (24) 
energy

$$$$
24:0
     RDKit          3D

 48 50  0  0  0  0  0  0  0  0999 V2000
   60.2880   28.3690   47.5350 C   0  0  0  0  0  0  0  0  0  0  0  0
   59.0940   29.2160   47.9710 C   0  0  0  0  0  0  0  0  0  0  0  0
   58.3820   29.8180   46.7650 C   0  0  0  0  0  0  0  0  0  0  0  0
   58.5840   31.1890   46.4490 C   0  0  0  0  0  0  0  0  0  0  0  0
   59.7110   31.9320   46.9770 N   0  0  0  0  0  0  0  0  0  0  0  0
   61.0870   31.4710   46.7120 C   0  0  0  0  0  0  0  0  0  0  0  0
   62.0090   31.7870   47.8650 C   0  0  0  0  0  0  0  0  0  0  0  0
   61.9380   31.0070   49.0330 C   0  0  0  0  0  0  0  0  0  0  0  0
   62.7730   31.2790   50.1200 C   0  0  0  0  0  0  0  0  0  0  0  0
   63.6880   32.3290   50.0530 C   0  0  0  0  0  0  0  0  0  0  0  0
   63.7790   33.1060   48.8950 C   0  0  0  0  0  0  0  0  0  0  0  0
   62.9510   32.8390   47.7980 C   0  0  0  0  0  0  0  0  0  0  0  0
   63.1350   33.8350   46.3600 Cl  0  0  0  0  0  0  0  0  0  0  0  0
   59.4850   33.0790   47.8350 C   0  0  0  0  0  0  0  0  0  0  0  0
   59.4880   34.2400   47.3460 O   0  0  0  0  0  0  0  0  0  0  0  0
   59.1830   32.9370   49.2740 C   0  0  0  0  0  0  0  0  0  0  0  0
   58.3360   32.0070   49.8670 C   0  0  0  0  0  0  0  0  0  0  0  0
   58.2690   32.1280   51.2600 C   0  0  0  0  0  0  0  0  0  0  0  0
   59.0670   33.1420   51.7710 C   0  0  0  0  0  0  0  0  0  0  0  0
   59.8600   33.8830   50.4890 S   0  0  0  0  0  0  0  0  0  0  0  0
   57.7500   31.7760   45.4890 C   0  0  0  0  0  0  0  0  0  0  0  0
   57.8920   32.9820   45.1570 O   0  0  0  0  0  0  0  0  0  0  0  0
   56.8030   31.0350   44.8750 N   0  0  0  0  0  0  0  0  0  0  0  0
   56.6600   29.7130   45.1220 C   0  0  0  0  0  0  0  0  0  0  0  0
   55.7780   29.0770   44.4810 O   0  0  0  0  0  0  0  0  0  0  0  0
   57.4660   29.0790   46.0370 N   0  0  0  0  0  0  0  0  0  0  0  0
   57.4210   27.6010   46.1300 C   0  0  0  0  0  0  0  0  0  0  0  0
   58.2200   26.9790   45.0200 C   0  0  0  0  0  0  0  0  0  0  0  0
   57.7850   27.0800   43.6650 N   0  0  0  0  0  0  0  0  0  0  0  0
   59.2800   26.3530   45.2860 O   0  0  0  0  0  0  0  0  0  0  0  0
   60.8161   27.9944   48.4243 H   0  0  0  0  0  0  0  0  0  0  0  0
   59.9342   27.5188   46.9334 H   0  0  0  0  0  0  0  0  0  0  0  0
   60.9735   28.9839   46.9334 H   0  0  0  0  0  0  0  0  0  0  0  0
   58.3872   28.5823   48.5267 H   0  0  0  0  0  0  0  0  0  0  0  0
   59.4593   30.0355   48.6074 H   0  0  0  0  0  0  0  0  0  0  0  0
   61.0747   30.3827   46.5523 H   0  0  0  0  0  0  0  0  0  0  0  0
   61.4599   31.9941   45.8190 H   0  0  0  0  0  0  0  0  0  0  0  0
   61.2195   30.1762   49.0914 H   0  0  0  0  0  0  0  0  0  0  0  0
   62.7084   30.6640   51.0297 H   0  0  0  0  0  0  0  0  0  0  0  0
   64.3390   32.5460   50.9127 H   0  0  0  0  0  0  0  0  0  0  0  0
   64.5046   33.9313   48.8451 H   0  0  0  0  0  0  0  0  0  0  0  0
   57.7745   31.2514   49.2980 H   0  0  0  0  0  0  0  0  0  0  0  0
   57.6425   31.4800   51.8906 H   0  0  0  0  0  0  0  0  0  0  0  0
   59.1635   33.4136   52.8326 H   0  0  0  0  0  0  0  0  0  0  0  0
   57.8394   27.2863   47.0974 H   0  0  0  0  0  0  0  0  0  0  0  0
   56.3753   27.2709   46.0436 H   0  0  0  0  0  0  0  0  0  0  0  0
   58.3510   26.6530   42.8980 H   0  0  0  0  0  0  0  0  0  0  0  0
   56.9000   27.5760   43.4190 H   0  0  0  0  0  0  0  0  0  0  0  0
  1  2  1  0
  2  3  1  0
  3  4  2  0
  4  5  1  0
  5  6  1  0
  6  7  1  0
  7  8  2  0
  8  9  1  0
  9 10  2  0
 10 11  1  0
 11 12  2  0
 12 13  1  0
  5 14  1  0
 14 15  2  0
 14 16  1  0
 16 17  2  0
 17 18  1  0
 18 19  2  0
 19 20  1  0
  4 21  1  0
 21 22  2  0
 21 23  1  0
 23 24  1  0
 24 25  2  0
 24 26  1  0
 26 27  1  0
 27 28  1  0
 28 29  1  0
 28 30  2  0
 26  3  1  0
 12  7  1  0
 20 16  1  0
  1 31  1  0
  1 32  1  0
  1 33  1  0
  2 34  1  0
  2 35  1  0
  6 36  1  0
  6 37  1  0
  8 38  1  0
  9 39  1  0
 10 40  1  0
 11 41  1  0
 17 42  1  0
 18 43  1  0
 19 44  1  0
 27 45  1  0
 27 46  1  0
 29 47  1  0
 29 48  1  0
M  CHG  1  23  -1
M  END
>  <UniqueID>  (25) 
25

>  <SMILES>  (25) 
CCc1c(N(Cc2ccccc2Cl)C(=O)c2cccs2)c(=O)[n-]c(=O)n1CC(N)=O

>  <Energy>  (25) 
89.18913821509325

>  <Genealogy>  (25) 
CCc1c(N(Cc2ccccc2Cl)C(=O)c2cccs2)c(=O)[n-]c(=O)n1CC(N)=O (protonated)
CCc1c(N(Cc2ccccc2Cl)C(=O)c2cccs2)c(=O)[n-]c(=O)n1CC(N)=O (3D coordinates assigned)
CCc1c(N(Cc2ccccc2Cl)C(=O)c2cccs2)c(=O)[n-]c(=O)n1CC(N)=O (optimized conformer: 89.18913821509325 kcal/mol)

>  <smiles>  (25) 
CCc1c(N(Cc2ccccc2Cl)C(=O)c2cccs2)c(=O)[nH]c(=O)n1CC(N)=O

>  <score_type>  (25) 
oracle

>  <origin>  (25) 
adg

>  <m_score__min__energy>  (25) 
-10.220000000000001

>  <m_primary>  (25) 
energy

$$$$
25:0
     RDKit          3D

 61 64  0  0  0  0  0  0  0  0999 V2000
   67.3690   33.0010   50.6310 C   0  0  0  0  0  0  0  0  0  0  0  0
   65.8900   33.0540   50.2290 C   0  0  0  0  0  0  0  0  0  0  0  0
   65.2870   31.6320   50.1220 C   0  0  0  0  0  0  0  0  0  0  0  0
   63.8400   31.5480   50.6450 C   0  0  0  0  0  0  0  0  0  0  0  0
   63.0330   32.7400   50.3160 N   0  0  0  0  0  0  0  0  0  0  0  0
   62.5630   32.7780   48.6310 S   0  0  0  0  0  0  0  0  0  0  0  0
   61.9300   34.1040   48.3150 O   0  0  0  0  0  0  0  0  0  0  0  0
   63.7620   32.6000   47.7420 O   0  0  0  0  0  0  0  0  0  0  0  0
   61.3970   31.5100   48.2850 C   0  0  0  0  0  0  0  0  0  0  0  0
   61.6450   30.3030   47.6640 C   0  0  0  0  0  0  0  0  0  0  0  0
   60.4960   29.5980   47.6470 N   0  0  0  0  0  0  0  0  0  0  0  0
   60.3310   28.2320   47.1560 C   0  0  0  0  0  0  0  0  0  0  0  0
   58.8980   27.9950   46.7670 C   0  0  0  0  0  0  0  0  0  0  0  0
   58.4840   26.8130   46.6430 O   0  0  0  0  0  0  0  0  0  0  0  0
   57.9720   29.0750   46.5900 N   0  0  0  0  0  0  0  0  0  0  0  0
   57.6350   29.7020   45.3450 C   0  0  0  0  0  0  0  0  0  0  0  0
   56.4370   29.3970   44.6680 C   0  0  0  0  0  0  0  0  0  0  0  0
   55.5470   28.5160   45.1900 F   0  0  0  0  0  0  0  0  0  0  0  0
   56.1300   30.0410   43.4630 C   0  0  0  0  0  0  0  0  0  0  0  0
   56.9990   31.0010   42.9390 C   0  0  0  0  0  0  0  0  0  0  0  0
   58.1710   31.3300   43.6250 C   0  0  0  0  0  0  0  0  0  0  0  0
   58.4840   30.6910   44.8290 C   0  0  0  0  0  0  0  0  0  0  0  0
   59.6240   31.0210   45.4860 F   0  0  0  0  0  0  0  0  0  0  0  0
   59.5400   30.2960   48.2420 N   0  0  0  0  0  0  0  0  0  0  0  0
   60.0620   31.4680   48.6430 C   0  0  0  0  0  0  0  0  0  0  0  0
   59.1550   32.7220   49.5490 S   0  0  0  0  0  0  0  0  0  0  0  0
   57.7590   32.7310   48.3790 C   0  0  0  0  0  0  0  0  0  0  0  0
   58.1320   33.5240   47.1620 C   0  0  0  0  0  0  0  0  0  0  0  0
   59.3450   34.2310   47.1240 C   0  0  0  0  0  0  0  0  0  0  0  0
   59.7100   34.9400   45.9750 C   0  0  0  0  0  0  0  0  0  0  0  0
   58.8720   34.9420   44.8570 C   0  0  0  0  0  0  0  0  0  0  0  0
   57.6700   34.2290   44.8820 C   0  0  0  0  0  0  0  0  0  0  0  0
   57.3020   33.5170   46.0290 C   0  0  0  0  0  0  0  0  0  0  0  0
   63.6230   34.0280   50.7610 C   0  0  0  0  0  0  0  0  0  0  0  0
   65.0940   33.9250   51.2080 C   0  0  0  0  0  0  0  0  0  0  0  0
   67.4509   32.9981   51.7279 H   0  0  0  0  0  0  0  0  0  0  0  0
   67.8263   32.0859   50.2267 H   0  0  0  0  0  0  0  0  0  0  0  0
   67.8906   33.8810   50.2267 H   0  0  0  0  0  0  0  0  0  0  0  0
   65.8232   33.5152   49.2326 H   0  0  0  0  0  0  0  0  0  0  0  0
   65.2956   31.3267   49.0652 H   0  0  0  0  0  0  0  0  0  0  0  0
   65.9010   30.9675   50.7477 H   0  0  0  0  0  0  0  0  0  0  0  0
   63.3578   30.6654   50.1995 H   0  0  0  0  0  0  0  0  0  0  0  0
   63.8920   31.4807   51.7417 H   0  0  0  0  0  0  0  0  0  0  0  0
   62.6113   29.9736   47.2544 H   0  0  0  0  0  0  0  0  0  0  0  0
   60.9766   28.0798   46.2785 H   0  0  0  0  0  0  0  0  0  0  0  0
   60.6107   27.5260   47.9518 H   0  0  0  0  0  0  0  0  0  0  0  0
   55.2023   29.7903   42.9278 H   0  0  0  0  0  0  0  0  0  0  0  0
   56.7608   31.4977   41.9869 H   0  0  0  0  0  0  0  0  0  0  0  0
   58.8494   32.0937   43.2169 H   0  0  0  0  0  0  0  0  0  0  0  0
   58.5610   29.9660   48.3950 H   0  0  0  0  0  0  0  0  0  0  0  0
   57.5204   31.6983   48.0848 H   0  0  0  0  0  0  0  0  0  0  0  0
   56.8810   33.1875   48.8592 H   0  0  0  0  0  0  0  0  0  0  0  0
   60.0098   34.2271   48.0004 H   0  0  0  0  0  0  0  0  0  0  0  0
   60.6583   35.4969   45.9515 H   0  0  0  0  0  0  0  0  0  0  0  0
   59.1584   35.5051   43.9565 H   0  0  0  0  0  0  0  0  0  0  0  0
   57.0131   34.2276   43.9997 H   0  0  0  0  0  0  0  0  0  0  0  0
   56.3595   32.9499   46.0434 H   0  0  0  0  0  0  0  0  0  0  0  0
   63.5649   34.7415   49.9258 H   0  0  0  0  0  0  0  0  0  0  0  0
   63.0467   34.3543   51.6393 H   0  0  0  0  0  0  0  0  0  0  0  0
   65.5351   34.9322   51.2382 H   0  0  0  0  0  0  0  0  0  0  0  0
   65.1323   33.4657   52.2068 H   0  0  0  0  0  0  0  0  0  0  0  0
  1  2  1  0
  2  3  1  0
  3  4  1  0
  4  5  1  0
  5  6  1  0
  6  7  2  0
  6  8  2  0
  6  9  1  0
  9 10  2  0
 10 11  1  0
 11 12  1  0
 12 13  1  0
 13 14  2  0
 13 15  1  0
 15 16  1  0
 16 17  2  0
 17 18  1  0
 17 19  1  0
 19 20  2  0
 20 21  1  0
 21 22  2  0
 22 23  1  0
 11 24  1  0
 24 25  2  0
 25 26  1  0
 26 27  1  0
 27 28  1  0
 28 29  2  0
 29 30  1  0
 30 31  2  0
 31 32  1  0
 32 33  2  0
  5 34  1  0
 34 35  1  0
 35  2  1  0
 25  9  1  0
 33 28  1  0
 22 16  1  0
  1 36  1  0
  1 37  1  0
  1 38  1  0
  2 39  1  0
  3 40  1  0
  3 41  1  0
  4 42  1  0
  4 43  1  0
 10 44  1  0
 12 45  1  0
 12 46  1  0
 19 47  1  0
 20 48  1  0
 21 49  1  0
 24 50  1  0
 27 51  1  0
 27 52  1  0
 29 53  1  0
 30 54  1  0
 31 55  1  0
 32 56  1  0
 33 57  1  0
 34 58  1  0
 34 59  1  0
 35 60  1  0
 35 61  1  0
M  CHG  2  15  -1  24   1
M  END
>  <UniqueID>  (26) 
26

>  <SMILES>  (26) 
CC1CCN(S(=O)(=O)c2cn(CC(=O)[N-]c3c(F)cccc3F)[nH+]c2SCc2ccccc2)CC1

>  <Energy>  (26) 
98.68106805744422

>  <Genealogy>  (26) 
CC1CCN(S(=O)(=O)c2cn(CC(=O)[N-]c3c(F)cccc3F)[nH+]c2SCc2ccccc2)CC1 (protonated)
CC1CCN(S(=O)(=O)c2cn(CC(=O)[N-]c3c(F)cccc3F)[nH+]c2SCc2ccccc2)CC1 (3D coordinates assigned)
CC1CCN(S(=O)(=O)c2cn(CC(=O)[N-]c3c(F)cccc3F)[nH+]c2SCc2ccccc2)CC1 (nonaromatic ring conformer: 98.68106805744422 kcal/mol)

>  <smiles>  (26) 
CC1CCN(S(=O)(=O)c2cn(CC(=O)Nc3c(F)cccc3F)nc2SCc2ccccc2)CC1

>  <score_type>  (26) 
oracle

>  <origin>  (26) 
adg

>  <m_score__min__energy>  (26) 
-9.2100000000000009

>  <m_primary>  (26) 
energy

$$$$
26:0
     RDKit          3D

 38 40  0  0  0  0  0  0  0  0999 V2000
   55.1370   29.3900   44.8700 O   0  0  0  0  0  0  0  0  0  0  0  0
   56.3720   29.4510   44.6260 C   0  0  0  0  0  0  0  0  0  0  0  0
   57.1390   28.2530   44.4400 N   0  0  0  0  0  0  0  0  0  0  0  0
   57.4690   27.3360   45.3120 C   0  0  0  0  0  0  0  0  0  0  0  0
   58.7980   27.1390   45.5570 N   0  0  0  0  0  0  0  0  0  0  0  0
   59.2440   26.1930   46.4280 C   0  0  0  0  0  0  0  0  0  0  0  0
   58.3390   25.3940   47.1210 C   0  0  0  0  0  0  0  0  0  0  0  0
   56.9740   25.5890   46.9270 C   0  0  0  0  0  0  0  0  0  0  0  0
   56.5220   26.5690   46.0410 C   0  0  0  0  0  0  0  0  0  0  0  0
   55.1520   26.7900   45.9500 O   0  0  0  0  0  0  0  0  0  0  0  0
   56.9990   30.7590   44.4110 C   0  0  0  0  0  0  0  0  0  0  0  0
   57.5990   31.1900   43.2430 C   0  0  0  0  0  0  0  0  0  0  0  0
   58.0410   32.4710   43.5000 C   0  0  0  0  0  0  0  0  0  0  0  0
   57.6820   32.7340   44.8080 C   0  0  0  0  0  0  0  0  0  0  0  0
   57.9030   34.0240   45.5300 C   0  0  0  0  0  0  0  0  0  0  0  0
   59.2730   33.8620   46.6590 S   0  0  0  0  0  0  0  0  0  0  0  0
   60.5410   34.2990   45.9800 O   0  0  0  0  0  0  0  0  0  0  0  0
   59.0420   34.7430   47.8550 O   0  0  0  0  0  0  0  0  0  0  0  0
   59.4200   32.1870   47.1800 C   0  0  0  0  0  0  0  0  0  0  0  0
   58.8090   31.7630   48.3680 C   0  0  0  0  0  0  0  0  0  0  0  0
   58.8960   30.4250   48.7640 C   0  0  0  0  0  0  0  0  0  0  0  0
   59.5870   29.5030   47.9720 C   0  0  0  0  0  0  0  0  0  0  0  0
   60.1910   29.9190   46.7820 C   0  0  0  0  0  0  0  0  0  0  0  0
   60.1070   31.2570   46.3850 C   0  0  0  0  0  0  0  0  0  0  0  0
   57.0610   31.7000   45.3250 O   0  0  0  0  0  0  0  0  0  0  0  0
   59.5070   27.7150   45.0500 H   0  0  0  0  0  0  0  0  0  0  0  0
   60.3245   26.0592   46.5850 H   0  0  0  0  0  0  0  0  0  0  0  0
   58.6977   24.6181   47.8133 H   0  0  0  0  0  0  0  0  0  0  0  0
   56.2488   24.9685   47.4739 H   0  0  0  0  0  0  0  0  0  0  0  0
   57.7026   30.6279   42.3032 H   0  0  0  0  0  0  0  0  0  0  0  0
   58.5693   33.1432   42.8078 H   0  0  0  0  0  0  0  0  0  0  0  0
   58.1238   34.8170   44.8003 H   0  0  0  0  0  0  0  0  0  0  0  0
   56.9959   34.2813   46.0966 H   0  0  0  0  0  0  0  0  0  0  0  0
   58.2597   32.4847   48.9903 H   0  0  0  0  0  0  0  0  0  0  0  0
   58.4201   30.0972   49.7000 H   0  0  0  0  0  0  0  0  0  0  0  0
   59.6553   28.4507   48.2852 H   0  0  0  0  0  0  0  0  0  0  0  0
   60.7327   29.1933   46.1576 H   0  0  0  0  0  0  0  0  0  0  0  0
   60.5808   31.5815   45.4468 H   0  0  0  0  0  0  0  0  0  0  0  0
  1  2  2  0
  2  3  1  0
  3  4  2  3
  4  5  1  0
  5  6  1  0
  6  7  2  0
  7  8  1  0
  8  9  2  0
  9 10  1  0
  2 11  1  0
 11 12  2  0
 12 13  1  0
 13 14  2  0
 14 15  1  0
 15 16  1  0
 16 17  2  0
 16 18  2  0
 16 19  1  0
 19 20  2  0
 20 21  1  0
 21 22  2  0
 22 23  1  0
 23 24  2  0
 14 25  1  0
  9  4  1  0
 25 11  1  0
 24 19  1  0
  5 26  1  0
  6 27  1  0
  7 28  1  0
  8 29  1  0
 12 30  1  0
 13 31  1  0
 15 32  1  0
 15 33  1  0
 20 34  1  0
 21 35  1  0
 22 36  1  0
 23 37  1  0
 24 38  1  0
M  CHG  1  10  -1
M  END
>  <UniqueID>  (27) 
27

>  <SMILES>  (27) 
O=C(N=c1[nH]cccc1[O-])c1ccc(CS(=O)(=O)c2ccccc2)o1

>  <Energy>  (27) 
72.84778971463264

>  <Genealogy>  (27) 
O=C(N=c1[nH]cccc1[O-])c1ccc(CS(=O)(=O)c2ccccc2)o1 (protonated)
O=C(N=c1[nH]cccc1[O-])c1ccc(CS(=O)(=O)c2ccccc2)o1 (3D coordinates assigned)
O=C(N=c1[nH]cccc1[O-])c1ccc(CS(=O)(=O)c2ccccc2)o1 (optimized conformer: 72.84778971463264 kcal/mol)

>  <smiles>  (27) 
O=C(N=c1[nH]cccc1O)c1ccc(CS(=O)(=O)c2ccccc2)o1

>  <score_type>  (27) 
oracle

>  <origin>  (27) 
adg

>  <m_score__min__energy>  (27) 
-12.82

>  <m_primary>  (27) 
energy

$$$$
27:0
     RDKit          3D

 45 47  0  0  0  0  0  0  0  0999 V2000
   54.6970   28.3470   52.7140 C   0  0  0  0  0  0  0  0  0  0  0  0
   55.1560   29.6090   52.6890 C   0  0  0  0  0  0  0  0  0  0  0  0
   54.4020   30.7800   52.5030 C   0  0  0  0  0  0  0  0  0  0  0  0
   53.0700   30.9820   52.4800 C   0  0  0  0  0  0  0  0  0  0  0  0
   52.2220   30.9930   51.2790 C   0  0  0  0  0  0  0  0  0  0  0  0
   52.3290   30.0940   50.2860 N   0  0  0  0  0  0  0  0  0  0  0  0
   51.4670   30.5560   49.3540 C   0  0  0  0  0  0  0  0  0  0  0  0
   51.2710   29.9640   48.2600 O   0  0  0  0  0  0  0  0  0  0  0  0
   50.8430   31.7090   49.6780 N   0  0  0  0  0  0  0  0  0  0  0  0
   51.3430   31.9800   50.8940 C   0  0  0  0  0  0  0  0  0  0  0  0
   51.0240   33.1200   51.6220 O   0  0  0  0  0  0  0  0  0  0  0  0
   55.3160   31.8060   52.3440 C   0  0  0  0  0  0  0  0  0  0  0  0
   56.5700   31.2580   52.5110 C   0  0  0  0  0  0  0  0  0  0  0  0
   57.8200   32.0400   52.4670 C   0  0  0  0  0  0  0  0  0  0  0  0
   58.3440   32.3940   53.5570 O   0  0  0  0  0  0  0  0  0  0  0  0
   58.4630   32.3780   51.2200 N   0  0  0  0  0  0  0  0  0  0  0  0
   58.3870   31.4770   50.0610 C   0  0  0  0  0  0  0  0  0  0  0  0
   58.2600   32.2870   48.7660 C   0  0  0  0  0  0  0  0  0  0  0  0
   59.2290   33.3940   48.7120 N   0  0  0  0  0  0  0  0  0  0  0  0
   59.3970   34.1480   47.4910 C   0  0  0  0  0  0  0  0  0  0  0  0
   60.4220   34.8650   47.3310 O   0  0  0  0  0  0  0  0  0  0  0  0
   58.3860   34.0650   46.3790 C   0  0  0  0  0  0  0  0  0  0  0  0
   58.7620   34.8930   45.3130 O   0  0  0  0  0  0  0  0  0  0  0  0
   60.1260   33.6320   49.8520 C   0  0  0  0  0  0  0  0  0  0  0  0
   59.3530   33.5480   51.1750 C   0  0  0  0  0  0  0  0  0  0  0  0
   56.4780   29.9210   52.7100 N   0  0  0  0  0  0  0  0  0  0  0  0
   57.5930   28.9680   52.7740 C   0  0  0  0  0  0  0  0  0  0  0  0
   55.3948   27.5109   52.8688 H   0  0  0  0  0  0  0  0  0  0  0  0
   53.6232   28.1495   52.5797 H   0  0  0  0  0  0  0  0  0  0  0  0
   52.5727   31.1540   53.4460 H   0  0  0  0  0  0  0  0  0  0  0  0
   55.0860   32.8593   52.1257 H   0  0  0  0  0  0  0  0  0  0  0  0
   59.2991   30.8637   50.0176 H   0  0  0  0  0  0  0  0  0  0  0  0
   57.5034   30.8306   50.1672 H   0  0  0  0  0  0  0  0  0  0  0  0
   58.4359   31.6187   47.9102 H   0  0  0  0  0  0  0  0  0  0  0  0
   57.2486   32.7181   48.7321 H   0  0  0  0  0  0  0  0  0  0  0  0
   58.3214   33.0255   46.0250 H   0  0  0  0  0  0  0  0  0  0  0  0
   57.4089   34.3964   46.7602 H   0  0  0  0  0  0  0  0  0  0  0  0
   59.6570   35.2520   45.5470 H   0  0  0  0  0  0  0  0  0  0  0  0
   60.9223   32.8731   49.8499 H   0  0  0  0  0  0  0  0  0  0  0  0
   60.5591   34.6387   49.7580 H   0  0  0  0  0  0  0  0  0  0  0  0
   60.0734   33.4782   52.0034 H   0  0  0  0  0  0  0  0  0  0  0  0
   58.7314   34.4512   51.2631 H   0  0  0  0  0  0  0  0  0  0  0  0
   57.8371   28.7594   53.8261 H   0  0  0  0  0  0  0  0  0  0  0  0
   57.3051   28.0326   52.2719 H   0  0  0  0  0  0  0  0  0  0  0  0
   58.4722   29.3980   52.2719 H   0  0  0  0  0  0  0  0  0  0  0  0
  1  2  2  0
  2  3  1  0
  3  4  2  3
  4  5  1  0
  5  6  1  0
  6  7  1  0
  7  8  2  0
  7  9  1  0
  9 10  1  0
 10 11  1  0
  3 12  1  0
 12 13  2  0
 13 14  1  0
 14 15  2  0
 14 16  1  0
 16 17  1  0
 17 18  1  0
 18 19  1  0
 19 20  1  0
 20 21  2  0
 20 22  1  0
 22 23  1  0
 19 24  1  0
 24 25  1  0
 13 26  1  0
 26 27  1  0
 26  2  1  0
 10  5  2  0
 25 16  1  0
  1 28  1  0
  1 29  1  0
  4 30  1  0
 12 31  1  0
 17 32  1  0
 17 33  1  0
 18 34  1  0
 18 35  1  0
 22 36  1  0
 22 37  1  0
 23 38  1  0
 24 39  1  0
 24 40  1  0
 25 41  1  0
 25 42  1  0
 27 43  1  0
 27 44  1  0
 27 45  1  0
M  CHG  3   6  -1   9  -1  11  -1
M  END
>  <UniqueID>  (28) 
28

>  <SMILES>  (28) 
C=c1c(=Cc2[n-]c(=O)[n-]c2[O-])cc(C(=O)N2CCN(C(=O)CO)CC2)n1C

>  <Energy>  (28) 
121.25959869106491

>  <Genealogy>  (28) 
C=c1c(=Cc2[n-]c(=O)[n-]c2[O-])cc(C(=O)N2CCN(C(=O)CO)CC2)n1C (protonated)
C=c1c(=Cc2[n-]c(=O)[n-]c2[O-])cc(C(=O)N2CCN(C(=O)CO)CC2)n1C (3D coordinates assigned)
C=c1c(=Cc2[n-]c(=O)[n-]c2[O-])cc(C(=O)N2CCN(C(=O)CO)CC2)n1C (nonaromatic ring conformer: 121.25959869106491 kcal/mol)

>  <smiles>  (28) 
C=c1c(=Cc2[nH]c(=O)[nH]c2O)cc(C(=O)N2CCN(C(=O)CO)CC2)n1C

>  <score_type>  (28) 
oracle

>  <origin>  (28) 
adg

>  <m_score__min__energy>  (28) 
-15.94

>  <m_primary>  (28) 
energy

$$$$
28:0
     RDKit          3D

 51 53  0  0  0  0  0  0  0  0999 V2000
   57.8840   26.3210   42.6370 C   0  0  0  0  0  0  0  0  0  0  0  0
   58.2310   27.2180   43.8210 C   0  0  0  0  0  0  0  0  0  0  0  0
   58.0800   26.4700   45.1260 C   0  0  0  0  0  0  0  0  0  0  0  0
   57.3600   25.2630   45.1350 C   0  0  0  0  0  0  0  0  0  0  0  0
   57.1970   24.5410   46.3180 C   0  0  0  0  0  0  0  0  0  0  0  0
   57.7610   25.0080   47.5040 C   0  0  0  0  0  0  0  0  0  0  0  0
   58.4890   26.1980   47.5130 C   0  0  0  0  0  0  0  0  0  0  0  0
   58.6550   26.9440   46.3310 C   0  0  0  0  0  0  0  0  0  0  0  0
   59.4470   28.1460   46.3500 N   0  0  0  0  0  0  0  0  0  0  0  0
   58.8820   29.4530   46.5530 C   0  0  0  0  0  0  0  0  0  0  0  0
   57.6310   29.6090   46.5080 O   0  0  0  0  0  0  0  0  0  0  0  0
   59.7620   30.6200   46.7820 C   0  0  0  0  0  0  0  0  0  0  0  0
   59.4670   31.8700   46.2190 C   0  0  0  0  0  0  0  0  0  0  0  0
   60.3030   32.9730   46.4600 C   0  0  0  0  0  0  0  0  0  0  0  0
   59.9010   34.2850   45.9030 C   0  0  0  0  0  0  0  0  0  0  0  0
   60.3770   35.3450   46.3940 O   0  0  0  0  0  0  0  0  0  0  0  0
   59.0440   34.3460   44.8000 O   0  0  0  0  0  0  0  0  0  0  0  0
   57.6740   33.9670   44.8670 C   0  0  0  0  0  0  0  0  0  0  0  0
   57.4580   32.7380   44.0420 C   0  0  0  0  0  0  0  0  0  0  0  0
   57.8080   32.7460   42.8300 O   0  0  0  0  0  0  0  0  0  0  0  0
   56.8850   31.5590   44.6310 N   0  0  0  0  0  0  0  0  0  0  0  0
   56.6160   30.3480   43.9060 C   0  0  0  0  0  0  0  0  0  0  0  0
   56.0770   29.2170   44.5890 N   0  0  0  0  0  0  0  0  0  0  0  0
   56.8480   30.2710   42.6710 O   0  0  0  0  0  0  0  0  0  0  0  0
   61.4680   32.7930   47.2470 C   0  0  0  0  0  0  0  0  0  0  0  0
   62.4160   33.8180   47.4680 C   0  0  0  0  0  0  0  0  0  0  0  0
   63.5390   33.5860   48.2640 C   0  0  0  0  0  0  0  0  0  0  0  0
   63.7490   32.3320   48.8390 C   0  0  0  0  0  0  0  0  0  0  0  0
   62.8440   31.2960   48.6060 C   0  0  0  0  0  0  0  0  0  0  0  0
   61.7150   31.5150   47.8080 C   0  0  0  0  0  0  0  0  0  0  0  0
   60.8650   30.4850   47.5620 N   0  0  0  0  0  0  0  0  0  0  0  0
   57.5102   25.3546   43.0063 H   0  0  0  0  0  0  0  0  0  0  0  0
   57.1081   26.8048   42.0255 H   0  0  0  0  0  0  0  0  0  0  0  0
   58.7835   26.1567   42.0255 H   0  0  0  0  0  0  0  0  0  0  0  0
   59.2714   27.5608   43.7205 H   0  0  0  0  0  0  0  0  0  0  0  0
   57.5428   28.0761   43.8258 H   0  0  0  0  0  0  0  0  0  0  0  0
   56.9207   24.8838   44.2005 H   0  0  0  0  0  0  0  0  0  0  0  0
   56.6230   23.6026   46.3145 H   0  0  0  0  0  0  0  0  0  0  0  0
   57.6318   24.4368   48.4352 H   0  0  0  0  0  0  0  0  0  0  0  0
   58.9370   26.5563   48.4516 H   0  0  0  0  0  0  0  0  0  0  0  0
   60.4700   28.0690   46.1580 H   0  0  0  0  0  0  0  0  0  0  0  0
   58.5758   31.9876   45.5850 H   0  0  0  0  0  0  0  0  0  0  0  0
   57.4011   33.7601   45.9123 H   0  0  0  0  0  0  0  0  0  0  0  0
   57.0472   34.7841   44.4804 H   0  0  0  0  0  0  0  0  0  0  0  0
   56.6470   31.5780   45.6480 H   0  0  0  0  0  0  0  0  0  0  0  0
   55.8740   29.2600   45.6120 H   0  0  0  0  0  0  0  0  0  0  0  0
   55.8850   28.3310   44.0710 H   0  0  0  0  0  0  0  0  0  0  0  0
   62.2676   34.8066   47.0089 H   0  0  0  0  0  0  0  0  0  0  0  0
   64.2623   34.3961   48.4389 H   0  0  0  0  0  0  0  0  0  0  0  0
   64.6288   32.1601   49.4765 H   0  0  0  0  0  0  0  0  0  0  0  0
   63.0181   30.3049   49.0504 H   0  0  0  0  0  0  0  0  0  0  0  0
  1  2  1  0
  2  3  1  0
  3  4  2  0
  4  5  1  0
  5  6  2  0
  6  7  1  0
  7  8  2  0
  8  9  1  0
  9 10  1  0
 10 11  2  0
 10 12  1  0
 12 13  2  0
 13 14  1  0
 14 15  1  0
 15 16  2  0
 15 17  1  0
 17 18  1  0
 18 19  1  0
 19 20  2  0
 19 21  1  0
 21 22  1  0
 22 23  1  0
 22 24  2  0
 14 25  2  0
 25 26  1  0
 26 27  2  0
 27 28  1  0
 28 29  2  0
 29 30  1  0
 30 31  2  0
  8  3  1  0
 31 12  1  0
 30 25  1  0
  1 32  1  0
  1 33  1  0
  1 34  1  0
  2 35  1  0
  2 36  1  0
  4 37  1  0
  5 38  1  0
  6 39  1  0
  7 40  1  0
  9 41  1  0
 13 42  1  0
 18 43  1  0
 18 44  1  0
 21 45  1  0
 23 46  1  0
 23 47  1  0
 26 48  1  0
 27 49  1  0
 28 50  1  0
 29 51  1  0
M  END
>  <UniqueID>  (29) 
29

>  <SMILES>  (29) 
CCc1ccccc1NC(=O)c1cc(C(=O)OCC(=O)NC(N)=O)c2ccccc2n1

>  <Energy>  (29) 
60.195686901283395

>  <Genealogy>  (29) 
CCc1ccccc1NC(=O)c1cc(C(=O)OCC(=O)NC(N)=O)c2ccccc2n1 (3D coordinates assigned)
CCc1ccccc1NC(=O)c1cc(C(=O)OCC(=O)NC(N)=O)c2ccccc2n1 (optimized conformer: 60.195686901283395 kcal/mol)

>  <smiles>  (29) 
CCc1ccccc1NC(=O)c1cc(C(=O)OCC(=O)NC(N)=O)c2ccccc2n1

>  <score_type>  (29) 
oracle

>  <origin>  (29) 
adg

>  <m_score__min__energy>  (29) 
-9.7200000000000006

>  <m_primary>  (29) 
energy

$$$$
29:0
     RDKit          3D

 48 51  0  0  0  0  0  0  0  0999 V2000
   56.1190   33.8820   46.8610 H   0  0  0  0  0  0  0  0  0  0  0  0
   56.7440   33.5640   46.1290 O   0  0  0  0  0  0  0  0  0  0  0  0
   58.1240   33.5350   46.3110 C   0  0  0  0  0  0  0  0  0  0  0  0
   58.8630   34.7060   46.1570 C   0  0  0  0  0  0  0  0  0  0  0  0
   58.3524   35.6468   45.9035 H   0  0  0  0  0  0  0  0  0  0  0  0
   60.2480   34.6900   46.3230 C   0  0  0  0  0  0  0  0  0  0  0  0
   60.8214   35.6205   46.1990 H   0  0  0  0  0  0  0  0  0  0  0  0
   60.9190   33.4980   46.6470 C   0  0  0  0  0  0  0  0  0  0  0  0
   62.4160   33.5370   46.7950 C   0  0  0  0  0  0  0  0  0  0  0  0
   62.6788   33.5438   47.8631 H   0  0  0  0  0  0  0  0  0  0  0  0
   62.8551   32.6500   46.3150 H   0  0  0  0  0  0  0  0  0  0  0  0
   62.8084   34.4457   46.3150 H   0  0  0  0  0  0  0  0  0  0  0  0
   60.1680   32.3080   46.8480 C   0  0  0  0  0  0  0  0  0  0  0  0
   60.8070   30.9800   47.2250 C   0  0  0  0  0  0  0  0  0  0  0  0
   61.1945   31.0542   48.2518 H   0  0  0  0  0  0  0  0  0  0  0  0
   61.6113   30.7796   46.5018 H   0  0  0  0  0  0  0  0  0  0  0  0
   59.8550   29.8540   47.1590 N   0  0  0  0  0  0  0  0  0  0  0  0
   59.3320   29.1770   48.2150 C   0  0  0  0  0  0  0  0  0  0  0  0
   59.5880   29.4510   49.6460 C   0  0  0  0  0  0  0  0  0  0  0  0
   60.1380   28.5840   50.3750 O   0  0  0  0  0  0  0  0  0  0  0  0
   59.2360   30.7120   50.2160 N   0  0  0  0  0  0  0  0  0  0  0  0
   58.5320   31.9460   49.8210 C   0  0  0  0  0  0  0  0  0  0  0  0
   59.0699   32.5123   49.0464 H   0  0  0  0  0  0  0  0  0  0  0  0
   57.5372   31.8314   49.3657 H   0  0  0  0  0  0  0  0  0  0  0  0
   58.5950   32.6000   51.1610 C   0  0  0  0  0  0  0  0  0  0  0  0
   59.1922   33.5224   51.2115 H   0  0  0  0  0  0  0  0  0  0  0  0
   57.7172   32.9931   51.6947 H   0  0  0  0  0  0  0  0  0  0  0  0
   59.3110   31.3470   51.5430 C   0  0  0  0  0  0  0  0  0  0  0  0
   60.3458   31.5315   51.8673 H   0  0  0  0  0  0  0  0  0  0  0  0
   58.9063   30.7787   52.3934 H   0  0  0  0  0  0  0  0  0  0  0  0
   58.5500   28.1300   47.7750 C   0  0  0  0  0  0  0  0  0  0  0  0
   58.0071   27.4104   48.4055 H   0  0  0  0  0  0  0  0  0  0  0  0
   58.5760   28.1540   46.3960 C   0  0  0  0  0  0  0  0  0  0  0  0
   57.8510   27.3100   45.6360 C   0  0  0  0  0  0  0  0  0  0  0  0
   57.7189   27.5738   44.5763 H   0  0  0  0  0  0  0  0  0  0  0  0
   57.2210   26.0650   46.1040 C   0  0  0  0  0  0  0  0  0  0  0  0
   57.9130   25.0160   46.5780 N   0  0  0  0  0  0  0  0  0  0  0  0
   56.9490   24.1670   46.9940 C   0  0  0  0  0  0  0  0  0  0  0  0
   57.2070   23.0420   47.4950 O   0  0  0  0  0  0  0  0  0  0  0  0
   55.6870   24.6230   46.8410 N   0  0  0  0  0  0  0  0  0  0  0  0
   55.8760   25.8320   46.2910 C   0  0  0  0  0  0  0  0  0  0  0  0
   54.8430   26.7130   45.9930 O   0  0  0  0  0  0  0  0  0  0  0  0
   59.4600   29.1820   46.0410 C   0  0  0  0  0  0  0  0  0  0  0  0
   59.9960   29.3760   44.8250 C   0  0  0  0  0  0  0  0  0  0  0  0
   60.6820   30.2188   44.6544 H   0  0  0  0  0  0  0  0  0  0  0  0
   59.7490   28.6921   43.9996 H   0  0  0  0  0  0  0  0  0  0  0  0
   58.7740   32.3410   46.6470 C   0  0  0  0  0  0  0  0  0  0  0  0
   58.1882   31.4163   46.7555 H   0  0  0  0  0  0  0  0  0  0  0  0
  1  2  1  0
  2  3  1  0
  3  4  2  0
  4  5  1  0
  4  6  1  0
  6  7  1  0
  6  8  2  0
  8  9  1  0
  9 10  1  0
  9 11  1  0
  9 12  1  0
  8 13  1  0
 13 14  1  0
 14 15  1  0
 14 16  1  0
 14 17  1  0
 17 18  1  0
 18 19  1  0
 19 20  2  0
 19 21  1  0
 21 22  1  0
 22 23  1  0
 22 24  1  0
 22 25  1  0
 25 26  1  0
 25 27  1  0
 25 28  1  0
 28 29  1  0
 28 30  1  0
 18 31  2  0
 31 32  1  0
 31 33  1  0
 33 34  2  0
 34 35  1  0
 34 36  1  0
 36 37  1  0
 37 38  1  0
 38 39  2  0
 38 40  1  0
 40 41  1  0
 41 42  1  0
 33 43  1  0
 43 44  2  0
 44 45  1  0
 44 46  1  0
 13 47  2  0
 47 48  1  0
 47  3  1  0
 43 17  1  0
 28 21  1  0
 41 36  2  0
M  CHG  3  37  -1  40  -1  42  -1
M  END
>  <UniqueID>  (30) 
30

>  <SMILES>  (30) 
C=c1/c(=C\c2[n-]c(=O)[n-]c2[O-])cc(C(=O)N2CCC2)n1Cc1cc(O)ccc1C

>  <Energy>  (30) 
170.26347137199247

>  <Genealogy>  (30) 
C=c1c(=Cc2[n-]c(=O)[n-]c2[O-])cc(C(=O)N2CCC2)n1Cc1cc(O)ccc1C (protonated)
C=c1/c(=C\c2[n-]c(=O)[n-]c2[O-])cc(C(=O)N2CCC2)n1Cc1cc(O)ccc1C (cis-trans isomerization)
C=c1/c(=C\c2[n-]c(=O)[n-]c2[O-])cc(C(=O)N2CCC2)n1Cc1cc(O)ccc1C (3D coordinates assigned)
C=c1/c(=C\c2[n-]c(=O)[n-]c2[O-])cc(C(=O)N2CCC2)n1Cc1cc(O)ccc1C (nonaromatic ring conformer: 170.26347137199247 kcal/mol)

>  <smiles>  (30) 
C=c1c(=Cc2[nH]c(=O)[nH]c2O)cc(C(=O)N2CCC2)n1Cc1cc(O)ccc1C

>  <score_type>  (30) 
oracle

>  <origin>  (30) 
adg

>  <m_score__min__energy>  (30) 
-16.07

>  <m_primary>  (30) 
energy

$$$$
30:0
     RDKit          3D

 60 64  0  0  0  0  0  0  0  0999 V2000
   59.0970   27.3760   47.5050 C   0  0  0  0  0  0  0  0  0  0  0  0
   58.7530   28.2360   46.5340 C   0  0  0  0  0  0  0  0  0  0  0  0
   58.1410   27.9150   45.3180 C   0  0  0  0  0  0  0  0  0  0  0  0
   57.8070   26.6880   44.8700 C   0  0  0  0  0  0  0  0  0  0  0  0
   57.1370   25.6640   45.6920 C   0  0  0  0  0  0  0  0  0  0  0  0
   57.7680   24.5810   46.1770 N   0  0  0  0  0  0  0  0  0  0  0  0
   56.8230   23.9770   46.9300 C   0  0  0  0  0  0  0  0  0  0  0  0
   57.0350   22.9020   47.5500 O   0  0  0  0  0  0  0  0  0  0  0  0
   55.6380   24.6220   46.9770 N   0  0  0  0  0  0  0  0  0  0  0  0
   55.8560   25.6940   46.2000 C   0  0  0  0  0  0  0  0  0  0  0  0
   54.9190   26.7010   46.0010 O   0  0  0  0  0  0  0  0  0  0  0  0
   57.9990   29.1110   44.6250 C   0  0  0  0  0  0  0  0  0  0  0  0
   58.5020   30.1040   45.4430 C   0  0  0  0  0  0  0  0  0  0  0  0
   58.5670   31.5560   45.0790 C   0  0  0  0  0  0  0  0  0  0  0  0
   58.9690   29.5730   46.5950 N   0  0  0  0  0  0  0  0  0  0  0  0
   59.5620   30.3070   47.6800 C   0  0  0  0  0  0  0  0  0  0  0  0
   58.8850   30.4180   48.9020 C   0  0  0  0  0  0  0  0  0  0  0  0
   59.4410   31.1370   49.9880 C   0  0  0  0  0  0  0  0  0  0  0  0
   58.7400   31.2440   51.2660 N   0  0  0  0  0  0  0  0  0  0  0  0
   58.9310   30.1820   52.2730 C   0  0  0  0  0  0  0  0  0  0  0  0
   58.2810   30.4790   53.6240 C   0  0  0  0  0  0  0  0  0  0  0  0
   56.9380   31.0560   53.4850 N   0  0  0  0  0  0  0  0  0  0  0  0
   55.9990   30.1390   52.8550 C   0  0  0  0  0  0  0  0  0  0  0  0
   56.3970   29.0090   52.4560 O   0  0  0  0  0  0  0  0  0  0  0  0
   54.5570   30.4800   52.6870 C   0  0  0  0  0  0  0  0  0  0  0  0
   54.0170   30.8450   51.4360 C   0  0  0  0  0  0  0  0  0  0  0  0
   52.6600   31.1650   51.3140 C   0  0  0  0  0  0  0  0  0  0  0  0
   51.8260   31.1280   52.4320 C   0  0  0  0  0  0  0  0  0  0  0  0
   52.3460   30.7750   53.6780 C   0  0  0  0  0  0  0  0  0  0  0  0
   53.7010   30.4550   53.8080 C   0  0  0  0  0  0  0  0  0  0  0  0
   57.0220   32.3610   52.8090 C   0  0  0  0  0  0  0  0  0  0  0  0
   57.7580   32.3370   51.4520 C   0  0  0  0  0  0  0  0  0  0  0  0
   60.7080   31.7390   49.7930 C   0  0  0  0  0  0  0  0  0  0  0  0
   61.3790   31.6270   48.5740 C   0  0  0  0  0  0  0  0  0  0  0  0
   60.8130   30.9140   47.5200 C   0  0  0  0  0  0  0  0  0  0  0  0
   61.4900   30.7960   46.3500 F   0  0  0  0  0  0  0  0  0  0  0  0
   59.5758   27.7463   48.4235 H   0  0  0  0  0  0  0  0  0  0  0  0
   58.9002   26.3007   47.3825 H   0  0  0  0  0  0  0  0  0  0  0  0
   58.0493   26.4355   43.8271 H   0  0  0  0  0  0  0  0  0  0  0  0
   57.5697   29.2416   43.6207 H   0  0  0  0  0  0  0  0  0  0  0  0
   58.5942   32.1630   45.9959 H   0  0  0  0  0  0  0  0  0  0  0  0
   59.4745   31.7453   44.4869 H   0  0  0  0  0  0  0  0  0  0  0  0
   57.6800   31.8256   44.4869 H   0  0  0  0  0  0  0  0  0  0  0  0
   57.9026   29.9373   49.0199 H   0  0  0  0  0  0  0  0  0  0  0  0
   58.4986   29.2505   51.8789 H   0  0  0  0  0  0  0  0  0  0  0  0
   60.0137   30.1054   52.4519 H   0  0  0  0  0  0  0  0  0  0  0  0
   58.2051   29.5408   54.1932 H   0  0  0  0  0  0  0  0  0  0  0  0
   58.9104   31.2164   54.1438 H   0  0  0  0  0  0  0  0  0  0  0  0
   56.5870   31.2700   54.4470 H   0  0  0  0  0  0  0  0  0  0  0  0
   54.6675   30.8784   50.5496 H   0  0  0  0  0  0  0  0  0  0  0  0
   52.2494   31.4467   50.3331 H   0  0  0  0  0  0  0  0  0  0  0  0
   50.7593   31.3769   52.3313 H   0  0  0  0  0  0  0  0  0  0  0  0
   51.6887   30.7484   54.5596 H   0  0  0  0  0  0  0  0  0  0  0  0
   54.1035   30.1810   54.7944 H   0  0  0  0  0  0  0  0  0  0  0  0
   55.9982   32.7248   52.6374 H   0  0  0  0  0  0  0  0  0  0  0  0
   57.6084   33.0165   53.4696 H   0  0  0  0  0  0  0  0  0  0  0  0
   57.0003   32.2473   50.6596 H   0  0  0  0  0  0  0  0  0  0  0  0
   58.3406   33.2692   51.4138 H   0  0  0  0  0  0  0  0  0  0  0  0
   61.1709   32.3040   50.6155 H   0  0  0  0  0  0  0  0  0  0  0  0
   62.3613   32.1051   48.4451 H   0  0  0  0  0  0  0  0  0  0  0  0
  1  2  2  0
  2  3  1  0
  3  4  2  3
  4  5  1  0
  5  6  1  0
  6  7  1  0
  7  8  2  0
  7  9  1  0
  9 10  1  0
 10 11  1  0
  3 12  1  0
 12 13  2  0
 13 14  1  0
 13 15  1  0
 15 16  1  0
 16 17  2  0
 17 18  1  0
 18 19  1  0
 19 20  1  0
 20 21  1  0
 21 22  1  0
 22 23  1  0
 23 24  2  0
 23 25  1  0
 25 26  2  0
 26 27  1  0
 27 28  2  0
 28 29  1  0
 29 30  2  0
 22 31  1  0
 31 32  1  0
 18 33  2  0
 33 34  1  0
 34 35  2  0
 35 36  1  0
 15  2  1  0
 35 16  1  0
 10  5  2  0
 32 19  1  0
 30 25  1  0
  1 37  1  0
  1 38  1  0
  4 39  1  0
 12 40  1  0
 14 41  1  0
 14 42  1  0
 14 43  1  0
 17 44  1  0
 20 45  1  0
 20 46  1  0
 21 47  1  0
 21 48  1  0
 22 49  1  0
 26 50  1  0
 27 51  1  0
 28 52  1  0
 29 53  1  0
 30 54  1  0
 31 55  1  0
 31 56  1  0
 32 57  1  0
 32 58  1  0
 33 59  1  0
 34 60  1  0
M  CHG  4   6  -1   9  -1  11  -1  22   1
M  END
>  <UniqueID>  (31) 
31

>  <SMILES>  (31) 
C=c1c(=Cc2[n-]c(=O)[n-]c2[O-])cc(C)n1-c1cc(N2CC[NH+](C(=O)c3ccccc3)CC2)ccc1F

>  <Energy>  (31) 
153.59842779221637

>  <Genealogy>  (31) 
C=c1c(=Cc2[n-]c(=O)[n-]c2[O-])cc(C)n1-c1cc(N2CC[NH+](C(=O)c3ccccc3)CC2)ccc1F (protonated)
C=c1c(=Cc2[n-]c(=O)[n-]c2[O-])cc(C)n1-c1cc(N2CC[NH+](C(=O)c3ccccc3)CC2)ccc1F (3D coordinates assigned)
C=c1c(=Cc2[n-]c(=O)[n-]c2[O-])cc(C)n1-c1cc(N2CC[NH+](C(=O)c3ccccc3)CC2)ccc1F (nonaromatic ring conformer: 153.59842779221637 kcal/mol)

>  <smiles>  (31) 
C=c1c(=Cc2[nH]c(=O)[nH]c2O)cc(C)n1-c1cc(N2CCN(C(=O)c3ccccc3)CC2)ccc1F

>  <score_type>  (31) 
oracle

>  <origin>  (31) 
adg

>  <m_score__min__energy>  (31) 
-17.059999999999999

>  <m_primary>  (31) 
energy

$$$$
31:0
     RDKit          3D

 48 50  0  0  0  0  0  0  0  0999 V2000
   61.3520   33.8810   50.2210 C   0  0  0  0  0  0  0  0  0  0  0  0
   61.3030   32.8870   49.0900 C   0  0  0  0  0  0  0  0  0  0  0  0
   62.4350   32.7440   48.2710 C   0  0  0  0  0  0  0  0  0  0  0  0
   62.4410   31.8270   47.2230 C   0  0  0  0  0  0  0  0  0  0  0  0
   61.3230   31.0340   46.9810 C   0  0  0  0  0  0  0  0  0  0  0  0
   60.1680   31.1640   47.7690 C   0  0  0  0  0  0  0  0  0  0  0  0
   59.0490   30.2870   47.5380 N   0  0  0  0  0  0  0  0  0  0  0  0
   59.1790   28.8590   47.4080 C   0  0  0  0  0  0  0  0  0  0  0  0
   59.6840   28.1070   48.4860 C   0  0  0  0  0  0  0  0  0  0  0  0
   59.8800   26.7300   48.3610 C   0  0  0  0  0  0  0  0  0  0  0  0
   59.5850   26.0890   47.1600 C   0  0  0  0  0  0  0  0  0  0  0  0
   59.0890   26.8200   46.0790 C   0  0  0  0  0  0  0  0  0  0  0  0
   58.8790   28.2080   46.1860 C   0  0  0  0  0  0  0  0  0  0  0  0
   58.2700   28.9340   45.0450 C   0  0  0  0  0  0  0  0  0  0  0  0
   58.9860   29.2820   44.0680 O   0  0  0  0  0  0  0  0  0  0  0  0
   56.8390   29.2890   45.0470 C   0  0  0  0  0  0  0  0  0  0  0  0
   55.9830   28.3870   45.2440 O   0  0  0  0  0  0  0  0  0  0  0  0
   56.3950   30.6380   44.8570 N   0  0  0  0  0  0  0  0  0  0  0  0
   57.0440   31.6170   43.9870 C   0  0  0  0  0  0  0  0  0  0  0  0
   57.7720   32.6480   44.8080 C   0  0  0  0  0  0  0  0  0  0  0  0
   57.4350   32.8600   46.1560 C   0  0  0  0  0  0  0  0  0  0  0  0
   58.0760   33.8590   46.8940 C   0  0  0  0  0  0  0  0  0  0  0  0
   59.0610   34.6490   46.2960 C   0  0  0  0  0  0  0  0  0  0  0  0
   59.4090   34.4390   44.9590 C   0  0  0  0  0  0  0  0  0  0  0  0
   58.7690   33.4420   44.2160 C   0  0  0  0  0  0  0  0  0  0  0  0
   60.1390   32.1180   48.8180 C   0  0  0  0  0  0  0  0  0  0  0  0
   58.8890   32.2810   49.6530 C   0  0  0  0  0  0  0  0  0  0  0  0
   61.3256   33.3453   51.1814 H   0  0  0  0  0  0  0  0  0  0  0  0
   62.2801   34.4675   50.1537 H   0  0  0  0  0  0  0  0  0  0  0  0
   60.4860   34.5560   50.1537 H   0  0  0  0  0  0  0  0  0  0  0  0
   63.3252   33.3622   48.4592 H   0  0  0  0  0  0  0  0  0  0  0  0
   63.3316   31.7291   46.5848 H   0  0  0  0  0  0  0  0  0  0  0  0
   61.3444   30.2978   46.1640 H   0  0  0  0  0  0  0  0  0  0  0  0
   58.0940   30.7020   47.4690 H   0  0  0  0  0  0  0  0  0  0  0  0
   59.9262   28.6084   49.4346 H   0  0  0  0  0  0  0  0  0  0  0  0
   60.2678   26.1508   49.2120 H   0  0  0  0  0  0  0  0  0  0  0  0
   59.7432   25.0047   47.0632 H   0  0  0  0  0  0  0  0  0  0  0  0
   58.8599   26.3061   45.1338 H   0  0  0  0  0  0  0  0  0  0  0  0
   57.7626   31.1009   43.3334 H   0  0  0  0  0  0  0  0  0  0  0  0
   56.2760   32.1205   43.3814 H   0  0  0  0  0  0  0  0  0  0  0  0
   56.6635   32.2370   46.6322 H   0  0  0  0  0  0  0  0  0  0  0  0
   57.8045   34.0235   47.9472 H   0  0  0  0  0  0  0  0  0  0  0  0
   59.5627   35.4364   46.8777 H   0  0  0  0  0  0  0  0  0  0  0  0
   60.1875   35.0589   44.4903 H   0  0  0  0  0  0  0  0  0  0  0  0
   59.0470   33.2787   43.1643 H   0  0  0  0  0  0  0  0  0  0  0  0
   59.1538   32.2465   50.7201 H   0  0  0  0  0  0  0  0  0  0  0  0
   58.4181   33.2482   49.4232 H   0  0  0  0  0  0  0  0  0  0  0  0
   58.1858   31.4669   49.4232 H   0  0  0  0  0  0  0  0  0  0  0  0
  1  2  1  0
  2  3  2  0
  3  4  1  0
  4  5  2  0
  5  6  1  0
  6  7  1  0
  7  8  1  0
  8  9  2  0
  9 10  1  0
 10 11  2  0
 11 12  1  0
 12 13  2  0
 13 14  1  0
 14 15  2  0
 14 16  1  0
 16 17  2  0
 16 18  1  0
 18 19  1  0
 19 20  1  0
 20 21  2  0
 21 22  1  0
 22 23  2  0
 23 24  1  0
 24 25  2  0
  6 26  2  0
 26 27  1  0
 26  2  1  0
 13  8  1  0
 25 20  1  0
  1 28  1  0
  1 29  1  0
  1 30  1  0
  3 31  1  0
  4 32  1  0
  5 33  1  0
  7 34  1  0
  9 35  1  0
 10 36  1  0
 11 37  1  0
 12 38  1  0
 19 39  1  0
 19 40  1  0
 21 41  1  0
 22 42  1  0
 23 43  1  0
 24 44  1  0
 25 45  1  0
 27 46  1  0
 27 47  1  0
 27 48  1  0
M  CHG  1  18  -1
M  END
>  <UniqueID>  (32) 
32

>  <SMILES>  (32) 
Cc1cccc(Nc2ccccc2C(=O)C(=O)[N-]Cc2ccccc2)c1C

>  <Energy>  (32) 
63.476524313790826

>  <Genealogy>  (32) 
Cc1cccc(Nc2ccccc2C(=O)C(=O)[N-]Cc2ccccc2)c1C (protonated)
Cc1cccc(Nc2ccccc2C(=O)C(=O)[N-]Cc2ccccc2)c1C (3D coordinates assigned)
Cc1cccc(Nc2ccccc2C(=O)C(=O)[N-]Cc2ccccc2)c1C (optimized conformer: 63.476524313790826 kcal/mol)

>  <smiles>  (32) 
Cc1cccc(Nc2ccccc2C(=O)C(=O)NCc2ccccc2)c1C

>  <score_type>  (32) 
oracle

>  <origin>  (32) 
adg

>  <m_score__min__energy>  (32) 
-10.800000000000001

>  <m_primary>  (32) 
energy

$$$$
32:0
     RDKit          3D

 60 63  0  0  0  0  0  0  0  0999 V2000
   55.2750   29.4030   44.9250 N   0  0  0  0  0  0  0  0  0  0  0  0
   56.3300   28.4620   45.1040 C   0  0  0  0  0  0  0  0  0  0  0  0
   56.0980   27.3640   45.6790 O   0  0  0  0  0  0  0  0  0  0  0  0
   57.7180   28.7980   44.6490 C   0  0  0  0  0  0  0  0  0  0  0  0
   57.8230   30.2500   44.2370 C   0  0  0  0  0  0  0  0  0  0  0  0
   57.3080   30.6360   42.9870 C   0  0  0  0  0  0  0  0  0  0  0  0
   57.4070   31.9610   42.5550 C   0  0  0  0  0  0  0  0  0  0  0  0
   58.0190   32.9170   43.3640 C   0  0  0  0  0  0  0  0  0  0  0  0
   58.5250   32.5550   44.6140 C   0  0  0  0  0  0  0  0  0  0  0  0
   58.4220   31.2310   45.0680 C   0  0  0  0  0  0  0  0  0  0  0  0
   58.9580   30.9020   46.4030 C   0  0  0  0  0  0  0  0  0  0  0  0
   58.4930   31.5780   47.5400 C   0  0  0  0  0  0  0  0  0  0  0  0
   59.0030   31.2650   48.8020 C   0  0  0  0  0  0  0  0  0  0  0  0
   60.0000   30.2840   48.9490 C   0  0  0  0  0  0  0  0  0  0  0  0
   60.5270   29.9620   50.2950 C   0  0  0  0  0  0  0  0  0  0  0  0
   59.7410   29.9620   51.2810 O   0  0  0  0  0  0  0  0  0  0  0  0
   61.9210   29.6690   50.4980 N   0  0  0  0  0  0  0  0  0  0  0  0
   62.4580   29.2980   51.8060 C   0  0  0  0  0  0  0  0  0  0  0  0
   63.9540   29.4570   51.8220 C   0  0  0  0  0  0  0  0  0  0  0  0
   64.7650   28.5270   52.4910 C   0  0  0  0  0  0  0  0  0  0  0  0
   66.1520   28.6950   52.5170 C   0  0  0  0  0  0  0  0  0  0  0  0
   66.7400   29.7910   51.8820 C   0  0  0  0  0  0  0  0  0  0  0  0
   65.9410   30.7300   51.2100 C   0  0  0  0  0  0  0  0  0  0  0  0
   66.5680   31.9040   50.5050 C   0  0  0  0  0  0  0  0  0  0  0  0
   65.7790   33.1190   50.7180 N   0  0  0  0  0  0  0  0  0  0  0  0
   64.6090   33.3430   50.1980 C   0  0  0  0  0  0  0  0  0  0  0  0
   64.3320   32.9850   48.9120 N   0  0  0  0  0  0  0  0  0  0  0  0
   63.1080   33.2050   48.3640 C   0  0  0  0  0  0  0  0  0  0  0  0
   62.8400   32.8130   46.9410 C   0  0  0  0  0  0  0  0  0  0  0  0
   63.0620   31.4590   46.7610 F   0  0  0  0  0  0  0  0  0  0  0  0
   63.6800   33.5210   46.1010 F   0  0  0  0  0  0  0  0  0  0  0  0
   61.5260   33.0950   46.6150 F   0  0  0  0  0  0  0  0  0  0  0  0
   62.1150   33.8260   49.1290 C   0  0  0  0  0  0  0  0  0  0  0  0
   62.4130   34.1890   50.4420 C   0  0  0  0  0  0  0  0  0  0  0  0
   63.6490   33.9410   50.9500 N   0  0  0  0  0  0  0  0  0  0  0  0
   64.5490   30.5560   51.1800 C   0  0  0  0  0  0  0  0  0  0  0  0
   60.4650   29.6120   47.8030 C   0  0  0  0  0  0  0  0  0  0  0  0
   59.9530   29.9240   46.5410 C   0  0  0  0  0  0  0  0  0  0  0  0
   54.4020   29.3440   45.4940 H   0  0  0  0  0  0  0  0  0  0  0  0
   58.4216   28.6071   45.4728 H   0  0  0  0  0  0  0  0  0  0  0  0
   57.9602   28.1708   43.7784 H   0  0  0  0  0  0  0  0  0  0  0  0
   56.8226   29.8878   42.3431 H   0  0  0  0  0  0  0  0  0  0  0  0
   57.0011   32.2504   41.5744 H   0  0  0  0  0  0  0  0  0  0  0  0
   58.1034   33.9575   43.0174 H   0  0  0  0  0  0  0  0  0  0  0  0
   59.0080   33.3133   45.2478 H   0  0  0  0  0  0  0  0  0  0  0  0
   57.7238   32.3576   47.4377 H   0  0  0  0  0  0  0  0  0  0  0  0
   58.6212   31.7908   49.6895 H   0  0  0  0  0  0  0  0  0  0  0  0
   62.5970   29.7780   49.7100 H   0  0  0  0  0  0  0  0  0  0  0  0
   62.0161   29.9467   52.5767 H   0  0  0  0  0  0  0  0  0  0  0  0
   62.2084   28.2462   52.0094 H   0  0  0  0  0  0  0  0  0  0  0  0
   64.3075   27.6636   52.9962 H   0  0  0  0  0  0  0  0  0  0  0  0
   66.7831   27.9611   53.0396 H   0  0  0  0  0  0  0  0  0  0  0  0
   67.8322   29.9191   51.9083 H   0  0  0  0  0  0  0  0  0  0  0  0
   67.5838   32.0600   50.8973 H   0  0  0  0  0  0  0  0  0  0  0  0
   66.6032   31.6905   49.4265 H   0  0  0  0  0  0  0  0  0  0  0  0
   61.1200   34.0238   48.7037 H   0  0  0  0  0  0  0  0  0  0  0  0
   61.6487   34.6755   51.0658 H   0  0  0  0  0  0  0  0  0  0  0  0
   63.9189   31.2854   50.6499 H   0  0  0  0  0  0  0  0  0  0  0  0
   61.2375   28.8351   47.9017 H   0  0  0  0  0  0  0  0  0  0  0  0
   60.3324   29.3998   45.6515 H   0  0  0  0  0  0  0  0  0  0  0  0
  1  2  1  0
  2  3  2  0
  2  4  1  0
  4  5  1  0
  5  6  2  0
  6  7  1  0
  7  8  2  0
  8  9  1  0
  9 10  2  0
 10 11  1  0
 11 12  2  0
 12 13  1  0
 13 14  2  0
 14 15  1  0
 15 16  2  0
 15 17  1  0
 17 18  1  0
 18 19  1  0
 19 20  2  0
 20 21  1  0
 21 22  2  0
 22 23  1  0
 23 24  1  0
 24 25  1  0
 25 26  2  3
 26 27  1  0
 27 28  2  0
 28 29  1  0
 29 30  1  0
 29 31  1  0
 29 32  1  0
 28 33  1  0
 33 34  2  0
 34 35  1  0
 23 36  2  0
 14 37  1  0
 37 38  2  0
 10  5  1  0
 38 11  1  0
 36 19  1  0
 35 26  1  0
  1 39  1  0
  4 40  1  0
  4 41  1  0
  6 42  1  0
  7 43  1  0
  8 44  1  0
  9 45  1  0
 12 46  1  0
 13 47  1  0
 17 48  1  0
 18 49  1  0
 18 50  1  0
 20 51  1  0
 21 52  1  0
 22 53  1  0
 24 54  1  0
 24 55  1  0
 33 56  1  0
 34 57  1  0
 36 58  1  0
 37 59  1  0
 38 60  1  0
M  CHG  2   1  -1  35  -1
M  END
>  <UniqueID>  (33) 
33

>  <SMILES>  (33) 
[NH-]C(=O)Cc1ccccc1-c1ccc(C(=O)NCc2cccc(CN=c3nc(C(F)(F)F)cc[n-]3)c2)cc1

>  <Energy>  (33) 
69.81456347427186

>  <Genealogy>  (33) 
[NH-]C(=O)Cc1ccccc1-c1ccc(C(=O)NCc2cccc(CN=c3nc(C(F)(F)F)cc[n-]3)c2)cc1 (protonated)
[NH-]C(=O)Cc1ccccc1-c1ccc(C(=O)NCc2cccc(CN=c3nc(C(F)(F)F)cc[n-]3)c2)cc1 (3D coordinates assigned)
[NH-]C(=O)Cc1ccccc1-c1ccc(C(=O)NCc2cccc(CN=c3nc(C(F)(F)F)cc[n-]3)c2)cc1 (optimized conformer: 69.81456347427186 kcal/mol)

>  <smiles>  (33) 
NC(=O)Cc1ccccc1-c1ccc(C(=O)NCc2cccc(CN=c3nc(C(F)(F)F)cc[nH]3)c2)cc1

>  <score_type>  (33) 
oracle

>  <origin>  (33) 
adg

>  <m_score__min__energy>  (33) 
-14.529999999999999

>  <m_primary>  (33) 
energy

$$$$
33:0
     RDKit          3D

 57 59  0  0  0  0  0  0  0  0999 V2000
   59.9451   35.9459   44.7468 H   0  0  0  0  0  0  0  0  0  0  0  0
   59.6060   35.1490   45.4250 C   0  0  0  0  0  0  0  0  0  0  0  0
   58.7550   34.1470   44.9550 C   0  0  0  0  0  0  0  0  0  0  0  0
   58.4201   34.1592   43.9073 H   0  0  0  0  0  0  0  0  0  0  0  0
   58.3260   33.1260   45.8130 C   0  0  0  0  0  0  0  0  0  0  0  0
   57.6440   32.3491   45.4371 H   0  0  0  0  0  0  0  0  0  0  0  0
   58.7590   33.0850   47.1500 C   0  0  0  0  0  0  0  0  0  0  0  0
   58.2430   31.9730   48.0340 C   0  0  0  0  0  0  0  0  0  0  0  0
   57.4086   32.3490   48.6443 H   0  0  0  0  0  0  0  0  0  0  0  0
   57.8961   31.1401   47.4047 H   0  0  0  0  0  0  0  0  0  0  0  0
   59.2820   31.5150   48.8870 O   0  0  0  0  0  0  0  0  0  0  0  0
   60.4070   30.9110   48.3690 N   0  0  0  0  0  0  0  0  0  0  0  0
   61.0510   29.9970   49.0290 C   0  0  0  0  0  0  0  0  0  0  0  0
   62.0940   30.3800   50.0440 C   0  0  0  0  0  0  0  0  0  0  0  0
   61.6915   30.2322   51.0570 H   0  0  0  0  0  0  0  0  0  0  0  0
   62.9860   29.7508   49.9085 H   0  0  0  0  0  0  0  0  0  0  0  0
   62.3668   31.4370   49.9085 H   0  0  0  0  0  0  0  0  0  0  0  0
   60.7310   28.5510   48.7660 C   0  0  0  0  0  0  0  0  0  0  0  0
   61.5620   27.9248   49.1228 H   0  0  0  0  0  0  0  0  0  0  0  0
   59.8049   28.2871   49.2977 H   0  0  0  0  0  0  0  0  0  0  0  0
   60.5420   28.3310   47.3650 O   0  0  0  0  0  0  0  0  0  0  0  0
   59.3200   28.4750   46.6800 C   0  0  0  0  0  0  0  0  0  0  0  0
   59.1110   29.6420   45.9370 C   0  0  0  0  0  0  0  0  0  0  0  0
   59.8986   30.4086   45.8932 H   0  0  0  0  0  0  0  0  0  0  0  0
   57.9070   29.8430   45.2480 C   0  0  0  0  0  0  0  0  0  0  0  0
   57.7527   30.7697   44.6757 H   0  0  0  0  0  0  0  0  0  0  0  0
   56.8940   28.8660   45.2840 C   0  0  0  0  0  0  0  0  0  0  0  0
   55.6680   29.0230   44.6140 O   0  0  0  0  0  0  0  0  0  0  0  0
   55.5140   29.7160   43.3800 C   0  0  0  0  0  0  0  0  0  0  0  0
   55.2793   30.7720   43.5793 H   0  0  0  0  0  0  0  0  0  0  0  0
   56.4486   29.6506   42.8036 H   0  0  0  0  0  0  0  0  0  0  0  0
   54.6951   29.2609   42.8036 H   0  0  0  0  0  0  0  0  0  0  0  0
   57.1100   27.6930   46.0140 C   0  0  0  0  0  0  0  0  0  0  0  0
   56.3295   26.9184   46.0428 H   0  0  0  0  0  0  0  0  0  0  0  0
   58.3100   27.4940   46.7090 C   0  0  0  0  0  0  0  0  0  0  0  0
   58.4641   26.5667   47.2803 H   0  0  0  0  0  0  0  0  0  0  0  0
   59.6110   34.1160   47.6270 C   0  0  0  0  0  0  0  0  0  0  0  0
   60.1410   34.1200   49.0110 C   0  0  0  0  0  0  0  0  0  0  0  0
   59.3770   34.4960   49.9930 N   0  0  0  0  0  0  0  0  0  0  0  0
   58.9360   33.6180   50.9580 O   0  0  0  0  0  0  0  0  0  0  0  0
   58.8260   34.0390   52.3060 C   0  0  0  0  0  0  0  0  0  0  0  0
   59.0470   33.1931   52.9735 H   0  0  0  0  0  0  0  0  0  0  0  0
   59.5418   34.8525   52.4956 H   0  0  0  0  0  0  0  0  0  0  0  0
   57.8038   34.3984   52.4956 H   0  0  0  0  0  0  0  0  0  0  0  0
   61.5720   33.7950   49.2810 C   0  0  0  0  0  0  0  0  0  0  0  0
   62.4290   33.4120   48.2260 C   0  0  0  0  0  0  0  0  0  0  0  0
   62.0421   33.3715   47.1971 H   0  0  0  0  0  0  0  0  0  0  0  0
   63.7640   33.0840   48.4770 C   0  0  0  0  0  0  0  0  0  0  0  0
   64.4226   32.7893   47.6468 H   0  0  0  0  0  0  0  0  0  0  0  0
   64.2640   33.1300   49.7830 C   0  0  0  0  0  0  0  0  0  0  0  0
   66.0910   32.6820   50.1200 Br  0  0  0  0  0  0  0  0  0  0  0  0
   63.4290   33.5130   50.8380 C   0  0  0  0  0  0  0  0  0  0  0  0
   63.8242   33.5546   51.8637 H   0  0  0  0  0  0  0  0  0  0  0  0
   62.0930   33.8430   50.5910 C   0  0  0  0  0  0  0  0  0  0  0  0
   61.4423   34.1428   51.4257 H   0  0  0  0  0  0  0  0  0  0  0  0
   60.0260   35.1390   46.7550 C   0  0  0  0  0  0  0  0  0  0  0  0
   60.6867   35.9370   47.1249 H   0  0  0  0  0  0  0  0  0  0  0  0
  1  2  1  0
  2  3  2  0
  3  4  1  0
  3  5  1  0
  5  6  1  0
  5  7  2  0
  7  8  1  0
  8  9  1  0
  8 10  1  0
  8 11  1  0
 11 12  1  0
 12 13  2  0
 13 14  1  0
 14 15  1  0
 14 16  1  0
 14 17  1  0
 13 18  1  0
 18 19  1  0
 18 20  1  0
 18 21  1  0
 21 22  1  0
 22 23  2  0
 23 24  1  0
 23 25  1  0
 25 26  1  0
 25 27  2  0
 27 28  1  0
 28 29  1  0
 29 30  1  0
 29 31  1  0
 29 32  1  0
 27 33  1  0
 33 34  1  0
 33 35  2  0
 35 36  1  0
  7 37  1  0
 37 38  1  0
 38 39  2  0
 39 40  1  0
 40 41  1  0
 41 42  1  0
 41 43  1  0
 41 44  1  0
 38 45  1  0
 45 46  2  0
 46 47  1  0
 46 48  1  0
 48 49  1  0
 48 50  2  0
 50 51  1  0
 50 52  1  0
 52 53  1  0
 52 54  2  0
 54 55  1  0
 37 56  2  0
 56 57  1  0
 56  2  1  0
 35 22  1  0
 54 45  1  0
M  END
>  <UniqueID>  (34) 
34

>  <SMILES>  (34) 
CO/N=C(/c1ccc(Br)cc1)c1ccccc1CO/N=C(\C)COc1ccc(OC)cc1

>  <Energy>  (34) 
57.17040479237025

>  <Genealogy>  (34) 
CO/N=C(/c1ccc(Br)cc1)c1ccccc1CO/N=C(\C)COc1ccc(OC)cc1 (cis-trans isomerization)
CO/N=C(/c1ccc(Br)cc1)c1ccccc1CO/N=C(\C)COc1ccc(OC)cc1 (3D coordinates assigned)
CO/N=C(/c1ccc(Br)cc1)c1ccccc1CO/N=C(\C)COc1ccc(OC)cc1 (optimized conformer: 57.17040479237025 kcal/mol)

>  <smiles>  (34) 
CON=C(c1ccc(Br)cc1)c1ccccc1CON=C(C)COc1ccc(OC)cc1

>  <score_type>  (34) 
oracle

>  <origin>  (34) 
adg

>  <m_score__min__energy>  (34) 
-8.6099999999999994

>  <m_primary>  (34) 
energy

$$$$
34:0
     RDKit          3D

 52 55  0  0  0  0  0  0  0  0999 V2000
   55.0421   29.8268   55.8469 H   0  0  0  0  0  0  0  0  0  0  0  0
   54.3610   30.0630   55.0160 C   0  0  0  0  0  0  0  0  0  0  0  0
   53.2749   30.0954   55.1874 H   0  0  0  0  0  0  0  0  0  0  0  0
   54.8560   30.3120   53.7910 C   0  0  0  0  0  0  0  0  0  0  0  0
   54.0940   30.6230   52.6580 C   0  0  0  0  0  0  0  0  0  0  0  0
   52.7530   30.7270   52.5700 C   0  0  0  0  0  0  0  0  0  0  0  0
   52.1710   30.6879   53.5026 H   0  0  0  0  0  0  0  0  0  0  0  0
   52.0160   30.8900   51.3020 C   0  0  0  0  0  0  0  0  0  0  0  0
   52.1200   30.0290   50.2750 N   0  0  0  0  0  0  0  0  0  0  0  0
   51.3960   30.6170   49.3000 C   0  0  0  0  0  0  0  0  0  0  0  0
   51.2580   30.1030   48.1600 O   0  0  0  0  0  0  0  0  0  0  0  0
   50.8580   31.8090   49.6320 N   0  0  0  0  0  0  0  0  0  0  0  0
   51.2700   31.9760   50.8970 C   0  0  0  0  0  0  0  0  0  0  0  0
   51.0210   33.1240   51.6410 O   0  0  0  0  0  0  0  0  0  0  0  0
   54.9970   30.8520   51.6350 C   0  0  0  0  0  0  0  0  0  0  0  0
   54.7563   31.1320   50.5988 H   0  0  0  0  0  0  0  0  0  0  0  0
   56.2560   30.6620   52.1630 C   0  0  0  0  0  0  0  0  0  0  0  0
   57.5210   30.8300   51.3820 C   0  0  0  0  0  0  0  0  0  0  0  0
   58.3677   30.9424   52.0752 H   0  0  0  0  0  0  0  0  0  0  0  0
   57.6809   29.9452   50.7483 H   0  0  0  0  0  0  0  0  0  0  0  0
   57.4445   31.7259   50.7483 H   0  0  0  0  0  0  0  0  0  0  0  0
   56.1800   30.2990   53.4670 N   0  0  0  0  0  0  0  0  0  0  0  0
   57.3350   30.0050   54.3390 C   0  0  0  0  0  0  0  0  0  0  0  0
   58.0866   30.7985   54.2146 H   0  0  0  0  0  0  0  0  0  0  0  0
   56.9772   29.9601   55.3782 H   0  0  0  0  0  0  0  0  0  0  0  0
   57.9700   28.6680   53.9990 C   0  0  0  0  0  0  0  0  0  0  0  0
   57.2260   27.4950   54.2200 C   0  0  0  0  0  0  0  0  0  0  0  0
   56.1971   27.5695   54.6018 H   0  0  0  0  0  0  0  0  0  0  0  0
   57.7740   26.2390   53.9620 C   0  0  0  0  0  0  0  0  0  0  0  0
   57.1759   25.3339   54.1438 H   0  0  0  0  0  0  0  0  0  0  0  0
   59.0780   26.1230   53.4740 C   0  0  0  0  0  0  0  0  0  0  0  0
   59.6550   24.8270   53.2290 N   0  0  0  0  0  0  0  0  0  0  0  0
   61.1190   24.7210   53.1270 C   0  0  0  0  0  0  0  0  0  0  0  0
   61.4703   25.3863   52.3245 H   0  0  0  0  0  0  0  0  0  0  0  0
   61.5539   25.0107   54.0949 H   0  0  0  0  0  0  0  0  0  0  0  0
   61.5570   23.2920   52.8140 C   0  0  0  0  0  0  0  0  0  0  0  0
   62.5804   23.3030   52.4110 H   0  0  0  0  0  0  0  0  0  0  0  0
   61.5300   22.6920   53.7356 H   0  0  0  0  0  0  0  0  0  0  0  0
   60.6850   22.7270   51.8630 O   0  0  0  0  0  0  0  0  0  0  0  0
   59.4570   22.4190   52.4890 C   0  0  0  0  0  0  0  0  0  0  0  0
   58.7837   21.9742   51.7415 H   0  0  0  0  0  0  0  0  0  0  0  0
   59.6717   21.7219   53.3124 H   0  0  0  0  0  0  0  0  0  0  0  0
   58.7650   23.6610   53.1000 C   0  0  0  0  0  0  0  0  0  0  0  0
   57.9180   23.9395   52.4558 H   0  0  0  0  0  0  0  0  0  0  0  0
   58.4447   23.3853   54.1156 H   0  0  0  0  0  0  0  0  0  0  0  0
   59.8230   27.2890   53.2340 C   0  0  0  0  0  0  0  0  0  0  0  0
   60.8519   27.2039   52.8544 H   0  0  0  0  0  0  0  0  0  0  0  0
   59.2780   28.5620   53.4700 C   0  0  0  0  0  0  0  0  0  0  0  0
   60.1210   29.7730   53.1770 C   0  0  0  0  0  0  0  0  0  0  0  0
   60.4419   30.2340   54.1228 H   0  0  0  0  0  0  0  0  0  0  0  0
   61.0059   29.4721   52.5970 H   0  0  0  0  0  0  0  0  0  0  0  0
   59.5316   30.4984   52.5970 H   0  0  0  0  0  0  0  0  0  0  0  0
  1  2  1  0
  2  3  1  0
  2  4  2  0
  4  5  1  0
  5  6  2  0
  6  7  1  0
  6  8  1  0
  8  9  1  0
  9 10  1  0
 10 11  2  0
 10 12  1  0
 12 13  1  0
 13 14  1  0
  5 15  1  0
 15 16  1  0
 15 17  2  0
 17 18  1  0
 18 19  1  0
 18 20  1  0
 18 21  1  0
 17 22  1  0
 22 23  1  0
 23 24  1  0
 23 25  1  0
 23 26  1  0
 26 27  2  0
 27 28  1  0
 27 29  1  0
 29 30  1  0
 29 31  2  0
 31 32  1  0
 32 33  1  0
 33 34  1  0
 33 35  1  0
 33 36  1  0
 36 37  1  0
 36 38  1  0
 36 39  1  0
 39 40  1  0
 40 41  1  0
 40 42  1  0
 40 43  1  0
 43 44  1  0
 43 45  1  0
 31 46  1  0
 46 47  1  0
 46 48  2  0
 48 49  1  0
 49 50  1  0
 49 51  1  0
 49 52  1  0
 22  4  1  0
 48 26  1  0
 13  8  2  0
 43 32  1  0
M  CHG  3   9  -1  12  -1  14  -1
M  END
>  <UniqueID>  (35) 
35

>  <SMILES>  (35) 
C=c1/c(=C/c2[n-]c(=O)[n-]c2[O-])cc(C)n1Cc1ccc(N2CCOCC2)cc1C

>  <Energy>  (35) 
131.60744415296094

>  <Genealogy>  (35) 
C=c1c(=Cc2[n-]c(=O)[n-]c2[O-])cc(C)n1Cc1ccc(N2CCOCC2)cc1C (protonated)
C=c1/c(=C/c2[n-]c(=O)[n-]c2[O-])cc(C)n1Cc1ccc(N2CCOCC2)cc1C (cis-trans isomerization)
C=c1/c(=C/c2[n-]c(=O)[n-]c2[O-])cc(C)n1Cc1ccc(N2CCOCC2)cc1C (3D coordinates assigned)
C=c1/c(=C/c2[n-]c(=O)[n-]c2[O-])cc(C)n1Cc1ccc(N2CCOCC2)cc1C (nonaromatic ring conformer: 131.60744415296094 kcal/mol)

>  <smiles>  (35) 
C=c1c(=Cc2[nH]c(=O)[nH]c2O)cc(C)n1Cc1ccc(N2CCOCC2)cc1C

>  <score_type>  (35) 
oracle

>  <origin>  (35) 
adg

>  <m_score__min__energy>  (35) 
-16.449999999999999

>  <m_primary>  (35) 
energy

$$$$
35:0
     RDKit          3D

 46 48  0  0  0  0  0  0  0  0999 V2000
   55.8510   30.7880   44.2630 O   0  0  0  0  0  0  0  0  0  0  0  0
   57.0450   30.6220   44.6400 C   0  0  0  0  0  0  0  0  0  0  0  0
   57.7190   29.3230   44.2770 C   0  0  0  0  0  0  0  0  0  0  0  0
   57.0100   27.9410   45.2440 S   0  0  0  0  0  0  0  0  0  0  0  0
   58.4430   27.7280   46.3080 C   0  0  0  0  0  0  0  0  0  0  0  0
   59.4440   26.8070   45.9660 C   0  0  0  0  0  0  0  0  0  0  0  0
   60.5440   26.6250   46.8090 C   0  0  0  0  0  0  0  0  0  0  0  0
   60.6560   27.3720   47.9890 C   0  0  0  0  0  0  0  0  0  0  0  0
   59.6670   28.3060   48.3210 C   0  0  0  0  0  0  0  0  0  0  0  0
   58.5610   28.4850   47.4820 C   0  0  0  0  0  0  0  0  0  0  0  0
   57.7110   31.6650   45.3980 N   0  0  0  0  0  0  0  0  0  0  0  0
   59.0440   31.4710   45.9940 C   0  0  0  0  0  0  0  0  0  0  0  0
   59.2600   32.4390   47.1690 C   0  0  0  0  0  0  0  0  0  0  0  0
   59.0390   33.8660   46.8050 N   0  0  0  0  0  0  0  0  0  0  0  0
   60.3020   34.6430   46.6500 C   0  0  0  0  0  0  0  0  0  0  0  0
   61.5230   34.0200   47.3110 C   0  0  0  0  0  0  0  0  0  0  0  0
   62.6340   33.6550   46.5290 C   0  0  0  0  0  0  0  0  0  0  0  0
   63.7630   33.0800   47.1200 C   0  0  0  0  0  0  0  0  0  0  0  0
   63.8100   32.8860   48.5000 C   0  0  0  0  0  0  0  0  0  0  0  0
   62.7350   33.2900   49.2960 C   0  0  0  0  0  0  0  0  0  0  0  0
   61.6030   33.8670   48.7120 C   0  0  0  0  0  0  0  0  0  0  0  0
   60.6110   34.3160   49.5230 F   0  0  0  0  0  0  0  0  0  0  0  0
   58.0970   34.0710   45.6730 C   0  0  0  0  0  0  0  0  0  0  0  0
   57.0430   32.9630   45.5940 C   0  0  0  0  0  0  0  0  0  0  0  0
   57.5730   29.1268   43.2045 H   0  0  0  0  0  0  0  0  0  0  0  0
   58.7921   29.4031   44.5052 H   0  0  0  0  0  0  0  0  0  0  0  0
   59.3634   26.2279   45.0343 H   0  0  0  0  0  0  0  0  0  0  0  0
   61.3228   25.8942   46.5456 H   0  0  0  0  0  0  0  0  0  0  0  0
   61.5199   27.2249   48.6539 H   0  0  0  0  0  0  0  0  0  0  0  0
   59.7594   28.8998   49.2423 H   0  0  0  0  0  0  0  0  0  0  0  0
   57.7849   29.2192   47.7437 H   0  0  0  0  0  0  0  0  0  0  0  0
   59.1298   30.4365   46.3579 H   0  0  0  0  0  0  0  0  0  0  0  0
   59.8068   31.6701   45.2269 H   0  0  0  0  0  0  0  0  0  0  0  0
   58.5603   32.1718   47.9746 H   0  0  0  0  0  0  0  0  0  0  0  0
   60.3099   32.3416   47.4825 H   0  0  0  0  0  0  0  0  0  0  0  0
   58.5660   34.2950   47.6400 H   0  0  0  0  0  0  0  0  0  0  0  0
   60.5104   34.7453   45.5748 H   0  0  0  0  0  0  0  0  0  0  0  0
   60.1356   35.6060   47.1549 H   0  0  0  0  0  0  0  0  0  0  0  0
   62.6142   33.8236   45.4422 H   0  0  0  0  0  0  0  0  0  0  0  0
   64.6166   32.7798   46.4946 H   0  0  0  0  0  0  0  0  0  0  0  0
   64.6913   32.4160   48.9609 H   0  0  0  0  0  0  0  0  0  0  0  0
   62.7794   33.1536   50.3866 H   0  0  0  0  0  0  0  0  0  0  0  0
   57.5874   35.0367   45.8059 H   0  0  0  0  0  0  0  0  0  0  0  0
   58.6791   34.0525   44.7398 H   0  0  0  0  0  0  0  0  0  0  0  0
   56.4638   32.9402   46.5289 H   0  0  0  0  0  0  0  0  0  0  0  0
   56.3665   33.1592   44.7491 H   0  0  0  0  0  0  0  0  0  0  0  0
  1  2  2  0
  2  3  1  0
  3  4  1  0
  4  5  1  0
  5  6  2  0
  6  7  1  0
  7  8  2  0
  8  9  1  0
  9 10  2  0
  2 11  1  0
 11 12  1  0
 12 13  1  0
 13 14  1  0
 14 15  1  0
 15 16  1  0
 16 17  2  0
 17 18  1  0
 18 19  2  0
 19 20  1  0
 20 21  2  0
 21 22  1  0
 14 23  1  0
 23 24  1  0
 10  5  1  0
 24 11  1  0
 21 16  1  0
  3 25  1  0
  3 26  1  0
  6 27  1  0
  7 28  1  0
  8 29  1  0
  9 30  1  0
 10 31  1  0
 12 32  1  0
 12 33  1  0
 13 34  1  0
 13 35  1  0
 14 36  1  0
 15 37  1  0
 15 38  1  0
 17 39  1  0
 18 40  1  0
 19 41  1  0
 20 42  1  0
 23 43  1  0
 23 44  1  0
 24 45  1  0
 24 46  1  0
M  CHG  1  14   1
M  END
>  <UniqueID>  (36) 
36

>  <SMILES>  (36) 
O=C(CSc1ccccc1)N1CC[NH+](Cc2ccccc2F)CC1

>  <Energy>  (36) 
54.493861609955474

>  <Genealogy>  (36) 
O=C(CSc1ccccc1)N1CC[NH+](Cc2ccccc2F)CC1 (protonated)
O=C(CSc1ccccc1)N1CC[NH+](Cc2ccccc2F)CC1 (3D coordinates assigned)
O=C(CSc1ccccc1)N1CC[NH+](Cc2ccccc2F)CC1 (nonaromatic ring conformer: 54.493861609955474 kcal/mol)

>  <smiles>  (36) 
O=C(CSc1ccccc1)N1CCN(Cc2ccccc2F)CC1

>  <score_type>  (36) 
oracle

>  <origin>  (36) 
adg

>  <m_score__min__energy>  (36) 
-6.2599999999999998

>  <m_primary>  (36) 
energy

$$$$
36:0
     RDKit          3D

 35 37  0  0  0  0  0  0  0  0999 V2000
   55.1300   27.4630   45.3290 H   0  0  0  0  0  0  0  0  0  0  0  0
   55.2750   26.6720   45.9450 O   0  0  0  0  0  0  0  0  0  0  0  0
   54.8340   25.3950   45.6080 C   0  0  0  0  0  0  0  0  0  0  0  0
   53.6020   24.9430   45.8930 N   0  0  0  0  0  0  0  0  0  0  0  0
   53.6260   23.6840   45.4070 C   0  0  0  0  0  0  0  0  0  0  0  0
   52.6380   22.9090   45.4830 O   0  0  0  0  0  0  0  0  0  0  0  0
   54.7940   23.3180   44.8360 N   0  0  0  0  0  0  0  0  0  0  0  0
   55.5570   24.4180   44.9570 C   0  0  0  0  0  0  0  0  0  0  0  0
   56.9910   24.4870   44.5270 C   0  0  0  0  0  0  0  0  0  0  0  0
   57.0412   24.8110   43.4770 H   0  0  0  0  0  0  0  0  0  0  0  0
   57.4478   23.4920   44.6328 H   0  0  0  0  0  0  0  0  0  0  0  0
   57.7360   25.4630   45.3830 C   0  0  0  0  0  0  0  0  0  0  0  0
   58.6530   25.1280   46.3620 C   0  0  0  0  0  0  0  0  0  0  0  0
   59.0000   24.1182   46.6264 H   0  0  0  0  0  0  0  0  0  0  0  0
   59.0450   26.3210   46.9410 C   0  0  0  0  0  0  0  0  0  0  0  0
   60.0420   26.4650   48.0480 C   0  0  0  0  0  0  0  0  0  0  0  0
   59.5271   26.3906   49.0172 H   0  0  0  0  0  0  0  0  0  0  0  0
   60.7942   25.6662   47.9702 H   0  0  0  0  0  0  0  0  0  0  0  0
   60.5374   27.4440   47.9702 H   0  0  0  0  0  0  0  0  0  0  0  0
   58.3150   27.3240   46.3170 C   0  0  0  0  0  0  0  0  0  0  0  0
   58.4020   28.7740   46.5720 C   0  0  0  0  0  0  0  0  0  0  0  0
   59.1132   29.0991   47.3456 H   0  0  0  0  0  0  0  0  0  0  0  0
   57.6940   29.7440   45.9490 C   0  0  0  0  0  0  0  0  0  0  0  0
   56.5830   29.3290   45.2800 N   0  0  0  0  0  0  0  0  0  0  0  0
   55.8530   30.1590   44.5000 C   0  0  0  0  0  0  0  0  0  0  0  0
   54.8400   29.7240   43.8930 O   0  0  0  0  0  0  0  0  0  0  0  0
   56.2240   31.4520   44.3550 N   0  0  0  0  0  0  0  0  0  0  0  0
   57.2880   31.9580   45.0270 C   0  0  0  0  0  0  0  0  0  0  0  0
   57.5760   33.1760   44.8710 O   0  0  0  0  0  0  0  0  0  0  0  0
   58.0320   31.1360   45.9090 C   0  0  0  0  0  0  0  0  0  0  0  0
   58.9230   31.7110   46.7420 C   0  0  0  0  0  0  0  0  0  0  0  0
   59.5099   31.0891   47.4339 H   0  0  0  0  0  0  0  0  0  0  0  0
   59.0629   32.8020   46.7296 H   0  0  0  0  0  0  0  0  0  0  0  0
   57.5390   26.7950   45.3530 N   0  0  0  0  0  0  0  0  0  0  0  0
   56.8940   27.3170   44.7190 H   0  0  0  0  0  0  0  0  0  0  0  0
  1  2  1  0
  2  3  1  0
  3  4  1  0
  4  5  1  0
  5  6  2  0
  5  7  1  0
  7  8  1  0
  8  9  1  0
  9 10  1  0
  9 11  1  0
  9 12  1  0
 12 13  2  0
 13 14  1  0
 13 15  1  0
 15 16  1  0
 16 17  1  0
 16 18  1  0
 16 19  1  0
 15 20  2  0
 20 21  1  0
 21 22  1  0
 21 23  2  0
 23 24  1  0
 24 25  1  0
 25 26  2  0
 25 27  1  0
 27 28  1  0
 28 29  2  0
 28 30  1  0
 30 31  2  0
 31 32  1  0
 31 33  1  0
 20 34  1  0
 34 35  1  0
  8  3  2  0
 34 12  1  0
 30 23  1  0
M  CHG  4   4  -1   7  -1  24  -1  27  -1
M  END
>  <UniqueID>  (37) 
37

>  <SMILES>  (37) 
C=c1c(=O)[n-]c(=O)[n-]/c1=C/c1[nH]c(Cc2[n-]c(=O)[n-]c2O)cc1C

>  <Energy>  (37) 
110.8166361167694

>  <Genealogy>  (37) 
C=c1c(=O)[n-]c(=O)[n-]c1=Cc1[nH]c(Cc2[n-]c(=O)[n-]c2O)cc1C (protonated)
C=c1c(=O)[n-]c(=O)[n-]/c1=C/c1[nH]c(Cc2[n-]c(=O)[n-]c2O)cc1C (cis-trans isomerization)
C=c1c(=O)[n-]c(=O)[n-]/c1=C/c1[nH]c(Cc2[n-]c(=O)[n-]c2O)cc1C (3D coordinates assigned)
C=c1c(=O)[n-]c(=O)[n-]/c1=C/c1[nH]c(Cc2[n-]c(=O)[n-]c2O)cc1C (optimized conformer: 110.8166361167694 kcal/mol)

>  <smiles>  (37) 
C=c1c(=O)[nH]c(=O)[nH]c1=Cc1[nH]c(Cc2[nH]c(=O)[nH]c2O)cc1C

>  <score_type>  (37) 
oracle

>  <origin>  (37) 
adg

>  <m_score__min__energy>  (37) 
-15.06

>  <m_primary>  (37) 
energy

$$$$
37:0
     RDKit          3D

 37 39  0  0  0  0  0  0  0  0999 V2000
   56.0850   28.6680   45.1830 O   0  0  0  0  0  0  0  0  0  0  0  0
   57.1770   28.1650   45.5620 C   0  0  0  0  0  0  0  0  0  0  0  0
   58.3970   29.0520   45.6200 C   0  0  0  0  0  0  0  0  0  0  0  0
   58.1680   30.2630   46.5540 C   0  0  1  0  0  0  0  0  0  0  0  0
   59.2510   30.3780   47.6110 C   0  0  0  0  0  0  0  0  0  0  0  0
   58.9310   30.3770   48.9830 C   0  0  0  0  0  0  0  0  0  0  0  0
   59.9320   30.5500   49.9440 C   0  0  0  0  0  0  0  0  0  0  0  0
   61.2600   30.7280   49.5480 C   0  0  0  0  0  0  0  0  0  0  0  0
   62.2520   30.9100   50.5060 O   0  0  0  0  0  0  0  0  0  0  0  0
   61.5910   30.7250   48.1920 C   0  0  0  0  0  0  0  0  0  0  0  0
   60.5940   30.5490   47.2270 C   0  0  0  0  0  0  0  0  0  0  0  0
   58.0200   31.5680   45.8050 C   0  0  0  0  0  0  0  0  0  0  0  0
   58.9520   32.5380   45.8420 N   0  0  0  0  0  0  0  0  0  0  0  0
   58.4710   33.4780   45.0040 C   0  0  0  0  0  0  0  0  0  0  0  0
   59.0750   34.5600   44.7790 O   0  0  0  0  0  0  0  0  0  0  0  0
   57.2950   33.1690   44.4220 N   0  0  0  0  0  0  0  0  0  0  0  0
   57.0220   31.9550   44.9300 C   0  0  0  0  0  0  0  0  0  0  0  0
   55.8880   31.2230   44.5980 O   0  0  0  0  0  0  0  0  0  0  0  0
   57.2090   26.7520   46.0170 C   0  0  0  0  0  0  0  0  0  0  0  0
   58.4360   26.0970   46.2400 C   0  0  0  0  0  0  0  0  0  0  0  0
   58.4630   24.7850   46.7190 C   0  0  0  0  0  0  0  0  0  0  0  0
   57.2710   24.1060   46.9710 C   0  0  0  0  0  0  0  0  0  0  0  0
   57.3010   22.8020   47.4500 O   0  0  0  0  0  0  0  0  0  0  0  0
   56.0460   24.7360   46.7390 C   0  0  0  0  0  0  0  0  0  0  0  0
   56.0090   26.0530   46.2650 C   0  0  0  0  0  0  0  0  0  0  0  0
   54.7750   26.6630   46.0710 O   0  0  0  0  0  0  0  0  0  0  0  0
   59.2486   28.4658   45.9958 H   0  0  0  0  0  0  0  0  0  0  0  0
   58.6005   29.4289   44.6068 H   0  0  0  0  0  0  0  0  0  0  0  0
   57.2105   30.0677   47.0591 H   0  0  0  0  0  0  0  0  0  0  0  0
   57.8868   30.2392   49.3004 H   0  0  0  0  0  0  0  0  0  0  0  0
   59.6735   30.5459   51.0132 H   0  0  0  0  0  0  0  0  0  0  0  0
   62.6375   30.8613   47.8819 H   0  0  0  0  0  0  0  0  0  0  0  0
   60.8616   30.5442   46.1601 H   0  0  0  0  0  0  0  0  0  0  0  0
   55.5010   30.5480   45.2450 H   0  0  0  0  0  0  0  0  0  0  0  0
   59.3803   26.6227   46.0354 H   0  0  0  0  0  0  0  0  0  0  0  0
   59.4269   24.2861   46.8979 H   0  0  0  0  0  0  0  0  0  0  0  0
   55.1071   24.1955   46.9294 H   0  0  0  0  0  0  0  0  0  0  0  0
  1  2  2  0
  2  3  1  0
  3  4  1  0
  4  5  1  0
  5  6  2  0
  6  7  1  0
  7  8  2  0
  8  9  1  0
  8 10  1  0
 10 11  2  0
  4 12  1  0
 12 13  1  0
 13 14  1  0
 14 15  2  0
 14 16  1  0
 16 17  1  0
 17 18  1  0
  2 19  1  0
 19 20  2  0
 20 21  1  0
 21 22  2  0
 22 23  1  0
 22 24  1  0
 24 25  2  0
 25 26  1  0
 11  5  1  0
 17 12  2  0
 25 19  1  0
  3 27  1  0
  3 28  1  0
  4 29  1  1
  6 30  1  0
  7 31  1  0
 10 32  1  0
 11 33  1  0
 18 34  1  0
 20 35  1  0
 21 36  1  0
 24 37  1  0
M  CHG  5   9  -1  13  -1  16  -1  23  -1  26  -1
M  END
>  <UniqueID>  (38) 
38

>  <SMILES>  (38) 
O=C(C[C@@H](c1ccc([O-])cc1)c1[n-]c(=O)[n-]c1O)c1ccc([O-])cc1[O-]

>  <Energy>  (38) 
70.23541643174563

>  <Genealogy>  (38) 
O=C(CC(c1ccc([O-])cc1)c1[n-]c(=O)[n-]c1O)c1ccc([O-])cc1[O-] (protonated)
O=C(C[C@@H](c1ccc([O-])cc1)c1[n-]c(=O)[n-]c1O)c1ccc([O-])cc1[O-] (chirality)
O=C(C[C@@H](c1ccc([O-])cc1)c1[n-]c(=O)[n-]c1O)c1ccc([O-])cc1[O-] (3D coordinates assigned)
O=C(C[C@@H](c1ccc([O-])cc1)c1[n-]c(=O)[n-]c1O)c1ccc([O-])cc1[O-] (optimized conformer: 70.23541643174563 kcal/mol)

>  <smiles>  (38) 
O=C(CC(c1ccc(O)cc1)c1[nH]c(=O)[nH]c1O)c1ccc(O)cc1O

>  <score_type>  (38) 
oracle

>  <origin>  (38) 
adg

>  <m_score__min__energy>  (38) 
-16.57

>  <m_primary>  (38) 
energy

$$$$
38:0
     RDKit          3D

 55 58  0  0  0  0  0  0  0  0999 V2000
   56.2470   25.0150   47.1920 O   0  0  0  0  0  0  0  0  0  0  0  0
   56.1130   25.9200   46.3250 C   0  0  0  0  0  0  0  0  0  0  0  0
   54.8320   26.3480   45.9910 O   0  0  0  0  0  0  0  0  0  0  0  0
   57.2960   26.5200   45.6720 C   0  0  0  0  0  0  0  0  0  0  0  0
   57.4100   26.5170   44.2720 C   0  0  0  0  0  0  0  0  0  0  0  0
   58.5220   27.0920   43.6520 C   0  0  0  0  0  0  0  0  0  0  0  0
   59.5280   27.6810   44.4190 C   0  0  0  0  0  0  0  0  0  0  0  0
   59.4390   27.6930   45.8210 C   0  0  0  0  0  0  0  0  0  0  0  0
   60.4700   28.3150   46.6140 N   0  0  0  0  0  0  0  0  0  0  0  0
   59.8760   29.2080   47.5830 C   0  0  0  0  0  0  0  0  0  0  0  0
   59.9070   28.8650   48.9470 C   0  0  0  0  0  0  0  0  0  0  0  0
   59.4020   29.7320   49.9160 C   0  0  0  0  0  0  0  0  0  0  0  0
   58.8510   30.9690   49.5470 C   0  0  0  0  0  0  0  0  0  0  0  0
   58.2870   31.8790   50.5730 C   0  0  0  0  0  0  0  0  0  0  0  0
   57.3280   31.4960   51.2950 O   0  0  0  0  0  0  0  0  0  0  0  0
   58.8360   33.1890   50.7550 N   0  0  0  0  0  0  0  0  0  0  0  0
   60.2400   33.5190   50.5440 C   0  0  0  0  0  0  0  0  0  0  0  0
   60.5250   33.7220   49.0810 C   0  0  0  0  0  0  0  0  0  0  0  0
   59.6280   34.4520   48.2830 C   0  0  0  0  0  0  0  0  0  0  0  0
   59.8950   34.6500   46.9250 C   0  0  0  0  0  0  0  0  0  0  0  0
   61.0580   34.1270   46.3540 C   0  0  0  0  0  0  0  0  0  0  0  0
   61.9580   33.4030   47.1420 C   0  0  0  0  0  0  0  0  0  0  0  0
   61.6950   33.2000   48.5010 C   0  0  0  0  0  0  0  0  0  0  0  0
   58.8290   31.3250   48.1890 C   0  0  0  0  0  0  0  0  0  0  0  0
   59.3260   30.4580   47.2070 C   0  0  0  0  0  0  0  0  0  0  0  0
   59.2690   30.8680   45.8350 N   0  0  0  0  0  0  0  0  0  0  0  0
   58.1490   30.5980   44.9720 C   0  0  0  0  0  0  0  0  0  0  0  0
   57.0770   29.7830   45.3870 C   0  0  0  0  0  0  0  0  0  0  0  0
   56.0020   29.5400   44.5260 C   0  0  0  0  0  0  0  0  0  0  0  0
   55.9860   30.1030   43.2480 C   0  0  0  0  0  0  0  0  0  0  0  0
   57.0430   30.9160   42.8290 C   0  0  0  0  0  0  0  0  0  0  0  0
   58.1200   31.1620   43.6880 C   0  0  0  0  0  0  0  0  0  0  0  0
   58.3180   27.1080   46.4410 C   0  0  0  0  0  0  0  0  0  0  0  0
   56.6189   26.0591   43.6601 H   0  0  0  0  0  0  0  0  0  0  0  0
   58.6049   27.0804   42.5552 H   0  0  0  0  0  0  0  0  0  0  0  0
   60.3963   28.1389   43.9226 H   0  0  0  0  0  0  0  0  0  0  0  0
   61.0530   27.5810   47.0740 H   0  0  0  0  0  0  0  0  0  0  0  0
   61.1230   28.8520   45.9960 H   0  0  0  0  0  0  0  0  0  0  0  0
   60.3355   27.8994   49.2537 H   0  0  0  0  0  0  0  0  0  0  0  0
   59.4358   29.4441   50.9771 H   0  0  0  0  0  0  0  0  0  0  0  0
   60.4796   34.4433   51.0901 H   0  0  0  0  0  0  0  0  0  0  0  0
   60.8579   32.6868   50.9123 H   0  0  0  0  0  0  0  0  0  0  0  0
   58.7127   34.8691   48.7282 H   0  0  0  0  0  0  0  0  0  0  0  0
   59.1874   35.2192   46.3043 H   0  0  0  0  0  0  0  0  0  0  0  0
   61.2654   34.2847   45.2853 H   0  0  0  0  0  0  0  0  0  0  0  0
   62.8743   32.9924   46.6927 H   0  0  0  0  0  0  0  0  0  0  0  0
   62.4056   32.6303   49.1178 H   0  0  0  0  0  0  0  0  0  0  0  0
   58.4151   32.2998   47.8914 H   0  0  0  0  0  0  0  0  0  0  0  0
   59.9940   31.5470   45.5110 H   0  0  0  0  0  0  0  0  0  0  0  0
   57.0857   29.3362   46.3921 H   0  0  0  0  0  0  0  0  0  0  0  0
   55.1673   28.9041   44.8561 H   0  0  0  0  0  0  0  0  0  0  0  0
   55.1415   29.9066   42.5711 H   0  0  0  0  0  0  0  0  0  0  0  0
   57.0282   31.3625   41.8238 H   0  0  0  0  0  0  0  0  0  0  0  0
   58.9498   31.8022   43.3539 H   0  0  0  0  0  0  0  0  0  0  0  0
   58.2402   27.1106   47.5382 H   0  0  0  0  0  0  0  0  0  0  0  0
  1  2  2  0
  2  3  1  0
  2  4  1  0
  4  5  2  0
  5  6  1  0
  6  7  2  0
  7  8  1  0
  8  9  1  0
  9 10  1  0
 10 11  2  0
 11 12  1  0
 12 13  2  0
 13 14  1  0
 14 15  2  0
 14 16  1  0
 16 17  1  0
 17 18  1  0
 18 19  2  0
 19 20  1  0
 20 21  2  0
 21 22  1  0
 22 23  2  0
 13 24  1  0
 24 25  2  0
 25 26  1  0
 26 27  1  0
 27 28  2  0
 28 29  1  0
 29 30  2  0
 30 31  1  0
 31 32  2  0
  8 33  2  0
 33  4  1  0
 25 10  1  0
 32 27  1  0
 23 18  1  0
  5 34  1  0
  6 35  1  0
  7 36  1  0
  9 37  1  0
  9 38  1  0
 11 39  1  0
 12 40  1  0
 17 41  1  0
 17 42  1  0
 19 43  1  0
 20 44  1  0
 21 45  1  0
 22 46  1  0
 23 47  1  0
 24 48  1  0
 26 49  1  0
 28 50  1  0
 29 51  1  0
 30 52  1  0
 31 53  1  0
 32 54  1  0
 33 55  1  0
M  CHG  3   3  -1   9   1  16  -1
M  END
>  <UniqueID>  (39) 
39

>  <SMILES>  (39) 
O=C([O-])c1cccc([NH2+]c2ccc(C(=O)[N-]Cc3ccccc3)cc2Nc2ccccc2)c1

>  <Energy>  (39) 
68.78514616900547

>  <Genealogy>  (39) 
O=C([O-])c1cccc([NH2+]c2ccc(C(=O)[N-]Cc3ccccc3)cc2Nc2ccccc2)c1 (protonated)
O=C([O-])c1cccc([NH2+]c2ccc(C(=O)[N-]Cc3ccccc3)cc2Nc2ccccc2)c1 (3D coordinates assigned)
O=C([O-])c1cccc([NH2+]c2ccc(C(=O)[N-]Cc3ccccc3)cc2Nc2ccccc2)c1 (optimized conformer: 68.78514616900547 kcal/mol)

>  <smiles>  (39) 
O=C(O)c1cccc(Nc2ccc(C(=O)NCc3ccccc3)cc2Nc2ccccc2)c1

>  <score_type>  (39) 
oracle

>  <origin>  (39) 
adg

>  <m_score__min__energy>  (39) 
-11.58

>  <m_primary>  (39) 
energy

$$$$
39:0
     RDKit          3D

 40 43  0  0  0  0  0  0  0  0999 V2000
   57.9680   31.9790   42.9520 O   0  0  0  0  0  0  0  0  0  0  0  0
   57.4890   32.3170   44.0680 C   0  0  0  0  0  0  0  0  0  0  0  0
   57.5580   33.7460   44.5010 C   0  0  0  0  0  0  0  0  0  0  0  0
   58.3270   33.8540   45.7500 N   0  0  0  0  0  0  0  0  0  0  0  0
   58.1560   32.9210   46.6980 N   0  0  0  0  0  0  0  0  0  0  0  0
   58.8610   32.9430   47.8680 C   0  0  0  0  0  0  0  0  0  0  0  0
   58.6500   31.9050   48.8950 C   0  0  0  0  0  0  0  0  0  0  0  0
   58.9340   30.5980   48.7250 N   0  0  0  0  0  0  0  0  0  0  0  0
   58.6110   29.9960   49.8590 N   0  0  0  0  0  0  0  0  0  0  0  0
   58.1390   30.9570   50.6730 C   0  0  0  0  0  0  0  0  0  0  0  0
   57.6750   30.7160   52.0740 C   0  0  0  0  0  0  0  0  0  0  0  0
   56.1740   30.8590   52.2740 C   0  0  0  0  0  0  0  0  0  0  0  0
   57.1120   31.9440   52.7730 C   0  0  0  0  0  0  0  0  0  0  0  0
   58.1640   32.1320   50.0920 O   0  0  0  0  0  0  0  0  0  0  0  0
   59.7930   33.9620   48.0810 C   0  0  0  0  0  0  0  0  0  0  0  0
   59.9870   34.9230   47.0980 C   0  0  0  0  0  0  0  0  0  0  0  0
   59.2470   34.8570   45.9200 C   0  0  0  0  0  0  0  0  0  0  0  0
   59.4370   35.7220   45.0220 O   0  0  0  0  0  0  0  0  0  0  0  0
   56.9780   31.3320   44.9720 N   0  0  0  0  0  0  0  0  0  0  0  0
   57.5980   30.0750   45.2780 C   0  0  0  0  0  0  0  0  0  0  0  0
   58.9610   30.0620   45.6020 C   0  0  0  0  0  0  0  0  0  0  0  0
   59.6030   28.8620   45.9190 C   0  0  0  0  0  0  0  0  0  0  0  0
   58.8810   27.6640   45.9330 C   0  0  0  0  0  0  0  0  0  0  0  0
   59.7570   26.0250   46.3710 Br  0  0  0  0  0  0  0  0  0  0  0  0
   57.5130   27.6720   45.6430 C   0  0  0  0  0  0  0  0  0  0  0  0
   56.8660   28.8720   45.3240 C   0  0  0  0  0  0  0  0  0  0  0  0
   55.5250   28.8580   45.1220 F   0  0  0  0  0  0  0  0  0  0  0  0
   58.0496   34.3412   43.7174 H   0  0  0  0  0  0  0  0  0  0  0  0
   56.5385   34.1229   44.6697 H   0  0  0  0  0  0  0  0  0  0  0  0
   57.4680   32.1490   46.5400 H   0  0  0  0  0  0  0  0  0  0  0  0
   58.4270   29.9526   52.3225 H   0  0  0  0  0  0  0  0  0  0  0  0
   55.5202   31.0517   51.4107 H   0  0  0  0  0  0  0  0  0  0  0  0
   55.3881   30.2399   52.7313 H   0  0  0  0  0  0  0  0  0  0  0  0
   57.1374   32.9225   52.2710 H   0  0  0  0  0  0  0  0  0  0  0  0
   57.2866   32.4360   53.7412 H   0  0  0  0  0  0  0  0  0  0  0  0
   60.3673   34.0024   49.0183 H   0  0  0  0  0  0  0  0  0  0  0  0
   60.7192   35.7300   47.2483 H   0  0  0  0  0  0  0  0  0  0  0  0
   59.5300   31.0034   45.6069 H   0  0  0  0  0  0  0  0  0  0  0  0
   60.6768   28.8595   46.1577 H   0  0  0  0  0  0  0  0  0  0  0  0
   56.9428   26.7316   45.6656 H   0  0  0  0  0  0  0  0  0  0  0  0
  1  2  2  0
  2  3  1  0
  3  4  1  0
  4  5  1  0
  5  6  2  0
  6  7  1  0
  7  8  2  0
  8  9  1  0
  9 10  2  0
 10 11  1  0
 11 12  1  0
 12 13  1  0
 10 14  1  0
  6 15  1  0
 15 16  2  0
 16 17  1  0
 17 18  2  0
  2 19  1  0
 19 20  1  0
 20 21  2  0
 21 22  1  0
 22 23  2  0
 23 24  1  0
 23 25  1  0
 25 26  2  0
 26 27  1  0
 17  4  1  0
 26 20  1  0
 14  7  1  0
 13 11  1  0
  3 28  1  0
  3 29  1  0
  5 30  1  0
 11 31  1  0
 12 32  1  0
 12 33  1  0
 13 34  1  0
 13 35  1  0
 15 36  1  0
 16 37  1  0
 21 38  1  0
 22 39  1  0
 25 40  1  0
M  CHG  2   5   1  19  -1
M  END
>  <UniqueID>  (40) 
40

>  <SMILES>  (40) 
O=C(Cn1[nH+]c(-c2nnc(C3CC3)o2)ccc1=O)[N-]c1ccc(Br)cc1F

>  <Energy>  (40) 
345.9827401419849

>  <Genealogy>  (40) 
O=C(Cn1[nH+]c(-c2nnc(C3CC3)o2)ccc1=O)[N-]c1ccc(Br)cc1F (protonated)
O=C(Cn1[nH+]c(-c2nnc(C3CC3)o2)ccc1=O)[N-]c1ccc(Br)cc1F (3D coordinates assigned)
O=C(Cn1[nH+]c(-c2nnc(C3CC3)o2)ccc1=O)[N-]c1ccc(Br)cc1F (nonaromatic ring conformer: 345.9827401419849 kcal/mol)

>  <smiles>  (40) 
O=C(Cn1nc(-c2nnc(C3CC3)o2)ccc1=O)Nc1ccc(Br)cc1F

>  <score_type>  (40) 
oracle

>  <origin>  (40) 
adg

>  <m_score__min__energy>  (40) 
-8.6799999999999997

>  <m_primary>  (40) 
energy

$$$$
40:0
     RDKit          3D

 26 27  0  0  0  0  0  0  0  0999 V2000
   57.3410   20.3540   46.1370 C   0  0  0  0  0  0  0  0  0  0  0  0
   56.3620   21.1870   46.4890 C   0  0  0  0  0  0  0  0  0  0  0  0
   54.5500   20.5800   46.3900 Br  0  0  0  0  0  0  0  0  0  0  0  0
   56.6320   22.5940   46.8440 C   0  0  0  0  0  0  0  0  0  0  0  0
   56.6650   23.6350   45.9410 C   0  0  0  0  0  0  0  0  0  0  0  0
   57.0170   24.7650   46.6590 C   0  0  0  0  0  0  0  0  0  0  0  0
   57.1880   26.1350   46.1040 C   0  0  0  0  0  0  0  0  0  0  0  0
   58.4780   26.6570   45.8890 C   0  0  0  0  0  0  0  0  0  0  0  0
   58.6490   27.9390   45.3610 C   0  0  0  0  0  0  0  0  0  0  0  0
   57.5380   28.7230   45.0380 C   0  0  0  0  0  0  0  0  0  0  0  0
   57.7050   30.0030   44.5090 O   0  0  0  0  0  0  0  0  0  0  0  0
   56.2490   28.2190   45.2450 C   0  0  0  0  0  0  0  0  0  0  0  0
   55.1440   28.9990   44.9240 O   0  0  0  0  0  0  0  0  0  0  0  0
   56.0680   26.9350   45.7750 C   0  0  0  0  0  0  0  0  0  0  0  0
   54.7730   26.4710   45.9810 O   0  0  0  0  0  0  0  0  0  0  0  0
   57.1840   24.4630   47.9640 N   0  0  0  0  0  0  0  0  0  0  0  0
   56.9450   23.1420   48.0830 C   0  0  0  0  0  0  0  0  0  0  0  0
   56.9410   22.4690   49.3940 C   0  0  0  0  0  0  0  0  0  0  0  0
   57.9840   22.4090   50.0960 O   0  0  0  0  0  0  0  0  0  0  0  0
   55.7830   21.8490   49.8420 O   0  0  0  0  0  0  0  0  0  0  0  0
   58.3890   20.6845   46.1871 H   0  0  0  0  0  0  0  0  0  0  0  0
   57.1011   19.3360   45.7964 H   0  0  0  0  0  0  0  0  0  0  0  0
   56.4535   23.5789   44.8630 H   0  0  0  0  0  0  0  0  0  0  0  0
   59.3600   26.0492   46.1393 H   0  0  0  0  0  0  0  0  0  0  0  0
   59.6630   28.3333   45.1987 H   0  0  0  0  0  0  0  0  0  0  0  0
   56.9130   30.5650   44.2230 H   0  0  0  0  0  0  0  0  0  0  0  0
  1  2  2  0
  2  3  1  0
  2  4  1  0
  4  5  1  0
  5  6  2  0
  6  7  1  0
  7  8  2  0
  8  9  1  0
  9 10  2  0
 10 11  1  0
 10 12  1  0
 12 13  1  0
 12 14  2  0
 14 15  1  0
  6 16  1  0
 16 17  1  0
 17 18  1  0
 18 19  2  0
 18 20  1  0
 17  4  2  0
 14  7  1  0
  1 21  1  0
  1 22  1  0
  5 23  1  0
  8 24  1  0
  9 25  1  0
 11 26  1  0
M  CHG  4  13  -1  15  -1  16  -1  20  -1
M  END
>  <UniqueID>  (41) 
41

>  <SMILES>  (41) 
C=C(Br)c1cc(-c2ccc(O)c([O-])c2[O-])[n-]c1C(=O)[O-]

>  <Energy>  (41) 
59.41219486557744

>  <Genealogy>  (41) 
C=C(Br)c1cc(-c2ccc(O)c([O-])c2[O-])[n-]c1C(=O)[O-] (protonated)
C=C(Br)c1cc(-c2ccc(O)c([O-])c2[O-])[n-]c1C(=O)[O-] (3D coordinates assigned)
C=C(Br)c1cc(-c2ccc(O)c([O-])c2[O-])[n-]c1C(=O)[O-] (optimized conformer: 59.41219486557744 kcal/mol)

>  <smiles>  (41) 
C=C(Br)c1cc(-c2ccc(O)c(O)c2O)[nH]c1C(=O)O

>  <score_type>  (41) 
oracle

>  <origin>  (41) 
adg

>  <m_score__min__energy>  (41) 
-15.34

>  <m_primary>  (41) 
energy

$$$$
41:0
     RDKit          3D

 42 45  0  0  1  0  0  0  0  0999 V2000
   64.0800   32.4320   47.9560 N   0  0  0  0  0  0  0  0  0  0  0  0
   62.7200   33.4680   47.7090 S   0  0  0  0  0  0  0  0  0  0  0  0
   62.8770   34.2210   46.4090 O   0  0  0  0  0  0  0  0  0  0  0  0
   62.6320   34.5080   48.7800 O   0  0  0  0  0  0  0  0  0  0  0  0
   61.2650   32.5010   47.7290 C   0  0  0  0  0  0  0  0  0  0  0  0
   60.3230   32.6880   48.7190 C   0  0  0  0  0  0  0  0  0  0  0  0
   59.1640   31.9430   48.7670 C   0  0  0  0  0  0  0  0  0  0  0  0
   57.5820   31.8370   45.0400 C   0  0  0  0  0  0  0  0  0  0  0  0
   57.0350   30.7080   44.4620 C   0  0  0  0  0  0  0  0  0  0  0  0
   56.5410   29.7050   45.3020 N   0  0  0  0  0  0  0  0  0  0  0  0
   57.0020   28.5580   45.5580 C   0  0  0  0  0  0  0  0  0  0  0  0
   60.4640   27.7240   46.3590 N   0  0  0  0  0  0  0  0  0  0  0  0
   60.3180   26.4030   46.5210 C   0  0  0  0  0  0  0  0  0  0  0  0
   59.0930   25.8720   46.3580 N   0  0  0  0  0  0  0  0  0  0  0  0
   58.0590   26.6790   46.0380 C   0  0  0  0  0  0  0  0  0  0  0  0
   56.7890   26.3790   45.8320 N   0  0  0  0  0  0  0  0  0  0  0  0
   56.1570   27.4820   45.5480 N   0  0  0  0  0  0  0  0  0  0  0  0
   59.4410   28.5620   46.0370 C   0  0  0  0  0  0  0  0  0  0  0  0
   59.6820   29.7610   45.9110 N   0  0  0  0  0  0  0  0  0  0  0  0
   59.8470   30.7650   46.7940 C   0  0  0  0  0  0  0  0  0  0  0  0
   58.8940   30.9670   47.8120 C   0  0  0  0  0  0  0  0  0  0  0  0
   57.4590   31.5490   42.2530 C   0  0  0  0  0  0  0  0  0  0  0  0
   57.9960   32.6620   42.8570 C   0  0  0  0  0  0  0  0  0  0  0  0
   58.0690   32.8300   44.2220 C   0  0  0  0  0  0  0  0  0  0  0  0
   58.7780   34.2930   44.8980 Cl  0  0  0  0  0  0  0  0  0  0  0  0
   56.9700   30.5570   43.0770 C   0  0  0  0  0  0  0  0  0  0  0  0
   58.2160   28.0400   45.8720 C   0  0  0  0  0  0  0  0  0  0  0  0
   61.0240   31.5380   46.7670 C   0  0  0  0  0  0  0  0  0  0  0  0
   64.9400   33.0300   47.8850 H   0  0  0  0  0  0  0  0  0  0  0  0
   64.1450   31.7400   47.1780 H   0  0  0  0  0  0  0  0  0  0  0  0
   60.5012   33.4516   49.4905 H   0  0  0  0  0  0  0  0  0  0  0  0
   58.4394   32.1232   49.5747 H   0  0  0  0  0  0  0  0  0  0  0  0
   57.6274   31.9402   46.1342 H   0  0  0  0  0  0  0  0  0  0  0  0
   61.4270   28.1050   46.4920 H   0  0  0  0  0  0  0  0  0  0  0  0
   61.1779   25.7681   46.7808 H   0  0  0  0  0  0  0  0  0  0  0  0
   56.3670   25.4500   45.8830 H   0  0  0  0  0  0  0  0  0  0  0  0
   55.1450   27.5680   45.3370 H   0  0  0  0  0  0  0  0  0  0  0  0
   57.9685   30.3738   47.8507 H   0  0  0  0  0  0  0  0  0  0  0  0
   57.4211   31.4540   41.1578 H   0  0  0  0  0  0  0  0  0  0  0  0
   58.3892   33.4629   42.2136 H   0  0  0  0  0  0  0  0  0  0  0  0
   56.5292   29.6477   42.6423 H   0  0  0  0  0  0  0  0  0  0  0  0
   61.7624   31.3730   45.9686 H   0  0  0  0  0  0  0  0  0  0  0  0
  1  2  1  0
  2  3  2  0
  2  4  2  0
  2  5  1  0
  5  6  2  0
  6  7  1  0
  7  8  2  0
  8  9  1  0
  9 10  1  0
 10 11  2  0
 11 12  1  0
 12 13  1  0
 13 14  2  0
 14 15  1  0
 15 16  1  0
 16 17  1  0
 17 18  1  0
 18 19  2  0
 19 20  1  0
 20 21  2  0
 21 22  1  0
 22 23  2  0
 23 24  1  0
 24 25  1  0
 24 26  2  0
 18 27  1  0
  9 28  2  0
 28  5  1  0
 27 11  1  0
 27 15  2  0
 26 20  1  0
  1 29  1  0
  1 30  1  0
  6 31  1  0
  7 32  1  0
  8 33  1  0
 12 34  1  0
 13 35  1  0
 16 36  1  0
 17 37  1  0
 21 38  1  0
 22 39  1  0
 23 40  1  0
 26 41  1  0
 28 42  1  0
M  END
>  <smiles>  (42) 
NS(=O)(=O)c1cccc(N=c2[nH]cnc3[nH][nH]c(=Nc4cccc(Cl)c4)c23)c1

>  <score_type>  (42) 
oracle

>  <origin>  (42) 
adg

>  <m_score__min__energy>  (42) 
-9.7200000000000006

>  <m_primary>  (42) 
energy

$$$$
42:0
     RDKit          3D

 40 42  0  0  0  0  0  0  0  0999 V2000
   53.3580   28.0440   53.6390 C   0  0  0  0  0  0  0  0  0  0  0  0
   54.1370   29.0550   53.2240 C   0  0  0  0  0  0  0  0  0  0  0  0
   55.4670   28.9450   53.4980 N   0  0  0  0  0  0  0  0  0  0  0  0
   56.3820   29.8680   53.1160 C   0  0  0  0  0  0  0  0  0  0  0  0
   55.9800   31.0060   52.4210 C   0  0  0  0  0  0  0  0  0  0  0  0
   56.9780   32.0210   52.0120 C   0  0  0  0  0  0  0  0  0  0  0  0
   56.7300   33.2410   52.2150 O   0  0  0  0  0  0  0  0  0  0  0  0
   58.2110   31.6450   51.3680 N   0  0  0  0  0  0  0  0  0  0  0  0
   58.2240   30.5860   50.3510 C   0  0  0  0  0  0  0  0  0  0  0  0
   59.3710   30.8050   49.3490 C   0  0  0  0  0  0  0  0  0  0  0  0
   59.5510   32.2370   49.0240 N   0  0  0  0  0  0  0  0  0  0  0  0
   58.4190   32.7660   48.2430 C   0  0  0  0  0  0  0  0  0  0  0  0
   59.8470   33.0810   50.2110 C   0  0  0  0  0  0  0  0  0  0  0  0
   59.4190   32.4510   51.5500 C   0  0  0  0  0  0  0  0  0  0  0  0
   54.6260   31.1550   52.1020 C   0  0  0  0  0  0  0  0  0  0  0  0
   53.6630   30.1960   52.4940 C   0  0  0  0  0  0  0  0  0  0  0  0
   52.3440   30.3920   52.2230 C   0  0  0  0  0  0  0  0  0  0  0  0
   51.7820   30.8410   50.9290 C   0  0  0  0  0  0  0  0  0  0  0  0
   51.6730   30.0820   49.8230 N   0  0  0  0  0  0  0  0  0  0  0  0
   51.0040   30.8770   48.9610 C   0  0  0  0  0  0  0  0  0  0  0  0
   50.7170   30.5170   47.7900 O   0  0  0  0  0  0  0  0  0  0  0  0
   50.6580   32.0840   49.4550 N   0  0  0  0  0  0  0  0  0  0  0  0
   51.1470   32.0400   50.7050 C   0  0  0  0  0  0  0  0  0  0  0  0
   51.0130   33.0720   51.6240 O   0  0  0  0  0  0  0  0  0  0  0  0
   52.2748   28.0707   53.4495 H   0  0  0  0  0  0  0  0  0  0  0  0
   53.8027   27.1886   54.1687 H   0  0  0  0  0  0  0  0  0  0  0  0
   57.4452   29.7183   53.3553 H   0  0  0  0  0  0  0  0  0  0  0  0
   58.3581   29.6126   50.8456 H   0  0  0  0  0  0  0  0  0  0  0  0
   57.2694   30.6097   49.8050 H   0  0  0  0  0  0  0  0  0  0  0  0
   60.3039   30.4191   49.7858 H   0  0  0  0  0  0  0  0  0  0  0  0
   59.1195   30.2726   48.4199 H   0  0  0  0  0  0  0  0  0  0  0  0
   57.6393   33.1304   48.9281 H   0  0  0  0  0  0  0  0  0  0  0  0
   58.7666   33.5950   47.6089 H   0  0  0  0  0  0  0  0  0  0  0  0
   58.0061   31.9676   47.6089 H   0  0  0  0  0  0  0  0  0  0  0  0
   60.9315   33.2622   50.2449 H   0  0  0  0  0  0  0  0  0  0  0  0
   59.2662   34.0080   50.0953 H   0  0  0  0  0  0  0  0  0  0  0  0
   60.2302   31.8097   51.9252 H   0  0  0  0  0  0  0  0  0  0  0  0
   59.2087   33.2534   52.2724 H   0  0  0  0  0  0  0  0  0  0  0  0
   54.3026   32.0390   51.5328 H   0  0  0  0  0  0  0  0  0  0  0  0
   51.6314   30.1996   53.0385 H   0  0  0  0  0  0  0  0  0  0  0  0
  1  2  2  0
  2  3  1  0
  3  4  2  0
  4  5  1  0
  5  6  1  0
  6  7  2  0
  6  8  1  0
  8  9  1  0
  9 10  1  0
 10 11  1  0
 11 12  1  0
 11 13  1  0
 13 14  1  0
  5 15  2  0
 15 16  1  0
 16 17  2  3
 17 18  1  0
 18 19  1  0
 19 20  1  0
 20 21  2  0
 20 22  1  0
 22 23  1  0
 23 24  1  0
 16  2  1  0
 23 18  2  0
 14  8  1  0
  1 25  1  0
  1 26  1  0
  4 27  1  0
  9 28  1  0
  9 29  1  0
 10 30  1  0
 10 31  1  0
 12 32  1  0
 12 33  1  0
 12 34  1  0
 13 35  1  0
 13 36  1  0
 14 37  1  0
 14 38  1  0
 15 39  1  0
 17 40  1  0
M  CHG  3  19  -1  22  -1  24  -1
M  END
>  <UniqueID>  (43) 
42

>  <SMILES>  (43) 
C=c1ncc(C(=O)N2CCN(C)CC2)cc1=Cc1[n-]c(=O)[n-]c1[O-]

>  <Energy>  (43) 
98.06815144889198

>  <Genealogy>  (43) 
C=c1ncc(C(=O)N2CCN(C)CC2)cc1=Cc1[n-]c(=O)[n-]c1[O-] (protonated)
C=c1ncc(C(=O)N2CCN(C)CC2)cc1=Cc1[n-]c(=O)[n-]c1[O-] (3D coordinates assigned)
C=c1ncc(C(=O)N2CCN(C)CC2)cc1=Cc1[n-]c(=O)[n-]c1[O-] (nonaromatic ring conformer: 98.06815144889198 kcal/mol)

>  <smiles>  (43) 
C=c1ncc(C(=O)N2CCN(C)CC2)cc1=Cc1[nH]c(=O)[nH]c1O

>  <score_type>  (43) 
oracle

>  <origin>  (43) 
adg

>  <m_score__min__energy>  (43) 
-16.789999999999999

>  <m_primary>  (43) 
energy

$$$$
43:0
     RDKit          3D

 44 46  0  0  0  0  0  0  0  0999 V2000
   54.4608   27.3355   53.9489 H   0  0  0  0  0  0  0  0  0  0  0  0
   53.8680   28.1450   53.4980 C   0  0  0  0  0  0  0  0  0  0  0  0
   52.7703   28.0767   53.4766 H   0  0  0  0  0  0  0  0  0  0  0  0
   54.4840   29.2160   52.9740 C   0  0  0  0  0  0  0  0  0  0  0  0
   53.8660   30.3200   52.3690 C   0  0  0  0  0  0  0  0  0  0  0  0
   52.5400   30.5210   52.2180 C   0  0  0  0  0  0  0  0  0  0  0  0
   51.9107   30.4124   53.1137 H   0  0  0  0  0  0  0  0  0  0  0  0
   51.8580   30.8750   50.9520 C   0  0  0  0  0  0  0  0  0  0  0  0
   51.7690   30.0970   49.8580 N   0  0  0  0  0  0  0  0  0  0  0  0
   51.0290   30.8360   49.0040 C   0  0  0  0  0  0  0  0  0  0  0  0
   50.7290   30.4390   47.8480 O   0  0  0  0  0  0  0  0  0  0  0  0
   50.6350   32.0340   49.4860 N   0  0  0  0  0  0  0  0  0  0  0  0
   51.1640   32.0400   50.7200 C   0  0  0  0  0  0  0  0  0  0  0  0
   51.0150   33.0900   51.6170 O   0  0  0  0  0  0  0  0  0  0  0  0
   54.8960   31.1670   51.9800 C   0  0  0  0  0  0  0  0  0  0  0  0
   54.7903   32.1323   51.4633 H   0  0  0  0  0  0  0  0  0  0  0  0
   56.0760   30.5670   52.3650 C   0  0  0  0  0  0  0  0  0  0  0  0
   57.4090   31.1660   52.1590 C   0  0  0  0  0  0  0  0  0  0  0  0
   57.9790   31.7150   53.1400 O   0  0  0  0  0  0  0  0  0  0  0  0
   58.0790   31.1030   50.8850 N   0  0  0  0  0  0  0  0  0  0  0  0
   58.5320   29.8200   50.3250 C   0  0  0  0  0  0  0  0  0  0  0  0
   57.7663   29.4432   49.6310 H   0  0  0  0  0  0  0  0  0  0  0  0
   58.6881   29.1175   51.1570 H   0  0  0  0  0  0  0  0  0  0  0  0
   59.8810   29.9730   49.5560 C   0  0  2  0  0  0  0  0  0  0  0  0
   59.7289   29.4358   48.6082 H   0  0  0  0  0  0  0  0  0  0  0  0
   61.0310   29.3710   50.3660 C   0  0  0  0  0  0  0  0  0  0  0  0
   60.8202   29.4814   51.4400 H   0  0  0  0  0  0  0  0  0  0  0  0
   61.1333   28.3037   50.1202 H   0  0  0  0  0  0  0  0  0  0  0  0
   61.9663   29.8951   50.1202 H   0  0  0  0  0  0  0  0  0  0  0  0
   60.2240   31.3160   49.2390 O   0  0  0  0  0  0  0  0  0  0  0  0
   59.0860   32.0570   48.8530 C   0  0  2  0  0  0  0  0  0  0  0  0
   58.4819   31.4947   48.1258 H   0  0  0  0  0  0  0  0  0  0  0  0
   59.5330   33.3620   48.1980 C   0  0  0  0  0  0  0  0  0  0  0  0
   59.7845   34.0962   48.9776 H   0  0  0  0  0  0  0  0  0  0  0  0
   60.4179   33.1739   47.5723 H   0  0  0  0  0  0  0  0  0  0  0  0
   58.7186   33.7560   47.5723 H   0  0  0  0  0  0  0  0  0  0  0  0
   58.2410   32.3330   50.1020 C   0  0  0  0  0  0  0  0  0  0  0  0
   57.2510   32.7026   49.7967 H   0  0  0  0  0  0  0  0  0  0  0  0
   58.7491   33.0880   50.7199 H   0  0  0  0  0  0  0  0  0  0  0  0
   55.8320   29.3740   52.9540 N   0  0  0  0  0  0  0  0  0  0  0  0
   56.8290   28.3940   53.4010 C   0  0  0  0  0  0  0  0  0  0  0  0
   56.8528   28.3706   54.5005 H   0  0  0  0  0  0  0  0  0  0  0  0
   56.5611   27.3979   53.0188 H   0  0  0  0  0  0  0  0  0  0  0  0
   57.8203   28.6790   53.0188 H   0  0  0  0  0  0  0  0  0  0  0  0
  1  2  1  0
  2  3  1  0
  2  4  2  0
  4  5  1  0
  5  6  2  0
  6  7  1  0
  6  8  1  0
  8  9  1  0
  9 10  1  0
 10 11  2  0
 10 12  1  0
 12 13  1  0
 13 14  1  0
  5 15  1  0
 15 16  1  0
 15 17  2  0
 17 18  1  0
 18 19  2  0
 18 20  1  0
 20 21  1  0
 21 22  1  0
 21 23  1  0
 21 24  1  0
 24 25  1  6
 24 26  1  0
 26 27  1  0
 26 28  1  0
 26 29  1  0
 24 30  1  0
 30 31  1  0
 31 32  1  6
 31 33  1  0
 33 34  1  0
 33 35  1  0
 33 36  1  0
 31 37  1  0
 37 38  1  0
 37 39  1  0
 17 40  1  0
 40 41  1  0
 41 42  1  0
 41 43  1  0
 41 44  1  0
 40  4  1  0
 13  8  2  0
 37 20  1  0
M  CHG  3   9  -1  12  -1  14  -1
M  END
>  <UniqueID>  (44) 
43

>  <SMILES>  (44) 
C=c1/c(=C/c2[n-]c(=O)[n-]c2[O-])cc(C(=O)N2C[C@@H](C)O[C@@H](C)C2)n1C

>  <Energy>  (44) 
115.70474528034266

>  <Genealogy>  (44) 
C=c1c(=Cc2[n-]c(=O)[n-]c2[O-])cc(C(=O)N2CC(C)OC(C)C2)n1C (protonated)
C=c1c(=Cc2[n-]c(=O)[n-]c2[O-])cc(C(=O)N2C[C@@H](C)O[C@@H](C)C2)n1C (chirality)
C=c1/c(=C/c2[n-]c(=O)[n-]c2[O-])cc(C(=O)N2C[C@@H](C)O[C@@H](C)C2)n1C (cis-trans isomerization)
C=c1/c(=C/c2[n-]c(=O)[n-]c2[O-])cc(C(=O)N2C[C@@H](C)O[C@@H](C)C2)n1C (3D coordinates assigned)
C=c1/c(=C/c2[n-]c(=O)[n-]c2[O-])cc(C(=O)N2C[C@@H](C)O[C@@H](C)C2)n1C (nonaromatic ring conformer: 115.70474528034266 kcal/mol)

>  <smiles>  (44) 
C=c1c(=Cc2[nH]c(=O)[nH]c2O)cc(C(=O)N2CC(C)OC(C)C2)n1C

>  <score_type>  (44) 
oracle

>  <origin>  (44) 
adg

>  <m_score__min__energy>  (44) 
-16.969999999999999

>  <m_primary>  (44) 
energy

$$$$
44:0
     RDKit          3D

 40 41  0  0  0  0  0  0  0  0999 V2000
   57.6950   24.1580   45.6830 C   0  0  0  0  0  0  0  0  0  0  0  0
   56.6380   24.8640   44.8430 C   0  0  0  0  0  0  0  0  0  0  0  0
   55.6280   25.5320   45.7240 C   0  0  0  0  0  0  0  0  0  0  0  0
   54.8010   24.8310   46.3670 O   0  0  0  0  0  0  0  0  0  0  0  0
   55.6220   26.9610   45.8360 N   0  0  0  0  0  0  0  0  0  0  0  0
   56.7020   27.8440   45.4990 C   0  0  0  0  0  0  0  0  0  0  0  0
   58.0340   27.5630   45.8580 C   0  0  0  0  0  0  0  0  0  0  0  0
   59.0550   28.4630   45.5380 C   0  0  0  0  0  0  0  0  0  0  0  0
   58.7550   29.6540   44.8700 C   0  0  0  0  0  0  0  0  0  0  0  0
   57.4310   29.9530   44.5320 C   0  0  0  0  0  0  0  0  0  0  0  0
   57.0440   31.4900   43.6920 S   0  0  0  0  0  0  0  0  0  0  0  0
   57.9080   32.4810   44.9110 C   0  0  0  0  0  0  0  0  0  0  0  0
   57.7600   32.2010   46.2740 C   0  0  0  0  0  0  0  0  0  0  0  0
   58.4330   32.9720   47.2270 C   0  0  0  0  0  0  0  0  0  0  0  0
   59.2710   34.0290   46.8200 C   0  0  0  0  0  0  0  0  0  0  0  0
   59.9550   34.8630   47.7660 N   0  0  0  0  0  0  0  0  0  0  0  0
   60.6130   34.4290   48.9620 C   0  0  0  0  0  0  0  0  0  0  0  0
   59.9610   34.2200   50.0200 O   0  0  0  0  0  0  0  0  0  0  0  0
   62.0930   34.2070   48.9490 C   0  0  0  0  0  0  0  0  0  0  0  0
   62.4950   33.4840   47.7470 N   0  0  0  0  0  0  0  0  0  0  0  0
   62.0400   32.3240   47.4740 C   0  0  0  0  0  0  0  0  0  0  0  0
   61.4650   30.8610   47.1240 S   0  0  0  0  0  0  0  0  0  0  0  0
   59.3910   34.3200   45.4550 C   0  0  0  0  0  0  0  0  0  0  0  0
   58.7190   33.5460   44.5040 C   0  0  0  0  0  0  0  0  0  0  0  0
   56.4080   29.0510   44.8510 C   0  0  0  0  0  0  0  0  0  0  0  0
   57.4739   24.3057   46.7504 H   0  0  0  0  0  0  0  0  0  0  0  0
   57.6883   23.0824   45.4525 H   0  0  0  0  0  0  0  0  0  0  0  0
   58.6860   24.5762   45.4525 H   0  0  0  0  0  0  0  0  0  0  0  0
   57.1245   25.6216   44.2110 H   0  0  0  0  0  0  0  0  0  0  0  0
   56.1260   24.1192   44.2161 H   0  0  0  0  0  0  0  0  0  0  0  0
   58.2724   26.6316   46.3924 H   0  0  0  0  0  0  0  0  0  0  0  0
   60.0954   28.2338   45.8121 H   0  0  0  0  0  0  0  0  0  0  0  0
   59.5607   30.3564   44.6101 H   0  0  0  0  0  0  0  0  0  0  0  0
   57.1126   31.3723   46.5967 H   0  0  0  0  0  0  0  0  0  0  0  0
   58.3078   32.7526   48.2976 H   0  0  0  0  0  0  0  0  0  0  0  0
   62.6045   35.1806   48.9729 H   0  0  0  0  0  0  0  0  0  0  0  0
   62.3690   33.6094   49.8303 H   0  0  0  0  0  0  0  0  0  0  0  0
   60.0180   35.1630   45.1291 H   0  0  0  0  0  0  0  0  0  0  0  0
   58.8282   33.7749   43.4336 H   0  0  0  0  0  0  0  0  0  0  0  0
   55.3667   29.2919   44.5910 H   0  0  0  0  0  0  0  0  0  0  0  0
  1  2  1  0
  2  3  1  0
  3  4  2  0
  3  5  1  0
  5  6  1  0
  6  7  2  0
  7  8  1  0
  8  9  2  0
  9 10  1  0
 10 11  1  0
 11 12  1  0
 12 13  2  0
 13 14  1  0
 14 15  2  0
 15 16  1  0
 16 17  1  0
 17 18  2  0
 17 19  1  0
 19 20  1  0
 20 21  2  0
 21 22  2  0
 15 23  1  0
 23 24  2  0
 10 25  2  0
 25  6  1  0
 24 12  1  0
  1 26  1  0
  1 27  1  0
  1 28  1  0
  2 29  1  0
  2 30  1  0
  7 31  1  0
  8 32  1  0
  9 33  1  0
 13 34  1  0
 14 35  1  0
 19 36  1  0
 19 37  1  0
 23 38  1  0
 24 39  1  0
 25 40  1  0
M  CHG  2   5  -1  16  -1
M  END
>  <UniqueID>  (45) 
44

>  <SMILES>  (45) 
CCC(=O)[N-]c1cccc(Sc2ccc([N-]C(=O)CN=C=S)cc2)c1

>  <Energy>  (45) 
35.18286884811816

>  <Genealogy>  (45) 
CCC(=O)[N-]c1cccc(Sc2ccc([N-]C(=O)CN=C=S)cc2)c1 (protonated)
CCC(=O)[N-]c1cccc(Sc2ccc([N-]C(=O)CN=C=S)cc2)c1 (3D coordinates assigned)
CCC(=O)[N-]c1cccc(Sc2ccc([N-]C(=O)CN=C=S)cc2)c1 (optimized conformer: 35.18286884811816 kcal/mol)

>  <smiles>  (45) 
CCC(=O)Nc1cccc(Sc2ccc(NC(=O)CN=C=S)cc2)c1

>  <score_type>  (45) 
oracle

>  <origin>  (45) 
adg

>  <m_score__min__energy>  (45) 
-11.27

>  <m_primary>  (45) 
energy

$$$$
45:0
     RDKit          3D

 50 53  0  0  0  0  0  0  0  0999 V2000
   55.1240   29.3400   44.7280 N   0  0  0  0  0  0  0  0  0  0  0  0
   56.0880   29.9940   43.9070 C   0  0  0  0  0  0  0  0  0  0  0  0
   56.0640   29.8230   42.6600 O   0  0  0  0  0  0  0  0  0  0  0  0
   57.1280   30.8480   44.5160 C   0  0  0  0  0  0  0  0  0  0  0  0
   57.3080   32.2140   44.2910 C   0  0  0  0  0  0  0  0  0  0  0  0
   58.2680   32.7900   45.1430 C   0  0  0  0  0  0  0  0  0  0  0  0
   58.8430   31.8720   46.0160 C   0  0  0  0  0  0  0  0  0  0  0  0
   59.6750   32.2320   47.1750 C   0  0  0  0  0  0  0  0  0  0  0  0
   59.5580   33.3960   47.6610 O   0  0  0  0  0  0  0  0  0  0  0  0
   60.6520   31.3140   47.7190 N   0  0  0  0  0  0  0  0  0  0  0  0
   60.4030   29.8730   47.6530 C   0  0  0  0  0  0  0  0  0  0  0  0
   59.9580   29.3530   49.0220 C   0  0  2  0  0  0  0  0  0  0  0  0
   58.8630   30.2240   49.6660 C   0  0  0  0  0  0  0  0  0  0  0  0
   58.2200   29.5130   50.7200 O   0  0  0  0  0  0  0  0  0  0  0  0
   57.6570   30.1270   51.8490 C   0  0  0  0  0  0  0  0  0  0  0  0
   56.4090   30.1420   52.0280 O   0  0  0  0  0  0  0  0  0  0  0  0
   58.5040   30.8240   52.7670 N   0  0  0  0  0  0  0  0  0  0  0  0
   59.3600   31.8750   52.3150 C   0  0  0  0  0  0  0  0  0  0  0  0
   60.6750   31.9750   52.8020 C   0  0  0  0  0  0  0  0  0  0  0  0
   61.5360   32.9600   52.3050 C   0  0  0  0  0  0  0  0  0  0  0  0
   61.0920   33.8270   51.3020 C   0  0  0  0  0  0  0  0  0  0  0  0
   59.7950   33.7010   50.7920 C   0  0  0  0  0  0  0  0  0  0  0  0
   58.9260   32.7340   51.3020 C   0  0  0  0  0  0  0  0  0  0  0  0
   61.0970   29.2140   49.9080 N   0  0  0  0  0  0  0  0  0  0  0  0
   62.0740   30.1950   50.2820 C   0  0  0  0  0  0  0  0  0  0  0  0
   62.6520   29.9990   51.3800 O   0  0  0  0  0  0  0  0  0  0  0  0
   62.5580   31.3190   49.4070 C   0  0  0  0  0  0  0  0  0  0  0  0
   63.7520   31.9620   49.8210 C   0  0  0  0  0  0  0  0  0  0  0  0
   64.3270   32.9980   49.0880 C   0  0  0  0  0  0  0  0  0  0  0  0
   63.7440   33.4180   47.9020 C   0  0  0  0  0  0  0  0  0  0  0  0
   62.5680   32.8190   47.4630 C   0  0  0  0  0  0  0  0  0  0  0  0
   61.9300   31.8040   48.2100 C   0  0  0  0  0  0  0  0  0  0  0  0
   58.1590   30.3630   45.7450 S   0  0  0  0  0  0  0  0  0  0  0  0
   54.6340   29.8690   45.4860 H   0  0  0  0  0  0  0  0  0  0  0  0
   56.7564   32.7812   43.5268 H   0  0  0  0  0  0  0  0  0  0  0  0
   58.5364   33.8565   45.1211 H   0  0  0  0  0  0  0  0  0  0  0  0
   59.6132   29.6737   46.9138 H   0  0  0  0  0  0  0  0  0  0  0  0
   61.3303   29.3605   47.3572 H   0  0  0  0  0  0  0  0  0  0  0  0
   59.5104   28.3618   48.8569 H   0  0  0  0  0  0  0  0  0  0  0  0
   59.3193   31.1391   50.0715 H   0  0  0  0  0  0  0  0  0  0  0  0
   58.1157   30.4818   48.9011 H   0  0  0  0  0  0  0  0  0  0  0  0
   61.0281   31.2773   53.5756 H   0  0  0  0  0  0  0  0  0  0  0  0
   62.5578   33.0517   52.7018 H   0  0  0  0  0  0  0  0  0  0  0  0
   61.7622   34.6081   50.9138 H   0  0  0  0  0  0  0  0  0  0  0  0
   59.4579   34.3676   49.9845 H   0  0  0  0  0  0  0  0  0  0  0  0
   57.9028   32.6488   50.9073 H   0  0  0  0  0  0  0  0  0  0  0  0
   64.2397   31.6325   50.7503 H   0  0  0  0  0  0  0  0  0  0  0  0
   65.2450   33.4836   49.4507 H   0  0  0  0  0  0  0  0  0  0  0  0
   64.2093   34.2209   47.3113 H   0  0  0  0  0  0  0  0  0  0  0  0
   62.1238   33.1437   46.5105 H   0  0  0  0  0  0  0  0  0  0  0  0
  1  2  1  0
  2  3  2  0
  2  4  1  0
  4  5  2  0
  5  6  1  0
  6  7  2  0
  7  8  1  0
  8  9  2  0
  8 10  1  0
 10 11  1  0
 11 12  1  0
 12 13  1  0
 13 14  1  0
 14 15  1  0
 15 16  2  0
 15 17  1  0
 17 18  1  0
 18 19  2  0
 19 20  1  0
 20 21  2  0
 21 22  1  0
 22 23  2  0
 12 24  1  0
 24 25  1  0
 25 26  2  0
 25 27  1  0
 27 28  2  0
 28 29  1  0
 29 30  2  0
 30 31  1  0
 31 32  2  0
  7 33  1  0
 33  4  1  0
 32 10  1  0
 23 18  1  0
 32 27  1  0
  1 34  1  0
  5 35  1  0
  6 36  1  0
 11 37  1  0
 11 38  1  0
 12 39  1  6
 13 40  1  0
 13 41  1  0
 19 42  1  0
 20 43  1  0
 21 44  1  0
 22 45  1  0
 23 46  1  0
 28 47  1  0
 29 48  1  0
 30 49  1  0
 31 50  1  0
M  CHG  3   1  -1  17  -1  24  -1
M  END
>  <UniqueID>  (46) 
45

>  <SMILES>  (46) 
[NH-]C(=O)c1ccc(C(=O)N2C[C@H](COC(=O)[N-]c3ccccc3)[N-]C(=O)c3ccccc32)s1

>  <Energy>  (46) 
113.82101218690066

>  <Genealogy>  (46) 
[NH-]C(=O)c1ccc(C(=O)N2CC(COC(=O)[N-]c3ccccc3)[N-]C(=O)c3ccccc32)s1 (protonated)
[NH-]C(=O)c1ccc(C(=O)N2C[C@H](COC(=O)[N-]c3ccccc3)[N-]C(=O)c3ccccc32)s1 (chirality)
[NH-]C(=O)c1ccc(C(=O)N2C[C@H](COC(=O)[N-]c3ccccc3)[N-]C(=O)c3ccccc32)s1 (3D coordinates assigned)
[NH-]C(=O)c1ccc(C(=O)N2C[C@H](COC(=O)[N-]c3ccccc3)[N-]C(=O)c3ccccc32)s1 (nonaromatic ring conformer: 113.82101218690066 kcal/mol)

>  <smiles>  (46) 
NC(=O)c1ccc(C(=O)N2CC(COC(=O)Nc3ccccc3)NC(=O)c3ccccc32)s1

>  <score_type>  (46) 
oracle

>  <origin>  (46) 
adg

>  <m_score__min__energy>  (46) 
-11.630000000000001

>  <m_primary>  (46) 
energy

$$$$
46:0
     RDKit          3D

 62 67  0  0  0  0  0  0  0  0999 V2000
   55.7130   22.2620   45.0020 N   0  0  0  0  0  0  0  0  0  0  0  0
   56.0810   23.3130   44.0520 C   0  0  0  0  0  0  0  0  0  0  0  0
   56.8800   24.4960   44.6760 C   0  0  1  0  0  0  0  0  0  0  0  0
   58.1220   24.0170   45.4780 C   0  0  0  0  0  0  0  0  0  0  0  0
   58.9420   25.2250   46.0050 C   0  0  0  0  0  0  0  0  0  0  0  0
   58.2710   26.5680   45.6080 C   0  0  1  0  0  0  0  0  0  0  0  0
   59.0590   27.7520   46.1300 C   0  0  0  0  0  0  0  0  0  0  0  0
   58.5540   28.6660   46.9880 N   0  0  0  0  0  0  0  0  0  0  0  0
   59.4360   29.6670   47.2530 C   0  0  0  0  0  0  0  0  0  0  0  0
   59.1460   30.7160   48.1800 N   0  0  0  0  0  0  0  0  0  0  0  0
   58.4780   31.9310   47.8210 C   0  0  0  0  0  0  0  0  0  0  0  0
   57.9690   32.6610   48.7130 O   0  0  0  0  0  0  0  0  0  0  0  0
   58.3660   32.3040   46.3990 C   0  0  0  0  0  0  0  0  0  0  0  0
   57.6580   31.4840   45.5730 N   0  0  0  0  0  0  0  0  0  0  0  0
   57.4530   31.7660   44.2560 C   0  0  0  0  0  0  0  0  0  0  0  0
   56.6520   30.8410   43.3720 C   0  0  0  0  0  0  0  0  0  0  0  0
   57.0180   29.3610   43.4100 C   0  0  0  0  0  0  0  0  0  0  0  0
   55.7680   29.8550   44.1280 C   0  0  0  0  0  0  0  0  0  0  0  0
   57.9690   32.9500   43.7190 C   0  0  0  0  0  0  0  0  0  0  0  0
   58.7150   33.8040   44.5310 C   0  0  0  0  0  0  0  0  0  0  0  0
   58.9510   33.4800   45.8710 C   0  0  0  0  0  0  0  0  0  0  0  0
   59.7820   34.3490   46.6590 N   0  0  0  0  0  0  0  0  0  0  0  0
   61.0470   33.9590   47.2280 C   0  0  0  0  0  0  0  0  0  0  0  0
   62.1390   33.7000   46.3930 C   0  0  0  0  0  0  0  0  0  0  0  0
   63.3380   33.3460   46.9240 N   0  0  0  0  0  0  0  0  0  0  0  0
   63.4970   33.2260   48.2670 C   0  0  0  0  0  0  0  0  0  0  0  0
   62.4490   33.4560   49.1000 N   0  0  0  0  0  0  0  0  0  0  0  0
   61.2330   33.8130   48.6120 C   0  0  0  0  0  0  0  0  0  0  0  0
   60.6590   29.5730   46.6020 C   0  0  0  0  0  0  0  0  0  0  0  0
   60.6160   28.1880   45.6490 S   0  0  0  0  0  0  0  0  0  0  0  0
   58.1840   26.6260   44.0660 C   0  0  0  0  0  0  0  0  0  0  0  0
   57.3840   25.4150   43.5220 C   0  0  0  0  0  0  0  0  0  0  0  0
   56.8200   26.5700   46.1700 C   0  0  0  0  0  0  0  0  0  0  0  0
   56.0080   25.3660   45.6240 C   0  0  0  0  0  0  0  0  0  0  0  0
   56.5140   21.6080   45.1480 H   0  0  0  0  0  0  0  0  0  0  0  0
   55.4320   22.6780   45.9180 H   0  0  0  0  0  0  0  0  0  0  0  0
   56.6977   22.8610   43.2612 H   0  0  0  0  0  0  0  0  0  0  0  0
   55.1391   23.7365   43.6732 H   0  0  0  0  0  0  0  0  0  0  0  0
   57.7869   23.4095   46.3316 H   0  0  0  0  0  0  0  0  0  0  0  0
   58.7628   23.4222   44.8105 H   0  0  0  0  0  0  0  0  0  0  0  0
   59.0064   25.1653   47.1015 H   0  0  0  0  0  0  0  0  0  0  0  0
   59.9463   25.1890   45.5577 H   0  0  0  0  0  0  0  0  0  0  0  0
   56.5126   31.5744   42.5641 H   0  0  0  0  0  0  0  0  0  0  0  0
   56.9243   28.7478   42.5016 H   0  0  0  0  0  0  0  0  0  0  0  0
   57.9091   28.7875   43.7053 H   0  0  0  0  0  0  0  0  0  0  0  0
   54.7721   29.5983   43.7378 H   0  0  0  0  0  0  0  0  0  0  0  0
   55.3832   29.7857   45.1562 H   0  0  0  0  0  0  0  0  0  0  0  0
   57.7878   33.2056   42.6645 H   0  0  0  0  0  0  0  0  0  0  0  0
   59.1203   34.7382   44.1150 H   0  0  0  0  0  0  0  0  0  0  0  0
   59.5040   35.3550   46.7240 H   0  0  0  0  0  0  0  0  0  0  0  0
   62.0262   33.7834   45.3020 H   0  0  0  0  0  0  0  0  0  0  0  0
   64.4758   32.9422   48.6811 H   0  0  0  0  0  0  0  0  0  0  0  0
   60.3936   33.9878   49.3011 H   0  0  0  0  0  0  0  0  0  0  0  0
   61.5009   30.2751   46.6929 H   0  0  0  0  0  0  0  0  0  0  0  0
   57.6801   27.5568   43.7665 H   0  0  0  0  0  0  0  0  0  0  0  0
   59.2021   26.5956   43.6506 H   0  0  0  0  0  0  0  0  0  0  0  0
   56.5167   25.7853   42.9557 H   0  0  0  0  0  0  0  0  0  0  0  0
   58.0505   24.8237   42.8770 H   0  0  0  0  0  0  0  0  0  0  0  0
   56.8597   26.5084   47.2676 H   0  0  0  0  0  0  0  0  0  0  0  0
   56.3236   27.4989   45.8526 H   0  0  0  0  0  0  0  0  0  0  0  0
   55.6670   24.7486   46.4681 H   0  0  0  0  0  0  0  0  0  0  0  0
   55.1467   25.7497   45.0574 H   0  0  0  0  0  0  0  0  0  0  0  0
  1  2  1  0
  3  2  1  6
  3  4  1  0
  4  5  1  0
  5  6  1  0
  6  7  1  1
  7  8  2  0
  8  9  1  0
  9 10  1  0
 10 11  1  0
 11 12  2  0
 11 13  1  0
 13 14  2  0
 14 15  1  0
 15 16  1  0
 16 17  1  0
 17 18  1  0
 15 19  2  0
 19 20  1  0
 20 21  2  0
 21 22  1  0
 22 23  1  0
 23 24  2  0
 24 25  1  0
 25 26  2  0
 26 27  1  0
 27 28  2  0
  9 29  2  0
 29 30  1  0
  6 31  1  0
 31 32  1  0
  6 33  1  0
 33 34  1  0
 32  3  1  0
 34  3  1  0
 30  7  1  0
 21 13  1  0
 28 23  1  0
 18 16  1  0
  1 35  1  0
  1 36  1  0
  2 37  1  0
  2 38  1  0
  4 39  1  0
  4 40  1  0
  5 41  1  0
  5 42  1  0
 16 43  1  0
 17 44  1  0
 17 45  1  0
 18 46  1  0
 18 47  1  0
 19 48  1  0
 20 49  1  0
 22 50  1  0
 24 51  1  0
 26 52  1  0
 28 53  1  0
 29 54  1  0
 31 55  1  0
 31 56  1  0
 32 57  1  0
 32 58  1  0
 33 59  1  0
 33 60  1  0
 34 61  1  0
 34 62  1  0
M  CHG  1  10  -1
M  END
>  <UniqueID>  (47) 
46

>  <SMILES>  (47) 
NCC12CCC(c3nc([N-]C(=O)c4nc(C5CC5)ccc4Nc4cncnc4)cs3)(CC1)CC2

>  <Energy>  (47) 
383.099970243209

>  <Genealogy>  (47) 
NCC12CCC(c3nc([N-]C(=O)c4nc(C5CC5)ccc4Nc4cncnc4)cs3)(CC1)CC2 (protonated)
NCC12CCC(c3nc([N-]C(=O)c4nc(C5CC5)ccc4Nc4cncnc4)cs3)(CC1)CC2 (3D coordinates assigned)
NCC12CCC(c3nc([N-]C(=O)c4nc(C5CC5)ccc4Nc4cncnc4)cs3)(CC1)CC2 (nonaromatic ring conformer: 383.099970243209 kcal/mol)

>  <smiles>  (47) 
NCC12CCC(c3nc(NC(=O)c4nc(C5CC5)ccc4Nc4cncnc4)cs3)(CC1)CC2

>  <score_type>  (47) 
oracle

>  <origin>  (47) 
adg

>  <m_score__min__energy>  (47) 
-11.5

>  <m_primary>  (47) 
energy

$$$$
47:0
     RDKit          3D

 66 70  0  0  0  0  0  0  0  0999 V2000
   58.2077   25.1659   43.0761 H   0  0  0  0  0  0  0  0  0  0  0  0
   57.7540   25.7170   43.9130 C   0  0  0  0  0  0  0  0  0  0  0  0
   56.9980   25.0560   44.8280 N   0  0  0  0  0  0  0  0  0  0  0  0
   56.4200   25.6880   45.8840 C   0  0  0  0  0  0  0  0  0  0  0  0
   55.6610   24.9930   46.6880 N   0  0  0  0  0  0  0  0  0  0  0  0
   55.3060   23.5760   46.5580 C   0  0  0  0  0  0  0  0  0  0  0  0
   54.6302   23.2954   47.3793 H   0  0  0  0  0  0  0  0  0  0  0  0
   54.8098   23.4213   45.5885 H   0  0  0  0  0  0  0  0  0  0  0  0
   56.5430   22.7130   46.6160 C   0  0  0  0  0  0  0  0  0  0  0  0
   56.9830   22.3710   47.7470 O   0  0  0  0  0  0  0  0  0  0  0  0
   57.2380   22.2890   45.4240 N   0  0  0  0  0  0  0  0  0  0  0  0
   58.6400   21.8750   45.5030 C   0  0  0  0  0  0  0  0  0  0  0  0
   59.1847   22.5603   46.1690 H   0  0  0  0  0  0  0  0  0  0  0  0
   58.6909   20.8497   45.8982 H   0  0  0  0  0  0  0  0  0  0  0  0
   59.2800   21.9080   44.1060 C   0  0  0  0  0  0  0  0  0  0  0  0
   59.2865   22.9494   43.7517 H   0  0  0  0  0  0  0  0  0  0  0  0
   60.2933   21.4922   44.2072 H   0  0  0  0  0  0  0  0  0  0  0  0
   58.6000   21.1130   43.1470 O   0  0  0  0  0  0  0  0  0  0  0  0
   57.1810   21.1090   43.2710 C   0  0  0  0  0  0  0  0  0  0  0  0
   56.7521   21.1730   42.2601 H   0  0  0  0  0  0  0  0  0  0  0  0
   56.9265   20.1799   43.8021 H   0  0  0  0  0  0  0  0  0  0  0  0
   56.5860   22.2550   44.1130 C   0  0  0  0  0  0  0  0  0  0  0  0
   56.7506   23.2124   43.5970 H   0  0  0  0  0  0  0  0  0  0  0  0
   55.5066   22.0897   44.2452 H   0  0  0  0  0  0  0  0  0  0  0  0
   56.6300   27.0740   46.0540 C   0  0  0  0  0  0  0  0  0  0  0  0
   56.1971   27.5946   46.9209 H   0  0  0  0  0  0  0  0  0  0  0  0
   57.3920   27.7860   45.1150 C   0  0  0  0  0  0  0  0  0  0  0  0
   57.5760   29.2450   45.2520 C   0  0  0  0  0  0  0  0  0  0  0  0
   56.6280   30.0300   44.9600 O   0  0  0  0  0  0  0  0  0  0  0  0
   58.8330   29.7730   45.6950 N   0  0  0  0  0  0  0  0  0  0  0  0
   59.4840   29.4090   46.9160 C   0  0  0  0  0  0  0  0  0  0  0  0
   59.3950   28.1050   47.4290 C   0  0  0  0  0  0  0  0  0  0  0  0
   58.8199   27.3392   46.8879 H   0  0  0  0  0  0  0  0  0  0  0  0
   60.0370   27.7800   48.6270 C   0  0  0  0  0  0  0  0  0  0  0  0
   59.9670   26.7578   49.0273 H   0  0  0  0  0  0  0  0  0  0  0  0
   60.7680   28.7510   49.3180 C   0  0  0  0  0  0  0  0  0  0  0  0
   61.2562   28.4935   50.2695 H   0  0  0  0  0  0  0  0  0  0  0  0
   60.8830   30.0550   48.8040 C   0  0  0  0  0  0  0  0  0  0  0  0
   61.6140   31.1190   49.5840 C   0  0  0  0  0  0  0  0  0  0  0  0
   60.9027   31.6247   50.2536 H   0  0  0  0  0  0  0  0  0  0  0  0
   62.4165   30.6364   50.1612 H   0  0  0  0  0  0  0  0  0  0  0  0
   62.2200   32.1140   48.6910 N   0  0  0  0  0  0  0  0  0  0  0  0
   61.4080   32.8590   47.9290 N   0  0  0  0  0  0  0  0  0  0  0  0
   61.8670   33.8380   47.1060 C   0  0  0  0  0  0  0  0  0  0  0  0
   60.9980   34.5560   46.4500 N   0  0  0  0  0  0  0  0  0  0  0  0
   59.6280   34.2420   46.1580 C   0  0  0  0  0  0  0  0  0  0  0  0
   58.7270   33.8850   47.1790 C   0  0  0  0  0  0  0  0  0  0  0  0
   59.0450   33.9325   48.2310 H   0  0  0  0  0  0  0  0  0  0  0  0
   57.4290   33.4700   46.8620 C   0  0  0  0  0  0  0  0  0  0  0  0
   56.7226   33.2115   47.6646 H   0  0  0  0  0  0  0  0  0  0  0  0
   57.0300   33.3840   45.5250 C   0  0  0  0  0  0  0  0  0  0  0  0
   56.0086   33.0610   45.2751 H   0  0  0  0  0  0  0  0  0  0  0  0
   57.9280   33.7080   44.5080 C   0  0  0  0  0  0  0  0  0  0  0  0
   57.6125   33.6420   43.4563 H   0  0  0  0  0  0  0  0  0  0  0  0
   59.2300   34.1170   44.8220 C   0  0  0  0  0  0  0  0  0  0  0  0
   59.9431   34.3410   44.0150 H   0  0  0  0  0  0  0  0  0  0  0  0
   63.2540   34.0370   47.0090 C   0  0  0  0  0  0  0  0  0  0  0  0
   63.6601   34.8001   46.3288 H   0  0  0  0  0  0  0  0  0  0  0  0
   64.1110   33.2560   47.7850 C   0  0  0  0  0  0  0  0  0  0  0  0
   65.2001   33.3962   47.7200 H   0  0  0  0  0  0  0  0  0  0  0  0
   63.5770   32.2980   48.6420 C   0  0  0  0  0  0  0  0  0  0  0  0
   64.3530   31.6150   49.3700 O   0  0  0  0  0  0  0  0  0  0  0  0
   60.2360   30.3730   47.5980 C   0  0  0  0  0  0  0  0  0  0  0  0
   60.3212   31.3892   47.1857 H   0  0  0  0  0  0  0  0  0  0  0  0
   57.9570   27.0920   44.0310 C   0  0  0  0  0  0  0  0  0  0  0  0
   58.5553   27.6297   43.2807 H   0  0  0  0  0  0  0  0  0  0  0  0
  1  2  1  0
  2  3  1  0
  3  4  1  0
  4  5  2  3
  5  6  1  0
  6  7  1  0
  6  8  1  0
  6  9  1  0
  9 10  2  0
  9 11  1  0
 11 12  1  0
 12 13  1  0
 12 14  1  0
 12 15  1  0
 15 16  1  0
 15 17  1  0
 15 18  1  0
 18 19  1  0
 19 20  1  0
 19 21  1  0
 19 22  1  0
 22 23  1  0
 22 24  1  0
  4 25  1  0
 25 26  1  0
 25 27  2  0
 27 28  1  0
 28 29  2  0
 28 30  1  0
 30 31  1  0
 31 32  2  0
 32 33  1  0
 32 34  1  0
 34 35  1  0
 34 36  2  0
 36 37  1  0
 36 38  1  0
 38 39  1  0
 39 40  1  0
 39 41  1  0
 39 42  1  0
 42 43  1  0
 43 44  1  0
 44 45  2  0
 45 46  1  0
 46 47  2  0
 47 48  1  0
 47 49  1  0
 49 50  1  0
 49 51  2  0
 51 52  1  0
 51 53  1  0
 53 54  1  0
 53 55  2  0
 55 56  1  0
 44 57  1  0
 57 58  1  0
 57 59  2  0
 59 60  1  0
 59 61  1  0
 61 62  2  0
 38 63  2  0
 63 64  1  0
 27 65  1  0
 65 66  1  0
 65  2  2  0
 22 11  1  0
 63 31  1  0
 61 42  1  0
 55 46  1  0
M  CHG  3   3  -1  30  -1  43  -1
M  END
>  <UniqueID>  (48) 
47

>  <SMILES>  (48) 
O=C([N-]c1cccc(Cn2[n-]/c(=N/c3ccccc3)ccc2=O)c1)c1cc[n-]c(=NCC(=O)N2CCOCC2)c1

>  <Energy>  (48) 
97.66870802760835

>  <Genealogy>  (48) 
O=C([N-]c1cccc(Cn2[n-]c(=Nc3ccccc3)ccc2=O)c1)c1cc[n-]c(=NCC(=O)N2CCOCC2)c1 (protonated)
O=C([N-]c1cccc(Cn2[n-]/c(=N/c3ccccc3)ccc2=O)c1)c1cc[n-]c(=NCC(=O)N2CCOCC2)c1 (cis-trans isomerization)
O=C([N-]c1cccc(Cn2[n-]/c(=N/c3ccccc3)ccc2=O)c1)c1cc[n-]c(=NCC(=O)N2CCOCC2)c1 (3D coordinates assigned)
O=C([N-]c1cccc(Cn2[n-]/c(=N/c3ccccc3)ccc2=O)c1)c1cc[n-]c(=NCC(=O)N2CCOCC2)c1 (nonaromatic ring conformer: 97.66870802760835 kcal/mol)

>  <smiles>  (48) 
O=C(Nc1cccc(Cn2[nH]c(=Nc3ccccc3)ccc2=O)c1)c1cc[nH]c(=NCC(=O)N2CCOCC2)c1

>  <score_type>  (48) 
oracle

>  <origin>  (48) 
adg

>  <m_score__min__energy>  (48) 
-14.32

>  <m_primary>  (48) 
energy

$$$$
48:0
     RDKit          3D

 30 31  0  0  1  0  0  0  0  0999 V2000
   58.1310   29.3780   48.9720 O   0  0  0  0  0  0  0  0  0  0  0  0
   59.2060   29.7690   48.4590 C   0  0  0  0  0  0  0  0  0  0  0  0
   60.4840   29.0330   48.6430 C   0  0  0  0  0  0  0  0  0  0  0  0
   60.7050   28.0650   47.5900 N   0  0  0  0  0  0  0  0  0  0  0  0
   59.9800   28.0050   46.5440 C   0  0  0  0  0  0  0  0  0  0  0  0
   60.5570   28.3000   45.3270 C   0  0  0  0  0  0  0  0  0  0  0  0
   59.7340   28.2240   44.2130 C   0  0  0  0  0  0  0  0  0  0  0  0
   58.4320   27.8780   44.3110 N   0  0  0  0  0  0  0  0  0  0  0  0
   57.6780   27.8230   43.1630 O   0  0  0  0  0  0  0  0  0  0  0  0
   57.9350   27.6030   45.5320 C   0  0  0  0  0  0  0  0  0  0  0  0
   56.7170   27.2840   45.5950 O   0  0  0  0  0  0  0  0  0  0  0  0
   58.6850   27.6600   46.6560 N   0  0  0  0  0  0  0  0  0  0  0  0
   59.2840   30.9610   47.6500 N   0  0  0  0  0  0  0  0  0  0  0  0
   58.6870   31.0800   46.5530 C   0  0  0  0  0  0  0  0  0  0  0  0
   57.6690   30.3620   45.9850 N   0  0  0  0  0  0  0  0  0  0  0  0
   57.2060   30.6640   44.8400 C   0  0  0  0  0  0  0  0  0  0  0  0
   56.0950   29.9110   44.1750 C   0  0  0  0  0  0  0  0  0  0  0  0
   55.9870   29.8820   42.9280 O   0  0  0  0  0  0  0  0  0  0  0  0
   55.1530   29.2250   44.9110 O   0  0  0  0  0  0  0  0  0  0  0  0
   57.7400   31.7620   44.1170 C   0  0  0  0  0  0  0  0  0  0  0  0
   59.0600   32.3800   45.2930 S   0  0  0  0  0  0  0  0  0  0  0  0
   61.3137   29.7552   48.6422 H   0  0  0  0  0  0  0  0  0  0  0  0
   60.4312   28.4913   49.5989 H   0  0  0  0  0  0  0  0  0  0  0  0
   61.6171   28.5816   45.2436 H   0  0  0  0  0  0  0  0  0  0  0  0
   60.1534   28.4519   43.2220 H   0  0  0  0  0  0  0  0  0  0  0  0
   56.6750   27.8200   43.2840 H   0  0  0  0  0  0  0  0  0  0  0  0
   58.2720   27.4430   47.5770 H   0  0  0  0  0  0  0  0  0  0  0  0
   57.3050   29.5360   46.5860 H   0  0  0  0  0  0  0  0  0  0  0  0
   55.1580   28.2040   44.8710 H   0  0  0  0  0  0  0  0  0  0  0  0
   57.4542   32.1481   43.1274 H   0  0  0  0  0  0  0  0  0  0  0  0
  1  2  2  0
  2  3  1  0
  3  4  1  0
  4  5  2  0
  5  6  1  0
  6  7  2  0
  7  8  1  0
  8  9  1  0
  8 10  1  0
 10 11  2  0
 10 12  1  0
  2 13  1  0
 13 14  2  0
 14 15  1  0
 15 16  1  0
 16 17  1  0
 17 18  2  0
 17 19  1  0
 16 20  2  0
 20 21  1  0
 12  5  1  0
 21 14  1  0
  3 22  1  0
  3 23  1  0
  6 24  1  0
  7 25  1  0
  9 26  1  0
 12 27  1  0
 15 28  1  0
 19 29  1  0
 20 30  1  0
M  END
>  <smiles>  (49) 
O=C(CN=c1ccn(O)c(=O)[nH]1)N=c1[nH]c(C(=O)O)cs1

>  <score_type>  (49) 
oracle

>  <origin>  (49) 
adg

>  <m_score__min__energy>  (49) 
-7.5800000000000001

>  <m_primary>  (49) 
energy

$$$$
49:0
     RDKit          3D

 47 49  0  0  0  0  0  0  0  0999 V2000
   58.5899   30.4045   47.8561 H   0  0  0  0  0  0  0  0  0  0  0  0
   58.3760   29.3860   47.5000 C   0  0  0  0  0  0  0  0  0  0  0  0
   58.4834   28.5306   48.1832 H   0  0  0  0  0  0  0  0  0  0  0  0
   57.9840   29.1870   46.2320 C   0  0  0  0  0  0  0  0  0  0  0  0
   57.6730   27.9590   45.6210 C   0  0  0  0  0  0  0  0  0  0  0  0
   57.8300   26.6920   46.0480 C   0  0  0  0  0  0  0  0  0  0  0  0
   58.7052   26.4794   46.6795 H   0  0  0  0  0  0  0  0  0  0  0  0
   56.9320   25.5670   45.7430 C   0  0  0  0  0  0  0  0  0  0  0  0
   55.5590   25.6160   45.6790 C   0  0  0  0  0  0  0  0  0  0  0  0
   54.7710   26.7100   46.0170 O   0  0  0  0  0  0  0  0  0  0  0  0
   55.0620   24.4480   45.2290 N   0  0  0  0  0  0  0  0  0  0  0  0
   56.1760   23.7170   45.0050 C   0  0  0  0  0  0  0  0  0  0  0  0
   56.1430   22.5420   44.5560 O   0  0  0  0  0  0  0  0  0  0  0  0
   57.3240   24.3640   45.2900 N   0  0  0  0  0  0  0  0  0  0  0  0
   58.3000   24.0170   45.1500 H   0  0  0  0  0  0  0  0  0  0  0  0
   57.1480   28.2690   44.3760 C   0  0  0  0  0  0  0  0  0  0  0  0
   56.7600   27.5568   43.6329 H   0  0  0  0  0  0  0  0  0  0  0  0
   57.2050   29.6410   44.2470 C   0  0  0  0  0  0  0  0  0  0  0  0
   56.7620   30.4040   43.0360 C   0  0  0  0  0  0  0  0  0  0  0  0
   56.2327   31.3156   43.3503 H   0  0  0  0  0  0  0  0  0  0  0  0
   57.6407   30.6792   42.4343 H   0  0  0  0  0  0  0  0  0  0  0  0
   56.0873   29.7773   42.4343 H   0  0  0  0  0  0  0  0  0  0  0  0
   57.7210   30.1980   45.3640 N   0  0  0  0  0  0  0  0  0  0  0  0
   57.8670   31.6100   45.5970 C   0  0  0  0  0  0  0  0  0  0  0  0
   57.0560   32.5210   44.9080 C   0  0  0  0  0  0  0  0  0  0  0  0
   56.3234   32.1569   44.1727 H   0  0  0  0  0  0  0  0  0  0  0  0
   57.1760   33.8900   45.1530 C   0  0  0  0  0  0  0  0  0  0  0  0
   56.5364   34.6024   44.6113 H   0  0  0  0  0  0  0  0  0  0  0  0
   58.1070   34.3580   46.0850 C   0  0  0  0  0  0  0  0  0  0  0  0
   58.1929   35.4378   46.2764 H   0  0  0  0  0  0  0  0  0  0  0  0
   58.9350   33.4570   46.7800 C   0  0  0  0  0  0  0  0  0  0  0  0
   59.9180   33.9620   47.7690 C   0  0  0  0  0  0  0  0  0  0  0  0
   59.6150   34.9540   48.4880 O   0  0  0  0  0  0  0  0  0  0  0  0
   61.2150   33.3540   47.8950 N   0  0  0  0  0  0  0  0  0  0  0  0
   61.5570   32.7340   47.1280 H   0  0  0  0  0  0  0  0  0  0  0  0
   62.0990   33.5870   49.0030 C   0  0  0  0  0  0  0  0  0  0  0  0
   61.7280   34.2800   49.9890 O   0  0  0  0  0  0  0  0  0  0  0  0
   63.4670   32.9720   49.0090 C   0  0  0  0  0  0  0  0  0  0  0  0
   64.2220   33.7684   49.0849 H   0  0  0  0  0  0  0  0  0  0  0  0
   63.5479   32.2909   49.8689 H   0  0  0  0  0  0  0  0  0  0  0  0
   63.6830   32.2370   47.8200 O   0  0  0  0  0  0  0  0  0  0  0  0
   63.7850   33.1110   46.7170 C   0  0  0  0  0  0  0  0  0  0  0  0
   63.9055   34.1434   47.0771 H   0  0  0  0  0  0  0  0  0  0  0  0
   64.6566   32.8314   46.1070 H   0  0  0  0  0  0  0  0  0  0  0  0
   62.8724   33.0396   46.1070 H   0  0  0  0  0  0  0  0  0  0  0  0
   58.7950   32.0790   46.5380 C   0  0  0  0  0  0  0  0  0  0  0  0
   59.4191   31.3623   47.0919 H   0  0  0  0  0  0  0  0  0  0  0  0
  1  2  1  0
  2  3  1  0
  2  4  2  0
  4  5  1  0
  5  6  2  0
  6  7  1  0
  6  8  1  0
  8  9  2  0
  9 10  1  0
  9 11  1  0
 11 12  1  0
 12 13  2  0
 12 14  1  0
 14 15  1  0
  5 16  1  0
 16 17  1  0
 16 18  2  0
 18 19  1  0
 19 20  1  0
 19 21  1  0
 19 22  1  0
 18 23  1  0
 23 24  1  0
 24 25  2  0
 25 26  1  0
 25 27  1  0
 27 28  1  0
 27 29  2  0
 29 30  1  0
 29 31  1  0
 31 32  1  0
 32 33  2  0
 32 34  1  0
 34 35  1  0
 34 36  1  0
 36 37  2  0
 36 38  1  0
 38 39  1  0
 38 40  1  0
 38 41  1  0
 41 42  1  0
 42 43  1  0
 42 44  1  0
 42 45  1  0
 31 46  2  0
 46 47  1  0
 23  4  1  0
 46 24  1  0
 14  8  1  0
M  CHG  2  10  -1  11  -1
M  END
>  <UniqueID>  (50) 
48

>  <SMILES>  (50) 
C=c1/c(=C\c2[nH]c(=O)[n-]c2[O-])cc(C)n1-c1cccc(C(=O)NC(=O)COC)c1

>  <Energy>  (50) 
128.4934786167167

>  <Genealogy>  (50) 
C=c1c(=Cc2[nH]c(=O)[n-]c2[O-])cc(C)n1-c1cccc(C(=O)NC(=O)COC)c1 (protonated)
C=c1/c(=C\c2[nH]c(=O)[n-]c2[O-])cc(C)n1-c1cccc(C(=O)NC(=O)COC)c1 (cis-trans isomerization)
C=c1/c(=C\c2[nH]c(=O)[n-]c2[O-])cc(C)n1-c1cccc(C(=O)NC(=O)COC)c1 (3D coordinates assigned)
C=c1/c(=C\c2[nH]c(=O)[n-]c2[O-])cc(C)n1-c1cccc(C(=O)NC(=O)COC)c1 (optimized conformer: 128.4934786167167 kcal/mol)

>  <smiles>  (50) 
C=c1c(=Cc2[nH]c(=O)[nH]c2O)cc(C)n1-c1cccc(C(=O)NC(=O)COC)c1

>  <score_type>  (50) 
oracle

>  <origin>  (50) 
adg

>  <m_score__min__energy>  (50) 
-14.48

>  <m_primary>  (50) 
energy

$$$$
50:0
     RDKit          3D

 45 49  0  0  0  0  0  0  0  0999 V2000
   52.3131   28.8378   53.1775 H   0  0  0  0  0  0  0  0  0  0  0  0
   53.3340   28.4360   53.2570 C   0  0  0  0  0  0  0  0  0  0  0  0
   53.4921   27.3948   53.5747 H   0  0  0  0  0  0  0  0  0  0  0  0
   54.3920   29.2200   52.9650 C   0  0  0  0  0  0  0  0  0  0  0  0
   55.6690   28.6420   53.0880 C   0  0  0  0  0  0  0  0  0  0  0  0
   55.7590   27.6106   53.4597 H   0  0  0  0  0  0  0  0  0  0  0  0
   56.8200   29.3460   52.7500 C   0  0  0  0  0  0  0  0  0  0  0  0
   57.8028   28.8619   52.8491 H   0  0  0  0  0  0  0  0  0  0  0  0
   56.7410   30.6640   52.2850 C   0  0  0  0  0  0  0  0  0  0  0  0
   57.9650   31.4410   51.9340 C   0  0  0  0  0  0  0  0  0  0  0  0
   59.0000   31.2890   52.6430 O   0  0  0  0  0  0  0  0  0  0  0  0
   58.0030   32.3200   50.7750 N   0  0  2  0  0  0  0  0  0  0  0  0
   57.0380   32.6800   50.5870 H   0  0  0  0  0  0  0  0  0  0  0  0
   58.5180   31.6450   49.5550 C   0  0  2  0  0  0  0  0  0  0  0  0
   57.8053   30.8913   49.1889 H   0  0  0  0  0  0  0  0  0  0  0  0
   59.8980   31.1040   49.8240 C   0  0  0  0  0  0  0  0  0  0  0  0
   60.3470   29.8170   50.1130 C   0  0  0  0  0  0  0  0  0  0  0  0
   59.5080   28.7550   50.0520 F   0  0  0  0  0  0  0  0  0  0  0  0
   61.6920   29.6570   50.4950 C   0  0  0  0  0  0  0  0  0  0  0  0
   62.0869   28.6511   50.7003 H   0  0  0  0  0  0  0  0  0  0  0  0
   62.5370   30.7820   50.6160 C   0  0  0  0  0  0  0  0  0  0  0  0
   63.5868   30.6473   50.9156 H   0  0  0  0  0  0  0  0  0  0  0  0
   62.0450   32.0730   50.3560 C   0  0  0  0  0  0  0  0  0  0  0  0
   62.8320   33.1650   50.5140 F   0  0  0  0  0  0  0  0  0  0  0  0
   60.7190   32.1980   49.9430 C   0  0  0  0  0  0  0  0  0  0  0  0
   59.8610   33.4040   49.7120 C   0  0  1  0  0  0  0  0  0  0  0  0
   60.4175   34.3288   49.4997 H   0  0  0  0  0  0  0  0  0  0  0  0
   58.9060   32.8280   48.6780 C   0  0  0  0  0  0  0  0  0  0  0  0
   58.0613   33.4940   48.4477 H   0  0  0  0  0  0  0  0  0  0  0  0
   59.2877   32.6275   47.6660 H   0  0  0  0  0  0  0  0  0  0  0  0
   58.9060   33.5020   50.9200 C   0  0  0  0  0  0  0  0  0  0  0  0
   58.3301   34.4386   50.8862 H   0  0  0  0  0  0  0  0  0  0  0  0
   59.4426   33.5051   51.8802 H   0  0  0  0  0  0  0  0  0  0  0  0
   55.4760   31.2660   52.1810 C   0  0  0  0  0  0  0  0  0  0  0  0
   55.4103   32.3081   51.8349 H   0  0  0  0  0  0  0  0  0  0  0  0
   54.2810   30.5760   52.5070 C   0  0  0  0  0  0  0  0  0  0  0  0
   53.0860   31.2220   52.4330 C   0  0  0  0  0  0  0  0  0  0  0  0
   52.7517   31.7686   53.3271 H   0  0  0  0  0  0  0  0  0  0  0  0
   52.2010   31.2500   51.2520 C   0  0  0  0  0  0  0  0  0  0  0  0
   52.2600   30.3430   50.2610 N   0  0  0  0  0  0  0  0  0  0  0  0
   51.3690   30.8070   49.3580 C   0  0  0  0  0  0  0  0  0  0  0  0
   51.1270   30.2100   48.2770 O   0  0  0  0  0  0  0  0  0  0  0  0
   50.7660   31.9660   49.6980 N   0  0  0  0  0  0  0  0  0  0  0  0
   51.3130   32.2410   50.8940 C   0  0  0  0  0  0  0  0  0  0  0  0
   51.0320   33.3910   51.6220 O   0  0  0  0  0  0  0  0  0  0  0  0
  1  2  1  0
  2  3  1  0
  2  4  2  0
  4  5  1  0
  5  6  1  0
  5  7  2  0
  7  8  1  0
  7  9  1  0
  9 10  1  0
 10 11  2  0
 10 12  1  0
 12 13  1  6
 12 14  1  0
 14 15  1  6
 14 16  1  0
 16 17  2  0
 17 18  1  0
 17 19  1  0
 19 20  1  0
 19 21  2  0
 21 22  1  0
 21 23  1  0
 23 24  1  0
 23 25  2  0
 25 26  1  0
 26 27  1  6
 26 28  1  0
 28 29  1  0
 28 30  1  0
 26 31  1  0
 31 32  1  0
 31 33  1  0
  9 34  2  0
 34 35  1  0
 34 36  1  0
 36 37  2  0
 37 38  1  0
 37 39  1  0
 39 40  1  0
 40 41  1  0
 41 42  2  0
 41 43  1  0
 43 44  1  0
 44 45  1  0
 36  4  1  0
 44 39  2  0
 31 12  1  0
 28 14  1  0
 25 16  1  0
M  CHG  4  12   1  40  -1  43  -1  45  -1
M  END
>  <UniqueID>  (51) 
49

>  <SMILES>  (51) 
C=c1ccc(C(=O)[N@H+]2C[C@@H]3CC2c2c(F)ccc(F)c23)c/c1=C\c1[n-]c(=O)[n-]c1[O-]

>  <Energy>  (51) 
155.8859499686515

>  <Genealogy>  (51) 
C=c1ccc(C(=O)[NH+]2CC3CC2c2c(F)ccc(F)c23)cc1=Cc1[n-]c(=O)[n-]c1[O-] (protonated)
C=c1ccc(C(=O)[N@H+]2C[C@@H]3CC2c2c(F)ccc(F)c23)cc1=Cc1[n-]c(=O)[n-]c1[O-] (chirality)
C=c1ccc(C(=O)[N@H+]2C[C@@H]3CC2c2c(F)ccc(F)c23)c/c1=C\c1[n-]c(=O)[n-]c1[O-] (cis-trans isomerization)
C=c1ccc(C(=O)[N@H+]2C[C@@H]3CC2c2c(F)ccc(F)c23)c/c1=C\c1[n-]c(=O)[n-]c1[O-] (3D coordinates assigned)
C=c1ccc(C(=O)[N@H+]2C[C@@H]3CC2c2c(F)ccc(F)c23)c/c1=C\c1[n-]c(=O)[n-]c1[O-] (nonaromatic ring conformer: 155.8859499686515 kcal/mol)

>  <smiles>  (51) 
C=c1ccc(C(=O)N2CC3CC2c2c(F)ccc(F)c23)cc1=Cc1[nH]c(=O)[nH]c1O

>  <score_type>  (51) 
oracle

>  <origin>  (51) 
adg

>  <m_score__min__energy>  (51) 
-16.25

>  <m_primary>  (51) 
energy

$$$$
51:0
     RDKit          3D

 59 62  0  0  0  0  0  0  0  0999 V2000
   58.9799   28.8759   43.0818 H   0  0  0  0  0  0  0  0  0  0  0  0
   58.1290   28.7590   43.7690 C   0  0  0  0  0  0  0  0  0  0  0  0
   56.8690   29.4720   43.4670 C   0  0  0  0  0  0  0  0  0  0  0  0
   56.2380   29.2300   42.4030 O   0  0  0  0  0  0  0  0  0  0  0  0
   56.3820   30.4940   44.3440 N   0  0  0  0  0  0  0  0  0  0  0  0
   57.2060   31.4420   45.0380 C   0  0  0  0  0  0  0  0  0  0  0  0
   57.7750   31.1360   46.2860 C   0  0  0  0  0  0  0  0  0  0  0  0
   57.5774   30.1605   46.7542 H   0  0  0  0  0  0  0  0  0  0  0  0
   58.5910   32.0670   46.9340 C   0  0  0  0  0  0  0  0  0  0  0  0
   59.0280   31.8240   47.9138 H   0  0  0  0  0  0  0  0  0  0  0  0
   58.8550   33.3090   46.3410 C   0  0  0  0  0  0  0  0  0  0  0  0
   59.9470   34.4510   47.1260 S   0  0  0  0  0  0  0  0  0  0  0  0
   60.2350   35.5930   46.1880 O   0  0  0  0  0  0  0  0  0  0  0  0
   59.2730   35.0130   48.3500 O   0  0  0  0  0  0  0  0  0  0  0  0
   61.4540   33.6920   47.5850 N   0  0  0  0  0  0  0  0  0  0  0  0
   61.9600   34.2610   48.8490 C   0  0  0  0  0  0  0  0  0  0  0  0
   61.9610   35.3586   48.7758 H   0  0  0  0  0  0  0  0  0  0  0  0
   61.3061   33.9334   49.6706 H   0  0  0  0  0  0  0  0  0  0  0  0
   63.3960   33.7710   49.1330 C   0  0  0  0  0  0  0  0  0  0  0  0
   64.0998   34.5987   48.9611 H   0  0  0  0  0  0  0  0  0  0  0  0
   63.4517   33.4308   50.1776 H   0  0  0  0  0  0  0  0  0  0  0  0
   63.7360   32.6900   48.2860 O   0  0  0  0  0  0  0  0  0  0  0  0
   63.7680   33.1250   46.9320 C   0  0  0  0  0  0  0  0  0  0  0  0
   64.6101   33.8208   46.8030 H   0  0  0  0  0  0  0  0  0  0  0  0
   63.8825   32.2365   46.2937 H   0  0  0  0  0  0  0  0  0  0  0  0
   62.4630   33.8410   46.5200 C   0  0  0  0  0  0  0  0  0  0  0  0
   62.6681   34.9095   46.3582 H   0  0  0  0  0  0  0  0  0  0  0  0
   62.0801   33.3924   45.5915 H   0  0  0  0  0  0  0  0  0  0  0  0
   58.2600   33.6270   45.1100 C   0  0  0  0  0  0  0  0  0  0  0  0
   58.4493   34.6067   44.6471 H   0  0  0  0  0  0  0  0  0  0  0  0
   57.4280   32.7040   44.4700 C   0  0  0  0  0  0  0  0  0  0  0  0
   56.9459   32.9689   43.5174 H   0  0  0  0  0  0  0  0  0  0  0  0
   58.2750   27.9760   44.8470 C   0  0  0  0  0  0  0  0  0  0  0  0
   57.8763   26.9518   44.8027 H   0  0  0  0  0  0  0  0  0  0  0  0
   58.9450   28.4140   46.0980 C   0  0  0  0  0  0  0  0  0  0  0  0
   58.5040   28.0170   47.3790 C   0  0  0  0  0  0  0  0  0  0  0  0
   57.6280   27.3587   47.4750 H   0  0  0  0  0  0  0  0  0  0  0  0
   59.1720   28.4540   48.5260 C   0  0  0  0  0  0  0  0  0  0  0  0
   58.8130   28.1470   49.5194 H   0  0  0  0  0  0  0  0  0  0  0  0
   60.2950   29.2800   48.4160 C   0  0  0  0  0  0  0  0  0  0  0  0
   60.9650   29.7280   49.6020 N   0  0  0  0  0  0  0  0  0  0  0  0
   60.8610   31.1070   50.0090 C   0  0  0  0  0  0  0  0  0  0  0  0
   60.0880   31.8930   49.3960 O   0  0  0  0  0  0  0  0  0  0  0  0
   61.7450   31.6520   51.0920 C   0  0  0  0  0  0  0  0  0  0  0  0
   61.2084   32.4537   51.6205 H   0  0  0  0  0  0  0  0  0  0  0  0
   62.6641   32.0347   50.6243 H   0  0  0  0  0  0  0  0  0  0  0  0
   62.1380   30.5690   52.1010 C   0  0  0  0  0  0  0  0  0  0  0  0
   61.2626   30.3184   52.7181 H   0  0  0  0  0  0  0  0  0  0  0  0
   62.9552   30.9557   52.7276 H   0  0  0  0  0  0  0  0  0  0  0  0
   62.6270   29.3050   51.3910 C   0  0  0  0  0  0  0  0  0  0  0  0
   62.9263   28.5599   52.1428 H   0  0  0  0  0  0  0  0  0  0  0  0
   63.4846   29.5638   50.7526 H   0  0  0  0  0  0  0  0  0  0  0  0
   61.5160   28.7200   50.5160 C   0  0  0  0  0  0  0  0  0  0  0  0
   60.7097   28.3463   51.1642 H   0  0  0  0  0  0  0  0  0  0  0  0
   61.9436   27.9047   49.9139 H   0  0  0  0  0  0  0  0  0  0  0  0
   60.7500   29.6700   47.1480 C   0  0  0  0  0  0  0  0  0  0  0  0
   61.8380   30.4720   47.0290 F   0  0  0  0  0  0  0  0  0  0  0  0
   60.0820   29.2340   46.0000 C   0  0  0  0  0  0  0  0  0  0  0  0
   60.4506   29.5362   45.0086 H   0  0  0  0  0  0  0  0  0  0  0  0
  1  2  1  0
  2  3  1  0
  3  4  2  0
  3  5  1  0
  5  6  1  0
  6  7  2  0
  7  8  1  0
  7  9  1  0
  9 10  1  0
  9 11  2  0
 11 12  1  0
 12 13  2  0
 12 14  2  0
 12 15  1  0
 15 16  1  0
 16 17  1  0
 16 18  1  0
 16 19  1  0
 19 20  1  0
 19 21  1  0
 19 22  1  0
 22 23  1  0
 23 24  1  0
 23 25  1  0
 23 26  1  0
 26 27  1  0
 26 28  1  0
 11 29  1  0
 29 30  1  0
 29 31  2  0
 31 32  1  0
  2 33  2  0
 33 34  1  0
 33 35  1  0
 35 36  2  0
 36 37  1  0
 36 38  1  0
 38 39  1  0
 38 40  2  0
 40 41  1  0
 41 42  1  0
 42 43  2  0
 42 44  1  0
 44 45  1  0
 44 46  1  0
 44 47  1  0
 47 48  1  0
 47 49  1  0
 47 50  1  0
 50 51  1  0
 50 52  1  0
 50 53  1  0
 53 54  1  0
 53 55  1  0
 40 56  1  0
 56 57  1  0
 56 58  2  0
 58 59  1  0
 31  6  1  0
 58 35  1  0
 26 15  1  0
 53 41  1  0
M  CHG  1   5  -1
M  END
>  <UniqueID>  (52) 
50

>  <SMILES>  (52) 
O=C(/C=C/c1ccc(N2CCCCC2=O)c(F)c1)[N-]c1ccc(S(=O)(=O)N2CCOCC2)cc1

>  <Energy>  (52) 
79.03411889949535

>  <Genealogy>  (52) 
O=C(C=Cc1ccc(N2CCCCC2=O)c(F)c1)[N-]c1ccc(S(=O)(=O)N2CCOCC2)cc1 (protonated)
O=C(/C=C/c1ccc(N2CCCCC2=O)c(F)c1)[N-]c1ccc(S(=O)(=O)N2CCOCC2)cc1 (cis-trans isomerization)
O=C(/C=C/c1ccc(N2CCCCC2=O)c(F)c1)[N-]c1ccc(S(=O)(=O)N2CCOCC2)cc1 (3D coordinates assigned)
O=C(/C=C/c1ccc(N2CCCCC2=O)c(F)c1)[N-]c1ccc(S(=O)(=O)N2CCOCC2)cc1 (nonaromatic ring conformer: 79.03411889949535 kcal/mol)

>  <smiles>  (52) 
O=C(C=Cc1ccc(N2CCCCC2=O)c(F)c1)Nc1ccc(S(=O)(=O)N2CCOCC2)cc1

>  <score_type>  (52) 
oracle

>  <origin>  (52) 
adg

>  <m_score__min__energy>  (52) 
-11.67

>  <m_primary>  (52) 
energy

$$$$
52:0
     RDKit          3D

 44 46  0  0  0  0  0  0  0  0999 V2000
   58.0309   32.5333   40.9815 H   0  0  0  0  0  0  0  0  0  0  0  0
   57.4510   32.0540   41.7840 C   0  0  0  0  0  0  0  0  0  0  0  0
   56.4982   31.5558   41.5518 H   0  0  0  0  0  0  0  0  0  0  0  0
   57.9040   32.0770   43.0410 C   0  0  0  0  0  0  0  0  0  0  0  0
   58.8585   32.5792   43.2571 H   0  0  0  0  0  0  0  0  0  0  0  0
   57.1440   31.4350   44.1670 C   0  0  0  0  0  0  0  0  0  0  0  0
   56.1284   31.8561   44.2028 H   0  0  0  0  0  0  0  0  0  0  0  0
   57.1027   30.3500   43.9908 H   0  0  0  0  0  0  0  0  0  0  0  0
   57.8280   31.6840   45.4840 C   0  0  0  0  0  0  0  0  0  0  0  0
   58.3290   30.6120   46.2390 C   0  0  0  0  0  0  0  0  0  0  0  0
   58.2038   29.5810   45.8765 H   0  0  0  0  0  0  0  0  0  0  0  0
   58.9860   30.8490   47.4490 C   0  0  0  0  0  0  0  0  0  0  0  0
   59.3806   30.0027   48.0305 H   0  0  0  0  0  0  0  0  0  0  0  0
   59.1460   32.1540   47.9270 C   0  0  0  0  0  0  0  0  0  0  0  0
   59.8100   32.3470   49.1460 O   0  0  0  0  0  0  0  0  0  0  0  0
   59.1830   32.6380   50.3680 C   0  0  0  0  0  0  0  0  0  0  0  0
   59.5260   33.7700   51.1270 C   0  0  0  0  0  0  0  0  0  0  0  0
   60.3104   34.4536   50.7701 H   0  0  0  0  0  0  0  0  0  0  0  0
   58.8720   34.0280   52.3340 C   0  0  0  0  0  0  0  0  0  0  0  0
   59.1529   34.9073   52.9323 H   0  0  0  0  0  0  0  0  0  0  0  0
   57.8630   33.1740   52.7840 C   0  0  0  0  0  0  0  0  0  0  0  0
   57.3604   33.3781   53.7410 H   0  0  0  0  0  0  0  0  0  0  0  0
   57.4850   32.0530   52.0200 C   0  0  0  0  0  0  0  0  0  0  0  0
   56.4200   31.1120   52.4500 C   0  0  0  0  0  0  0  0  0  0  0  0
   56.4332   30.7592   53.4918 H   0  0  0  0  0  0  0  0  0  0  0  0
   55.4440   30.6660   51.6480 C   0  0  0  0  0  0  0  0  0  0  0  0
   55.7067   30.2635   50.6586 H   0  0  0  0  0  0  0  0  0  0  0  0
   54.0250   30.7000   52.0560 C   0  0  0  0  0  0  0  0  0  0  0  0
   53.1900   31.6570   51.4570 C   0  0  0  0  0  0  0  0  0  0  0  0
   53.6009   32.3437   50.7023 H   0  0  0  0  0  0  0  0  0  0  0  0
   51.8410   31.7440   51.8120 C   0  0  0  0  0  0  0  0  0  0  0  0
   51.0300   32.7070   51.2240 O   0  0  0  0  0  0  0  0  0  0  0  0
   51.3100   30.8650   52.7570 C   0  0  0  0  0  0  0  0  0  0  0  0
   50.2509   30.9427   53.0437 H   0  0  0  0  0  0  0  0  0  0  0  0
   52.1190   29.8870   53.3400 C   0  0  0  0  0  0  0  0  0  0  0  0
   51.5650   29.0040   54.2600 O   0  0  0  0  0  0  0  0  0  0  0  0
   53.4760   29.7890   52.9910 C   0  0  0  0  0  0  0  0  0  0  0  0
   54.5110   28.3460   53.7330 Br  0  0  0  0  0  0  0  0  0  0  0  0
   58.1600   31.7950   50.8140 C   0  0  0  0  0  0  0  0  0  0  0  0
   57.8795   30.9177   50.2127 H   0  0  0  0  0  0  0  0  0  0  0  0
   58.6810   33.2360   47.1520 C   0  0  0  0  0  0  0  0  0  0  0  0
   58.8970   34.5470   47.5610 O   0  0  0  0  0  0  0  0  0  0  0  0
   58.0190   32.9960   45.9430 C   0  0  0  0  0  0  0  0  0  0  0  0
   57.6455   33.8423   45.3478 H   0  0  0  0  0  0  0  0  0  0  0  0
  1  2  1  0
  2  3  1  0
  2  4  2  0
  4  5  1  0
  4  6  1  0
  6  7  1  0
  6  8  1  0
  6  9  1  0
  9 10  2  0
 10 11  1  0
 10 12  1  0
 12 13  1  0
 12 14  2  0
 14 15  1  0
 15 16  1  0
 16 17  2  0
 17 18  1  0
 17 19  1  0
 19 20  1  0
 19 21  2  0
 21 22  1  0
 21 23  1  0
 23 24  1  0
 24 25  1  0
 24 26  2  0
 26 27  1  0
 26 28  1  0
 28 29  2  0
 29 30  1  0
 29 31  1  0
 31 32  1  0
 31 33  2  0
 33 34  1  0
 33 35  1  0
 35 36  1  0
 35 37  2  0
 37 38  1  0
 23 39  2  0
 39 40  1  0
 14 41  1  0
 41 42  1  0
 41 43  2  0
 43 44  1  0
 43  9  1  0
 39 16  1  0
 37 28  1  0
M  CHG  3  32  -1  36  -1  42  -1
M  END
>  <UniqueID>  (53) 
51

>  <SMILES>  (53) 
C=CCc1ccc(Oc2cccc(/C=C/c3cc([O-])cc([O-])c3Br)c2)c([O-])c1

>  <Energy>  (53) 
61.00413946075714

>  <Genealogy>  (53) 
C=CCc1ccc(Oc2cccc(C=Cc3cc([O-])cc([O-])c3Br)c2)c([O-])c1 (protonated)
C=CCc1ccc(Oc2cccc(/C=C/c3cc([O-])cc([O-])c3Br)c2)c([O-])c1 (cis-trans isomerization)
C=CCc1ccc(Oc2cccc(/C=C/c3cc([O-])cc([O-])c3Br)c2)c([O-])c1 (3D coordinates assigned)
C=CCc1ccc(Oc2cccc(/C=C/c3cc([O-])cc([O-])c3Br)c2)c([O-])c1 (optimized conformer: 61.00413946075714 kcal/mol)

>  <smiles>  (53) 
C=CCc1ccc(Oc2cccc(C=Cc3cc(O)cc(O)c3Br)c2)c(O)c1

>  <score_type>  (53) 
oracle

>  <origin>  (53) 
adg

>  <m_score__min__energy>  (53) 
-16.190000000000001

>  <m_primary>  (53) 
energy

$$$$
53:0
     RDKit          3D

 49 52  0  0  0  0  0  0  0  0999 V2000
   59.9490   33.4360   49.8120 H   0  0  0  0  0  0  0  0  0  0  0  0
   59.5060   34.1070   50.3950 O   0  0  0  0  0  0  0  0  0  0  0  0
   59.4900   33.5650   51.6900 C   0  0  2  0  0  0  0  0  0  0  0  0
   60.4331   33.8445   52.1823 H   0  0  0  0  0  0  0  0  0  0  0  0
   59.3090   32.0510   51.6100 C   0  0  0  0  0  0  0  0  0  0  0  0
   59.5453   31.6903   50.5981 H   0  0  0  0  0  0  0  0  0  0  0  0
   59.9795   31.5266   52.3067 H   0  0  0  0  0  0  0  0  0  0  0  0
   57.9110   31.8000   51.9230 N   0  0  0  0  0  0  0  0  0  0  0  0
   57.2640   30.5490   51.6290 C   0  0  0  0  0  0  0  0  0  0  0  0
   57.8460   29.7010   50.9000 O   0  0  0  0  0  0  0  0  0  0  0  0
   55.9250   30.2270   52.1630 C   0  0  0  0  0  0  0  0  0  0  0  0
   54.7380   30.6600   51.6070 C   0  0  0  0  0  0  0  0  0  0  0  0
   54.6207   31.2376   50.6782 H   0  0  0  0  0  0  0  0  0  0  0  0
   53.7210   30.2260   52.4460 C   0  0  0  0  0  0  0  0  0  0  0  0
   52.3980   30.3990   52.2530 C   0  0  0  0  0  0  0  0  0  0  0  0
   51.7206   30.1882   53.0937 H   0  0  0  0  0  0  0  0  0  0  0  0
   51.8050   30.8540   50.9820 C   0  0  0  0  0  0  0  0  0  0  0  0
   51.6840   30.0640   49.9010 N   0  0  0  0  0  0  0  0  0  0  0  0
   51.0240   30.8420   49.0160 C   0  0  0  0  0  0  0  0  0  0  0  0
   50.7300   30.4520   47.8560 O   0  0  0  0  0  0  0  0  0  0  0  0
   50.6950   32.0690   49.4740 N   0  0  0  0  0  0  0  0  0  0  0  0
   51.1840   32.0570   50.7250 C   0  0  0  0  0  0  0  0  0  0  0  0
   51.0240   33.1050   51.6230 O   0  0  0  0  0  0  0  0  0  0  0  0
   54.3430   29.5330   53.4900 C   0  0  0  0  0  0  0  0  0  0  0  0
   53.7230   28.8920   54.4960 C   0  0  0  0  0  0  0  0  0  0  0  0
   54.3144   28.3771   55.2674 H   0  0  0  0  0  0  0  0  0  0  0  0
   52.6243   28.8824   54.5477 H   0  0  0  0  0  0  0  0  0  0  0  0
   55.6900   29.5620   53.3180 N   0  0  0  0  0  0  0  0  0  0  0  0
   56.6930   28.9750   54.1670 C   0  0  0  0  0  0  0  0  0  0  0  0
   56.4530   28.8160   55.3950 O   0  0  0  0  0  0  0  0  0  0  0  0
   57.9250   28.5000   53.6040 N   0  0  0  0  0  0  0  0  0  0  0  0
   57.9450   28.3190   52.5750 H   0  0  0  0  0  0  0  0  0  0  0  0
   59.0870   28.1580   54.3780 C   0  0  0  0  0  0  0  0  0  0  0  0
   60.1520   29.0690   54.4620 C   0  0  0  0  0  0  0  0  0  0  0  0
   60.0961   30.0264   53.9232 H   0  0  0  0  0  0  0  0  0  0  0  0
   61.2830   28.7670   55.2260 C   0  0  0  0  0  0  0  0  0  0  0  0
   62.1183   29.4809   55.2765 H   0  0  0  0  0  0  0  0  0  0  0  0
   61.3540   27.5590   55.9260 C   0  0  0  0  0  0  0  0  0  0  0  0
   62.2468   27.3196   56.5223 H   0  0  0  0  0  0  0  0  0  0  0  0
   60.2890   26.6560   55.8670 C   0  0  0  0  0  0  0  0  0  0  0  0
   60.3418   25.7087   56.4235 H   0  0  0  0  0  0  0  0  0  0  0  0
   59.1570   26.9530   55.1030 C   0  0  0  0  0  0  0  0  0  0  0  0
   58.3177   26.2428   55.0680 H   0  0  0  0  0  0  0  0  0  0  0  0
   57.2060   33.0040   52.3350 C   0  0  0  0  0  0  0  0  0  0  0  0
   56.4600   33.2894   51.5787 H   0  0  0  0  0  0  0  0  0  0  0  0
   56.6653   32.8543   53.2812 H   0  0  0  0  0  0  0  0  0  0  0  0
   58.2730   34.0830   52.4620 C   0  0  0  0  0  0  0  0  0  0  0  0
   57.9161   35.0270   52.0245 H   0  0  0  0  0  0  0  0  0  0  0  0
   58.5193   34.2846   53.5150 H   0  0  0  0  0  0  0  0  0  0  0  0
  1  2  1  0
  2  3  1  0
  3  4  1  1
  3  5  1  0
  5  6  1  0
  5  7  1  0
  5  8  1  0
  8  9  1  0
  9 10  2  0
  9 11  1  0
 11 12  2  0
 12 13  1  0
 12 14  1  0
 14 15  2  0
 15 16  1  0
 15 17  1  0
 17 18  1  0
 18 19  1  0
 19 20  2  0
 19 21  1  0
 21 22  1  0
 22 23  1  0
 14 24  1  0
 24 25  2  0
 25 26  1  0
 25 27  1  0
 24 28  1  0
 28 29  1  0
 29 30  2  0
 29 31  1  0
 31 32  1  0
 31 33  1  0
 33 34  2  0
 34 35  1  0
 34 36  1  0
 36 37  1  0
 36 38  2  0
 38 39  1  0
 38 40  1  0
 40 41  1  0
 40 42  2  0
 42 43  1  0
  8 44  1  0
 44 45  1  0
 44 46  1  0
 44 47  1  0
 47 48  1  0
 47 49  1  0
 47  3  1  0
 28 11  1  0
 42 33  1  0
 22 17  2  0
M  CHG  3  18  -1  21  -1  23  -1
M  END
>  <UniqueID>  (54) 
52

>  <SMILES>  (54) 
C=c1/c(=C/c2[n-]c(=O)[n-]c2[O-])cc(C(=O)N2CC[C@H](O)C2)n1C(=O)Nc1ccccc1

>  <Energy>  (54) 
130.82557904209267

>  <Genealogy>  (54) 
C=c1c(=Cc2[n-]c(=O)[n-]c2[O-])cc(C(=O)N2CCC(O)C2)n1C(=O)Nc1ccccc1 (protonated)
C=c1c(=Cc2[n-]c(=O)[n-]c2[O-])cc(C(=O)N2CC[C@H](O)C2)n1C(=O)Nc1ccccc1 (chirality)
C=c1/c(=C/c2[n-]c(=O)[n-]c2[O-])cc(C(=O)N2CC[C@H](O)C2)n1C(=O)Nc1ccccc1 (cis-trans isomerization)
C=c1/c(=C/c2[n-]c(=O)[n-]c2[O-])cc(C(=O)N2CC[C@H](O)C2)n1C(=O)Nc1ccccc1 (3D coordinates assigned)
C=c1/c(=C/c2[n-]c(=O)[n-]c2[O-])cc(C(=O)N2CC[C@H](O)C2)n1C(=O)Nc1ccccc1 (nonaromatic ring conformer: 130.82557904209267 kcal/mol)

>  <smiles>  (54) 
C=c1c(=Cc2[nH]c(=O)[nH]c2O)cc(C(=O)N2CCC(O)C2)n1C(=O)Nc1ccccc1

>  <score_type>  (54) 
oracle

>  <origin>  (54) 
adg

>  <m_score__min__energy>  (54) 
-16.52

>  <m_primary>  (54) 
energy

$$$$
54:0
     RDKit          3D

 62 65  0  0  0  0  0  0  0  0999 V2000
   59.0570   29.4830   53.3630 C   0  0  0  0  0  0  0  0  0  0  0  0
   59.9520   28.3210   53.0530 C   0  0  0  0  0  0  0  0  0  0  0  0
   60.2740   27.5410   53.9920 O   0  0  0  0  0  0  0  0  0  0  0  0
   60.4720   28.1060   51.7200 N   0  0  0  0  0  0  0  0  0  0  0  0
   61.1220   26.8330   51.3810 C   0  0  0  0  0  0  0  0  0  0  0  0
   60.7200   26.3840   49.9710 C   0  0  0  0  0  0  0  0  0  0  0  0
   60.7940   27.4860   49.0060 N   0  0  0  0  0  0  0  0  0  0  0  0
   60.7100   27.1840   47.6030 C   0  0  0  0  0  0  0  0  0  0  0  0
   61.5060   26.3380   47.1100 O   0  0  0  0  0  0  0  0  0  0  0  0
   59.6940   27.8310   46.7340 C   0  0  0  0  0  0  0  0  0  0  0  0
   58.3240   27.6110   46.9630 C   0  0  0  0  0  0  0  0  0  0  0  0
   57.3600   28.2550   46.1830 C   0  0  0  0  0  0  0  0  0  0  0  0
   57.7470   29.1240   45.1580 C   0  0  0  0  0  0  0  0  0  0  0  0
   56.5270   29.9910   44.2260 S   0  0  0  0  0  0  0  0  0  0  0  0
   55.2000   29.3000   44.3680 O   0  0  0  0  0  0  0  0  0  0  0  0
   56.9050   30.0050   42.7700 O   0  0  0  0  0  0  0  0  0  0  0  0
   56.3930   31.6110   44.8440 N   0  0  0  0  0  0  0  0  0  0  0  0
   57.3940   32.4820   44.2260 C   0  0  0  0  0  0  0  0  0  0  0  0
   58.4670   32.7950   45.2320 C   0  0  0  0  0  0  0  0  0  0  0  0
   58.5610   32.0520   46.4160 C   0  0  0  0  0  0  0  0  0  0  0  0
   59.5750   32.3210   47.3370 C   0  0  0  0  0  0  0  0  0  0  0  0
   60.4900   33.3500   47.0770 C   0  0  0  0  0  0  0  0  0  0  0  0
   61.5820   33.6150   47.9800 N   0  0  0  0  0  0  0  0  0  0  0  0
   62.9630   33.6070   47.4830 C   0  0  0  0  0  0  0  0  0  0  0  0
   63.8990   33.1270   48.5970 C   0  0  0  0  0  0  0  0  0  0  0  0
   63.7080   33.8840   49.7790 O   0  0  0  0  0  0  0  0  0  0  0  0
   62.4000   33.6770   50.2830 C   0  0  0  0  0  0  0  0  0  0  0  0
   61.3500   34.2090   49.3010 C   0  0  0  0  0  0  0  0  0  0  0  0
   60.3700   34.0700   45.9240 N   0  0  0  0  0  0  0  0  0  0  0  0
   59.3870   33.8270   45.0140 C   0  0  0  0  0  0  0  0  0  0  0  0
   59.1090   29.3470   44.9180 C   0  0  0  0  0  0  0  0  0  0  0  0
   60.0750   28.7130   45.7060 C   0  0  0  0  0  0  0  0  0  0  0  0
   61.1810   28.8320   49.4410 C   0  0  0  0  0  0  0  0  0  0  0  0
   60.4460   29.2030   50.7330 C   0  0  0  0  0  0  0  0  0  0  0  0
   58.9690   29.5973   54.4535 H   0  0  0  0  0  0  0  0  0  0  0  0
   59.4842   30.4002   52.9315 H   0  0  0  0  0  0  0  0  0  0  0  0
   58.0611   29.3041   52.9315 H   0  0  0  0  0  0  0  0  0  0  0  0
   62.2137   26.9615   51.4226 H   0  0  0  0  0  0  0  0  0  0  0  0
   60.8028   26.0670   52.1030 H   0  0  0  0  0  0  0  0  0  0  0  0
   61.3977   25.5806   49.6465 H   0  0  0  0  0  0  0  0  0  0  0  0
   59.6785   26.0321   50.0085 H   0  0  0  0  0  0  0  0  0  0  0  0
   58.0084   26.9257   47.7635 H   0  0  0  0  0  0  0  0  0  0  0  0
   56.2917   28.0776   46.3761 H   0  0  0  0  0  0  0  0  0  0  0  0
   57.8400   31.9724   43.3591 H   0  0  0  0  0  0  0  0  0  0  0  0
   56.9163   33.4153   43.8932 H   0  0  0  0  0  0  0  0  0  0  0  0
   57.8328   31.2534   46.6208 H   0  0  0  0  0  0  0  0  0  0  0  0
   59.6552   31.7291   48.2607 H   0  0  0  0  0  0  0  0  0  0  0  0
   63.0394   32.9281   46.6209 H   0  0  0  0  0  0  0  0  0  0  0  0
   63.2492   34.6230   47.1733 H   0  0  0  0  0  0  0  0  0  0  0  0
   63.6917   32.0679   48.8102 H   0  0  0  0  0  0  0  0  0  0  0  0
   64.9388   33.2551   48.2618 H   0  0  0  0  0  0  0  0  0  0  0  0
   62.2383   32.5997   50.4358 H   0  0  0  0  0  0  0  0  0  0  0  0
   62.2987   34.2173   51.2358 H   0  0  0  0  0  0  0  0  0  0  0  0
   60.3443   33.9382   49.6549 H   0  0  0  0  0  0  0  0  0  0  0  0
   61.4280   35.3041   49.2332 H   0  0  0  0  0  0  0  0  0  0  0  0
   59.3157   34.4430   44.1055 H   0  0  0  0  0  0  0  0  0  0  0  0
   59.4196   30.0227   44.1075 H   0  0  0  0  0  0  0  0  0  0  0  0
   61.1420   28.9056   45.5205 H   0  0  0  0  0  0  0  0  0  0  0  0
   62.2660   28.8579   49.6201 H   0  0  0  0  0  0  0  0  0  0  0  0
   60.9123   29.5538   48.6556 H   0  0  0  0  0  0  0  0  0  0  0  0
   60.9277   30.0883   51.1736 H   0  0  0  0  0  0  0  0  0  0  0  0
   59.3951   29.4059   50.4791 H   0  0  0  0  0  0  0  0  0  0  0  0
  1  2  1  0
  2  3  2  0
  2  4  1  0
  4  5  1  0
  5  6  1  0
  6  7  1  0
  7  8  1  0
  8  9  2  0
  8 10  1  0
 10 11  2  0
 11 12  1  0
 12 13  2  0
 13 14  1  0
 14 15  2  0
 14 16  2  0
 14 17  1  0
 17 18  1  0
 18 19  1  0
 19 20  2  0
 20 21  1  0
 21 22  2  0
 22 23  1  0
 23 24  1  0
 24 25  1  0
 25 26  1  0
 26 27  1  0
 27 28  1  0
 22 29  1  0
 29 30  2  0
 13 31  1  0
 31 32  2  0
  7 33  1  0
 33 34  1  0
 34  4  1  0
 32 10  1  0
 30 19  1  0
 28 23  1  0
  1 35  1  0
  1 36  1  0
  1 37  1  0
  5 38  1  0
  5 39  1  0
  6 40  1  0
  6 41  1  0
 11 42  1  0
 12 43  1  0
 18 44  1  0
 18 45  1  0
 20 46  1  0
 21 47  1  0
 24 48  1  0
 24 49  1  0
 25 50  1  0
 25 51  1  0
 27 52  1  0
 27 53  1  0
 28 54  1  0
 28 55  1  0
 30 56  1  0
 31 57  1  0
 32 58  1  0
 33 59  1  0
 33 60  1  0
 34 61  1  0
 34 62  1  0
M  CHG  1  17  -1
M  END
>  <UniqueID>  (55) 
53

>  <SMILES>  (55) 
CC(=O)N1CCN(C(=O)c2ccc(S(=O)(=O)[N-]Cc3ccc(N4CCOCC4)nc3)cc2)CC1

>  <Energy>  (55) 
72.8499051277044

>  <Genealogy>  (55) 
CC(=O)N1CCN(C(=O)c2ccc(S(=O)(=O)[N-]Cc3ccc(N4CCOCC4)nc3)cc2)CC1 (protonated)
CC(=O)N1CCN(C(=O)c2ccc(S(=O)(=O)[N-]Cc3ccc(N4CCOCC4)nc3)cc2)CC1 (3D coordinates assigned)
CC(=O)N1CCN(C(=O)c2ccc(S(=O)(=O)[N-]Cc3ccc(N4CCOCC4)nc3)cc2)CC1 (nonaromatic ring conformer: 72.8499051277044 kcal/mol)

>  <smiles>  (55) 
CC(=O)N1CCN(C(=O)c2ccc(S(=O)(=O)NCc3ccc(N4CCOCC4)nc3)cc2)CC1

>  <score_type>  (55) 
oracle

>  <origin>  (55) 
adg

>  <m_score__min__energy>  (55) 
-9.8599999999999994

>  <m_primary>  (55) 
energy

$$$$
55:0
     RDKit          3D

 40 43  0  0  0  0  0  0  0  0999 V2000
   57.2140   30.1330   45.7080 N   0  0  0  0  0  0  0  0  0  0  0  0
   58.3900   30.1420   46.5130 C   0  0  0  0  0  0  0  0  0  0  0  0
   59.2610   29.2490   46.3360 O   0  0  0  0  0  0  0  0  0  0  0  0
   58.6100   31.1750   47.5480 C   0  0  0  0  0  0  0  0  0  0  0  0
   58.3190   30.8790   48.8480 N   0  0  0  0  0  0  0  0  0  0  0  0
   58.5100   31.7790   49.8620 C   0  0  0  0  0  0  0  0  0  0  0  0
   58.1200   31.4230   51.2790 C   0  0  2  0  0  0  0  0  0  0  0  0
   58.7870   30.1450   51.7880 C   0  0  0  0  0  0  0  0  0  0  0  0
   57.7810   29.4260   52.5700 N   0  0  0  0  0  0  0  0  0  0  0  0
   56.6160   30.3180   52.5960 C   0  0  2  0  0  0  0  0  0  0  0  0
   55.2610   29.5760   52.7360 C   0  0  0  0  0  0  0  0  0  0  0  0
   54.0340   30.4130   52.4430 C   0  0  0  0  0  0  0  0  0  0  0  0
   53.7760   30.8700   51.1390 C   0  0  0  0  0  0  0  0  0  0  0  0
   52.6380   31.6370   50.8710 C   0  0  0  0  0  0  0  0  0  0  0  0
   51.7420   31.9450   51.8990 C   0  0  0  0  0  0  0  0  0  0  0  0
   50.6130   32.7080   51.6320 O   0  0  0  0  0  0  0  0  0  0  0  0
   51.9820   31.4810   53.1960 C   0  0  0  0  0  0  0  0  0  0  0  0
   53.1180   30.7130   53.4670 C   0  0  0  0  0  0  0  0  0  0  0  0
   56.6840   31.2040   51.4330 N   0  0  0  0  0  0  0  0  0  0  0  0
   58.9660   33.0340   49.5800 N   0  0  0  0  0  0  0  0  0  0  0  0
   59.2670   33.3680   48.3020 C   0  0  0  0  0  0  0  0  0  0  0  0
   59.7510   34.6140   47.8990 C   0  0  0  0  0  0  0  0  0  0  0  0
   59.9720   34.6810   46.5250 C   0  0  0  0  0  0  0  0  0  0  0  0
   59.5600   33.1940   45.8320 S   0  0  0  0  0  0  0  0  0  0  0  0
   59.1000   32.4590   47.2750 C   0  0  0  0  0  0  0  0  0  0  0  0
   56.3280   29.7050   46.0560 H   0  0  0  0  0  0  0  0  0  0  0  0
   58.4558   32.2954   51.8587 H   0  0  0  0  0  0  0  0  0  0  0  0
   59.1198   29.5280   50.9403 H   0  0  0  0  0  0  0  0  0  0  0  0
   59.6707   30.3778   52.4003 H   0  0  0  0  0  0  0  0  0  0  0  0
   57.5460   28.5530   52.0460 H   0  0  0  0  0  0  0  0  0  0  0  0
   56.6581   30.9272   53.5109 H   0  0  0  0  0  0  0  0  0  0  0  0
   55.2660   28.7243   52.0399 H   0  0  0  0  0  0  0  0  0  0  0  0
   55.1831   29.2799   53.7925 H   0  0  0  0  0  0  0  0  0  0  0  0
   54.4732   30.6229   50.3249 H   0  0  0  0  0  0  0  0  0  0  0  0
   52.4475   31.9986   49.8498 H   0  0  0  0  0  0  0  0  0  0  0  0
   51.2756   31.7208   54.0044 H   0  0  0  0  0  0  0  0  0  0  0  0
   53.2965   30.3413   54.4868 H   0  0  0  0  0  0  0  0  0  0  0  0
   56.3570   30.6650   50.5980 H   0  0  0  0  0  0  0  0  0  0  0  0
   59.9372   35.4498   48.5895 H   0  0  0  0  0  0  0  0  0  0  0  0
   60.3522   35.5576   45.9800 H   0  0  0  0  0  0  0  0  0  0  0  0
  1  2  1  0
  2  3  2  0
  2  4  1  0
  4  5  2  0
  5  6  1  0
  6  7  1  0
  7  8  1  0
  8  9  1  0
  9 10  1  0
 10 11  1  0
 11 12  1  0
 12 13  2  0
 13 14  1  0
 14 15  2  0
 15 16  1  0
 15 17  1  0
 17 18  2  0
 10 19  1  0
  6 20  2  0
 20 21  1  0
 21 22  1  0
 22 23  2  0
 23 24  1  0
 24 25  1  0
 25  4  1  0
 19  7  1  0
 25 21  2  0
 18 12  1  0
  1 26  1  0
  7 27  1  1
  8 28  1  0
  8 29  1  0
  9 30  1  0
 10 31  1  1
 11 32  1  0
 11 33  1  0
 13 34  1  0
 14 35  1  0
 17 36  1  0
 18 37  1  0
 19 38  1  0
 22 39  1  0
 23 40  1  0
M  CHG  2   1  -1  16  -1
M  END
>  <UniqueID>  (56) 
54

>  <SMILES>  (56) 
[NH-]C(=O)c1nc([C@@H]2CN[C@H](Cc3ccc([O-])cc3)N2)nc2ccsc12

>  <Energy>  (56) 
81.44213686438513

>  <Genealogy>  (56) 
[NH-]C(=O)c1nc(C2CNC(Cc3ccc([O-])cc3)N2)nc2ccsc12 (protonated)
[NH-]C(=O)c1nc([C@@H]2CN[C@H](Cc3ccc([O-])cc3)N2)nc2ccsc12 (chirality)
[NH-]C(=O)c1nc([C@@H]2CN[C@H](Cc3ccc([O-])cc3)N2)nc2ccsc12 (3D coordinates assigned)
[NH-]C(=O)c1nc([C@@H]2CN[C@H](Cc3ccc([O-])cc3)N2)nc2ccsc12 (nonaromatic ring conformer: 81.44213686438513 kcal/mol)

>  <smiles>  (56) 
NC(=O)c1nc(C2CNC(Cc3ccc(O)cc3)N2)nc2ccsc12

>  <score_type>  (56) 
oracle

>  <origin>  (56) 
adg

>  <m_score__min__energy>  (56) 
-12.76

>  <m_primary>  (56) 
energy

$$$$
56:0
     RDKit          3D

 27 28  0  0  0  0  0  0  0  0999 V2000
   57.0530   31.5980   42.0170 C   0  0  0  0  0  0  0  0  0  0  0  0
   58.0790   31.9530   42.7940 C   0  0  0  0  0  0  0  0  0  0  0  0
   58.0410   31.7620   44.2830 C   0  0  0  0  0  0  0  0  0  0  0  0
   58.0310   30.3370   44.6130 N   0  0  0  0  0  0  0  0  0  0  0  0
   58.0730   29.3630   43.7190 N   0  0  0  0  0  0  0  0  0  0  0  0
   57.9530   28.1750   44.3550 C   0  0  0  0  0  0  0  0  0  0  0  0
   57.7980   27.0250   43.6930 C   0  0  0  0  0  0  0  0  0  0  0  0
   57.8660   28.4090   45.7390 C   0  0  0  0  0  0  0  0  0  0  0  0
   57.7810   27.5670   46.7860 C   0  0  0  0  0  0  0  0  0  0  0  0
   57.2470   26.1960   46.7370 C   0  0  0  0  0  0  0  0  0  0  0  0
   57.9020   25.1020   47.1680 N   0  0  0  0  0  0  0  0  0  0  0  0
   56.9780   24.1230   47.0590 C   0  0  0  0  0  0  0  0  0  0  0  0
   57.2210   22.9260   47.3600 O   0  0  0  0  0  0  0  0  0  0  0  0
   55.7690   24.5300   46.6150 N   0  0  0  0  0  0  0  0  0  0  0  0
   55.9550   25.8470   46.4290 C   0  0  0  0  0  0  0  0  0  0  0  0
   54.9600   26.7140   45.9950 O   0  0  0  0  0  0  0  0  0  0  0  0
   57.8840   29.7920   45.8340 C   0  0  0  0  0  0  0  0  0  0  0  0
   57.7930   30.4610   46.9000 O   0  0  0  0  0  0  0  0  0  0  0  0
   57.1088   31.7498   40.9289 H   0  0  0  0  0  0  0  0  0  0  0  0
   56.1519   31.1538   42.4649 H   0  0  0  0  0  0  0  0  0  0  0  0
   58.9737   32.3961   42.3324 H   0  0  0  0  0  0  0  0  0  0  0  0
   58.9286   32.2320   44.7317 H   0  0  0  0  0  0  0  0  0  0  0  0
   57.1265   32.2271   44.6797 H   0  0  0  0  0  0  0  0  0  0  0  0
   58.1250   29.5100   42.6850 H   0  0  0  0  0  0  0  0  0  0  0  0
   57.7040   26.0796   44.2474 H   0  0  0  0  0  0  0  0  0  0  0  0
   57.7644   27.0235   42.5935 H   0  0  0  0  0  0  0  0  0  0  0  0
   58.1404   27.9339   47.7588 H   0  0  0  0  0  0  0  0  0  0  0  0
  1  2  2  0
  2  3  1  0
  3  4  1  0
  4  5  1  0
  5  6  1  0
  6  7  2  0
  6  8  1  0
  8  9  2  3
  9 10  1  0
 10 11  1  0
 11 12  1  0
 12 13  2  0
 12 14  1  0
 14 15  1  0
 15 16  1  0
  8 17  1  0
 17 18  2  0
 17  4  1  0
 15 10  2  0
  1 19  1  0
  1 20  1  0
  2 21  1  0
  3 22  1  0
  3 23  1  0
  5 24  1  0
  7 25  1  0
  7 26  1  0
  9 27  1  0
M  CHG  3  11  -1  14  -1  16  -1
M  END
>  <UniqueID>  (57) 
55

>  <SMILES>  (57) 
C=CCn1[nH]c(=C)c(=Cc2[n-]c(=O)[n-]c2[O-])c1=O

>  <Energy>  (57) 
97.56042939690485

>  <Genealogy>  (57) 
C=CCn1[nH]c(=C)c(=Cc2[n-]c(=O)[n-]c2[O-])c1=O (protonated)
C=CCn1[nH]c(=C)c(=Cc2[n-]c(=O)[n-]c2[O-])c1=O (3D coordinates assigned)
C=CCn1[nH]c(=C)c(=Cc2[n-]c(=O)[n-]c2[O-])c1=O (optimized conformer: 97.56042939690485 kcal/mol)

>  <smiles>  (57) 
C=CCn1[nH]c(=C)c(=Cc2[nH]c(=O)[nH]c2O)c1=O

>  <score_type>  (57) 
oracle

>  <origin>  (57) 
adg

>  <m_score__min__energy>  (57) 
-14.619999999999999

>  <m_primary>  (57) 
energy

$$$$
57:0
     RDKit          3D

 65 69  0  0  0  0  0  0  0  0999 V2000
   59.6180   29.8380   49.6370 C   0  0  0  0  0  0  0  0  0  0  0  0
   60.7430   30.5520   50.3090 C   0  0  0  0  0  0  0  0  0  0  0  0
   60.6600   31.6950   51.0840 C   0  0  0  0  0  0  0  0  0  0  0  0
   61.8810   31.9550   51.5860 N   0  0  0  0  0  0  0  0  0  0  0  0
   62.7200   31.0200   51.1690 N   0  0  0  0  0  0  0  0  0  0  0  0
   64.1300   30.9390   51.5490 C   0  0  0  0  0  0  0  0  0  0  0  0
   65.0210   31.6310   50.4950 C   0  0  2  0  0  0  0  0  0  0  0  0
   66.5110   31.3600   50.7530 C   0  0  0  0  0  0  0  0  0  0  0  0
   67.2180   32.7070   50.6470 C   0  0  0  0  0  0  0  0  0  0  0  0
   66.1360   33.7690   50.7710 C   0  0  0  0  0  0  0  0  0  0  0  0
   64.8730   33.0840   50.5460 N   0  0  0  0  0  0  0  0  0  0  0  0
   63.6190   33.7640   50.3220 C   0  0  0  0  0  0  0  0  0  0  0  0
   63.1040   34.4500   51.2450 O   0  0  0  0  0  0  0  0  0  0  0  0
   62.9420   33.7400   49.0170 C   0  0  0  0  0  0  0  0  0  0  0  0
   63.5120   33.4350   47.7860 C   0  0  0  0  0  0  0  0  0  0  0  0
   62.5860   33.4100   46.7360 C   0  0  0  0  0  0  0  0  0  0  0  0
   61.2750   33.6750   47.1370 C   0  0  0  0  0  0  0  0  0  0  0  0
   60.0710   33.7080   46.2710 C   0  0  0  0  0  0  0  0  0  0  0  0
   59.6470   34.9180   45.6930 C   0  0  0  0  0  0  0  0  0  0  0  0
   58.5140   34.9560   44.8780 C   0  0  0  0  0  0  0  0  0  0  0  0
   57.7890   33.7900   44.6270 C   0  0  0  0  0  0  0  0  0  0  0  0
   58.1950   32.5700   45.1890 C   0  0  0  0  0  0  0  0  0  0  0  0
   57.4020   31.3070   44.9230 C   0  0  0  0  0  0  0  0  0  0  0  0
   58.1820   30.0600   45.0940 N   0  0  0  0  0  0  0  0  0  0  0  0
   58.2150   29.5810   46.4940 C   0  0  0  0  0  0  0  0  0  0  0  0
   58.9540   28.2300   46.6280 C   0  0  0  0  0  0  0  0  0  0  0  0
   59.7620   27.8950   45.3720 C   0  0  0  0  0  0  0  0  0  0  0  0
   58.8670   27.8900   44.1210 C   0  0  0  0  0  0  0  0  0  0  0  0
   57.7870   28.9880   44.1630 C   0  0  0  0  0  0  0  0  0  0  0  0
   59.3290   32.5380   46.0180 C   0  0  0  0  0  0  0  0  0  0  0  0
   61.2880   33.9370   48.8040 S   0  0  0  0  0  0  0  0  0  0  0  0
   62.0580   30.1380   50.3940 C   0  0  0  0  0  0  0  0  0  0  0  0
   58.9473   29.4123   50.3979 H   0  0  0  0  0  0  0  0  0  0  0  0
   59.0575   30.5460   49.0089 H   0  0  0  0  0  0  0  0  0  0  0  0
   60.0200   29.0294   49.0089 H   0  0  0  0  0  0  0  0  0  0  0  0
   59.7513   32.2895   51.2597 H   0  0  0  0  0  0  0  0  0  0  0  0
   62.1310   32.7500   52.2160 H   0  0  0  0  0  0  0  0  0  0  0  0
   64.2707   31.4337   52.5214 H   0  0  0  0  0  0  0  0  0  0  0  0
   64.4179   29.8794   51.6141 H   0  0  0  0  0  0  0  0  0  0  0  0
   64.7013   31.2256   49.5237 H   0  0  0  0  0  0  0  0  0  0  0  0
   66.6519   30.9343   51.7575 H   0  0  0  0  0  0  0  0  0  0  0  0
   66.9165   30.6386   50.0284 H   0  0  0  0  0  0  0  0  0  0  0  0
   67.9532   32.8160   51.4580 H   0  0  0  0  0  0  0  0  0  0  0  0
   67.7610   32.7993   49.6948 H   0  0  0  0  0  0  0  0  0  0  0  0
   66.1539   34.2172   51.7754 H   0  0  0  0  0  0  0  0  0  0  0  0
   66.2866   34.5835   50.0472 H   0  0  0  0  0  0  0  0  0  0  0  0
   64.5848   33.2332   47.6504 H   0  0  0  0  0  0  0  0  0  0  0  0
   62.8652   33.2011   45.6927 H   0  0  0  0  0  0  0  0  0  0  0  0
   60.2125   35.8418   45.8846 H   0  0  0  0  0  0  0  0  0  0  0  0
   58.1915   35.9084   44.4320 H   0  0  0  0  0  0  0  0  0  0  0  0
   56.8958   33.8276   43.9861 H   0  0  0  0  0  0  0  0  0  0  0  0
   56.5500   31.2804   45.6183 H   0  0  0  0  0  0  0  0  0  0  0  0
   57.0874   31.3442   43.8696 H   0  0  0  0  0  0  0  0  0  0  0  0
   58.7300   30.3301   47.1133 H   0  0  0  0  0  0  0  0  0  0  0  0
   57.1769   29.4342   46.8268 H   0  0  0  0  0  0  0  0  0  0  0  0
   59.6383   28.2826   47.4877 H   0  0  0  0  0  0  0  0  0  0  0  0
   58.2002   27.4414   46.7691 H   0  0  0  0  0  0  0  0  0  0  0  0
   60.5543   28.6472   45.2436 H   0  0  0  0  0  0  0  0  0  0  0  0
   60.1964   26.8918   45.4940 H   0  0  0  0  0  0  0  0  0  0  0  0
   59.4987   28.0504   43.2348 H   0  0  0  0  0  0  0  0  0  0  0  0
   58.3536   26.9179   44.0816 H   0  0  0  0  0  0  0  0  0  0  0  0
   57.6605   29.4110   43.1555 H   0  0  0  0  0  0  0  0  0  0  0  0
   56.8408   28.5456   44.5081 H   0  0  0  0  0  0  0  0  0  0  0  0
   59.6411   31.5874   46.4751 H   0  0  0  0  0  0  0  0  0  0  0  0
   62.4886   29.2466   49.9143 H   0  0  0  0  0  0  0  0  0  0  0  0
  1  2  1  0
  2  3  1  0
  3  4  2  0
  4  5  1  0
  5  6  1  0
  6  7  1  0
  7  8  1  0
  8  9  1  0
  9 10  1  0
 10 11  1  0
 11 12  1  0
 12 13  2  0
 12 14  1  0
 14 15  2  0
 15 16  1  0
 16 17  2  0
 17 18  1  0
 18 19  2  0
 19 20  1  0
 20 21  2  0
 21 22  1  0
 22 23  1  0
 23 24  1  0
 24 25  1  0
 25 26  1  0
 26 27  1  0
 27 28  1  0
 28 29  1  0
 22 30  2  0
 17 31  1  0
  5 32  1  0
 32  2  2  0
 11  7  1  0
 31 14  1  0
 30 18  1  0
 29 24  1  0
  1 33  1  0
  1 34  1  0
  1 35  1  0
  3 36  1  0
  4 37  1  0
  6 38  1  0
  6 39  1  0
  7 40  1  6
  8 41  1  0
  8 42  1  0
  9 43  1  0
  9 44  1  0
 10 45  1  0
 10 46  1  0
 15 47  1  0
 16 48  1  0
 19 49  1  0
 20 50  1  0
 21 51  1  0
 23 52  1  0
 23 53  1  0
 25 54  1  0
 25 55  1  0
 26 56  1  0
 26 57  1  0
 27 58  1  0
 27 59  1  0
 28 60  1  0
 28 61  1  0
 29 62  1  0
 29 63  1  0
 30 64  1  0
 32 65  1  0
M  CHG  1   4   1
M  END
>  <UniqueID>  (58) 
56

>  <SMILES>  (58) 
Cc1c[nH+]n(C[C@@H]2CCCN2C(=O)c2ccc(-c3cccc(CN4CCCCC4)c3)s2)c1

>  <Energy>  (58) 
137.5800976751202

>  <Genealogy>  (58) 
Cc1c[nH+]n(CC2CCCN2C(=O)c2ccc(-c3cccc(CN4CCCCC4)c3)s2)c1 (protonated)
Cc1c[nH+]n(C[C@@H]2CCCN2C(=O)c2ccc(-c3cccc(CN4CCCCC4)c3)s2)c1 (chirality)
Cc1c[nH+]n(C[C@@H]2CCCN2C(=O)c2ccc(-c3cccc(CN4CCCCC4)c3)s2)c1 (3D coordinates assigned)
Cc1c[nH+]n(C[C@@H]2CCCN2C(=O)c2ccc(-c3cccc(CN4CCCCC4)c3)s2)c1 (nonaromatic ring conformer: 137.5800976751202 kcal/mol)

>  <smiles>  (58) 
Cc1cnn(CC2CCCN2C(=O)c2ccc(-c3cccc(CN4CCCCC4)c3)s2)c1

>  <score_type>  (58) 
oracle

>  <origin>  (58) 
adg

>  <m_score__min__energy>  (58) 
-8.9100000000000001

>  <m_primary>  (58) 
energy

$$$$
58:0
     RDKit          3D

 58 62  0  0  0  0  0  0  0  0999 V2000
   57.1685   26.1593   43.7321 H   0  0  0  0  0  0  0  0  0  0  0  0
   57.3650   25.8490   44.7690 C   0  0  0  0  0  0  0  0  0  0  0  0
   57.3920   26.7670   45.7480 C   0  0  0  0  0  0  0  0  0  0  0  0
   57.2070   28.2120   45.4630 C   0  0  0  0  0  0  0  0  0  0  0  0
   56.0060   28.6520   45.0000 N   0  0  0  0  0  0  0  0  0  0  0  0
   55.7930   29.9340   44.7070 N   0  0  0  0  0  0  0  0  0  0  0  0
   56.7650   30.8700   44.8570 C   0  0  0  0  0  0  0  0  0  0  0  0
   56.5623   31.9205   44.6015 H   0  0  0  0  0  0  0  0  0  0  0  0
   58.0220   30.4970   45.3360 C   0  0  0  0  0  0  0  0  0  0  0  0
   58.9420   31.4140   45.4550 N   0  0  0  0  0  0  0  0  0  0  0  0
   58.7660   32.8390   45.4560 C   0  0  0  0  0  0  0  0  0  0  0  0
   59.4220   33.7280   46.2910 C   0  0  0  0  0  0  0  0  0  0  0  0
   60.2900   33.3960   47.4380 C   0  0  0  0  0  0  0  0  0  0  0  0
   60.4300   34.2310   48.3730 O   0  0  0  0  0  0  0  0  0  0  0  0
   60.9610   32.1270   47.5060 N   0  0  0  0  0  0  0  0  0  0  0  0
   60.5780   31.3290   46.9520 H   0  0  0  0  0  0  0  0  0  0  0  0
   61.9450   31.8310   48.5080 C   0  0  0  0  0  0  0  0  0  0  0  0
   61.6240   30.9270   49.5320 C   0  0  0  0  0  0  0  0  0  0  0  0
   60.6292   30.4580   49.5553 H   0  0  0  0  0  0  0  0  0  0  0  0
   62.5600   30.6190   50.5220 C   0  0  0  0  0  0  0  0  0  0  0  0
   62.2958   29.9197   51.3290 H   0  0  0  0  0  0  0  0  0  0  0  0
   63.8300   31.1970   50.4890 C   0  0  0  0  0  0  0  0  0  0  0  0
   64.5625   30.9604   51.2748 H   0  0  0  0  0  0  0  0  0  0  0  0
   64.1710   32.0760   49.4580 C   0  0  0  0  0  0  0  0  0  0  0  0
   65.1763   32.5214   49.4285 H   0  0  0  0  0  0  0  0  0  0  0  0
   63.2380   32.3930   48.4610 C   0  0  0  0  0  0  0  0  0  0  0  0
   63.7510   33.4260   47.1320 Cl  0  0  0  0  0  0  0  0  0  0  0  0
   59.0880   34.9930   45.8380 C   0  0  0  0  0  0  0  0  0  0  0  0
   59.4205   35.9360   46.2964 H   0  0  0  0  0  0  0  0  0  0  0  0
   58.2950   34.8980   44.7520 N   0  0  0  0  0  0  0  0  0  0  0  0
   57.9170   35.6950   44.1930 H   0  0  0  0  0  0  0  0  0  0  0  0
   58.1070   33.5900   44.4990 C   0  0  0  0  0  0  0  0  0  0  0  0
   57.5211   33.1817   43.6623 H   0  0  0  0  0  0  0  0  0  0  0  0
   58.2500   29.1390   45.6210 C   0  0  0  0  0  0  0  0  0  0  0  0
   59.2397   28.8047   45.9657 H   0  0  0  0  0  0  0  0  0  0  0  0
   57.7130   26.3110   47.1500 C   0  0  0  0  0  0  0  0  0  0  0  0
   57.4150   27.0952   47.8615 H   0  0  0  0  0  0  0  0  0  0  0  0
   58.7942   26.1212   47.2202 H   0  0  0  0  0  0  0  0  0  0  0  0
   56.9620   25.0130   47.4870 C   0  0  0  0  0  0  0  0  0  0  0  0
   55.9150   25.2589   47.7179 H   0  0  0  0  0  0  0  0  0  0  0  0
   57.4622   24.5466   48.3486 H   0  0  0  0  0  0  0  0  0  0  0  0
   56.9890   24.0500   46.3710 N   0  0  0  0  0  0  0  0  0  0  0  0
   56.5970   22.6870   46.6110 C   0  0  0  0  0  0  0  0  0  0  0  0
   57.1720   22.0220   47.5120 O   0  0  0  0  0  0  0  0  0  0  0  0
   55.5310   22.0770   45.8700 N   0  0  0  0  0  0  0  0  0  0  0  0
   54.3380   22.5760   45.7210 C   0  0  0  0  0  0  0  0  0  0  0  0
   53.2250   21.8350   45.9960 N   0  0  0  0  0  0  0  0  0  0  0  0
   51.9710   22.3420   45.8610 C   0  0  0  0  0  0  0  0  0  0  0  0
   51.0965   21.7132   46.0842 H   0  0  0  0  0  0  0  0  0  0  0  0
   51.7930   23.6610   45.4390 C   0  0  0  0  0  0  0  0  0  0  0  0
   50.7810   24.0767   45.3246 H   0  0  0  0  0  0  0  0  0  0  0  0
   52.9140   24.4460   45.1640 C   0  0  0  0  0  0  0  0  0  0  0  0
   52.7893   25.4880   44.8345 H   0  0  0  0  0  0  0  0  0  0  0  0
   54.1950   23.9060   45.3080 C   0  0  0  0  0  0  0  0  0  0  0  0
   55.0830   24.5206   45.0987 H   0  0  0  0  0  0  0  0  0  0  0  0
   57.6020   24.4000   45.0840 C   0  0  0  0  0  0  0  0  0  0  0  0
   57.1594   23.7794   44.2909 H   0  0  0  0  0  0  0  0  0  0  0  0
   58.6855   24.2201   45.1438 H   0  0  0  0  0  0  0  0  0  0  0  0
  1  2  1  0
  2  3  2  0
  3  4  1  0
  4  5  1  0
  5  6  1  0
  6  7  2  0
  7  8  1  0
  7  9  1  0
  9 10  2  3
 10 11  1  0
 11 12  1  0
 12 13  1  0
 13 14  2  0
 13 15  1  0
 15 16  1  0
 15 17  1  0
 17 18  2  0
 18 19  1  0
 18 20  1  0
 20 21  1  0
 20 22  2  0
 22 23  1  0
 22 24  1  0
 24 25  1  0
 24 26  2  0
 26 27  1  0
 12 28  2  0
 28 29  1  0
 28 30  1  0
 30 31  1  0
 30 32  1  0
 32 33  1  0
  9 34  1  0
 34 35  1  0
  3 36  1  0
 36 37  1  0
 36 38  1  0
 36 39  1  0
 39 40  1  0
 39 41  1  0
 39 42  1  0
 42 43  1  0
 43 44  2  0
 43 45  1  0
 45 46  2  0
 46 47  1  0
 47 48  1  0
 48 49  1  0
 48 50  2  0
 50 51  1  0
 50 52  1  0
 52 53  1  0
 52 54  2  0
 54 55  1  0
 42 56  1  0
 56 57  1  0
 56 58  1  0
 56  2  1  0
 34  4  2  0
 54 46  1  0
 32 11  2  0
 26 17  1  0
M  CHG  2   5  -1  47  -1
M  END
>  <UniqueID>  (59) 
57

>  <SMILES>  (59) 
O=C(Nc1ccccc1Cl)c1c[nH]cc1N=c1cn[n-]c(C2=CCN(C(=O)/N=c3/cccc[n-]3)CC2)c1

>  <Energy>  (59) 
117.56587856972256

>  <Genealogy>  (59) 
O=C(Nc1ccccc1Cl)c1c[nH]cc1N=c1cn[n-]c(C2=CCN(C(=O)N=c3cccc[n-]3)CC2)c1 (protonated)
O=C(Nc1ccccc1Cl)c1c[nH]cc1N=c1cn[n-]c(C2=CCN(C(=O)/N=c3/cccc[n-]3)CC2)c1 (cis-trans isomerization)
O=C(Nc1ccccc1Cl)c1c[nH]cc1N=c1cn[n-]c(C2=CCN(C(=O)/N=c3/cccc[n-]3)CC2)c1 (3D coordinates assigned)
O=C(Nc1ccccc1Cl)c1c[nH]cc1N=c1cn[n-]c(C2=CCN(C(=O)/N=c3/cccc[n-]3)CC2)c1 (nonaromatic ring conformer: 117.56587856972256 kcal/mol)

>  <smiles>  (59) 
O=C(Nc1ccccc1Cl)c1c[nH]cc1N=c1cn[nH]c(C2=CCN(C(=O)N=c3cccc[nH]3)CC2)c1

>  <score_type>  (59) 
oracle

>  <origin>  (59) 
adg

>  <m_score__min__energy>  (59) 
-12.59

>  <m_primary>  (59) 
energy

$$$$
59:0
     RDKit          3D

 49 51  0  0  0  0  0  0  0  0999 V2000
   55.5660   28.8940   43.8750 H   0  0  0  0  0  0  0  0  0  0  0  0
   55.6360   28.8350   44.8830 O   0  0  0  0  0  0  0  0  0  0  0  0
   56.2230   27.7390   45.5120 C   0  0  0  0  0  0  0  0  0  0  0  0
   55.5150   26.7130   46.0120 N   0  0  0  0  0  0  0  0  0  0  0  0
   56.4670   25.9380   46.5730 C   0  0  0  0  0  0  0  0  0  0  0  0
   56.2010   24.8580   47.1650 O   0  0  0  0  0  0  0  0  0  0  0  0
   57.7260   26.4130   46.4580 N   0  0  0  0  0  0  0  0  0  0  0  0
   57.5670   27.5520   45.7620 C   0  0  0  0  0  0  0  0  0  0  0  0
   58.6830   28.4510   45.4220 C   0  0  0  0  0  0  0  0  0  0  0  0
   59.6389   28.0011   45.1157 H   0  0  0  0  0  0  0  0  0  0  0  0
   58.5960   29.7950   45.4660 C   0  0  0  0  0  0  0  0  0  0  0  0
   59.0520   30.6120   46.4900 C   0  0  0  0  0  0  0  0  0  0  0  0
   59.5860   30.2917   47.3968 H   0  0  0  0  0  0  0  0  0  0  0  0
   58.7060   31.9050   46.1510 C   0  0  0  0  0  0  0  0  0  0  0  0
   58.9750   33.0750   47.0150 C   0  0  0  0  0  0  0  0  0  0  0  0
   58.1120   33.9940   47.0710 O   0  0  0  0  0  0  0  0  0  0  0  0
   60.2070   33.2070   47.7490 N   0  0  0  0  0  0  0  0  0  0  0  0
   61.4840   32.9050   47.0880 C   0  0  0  0  0  0  0  0  0  0  0  0
   61.3212   32.1251   46.3296 H   0  0  0  0  0  0  0  0  0  0  0  0
   61.8626   33.8249   46.6185 H   0  0  0  0  0  0  0  0  0  0  0  0
   62.5200   32.4110   48.1000 C   0  0  0  0  0  0  0  0  0  0  0  0
   62.2623   31.3880   48.4115 H   0  0  0  0  0  0  0  0  0  0  0  0
   63.5132   32.4252   47.6274 H   0  0  0  0  0  0  0  0  0  0  0  0
   62.5440   33.2840   49.2810 N   0  0  0  0  0  0  0  0  0  0  0  0
   63.7810   33.5940   49.9640 C   0  0  0  0  0  0  0  0  0  0  0  0
   63.8390   34.5950   50.7290 O   0  0  0  0  0  0  0  0  0  0  0  0
   65.0290   32.7770   49.7420 C   0  0  0  0  0  0  0  0  0  0  0  0
   64.7447   31.7306   49.5568 H   0  0  0  0  0  0  0  0  0  0  0  0
   65.5675   33.1913   48.8769 H   0  0  0  0  0  0  0  0  0  0  0  0
   65.8840   32.8310   50.8710 O   0  0  0  0  0  0  0  0  0  0  0  0
   67.1510   33.3300   50.5010 C   0  0  0  0  0  0  0  0  0  0  0  0
   67.7332   33.5593   51.4057 H   0  0  0  0  0  0  0  0  0  0  0  0
   67.6828   32.5742   49.9045 H   0  0  0  0  0  0  0  0  0  0  0  0
   67.0246   34.2455   49.9045 H   0  0  0  0  0  0  0  0  0  0  0  0
   61.2630   33.5700   49.9390 C   0  0  0  0  0  0  0  0  0  0  0  0
   60.8785   32.6481   50.3997 H   0  0  0  0  0  0  0  0  0  0  0  0
   61.4216   34.3399   50.7085 H   0  0  0  0  0  0  0  0  0  0  0  0
   60.2460   34.0870   48.9240 C   0  0  0  0  0  0  0  0  0  0  0  0
   59.2500   34.1147   49.3900 H   0  0  0  0  0  0  0  0  0  0  0  0
   60.5406   35.0976   48.6049 H   0  0  0  0  0  0  0  0  0  0  0  0
   58.0840   31.9290   44.9480 N   0  0  0  0  0  0  0  0  0  0  0  0
   57.6350   33.1160   44.2120 C   0  0  0  0  0  0  0  0  0  0  0  0
   57.3387   33.8993   44.9252 H   0  0  0  0  0  0  0  0  0  0  0  0
   58.4549   33.4871   43.5795 H   0  0  0  0  0  0  0  0  0  0  0  0
   56.7748   32.8516   43.5795 H   0  0  0  0  0  0  0  0  0  0  0  0
   57.9890   30.6400   44.5310 C   0  0  0  0  0  0  0  0  0  0  0  0
   57.3960   30.2630   43.3860 C   0  0  0  0  0  0  0  0  0  0  0  0
   56.9491   31.0187   42.7233 H   0  0  0  0  0  0  0  0  0  0  0  0
   57.3574   29.1986   43.1112 H   0  0  0  0  0  0  0  0  0  0  0  0
  1  2  1  0
  2  3  1  0
  3  4  1  0
  4  5  1  0
  5  6  2  0
  5  7  1  0
  7  8  1  0
  8  9  1  0
  9 10  1  0
  9 11  2  0
 11 12  1  0
 12 13  1  0
 12 14  2  0
 14 15  1  0
 15 16  2  0
 15 17  1  0
 17 18  1  0
 18 19  1  0
 18 20  1  0
 18 21  1  0
 21 22  1  0
 21 23  1  0
 21 24  1  0
 24 25  1  0
 25 26  2  0
 25 27  1  0
 27 28  1  0
 27 29  1  0
 27 30  1  0
 30 31  1  0
 31 32  1  0
 31 33  1  0
 31 34  1  0
 24 35  1  0
 35 36  1  0
 35 37  1  0
 35 38  1  0
 38 39  1  0
 38 40  1  0
 14 41  1  0
 41 42  1  0
 42 43  1  0
 42 44  1  0
 42 45  1  0
 41 46  1  0
 46 47  2  0
 47 48  1  0
 47 49  1  0
  8  3  2  0
 46 11  1  0
 38 17  1  0
M  CHG  2   4  -1   7  -1
M  END
>  <UniqueID>  (60) 
58

>  <SMILES>  (60) 
C=c1/c(=C/c2[n-]c(=O)[n-]c2O)cc(C(=O)N2CCN(C(=O)COC)CC2)n1C

>  <Energy>  (60) 
122.10089702712953

>  <Genealogy>  (60) 
C=c1c(=Cc2[n-]c(=O)[n-]c2O)cc(C(=O)N2CCN(C(=O)COC)CC2)n1C (protonated)
C=c1/c(=C/c2[n-]c(=O)[n-]c2O)cc(C(=O)N2CCN(C(=O)COC)CC2)n1C (cis-trans isomerization)
C=c1/c(=C/c2[n-]c(=O)[n-]c2O)cc(C(=O)N2CCN(C(=O)COC)CC2)n1C (3D coordinates assigned)
C=c1/c(=C/c2[n-]c(=O)[n-]c2O)cc(C(=O)N2CCN(C(=O)COC)CC2)n1C (nonaromatic ring conformer: 122.10089702712953 kcal/mol)

>  <smiles>  (60) 
C=c1c(=Cc2[nH]c(=O)[nH]c2O)cc(C(=O)N2CCN(C(=O)COC)CC2)n1C

>  <score_type>  (60) 
oracle

>  <origin>  (60) 
adg

>  <m_score__min__energy>  (60) 
-12.32

>  <m_primary>  (60) 
energy

$$$$
60:0
     RDKit          3D

 58 61  0  0  0  0  0  0  0  0999 V2000
   63.1200   28.9920   51.2810 O   0  0  0  0  0  0  0  0  0  0  0  0
   62.7370   30.1730   51.0490 C   0  0  0  0  0  0  0  0  0  0  0  0
   63.6260   31.3290   51.4470 C   0  0  0  0  0  0  0  0  0  0  0  0
   64.4140   31.8380   50.3140 N   0  0  0  0  0  0  0  0  0  0  0  0
   63.5410   32.4620   49.3500 C   0  0  0  0  0  0  0  0  0  0  0  0
   63.4620   31.9700   48.0350 C   0  0  0  0  0  0  0  0  0  0  0  0
   62.6420   32.5960   47.0940 C   0  0  0  0  0  0  0  0  0  0  0  0
   61.8940   33.7260   47.4410 C   0  0  0  0  0  0  0  0  0  0  0  0
   61.1030   34.3370   46.4550 O   0  0  0  0  0  0  0  0  0  0  0  0
   59.7450   34.0780   46.2180 C   0  0  0  0  0  0  0  0  0  0  0  0
   58.8610   33.7190   47.2550 C   0  0  0  0  0  0  0  0  0  0  0  0
   57.5160   33.4620   46.9720 C   0  0  0  0  0  0  0  0  0  0  0  0
   57.0490   33.5400   45.6570 C   0  0  0  0  0  0  0  0  0  0  0  0
   57.9270   33.8690   44.6210 C   0  0  0  0  0  0  0  0  0  0  0  0
   59.2720   34.1320   44.9010 C   0  0  0  0  0  0  0  0  0  0  0  0
   61.9980   34.2430   48.7460 C   0  0  0  0  0  0  0  0  0  0  0  0
   62.8070   33.6100   49.6930 C   0  0  0  0  0  0  0  0  0  0  0  0
   61.4050   30.3950   50.4200 C   0  0  0  0  0  0  0  0  0  0  0  0
   60.5710   31.4580   50.8220 C   0  0  0  0  0  0  0  0  0  0  0  0
   59.3330   31.6580   50.2080 C   0  0  0  0  0  0  0  0  0  0  0  0
   58.9010   30.7980   49.1980 C   0  0  0  0  0  0  0  0  0  0  0  0
   59.7000   29.7170   48.7990 C   0  0  0  0  0  0  0  0  0  0  0  0
   59.2350   28.8040   47.7310 C   0  0  0  0  0  0  0  0  0  0  0  0
   59.4600   27.5680   47.8410 O   0  0  0  0  0  0  0  0  0  0  0  0
   58.5320   29.2940   46.5720 N   0  0  0  0  0  0  0  0  0  0  0  0
   57.5320   28.4320   45.9250 C   0  0  0  0  0  0  0  0  0  0  0  0
   56.6690   29.2300   44.9390 C   0  0  0  0  0  0  0  0  0  0  0  0
   57.5210   29.9800   43.9000 C   0  0  0  0  0  0  0  0  0  0  0  0
   58.8730   30.4840   44.4480 C   0  0  0  0  0  0  0  0  0  0  0  0
   58.8810   30.5940   45.9750 C   0  0  0  0  0  0  0  0  0  0  0  0
   60.9560   29.5310   49.4010 C   0  0  0  0  0  0  0  0  0  0  0  0
   62.9963   32.1432   51.8351 H   0  0  0  0  0  0  0  0  0  0  0  0
   64.3285   30.9676   52.2124 H   0  0  0  0  0  0  0  0  0  0  0  0
   65.1160   32.5380   50.6530 H   0  0  0  0  0  0  0  0  0  0  0  0
   64.9310   31.0490   49.8590 H   0  0  0  0  0  0  0  0  0  0  0  0
   64.0499   31.0864   47.7458 H   0  0  0  0  0  0  0  0  0  0  0  0
   62.5837   32.1970   46.0706 H   0  0  0  0  0  0  0  0  0  0  0  0
   59.2295   33.6408   48.2885 H   0  0  0  0  0  0  0  0  0  0  0  0
   56.8244   33.1980   47.7856 H   0  0  0  0  0  0  0  0  0  0  0  0
   55.9894   33.3422   45.4375 H   0  0  0  0  0  0  0  0  0  0  0  0
   57.5605   33.9212   43.5852 H   0  0  0  0  0  0  0  0  0  0  0  0
   59.9622   34.3827   44.0820 H   0  0  0  0  0  0  0  0  0  0  0  0
   61.4396   35.1498   49.0216 H   0  0  0  0  0  0  0  0  0  0  0  0
   62.8698   34.0133   50.7145 H   0  0  0  0  0  0  0  0  0  0  0  0
   60.8979   32.1348   51.6252 H   0  0  0  0  0  0  0  0  0  0  0  0
   58.6954   32.4975   50.5221 H   0  0  0  0  0  0  0  0  0  0  0  0
   57.9289   30.9688   48.7123 H   0  0  0  0  0  0  0  0  0  0  0  0
   58.0491   27.6281   45.3806 H   0  0  0  0  0  0  0  0  0  0  0  0
   56.8766   28.0131   46.7028 H   0  0  0  0  0  0  0  0  0  0  0  0
   55.9977   28.5356   44.4126 H   0  0  0  0  0  0  0  0  0  0  0  0
   56.1005   29.9763   45.5133 H   0  0  0  0  0  0  0  0  0  0  0  0
   57.7199   29.2997   43.0588 H   0  0  0  0  0  0  0  0  0  0  0  0
   56.9474   30.8685   43.5973 H   0  0  0  0  0  0  0  0  0  0  0  0
   59.6622   29.7822   44.1405 H   0  0  0  0  0  0  0  0  0  0  0  0
   59.0458   31.4904   44.0390 H   0  0  0  0  0  0  0  0  0  0  0  0
   59.8836   30.8939   46.3140 H   0  0  0  0  0  0  0  0  0  0  0  0
   58.1425   31.3467   46.2882 H   0  0  0  0  0  0  0  0  0  0  0  0
   61.5974   28.6999   49.0726 H   0  0  0  0  0  0  0  0  0  0  0  0
  1  2  2  0
  2  3  1  0
  3  4  1  0
  4  5  1  0
  5  6  2  0
  6  7  1  0
  7  8  2  0
  8  9  1  0
  9 10  1  0
 10 11  2  0
 11 12  1  0
 12 13  2  0
 13 14  1  0
 14 15  2  0
  8 16  1  0
 16 17  2  0
  2 18  1  0
 18 19  2  0
 19 20  1  0
 20 21  2  0
 21 22  1  0
 22 23  1  0
 23 24  2  0
 23 25  1  0
 25 26  1  0
 26 27  1  0
 27 28  1  0
 28 29  1  0
 29 30  1  0
 22 31  2  0
 17  5  1  0
 31 18  1  0
 15 10  1  0
 30 25  1  0
  3 32  1  0
  3 33  1  0
  4 34  1  0
  4 35  1  0
  6 36  1  0
  7 37  1  0
 11 38  1  0
 12 39  1  0
 13 40  1  0
 14 41  1  0
 15 42  1  0
 16 43  1  0
 17 44  1  0
 19 45  1  0
 20 46  1  0
 21 47  1  0
 26 48  1  0
 26 49  1  0
 27 50  1  0
 27 51  1  0
 28 52  1  0
 28 53  1  0
 29 54  1  0
 29 55  1  0
 30 56  1  0
 30 57  1  0
 31 58  1  0
M  CHG  1   4   1
M  END
>  <UniqueID>  (61) 
59

>  <SMILES>  (61) 
O=C(C[NH2+]c1ccc(Oc2ccccc2)cc1)c1cccc(C(=O)N2CCCCC2)c1

>  <Energy>  (61) 
76.0632527518392

>  <Genealogy>  (61) 
O=C(C[NH2+]c1ccc(Oc2ccccc2)cc1)c1cccc(C(=O)N2CCCCC2)c1 (protonated)
O=C(C[NH2+]c1ccc(Oc2ccccc2)cc1)c1cccc(C(=O)N2CCCCC2)c1 (3D coordinates assigned)
O=C(C[NH2+]c1ccc(Oc2ccccc2)cc1)c1cccc(C(=O)N2CCCCC2)c1 (nonaromatic ring conformer: 76.0632527518392 kcal/mol)

>  <smiles>  (61) 
O=C(CNc1ccc(Oc2ccccc2)cc1)c1cccc(C(=O)N2CCCCC2)c1

>  <score_type>  (61) 
oracle

>  <origin>  (61) 
adg

>  <m_score__min__energy>  (61) 
-8.3300000000000001

>  <m_primary>  (61) 
energy

$$$$
61:0
     RDKit          3D

 50 52  0  0  0  0  0  0  0  0999 V2000
   55.9638   28.4611   43.0694 H   0  0  0  0  0  0  0  0  0  0  0  0
   56.8640   29.0000   43.4000 C   0  0  0  0  0  0  0  0  0  0  0  0
   56.8330   30.4770   43.4510 C   0  0  0  0  0  0  0  0  0  0  0  0
   56.8960   31.1490   42.3880 O   0  0  0  0  0  0  0  0  0  0  0  0
   56.6530   31.1720   44.6920 N   0  0  0  0  0  0  0  0  0  0  0  0
   57.4860   32.2220   45.2040 C   0  0  0  0  0  0  0  0  0  0  0  0
   57.5740   33.4220   44.4890 C   0  0  0  0  0  0  0  0  0  0  0  0
   56.9901   33.5533   43.5660 H   0  0  0  0  0  0  0  0  0  0  0  0
   58.4000   34.4540   44.9420 C   0  0  0  0  0  0  0  0  0  0  0  0
   58.4492   35.4017   44.3858 H   0  0  0  0  0  0  0  0  0  0  0  0
   59.1630   34.2850   46.0990 C   0  0  0  0  0  0  0  0  0  0  0  0
   59.8011   35.1051   46.4599 H   0  0  0  0  0  0  0  0  0  0  0  0
   59.1180   33.0730   46.8020 C   0  0  0  0  0  0  0  0  0  0  0  0
   60.1170   32.8420   48.2360 S   0  0  0  0  0  0  0  0  0  0  0  0
   60.5650   31.4080   48.2930 O   0  0  0  0  0  0  0  0  0  0  0  0
   59.2870   33.1090   49.4610 O   0  0  0  0  0  0  0  0  0  0  0  0
   61.5220   33.8840   48.2540 N   0  0  0  0  0  0  0  0  0  0  0  0
   62.5700   33.4630   47.3070 C   0  0  0  0  0  0  0  0  0  0  0  0
   63.1441   34.3529   47.0097 H   0  0  0  0  0  0  0  0  0  0  0  0
   62.0570   32.9844   46.4597 H   0  0  0  0  0  0  0  0  0  0  0  0
   63.5570   32.4170   47.8780 C   0  0  0  0  0  0  0  0  0  0  0  0
   64.5442   32.5883   47.4241 H   0  0  0  0  0  0  0  0  0  0  0  0
   63.1472   31.4254   47.6355 H   0  0  0  0  0  0  0  0  0  0  0  0
   63.7050   32.4730   49.3530 N   0  0  0  0  0  0  0  0  0  0  0  0
   63.0140   31.8170   49.7860 H   0  0  0  0  0  0  0  0  0  0  0  0
   65.0430   32.0100   49.7590 C   0  0  0  0  0  0  0  0  0  0  0  0
   65.1059   31.9882   50.8570 H   0  0  0  0  0  0  0  0  0  0  0  0
   65.2175   30.9992   49.3616 H   0  0  0  0  0  0  0  0  0  0  0  0
   65.8049   32.6968   49.3616 H   0  0  0  0  0  0  0  0  0  0  0  0
   63.4510   33.8270   49.8720 C   0  0  0  0  0  0  0  0  0  0  0  0
   64.1139   34.5426   49.3636 H   0  0  0  0  0  0  0  0  0  0  0  0
   63.6468   33.8422   50.9543 H   0  0  0  0  0  0  0  0  0  0  0  0
   61.9890   34.2190   49.6180 C   0  0  0  0  0  0  0  0  0  0  0  0
   61.8879   35.3044   49.7650 H   0  0  0  0  0  0  0  0  0  0  0  0
   61.3704   33.6459   50.3243 H   0  0  0  0  0  0  0  0  0  0  0  0
   58.2720   32.0460   46.3560 C   0  0  0  0  0  0  0  0  0  0  0  0
   58.2237   31.0976   46.9112 H   0  0  0  0  0  0  0  0  0  0  0  0
   57.9490   28.2960   43.7420 C   0  0  0  0  0  0  0  0  0  0  0  0
   58.4851   27.7423   42.9572 H   0  0  0  0  0  0  0  0  0  0  0  0
   58.4610   28.2290   45.1320 C   0  0  0  0  0  0  0  0  0  0  0  0
   59.7290   28.7700   45.4180 C   0  0  0  0  0  0  0  0  0  0  0  0
   60.4840   29.3180   44.4320 F   0  0  0  0  0  0  0  0  0  0  0  0
   60.2370   28.7300   46.7210 C   0  0  0  0  0  0  0  0  0  0  0  0
   61.2333   29.1450   46.9337 H   0  0  0  0  0  0  0  0  0  0  0  0
   59.4850   28.1660   47.7510 C   0  0  0  0  0  0  0  0  0  0  0  0
   59.8917   28.1283   48.7724 H   0  0  0  0  0  0  0  0  0  0  0  0
   58.2150   27.6490   47.4850 C   0  0  0  0  0  0  0  0  0  0  0  0
   57.6196   27.2130   48.3007 H   0  0  0  0  0  0  0  0  0  0  0  0
   57.6970   27.6830   46.1870 C   0  0  0  0  0  0  0  0  0  0  0  0
   56.4360   27.2290   45.9800 F   0  0  0  0  0  0  0  0  0  0  0  0
  1  2  1  0
  2  3  1  0
  3  4  2  0
  3  5  1  0
  5  6  1  0
  6  7  2  0
  7  8  1  0
  7  9  1  0
  9 10  1  0
  9 11  2  0
 11 12  1  0
 11 13  1  0
 13 14  1  0
 14 15  2  0
 14 16  2  0
 14 17  1  0
 17 18  1  0
 18 19  1  0
 18 20  1  0
 18 21  1  0
 21 22  1  0
 21 23  1  0
 21 24  1  0
 24 25  1  0
 24 26  1  0
 26 27  1  0
 26 28  1  0
 26 29  1  0
 24 30  1  0
 30 31  1  0
 30 32  1  0
 30 33  1  0
 33 34  1  0
 33 35  1  0
 13 36  2  0
 36 37  1  0
  2 38  2  0
 38 39  1  0
 38 40  1  0
 40 41  2  0
 41 42  1  0
 41 43  1  0
 43 44  1  0
 43 45  2  0
 45 46  1  0
 45 47  1  0
 47 48  1  0
 47 49  2  0
 49 50  1  0
 36  6  1  0
 49 40  1  0
 33 17  1  0
M  CHG  2   5  -1  24   1
M  END
>  <UniqueID>  (62) 
60

>  <SMILES>  (62) 
C[NH+]1CCN(S(=O)(=O)c2cccc([N-]C(=O)/C=C/c3c(F)cccc3F)c2)CC1

>  <Energy>  (62) 
70.03476792334072

>  <Genealogy>  (62) 
C[NH+]1CCN(S(=O)(=O)c2cccc([N-]C(=O)C=Cc3c(F)cccc3F)c2)CC1 (protonated)
C[NH+]1CCN(S(=O)(=O)c2cccc([N-]C(=O)/C=C/c3c(F)cccc3F)c2)CC1 (cis-trans isomerization)
C[NH+]1CCN(S(=O)(=O)c2cccc([N-]C(=O)/C=C/c3c(F)cccc3F)c2)CC1 (3D coordinates assigned)
C[NH+]1CCN(S(=O)(=O)c2cccc([N-]C(=O)/C=C/c3c(F)cccc3F)c2)CC1 (nonaromatic ring conformer: 70.03476792334072 kcal/mol)

>  <smiles>  (62) 
CN1CCN(S(=O)(=O)c2cccc(NC(=O)C=Cc3c(F)cccc3F)c2)CC1

>  <score_type>  (62) 
oracle

>  <origin>  (62) 
adg

>  <m_score__min__energy>  (62) 
-9.1999999999999993

>  <m_primary>  (62) 
energy

$$$$
62:0
     RDKit          3D

 46 49  0  0  0  0  0  0  0  0999 V2000
   56.2880   29.0880   42.4220 O   0  0  0  0  0  0  0  0  0  0  0  0
   56.7140   29.6370   43.7540 S   0  0  0  0  0  0  0  0  0  0  0  0
   55.5000   30.1270   44.4930 O   0  0  0  0  0  0  0  0  0  0  0  0
   57.8100   30.9590   43.5080 N   0  0  0  0  0  0  0  0  0  0  0  0
   57.9440   32.0670   44.4160 C   0  0  0  0  0  0  0  0  0  0  0  0
   58.1820   33.3760   43.9570 C   0  0  0  0  0  0  0  0  0  0  0  0
   58.3210   34.4270   44.8680 C   0  0  0  0  0  0  0  0  0  0  0  0
   58.2200   34.1880   46.2390 C   0  0  0  0  0  0  0  0  0  0  0  0
   57.9670   32.8970   46.7150 C   0  0  0  0  0  0  0  0  0  0  0  0
   57.8760   32.6970   48.1000 O   0  0  0  0  0  0  0  0  0  0  0  0
   58.9120   32.9270   49.0140 C   0  0  0  0  0  0  0  0  0  0  0  0
   58.7270   32.7330   50.3480 N   0  0  0  0  0  0  0  0  0  0  0  0
   59.7260   32.9710   51.2360 C   0  0  0  0  0  0  0  0  0  0  0  0
   59.4550   32.6940   52.9440 Cl  0  0  0  0  0  0  0  0  0  0  0  0
   60.9640   33.4280   50.7840 C   0  0  0  0  0  0  0  0  0  0  0  0
   61.1360   33.6430   49.4110 C   0  0  0  0  0  0  0  0  0  0  0  0
   62.4570   34.0960   48.8650 C   0  0  0  0  0  0  0  0  0  0  0  0
   63.5770   33.5600   49.7120 C   0  0  0  0  0  0  0  0  0  0  0  0
   63.9400   34.2130   50.9010 C   0  0  0  0  0  0  0  0  0  0  0  0
   65.0070   33.7360   51.6690 C   0  0  0  0  0  0  0  0  0  0  0  0
   65.7240   32.6120   51.2500 C   0  0  0  0  0  0  0  0  0  0  0  0
   65.3770   31.9640   50.0610 C   0  0  0  0  0  0  0  0  0  0  0  0
   64.3100   32.4380   49.2910 C   0  0  0  0  0  0  0  0  0  0  0  0
   60.1080   33.3820   48.5580 N   0  0  0  0  0  0  0  0  0  0  0  0
   57.8520   31.8360   45.7970 C   0  0  0  0  0  0  0  0  0  0  0  0
   57.5110   28.3660   44.6600 C   0  0  0  0  0  0  0  0  0  0  0  0
   58.8730   28.1040   44.6700 C   0  0  0  0  0  0  0  0  0  0  0  0
   59.2110   27.0100   45.4750 C   0  0  0  0  0  0  0  0  0  0  0  0
   58.1180   26.4150   46.0940 C   0  0  0  0  0  0  0  0  0  0  0  0
   56.7280   27.2490   45.6400 S   0  0  0  0  0  0  0  0  0  0  0  0
   58.4750   30.8770   42.7070 H   0  0  0  0  0  0  0  0  0  0  0  0
   58.2589   33.5727   42.8775 H   0  0  0  0  0  0  0  0  0  0  0  0
   58.5108   35.4470   44.5025 H   0  0  0  0  0  0  0  0  0  0  0  0
   58.3400   35.0192   46.9494 H   0  0  0  0  0  0  0  0  0  0  0  0
   61.7865   33.6152   51.4900 H   0  0  0  0  0  0  0  0  0  0  0  0
   62.5709   33.7268   47.8351 H   0  0  0  0  0  0  0  0  0  0  0  0
   62.4927   35.1954   48.8745 H   0  0  0  0  0  0  0  0  0  0  0  0
   63.3831   35.1029   51.2295 H   0  0  0  0  0  0  0  0  0  0  0  0
   65.2822   34.2461   52.6039 H   0  0  0  0  0  0  0  0  0  0  0  0
   66.5618   32.2370   51.8561 H   0  0  0  0  0  0  0  0  0  0  0  0
   65.9435   31.0808   49.7308 H   0  0  0  0  0  0  0  0  0  0  0  0
   64.0438   31.9303   48.3522 H   0  0  0  0  0  0  0  0  0  0  0  0
   57.6880   30.8131   46.1669 H   0  0  0  0  0  0  0  0  0  0  0  0
   59.6098   28.6938   44.1049 H   0  0  0  0  0  0  0  0  0  0  0  0
   60.2439   26.6548   45.6054 H   0  0  0  0  0  0  0  0  0  0  0  0
   58.1550   25.5457   46.7671 H   0  0  0  0  0  0  0  0  0  0  0  0
  1  2  2  0
  2  3  2  0
  2  4  1  0
  4  5  1  0
  5  6  2  0
  6  7  1  0
  7  8  2  0
  8  9  1  0
  9 10  1  0
 10 11  1  0
 11 12  2  0
 12 13  1  0
 13 14  1  0
 13 15  2  0
 15 16  1  0
 16 17  1  0
 17 18  1  0
 18 19  2  0
 19 20  1  0
 20 21  2  0
 21 22  1  0
 22 23  2  0
 16 24  2  0
  9 25  2  0
  2 26  1  0
 26 27  2  0
 27 28  1  0
 28 29  2  0
 29 30  1  0
 25  5  1  0
 30 26  1  0
 24 11  1  0
 23 18  1  0
  4 31  1  0
  6 32  1  0
  7 33  1  0
  8 34  1  0
 15 35  1  0
 17 36  1  0
 17 37  1  0
 19 38  1  0
 20 39  1  0
 21 40  1  0
 22 41  1  0
 23 42  1  0
 25 43  1  0
 27 44  1  0
 28 45  1  0
 29 46  1  0
M  END
>  <UniqueID>  (63) 
61

>  <SMILES>  (63) 
O=S(=O)(Nc1cccc(Oc2nc(Cl)cc(Cc3ccccc3)n2)c1)c1cccs1

>  <Energy>  (63) 
83.05449953439565

>  <Genealogy>  (63) 
O=S(=O)(Nc1cccc(Oc2nc(Cl)cc(Cc3ccccc3)n2)c1)c1cccs1 (3D coordinates assigned)
O=S(=O)(Nc1cccc(Oc2nc(Cl)cc(Cc3ccccc3)n2)c1)c1cccs1 (optimized conformer: 83.05449953439565 kcal/mol)

>  <smiles>  (63) 
O=S(=O)(Nc1cccc(Oc2nc(Cl)cc(Cc3ccccc3)n2)c1)c1cccs1

>  <score_type>  (63) 
oracle

>  <origin>  (63) 
adg

>  <m_score__min__energy>  (63) 
-10.01

>  <m_primary>  (63) 
energy

$$$$
63:0
     RDKit          3D

 46 49  0  0  0  0  0  0  0  0999 V2000
   64.8185   32.6621   48.3213 H   0  0  0  0  0  0  0  0  0  0  0  0
   63.7790   32.6000   47.9670 C   0  0  0  0  0  0  0  0  0  0  0  0
   62.9350   31.5970   48.4500 C   0  0  0  0  0  0  0  0  0  0  0  0
   63.3124   30.8666   49.1808 H   0  0  0  0  0  0  0  0  0  0  0  0
   61.6110   31.5200   48.0060 C   0  0  0  0  0  0  0  0  0  0  0  0
   60.9540   30.7209   48.3799 H   0  0  0  0  0  0  0  0  0  0  0  0
   61.1160   32.4580   47.0850 C   0  0  0  0  0  0  0  0  0  0  0  0
   59.7230   32.3460   46.6060 C   0  0  0  0  0  0  0  0  0  0  0  0
   59.1130   31.1300   46.5380 N   0  0  0  0  0  0  0  0  0  0  0  0
   57.8420   31.2160   46.0950 C   0  0  0  0  0  0  0  0  0  0  0  0
   57.0920   30.1630   45.9530 N   0  0  0  0  0  0  0  0  0  0  0  0
   56.5470   29.6250   44.7360 C   0  0  0  0  0  0  0  0  0  0  0  0
   55.4210   29.9950   44.3070 O   0  0  0  0  0  0  0  0  0  0  0  0
   57.2970   28.5650   43.9810 C   0  0  0  0  0  0  0  0  0  0  0  0
   56.6146   27.7288   43.7686 H   0  0  0  0  0  0  0  0  0  0  0  0
   57.6763   29.0116   43.0501 H   0  0  0  0  0  0  0  0  0  0  0  0
   58.4760   28.0460   44.7670 C   0  0  0  0  0  0  0  0  0  0  0  0
   59.7530   28.6000   44.5110 C   0  0  0  0  0  0  0  0  0  0  0  0
   59.8637   29.3579   43.7215 H   0  0  0  0  0  0  0  0  0  0  0  0
   60.8840   28.2000   45.2470 C   0  0  0  0  0  0  0  0  0  0  0  0
   61.8665   28.6404   45.0219 H   0  0  0  0  0  0  0  0  0  0  0  0
   60.7660   27.2440   46.2650 C   0  0  0  0  0  0  0  0  0  0  0  0
   61.6439   26.9217   46.8441 H   0  0  0  0  0  0  0  0  0  0  0  0
   59.5050   26.7150   46.5210 C   0  0  0  0  0  0  0  0  0  0  0  0
   59.2020   25.8010   47.4590 N   0  0  0  0  0  0  0  0  0  0  0  0
   57.8700   25.6380   47.2930 C   0  0  0  0  0  0  0  0  0  0  0  0
   57.1970   24.8370   47.9930 O   0  0  0  0  0  0  0  0  0  0  0  0
   57.3310   26.4060   46.3100 N   0  0  0  0  0  0  0  0  0  0  0  0
   55.9320   26.3850   45.8840 C   0  0  0  0  0  0  0  0  0  0  0  0
   55.2792   26.3752   46.7693 H   0  0  0  0  0  0  0  0  0  0  0  0
   55.7188   27.2800   45.2811 H   0  0  0  0  0  0  0  0  0  0  0  0
   55.7458   25.4840   45.2811 H   0  0  0  0  0  0  0  0  0  0  0  0
   58.3880   27.0890   45.8110 C   0  0  0  0  0  0  0  0  0  0  0  0
   57.4040   32.8130   45.7790 S   0  0  0  0  0  0  0  0  0  0  0  0
   58.9110   33.4250   46.2210 C   0  0  0  0  0  0  0  0  0  0  0  0
   59.2290   34.8920   46.2760 C   0  0  0  0  0  0  0  0  0  0  0  0
   60.2071   35.0302   46.7599 H   0  0  0  0  0  0  0  0  0  0  0  0
   58.4401   35.4004   46.8497 H   0  0  0  0  0  0  0  0  0  0  0  0
   59.2760   35.4940   44.8750 C   0  0  0  0  0  0  0  0  0  0  0  0
   59.3614   36.5882   44.9488 H   0  0  0  0  0  0  0  0  0  0  0  0
   60.1457   35.0940   44.3330 H   0  0  0  0  0  0  0  0  0  0  0  0
   58.3548   35.2338   44.3330 H   0  0  0  0  0  0  0  0  0  0  0  0
   61.9780   33.4510   46.5880 C   0  0  0  0  0  0  0  0  0  0  0  0
   61.6093   34.1737   45.8452 H   0  0  0  0  0  0  0  0  0  0  0  0
   63.3020   33.5250   47.0330 C   0  0  0  0  0  0  0  0  0  0  0  0
   63.9683   34.3111   46.6481 H   0  0  0  0  0  0  0  0  0  0  0  0
  1  2  1  0
  2  3  2  0
  3  4  1  0
  3  5  1  0
  5  6  1  0
  5  7  2  0
  7  8  1  0
  8  9  1  0
  9 10  1  0
 10 11  2  0
 11 12  1  0
 12 13  2  0
 12 14  1  0
 14 15  1  0
 14 16  1  0
 14 17  1  0
 17 18  2  0
 18 19  1  0
 18 20  1  0
 20 21  1  0
 20 22  2  0
 22 23  1  0
 22 24  1  0
 24 25  1  0
 25 26  1  0
 26 27  2  0
 26 28  1  0
 28 29  1  0
 29 30  1  0
 29 31  1  0
 29 32  1  0
 28 33  1  0
 10 34  1  0
 34 35  1  0
 35 36  1  0
 36 37  1  0
 36 38  1  0
 36 39  1  0
 39 40  1  0
 39 41  1  0
 39 42  1  0
  7 43  1  0
 43 44  1  0
 43 45  2  0
 45 46  1  0
 45  2  1  0
 35  8  2  0
 33 17  1  0
 33 24  2  0
M  CHG  2   9  -1  25  -1
M  END
>  <UniqueID>  (64) 
62

>  <SMILES>  (64) 
CCc1s/c(=N\C(=O)Cc2cccc3[n-]c(=O)n(C)c23)[n-]c1-c1ccccc1

>  <Energy>  (64) 
126.34057373556007

>  <Genealogy>  (64) 
CCc1sc(=NC(=O)Cc2cccc3[n-]c(=O)n(C)c23)[n-]c1-c1ccccc1 (protonated)
CCc1s/c(=N\C(=O)Cc2cccc3[n-]c(=O)n(C)c23)[n-]c1-c1ccccc1 (cis-trans isomerization)
CCc1s/c(=N\C(=O)Cc2cccc3[n-]c(=O)n(C)c23)[n-]c1-c1ccccc1 (3D coordinates assigned)
CCc1s/c(=N\C(=O)Cc2cccc3[n-]c(=O)n(C)c23)[n-]c1-c1ccccc1 (optimized conformer: 126.34057373556007 kcal/mol)

>  <smiles>  (64) 
CCc1sc(=NC(=O)Cc2cccc3[nH]c(=O)n(C)c23)[nH]c1-c1ccccc1

>  <score_type>  (64) 
oracle

>  <origin>  (64) 
adg

>  <m_score__min__energy>  (64) 
-11.66

>  <m_primary>  (64) 
energy

$$$$
64:0
     RDKit          3D

 62 65  0  0  0  0  0  0  0  0999 V2000
   57.7595   27.0550   46.9551 H   0  0  0  0  0  0  0  0  0  0  0  0
   57.2120   26.8560   46.0220 C   0  0  0  0  0  0  0  0  0  0  0  0
   56.0890   25.8980   46.0490 C   0  0  0  0  0  0  0  0  0  0  0  0
   54.9120   26.3430   45.9930 O   0  0  0  0  0  0  0  0  0  0  0  0
   56.3040   24.4810   46.1480 N   0  0  0  0  0  0  0  0  0  0  0  0
   57.0840   23.7760   45.1210 C   0  0  0  0  0  0  0  0  0  0  0  0
   56.4066   23.4420   44.3213 H   0  0  0  0  0  0  0  0  0  0  0  0
   57.8417   24.4663   44.7218 H   0  0  0  0  0  0  0  0  0  0  0  0
   57.8060   22.5450   45.7190 C   0  0  0  0  0  0  0  0  0  0  0  0
   57.6031   21.6775   45.0738 H   0  0  0  0  0  0  0  0  0  0  0  0
   58.8761   22.7952   45.7670 H   0  0  0  0  0  0  0  0  0  0  0  0
   57.3990   22.2240   47.0400 O   0  0  0  0  0  0  0  0  0  0  0  0
   55.9900   22.2550   47.1400 C   0  0  0  0  0  0  0  0  0  0  0  0
   55.5497   21.7047   46.2955 H   0  0  0  0  0  0  0  0  0  0  0  0
   55.6776   21.7854   48.0844 H   0  0  0  0  0  0  0  0  0  0  0  0
   55.5120   23.7070   47.1080 C   0  0  0  0  0  0  0  0  0  0  0  0
   54.4533   23.7343   46.8108 H   0  0  0  0  0  0  0  0  0  0  0  0
   55.6332   24.1463   48.1092 H   0  0  0  0  0  0  0  0  0  0  0  0
   57.5900   27.4920   44.9060 C   0  0  0  0  0  0  0  0  0  0  0  0
   57.9846   26.8987   44.0680 H   0  0  0  0  0  0  0  0  0  0  0  0
   57.4980   28.9620   44.7550 C   0  0  0  0  0  0  0  0  0  0  0  0
   58.6840   29.7060   44.7080 C   0  0  0  0  0  0  0  0  0  0  0  0
   59.6543   29.1959   44.7992 H   0  0  0  0  0  0  0  0  0  0  0  0
   58.6400   31.0910   44.5460 C   0  0  0  0  0  0  0  0  0  0  0  0
   59.5722   31.6726   44.4936 H   0  0  0  0  0  0  0  0  0  0  0  0
   57.4050   31.7330   44.4510 C   0  0  0  0  0  0  0  0  0  0  0  0
   57.3650   33.1220   44.2800 O   0  0  0  0  0  0  0  0  0  0  0  0
   57.9210   34.0510   45.2090 C   0  0  0  0  0  0  0  0  0  0  0  0
   59.0183   33.9818   45.1758 H   0  0  0  0  0  0  0  0  0  0  0  0
   57.5937   35.0645   44.9340 H   0  0  0  0  0  0  0  0  0  0  0  0
   57.4410   33.7480   46.6320 C   0  0  0  0  0  0  0  0  0  0  0  0
   56.8215   34.5834   46.9902 H   0  0  0  0  0  0  0  0  0  0  0  0
   56.8539   32.8179   46.6178 H   0  0  0  0  0  0  0  0  0  0  0  0
   58.5810   33.5730   47.5340 N   0  0  0  0  0  0  0  0  0  0  0  0
   59.4280   32.5790   47.5650 C   0  0  0  0  0  0  0  0  0  0  0  0
   60.7800   32.7270   47.1910 C   0  0  0  0  0  0  0  0  0  0  0  0
   61.1523   33.7044   46.8504 H   0  0  0  0  0  0  0  0  0  0  0  0
   61.6470   31.6320   47.2530 C   0  0  0  0  0  0  0  0  0  0  0  0
   62.9880   31.8250   46.8830 O   0  0  0  0  0  0  0  0  0  0  0  0
   63.7360   33.0230   47.0900 C   0  0  0  0  0  0  0  0  0  0  0  0
   64.7503   32.8877   46.6864 H   0  0  0  0  0  0  0  0  0  0  0  0
   63.2228   33.8490   46.5759 H   0  0  0  0  0  0  0  0  0  0  0  0
   63.8300   33.3560   48.5560 C   0  0  0  0  0  0  0  0  0  0  0  0
   64.8110   32.7480   49.3580 C   0  0  0  0  0  0  0  0  0  0  0  0
   65.5209   32.0372   48.9099 H   0  0  0  0  0  0  0  0  0  0  0  0
   64.8890   33.0420   50.7220 C   0  0  0  0  0  0  0  0  0  0  0  0
   65.6659   32.5708   51.3421 H   0  0  0  0  0  0  0  0  0  0  0  0
   63.9810   33.9340   51.2990 C   0  0  0  0  0  0  0  0  0  0  0  0
   64.0458   34.1680   52.3719 H   0  0  0  0  0  0  0  0  0  0  0  0
   62.9900   34.5290   50.5120 C   0  0  0  0  0  0  0  0  0  0  0  0
   62.2715   35.2261   50.9679 H   0  0  0  0  0  0  0  0  0  0  0  0
   62.9110   34.2390   49.1460 C   0  0  0  0  0  0  0  0  0  0  0  0
   62.1262   34.7043   48.5315 H   0  0  0  0  0  0  0  0  0  0  0  0
   61.1500   30.3910   47.6790 C   0  0  0  0  0  0  0  0  0  0  0  0
   61.8135   29.5150   47.7271 H   0  0  0  0  0  0  0  0  0  0  0  0
   59.8080   30.2770   48.0410 C   0  0  0  0  0  0  0  0  0  0  0  0
   59.4127   29.3068   48.3763 H   0  0  0  0  0  0  0  0  0  0  0  0
   58.9860   31.3570   47.9820 N   0  0  0  0  0  0  0  0  0  0  0  0
   57.9850   31.2360   48.2620 H   0  0  0  0  0  0  0  0  0  0  0  0
   56.2580   31.0030   44.5350 N   0  0  0  0  0  0  0  0  0  0  0  0
   56.2680   29.6530   44.6890 C   0  0  0  0  0  0  0  0  0  0  0  0
   55.1720   29.0410   44.7950 O   0  0  0  0  0  0  0  0  0  0  0  0
  1  2  1  0
  2  3  1  0
  3  4  2  0
  3  5  1  0
  5  6  1  0
  6  7  1  0
  6  8  1  0
  6  9  1  0
  9 10  1  0
  9 11  1  0
  9 12  1  0
 12 13  1  0
 13 14  1  0
 13 15  1  0
 13 16  1  0
 16 17  1  0
 16 18  1  0
  2 19  2  0
 19 20  1  0
 19 21  1  0
 21 22  2  0
 22 23  1  0
 22 24  1  0
 24 25  1  0
 24 26  2  0
 26 27  1  0
 27 28  1  0
 28 29  1  0
 28 30  1  0
 28 31  1  0
 31 32  1  0
 31 33  1  0
 31 34  1  0
 34 35  2  3
 35 36  1  0
 36 37  1  0
 36 38  2  0
 38 39  1  0
 39 40  1  0
 40 41  1  0
 40 42  1  0
 40 43  1  0
 43 44  2  0
 44 45  1  0
 44 46  1  0
 46 47  1  0
 46 48  2  0
 48 49  1  0
 48 50  1  0
 50 51  1  0
 50 52  2  0
 52 53  1  0
 38 54  1  0
 54 55  1  0
 54 56  2  0
 56 57  1  0
 56 58  1  0
 58 59  1  0
 26 60  1  0
 60 61  1  0
 61 62  2  0
 16  5  1  0
 61 21  1  0
 58 35  1  0
 52 43  1  0
M  CHG  1  60  -1
M  END
>  <UniqueID>  (65) 
63

>  <SMILES>  (65) 
O=C(/C=C/c1ccc(OCCN=c2cc(OCc3ccccc3)cc[nH]2)[n-]c1=O)N1CCOCC1

>  <Energy>  (65) 
79.77510117502129

>  <Genealogy>  (65) 
O=C(C=Cc1ccc(OCCN=c2cc(OCc3ccccc3)cc[nH]2)[n-]c1=O)N1CCOCC1 (protonated)
O=C(/C=C/c1ccc(OCCN=c2cc(OCc3ccccc3)cc[nH]2)[n-]c1=O)N1CCOCC1 (cis-trans isomerization)
O=C(/C=C/c1ccc(OCCN=c2cc(OCc3ccccc3)cc[nH]2)[n-]c1=O)N1CCOCC1 (3D coordinates assigned)
O=C(/C=C/c1ccc(OCCN=c2cc(OCc3ccccc3)cc[nH]2)[n-]c1=O)N1CCOCC1 (nonaromatic ring conformer: 79.77510117502129 kcal/mol)

>  <smiles>  (65) 
O=C(C=Cc1ccc(OCCN=c2cc(OCc3ccccc3)cc[nH]2)[nH]c1=O)N1CCOCC1

>  <score_type>  (65) 
oracle

>  <origin>  (65) 
adg

>  <m_score__min__energy>  (65) 
-13.470000000000001

>  <m_primary>  (65) 
energy

$$$$
65:0
     RDKit          3D

 54 57  0  0  0  0  0  0  0  0999 V2000
   58.0204   27.6542   47.2365 H   0  0  0  0  0  0  0  0  0  0  0  0
   57.5120   27.4350   46.2860 C   0  0  0  0  0  0  0  0  0  0  0  0
   57.3000   28.4280   45.4660 N   0  0  0  0  0  0  0  0  0  0  0  0
   58.2980   29.1850   44.7670 C   0  0  0  0  0  0  0  0  0  0  0  0
   59.2550   28.5670   44.2260 O   0  0  0  0  0  0  0  0  0  0  0  0
   58.2730   30.6710   44.7460 C   0  0  0  0  0  0  0  0  0  0  0  0
   57.6870   31.3470   43.6620 C   0  0  0  0  0  0  0  0  0  0  0  0
   57.2013   30.7736   42.8587 H   0  0  0  0  0  0  0  0  0  0  0  0
   57.7170   32.7370   43.5980 C   0  0  0  0  0  0  0  0  0  0  0  0
   57.2225   33.2566   42.7640 H   0  0  0  0  0  0  0  0  0  0  0  0
   58.3710   33.4760   44.5860 C   0  0  0  0  0  0  0  0  0  0  0  0
   58.3983   34.5734   44.5158 H   0  0  0  0  0  0  0  0  0  0  0  0
   58.9970   32.8310   45.6730 C   0  0  0  0  0  0  0  0  0  0  0  0
   59.7100   33.6080   46.6720 N   0  0  0  0  0  0  0  0  0  0  0  0
   59.1760   33.7340   48.0380 C   0  0  0  0  0  0  0  0  0  0  0  0
   58.3421   34.4514   48.0291 H   0  0  0  0  0  0  0  0  0  0  0  0
   58.8398   32.7393   48.3658 H   0  0  0  0  0  0  0  0  0  0  0  0
   60.2510   34.2290   49.0340 C   0  0  0  0  0  0  0  0  0  0  0  0
   60.3306   35.3230   48.9518 H   0  0  0  0  0  0  0  0  0  0  0  0
   59.9388   33.9201   50.0425 H   0  0  0  0  0  0  0  0  0  0  0  0
   61.5860   33.6340   48.7740 N   0  0  0  0  0  0  0  0  0  0  0  0
   61.9000   32.3940   49.5270 C   0  0  0  0  0  0  0  0  0  0  0  0
   62.8893   32.0344   49.2075 H   0  0  0  0  0  0  0  0  0  0  0  0
   61.8730   32.6507   50.5963 H   0  0  0  0  0  0  0  0  0  0  0  0
   60.8940   31.2820   49.3120 C   0  0  0  0  0  0  0  0  0  0  0  0
   61.0010   30.4160   48.2090 C   0  0  0  0  0  0  0  0  0  0  0  0
   61.8593   30.5044   47.5267 H   0  0  0  0  0  0  0  0  0  0  0  0
   60.0230   29.4420   47.9730 C   0  0  0  0  0  0  0  0  0  0  0  0
   60.1090   28.7765   47.1014 H   0  0  0  0  0  0  0  0  0  0  0  0
   58.9380   29.3150   48.8440 C   0  0  0  0  0  0  0  0  0  0  0  0
   58.1748   28.5438   48.6630 H   0  0  0  0  0  0  0  0  0  0  0  0
   58.8220   30.1690   49.9470 C   0  0  0  0  0  0  0  0  0  0  0  0
   57.7280   30.0570   50.8000 O   0  0  0  0  0  0  0  0  0  0  0  0
   59.7980   31.1450   50.1840 C   0  0  0  0  0  0  0  0  0  0  0  0
   59.7074   31.8083   51.0568 H   0  0  0  0  0  0  0  0  0  0  0  0
   62.0470   33.6410   47.3590 C   0  0  0  0  0  0  0  0  0  0  0  0
   62.9707   34.2346   47.2922 H   0  0  0  0  0  0  0  0  0  0  0  0
   62.2138   32.5964   47.0574 H   0  0  0  0  0  0  0  0  0  0  0  0
   61.0100   34.2390   46.4060 C   0  0  0  0  0  0  0  0  0  0  0  0
   60.9362   35.3239   46.5720 H   0  0  0  0  0  0  0  0  0  0  0  0
   61.3093   34.0577   45.3632 H   0  0  0  0  0  0  0  0  0  0  0  0
   58.8980   31.4240   45.7610 C   0  0  0  0  0  0  0  0  0  0  0  0
   59.3161   30.9070   46.6373 H   0  0  0  0  0  0  0  0  0  0  0  0
   57.1130   26.0290   46.0220 C   0  0  0  0  0  0  0  0  0  0  0  0
   58.0690   24.9960   45.9720 C   0  0  0  0  0  0  0  0  0  0  0  0
   59.1387   25.2371   46.0594 H   0  0  0  0  0  0  0  0  0  0  0  0
   57.6680   23.6660   45.8120 C   0  0  0  0  0  0  0  0  0  0  0  0
   58.4228   22.8683   45.7498 H   0  0  0  0  0  0  0  0  0  0  0  0
   56.3090   23.3490   45.7310 C   0  0  0  0  0  0  0  0  0  0  0  0
   55.9940   22.3019   45.6115 H   0  0  0  0  0  0  0  0  0  0  0  0
   55.3510   24.3640   45.8020 C   0  0  0  0  0  0  0  0  0  0  0  0
   54.2817   24.1127   45.7437 H   0  0  0  0  0  0  0  0  0  0  0  0
   55.7460   25.6990   45.9470 C   0  0  0  0  0  0  0  0  0  0  0  0
   54.7730   26.6920   46.0070 O   0  0  0  0  0  0  0  0  0  0  0  0
  1  2  1  0
  2  3  2  0
  3  4  1  0
  4  5  2  0
  4  6  1  0
  6  7  2  0
  7  8  1  0
  7  9  1  0
  9 10  1  0
  9 11  2  0
 11 12  1  0
 11 13  1  0
 13 14  1  0
 14 15  1  0
 15 16  1  0
 15 17  1  0
 15 18  1  0
 18 19  1  0
 18 20  1  0
 18 21  1  0
 21 22  1  0
 22 23  1  0
 22 24  1  0
 22 25  1  0
 25 26  2  0
 26 27  1  0
 26 28  1  0
 28 29  1  0
 28 30  2  0
 30 31  1  0
 30 32  1  0
 32 33  1  0
 32 34  2  0
 34 35  1  0
 21 36  1  0
 36 37  1  0
 36 38  1  0
 36 39  1  0
 39 40  1  0
 39 41  1  0
 13 42  2  0
 42 43  1  0
  2 44  1  0
 44 45  2  0
 45 46  1  0
 45 47  1  0
 47 48  1  0
 47 49  2  0
 49 50  1  0
 49 51  1  0
 51 52  1  0
 51 53  2  0
 53 54  1  0
 42  6  1  0
 53 44  1  0
 39 14  1  0
 34 25  1  0
M  CHG  2  33  -1  54  -1
M  END
>  <UniqueID>  (66) 
64

>  <SMILES>  (66) 
O=C(/N=C\c1ccccc1[O-])c1cccc(N2CCN(Cc3cccc([O-])c3)CC2)c1

>  <Energy>  (66) 
85.57250016307356

>  <Genealogy>  (66) 
O=C(N=Cc1ccccc1[O-])c1cccc(N2CCN(Cc3cccc([O-])c3)CC2)c1 (protonated)
O=C(/N=C\c1ccccc1[O-])c1cccc(N2CCN(Cc3cccc([O-])c3)CC2)c1 (cis-trans isomerization)
O=C(/N=C\c1ccccc1[O-])c1cccc(N2CCN(Cc3cccc([O-])c3)CC2)c1 (3D coordinates assigned)
O=C(/N=C\c1ccccc1[O-])c1cccc(N2CCN(Cc3cccc([O-])c3)CC2)c1 (nonaromatic ring conformer: 85.57250016307356 kcal/mol)

>  <smiles>  (66) 
O=C(N=Cc1ccccc1O)c1cccc(N2CCN(Cc3cccc(O)c3)CC2)c1

>  <score_type>  (66) 
oracle

>  <origin>  (66) 
adg

>  <m_score__min__energy>  (66) 
-16.760000000000002

>  <m_primary>  (66) 
energy

$$$$
66:0
     RDKit          3D

 52 55  0  0  0  0  0  0  0  0999 V2000
   59.4920   34.6870   44.2310 O   0  0  0  0  0  0  0  0  0  0  0  0
   58.9830   33.7230   44.8610 C   0  0  0  0  0  0  0  0  0  0  0  0
   59.1500   33.5620   46.2430 O   0  0  0  0  0  0  0  0  0  0  0  0
   60.3430   33.1000   46.7770 C   0  0  0  0  0  0  0  0  0  0  0  0
   61.3070   34.0900   47.0200 C   0  0  0  0  0  0  0  0  0  0  0  0
   62.5370   33.7680   47.5520 C   0  0  0  0  0  0  0  0  0  0  0  0
   62.7660   32.4390   47.8290 C   0  0  0  0  0  0  0  0  0  0  0  0
   61.8180   31.4700   47.5880 C   0  0  0  0  0  0  0  0  0  0  0  0
   60.5630   31.7770   47.0480 C   0  0  0  0  0  0  0  0  0  0  0  0
   59.6510   30.6910   46.8040 C   0  0  0  0  0  0  0  0  0  0  0  0
   58.4800   30.7720   47.3110 O   0  0  0  0  0  0  0  0  0  0  0  0
   59.8980   29.5250   46.0540 N   0  0  0  0  0  0  0  0  0  0  0  0
   58.9050   28.5150   45.8770 C   0  0  0  0  0  0  0  0  0  0  0  0
   58.4360   27.9240   47.0530 C   0  0  0  0  0  0  0  0  0  0  0  0
   57.4730   26.9380   46.9670 C   0  0  0  0  0  0  0  0  0  0  0  0
   56.9840   26.5460   45.7380 C   0  0  0  0  0  0  0  0  0  0  0  0
   55.7660   25.2890   45.7200 S   0  0  0  0  0  0  0  0  0  0  0  0
   55.9630   24.2760   46.8080 O   0  0  0  0  0  0  0  0  0  0  0  0
   54.3840   25.8750   45.9230 O   0  0  0  0  0  0  0  0  0  0  0  0
   55.7840   24.4990   44.2080 N   0  0  0  0  0  0  0  0  0  0  0  0
   56.4580   23.4390   44.0090 C   0  0  0  0  0  0  0  0  0  0  0  0
   56.1400   22.6710   42.9410 N   0  0  0  0  0  0  0  0  0  0  0  0
   56.8040   21.5310   42.6570 C   0  0  0  0  0  0  0  0  0  0  0  0
   57.8430   21.1010   43.4520 C   0  0  0  0  0  0  0  0  0  0  0  0
   58.1700   21.8960   44.5560 C   0  0  0  0  0  0  0  0  0  0  0  0
   57.4800   23.0280   44.8030 N   0  0  0  0  0  0  0  0  0  0  0  0
   57.4610   27.1420   44.5890 C   0  0  0  0  0  0  0  0  0  0  0  0
   58.4330   28.1420   44.6350 C   0  0  0  0  0  0  0  0  0  0  0  0
   58.1830   32.7170   44.1590 C   0  0  0  0  0  0  0  0  0  0  0  0
   58.1540   32.6350   42.7730 C   0  0  0  0  0  0  0  0  0  0  0  0
   57.3990   31.6880   42.1060 C   0  0  0  0  0  0  0  0  0  0  0  0
   56.6390   30.7800   42.8220 C   0  0  0  0  0  0  0  0  0  0  0  0
   56.6510   30.8420   44.2160 C   0  0  0  0  0  0  0  0  0  0  0  0
   55.9000   29.9450   44.9120 F   0  0  0  0  0  0  0  0  0  0  0  0
   57.4210   31.8090   44.8690 C   0  0  0  0  0  0  0  0  0  0  0  0
   61.0776   35.1392   46.7823 H   0  0  0  0  0  0  0  0  0  0  0  0
   63.2997   34.5366   47.7461 H   0  0  0  0  0  0  0  0  0  0  0  0
   63.7355   32.1424   48.2557 H   0  0  0  0  0  0  0  0  0  0  0  0
   62.0537   30.4225   47.8270 H   0  0  0  0  0  0  0  0  0  0  0  0
   60.8140   29.3620   45.6150 H   0  0  0  0  0  0  0  0  0  0  0  0
   58.8275   28.2390   48.0315 H   0  0  0  0  0  0  0  0  0  0  0  0
   57.0937   26.4625   47.8835 H   0  0  0  0  0  0  0  0  0  0  0  0
   56.5113   20.9372   41.7785 H   0  0  0  0  0  0  0  0  0  0  0  0
   58.3914   20.1739   43.2290 H   0  0  0  0  0  0  0  0  0  0  0  0
   58.9915   21.5971   45.2237 H   0  0  0  0  0  0  0  0  0  0  0  0
   57.7300   23.6270   45.6380 H   0  0  0  0  0  0  0  0  0  0  0  0
   57.0659   26.8214   43.6138 H   0  0  0  0  0  0  0  0  0  0  0  0
   58.8089   28.6152   43.7159 H   0  0  0  0  0  0  0  0  0  0  0  0
   58.7519   33.3476   42.1859 H   0  0  0  0  0  0  0  0  0  0  0  0
   57.4025   31.6564   41.0065 H   0  0  0  0  0  0  0  0  0  0  0  0
   56.0355   30.0221   42.3011 H   0  0  0  0  0  0  0  0  0  0  0  0
   57.4202   31.8477   45.9683 H   0  0  0  0  0  0  0  0  0  0  0  0
  1  2  2  0
  2  3  1  0
  3  4  1  0
  4  5  2  0
  5  6  1  0
  6  7  2  0
  7  8  1  0
  8  9  2  0
  9 10  1  0
 10 11  2  0
 10 12  1  0
 12 13  1  0
 13 14  2  0
 14 15  1  0
 15 16  2  0
 16 17  1  0
 17 18  2  0
 17 19  2  0
 17 20  1  0
 20 21  2  3
 21 22  1  0
 22 23  2  0
 23 24  1  0
 24 25  2  0
 25 26  1  0
 16 27  1  0
 27 28  2  0
  2 29  1  0
 29 30  2  0
 30 31  1  0
 31 32  2  0
 32 33  1  0
 33 34  1  0
 33 35  2  0
  9  4  1  0
 28 13  1  0
 35 29  1  0
 26 21  1  0
  5 36  1  0
  6 37  1  0
  7 38  1  0
  8 39  1  0
 12 40  1  0
 14 41  1  0
 15 42  1  0
 23 43  1  0
 24 44  1  0
 25 45  1  0
 26 46  1  0
 27 47  1  0
 28 48  1  0
 30 49  1  0
 31 50  1  0
 32 51  1  0
 35 52  1  0
M  END
>  <smiles>  (67) 
O=C(Oc1ccccc1C(=O)Nc1ccc(S(=O)(=O)N=c2nccc[nH]2)cc1)c1cccc(F)c1

>  <score_type>  (67) 
oracle

>  <origin>  (67) 
adg

>  <m_score__min__energy>  (67) 
-9.8200000000000003

>  <m_primary>  (67) 
energy

$$$$
67:0
     RDKit          3D

 35 37  0  0  0  0  0  0  0  0999 V2000
   55.4010   29.5780   44.7990 N   0  0  0  0  0  0  0  0  0  0  0  0
   56.2600   28.6780   45.1520 C   0  0  0  0  0  0  0  0  0  0  0  0
   55.8990   27.4700   45.6330 N   0  0  0  0  0  0  0  0  0  0  0  0
   57.0780   26.8650   45.8710 C   0  0  0  0  0  0  0  0  0  0  0  0
   57.1930   25.5120   46.5090 C   0  0  0  0  0  0  0  0  0  0  0  0
   56.8860   24.4320   45.5080 C   0  0  0  0  0  0  0  0  0  0  0  0
   56.4600   23.1620   45.9340 C   0  0  0  0  0  0  0  0  0  0  0  0
   56.1510   22.1720   44.9970 C   0  0  0  0  0  0  0  0  0  0  0  0
   56.2590   22.4410   43.6290 C   0  0  0  0  0  0  0  0  0  0  0  0
   55.9500   21.4560   42.7000 O   0  0  0  0  0  0  0  0  0  0  0  0
   56.6790   23.7030   43.1980 C   0  0  0  0  0  0  0  0  0  0  0  0
   56.9880   24.6960   44.1330 C   0  0  0  0  0  0  0  0  0  0  0  0
   58.1100   27.7230   45.5320 C   0  0  0  0  0  0  0  0  0  0  0  0
   59.5790   27.4900   45.7440 C   0  0  0  0  0  0  0  0  0  0  0  0
   59.9720   27.7570   47.1730 C   0  0  0  0  0  0  0  0  0  0  0  0
   60.0520   29.0750   47.6530 C   0  0  0  0  0  0  0  0  0  0  0  0
   60.4500   29.3210   48.9710 C   0  0  0  0  0  0  0  0  0  0  0  0
   60.7790   28.2540   49.8150 C   0  0  0  0  0  0  0  0  0  0  0  0
   61.1750   28.5010   51.1240 O   0  0  0  0  0  0  0  0  0  0  0  0
   60.7140   26.9410   49.3390 C   0  0  0  0  0  0  0  0  0  0  0  0
   60.3170   26.6920   48.0210 C   0  0  0  0  0  0  0  0  0  0  0  0
   57.5900   28.8830   45.0870 N   0  0  0  0  0  0  0  0  0  0  0  0
   54.3920   29.3420   44.6750 H   0  0  0  0  0  0  0  0  0  0  0  0
   58.2170   25.3754   46.8869 H   0  0  0  0  0  0  0  0  0  0  0  0
   56.4722   25.4459   47.3373 H   0  0  0  0  0  0  0  0  0  0  0  0
   56.3695   22.9465   47.0089 H   0  0  0  0  0  0  0  0  0  0  0  0
   55.8220   21.1788   45.3365 H   0  0  0  0  0  0  0  0  0  0  0  0
   56.7665   23.9151   42.1222 H   0  0  0  0  0  0  0  0  0  0  0  0
   57.3127   25.6892   43.7892 H   0  0  0  0  0  0  0  0  0  0  0  0
   59.8160   26.4449   45.4960 H   0  0  0  0  0  0  0  0  0  0  0  0
   60.1383   28.1792   45.0943 H   0  0  0  0  0  0  0  0  0  0  0  0
   59.8008   29.9161   46.9901 H   0  0  0  0  0  0  0  0  0  0  0  0
   60.5045   30.3541   49.3447 H   0  0  0  0  0  0  0  0  0  0  0  0
   60.9753   26.1028   50.0017 H   0  0  0  0  0  0  0  0  0  0  0  0
   60.2749   25.6582   47.6474 H   0  0  0  0  0  0  0  0  0  0  0  0
  1  2  2  3
  2  3  1  0
  3  4  1  0
  4  5  1  0
  5  6  1  0
  6  7  2  0
  7  8  1  0
  8  9  2  0
  9 10  1  0
  9 11  1  0
 11 12  2  0
  4 13  2  0
 13 14  1  0
 14 15  1  0
 15 16  2  0
 16 17  1  0
 17 18  2  0
 18 19  1  0
 18 20  1  0
 20 21  2  0
 13 22  1  0
 22  2  1  0
 12  6  1  0
 21 15  1  0
  1 23  1  0
  5 24  1  0
  5 25  1  0
  7 26  1  0
  8 27  1  0
 11 28  1  0
 12 29  1  0
 14 30  1  0
 14 31  1  0
 16 32  1  0
 17 33  1  0
 20 34  1  0
 21 35  1  0
M  CHG  4   3  -1  10  -1  19  -1  22  -1
M  END
>  <UniqueID>  (68) 
65

>  <SMILES>  (68) 
N=c1[n-]c(Cc2ccc([O-])cc2)c(Cc2ccc([O-])cc2)[n-]1

>  <Energy>  (68) 
62.621044861511244

>  <Genealogy>  (68) 
N=c1[n-]c(Cc2ccc([O-])cc2)c(Cc2ccc([O-])cc2)[n-]1 (protonated)
N=c1[n-]c(Cc2ccc([O-])cc2)c(Cc2ccc([O-])cc2)[n-]1 (3D coordinates assigned)
N=c1[n-]c(Cc2ccc([O-])cc2)c(Cc2ccc([O-])cc2)[n-]1 (optimized conformer: 62.621044861511244 kcal/mol)

>  <smiles>  (68) 
N=c1[nH]c(Cc2ccc(O)cc2)c(Cc2ccc(O)cc2)[nH]1

>  <score_type>  (68) 
oracle

>  <origin>  (68) 
adg

>  <m_score__min__energy>  (68) 
-13

>  <m_primary>  (68) 
energy

$$$$
68:0
     RDKit          3D

 45 48  0  0  0  0  0  0  0  0999 V2000
   62.9660   33.9250   45.9930 C   0  0  0  0  0  0  0  0  0  0  0  0
   63.0390   33.5100   47.2610 C   0  0  0  0  0  0  0  0  0  0  0  0
   64.1890   33.0510   47.8020 N   0  0  0  0  0  0  0  0  0  0  0  0
   64.0290   32.9050   49.1080 N   0  0  0  0  0  0  0  0  0  0  0  0
   65.0630   32.4570   50.0060 C   0  0  0  0  0  0  0  0  0  0  0  0
   66.2540   33.1930   50.1320 C   0  0  0  0  0  0  0  0  0  0  0  0
   67.2590   32.7670   51.0070 C   0  0  0  0  0  0  0  0  0  0  0  0
   67.0830   31.6090   51.7660 C   0  0  0  0  0  0  0  0  0  0  0  0
   65.9010   30.8740   51.6550 C   0  0  0  0  0  0  0  0  0  0  0  0
   64.8930   31.2950   50.7810 C   0  0  0  0  0  0  0  0  0  0  0  0
   62.7610   33.2470   49.4190 C   0  0  0  0  0  0  0  0  0  0  0  0
   62.2710   33.1820   50.5790 O   0  0  0  0  0  0  0  0  0  0  0  0
   62.0710   33.6150   48.2730 C   0  0  0  0  0  0  0  0  0  0  0  0
   60.7670   33.9520   48.2350 C   0  0  0  0  0  0  0  0  0  0  0  0
   59.8650   33.7330   47.0950 C   0  0  0  0  0  0  0  0  0  0  0  0
   59.2840   34.7300   46.3400 C   0  0  0  0  0  0  0  0  0  0  0  0
   58.4770   34.0860   45.4250 C   0  0  0  0  0  0  0  0  0  0  0  0
   58.6090   32.7300   45.6890 C   0  0  0  0  0  0  0  0  0  0  0  0
   57.9510   31.6110   44.9770 C   0  0  0  0  0  0  0  0  0  0  0  0
   57.3750   31.7850   43.7050 C   0  0  0  0  0  0  0  0  0  0  0  0
   56.7680   30.7090   43.0510 C   0  0  0  0  0  0  0  0  0  0  0  0
   56.7260   29.4520   43.6570 C   0  0  0  0  0  0  0  0  0  0  0  0
   57.2870   29.2650   44.9270 C   0  0  0  0  0  0  0  0  0  0  0  0
   57.2530   27.6790   45.6920 S   0  0  0  0  0  0  0  0  0  0  0  0
   55.6290   27.0900   45.7270 N   0  0  0  0  0  0  0  0  0  0  0  0
   58.1190   26.7260   44.9180 O   0  0  0  0  0  0  0  0  0  0  0  0
   57.7780   27.7750   47.0980 O   0  0  0  0  0  0  0  0  0  0  0  0
   57.9010   30.3420   45.5790 C   0  0  0  0  0  0  0  0  0  0  0  0
   59.4350   32.5590   46.6960 O   0  0  0  0  0  0  0  0  0  0  0  0
   62.0112   34.2921   45.5885 H   0  0  0  0  0  0  0  0  0  0  0  0
   63.8607   33.8995   45.3536 H   0  0  0  0  0  0  0  0  0  0  0  0
   65.0930   32.9070   47.2960 H   0  0  0  0  0  0  0  0  0  0  0  0
   66.3965   34.1087   49.5395 H   0  0  0  0  0  0  0  0  0  0  0  0
   68.1900   33.3460   51.0970 H   0  0  0  0  0  0  0  0  0  0  0  0
   67.8757   31.2753   52.4518 H   0  0  0  0  0  0  0  0  0  0  0  0
   65.7622   29.9629   52.2555 H   0  0  0  0  0  0  0  0  0  0  0  0
   63.9623   30.7144   50.6992 H   0  0  0  0  0  0  0  0  0  0  0  0
   60.3426   34.4301   49.1302 H   0  0  0  0  0  0  0  0  0  0  0  0
   59.4332   35.8147   46.4455 H   0  0  0  0  0  0  0  0  0  0  0  0
   57.8560   34.5519   44.6457 H   0  0  0  0  0  0  0  0  0  0  0  0
   57.4025   32.7732   43.2226 H   0  0  0  0  0  0  0  0  0  0  0  0
   56.3221   30.8531   42.0558 H   0  0  0  0  0  0  0  0  0  0  0  0
   56.2516   28.6070   43.1364 H   0  0  0  0  0  0  0  0  0  0  0  0
   55.1520   27.4620   44.8760 H   0  0  0  0  0  0  0  0  0  0  0  0
   58.3488   30.1930   46.5726 H   0  0  0  0  0  0  0  0  0  0  0  0
  1  2  2  0
  2  3  1  0
  3  4  1  0
  4  5  1  0
  5  6  2  0
  6  7  1  0
  7  8  2  0
  8  9  1  0
  9 10  2  0
  4 11  1  0
 11 12  2  0
 11 13  1  0
 13 14  2  3
 14 15  1  0
 15 16  2  0
 16 17  1  0
 17 18  2  0
 18 19  1  0
 19 20  2  0
 20 21  1  0
 21 22  2  0
 22 23  1  0
 23 24  1  0
 24 25  1  0
 24 26  2  0
 24 27  2  0
 23 28  2  0
 18 29  1  0
 13  2  1  0
 29 15  1  0
 10  5  1  0
 28 19  1  0
  1 30  1  0
  1 31  1  0
  3 32  1  0
  6 33  1  0
  7 34  1  0
  8 35  1  0
  9 36  1  0
 10 37  1  0
 14 38  1  0
 16 39  1  0
 17 40  1  0
 20 41  1  0
 21 42  1  0
 22 43  1  0
 25 44  1  0
 28 45  1  0
M  CHG  1  25  -1
M  END
>  <UniqueID>  (69) 
66

>  <SMILES>  (69) 
C=c1[nH]n(-c2ccccc2)c(=O)c1=Cc1ccc(-c2cccc(S([NH-])(=O)=O)c2)o1

>  <Energy>  (69) 
124.69567697988633

>  <Genealogy>  (69) 
C=c1[nH]n(-c2ccccc2)c(=O)c1=Cc1ccc(-c2cccc(S([NH-])(=O)=O)c2)o1 (protonated)
C=c1[nH]n(-c2ccccc2)c(=O)c1=Cc1ccc(-c2cccc(S([NH-])(=O)=O)c2)o1 (3D coordinates assigned)
C=c1[nH]n(-c2ccccc2)c(=O)c1=Cc1ccc(-c2cccc(S([NH-])(=O)=O)c2)o1 (optimized conformer: 124.69567697988633 kcal/mol)

>  <smiles>  (69) 
C=c1[nH]n(-c2ccccc2)c(=O)c1=Cc1ccc(-c2cccc(S(N)(=O)=O)c2)o1

>  <score_type>  (69) 
oracle

>  <origin>  (69) 
adg

>  <m_score__min__energy>  (69) 
-12.390000000000001

>  <m_primary>  (69) 
energy

$$$$
69:0
     RDKit          3D

 53 56  0  0  0  0  0  0  0  0999 V2000
   59.5875   35.0146   46.2041 H   0  0  0  0  0  0  0  0  0  0  0  0
   60.4100   34.6380   46.8300 C   0  0  0  0  0  0  0  0  0  0  0  0
   61.4730   33.9650   46.3470 N   0  0  0  0  0  0  0  0  0  0  0  0
   62.1760   33.7240   47.4690 C   0  0  0  0  0  0  0  0  0  0  0  0
   63.7330   32.8370   47.4950 S   0  0  0  0  0  0  0  0  0  0  0  0
   64.2560   33.4860   49.1200 C   0  0  0  0  0  0  0  0  0  0  0  0
   63.4872   34.1771   49.4959 H   0  0  0  0  0  0  0  0  0  0  0  0
   65.2161   34.0085   48.9966 H   0  0  0  0  0  0  0  0  0  0  0  0
   64.4410   32.3710   50.1100 C   0  0  0  0  0  0  0  0  0  0  0  0
   65.9500   31.7770   50.5580 S   0  0  0  0  0  0  0  0  0  0  0  0
   65.3960   30.4860   51.4750 C   0  0  0  0  0  0  0  0  0  0  0  0
   66.0235   29.7612   52.0144 H   0  0  0  0  0  0  0  0  0  0  0  0
   64.0090   30.4910   51.4350 C   0  0  0  0  0  0  0  0  0  0  0  0
   63.3926   29.7379   51.9477 H   0  0  0  0  0  0  0  0  0  0  0  0
   63.4610   31.5440   50.6810 C   0  0  0  0  0  0  0  0  0  0  0  0
   62.0000   31.7060   50.5200 C   0  0  0  0  0  0  0  0  0  0  0  0
   61.3510   32.3890   51.4160 N   0  0  0  0  0  0  0  0  0  0  0  0
   60.4850   33.4100   51.0950 O   0  0  0  0  0  0  0  0  0  0  0  0
   59.1790   33.4360   51.6420 C   0  0  0  0  0  0  0  0  0  0  0  0
   59.2414   33.4348   52.7402 H   0  0  0  0  0  0  0  0  0  0  0  0
   58.6585   34.3447   51.3053 H   0  0  0  0  0  0  0  0  0  0  0  0
   58.6227   32.5488   51.3053 H   0  0  0  0  0  0  0  0  0  0  0  0
   61.3270   31.1840   49.3130 C   0  0  0  0  0  0  0  0  0  0  0  0
   61.7260   30.0940   48.8190 O   0  0  0  0  0  0  0  0  0  0  0  0
   60.2160   31.8850   48.7260 N   0  0  0  0  0  0  0  0  0  0  0  0
   59.9940   32.8490   49.0590 H   0  0  0  0  0  0  0  0  0  0  0  0
   59.3460   31.3170   47.7340 C   0  0  0  0  0  0  0  0  0  0  0  0
   59.0620   29.9450   47.7730 C   0  0  0  0  0  0  0  0  0  0  0  0
   59.4768   29.3247   48.5812 H   0  0  0  0  0  0  0  0  0  0  0  0
   58.2550   29.3580   46.7920 C   0  0  0  0  0  0  0  0  0  0  0  0
   58.0230   28.2839   46.8419 H   0  0  0  0  0  0  0  0  0  0  0  0
   57.7420   30.1370   45.7460 C   0  0  0  0  0  0  0  0  0  0  0  0
   56.7820   29.4060   44.4650 S   0  0  0  0  0  0  0  0  0  0  0  0
   55.3310   29.3270   44.8510 O   0  0  0  0  0  0  0  0  0  0  0  0
   56.9120   30.2420   43.2230 O   0  0  0  0  0  0  0  0  0  0  0  0
   57.3760   27.8090   44.1420 N   0  0  0  0  0  0  0  0  0  0  0  0
   57.6540   26.8170   45.1400 C   0  0  0  0  0  0  0  0  0  0  0  0
   58.9620   26.3590   45.3930 C   0  0  0  0  0  0  0  0  0  0  0  0
   59.8075   26.7712   44.8228 H   0  0  0  0  0  0  0  0  0  0  0  0
   59.1880   25.3820   46.3670 C   0  0  0  0  0  0  0  0  0  0  0  0
   60.2107   25.0248   46.5582 H   0  0  0  0  0  0  0  0  0  0  0  0
   58.1200   24.8580   47.0980 C   0  0  0  0  0  0  0  0  0  0  0  0
   58.3007   24.0833   47.8578 H   0  0  0  0  0  0  0  0  0  0  0  0
   56.8220   25.3180   46.8640 C   0  0  0  0  0  0  0  0  0  0  0  0
   55.9822   24.9119   47.4469 H   0  0  0  0  0  0  0  0  0  0  0  0
   56.5880   26.2950   45.8890 C   0  0  0  0  0  0  0  0  0  0  0  0
   55.3200   26.7220   45.6620 F   0  0  0  0  0  0  0  0  0  0  0  0
   58.0330   31.5050   45.6950 C   0  0  0  0  0  0  0  0  0  0  0  0
   57.6300   32.1205   44.8773 H   0  0  0  0  0  0  0  0  0  0  0  0
   58.8330   32.0920   46.6780 C   0  0  0  0  0  0  0  0  0  0  0  0
   59.0632   33.1664   46.6261 H   0  0  0  0  0  0  0  0  0  0  0  0
   61.5860   34.2170   48.5700 N   0  0  0  0  0  0  0  0  0  0  0  0
   60.4690   34.7970   48.1650 N   0  0  0  0  0  0  0  0  0  0  0  0
  1  2  1  0
  2  3  2  0
  3  4  1  0
  4  5  1  0
  5  6  1  0
  6  7  1  0
  6  8  1  0
  6  9  1  0
  9 10  1  0
 10 11  1  0
 11 12  1  0
 11 13  2  0
 13 14  1  0
 13 15  1  0
 15 16  1  0
 16 17  2  0
 17 18  1  0
 18 19  1  0
 19 20  1  0
 19 21  1  0
 19 22  1  0
 16 23  1  0
 23 24  2  0
 23 25  1  0
 25 26  1  0
 25 27  1  0
 27 28  2  0
 28 29  1  0
 28 30  1  0
 30 31  1  0
 30 32  2  0
 32 33  1  0
 33 34  2  0
 33 35  2  0
 33 36  1  0
 36 37  1  0
 37 38  2  0
 38 39  1  0
 38 40  1  0
 40 41  1  0
 40 42  2  0
 42 43  1  0
 42 44  1  0
 44 45  1  0
 44 46  2  0
 46 47  1  0
 32 48  1  0
 48 49  1  0
 48 50  2  0
 50 51  1  0
  4 52  2  0
 52 53  1  0
 53  2  1  0
 15  9  2  0
 50 27  1  0
 46 37  1  0
M  CHG  2  36  -1  53  -1
M  END
>  <UniqueID>  (70) 
67

>  <SMILES>  (70) 
CO/N=C(\C(=O)Nc1ccc(S(=O)(=O)[N-]c2ccccc2F)cc1)c1ccsc1CSc1nc[n-]n1

>  <Energy>  (70) 
119.613254255573

>  <Genealogy>  (70) 
CON=C(C(=O)Nc1ccc(S(=O)(=O)[N-]c2ccccc2F)cc1)c1ccsc1CSc1nc[n-]n1 (protonated)
CO/N=C(\C(=O)Nc1ccc(S(=O)(=O)[N-]c2ccccc2F)cc1)c1ccsc1CSc1nc[n-]n1 (cis-trans isomerization)
CO/N=C(\C(=O)Nc1ccc(S(=O)(=O)[N-]c2ccccc2F)cc1)c1ccsc1CSc1nc[n-]n1 (3D coordinates assigned)
CO/N=C(\C(=O)Nc1ccc(S(=O)(=O)[N-]c2ccccc2F)cc1)c1ccsc1CSc1nc[n-]n1 (optimized conformer: 119.613254255573 kcal/mol)

>  <smiles>  (70) 
CON=C(C(=O)Nc1ccc(S(=O)(=O)Nc2ccccc2F)cc1)c1ccsc1CSc1nc[nH]n1

>  <score_type>  (70) 
oracle

>  <origin>  (70) 
adg

>  <m_score__min__energy>  (70) 
-12.31

>  <m_primary>  (70) 
energy

$$$$
70:0
     RDKit          3D

 40 42  0  0  0  0  0  0  0  0999 V2000
   61.1030   28.7760   45.1940 O   0  0  0  0  0  0  0  0  0  0  0  0
   60.2150   29.1970   45.9840 C   0  0  0  0  0  0  0  0  0  0  0  0
   60.5190   30.2470   46.9100 N   0  0  0  0  0  0  0  0  0  0  0  0
   60.1790   31.6220   46.7000 C   0  0  0  0  0  0  0  0  0  0  0  0
   59.0590   31.9200   45.9140 C   0  0  0  0  0  0  0  0  0  0  0  0
   58.6480   33.2500   45.7190 C   0  0  0  0  0  0  0  0  0  0  0  0
   57.4590   33.5610   44.8470 C   0  0  0  0  0  0  0  0  0  0  0  0
   57.6920   33.1670   43.5400 F   0  0  0  0  0  0  0  0  0  0  0  0
   56.3520   32.8860   45.3290 F   0  0  0  0  0  0  0  0  0  0  0  0
   57.1940   34.9190   44.8470 F   0  0  0  0  0  0  0  0  0  0  0  0
   59.4140   34.2870   46.2750 C   0  0  0  0  0  0  0  0  0  0  0  0
   60.5520   33.9990   47.0310 C   0  0  0  0  0  0  0  0  0  0  0  0
   60.9510   32.6730   47.2450 C   0  0  0  0  0  0  0  0  0  0  0  0
   62.1930   32.4170   47.9260 N   0  0  0  0  0  0  0  0  0  0  0  0
   63.4120   33.1120   47.4990 C   0  0  0  0  0  0  0  0  0  0  0  0
   64.4520   33.0840   48.6190 C   0  0  0  0  0  0  0  0  0  0  0  0
   63.8110   33.3410   49.8490 O   0  0  0  0  0  0  0  0  0  0  0  0
   63.0470   32.2170   50.2570 C   0  0  0  0  0  0  0  0  0  0  0  0
   62.2210   31.5640   49.1210 C   0  0  0  0  0  0  0  0  0  0  0  0
   58.8750   28.5830   45.9640 C   0  0  0  0  0  0  0  0  0  0  0  0
   57.7980   29.2030   45.3080 C   0  0  0  0  0  0  0  0  0  0  0  0
   56.5460   28.5800   45.3040 C   0  0  0  0  0  0  0  0  0  0  0  0
   55.5730   29.1280   44.7180 O   0  0  0  0  0  0  0  0  0  0  0  0
   56.3780   27.3520   45.9500 C   0  0  0  0  0  0  0  0  0  0  0  0
   55.1410   26.7180   45.9590 O   0  0  0  0  0  0  0  0  0  0  0  0
   57.4710   26.7640   46.5910 C   0  0  0  0  0  0  0  0  0  0  0  0
   58.6810   27.3840   46.5830 N   0  0  0  0  0  0  0  0  0  0  0  0
   58.4934   31.1025   45.4430 H   0  0  0  0  0  0  0  0  0  0  0  0
   59.1156   35.3334   46.1139 H   0  0  0  0  0  0  0  0  0  0  0  0
   61.1412   34.8214   47.4629 H   0  0  0  0  0  0  0  0  0  0  0  0
   63.8225   32.6130   46.6087 H   0  0  0  0  0  0  0  0  0  0  0  0
   63.1661   34.1576   47.2619 H   0  0  0  0  0  0  0  0  0  0  0  0
   64.9309   32.0943   48.6527 H   0  0  0  0  0  0  0  0  0  0  0  0
   65.2187   33.8505   48.4328 H   0  0  0  0  0  0  0  0  0  0  0  0
   63.7355   31.4605   50.6615 H   0  0  0  0  0  0  0  0  0  0  0  0
   62.3255   32.5797   51.0039 H   0  0  0  0  0  0  0  0  0  0  0  0
   62.6729   30.5957   48.8600 H   0  0  0  0  0  0  0  0  0  0  0  0
   61.1887   31.4277   49.4755 H   0  0  0  0  0  0  0  0  0  0  0  0
   57.9385   30.1697   44.8022 H   0  0  0  0  0  0  0  0  0  0  0  0
   57.3526   25.7977   47.1031 H   0  0  0  0  0  0  0  0  0  0  0  0
  1  2  2  0
  2  3  1  0
  3  4  1  0
  4  5  2  0
  5  6  1  0
  6  7  1  0
  7  8  1  0
  7  9  1  0
  7 10  1  0
  6 11  2  0
 11 12  1  0
 12 13  2  0
 13 14  1  0
 14 15  1  0
 15 16  1  0
 16 17  1  0
 17 18  1  0
 18 19  1  0
  2 20  1  0
 20 21  2  0
 21 22  1  0
 22 23  2  0
 22 24  1  0
 24 25  1  0
 24 26  2  0
 26 27  1  0
 13  4  1  0
 19 14  1  0
 27 20  1  0
  5 28  1  0
 11 29  1  0
 12 30  1  0
 15 31  1  0
 15 32  1  0
 16 33  1  0
 16 34  1  0
 18 35  1  0
 18 36  1  0
 19 37  1  0
 19 38  1  0
 21 39  1  0
 26 40  1  0
M  CHG  3   3  -1  25  -1  27  -1
M  END
>  <UniqueID>  (71) 
68

>  <SMILES>  (71) 
O=C([N-]c1cc(C(F)(F)F)ccc1N1CCOCC1)c1cc(=O)c([O-])c[n-]1

>  <Energy>  (71) 
60.49178974819464

>  <Genealogy>  (71) 
O=C([N-]c1cc(C(F)(F)F)ccc1N1CCOCC1)c1cc(=O)c([O-])c[n-]1 (protonated)
O=C([N-]c1cc(C(F)(F)F)ccc1N1CCOCC1)c1cc(=O)c([O-])c[n-]1 (3D coordinates assigned)
O=C([N-]c1cc(C(F)(F)F)ccc1N1CCOCC1)c1cc(=O)c([O-])c[n-]1 (nonaromatic ring conformer: 60.49178974819464 kcal/mol)

>  <smiles>  (71) 
O=C(Nc1cc(C(F)(F)F)ccc1N1CCOCC1)c1cc(=O)c(O)c[nH]1

>  <score_type>  (71) 
oracle

>  <origin>  (71) 
adg

>  <m_score__min__energy>  (71) 
-12.619999999999999

>  <m_primary>  (71) 
energy

$$$$
71:0
     RDKit          3D

 42 44  0  0  0  0  0  0  0  0999 V2000
   66.0860   32.8620   49.9000 N   0  0  0  0  0  0  0  0  0  0  0  0
   64.3970   32.7550   50.2530 S   0  0  0  0  0  0  0  0  0  0  0  0
   64.0630   31.3330   50.6080 O   0  0  0  0  0  0  0  0  0  0  0  0
   64.0660   33.6400   51.4220 O   0  0  0  0  0  0  0  0  0  0  0  0
   63.4700   33.2740   48.8420 C   0  0  0  0  0  0  0  0  0  0  0  0
   64.1260   33.5020   47.6210 C   0  0  0  0  0  0  0  0  0  0  0  0
   63.4050   33.9130   46.4980 C   0  0  0  0  0  0  0  0  0  0  0  0
   62.0240   34.0920   46.5820 C   0  0  0  0  0  0  0  0  0  0  0  0
   61.3600   33.8690   47.7900 C   0  0  0  0  0  0  0  0  0  0  0  0
   62.0770   33.4770   48.9360 C   0  0  0  0  0  0  0  0  0  0  0  0
   61.4090   33.2200   50.1820 N   0  0  0  0  0  0  0  0  0  0  0  0
   60.3080   32.3290   50.3910 C   0  0  0  0  0  0  0  0  0  0  0  0
   60.4850   31.2180   50.9580 O   0  0  0  0  0  0  0  0  0  0  0  0
   58.9660   32.7450   49.9350 C   0  0  0  0  0  0  0  0  0  0  0  0
   58.5310   32.7280   48.6660 C   0  0  0  0  0  0  0  0  0  0  0  0
   58.5450   31.5490   47.7760 C   0  0  0  0  0  0  0  0  0  0  0  0
   58.3870   31.6840   46.3870 C   0  0  0  0  0  0  0  0  0  0  0  0
   58.3640   30.5540   45.5660 C   0  0  0  0  0  0  0  0  0  0  0  0
   58.4680   29.2700   46.1250 C   0  0  0  0  0  0  0  0  0  0  0  0
   58.4890   28.0570   45.2370 C   0  0  0  0  0  0  0  0  0  0  0  0
   57.3630   27.1380   45.5970 C   0  0  0  0  0  0  0  0  0  0  0  0
   57.5410   25.5620   46.1680 S   0  0  0  0  0  0  0  0  0  0  0  0
   55.8860   25.3680   46.3880 C   0  0  0  0  0  0  0  0  0  0  0  0
   55.3470   24.3170   46.8210 O   0  0  0  0  0  0  0  0  0  0  0  0
   55.1830   26.4710   46.0540 N   0  0  0  0  0  0  0  0  0  0  0  0
   56.0070   27.4600   45.6200 C   0  0  0  0  0  0  0  0  0  0  0  0
   55.5170   28.7010   45.2350 O   0  0  0  0  0  0  0  0  0  0  0  0
   58.6030   29.1350   47.5150 C   0  0  0  0  0  0  0  0  0  0  0  0
   58.6260   30.2660   48.3370 C   0  0  0  0  0  0  0  0  0  0  0  0
   66.5700   32.1580   50.5000 H   0  0  0  0  0  0  0  0  0  0  0  0
   65.2139   33.3559   47.5491 H   0  0  0  0  0  0  0  0  0  0  0  0
   63.9262   34.0957   45.5467 H   0  0  0  0  0  0  0  0  0  0  0  0
   61.4569   34.4095   45.6946 H   0  0  0  0  0  0  0  0  0  0  0  0
   60.2694   34.0006   47.8463 H   0  0  0  0  0  0  0  0  0  0  0  0
   58.2622   33.0995   50.7025 H   0  0  0  0  0  0  0  0  0  0  0  0
   58.1319   33.6672   48.2553 H   0  0  0  0  0  0  0  0  0  0  0  0
   58.2808   32.6849   45.9432 H   0  0  0  0  0  0  0  0  0  0  0  0
   58.2640   30.6705   44.4768 H   0  0  0  0  0  0  0  0  0  0  0  0
   58.3812   28.3715   44.1884 H   0  0  0  0  0  0  0  0  0  0  0  0
   59.4438   27.5277   45.3720 H   0  0  0  0  0  0  0  0  0  0  0  0
   58.6913   28.1333   47.9609 H   0  0  0  0  0  0  0  0  0  0  0  0
   58.7079   30.1491   49.4277 H   0  0  0  0  0  0  0  0  0  0  0  0
  1  2  1  0
  2  3  2  0
  2  4  2  0
  2  5  1  0
  5  6  2  0
  6  7  1  0
  7  8  2  0
  8  9  1  0
  9 10  2  0
 10 11  1  0
 11 12  1  0
 12 13  2  0
 12 14  1  0
 14 15  2  3
 15 16  1  0
 16 17  2  0
 17 18  1  0
 18 19  2  0
 19 20  1  0
 20 21  1  0
 21 22  1  0
 22 23  1  0
 23 24  2  0
 23 25  1  0
 25 26  1  0
 26 27  1  0
 19 28  1  0
 28 29  2  0
 10  5  1  0
 29 16  1  0
 26 21  2  0
  1 30  1  0
  6 31  1  0
  7 32  1  0
  8 33  1  0
  9 34  1  0
 14 35  1  0
 15 36  1  0
 17 37  1  0
 18 38  1  0
 20 39  1  0
 20 40  1  0
 28 41  1  0
 29 42  1  0
M  CHG  4   1  -1  11  -1  25  -1  27  -1
M  END
>  <UniqueID>  (72) 
69

>  <SMILES>  (72) 
[NH-]S(=O)(=O)c1ccccc1[N-]C(=O)C=Cc1ccc(Cc2sc(=O)[n-]c2[O-])cc1

>  <Energy>  (72) 
85.28368804704814

>  <Genealogy>  (72) 
[NH-]S(=O)(=O)c1ccccc1[N-]C(=O)C=Cc1ccc(Cc2sc(=O)[n-]c2[O-])cc1 (protonated)
[NH-]S(=O)(=O)c1ccccc1[N-]C(=O)C=Cc1ccc(Cc2sc(=O)[n-]c2[O-])cc1 (3D coordinates assigned)
[NH-]S(=O)(=O)c1ccccc1[N-]C(=O)C=Cc1ccc(Cc2sc(=O)[n-]c2[O-])cc1 (optimized conformer: 85.28368804704814 kcal/mol)

>  <smiles>  (72) 
NS(=O)(=O)c1ccccc1NC(=O)C=Cc1ccc(Cc2sc(=O)[nH]c2O)cc1

>  <score_type>  (72) 
oracle

>  <origin>  (72) 
adg

>  <m_score__min__energy>  (72) 
-16.190000000000001

>  <m_primary>  (72) 
energy

$$$$
72:0
     RDKit          3D

 29 30  0  0  0  0  0  0  0  0999 V2000
   55.7870   28.8150   44.8220 O   0  0  0  0  0  0  0  0  0  0  0  0
   56.8110   28.5390   45.5000 C   0  0  0  0  0  0  0  0  0  0  0  0
   57.6430   29.6020   45.9740 N   0  0  0  0  0  0  0  0  0  0  0  0
   58.4970   30.4110   45.1120 C   0  0  0  0  0  0  0  0  0  0  0  0
   58.3470   31.8630   45.4770 C   0  0  0  0  0  0  0  0  0  0  0  0
   58.5060   32.2610   46.8160 C   0  0  0  0  0  0  0  0  0  0  0  0
   58.3940   33.6060   47.1730 C   0  0  0  0  0  0  0  0  0  0  0  0
   58.1340   34.5700   46.1960 C   0  0  0  0  0  0  0  0  0  0  0  0
   57.9890   34.1910   44.8600 C   0  0  0  0  0  0  0  0  0  0  0  0
   58.0990   32.8440   44.4920 C   0  0  0  0  0  0  0  0  0  0  0  0
   57.9300   32.4260   42.7890 Cl  0  0  0  0  0  0  0  0  0  0  0  0
   57.1140   27.1290   45.8080 C   0  0  0  0  0  0  0  0  0  0  0  0
   56.0750   26.2520   46.1700 C   0  0  0  0  0  0  0  0  0  0  0  0
   54.7630   26.7070   46.2570 O   0  0  0  0  0  0  0  0  0  0  0  0
   56.3550   24.9140   46.4590 C   0  0  0  0  0  0  0  0  0  0  0  0
   57.6670   24.4400   46.3940 C   0  0  0  0  0  0  0  0  0  0  0  0
   58.7120   25.3050   46.0410 C   0  0  0  0  0  0  0  0  0  0  0  0
   60.0210   24.8300   45.9770 O   0  0  0  0  0  0  0  0  0  0  0  0
   58.4390   26.6510   45.7490 C   0  0  0  0  0  0  0  0  0  0  0  0
   59.7650   27.7150   45.2820 Cl  0  0  0  0  0  0  0  0  0  0  0  0
   59.5456   30.1061   45.2445 H   0  0  0  0  0  0  0  0  0  0  0  0
   58.2022   30.2646   44.0624 H   0  0  0  0  0  0  0  0  0  0  0  0
   58.7202   31.5072   47.5879 H   0  0  0  0  0  0  0  0  0  0  0  0
   58.5106   33.9069   48.2246 H   0  0  0  0  0  0  0  0  0  0  0  0
   58.0434   35.6290   46.4795 H   0  0  0  0  0  0  0  0  0  0  0  0
   57.7875   34.9535   44.0932 H   0  0  0  0  0  0  0  0  0  0  0  0
   55.5390   24.2314   46.7388 H   0  0  0  0  0  0  0  0  0  0  0  0
   57.8809   23.3850   46.6204 H   0  0  0  0  0  0  0  0  0  0  0  0
   60.8150   25.4610   45.9670 H   0  0  0  0  0  0  0  0  0  0  0  0
  1  2  2  0
  2  3  1  0
  3  4  1  0
  4  5  1  0
  5  6  2  0
  6  7  1  0
  7  8  2  0
  8  9  1  0
  9 10  2  0
 10 11  1  0
  2 12  1  0
 12 13  2  0
 13 14  1  0
 13 15  1  0
 15 16  2  0
 16 17  1  0
 17 18  1  0
 17 19  2  0
 19 20  1  0
 10  5  1  0
 19 12  1  0
  4 21  1  0
  4 22  1  0
  6 23  1  0
  7 24  1  0
  8 25  1  0
  9 26  1  0
 15 27  1  0
 16 28  1  0
 18 29  1  0
M  CHG  2   3  -1  14  -1
M  END
>  <UniqueID>  (73) 
70

>  <SMILES>  (73) 
O=C([N-]Cc1ccccc1Cl)c1c([O-])ccc(O)c1Cl

>  <Energy>  (73) 
36.657892800699976

>  <Genealogy>  (73) 
O=C([N-]Cc1ccccc1Cl)c1c([O-])ccc(O)c1Cl (protonated)
O=C([N-]Cc1ccccc1Cl)c1c([O-])ccc(O)c1Cl (3D coordinates assigned)
O=C([N-]Cc1ccccc1Cl)c1c([O-])ccc(O)c1Cl (optimized conformer: 36.657892800699976 kcal/mol)

>  <smiles>  (73) 
O=C(NCc1ccccc1Cl)c1c(O)ccc(O)c1Cl

>  <score_type>  (73) 
oracle

>  <origin>  (73) 
adg

>  <m_score__min__energy>  (73) 
-12.6

>  <m_primary>  (73) 
energy

$$$$
73:0
     RDKit          3D

 25 26  0  0  0  0  0  0  0  0999 V2000
   55.2210   26.7240   45.9990 O   0  0  0  0  0  0  0  0  0  0  0  0
   55.8840   25.7350   46.4110 C   0  0  0  0  0  0  0  0  0  0  0  0
   55.3200   24.4680   46.3510 O   0  0  0  0  0  0  0  0  0  0  0  0
   57.2610   25.9020   46.9130 C   0  0  0  0  0  0  0  0  0  0  0  0
   57.6700   25.1150   47.8090 O   0  0  0  0  0  0  0  0  0  0  0  0
   58.1820   26.9370   46.3870 C   0  0  0  0  0  0  0  0  0  0  0  0
   59.5080   26.5960   46.0710 C   0  0  0  0  0  0  0  0  0  0  0  0
   60.3940   27.5630   45.5890 C   0  0  0  0  0  0  0  0  0  0  0  0
   59.9700   28.8830   45.4240 C   0  0  0  0  0  0  0  0  0  0  0  0
   58.6530   29.2490   45.7440 C   0  0  0  0  0  0  0  0  0  0  0  0
   58.2220   30.6180   45.5950 N   0  0  0  0  0  0  0  0  0  0  0  0
   59.0170   31.6220   46.0720 C   0  0  0  0  0  0  0  0  0  0  0  0
   58.6230   32.9530   45.9530 C   0  0  0  0  0  0  0  0  0  0  0  0
   57.4080   33.2340   45.3350 C   0  0  0  0  0  0  0  0  0  0  0  0
   57.0190   34.4260   45.2120 O   0  0  0  0  0  0  0  0  0  0  0  0
   56.6410   32.2200   44.8640 N   0  0  0  0  0  0  0  0  0  0  0  0
   57.0330   30.9250   44.9830 C   0  0  0  0  0  0  0  0  0  0  0  0
   56.2950   30.0160   44.5120 O   0  0  0  0  0  0  0  0  0  0  0  0
   57.7680   28.2740   46.2360 C   0  0  0  0  0  0  0  0  0  0  0  0
   59.8513   25.5595   46.2041 H   0  0  0  0  0  0  0  0  0  0  0  0
   61.4281   27.2836   45.3389 H   0  0  0  0  0  0  0  0  0  0  0  0
   60.6710   29.6395   45.0416 H   0  0  0  0  0  0  0  0  0  0  0  0
   59.9753   31.3774   46.5536 H   0  0  0  0  0  0  0  0  0  0  0  0
   59.2582   33.7639   46.3390 H   0  0  0  0  0  0  0  0  0  0  0  0
   56.7404   28.5589   46.5060 H   0  0  0  0  0  0  0  0  0  0  0  0
  1  2  2  0
  2  3  1  0
  2  4  1  0
  4  5  2  0
  4  6  1  0
  6  7  2  0
  7  8  1  0
  8  9  2  0
  9 10  1  0
 10 11  1  0
 11 12  1  0
 12 13  2  0
 13 14  1  0
 14 15  2  0
 14 16  1  0
 16 17  1  0
 17 18  2  0
 10 19  2  0
 19  6  1  0
 17 11  1  0
  7 20  1  0
  8 21  1  0
  9 22  1  0
 12 23  1  0
 13 24  1  0
 19 25  1  0
M  CHG  2   3  -1  16  -1
M  END
>  <UniqueID>  (74) 
71

>  <SMILES>  (74) 
O=C([O-])C(=O)c1cccc(-n2ccc(=O)[n-]c2=O)c1

>  <Energy>  (74) 
38.48675962107624

>  <Genealogy>  (74) 
O=C([O-])C(=O)c1cccc(-n2ccc(=O)[n-]c2=O)c1 (protonated)
O=C([O-])C(=O)c1cccc(-n2ccc(=O)[n-]c2=O)c1 (3D coordinates assigned)
O=C([O-])C(=O)c1cccc(-n2ccc(=O)[n-]c2=O)c1 (optimized conformer: 38.48675962107624 kcal/mol)

>  <smiles>  (74) 
O=C(O)C(=O)c1cccc(-n2ccc(=O)[nH]c2=O)c1

>  <score_type>  (74) 
oracle

>  <origin>  (74) 
adg

>  <m_score__min__energy>  (74) 
-11.140000000000001

>  <m_primary>  (74) 
energy

$$$$
74:0
     RDKit          3D

 45 47  0  0  0  0  0  0  0  0999 V2000
   50.6600   29.7950   48.9970 H   0  0  0  0  0  0  0  0  0  0  0  0
   51.5370   30.0570   49.4290 O   0  0  0  0  0  0  0  0  0  0  0  0
   51.5820   30.9120   50.5270 C   0  0  0  0  0  0  0  0  0  0  0  0
   50.7690   31.9730   50.6690 N   0  0  0  0  0  0  0  0  0  0  0  0
   51.1250   32.4630   51.8760 C   0  0  0  0  0  0  0  0  0  0  0  0
   50.5780   33.4750   52.3850 O   0  0  0  0  0  0  0  0  0  0  0  0
   52.1050   31.7750   52.5020 N   0  0  0  0  0  0  0  0  0  0  0  0
   52.4130   30.8030   51.6230 C   0  0  0  0  0  0  0  0  0  0  0  0
   53.3750   29.7310   51.9090 C   0  0  0  0  0  0  0  0  0  0  0  0
   53.0272   28.6962   51.7744 H   0  0  0  0  0  0  0  0  0  0  0  0
   54.6470   29.9030   52.3220 C   0  0  0  0  0  0  0  0  0  0  0  0
   55.4020   31.0070   51.9670 C   0  0  0  0  0  0  0  0  0  0  0  0
   55.0994   31.8161   51.2860 H   0  0  0  0  0  0  0  0  0  0  0  0
   56.6060   30.8990   52.6300 C   0  0  0  0  0  0  0  0  0  0  0  0
   57.6760   31.9140   52.5560 C   0  0  0  0  0  0  0  0  0  0  0  0
   57.9850   32.5360   53.6080 O   0  0  0  0  0  0  0  0  0  0  0  0
   58.3850   32.1840   51.3290 N   0  0  0  0  0  0  0  0  0  0  0  0
   59.0320   33.4950   51.1570 C   0  0  0  0  0  0  0  0  0  0  0  0
   58.2523   34.2630   51.0459 H   0  0  0  0  0  0  0  0  0  0  0  0
   59.6554   33.6829   52.0436 H   0  0  0  0  0  0  0  0  0  0  0  0
   59.9430   33.5340   49.9240 C   0  0  0  0  0  0  0  0  0  0  0  0
   60.1913   34.5802   49.6921 H   0  0  0  0  0  0  0  0  0  0  0  0
   60.8572   32.9628   50.1431 H   0  0  0  0  0  0  0  0  0  0  0  0
   59.2760   32.9280   48.7620 N   0  0  0  0  0  0  0  0  0  0  0  0
   59.4470   33.4620   47.4300 C   0  0  0  0  0  0  0  0  0  0  0  0
   58.7140   33.0460   46.4910 O   0  0  0  0  0  0  0  0  0  0  0  0
   60.4690   34.5150   47.1240 C   0  0  0  0  0  0  0  0  0  0  0  0
   60.8664   34.9245   48.0644 H   0  0  0  0  0  0  0  0  0  0  0  0
   61.2898   34.0711   46.5415 H   0  0  0  0  0  0  0  0  0  0  0  0
   60.0008   35.3221   46.5415 H   0  0  0  0  0  0  0  0  0  0  0  0
   58.5160   31.6780   48.9230 C   0  0  0  0  0  0  0  0  0  0  0  0
   57.4568   31.8747   48.7007 H   0  0  0  0  0  0  0  0  0  0  0  0
   58.9350   30.9329   48.2307 H   0  0  0  0  0  0  0  0  0  0  0  0
   58.6280   31.1200   50.3450 C   0  0  0  0  0  0  0  0  0  0  0  0
   57.8835   30.3219   50.4817 H   0  0  0  0  0  0  0  0  0  0  0  0
   59.6412   30.7184   50.4939 H   0  0  0  0  0  0  0  0  0  0  0  0
   56.6560   29.7470   53.3380 N   0  0  0  0  0  0  0  0  0  0  0  0
   57.8190   29.2090   54.0540 C   0  0  0  0  0  0  0  0  0  0  0  0
   57.6504   29.2870   55.1382 H   0  0  0  0  0  0  0  0  0  0  0  0
   57.9620   28.1533   53.7802 H   0  0  0  0  0  0  0  0  0  0  0  0
   58.7162   29.7836   53.7802 H   0  0  0  0  0  0  0  0  0  0  0  0
   55.4670   29.1150   53.1460 C   0  0  0  0  0  0  0  0  0  0  0  0
   55.2090   27.8810   53.6090 C   0  0  0  0  0  0  0  0  0  0  0  0
   55.9416   27.3701   54.2511 H   0  0  0  0  0  0  0  0  0  0  0  0
   54.2650   27.3812   53.3462 H   0  0  0  0  0  0  0  0  0  0  0  0
  1  2  1  0
  2  3  1  0
  3  4  1  0
  4  5  1  0
  5  6  2  0
  5  7  1  0
  7  8  1  0
  8  9  1  0
  9 10  1  0
  9 11  2  0
 11 12  1  0
 12 13  1  0
 12 14  2  0
 14 15  1  0
 15 16  2  0
 15 17  1  0
 17 18  1  0
 18 19  1  0
 18 20  1  0
 18 21  1  0
 21 22  1  0
 21 23  1  0
 21 24  1  0
 24 25  1  0
 25 26  2  0
 25 27  1  0
 27 28  1  0
 27 29  1  0
 27 30  1  0
 24 31  1  0
 31 32  1  0
 31 33  1  0
 31 34  1  0
 34 35  1  0
 34 36  1  0
 14 37  1  0
 37 38  1  0
 38 39  1  0
 38 40  1  0
 38 41  1  0
 37 42  1  0
 42 43  2  0
 43 44  1  0
 43 45  1  0
  8  3  2  0
 42 11  1  0
 34 17  1  0
M  CHG  2   4  -1   7  -1
M  END
>  <UniqueID>  (75) 
72

>  <SMILES>  (75) 
C=c1/c(=C\c2[n-]c(=O)[n-]c2O)cc(C(=O)N2CCN(C(C)=O)CC2)n1C

>  <Energy>  (75) 
120.37647079058907

>  <Genealogy>  (75) 
C=c1c(=Cc2[n-]c(=O)[n-]c2O)cc(C(=O)N2CCN(C(C)=O)CC2)n1C (protonated)
C=c1/c(=C\c2[n-]c(=O)[n-]c2O)cc(C(=O)N2CCN(C(C)=O)CC2)n1C (cis-trans isomerization)
C=c1/c(=C\c2[n-]c(=O)[n-]c2O)cc(C(=O)N2CCN(C(C)=O)CC2)n1C (3D coordinates assigned)
C=c1/c(=C\c2[n-]c(=O)[n-]c2O)cc(C(=O)N2CCN(C(C)=O)CC2)n1C (nonaromatic ring conformer: 120.37647079058907 kcal/mol)

>  <smiles>  (75) 
C=c1c(=Cc2[nH]c(=O)[nH]c2O)cc(C(=O)N2CCN(C(C)=O)CC2)n1C

>  <score_type>  (75) 
oracle

>  <origin>  (75) 
adg

>  <m_score__min__energy>  (75) 
-12.73

>  <m_primary>  (75) 
energy

$$$$
75:0
     RDKit          3D

 27 28  0  0  0  0  0  0  0  0999 V2000
   55.1480   29.3450   44.8210 N   0  0  0  0  0  0  0  0  0  0  0  0
   56.5800   29.8650   44.0050 S   0  0  0  0  0  0  0  0  0  0  0  0
   56.2030   30.8510   42.9350 O   0  0  0  0  0  0  0  0  0  0  0  0
   57.2550   28.6850   43.3640 O   0  0  0  0  0  0  0  0  0  0  0  0
   57.6800   30.6090   45.1700 C   0  0  0  0  0  0  0  0  0  0  0  0
   58.2330   31.8710   44.9010 C   0  0  0  0  0  0  0  0  0  0  0  0
   59.1070   32.4680   45.8110 C   0  0  0  0  0  0  0  0  0  0  0  0
   59.4320   31.8140   47.0010 C   0  0  0  0  0  0  0  0  0  0  0  0
   58.8880   30.5600   47.2800 C   0  0  0  0  0  0  0  0  0  0  0  0
   58.0220   29.9380   46.3610 C   0  0  0  0  0  0  0  0  0  0  0  0
   57.4410   28.6570   46.6490 N   0  0  0  0  0  0  0  0  0  0  0  0
   57.8880   27.3940   46.1400 C   0  0  0  0  0  0  0  0  0  0  0  0
   58.8680   27.3720   45.3500 O   0  0  0  0  0  0  0  0  0  0  0  0
   57.2730   26.1210   46.5680 C   0  0  0  0  0  0  0  0  0  0  0  0
   57.9170   25.0320   47.1220 C   0  0  0  0  0  0  0  0  0  0  0  0
   56.9360   24.0800   47.3090 C   0  0  0  0  0  0  0  0  0  0  0  0
   57.1560   22.8210   47.8510 O   0  0  0  0  0  0  0  0  0  0  0  0
   55.7260   24.5050   46.9000 N   0  0  0  0  0  0  0  0  0  0  0  0
   55.9460   25.7540   46.4430 C   0  0  0  0  0  0  0  0  0  0  0  0
   54.9420   26.5610   45.9160 O   0  0  0  0  0  0  0  0  0  0  0  0
   55.4490   28.6960   45.5830 H   0  0  0  0  0  0  0  0  0  0  0  0
   57.9760   32.3926   43.9673 H   0  0  0  0  0  0  0  0  0  0  0  0
   59.5402   33.4548   45.5904 H   0  0  0  0  0  0  0  0  0  0  0  0
   60.1175   32.2878   47.7191 H   0  0  0  0  0  0  0  0  0  0  0  0
   59.1374   30.0540   48.2243 H   0  0  0  0  0  0  0  0  0  0  0  0
   58.9865   24.9425   47.3633 H   0  0  0  0  0  0  0  0  0  0  0  0
   55.1470   27.4990   45.5970 H   0  0  0  0  0  0  0  0  0  0  0  0
  1  2  1  0
  2  3  2  0
  2  4  2  0
  2  5  1  0
  5  6  2  0
  6  7  1  0
  7  8  2  0
  8  9  1  0
  9 10  2  0
 10 11  1  0
 11 12  1  0
 12 13  2  0
 12 14  1  0
 14 15  1  0
 15 16  2  0
 16 17  1  0
 16 18  1  0
 18 19  1  0
 19 20  1  0
 10  5  1  0
 19 14  2  0
  1 21  1  0
  6 22  1  0
  7 23  1  0
  8 24  1  0
  9 25  1  0
 15 26  1  0
 20 27  1  0
M  CHG  4   1  -1  11  -1  17  -1  18  -1
M  END
>  <UniqueID>  (76) 
73

>  <SMILES>  (76) 
[NH-]S(=O)(=O)c1ccccc1[N-]C(=O)c1cc([O-])[n-]c1O

>  <Energy>  (76) 
59.37916169585248

>  <Genealogy>  (76) 
[NH-]S(=O)(=O)c1ccccc1[N-]C(=O)c1cc([O-])[n-]c1O (protonated)
[NH-]S(=O)(=O)c1ccccc1[N-]C(=O)c1cc([O-])[n-]c1O (3D coordinates assigned)
[NH-]S(=O)(=O)c1ccccc1[N-]C(=O)c1cc([O-])[n-]c1O (optimized conformer: 59.37916169585248 kcal/mol)

>  <smiles>  (76) 
NS(=O)(=O)c1ccccc1NC(=O)c1cc(O)[nH]c1O

>  <score_type>  (76) 
oracle

>  <origin>  (76) 
adg

>  <m_score__min__energy>  (76) 
-15.380000000000001

>  <m_primary>  (76) 
energy

$$$$
76:0
     RDKit          3D

 56 59  0  0  1  0  0  0  0  0999 V2000
   56.9590   30.3210   42.8880 N   0  0  0  0  0  0  0  0  0  0  0  0
   56.6150   30.6730   44.2260 C   0  0  0  0  0  0  0  0  0  0  0  0
   55.6640   30.0780   44.7740 O   0  0  0  0  0  0  0  0  0  0  0  0
   57.3990   31.7130   44.8810 C   0  0  0  0  0  0  0  0  0  0  0  0
   57.3900   33.0090   44.4630 C   0  0  0  0  0  0  0  0  0  0  0  0
   58.1370   33.9260   45.1120 N   0  0  0  0  0  0  0  0  0  0  0  0
   58.8890   33.5550   46.1730 C   0  0  0  0  0  0  0  0  0  0  0  0
   59.5770   34.4930   46.7400 N   0  0  0  0  0  0  0  0  0  0  0  0
   60.8820   34.1810   47.2190 C   0  0  0  0  0  0  0  0  0  0  0  0
   61.9170   33.8320   46.3510 C   0  0  0  0  0  0  0  0  0  0  0  0
   63.1750   33.5350   46.8580 C   0  0  0  0  0  0  0  0  0  0  0  0
   63.3850   33.5910   48.2260 C   0  0  0  0  0  0  0  0  0  0  0  0
   64.6190   33.3060   48.7960 O   0  0  0  0  0  0  0  0  0  0  0  0
   62.3570   33.9390   49.0960 C   0  0  0  0  0  0  0  0  0  0  0  0
   61.1150   34.2310   48.5890 C   0  0  0  0  0  0  0  0  0  0  0  0
   58.9310   32.2860   46.6230 N   0  0  0  0  0  0  0  0  0  0  0  0
   58.1820   31.3710   45.9720 C   0  0  0  0  0  0  0  0  0  0  0  0
   58.2130   30.1700   46.3870 N   0  0  0  0  0  0  0  0  0  0  0  0
   59.2270   29.2000   46.0630 C   0  0  0  0  0  0  0  0  0  0  0  0
   58.5800   27.9060   45.7310 C   0  0  0  0  0  0  0  0  0  0  0  0
   58.4090   27.4510   44.4470 C   0  0  0  0  0  0  0  0  0  0  0  0
   57.7930   26.2230   44.1940 C   0  0  0  0  0  0  0  0  0  0  0  0
   57.3250   25.4100   45.2010 C   0  0  0  0  0  0  0  0  0  0  0  0
   56.7030   24.1550   44.9830 N   0  0  0  0  0  0  0  0  0  0  0  0
   57.3590   22.8860   45.3300 C   0  0  0  0  0  0  0  0  0  0  0  0
   57.7670   22.2410   44.0190 C   0  0  0  0  0  0  0  0  0  0  0  0
   56.5080   22.1530   43.2100 C   0  0  0  0  0  0  0  0  0  0  0  0
   56.2690   21.0790   42.6430 O   0  0  0  0  0  0  0  0  0  0  0  0
   55.5550   23.2660   43.0590 C   0  0  0  0  0  0  0  0  0  0  0  0
   55.3790   24.0070   44.3920 C   0  0  0  0  0  0  0  0  0  0  0  0
   57.5010   25.8770   46.4960 C   0  0  0  0  0  0  0  0  0  0  0  0
   58.1180   27.1040   46.7520 C   0  0  0  0  0  0  0  0  0  0  0  0
   56.2640   30.4690   42.1100 H   0  0  0  0  0  0  0  0  0  0  0  0
   57.8730   29.9170   42.6110 H   0  0  0  0  0  0  0  0  0  0  0  0
   56.7764   33.3069   43.6000 H   0  0  0  0  0  0  0  0  0  0  0  0
   58.1130   34.9200   44.7710 H   0  0  0  0  0  0  0  0  0  0  0  0
   61.7367   33.7922   45.2666 H   0  0  0  0  0  0  0  0  0  0  0  0
   63.9962   33.2582   46.1805 H   0  0  0  0  0  0  0  0  0  0  0  0
   65.3410   32.9850   48.1680 H   0  0  0  0  0  0  0  0  0  0  0  0
   62.5375   33.9799   50.1803 H   0  0  0  0  0  0  0  0  0  0  0  0
   60.2978   34.5067   49.2718 H   0  0  0  0  0  0  0  0  0  0  0  0
   59.5260   32.0200   47.4530 H   0  0  0  0  0  0  0  0  0  0  0  0
   59.8094   29.5520   45.1988 H   0  0  0  0  0  0  0  0  0  0  0  0
   59.8976   29.0662   46.9246 H   0  0  0  0  0  0  0  0  0  0  0  0
   58.7626   28.0631   43.6042 H   0  0  0  0  0  0  0  0  0  0  0  0
   57.6777   25.8935   43.1509 H   0  0  0  0  0  0  0  0  0  0  0  0
   58.2456   23.0743   45.9533 H   0  0  0  0  0  0  0  0  0  0  0  0
   56.6845   22.2324   45.9025 H   0  0  0  0  0  0  0  0  0  0  0  0
   58.5145   22.8603   43.5016 H   0  0  0  0  0  0  0  0  0  0  0  0
   58.2236   21.2523   44.1741 H   0  0  0  0  0  0  0  0  0  0  0  0
   55.9349   23.9678   42.3020 H   0  0  0  0  0  0  0  0  0  0  0  0
   54.5815   22.8610   42.7456 H   0  0  0  0  0  0  0  0  0  0  0  0
   54.9322   24.9967   44.2165 H   0  0  0  0  0  0  0  0  0  0  0  0
   54.7126   23.4467   45.0643 H   0  0  0  0  0  0  0  0  0  0  0  0
   57.1466   25.2671   47.3401 H   0  0  0  0  0  0  0  0  0  0  0  0
   58.2379   27.4379   47.7932 H   0  0  0  0  0  0  0  0  0  0  0  0
  1  2  1  0
  2  3  2  0
  2  4  1  0
  4  5  2  0
  5  6  1  0
  6  7  1  0
  7  8  2  0
  8  9  1  0
  9 10  2  0
 10 11  1  0
 11 12  2  0
 12 13  1  0
 12 14  1  0
 14 15  2  0
  7 16  1  0
 16 17  1  0
 17 18  2  0
 18 19  1  0
 19 20  1  0
 20 21  2  0
 21 22  1  0
 22 23  2  0
 23 24  1  0
 24 25  1  0
 25 26  1  0
 26 27  1  0
 27 28  2  0
 27 29  1  0
 29 30  1  0
 23 31  1  0
 31 32  2  0
 17  4  1  0
 32 20  1  0
 15  9  1  0
 30 24  1  0
  1 33  1  0
  1 34  1  0
  5 35  1  0
  6 36  1  0
 10 37  1  0
 11 38  1  0
 13 39  1  0
 14 40  1  0
 15 41  1  0
 16 42  1  0
 19 43  1  0
 19 44  1  0
 21 45  1  0
 22 46  1  0
 25 47  1  0
 25 48  1  0
 26 49  1  0
 26 50  1  0
 29 51  1  0
 29 52  1  0
 30 53  1  0
 30 54  1  0
 31 55  1  0
 32 56  1  0
M  END
>  <smiles>  (77) 
NC(=O)c1c[nH]c(=Nc2ccc(O)cc2)[nH]c1=NCc1ccc(N2CCC(=O)CC2)cc1

>  <score_type>  (77) 
oracle

>  <origin>  (77) 
adg

>  <m_score__min__energy>  (77) 
-9.9499999999999993

>  <m_primary>  (77) 
energy

$$$$
77:0
     RDKit          3D

 33 34  0  0  0  0  0  0  0  0999 V2000
   58.0960   32.6240   47.2030 C   0  0  0  0  0  0  0  0  0  0  0  0
   59.6030   32.5450   47.2100 C   0  0  0  0  0  0  0  0  0  0  0  0
   60.3680   33.6730   46.8330 C   0  0  0  0  0  0  0  0  0  0  0  0
   59.6100   35.1900   46.3580 Cl  0  0  0  0  0  0  0  0  0  0  0  0
   61.7640   33.6020   46.8210 C   0  0  0  0  0  0  0  0  0  0  0  0
   62.4130   32.4220   47.1780 C   0  0  0  0  0  0  0  0  0  0  0  0
   61.6700   31.2960   47.5320 C   0  0  0  0  0  0  0  0  0  0  0  0
   60.2660   31.3350   47.5230 C   0  0  0  0  0  0  0  0  0  0  0  0
   59.5060   30.1750   47.8990 N   0  0  0  0  0  0  0  0  0  0  0  0
   59.8850   28.8070   47.6980 C   0  0  0  0  0  0  0  0  0  0  0  0
   60.3990   28.1740   48.6590 O   0  0  0  0  0  0  0  0  0  0  0  0
   59.6460   28.1020   46.3900 C   0  0  0  0  0  0  0  0  0  0  0  0
   58.3380   28.5310   45.7900 C   0  0  0  0  0  0  0  0  0  0  0  0
   57.9850   29.8130   45.6070 N   0  0  0  0  0  0  0  0  0  0  0  0
   56.7360   29.7560   45.1120 C   0  0  0  0  0  0  0  0  0  0  0  0
   56.0650   30.7790   44.8150 O   0  0  0  0  0  0  0  0  0  0  0  0
   56.2590   28.5010   44.9710 N   0  0  0  0  0  0  0  0  0  0  0  0
   57.2790   27.7270   45.3970 C   0  0  0  0  0  0  0  0  0  0  0  0
   57.2030   26.2310   45.4620 C   0  0  0  0  0  0  0  0  0  0  0  0
   56.0110   25.8020   46.2550 C   0  0  0  0  0  0  0  0  0  0  0  0
   56.1360   24.9670   47.1890 O   0  0  0  0  0  0  0  0  0  0  0  0
   54.7610   26.3410   45.9760 O   0  0  0  0  0  0  0  0  0  0  0  0
   57.7250   32.6434   48.2384 H   0  0  0  0  0  0  0  0  0  0  0  0
   57.7793   33.5400   46.6828 H   0  0  0  0  0  0  0  0  0  0  0  0
   57.6852   31.7462   46.6828 H   0  0  0  0  0  0  0  0  0  0  0  0
   62.3537   34.4831   46.5279 H   0  0  0  0  0  0  0  0  0  0  0  0
   63.5121   32.3784   47.1807 H   0  0  0  0  0  0  0  0  0  0  0  0
   62.1880   30.3695   47.8207 H   0  0  0  0  0  0  0  0  0  0  0  0
   60.4611   28.3468   45.6931 H   0  0  0  0  0  0  0  0  0  0  0  0
   59.6141   27.0176   46.5721 H   0  0  0  0  0  0  0  0  0  0  0  0
   58.5500   30.6670   45.8150 H   0  0  0  0  0  0  0  0  0  0  0  0
   57.1233   25.8278   44.4417 H   0  0  0  0  0  0  0  0  0  0  0  0
   58.1117   25.8492   45.9504 H   0  0  0  0  0  0  0  0  0  0  0  0
  1  2  1  0
  2  3  2  0
  3  4  1  0
  3  5  1  0
  5  6  2  0
  6  7  1  0
  7  8  2  0
  8  9  1  0
  9 10  1  0
 10 11  2  0
 10 12  1  0
 12 13  1  0
 13 14  1  0
 14 15  1  0
 15 16  2  0
 15 17  1  0
 17 18  1  0
 18 19  1  0
 19 20  1  0
 20 21  2  0
 20 22  1  0
  8  2  1  0
 18 13  2  0
  1 23  1  0
  1 24  1  0
  1 25  1  0
  5 26  1  0
  6 27  1  0
  7 28  1  0
 12 29  1  0
 12 30  1  0
 14 31  1  0
 19 32  1  0
 19 33  1  0
M  CHG  3   9  -1  17  -1  22  -1
M  END
>  <UniqueID>  (78) 
74

>  <SMILES>  (78) 
Cc1c(Cl)cccc1[N-]C(=O)Cc1[nH]c(=O)[n-]c1CC(=O)[O-]

>  <Energy>  (78) 
66.114807822635

>  <Genealogy>  (78) 
Cc1c(Cl)cccc1[N-]C(=O)Cc1[nH]c(=O)[n-]c1CC(=O)[O-] (protonated)
Cc1c(Cl)cccc1[N-]C(=O)Cc1[nH]c(=O)[n-]c1CC(=O)[O-] (3D coordinates assigned)
Cc1c(Cl)cccc1[N-]C(=O)Cc1[nH]c(=O)[n-]c1CC(=O)[O-] (optimized conformer: 66.114807822635 kcal/mol)

>  <smiles>  (78) 
Cc1c(Cl)cccc1NC(=O)Cc1[nH]c(=O)[nH]c1CC(=O)O

>  <score_type>  (78) 
oracle

>  <origin>  (78) 
adg

>  <m_score__min__energy>  (78) 
-13.369999999999999

>  <m_primary>  (78) 
energy

$$$$
78:0
     RDKit          3D

 62 65  0  0  0  0  0  0  0  0999 V2000
   63.0700   33.9800   46.3530 C   0  0  0  0  0  0  0  0  0  0  0  0
   61.8090   33.5880   47.1150 C   0  0  0  0  0  0  0  0  0  0  0  0
   62.1350   33.2460   48.5100 N   0  0  0  0  0  0  0  0  0  0  0  0
   61.5740   34.0600   49.6020 C   0  0  0  0  0  0  0  0  0  0  0  0
   60.2940   33.4520   50.1180 C   0  0  0  0  0  0  0  0  0  0  0  0
   60.0080   33.4700   51.4950 C   0  0  0  0  0  0  0  0  0  0  0  0
   58.8190   32.9110   51.9750 C   0  0  0  0  0  0  0  0  0  0  0  0
   57.9050   32.3390   51.0860 C   0  0  0  0  0  0  0  0  0  0  0  0
   58.1760   32.3270   49.7150 C   0  0  0  0  0  0  0  0  0  0  0  0
   59.3630   32.8860   49.2300 C   0  0  0  0  0  0  0  0  0  0  0  0
   63.0520   32.1600   48.7770 C   0  0  0  0  0  0  0  0  0  0  0  0
   64.0370   31.9800   48.0090 O   0  0  0  0  0  0  0  0  0  0  0  0
   62.8740   31.2600   49.9770 C   0  0  0  0  0  0  0  0  0  0  0  0
   61.6360   30.4160   49.8740 C   0  0  0  0  0  0  0  0  0  0  0  0
   60.9000   29.8840   50.9270 C   0  0  0  0  0  0  0  0  0  0  0  0
   59.8280   29.2670   50.4630 O   0  0  0  0  0  0  0  0  0  0  0  0
   59.8320   29.3850   49.1560 C   0  0  0  0  0  0  0  0  0  0  0  0
   58.8820   28.9060   48.2580 C   0  0  0  0  0  0  0  0  0  0  0  0
   59.0740   29.1750   46.8870 C   0  0  0  0  0  0  0  0  0  0  0  0
   57.8600   28.6770   45.7130 S   0  0  0  0  0  0  0  0  0  0  0  0
   58.5260   28.1590   44.4700 O   0  0  0  0  0  0  0  0  0  0  0  0
   57.0160   27.5810   46.2980 O   0  0  0  0  0  0  0  0  0  0  0  0
   56.8470   30.0220   45.3120 N   0  0  0  0  0  0  0  0  0  0  0  0
   57.4160   31.2780   44.9430 C   0  0  0  0  0  0  0  0  0  0  0  0
   57.7060   32.2190   45.9370 C   0  0  0  0  0  0  0  0  0  0  0  0
   58.2230   33.4770   45.5940 C   0  0  0  0  0  0  0  0  0  0  0  0
   58.5620   34.4740   46.6630 C   0  0  0  0  0  0  0  0  0  0  0  0
   58.4800   33.7720   44.2490 C   0  0  0  0  0  0  0  0  0  0  0  0
   58.1980   32.8320   43.2530 C   0  0  0  0  0  0  0  0  0  0  0  0
   57.6660   31.5740   43.5930 C   0  0  0  0  0  0  0  0  0  0  0  0
   57.3750   30.6010   42.6240 O   0  0  0  0  0  0  0  0  0  0  0  0
   56.2370   29.7450   42.6580 C   0  0  0  0  0  0  0  0  0  0  0  0
   60.2050   29.9150   46.4600 C   0  0  0  0  0  0  0  0  0  0  0  0
   61.1460   30.3840   47.3930 C   0  0  0  0  0  0  0  0  0  0  0  0
   60.9260   30.0930   48.7380 C   0  0  0  0  0  0  0  0  0  0  0  0
   63.8682   34.2281   47.0680 H   0  0  0  0  0  0  0  0  0  0  0  0
   63.3924   33.1397   45.7206 H   0  0  0  0  0  0  0  0  0  0  0  0
   62.8592   34.8550   45.7206 H   0  0  0  0  0  0  0  0  0  0  0  0
   61.1028   34.4313   47.1045 H   0  0  0  0  0  0  0  0  0  0  0  0
   61.3582   32.7100   46.6293 H   0  0  0  0  0  0  0  0  0  0  0  0
   62.3041   34.1149   50.4230 H   0  0  0  0  0  0  0  0  0  0  0  0
   61.3564   35.0669   49.2161 H   0  0  0  0  0  0  0  0  0  0  0  0
   60.7220   33.9254   52.1970 H   0  0  0  0  0  0  0  0  0  0  0  0
   58.6032   32.9217   53.0536 H   0  0  0  0  0  0  0  0  0  0  0  0
   56.9716   31.8979   51.4656 H   0  0  0  0  0  0  0  0  0  0  0  0
   57.4550   31.8774   49.0164 H   0  0  0  0  0  0  0  0  0  0  0  0
   59.5686   32.8826   48.1494 H   0  0  0  0  0  0  0  0  0  0  0  0
   63.7487   30.5978   50.0561 H   0  0  0  0  0  0  0  0  0  0  0  0
   62.7742   31.8990   50.8668 H   0  0  0  0  0  0  0  0  0  0  0  0
   61.1706   29.9650   51.9901 H   0  0  0  0  0  0  0  0  0  0  0  0
   58.0087   28.3354   48.6070 H   0  0  0  0  0  0  0  0  0  0  0  0
   57.5275   31.9708   46.9937 H   0  0  0  0  0  0  0  0  0  0  0  0
   58.4070   34.0181   47.6520 H   0  0  0  0  0  0  0  0  0  0  0  0
   59.6141   34.7782   46.5603 H   0  0  0  0  0  0  0  0  0  0  0  0
   57.9134   35.3565   46.5603 H   0  0  0  0  0  0  0  0  0  0  0  0
   58.9060   34.7484   43.9748 H   0  0  0  0  0  0  0  0  0  0  0  0
   58.3929   33.0769   42.1985 H   0  0  0  0  0  0  0  0  0  0  0  0
   55.9638   29.5395   43.7035 H   0  0  0  0  0  0  0  0  0  0  0  0
   55.3943   30.2350   42.1484 H   0  0  0  0  0  0  0  0  0  0  0  0
   56.4741   28.7995   42.1484 H   0  0  0  0  0  0  0  0  0  0  0  0
   60.3476   30.1240   45.3895 H   0  0  0  0  0  0  0  0  0  0  0  0
   62.0260   30.9610   47.0724 H   0  0  0  0  0  0  0  0  0  0  0  0
  1  2  1  0
  2  3  1  0
  3  4  1  0
  4  5  1  0
  5  6  2  0
  6  7  1  0
  7  8  2  0
  8  9  1  0
  9 10  2  0
  3 11  1  0
 11 12  2  0
 11 13  1  0
 13 14  1  0
 14 15  2  0
 15 16  1  0
 16 17  1  0
 17 18  2  0
 18 19  1  0
 19 20  1  0
 20 21  2  0
 20 22  2  0
 20 23  1  0
 23 24  1  0
 24 25  2  0
 25 26  1  0
 26 27  1  0
 26 28  2  0
 28 29  1  0
 29 30  2  0
 30 31  1  0
 31 32  1  0
 19 33  2  0
 33 34  1  0
 34 35  2  0
 10  5  1  0
 35 14  1  0
 35 17  1  0
 30 24  1  0
  1 36  1  0
  1 37  1  0
  1 38  1  0
  2 39  1  0
  2 40  1  0
  4 41  1  0
  4 42  1  0
  6 43  1  0
  7 44  1  0
  8 45  1  0
  9 46  1  0
 10 47  1  0
 13 48  1  0
 13 49  1  0
 15 50  1  0
 18 51  1  0
 25 52  1  0
 27 53  1  0
 27 54  1  0
 27 55  1  0
 28 56  1  0
 29 57  1  0
 32 58  1  0
 32 59  1  0
 32 60  1  0
 33 61  1  0
 34 62  1  0
M  CHG  1  23  -1
M  END
>  <UniqueID>  (79) 
75

>  <SMILES>  (79) 
CCN(Cc1ccccc1)C(=O)Cc1coc2cc(S(=O)(=O)[N-]c3cc(C)ccc3OC)ccc12

>  <Energy>  (79) 
100.52936066125847

>  <Genealogy>  (79) 
CCN(Cc1ccccc1)C(=O)Cc1coc2cc(S(=O)(=O)[N-]c3cc(C)ccc3OC)ccc12 (protonated)
CCN(Cc1ccccc1)C(=O)Cc1coc2cc(S(=O)(=O)[N-]c3cc(C)ccc3OC)ccc12 (3D coordinates assigned)
CCN(Cc1ccccc1)C(=O)Cc1coc2cc(S(=O)(=O)[N-]c3cc(C)ccc3OC)ccc12 (optimized conformer: 100.52936066125847 kcal/mol)

>  <smiles>  (79) 
CCN(Cc1ccccc1)C(=O)Cc1coc2cc(S(=O)(=O)Nc3cc(C)ccc3OC)ccc12

>  <score_type>  (79) 
oracle

>  <origin>  (79) 
adg

>  <m_score__min__energy>  (79) 
-12.17

>  <m_primary>  (79) 
energy

$$$$
79:0
     RDKit          3D

 40 42  0  0  0  0  0  0  0  0999 V2000
   56.2790   32.8780   45.3480 O   0  0  0  0  0  0  0  0  0  0  0  0
   57.0170   31.9950   44.8350 C   0  0  0  0  0  0  0  0  0  0  0  0
   58.4900   32.2670   44.6820 C   0  0  0  0  0  0  0  0  0  0  0  0
   59.0120   32.9450   45.8810 N   0  0  0  0  0  0  0  0  0  0  0  0
   59.5170   32.1960   46.9080 C   0  0  0  0  0  0  0  0  0  0  0  0
   60.0360   32.8130   48.0430 C   0  0  0  0  0  0  0  0  0  0  0  0
   60.5330   32.0680   49.0630 F   0  0  0  0  0  0  0  0  0  0  0  0
   60.0370   34.2050   48.1060 C   0  0  0  0  0  0  0  0  0  0  0  0
   60.4990   34.7900   49.1200 O   0  0  0  0  0  0  0  0  0  0  0  0
   59.5410   34.9280   47.0680 N   0  0  0  0  0  0  0  0  0  0  0  0
   59.0360   34.3140   45.9610 C   0  0  0  0  0  0  0  0  0  0  0  0
   58.5950   35.0200   45.0120 O   0  0  0  0  0  0  0  0  0  0  0  0
   56.4410   30.7270   44.4900 N   0  0  0  0  0  0  0  0  0  0  0  0
   56.8050   29.5610   44.9360 C   0  0  0  0  0  0  0  0  0  0  0  0
   58.1000   29.0990   45.1190 C   0  0  0  0  0  0  0  0  0  0  0  0
   57.9320   27.8030   45.5610 C   0  0  0  0  0  0  0  0  0  0  0  0
   56.6110   27.5360   45.6230 N   0  0  0  0  0  0  0  0  0  0  0  0
   56.0220   26.2940   46.0360 C   0  0  0  0  0  0  0  0  0  0  0  0
   54.7690   26.1490   45.9970 O   0  0  0  0  0  0  0  0  0  0  0  0
   56.8780   25.1410   46.4690 C   0  0  0  0  0  0  0  0  0  0  0  0
   56.9200   24.0910   45.3940 C   0  0  0  0  0  0  0  0  0  0  0  0
   57.2460   22.7620   45.7170 C   0  0  0  0  0  0  0  0  0  0  0  0
   57.2580   21.7770   44.7240 C   0  0  0  0  0  0  0  0  0  0  0  0
   56.9380   22.1080   43.4050 C   0  0  0  0  0  0  0  0  0  0  0  0
   56.6060   23.4260   43.0760 C   0  0  0  0  0  0  0  0  0  0  0  0
   56.5950   24.4140   44.0650 C   0  0  0  0  0  0  0  0  0  0  0  0
   55.9180   28.5950   45.2370 N   0  0  0  0  0  0  0  0  0  0  0  0
   59.0224   31.3145   44.5431 H   0  0  0  0  0  0  0  0  0  0  0  0
   58.6450   32.9164   43.8078 H   0  0  0  0  0  0  0  0  0  0  0  0
   59.5130   31.0983   46.8367 H   0  0  0  0  0  0  0  0  0  0  0  0
   59.5490   35.9730   47.1180 H   0  0  0  0  0  0  0  0  0  0  0  0
   59.0426   29.6405   44.9507 H   0  0  0  0  0  0  0  0  0  0  0  0
   58.7406   27.1036   45.8198 H   0  0  0  0  0  0  0  0  0  0  0  0
   57.8989   25.5004   46.6655 H   0  0  0  0  0  0  0  0  0  0  0  0
   56.4514   24.7014   47.3826 H   0  0  0  0  0  0  0  0  0  0  0  0
   57.4927   22.4957   46.7554 H   0  0  0  0  0  0  0  0  0  0  0  0
   57.5198   20.7402   44.9820 H   0  0  0  0  0  0  0  0  0  0  0  0
   56.9472   21.3320   42.6254 H   0  0  0  0  0  0  0  0  0  0  0  0
   56.3531   23.6857   42.0374 H   0  0  0  0  0  0  0  0  0  0  0  0
   56.3308   25.4489   43.8020 H   0  0  0  0  0  0  0  0  0  0  0  0
  1  2  2  0
  2  3  1  0
  3  4  1  0
  4  5  1  0
  5  6  2  0
  6  7  1  0
  6  8  1  0
  8  9  2  0
  8 10  1  0
 10 11  1  0
 11 12  2  0
  2 13  1  0
 13 14  2  3
 14 15  1  0
 15 16  2  0
 16 17  1  0
 17 18  1  0
 18 19  2  0
 18 20  1  0
 20 21  1  0
 21 22  2  0
 22 23  1  0
 23 24  2  0
 24 25  1  0
 25 26  2  0
 17 27  1  0
 11  4  1  0
 27 14  1  0
 26 21  1  0
  3 28  1  0
  3 29  1  0
  5 30  1  0
 10 31  1  0
 15 32  1  0
 16 33  1  0
 20 34  1  0
 20 35  1  0
 22 36  1  0
 23 37  1  0
 24 38  1  0
 25 39  1  0
 26 40  1  0
M  CHG  1  27  -1
M  END
>  <UniqueID>  (80) 
76

>  <SMILES>  (80) 
O=C(Cn1cc(F)c(=O)[nH]c1=O)N=c1ccn(C(=O)Cc2ccccc2)[n-]1

>  <Energy>  (80) 
79.6542538448343

>  <Genealogy>  (80) 
O=C(Cn1cc(F)c(=O)[nH]c1=O)N=c1ccn(C(=O)Cc2ccccc2)[n-]1 (protonated)
O=C(Cn1cc(F)c(=O)[nH]c1=O)N=c1ccn(C(=O)Cc2ccccc2)[n-]1 (3D coordinates assigned)
O=C(Cn1cc(F)c(=O)[nH]c1=O)N=c1ccn(C(=O)Cc2ccccc2)[n-]1 (optimized conformer: 79.6542538448343 kcal/mol)

>  <smiles>  (80) 
O=C(Cn1cc(F)c(=O)[nH]c1=O)N=c1ccn(C(=O)Cc2ccccc2)[nH]1

>  <score_type>  (80) 
oracle

>  <origin>  (80) 
adg

>  <m_score__min__energy>  (80) 
-10.949999999999999

>  <m_primary>  (80) 
energy

$$$$
80:0
     RDKit          3D

 58 60  0  0  0  0  0  0  0  0999 V2000
   51.1000   23.3470   44.8900 C   0  0  0  0  0  0  0  0  0  0  0  0
   52.3120   22.6080   45.0360 O   0  0  0  0  0  0  0  0  0  0  0  0
   53.4670   23.0950   45.6650 C   0  0  0  0  0  0  0  0  0  0  0  0
   53.9240   22.5880   46.8970 C   0  0  0  0  0  0  0  0  0  0  0  0
   55.0930   23.0940   47.4760 C   0  0  0  0  0  0  0  0  0  0  0  0
   55.8230   24.1070   46.8340 C   0  0  0  0  0  0  0  0  0  0  0  0
   57.0780   24.6590   47.4590 C   0  0  0  0  0  0  0  0  0  0  0  0
   58.0880   24.9000   46.4340 N   0  0  0  0  0  0  0  0  0  0  0  0
   58.4190   26.1990   45.9240 C   0  0  0  0  0  0  0  0  0  0  0  0
   59.6230   26.5600   45.8240 O   0  0  0  0  0  0  0  0  0  0  0  0
   57.3280   27.1350   45.5080 C   0  0  0  0  0  0  0  0  0  0  0  0
   57.8740   28.4750   45.3040 N   0  0  0  0  0  0  0  0  0  0  0  0
   57.0290   29.6150   45.0600 C   0  0  0  0  0  0  0  0  0  0  0  0
   55.7940   29.4430   44.8690 O   0  0  0  0  0  0  0  0  0  0  0  0
   57.5830   30.9930   45.0260 C   0  0  0  0  0  0  0  0  0  0  0  0
   57.6090   31.7330   43.8330 C   0  0  0  0  0  0  0  0  0  0  0  0
   58.1450   33.0200   43.8140 C   0  0  0  0  0  0  0  0  0  0  0  0
   58.6840   33.5940   44.9790 C   0  0  0  0  0  0  0  0  0  0  0  0
   59.2350   34.9940   44.8940 C   0  0  0  0  0  0  0  0  0  0  0  0
   58.7230   32.8360   46.1810 C   0  0  0  0  0  0  0  0  0  0  0  0
   59.4550   33.5020   47.6750 S   0  0  0  0  0  0  0  0  0  0  0  0
   59.1550   34.9750   47.7500 O   0  0  0  0  0  0  0  0  0  0  0  0
   58.8100   32.8230   48.8530 O   0  0  0  0  0  0  0  0  0  0  0  0
   61.1940   33.3330   47.8030 N   0  0  0  0  0  0  0  0  0  0  0  0
   61.5890   31.9800   48.2440 C   0  0  0  0  0  0  0  0  0  0  0  0
   62.9730   31.5920   47.7090 C   0  0  0  0  0  0  0  0  0  0  0  0
   63.8050   32.7270   47.7150 O   0  0  0  0  0  0  0  0  0  0  0  0
   63.4130   33.6190   46.6850 C   0  0  0  0  0  0  0  0  0  0  0  0
   61.8790   33.8270   46.5940 C   0  0  0  0  0  0  0  0  0  0  0  0
   58.1340   31.5580   46.1910 C   0  0  0  0  0  0  0  0  0  0  0  0
   55.3560   24.6240   45.6150 C   0  0  0  0  0  0  0  0  0  0  0  0
   54.1890   24.1170   45.0350 C   0  0  0  0  0  0  0  0  0  0  0  0
   50.6980   23.5921   45.8841 H   0  0  0  0  0  0  0  0  0  0  0  0
   51.3014   24.2761   44.3367 H   0  0  0  0  0  0  0  0  0  0  0  0
   50.3663   22.7424   44.3367 H   0  0  0  0  0  0  0  0  0  0  0  0
   53.3603   21.7920   47.4055 H   0  0  0  0  0  0  0  0  0  0  0  0
   55.4422   22.6957   48.4401 H   0  0  0  0  0  0  0  0  0  0  0  0
   56.8442   25.6056   47.9682 H   0  0  0  0  0  0  0  0  0  0  0  0
   57.4690   23.9292   48.1833 H   0  0  0  0  0  0  0  0  0  0  0  0
   56.8785   26.7775   44.5698 H   0  0  0  0  0  0  0  0  0  0  0  0
   56.5620   27.1720   46.2966 H   0  0  0  0  0  0  0  0  0  0  0  0
   58.9040   28.5620   45.1740 H   0  0  0  0  0  0  0  0  0  0  0  0
   57.2044   31.2951   42.9086 H   0  0  0  0  0  0  0  0  0  0  0  0
   58.1462   33.5938   42.8755 H   0  0  0  0  0  0  0  0  0  0  0  0
   59.3905   35.3891   45.9088 H   0  0  0  0  0  0  0  0  0  0  0  0
   60.1941   34.9785   44.3556 H   0  0  0  0  0  0  0  0  0  0  0  0
   58.5226   35.6364   44.3556 H   0  0  0  0  0  0  0  0  0  0  0  0
   61.6119   31.9557   49.3435 H   0  0  0  0  0  0  0  0  0  0  0  0
   60.8547   31.2622   47.8497 H   0  0  0  0  0  0  0  0  0  0  0  0
   63.4099   30.8119   48.3497 H   0  0  0  0  0  0  0  0  0  0  0  0
   62.8786   31.2077   46.6826 H   0  0  0  0  0  0  0  0  0  0  0  0
   63.8857   34.5946   46.8714 H   0  0  0  0  0  0  0  0  0  0  0  0
   63.7350   33.1731   45.7324 H   0  0  0  0  0  0  0  0  0  0  0  0
   61.6701   34.9008   46.4784 H   0  0  0  0  0  0  0  0  0  0  0  0
   61.5045   33.2599   45.7291 H   0  0  0  0  0  0  0  0  0  0  0  0
   58.1036   30.9876   47.1311 H   0  0  0  0  0  0  0  0  0  0  0  0
   55.9105   25.4313   45.1141 H   0  0  0  0  0  0  0  0  0  0  0  0
   53.8350   24.5239   44.0763 H   0  0  0  0  0  0  0  0  0  0  0  0
  1  2  1  0
  2  3  1  0
  3  4  2  0
  4  5  1  0
  5  6  2  0
  6  7  1  0
  7  8  1  0
  8  9  1  0
  9 10  2  0
  9 11  1  0
 11 12  1  0
 12 13  1  0
 13 14  2  0
 13 15  1  0
 15 16  2  0
 16 17  1  0
 17 18  2  0
 18 19  1  0
 18 20  1  0
 20 21  1  0
 21 22  2  0
 21 23  2  0
 21 24  1  0
 24 25  1  0
 25 26  1  0
 26 27  1  0
 27 28  1  0
 28 29  1  0
 20 30  2  0
  6 31  1  0
 31 32  2  0
 32  3  1  0
 30 15  1  0
 29 24  1  0
  1 33  1  0
  1 34  1  0
  1 35  1  0
  4 36  1  0
  5 37  1  0
  7 38  1  0
  7 39  1  0
 11 40  1  0
 11 41  1  0
 12 42  1  0
 16 43  1  0
 17 44  1  0
 19 45  1  0
 19 46  1  0
 19 47  1  0
 25 48  1  0
 25 49  1  0
 26 50  1  0
 26 51  1  0
 28 52  1  0
 28 53  1  0
 29 54  1  0
 29 55  1  0
 30 56  1  0
 31 57  1  0
 32 58  1  0
M  CHG  1   8  -1
M  END
>  <UniqueID>  (81) 
77

>  <SMILES>  (81) 
COc1ccc(C[N-]C(=O)CNC(=O)c2ccc(C)c(S(=O)(=O)N3CCOCC3)c2)cc1

>  <Energy>  (81) 
70.72965067285683

>  <Genealogy>  (81) 
COc1ccc(C[N-]C(=O)CNC(=O)c2ccc(C)c(S(=O)(=O)N3CCOCC3)c2)cc1 (protonated)
COc1ccc(C[N-]C(=O)CNC(=O)c2ccc(C)c(S(=O)(=O)N3CCOCC3)c2)cc1 (3D coordinates assigned)
COc1ccc(C[N-]C(=O)CNC(=O)c2ccc(C)c(S(=O)(=O)N3CCOCC3)c2)cc1 (nonaromatic ring conformer: 70.72965067285683 kcal/mol)

>  <smiles>  (81) 
COc1ccc(CNC(=O)CNC(=O)c2ccc(C)c(S(=O)(=O)N3CCOCC3)c2)cc1

>  <score_type>  (81) 
oracle

>  <origin>  (81) 
adg

>  <m_score__min__energy>  (81) 
-11.91

>  <m_primary>  (81) 
energy

$$$$
81:0
     RDKit          3D

 51 54  0  0  0  0  0  0  0  0999 V2000
   56.2764   30.8572   44.3239 H   0  0  0  0  0  0  0  0  0  0  0  0
   56.6550   29.8380   44.4910 C   0  0  0  0  0  0  0  0  0  0  0  0
   56.2832   29.0054   43.8758 H   0  0  0  0  0  0  0  0  0  0  0  0
   57.5720   29.6100   45.4470 C   0  0  0  0  0  0  0  0  0  0  0  0
   58.1320   28.3660   45.7590 C   0  0  0  0  0  0  0  0  0  0  0  0
   57.8010   27.1590   45.2490 C   0  0  0  0  0  0  0  0  0  0  0  0
   57.9902   26.9811   44.1801 H   0  0  0  0  0  0  0  0  0  0  0  0
   57.2010   26.0640   46.0380 C   0  0  0  0  0  0  0  0  0  0  0  0
   57.9290   25.1200   46.6600 N   0  0  0  0  0  0  0  0  0  0  0  0
   57.0010   24.3720   47.2960 C   0  0  0  0  0  0  0  0  0  0  0  0
   57.3010   23.3620   47.9880 O   0  0  0  0  0  0  0  0  0  0  0  0
   55.7290   24.8010   47.1440 N   0  0  0  0  0  0  0  0  0  0  0  0
   55.8720   25.8800   46.3590 C   0  0  0  0  0  0  0  0  0  0  0  0
   54.8160   26.7090   45.9930 O   0  0  0  0  0  0  0  0  0  0  0  0
   59.0750   28.6060   46.7420 C   0  0  0  0  0  0  0  0  0  0  0  0
   59.7186   27.8559   47.2248 H   0  0  0  0  0  0  0  0  0  0  0  0
   59.0590   29.9610   47.0050 C   0  0  0  0  0  0  0  0  0  0  0  0
   60.0010   30.6270   47.9380 C   0  0  0  0  0  0  0  0  0  0  0  0
   61.1300   31.0170   47.5380 O   0  0  0  0  0  0  0  0  0  0  0  0
   59.6670   30.7650   49.3260 N   0  0  0  0  0  0  0  0  0  0  0  0
   60.5330   30.1580   50.3430 C   0  0  0  0  0  0  0  0  0  0  0  0
   61.2377   29.4654   49.8596 H   0  0  0  0  0  0  0  0  0  0  0  0
   61.0961   30.9455   50.8652 H   0  0  0  0  0  0  0  0  0  0  0  0
   59.6710   29.3910   51.3490 C   0  0  0  0  0  0  0  0  0  0  0  0
   59.3262   28.4550   50.8853 H   0  0  0  0  0  0  0  0  0  0  0  0
   60.2805   29.1819   52.2405 H   0  0  0  0  0  0  0  0  0  0  0  0
   58.5010   30.1810   51.7610 N   0  0  0  0  0  0  0  0  0  0  0  0
   57.6120   29.6330   52.7510 C   0  0  0  0  0  0  0  0  0  0  0  0
   58.0900   29.0380   53.7530 O   0  0  0  0  0  0  0  0  0  0  0  0
   56.1420   29.7250   52.5950 C   0  0  0  0  0  0  0  0  0  0  0  0
   55.5700   30.8320   51.9460 C   0  0  0  0  0  0  0  0  0  0  0  0
   56.2078   31.6529   51.5863 H   0  0  0  0  0  0  0  0  0  0  0  0
   54.1850   30.8840   51.7600 C   0  0  0  0  0  0  0  0  0  0  0  0
   53.7322   31.7339   51.2283 H   0  0  0  0  0  0  0  0  0  0  0  0
   53.3780   29.8560   52.2500 C   0  0  0  0  0  0  0  0  0  0  0  0
   52.2878   29.8870   52.1067 H   0  0  0  0  0  0  0  0  0  0  0  0
   53.9730   28.7870   52.9250 C   0  0  0  0  0  0  0  0  0  0  0  0
   53.3472   27.9743   53.3223 H   0  0  0  0  0  0  0  0  0  0  0  0
   55.3280   28.7460   53.0940 N   0  0  0  0  0  0  0  0  0  0  0  0
   55.7380   27.9420   53.6190 H   0  0  0  0  0  0  0  0  0  0  0  0
   58.2910   31.5440   51.2430 C   0  0  0  0  0  0  0  0  0  0  0  0
   57.2617   31.8613   51.4665 H   0  0  0  0  0  0  0  0  0  0  0  0
   59.0108   32.2219   51.7251 H   0  0  0  0  0  0  0  0  0  0  0  0
   58.5130   31.5840   49.7250 C   0  0  0  0  0  0  0  0  0  0  0  0
   57.6126   31.2014   49.2222 H   0  0  0  0  0  0  0  0  0  0  0  0
   58.7126   32.6257   49.4334 H   0  0  0  0  0  0  0  0  0  0  0  0
   58.1320   30.5770   46.2260 N   0  0  0  0  0  0  0  0  0  0  0  0
   57.8510   32.0210   46.2040 C   0  0  0  0  0  0  0  0  0  0  0  0
   57.7780   32.3961   47.2355 H   0  0  0  0  0  0  0  0  0  0  0  0
   58.6641   32.5448   45.6800 H   0  0  0  0  0  0  0  0  0  0  0  0
   56.9008   32.2017   45.6800 H   0  0  0  0  0  0  0  0  0  0  0  0
  1  2  1  0
  2  3  1  0
  2  4  2  0
  4  5  1  0
  5  6  2  0
  6  7  1  0
  6  8  1  0
  8  9  1  0
  9 10  1  0
 10 11  2  0
 10 12  1  0
 12 13  1  0
 13 14  1  0
  5 15  1  0
 15 16  1  0
 15 17  2  0
 17 18  1  0
 18 19  2  0
 18 20  1  0
 20 21  1  0
 21 22  1  0
 21 23  1  0
 21 24  1  0
 24 25  1  0
 24 26  1  0
 24 27  1  0
 27 28  1  0
 28 29  2  0
 28 30  1  0
 30 31  2  0
 31 32  1  0
 31 33  1  0
 33 34  1  0
 33 35  2  0
 35 36  1  0
 35 37  1  0
 37 38  1  0
 37 39  2  0
 39 40  1  0
 27 41  1  0
 41 42  1  0
 41 43  1  0
 41 44  1  0
 44 45  1  0
 44 46  1  0
 17 47  1  0
 47 48  1  0
 48 49  1  0
 48 50  1  0
 48 51  1  0
 47  4  1  0
 13  8  2  0
 44 20  1  0
 39 30  1  0
M  CHG  4   9  -1  12  -1  14  -1  39   1
M  END
>  <UniqueID>  (82) 
78

>  <SMILES>  (82) 
C=c1/c(=C/c2[n-]c(=O)[n-]c2[O-])cc(C(=O)N2CCN(C(=O)c3cccc[nH+]3)CC2)n1C

>  <Energy>  (82) 
129.3159327115247

>  <Genealogy>  (82) 
C=c1c(=Cc2[n-]c(=O)[n-]c2[O-])cc(C(=O)N2CCN(C(=O)c3cccc[nH+]3)CC2)n1C (protonated)
C=c1/c(=C/c2[n-]c(=O)[n-]c2[O-])cc(C(=O)N2CCN(C(=O)c3cccc[nH+]3)CC2)n1C (cis-trans isomerization)
C=c1/c(=C/c2[n-]c(=O)[n-]c2[O-])cc(C(=O)N2CCN(C(=O)c3cccc[nH+]3)CC2)n1C (3D coordinates assigned)
C=c1/c(=C/c2[n-]c(=O)[n-]c2[O-])cc(C(=O)N2CCN(C(=O)c3cccc[nH+]3)CC2)n1C (nonaromatic ring conformer: 129.3159327115247 kcal/mol)

>  <smiles>  (82) 
C=c1c(=Cc2[nH]c(=O)[nH]c2O)cc(C(=O)N2CCN(C(=O)c3ccccn3)CC2)n1C

>  <score_type>  (82) 
oracle

>  <origin>  (82) 
adg

>  <m_score__min__energy>  (82) 
-16.300000000000001

>  <m_primary>  (82) 
energy

$$$$
82:0
     RDKit          3D

 33 34  0  0  0  0  0  0  0  0999 V2000
   58.2253   31.3860   42.3622 H   0  0  0  0  0  0  0  0  0  0  0  0
   57.3100   31.2800   42.9630 C   0  0  0  0  0  0  0  0  0  0  0  0
   56.9611   32.1167   43.5861 H   0  0  0  0  0  0  0  0  0  0  0  0
   56.6220   30.1350   42.9360 C   0  0  0  0  0  0  0  0  0  0  0  0
   56.9849   29.3084   42.3075 H   0  0  0  0  0  0  0  0  0  0  0  0
   55.3660   29.9440   43.7400 C   0  0  0  0  0  0  0  0  0  0  0  0
   55.0346   30.9167   44.1324 H   0  0  0  0  0  0  0  0  0  0  0  0
   54.5875   29.5148   43.0921 H   0  0  0  0  0  0  0  0  0  0  0  0
   55.6130   29.0330   44.8550 N   0  0  0  0  0  0  0  0  0  0  0  0
   56.7210   28.9670   45.5320 C   0  0  0  0  0  0  0  0  0  0  0  0
   57.3920   30.0720   45.9220 N   0  0  0  0  0  0  0  0  0  0  0  0
   58.5170   29.7680   46.6240 C   0  0  0  0  0  0  0  0  0  0  0  0
   59.4320   30.8290   47.1030 C   0  0  0  0  0  0  0  0  0  0  0  0
   60.3500   30.5250   47.9120 O   0  0  0  0  0  0  0  0  0  0  0  0
   59.3220   32.1890   46.6330 N   0  0  0  0  0  0  0  0  0  0  0  0
   60.5350   32.9960   46.4470 C   0  0  0  0  0  0  0  0  0  0  0  0
   61.3052   32.6648   47.1591 H   0  0  0  0  0  0  0  0  0  0  0  0
   60.8984   32.8680   45.4167 H   0  0  0  0  0  0  0  0  0  0  0  0
   60.2240   34.4760   46.6890 C   0  0  0  0  0  0  0  0  0  0  0  0
   60.0019   34.6279   47.7556 H   0  0  0  0  0  0  0  0  0  0  0  0
   61.0985   35.0728   46.3906 H   0  0  0  0  0  0  0  0  0  0  0  0
   59.1100   34.8890   45.9200 O   0  0  0  0  0  0  0  0  0  0  0  0
   57.9500   34.2090   46.3610 C   0  0  0  0  0  0  0  0  0  0  0  0
   57.8266   34.3702   47.4421 H   0  0  0  0  0  0  0  0  0  0  0  0
   57.0810   34.6028   45.8135 H   0  0  0  0  0  0  0  0  0  0  0  0
   58.0630   32.7060   46.0870 C   0  0  0  0  0  0  0  0  0  0  0  0
   57.2188   32.1848   46.5621 H   0  0  0  0  0  0  0  0  0  0  0  0
   58.0438   32.5350   45.0005 H   0  0  0  0  0  0  0  0  0  0  0  0
   58.7320   28.3940   46.7830 C   0  0  0  0  0  0  0  0  0  0  0  0
   59.7820   27.7730   47.5260 N   0  0  0  0  0  0  0  0  0  0  0  0
   59.7810   26.7380   47.6560 H   0  0  0  0  0  0  0  0  0  0  0  0
   60.5180   28.3310   48.0090 H   0  0  0  0  0  0  0  0  0  0  0  0
   57.4850   27.5480   46.0360 S   0  0  0  0  0  0  0  0  0  0  0  0
  1  2  1  0
  2  3  1  0
  2  4  2  0
  4  5  1  0
  4  6  1  0
  6  7  1  0
  6  8  1  0
  6  9  1  0
  9 10  2  0
 10 11  1  0
 11 12  1  0
 12 13  1  0
 13 14  2  0
 13 15  1  0
 15 16  1  0
 16 17  1  0
 16 18  1  0
 16 19  1  0
 19 20  1  0
 19 21  1  0
 19 22  1  0
 22 23  1  0
 23 24  1  0
 23 25  1  0
 23 26  1  0
 26 27  1  0
 26 28  1  0
 12 29  2  0
 29 30  1  0
 30 31  1  0
 30 32  1  0
 29 33  1  0
 33 10  1  0
 26 15  1  0
M  CHG  1  11  -1
M  END
>  <UniqueID>  (83) 
79

>  <SMILES>  (83) 
C=CC/N=c1/[n-]c(C(=O)N2CCOCC2)c(N)s1

>  <Energy>  (83) 
65.77567027905633

>  <Genealogy>  (83) 
C=CCN=c1[n-]c(C(=O)N2CCOCC2)c(N)s1 (protonated)
C=CC/N=c1/[n-]c(C(=O)N2CCOCC2)c(N)s1 (cis-trans isomerization)
C=CC/N=c1/[n-]c(C(=O)N2CCOCC2)c(N)s1 (3D coordinates assigned)
C=CC/N=c1/[n-]c(C(=O)N2CCOCC2)c(N)s1 (nonaromatic ring conformer: 65.77567027905633 kcal/mol)

>  <smiles>  (83) 
C=CCN=c1[nH]c(C(=O)N2CCOCC2)c(N)s1

>  <score_type>  (83) 
oracle

>  <origin>  (83) 
adg

>  <m_score__min__energy>  (83) 
-7.5199999999999996

>  <m_primary>  (83) 
energy

$$$$
83:0
     RDKit          3D

 69 73  0  0  0  0  0  0  0  0999 V2000
   59.4110   34.2670   48.7610 O   0  0  0  0  0  0  0  0  0  0  0  0
   58.7270   33.3350   48.2500 C   0  0  0  0  0  0  0  0  0  0  0  0
   58.1020   32.3620   49.0970 N   0  0  0  0  0  0  0  0  0  0  0  0
   58.5740   31.9390   50.3850 C   0  0  0  0  0  0  0  0  0  0  0  0
   57.8710   32.2790   51.5560 C   0  0  0  0  0  0  0  0  0  0  0  0
   58.3030   31.8140   52.8000 C   0  0  0  0  0  0  0  0  0  0  0  0
   59.4300   30.9980   52.8880 C   0  0  0  0  0  0  0  0  0  0  0  0
   60.1300   30.6410   51.7330 C   0  0  0  0  0  0  0  0  0  0  0  0
   59.7090   31.0990   50.4740 C   0  0  0  0  0  0  0  0  0  0  0  0
   60.4880   30.7260   49.2690 C   0  0  0  0  0  0  0  0  0  0  0  0
   60.1380   29.7200   48.5930 O   0  0  0  0  0  0  0  0  0  0  0  0
   61.6070   31.5170   48.8310 N   0  0  0  0  0  0  0  0  0  0  0  0
   61.8640   31.6480   47.3880 C   0  0  0  0  0  0  0  0  0  0  0  0
   63.0710   32.5530   47.1070 C   0  0  0  0  0  0  0  0  0  0  0  0
   63.0200   33.7980   47.9970 C   0  0  0  0  0  0  0  0  0  0  0  0
   63.0200   33.4470   49.5000 C   0  0  0  0  0  0  0  0  0  0  0  0
   62.6050   31.9960   49.7990 C   0  0  0  0  0  0  0  0  0  0  0  0
   58.6420   33.2080   46.7760 C   0  0  0  0  0  0  0  0  0  0  0  0
   57.8200   32.2160   46.2070 C   0  0  0  0  0  0  0  0  0  0  0  0
   57.7210   32.0780   44.8170 C   0  0  0  0  0  0  0  0  0  0  0  0
   56.6620   30.8470   44.1260 S   0  0  0  0  0  0  0  0  0  0  0  0
   55.2380   31.1590   44.4940 O   0  0  0  0  0  0  0  0  0  0  0  0
   56.7720   30.8790   42.6250 O   0  0  0  0  0  0  0  0  0  0  0  0
   57.0700   29.2500   44.7010 N   0  0  0  0  0  0  0  0  0  0  0  0
   57.5640   28.4100   43.5890 C   0  0  0  0  0  0  0  0  0  0  0  0
   58.3090   27.1550   44.0880 C   0  0  0  0  0  0  0  0  0  0  0  0
   57.9700   26.8790   45.4880 N   0  0  0  0  0  0  0  0  0  0  0  0
   57.3340   25.6430   45.8660 C   0  0  0  0  0  0  0  0  0  0  0  0
   58.1020   24.4710   45.9940 C   0  0  0  0  0  0  0  0  0  0  0  0
   57.4910   23.2590   46.3320 C   0  0  0  0  0  0  0  0  0  0  0  0
   56.1110   23.2050   46.5400 C   0  0  0  0  0  0  0  0  0  0  0  0
   55.3370   24.3620   46.4130 C   0  0  0  0  0  0  0  0  0  0  0  0
   55.9420   25.5810   46.0810 C   0  0  0  0  0  0  0  0  0  0  0  0
   55.1590   26.7250   45.9840 O   0  0  0  0  0  0  0  0  0  0  0  0
   58.1490   27.9540   46.4750 C   0  0  0  0  0  0  0  0  0  0  0  0
   58.0490   29.3270   45.7980 C   0  0  0  0  0  0  0  0  0  0  0  0
   58.4560   32.9300   43.9830 C   0  0  0  0  0  0  0  0  0  0  0  0
   59.2760   33.9150   44.5340 C   0  0  0  0  0  0  0  0  0  0  0  0
   59.3700   34.0600   45.9220 C   0  0  0  0  0  0  0  0  0  0  0  0
   60.1960   35.0150   46.4210 F   0  0  0  0  0  0  0  0  0  0  0  0
   56.9758   32.9149   51.4909 H   0  0  0  0  0  0  0  0  0  0  0  0
   57.7534   32.0919   53.7115 H   0  0  0  0  0  0  0  0  0  0  0  0
   59.7688   30.6344   53.8693 H   0  0  0  0  0  0  0  0  0  0  0  0
   61.0178   29.9962   51.8103 H   0  0  0  0  0  0  0  0  0  0  0  0
   62.0611   30.6503   46.9689 H   0  0  0  0  0  0  0  0  0  0  0  0
   60.9778   32.1031   46.9215 H   0  0  0  0  0  0  0  0  0  0  0  0
   63.9974   31.9970   47.3135 H   0  0  0  0  0  0  0  0  0  0  0  0
   63.0463   32.8655   46.0526 H   0  0  0  0  0  0  0  0  0  0  0  0
   63.8986   34.4234   47.7803 H   0  0  0  0  0  0  0  0  0  0  0  0
   62.0826   34.3297   47.7767 H   0  0  0  0  0  0  0  0  0  0  0  0
   64.0351   33.6054   49.8931 H   0  0  0  0  0  0  0  0  0  0  0  0
   62.2757   34.0986   49.9811 H   0  0  0  0  0  0  0  0  0  0  0  0
   63.4942   31.3506   49.7464 H   0  0  0  0  0  0  0  0  0  0  0  0
   62.1592   31.9618   50.8040 H   0  0  0  0  0  0  0  0  0  0  0  0
   57.2490   31.5417   46.8622 H   0  0  0  0  0  0  0  0  0  0  0  0
   56.7063   28.0923   42.9779 H   0  0  0  0  0  0  0  0  0  0  0  0
   58.2745   29.0118   43.0033 H   0  0  0  0  0  0  0  0  0  0  0  0
   58.0205   26.2927   43.4689 H   0  0  0  0  0  0  0  0  0  0  0  0
   59.3922   27.3307   44.0123 H   0  0  0  0  0  0  0  0  0  0  0  0
   59.1887   24.5081   45.8274 H   0  0  0  0  0  0  0  0  0  0  0  0
   58.0981   22.3474   46.4341 H   0  0  0  0  0  0  0  0  0  0  0  0
   55.6324   22.2504   46.8042 H   0  0  0  0  0  0  0  0  0  0  0  0
   54.2499   24.3151   46.5742 H   0  0  0  0  0  0  0  0  0  0  0  0
   57.3677   27.8723   47.2450 H   0  0  0  0  0  0  0  0  0  0  0  0
   59.1443   27.8546   46.9327 H   0  0  0  0  0  0  0  0  0  0  0  0
   57.7216   30.0775   46.5326 H   0  0  0  0  0  0  0  0  0  0  0  0
   59.0322   29.6174   45.3992 H   0  0  0  0  0  0  0  0  0  0  0  0
   58.3865   32.8222   42.8905 H   0  0  0  0  0  0  0  0  0  0  0  0
   59.8513   34.5807   43.8738 H   0  0  0  0  0  0  0  0  0  0  0  0
  1  2  2  0
  2  3  1  0
  3  4  1  0
  4  5  2  0
  5  6  1  0
  6  7  2  0
  7  8  1  0
  8  9  2  0
  9 10  1  0
 10 11  2  0
 10 12  1  0
 12 13  1  0
 13 14  1  0
 14 15  1  0
 15 16  1  0
 16 17  1  0
  2 18  1  0
 18 19  2  0
 19 20  1  0
 20 21  1  0
 21 22  2  0
 21 23  2  0
 21 24  1  0
 24 25  1  0
 25 26  1  0
 26 27  1  0
 27 28  1  0
 28 29  2  0
 29 30  1  0
 30 31  2  0
 31 32  1  0
 32 33  2  0
 33 34  1  0
 27 35  1  0
 35 36  1  0
 20 37  2  0
 37 38  1  0
 38 39  2  0
 39 40  1  0
  9  4  1  0
 17 12  1  0
 39 18  1  0
 36 24  1  0
 33 28  1  0
  5 41  1  0
  6 42  1  0
  7 43  1  0
  8 44  1  0
 13 45  1  0
 13 46  1  0
 14 47  1  0
 14 48  1  0
 15 49  1  0
 15 50  1  0
 16 51  1  0
 16 52  1  0
 17 53  1  0
 17 54  1  0
 19 55  1  0
 25 56  1  0
 25 57  1  0
 26 58  1  0
 26 59  1  0
 29 60  1  0
 30 61  1  0
 31 62  1  0
 32 63  1  0
 35 64  1  0
 35 65  1  0
 36 66  1  0
 36 67  1  0
 37 68  1  0
 38 69  1  0
M  CHG  2   3  -1  34  -1
M  END
>  <UniqueID>  (84) 
80

>  <SMILES>  (84) 
O=C([N-]c1ccccc1C(=O)N1CCCCC1)c1cc(S(=O)(=O)N2CCN(c3ccccc3[O-])CC2)ccc1F

>  <Energy>  (84) 
95.55077959186444

>  <Genealogy>  (84) 
O=C([N-]c1ccccc1C(=O)N1CCCCC1)c1cc(S(=O)(=O)N2CCN(c3ccccc3[O-])CC2)ccc1F (protonated)
O=C([N-]c1ccccc1C(=O)N1CCCCC1)c1cc(S(=O)(=O)N2CCN(c3ccccc3[O-])CC2)ccc1F (3D coordinates assigned)
O=C([N-]c1ccccc1C(=O)N1CCCCC1)c1cc(S(=O)(=O)N2CCN(c3ccccc3[O-])CC2)ccc1F (nonaromatic ring conformer: 95.55077959186444 kcal/mol)

>  <smiles>  (84) 
O=C(Nc1ccccc1C(=O)N1CCCCC1)c1cc(S(=O)(=O)N2CCN(c3ccccc3O)CC2)ccc1F

>  <score_type>  (84) 
oracle

>  <origin>  (84) 
adg

>  <m_score__min__energy>  (84) 
-16.02

>  <m_primary>  (84) 
energy

$$$$
84:0
     RDKit          3D

 66 69  0  0  0  0  0  0  0  0999 V2000
   57.3980   33.1640   46.8250 O   0  0  0  0  0  0  0  0  0  0  0  0
   58.3820   32.5700   46.3080 C   0  0  0  0  0  0  0  0  0  0  0  0
   59.5910   33.2910   46.0640 N   0  0  0  0  0  0  0  0  0  0  0  0
   60.7200   33.2050   46.9900 C   0  0  1  0  0  0  0  0  0  0  0  0
   62.0010   33.8060   46.3720 C   0  0  0  0  0  0  0  0  0  0  0  0
   63.3260   33.4890   47.1000 C   0  0  0  0  0  0  0  0  0  0  0  0
   63.3870   33.9000   48.5810 C   0  0  0  0  0  0  0  0  0  0  0  0
   62.4820   33.0470   49.4790 C   0  0  0  0  0  0  0  0  0  0  0  0
   61.0860   33.5090   49.5130 N   0  0  0  0  0  0  0  0  0  0  0  0
   60.4710   33.8100   50.8100 C   0  0  0  0  0  0  0  0  0  0  0  0
   59.3530   32.8410   51.0830 C   0  0  0  0  0  0  0  0  0  0  0  0
   58.3620   33.1580   52.0260 C   0  0  0  0  0  0  0  0  0  0  0  0
   57.3460   32.2430   52.3180 C   0  0  0  0  0  0  0  0  0  0  0  0
   57.3020   31.0050   51.6650 C   0  0  0  0  0  0  0  0  0  0  0  0
   56.2790   30.1090   51.9710 O   0  0  0  0  0  0  0  0  0  0  0  0
   58.2890   30.6840   50.7180 C   0  0  0  0  0  0  0  0  0  0  0  0
   58.2620   29.4600   50.0600 O   0  0  0  0  0  0  0  0  0  0  0  0
   59.3140   31.5950   50.4370 C   0  0  0  0  0  0  0  0  0  0  0  0
   60.3580   33.8280   48.3130 C   0  0  0  0  0  0  0  0  0  0  0  0
   59.3580   34.5900   48.3780 O   0  0  0  0  0  0  0  0  0  0  0  0
   58.3110   31.1280   46.0250 C   0  0  0  0  0  0  0  0  0  0  0  0
   57.8800   30.6750   44.7690 C   0  0  0  0  0  0  0  0  0  0  0  0
   57.6050   29.3210   44.5670 C   0  0  0  0  0  0  0  0  0  0  0  0
   57.7860   28.4030   45.6070 C   0  0  0  0  0  0  0  0  0  0  0  0
   57.1910   26.7570   45.4280 S   0  0  0  0  0  0  0  0  0  0  0  0
   57.4520   26.2510   44.0350 O   0  0  0  0  0  0  0  0  0  0  0  0
   55.7100   26.7300   45.6830 O   0  0  0  0  0  0  0  0  0  0  0  0
   57.9970   25.7460   46.5900 N   0  0  0  0  0  0  0  0  0  0  0  0
   57.0410   25.2150   47.5650 C   0  0  0  0  0  0  0  0  0  0  0  0
   56.4110   23.9320   47.0340 C   0  0  0  0  0  0  0  0  0  0  0  0
   55.1510   24.2360   46.3660 N   0  0  0  0  0  0  0  0  0  0  0  0
   54.6170   23.4390   45.3040 C   0  0  0  0  0  0  0  0  0  0  0  0
   53.3710   23.3180   45.1650 O   0  0  0  0  0  0  0  0  0  0  0  0
   55.5200   22.7710   44.3610 C   0  0  0  0  0  0  0  0  0  0  0  0
   56.1420   23.3590   43.2770 C   0  0  0  0  0  0  0  0  0  0  0  0
   56.8800   22.3590   42.6850 C   0  0  0  0  0  0  0  0  0  0  0  0
   56.6670   21.2260   43.4450 C   0  0  0  0  0  0  0  0  0  0  0  0
   55.8510   21.5040   44.4360 O   0  0  0  0  0  0  0  0  0  0  0  0
   58.3060   28.8400   46.8340 C   0  0  0  0  0  0  0  0  0  0  0  0
   58.5670   30.1960   47.0430 C   0  0  0  0  0  0  0  0  0  0  0  0
   60.9445   32.1452   47.1808 H   0  0  0  0  0  0  0  0  0  0  0  0
   62.0856   33.4280   45.3424 H   0  0  0  0  0  0  0  0  0  0  0  0
   61.8789   34.8966   46.4469 H   0  0  0  0  0  0  0  0  0  0  0  0
   63.4915   32.4030   47.0433 H   0  0  0  0  0  0  0  0  0  0  0  0
   64.0982   34.0845   46.5910 H   0  0  0  0  0  0  0  0  0  0  0  0
   64.4248   33.7969   48.9307 H   0  0  0  0  0  0  0  0  0  0  0  0
   63.0315   34.9388   48.6485 H   0  0  0  0  0  0  0  0  0  0  0  0
   62.4973   32.0122   49.1063 H   0  0  0  0  0  0  0  0  0  0  0  0
   62.8744   33.1272   50.5035 H   0  0  0  0  0  0  0  0  0  0  0  0
   61.2295   33.7245   51.6021 H   0  0  0  0  0  0  0  0  0  0  0  0
   60.0674   34.8331   50.7910 H   0  0  0  0  0  0  0  0  0  0  0  0
   58.3852   34.1315   52.5377 H   0  0  0  0  0  0  0  0  0  0  0  0
   56.5781   32.4966   53.0637 H   0  0  0  0  0  0  0  0  0  0  0  0
   56.2750   29.1610   51.6190 H   0  0  0  0  0  0  0  0  0  0  0  0
   60.0932   31.3333   49.7060 H   0  0  0  0  0  0  0  0  0  0  0  0
   57.7584   31.3887   43.9408 H   0  0  0  0  0  0  0  0  0  0  0  0
   57.2449   28.9750   43.5869 H   0  0  0  0  0  0  0  0  0  0  0  0
   57.5645   25.0002   48.5083 H   0  0  0  0  0  0  0  0  0  0  0  0
   56.2505   25.9602   47.7376 H   0  0  0  0  0  0  0  0  0  0  0  0
   57.0981   23.4578   46.3178 H   0  0  0  0  0  0  0  0  0  0  0  0
   56.2191   23.2486   47.8743 H   0  0  0  0  0  0  0  0  0  0  0  0
   56.0639   24.4076   42.9541 H   0  0  0  0  0  0  0  0  0  0  0  0
   57.5114   22.4451   41.7884 H   0  0  0  0  0  0  0  0  0  0  0  0
   57.1132   20.2397   43.2500 H   0  0  0  0  0  0  0  0  0  0  0  0
   58.5088   28.1127   47.6340 H   0  0  0  0  0  0  0  0  0  0  0  0
   58.9740   30.5344   48.0073 H   0  0  0  0  0  0  0  0  0  0  0  0
  1  2  2  0
  2  3  1  0
  3  4  1  0
  4  5  1  0
  5  6  1  0
  6  7  1  0
  7  8  1  0
  8  9  1  0
  9 10  1  0
 10 11  1  0
 11 12  2  0
 12 13  1  0
 13 14  2  0
 14 15  1  0
 14 16  1  0
 16 17  1  0
 16 18  2  0
  9 19  1  0
 19 20  2  0
  2 21  1  0
 21 22  2  0
 22 23  1  0
 23 24  2  0
 24 25  1  0
 25 26  2  0
 25 27  2  0
 25 28  1  0
 28 29  1  0
 29 30  1  0
 30 31  1  0
 31 32  1  0
 32 33  2  0
 32 34  1  0
 34 35  2  0
 35 36  1  0
 36 37  2  0
 37 38  1  0
 24 39  1  0
 39 40  2  0
 19  4  1  0
 40 21  1  0
 18 11  1  0
 38 34  1  0
  4 41  1  1
  5 42  1  0
  5 43  1  0
  6 44  1  0
  6 45  1  0
  7 46  1  0
  7 47  1  0
  8 48  1  0
  8 49  1  0
 10 50  1  0
 10 51  1  0
 12 52  1  0
 13 53  1  0
 15 54  1  0
 18 55  1  0
 22 56  1  0
 23 57  1  0
 29 58  1  0
 29 59  1  0
 30 60  1  0
 30 61  1  0
 35 62  1  0
 36 63  1  0
 37 64  1  0
 39 65  1  0
 40 66  1  0
M  CHG  4   3  -1  17  -1  28  -1  31  -1
M  END
>  <UniqueID>  (85) 
81

>  <SMILES>  (85) 
O=C([N-][C@H]1CCCCN(Cc2ccc(O)c([O-])c2)C1=O)c1ccc(S(=O)(=O)[N-]CC[N-]C(=O)c2ccco2)cc1

>  <Energy>  (85) 
96.63792674900337

>  <Genealogy>  (85) 
O=C([N-]C1CCCCN(Cc2ccc(O)c([O-])c2)C1=O)c1ccc(S(=O)(=O)[N-]CC[N-]C(=O)c2ccco2)cc1 (protonated)
O=C([N-][C@H]1CCCCN(Cc2ccc(O)c([O-])c2)C1=O)c1ccc(S(=O)(=O)[N-]CC[N-]C(=O)c2ccco2)cc1 (chirality)
O=C([N-][C@H]1CCCCN(Cc2ccc(O)c([O-])c2)C1=O)c1ccc(S(=O)(=O)[N-]CC[N-]C(=O)c2ccco2)cc1 (3D coordinates assigned)
O=C([N-][C@H]1CCCCN(Cc2ccc(O)c([O-])c2)C1=O)c1ccc(S(=O)(=O)[N-]CC[N-]C(=O)c2ccco2)cc1 (nonaromatic ring conformer: 96.63792674900337 kcal/mol)

>  <smiles>  (85) 
O=C(NC1CCCCN(Cc2ccc(O)c(O)c2)C1=O)c1ccc(S(=O)(=O)NCCNC(=O)c2ccco2)cc1

>  <score_type>  (85) 
oracle

>  <origin>  (85) 
adg

>  <m_score__min__energy>  (85) 
-16.32

>  <m_primary>  (85) 
energy

$$$$
85:0
     RDKit          3D

 47 50  0  0  0  0  0  0  0  0999 V2000
   59.9410   27.4590   46.8610 O   0  0  0  0  0  0  0  0  0  0  0  0
   59.0980   28.3720   46.6520 C   0  0  0  0  0  0  0  0  0  0  0  0
   57.9250   28.0980   45.7620 C   0  0  0  0  0  0  0  0  0  0  0  0
   57.5410   29.3190   45.0570 N   0  0  0  0  0  0  0  0  0  0  0  0
   56.2980   29.7160   44.7210 C   0  0  0  0  0  0  0  0  0  0  0  0
   55.1460   28.9700   44.9390 O   0  0  0  0  0  0  0  0  0  0  0  0
   56.3480   30.9740   44.1580 C   0  0  0  0  0  0  0  0  0  0  0  0
   57.6360   31.3700   44.1500 N   0  0  0  0  0  0  0  0  0  0  0  0
   58.1410   32.6680   43.7090 C   0  0  0  0  0  0  0  0  0  0  0  0
   57.8130   33.7320   44.7200 C   0  0  0  0  0  0  0  0  0  0  0  0
   56.8450   34.5120   44.4980 O   0  0  0  0  0  0  0  0  0  0  0  0
   58.5730   33.8760   45.9340 N   0  0  0  0  0  0  0  0  0  0  0  0
   59.5970   34.7810   45.9530 C   0  0  0  0  0  0  0  0  0  0  0  0
   60.3600   34.9400   47.0630 N   0  0  0  0  0  0  0  0  0  0  0  0
   60.1290   34.2140   48.1830 C   0  0  0  0  0  0  0  0  0  0  0  0
   60.9450   34.3820   49.3080 C   0  0  0  0  0  0  0  0  0  0  0  0
   60.7110   33.6280   50.4600 C   0  0  0  0  0  0  0  0  0  0  0  0
   59.6540   32.7160   50.5000 C   0  0  0  0  0  0  0  0  0  0  0  0
   58.8330   32.5400   49.3810 C   0  0  0  0  0  0  0  0  0  0  0  0
   59.0730   33.2800   48.2090 C   0  0  0  0  0  0  0  0  0  0  0  0
   58.3060   33.1130   47.0430 C   0  0  0  0  0  0  0  0  0  0  0  0
   57.3960   32.2380   47.0100 O   0  0  0  0  0  0  0  0  0  0  0  0
   58.3300   30.3570   44.7130 C   0  0  0  0  0  0  0  0  0  0  0  0
   59.5740   30.3830   44.9080 O   0  0  0  0  0  0  0  0  0  0  0  0
   59.2450   29.6620   47.2690 N   0  0  0  0  0  0  0  0  0  0  0  0
   60.2820   29.9820   48.2120 C   0  0  0  0  0  0  0  0  0  0  0  0
   61.3270   30.8660   47.8800 C   0  0  0  0  0  0  0  0  0  0  0  0
   62.3230   31.1610   48.8170 C   0  0  0  0  0  0  0  0  0  0  0  0
   62.2890   30.5680   50.0840 C   0  0  0  0  0  0  0  0  0  0  0  0
   61.2690   29.6660   50.4110 C   0  0  0  0  0  0  0  0  0  0  0  0
   60.2760   29.3690   49.4750 C   0  0  0  0  0  0  0  0  0  0  0  0
   58.1958   27.3234   45.0294 H   0  0  0  0  0  0  0  0  0  0  0  0
   57.0790   27.7511   46.3736 H   0  0  0  0  0  0  0  0  0  0  0  0
   55.4899   31.5509   43.7826 H   0  0  0  0  0  0  0  0  0  0  0  0
   59.2326   32.6091   43.5866 H   0  0  0  0  0  0  0  0  0  0  0  0
   57.6655   32.9281   42.7518 H   0  0  0  0  0  0  0  0  0  0  0  0
   59.8045   35.3868   45.0586 H   0  0  0  0  0  0  0  0  0  0  0  0
   61.7709   35.1082   49.2846 H   0  0  0  0  0  0  0  0  0  0  0  0
   61.3611   33.7528   51.3385 H   0  0  0  0  0  0  0  0  0  0  0  0
   59.4664   32.1341   51.4144 H   0  0  0  0  0  0  0  0  0  0  0  0
   57.9997   31.8229   49.4176 H   0  0  0  0  0  0  0  0  0  0  0  0
   58.6450   30.4430   46.9170 H   0  0  0  0  0  0  0  0  0  0  0  0
   61.3601   31.3257   46.8812 H   0  0  0  0  0  0  0  0  0  0  0  0
   63.1327   31.8590   48.5578 H   0  0  0  0  0  0  0  0  0  0  0  0
   63.0651   30.8109   50.8247 H   0  0  0  0  0  0  0  0  0  0  0  0
   61.2499   29.1921   51.4035 H   0  0  0  0  0  0  0  0  0  0  0  0
   59.4835   28.6497   49.7291 H   0  0  0  0  0  0  0  0  0  0  0  0
  1  2  2  0
  2  3  1  0
  3  4  1  0
  4  5  1  0
  5  6  1  0
  5  7  2  0
  7  8  1  0
  8  9  1  0
  9 10  1  0
 10 11  2  0
 10 12  1  0
 12 13  1  0
 13 14  2  0
 14 15  1  0
 15 16  2  0
 16 17  1  0
 17 18  2  0
 18 19  1  0
 19 20  2  0
 20 21  1  0
 21 22  2  0
  8 23  1  0
 23 24  2  0
  2 25  1  0
 25 26  1  0
 26 27  2  0
 27 28  1  0
 28 29  2  0
 29 30  1  0
 30 31  2  0
 23  4  1  0
 31 26  1  0
 21 12  1  0
 20 15  1  0
  3 32  1  0
  3 33  1  0
  7 34  1  0
  9 35  1  0
  9 36  1  0
 13 37  1  0
 16 38  1  0
 17 39  1  0
 18 40  1  0
 19 41  1  0
 25 42  1  0
 27 43  1  0
 28 44  1  0
 29 45  1  0
 30 46  1  0
 31 47  1  0
M  CHG  1   6  -1
M  END
>  <UniqueID>  (86) 
82

>  <SMILES>  (86) 
O=C(Cn1c([O-])cn(CC(=O)n2cnc3ccccc3c2=O)c1=O)Nc1ccccc1

>  <Energy>  (86) 
91.44486431295749

>  <Genealogy>  (86) 
O=C(Cn1c([O-])cn(CC(=O)n2cnc3ccccc3c2=O)c1=O)Nc1ccccc1 (protonated)
O=C(Cn1c([O-])cn(CC(=O)n2cnc3ccccc3c2=O)c1=O)Nc1ccccc1 (3D coordinates assigned)
O=C(Cn1c([O-])cn(CC(=O)n2cnc3ccccc3c2=O)c1=O)Nc1ccccc1 (optimized conformer: 91.44486431295749 kcal/mol)

>  <smiles>  (86) 
O=C(Cn1c(O)cn(CC(=O)n2cnc3ccccc3c2=O)c1=O)Nc1ccccc1

>  <score_type>  (86) 
oracle

>  <origin>  (86) 
adg

>  <m_score__min__energy>  (86) 
-11.119999999999999

>  <m_primary>  (86) 
energy

$$$$
86:0
     RDKit          3D

 46 48  0  0  0  0  0  0  0  0999 V2000
   52.9077   25.3130   45.3887 H   0  0  0  0  0  0  0  0  0  0  0  0
   53.8190   24.7060   45.4940 C   0  0  0  0  0  0  0  0  0  0  0  0
   53.7540   23.3240   45.3130 C   0  0  0  0  0  0  0  0  0  0  0  0
   52.5340   22.7300   45.0040 O   0  0  0  0  0  0  0  0  0  0  0  0
   54.9050   22.5390   45.4430 C   0  0  0  0  0  0  0  0  0  0  0  0
   54.7980   21.1220   45.2470 N   0  0  0  0  0  0  0  0  0  0  0  0
   55.9650   20.1090   44.4610 S   0  0  0  0  0  0  0  0  0  0  0  0
   56.8560   19.5000   45.5070 O   0  0  0  0  0  0  0  0  0  0  0  0
   55.2710   19.0030   43.7170 O   0  0  0  0  0  0  0  0  0  0  0  0
   56.9680   21.0730   43.3490 C   0  0  0  0  0  0  0  0  0  0  0  0
   57.6414   21.7202   43.9302 H   0  0  0  0  0  0  0  0  0  0  0  0
   57.5634   20.3996   42.7150 H   0  0  0  0  0  0  0  0  0  0  0  0
   56.3187   21.6947   42.7150 H   0  0  0  0  0  0  0  0  0  0  0  0
   56.1280   23.1600   45.7570 C   0  0  0  0  0  0  0  0  0  0  0  0
   57.0352   22.5471   45.8635 H   0  0  0  0  0  0  0  0  0  0  0  0
   56.2080   24.5550   45.9370 C   0  0  0  0  0  0  0  0  0  0  0  0
   57.5240   25.1640   46.2620 C   0  0  0  0  0  0  0  0  0  0  0  0
   58.7050   24.5350   46.0440 N   0  0  0  0  0  0  0  0  0  0  0  0
   59.7740   25.2580   46.3780 N   0  0  0  0  0  0  0  0  0  0  0  0
   59.4620   26.4750   46.8720 C   0  0  0  0  0  0  0  0  0  0  0  0
   60.3750   27.3370   47.2110 N   0  0  0  0  0  0  0  0  0  0  0  0
   60.3260   28.2830   48.2910 C   0  0  0  0  0  0  0  0  0  0  0  0
   60.0100   27.8680   49.4390 O   0  0  0  0  0  0  0  0  0  0  0  0
   60.6070   29.7500   48.0860 C   0  0  0  0  0  0  0  0  0  0  0  0
   61.6598   29.8748   47.7925 H   0  0  0  0  0  0  0  0  0  0  0  0
   60.3986   30.2767   49.0289 H   0  0  0  0  0  0  0  0  0  0  0  0
   59.7270   30.3350   47.0130 C   0  0  0  0  0  0  0  0  0  0  0  0
   58.7820   29.5310   46.3550 C   0  0  0  0  0  0  0  0  0  0  0  0
   58.6968   28.4648   46.6120 H   0  0  0  0  0  0  0  0  0  0  0  0
   57.9490   30.0790   45.3750 C   0  0  0  0  0  0  0  0  0  0  0  0
   57.2275   29.4362   44.8494 H   0  0  0  0  0  0  0  0  0  0  0  0
   58.0270   31.4410   45.0580 C   0  0  0  0  0  0  0  0  0  0  0  0
   57.1800   31.9610   44.0260 N   0  0  0  0  0  0  0  0  0  0  0  0
   57.1340   31.5310   42.6580 C   0  0  0  0  0  0  0  0  0  0  0  0
   56.5520   30.4500   42.3780 O   0  0  0  0  0  0  0  0  0  0  0  0
   57.7220   32.3470   41.5470 C   0  0  0  0  0  0  0  0  0  0  0  0
   58.3153   33.1704   41.9712 H   0  0  0  0  0  0  0  0  0  0  0  0
   58.3698   31.7097   40.9272 H   0  0  0  0  0  0  0  0  0  0  0  0
   56.9125   32.7598   40.9272 H   0  0  0  0  0  0  0  0  0  0  0  0
   58.9830   32.2440   45.7040 C   0  0  0  0  0  0  0  0  0  0  0  0
   59.0754   33.3072   45.4374 H   0  0  0  0  0  0  0  0  0  0  0  0
   59.8170   31.6970   46.6840 C   0  0  0  0  0  0  0  0  0  0  0  0
   60.5476   32.3372   47.2000 H   0  0  0  0  0  0  0  0  0  0  0  0
   57.7900   26.7110   46.8870 S   0  0  0  0  0  0  0  0  0  0  0  0
   55.0320   25.3260   45.8080 C   0  0  0  0  0  0  0  0  0  0  0  0
   55.0400   26.7020   46.0030 O   0  0  0  0  0  0  0  0  0  0  0  0
  1  2  1  0
  2  3  2  0
  3  4  1  0
  3  5  1  0
  5  6  1  0
  6  7  1  0
  7  8  2  0
  7  9  2  0
  7 10  1  0
 10 11  1  0
 10 12  1  0
 10 13  1  0
  5 14  2  0
 14 15  1  0
 14 16  1  0
 16 17  1  0
 17 18  2  0
 18 19  1  0
 19 20  1  0
 20 21  2  0
 21 22  1  0
 22 23  2  0
 22 24  1  0
 24 25  1  0
 24 26  1  0
 24 27  1  0
 27 28  2  0
 28 29  1  0
 28 30  1  0
 30 31  1  0
 30 32  2  0
 32 33  1  0
 33 34  1  0
 34 35  2  0
 34 36  1  0
 36 37  1  0
 36 38  1  0
 36 39  1  0
 32 40  1  0
 40 41  1  0
 40 42  2  0
 42 43  1  0
 20 44  1  0
 16 45  2  0
 45 46  1  0
 45  2  1  0
 44 17  1  0
 42 27  1  0
M  CHG  5   4  -1   6  -1  19  -1  33  -1  46  -1
M  END
>  <UniqueID>  (87) 
83

>  <SMILES>  (87) 
CC(=O)[N-]c1ccc(CC(=O)/N=c2/[n-]nc(-c3cc([N-]S(C)(=O)=O)c([O-])cc3[O-])s2)cc1

>  <Energy>  (87) 
94.70994451467224

>  <Genealogy>  (87) 
CC(=O)[N-]c1ccc(CC(=O)N=c2[n-]nc(-c3cc([N-]S(C)(=O)=O)c([O-])cc3[O-])s2)cc1 (protonated)
CC(=O)[N-]c1ccc(CC(=O)/N=c2/[n-]nc(-c3cc([N-]S(C)(=O)=O)c([O-])cc3[O-])s2)cc1 (cis-trans isomerization)
CC(=O)[N-]c1ccc(CC(=O)/N=c2/[n-]nc(-c3cc([N-]S(C)(=O)=O)c([O-])cc3[O-])s2)cc1 (3D coordinates assigned)
CC(=O)[N-]c1ccc(CC(=O)/N=c2/[n-]nc(-c3cc([N-]S(C)(=O)=O)c([O-])cc3[O-])s2)cc1 (optimized conformer: 94.70994451467224 kcal/mol)

>  <smiles>  (87) 
CC(=O)Nc1ccc(CC(=O)N=c2[nH]nc(-c3cc(NS(C)(=O)=O)c(O)cc3O)s2)cc1

>  <score_type>  (87) 
oracle

>  <origin>  (87) 
adg

>  <m_score__min__energy>  (87) 
-16.109999999999999

>  <m_primary>  (87) 
energy

$$$$
