0:0
     RDKit          3D

 60 63  0  0  0  0  0  0  0  0999 V2000
   57.0180   23.6580   47.7440 C   0  0  0  0  0  0  0  0  0  0  0  0
   57.2780   24.5790   46.5890 C   0  0  0  0  0  0  0  0  0  0  0  0
   57.2040   24.1000   45.2710 C   0  0  0  0  0  0  0  0  0  0  0  0
   57.4040   24.9680   44.1940 C   0  0  0  0  0  0  0  0  0  0  0  0
   57.6770   26.3270   44.4200 C   0  0  0  0  0  0  0  0  0  0  0  0
   57.8470   27.2740   43.2640 C   0  0  0  0  0  0  0  0  0  0  0  0
   58.2890   28.5780   43.7510 N   0  0  0  0  0  0  0  0  0  0  0  0
   57.3650   29.5760   44.2190 C   0  0  0  0  0  0  0  0  0  0  0  0
   56.1270   29.3340   44.2040 O   0  0  0  0  0  0  0  0  0  0  0  0
   57.8420   30.8810   44.7400 C   0  0  0  0  0  0  0  0  0  0  0  0
   59.0120   30.9390   45.5180 C   0  0  0  0  0  0  0  0  0  0  0  0
   59.4740   32.1610   46.0170 C   0  0  0  0  0  0  0  0  0  0  0  0
   58.7760   33.3460   45.7440 C   0  0  0  0  0  0  0  0  0  0  0  0
   59.2540   34.6570   46.3080 C   0  0  0  0  0  0  0  0  0  0  0  0
   59.9120   34.4620   47.6420 C   0  0  0  0  0  0  0  0  0  0  0  0
   59.2890   34.5820   48.7720 N   0  0  0  0  0  0  0  0  0  0  0  0
   60.2300   34.1970   49.7760 C   0  0  0  0  0  0  0  0  0  0  0  0
   59.9460   34.1610   51.0010 O   0  0  0  0  0  0  0  0  0  0  0  0
   61.5020   33.8160   49.2510 N   0  0  0  0  0  0  0  0  0  0  0  0
   62.4910   32.9680   49.9320 C   0  0  1  0  0  0  0  0  0  0  0  0
   62.6320   31.5890   49.2360 C   0  0  0  0  0  0  0  0  0  0  0  0
   61.3350   30.8210   49.1240 C   0  0  0  0  0  0  0  0  0  0  0  0
   60.3330   30.9620   50.1000 C   0  0  0  0  0  0  0  0  0  0  0  0
   59.1470   30.2280   50.0030 C   0  0  0  0  0  0  0  0  0  0  0  0
   58.9510   29.3500   48.9330 C   0  0  0  0  0  0  0  0  0  0  0  0
   59.9390   29.2090   47.9540 C   0  0  0  0  0  0  0  0  0  0  0  0
   61.1230   29.9450   48.0440 C   0  0  0  0  0  0  0  0  0  0  0  0
   63.8060   33.6870   50.1160 C   0  0  0  0  0  0  0  0  0  0  0  0
   63.9100   34.6260   50.9490 O   0  0  0  0  0  0  0  0  0  0  0  0
   64.8780   33.4160   49.2730 O   0  0  0  0  0  0  0  0  0  0  0  0
   61.2620   33.9590   47.8540 C   0  0  0  0  0  0  0  0  0  0  0  0
   62.0780   33.6340   46.9500 O   0  0  0  0  0  0  0  0  0  0  0  0
   57.5960   33.2900   44.9890 C   0  0  0  0  0  0  0  0  0  0  0  0
   57.1310   32.0700   44.4910 C   0  0  0  0  0  0  0  0  0  0  0  0
   57.7240   26.8110   45.7370 C   0  0  0  0  0  0  0  0  0  0  0  0
   57.5250   25.9430   46.8160 C   0  0  0  0  0  0  0  0  0  0  0  0
   57.1714   24.2014   48.6880 H   0  0  0  0  0  0  0  0  0  0  0  0
   55.9816   23.2926   47.6955 H   0  0  0  0  0  0  0  0  0  0  0  0
   57.7103   22.8046   47.6955 H   0  0  0  0  0  0  0  0  0  0  0  0
   56.9878   23.0375   45.0855 H   0  0  0  0  0  0  0  0  0  0  0  0
   57.3473   24.5849   43.1644 H   0  0  0  0  0  0  0  0  0  0  0  0
   58.5981   26.8703   42.5691 H   0  0  0  0  0  0  0  0  0  0  0  0
   56.8840   27.3885   42.7448 H   0  0  0  0  0  0  0  0  0  0  0  0
   59.3140   28.7090   43.9050 H   0  0  0  0  0  0  0  0  0  0  0  0
   59.5684   30.0155   45.7359 H   0  0  0  0  0  0  0  0  0  0  0  0
   60.3892   32.1927   46.6265 H   0  0  0  0  0  0  0  0  0  0  0  0
   59.9784   35.1050   45.6119 H   0  0  0  0  0  0  0  0  0  0  0  0
   58.3852   35.3187   46.4398 H   0  0  0  0  0  0  0  0  0  0  0  0
   62.1201   32.7575   50.9460 H   0  0  0  0  0  0  0  0  0  0  0  0
   63.0260   31.7521   48.2220 H   0  0  0  0  0  0  0  0  0  0  0  0
   63.3064   30.9849   49.8607 H   0  0  0  0  0  0  0  0  0  0  0  0
   60.4827   31.6524   50.9432 H   0  0  0  0  0  0  0  0  0  0  0  0
   58.3667   30.3416   50.7700 H   0  0  0  0  0  0  0  0  0  0  0  0
   58.0191   28.7699   48.8613 H   0  0  0  0  0  0  0  0  0  0  0  0
   59.7840   28.5180   47.1122 H   0  0  0  0  0  0  0  0  0  0  0  0
   61.8936   29.8389   47.2662 H   0  0  0  0  0  0  0  0  0  0  0  0
   57.0323   34.2128   44.7873 H   0  0  0  0  0  0  0  0  0  0  0  0
   56.2034   32.0386   43.9006 H   0  0  0  0  0  0  0  0  0  0  0  0
   57.9182   27.8779   45.9214 H   0  0  0  0  0  0  0  0  0  0  0  0
   57.5621   26.3298   47.8451 H   0  0  0  0  0  0  0  0  0  0  0  0
  1  2  1  0
  2  3  2  0
  3  4  1  0
  4  5  2  0
  5  6  1  0
  6  7  1  0
  7  8  1  0
  8  9  2  0
  8 10  1  0
 10 11  2  0
 11 12  1  0
 12 13  2  0
 13 14  1  0
 14 15  1  0
 15 16  2  0
 16 17  1  0
 17 18  2  0
 17 19  1  0
 19 20  1  0
 20 21  1  0
 21 22  1  0
 22 23  2  0
 23 24  1  0
 24 25  2  0
 25 26  1  0
 26 27  2  0
 20 28  1  0
 28 29  2  0
 28 30  1  0
 19 31  1  0
 31 32  2  0
 13 33  1  0
 33 34  2  0
  5 35  1  0
 35 36  2  0
 36  2  1  0
 34 10  1  0
 31 15  1  0
 27 22  1  0
  1 37  1  0
  1 38  1  0
  1 39  1  0
  3 40  1  0
  4 41  1  0
  6 42  1  0
  6 43  1  0
  7 44  1  0
 11 45  1  0
 12 46  1  0
 14 47  1  0
 14 48  1  0
 20 49  1  1
 21 50  1  0
 21 51  1  0
 23 52  1  0
 24 53  1  0
 25 54  1  0
 26 55  1  0
 27 56  1  0
 33 57  1  0
 34 58  1  0
 35 59  1  0
 36 60  1  0
M  CHG  1  30  -1
M  END
>  <UniqueID>  (1) 
1

>  <SMILES>  (1) 
Cc1ccc(CNC(=O)c2ccc(CC3=NC(=O)N([C@@H](Cc4ccccc4)C(=O)[O-])C3=O)cc2)cc1

>  <Energy>  (1) 
91.05820957528942

>  <Genealogy>  (1) 
Cc1ccc(CNC(=O)c2ccc(CC3=NC(=O)N(C(Cc4ccccc4)C(=O)[O-])C3=O)cc2)cc1 (protonated)
Cc1ccc(CNC(=O)c2ccc(CC3=NC(=O)N([C@@H](Cc4ccccc4)C(=O)[O-])C3=O)cc2)cc1 (chirality)
Cc1ccc(CNC(=O)c2ccc(CC3=NC(=O)N([C@@H](Cc4ccccc4)C(=O)[O-])C3=O)cc2)cc1 (3D coordinates assigned)
Cc1ccc(CNC(=O)c2ccc(CC3=NC(=O)N([C@@H](Cc4ccccc4)C(=O)[O-])C3=O)cc2)cc1 (nonaromatic ring conformer: 91.05820957528942 kcal/mol)

>  <smiles>  (1) 
Cc1ccc(CNC(=O)c2ccc(CC3=NC(=O)N(C(Cc4ccccc4)C(=O)O)C3=O)cc2)cc1

>  <score_type>  (1) 
oracle

>  <origin>  (1) 
adg

>  <m_score__min__energy>  (1) 
-12.199999999999999

>  <m_primary>  (1) 
energy

$$$$
1:0
     RDKit          3D

 64 68  0  0  0  0  0  0  0  0999 V2000
   55.5230   28.5870   44.8770 O   0  0  0  0  0  0  0  0  0  0  0  0
   56.4970   29.3640   45.0470 C   0  0  0  0  0  0  0  0  0  0  0  0
   56.3390   30.7590   44.7750 N   0  0  0  0  0  0  0  0  0  0  0  0
   57.2970   31.5060   43.9660 C   0  0  0  0  0  0  0  0  0  0  0  0
   57.8110   32.7010   44.7220 C   0  0  0  0  0  0  0  0  0  0  0  0
   57.3820   32.9420   46.0380 C   0  0  0  0  0  0  0  0  0  0  0  0
   57.8920   34.0270   46.7590 C   0  0  0  0  0  0  0  0  0  0  0  0
   58.8370   34.8730   46.1740 C   0  0  0  0  0  0  0  0  0  0  0  0
   59.2720   34.6380   44.8670 C   0  0  0  0  0  0  0  0  0  0  0  0
   58.7650   33.5550   44.1420 C   0  0  0  0  0  0  0  0  0  0  0  0
   57.7580   28.8270   45.4590 N   0  0  0  0  0  0  0  0  0  0  0  0
   58.4890   29.2330   46.6230 C   0  0  0  0  0  0  0  0  0  0  0  0
   58.4640   28.4850   47.8040 C   0  0  0  0  0  0  0  0  0  0  0  0
   59.1500   28.9420   48.9260 C   0  0  0  0  0  0  0  0  0  0  0  0
   59.8540   30.1480   48.8620 C   0  0  0  0  0  0  0  0  0  0  0  0
   60.4840   30.6010   49.9730 N   0  0  0  0  0  0  0  0  0  0  0  0
   61.1650   31.7710   49.9810 C   0  0  0  0  0  0  0  0  0  0  0  0
   61.8330   32.1710   51.1830 N   0  0  0  0  0  0  0  0  0  0  0  0
   62.8410   31.2640   51.7470 C   0  0  0  0  0  0  0  0  0  0  0  0
   63.6950   31.9270   52.8470 C   0  0  0  0  0  0  0  0  0  0  0  0
   63.5460   33.3310   52.8760 O   0  0  0  0  0  0  0  0  0  0  0  0
   62.1960   33.6470   53.1320 C   0  0  0  0  0  0  0  0  0  0  0  0
   61.3510   33.3610   51.8920 C   0  0  0  0  0  0  0  0  0  0  0  0
   61.2350   32.5470   48.8080 C   0  0  0  0  0  0  0  0  0  0  0  0
   62.0070   33.8510   48.7700 C   0  0  0  0  0  0  0  0  0  0  0  0
   63.4800   33.6110   48.9070 C   0  0  0  0  0  0  0  0  0  0  0  0
   64.1640   33.3570   47.8800 O   0  0  0  0  0  0  0  0  0  0  0  0
   64.1150   33.7490   50.1890 N   0  0  0  0  0  0  0  0  0  0  0  0
   65.4290   33.2570   50.5030 C   0  0  0  0  0  0  0  0  0  0  0  0
   65.8310   31.9510   50.1610 C   0  0  0  0  0  0  0  0  0  0  0  0
   67.0960   31.4830   50.5280 C   0  0  0  0  0  0  0  0  0  0  0  0
   67.9690   32.3070   51.2410 C   0  0  0  0  0  0  0  0  0  0  0  0
   67.5770   33.6020   51.5960 C   0  0  0  0  0  0  0  0  0  0  0  0
   66.3090   34.0710   51.2360 C   0  0  0  0  0  0  0  0  0  0  0  0
   60.5960   32.0550   47.6530 C   0  0  0  0  0  0  0  0  0  0  0  0
   60.6630   32.7180   46.5790 O   0  0  0  0  0  0  0  0  0  0  0  0
   59.9030   30.8690   47.6910 N   0  0  0  0  0  0  0  0  0  0  0  0
   59.2480   30.4050   46.5770 C   0  0  0  0  0  0  0  0  0  0  0  0
   58.1419   30.8502   43.7089 H   0  0  0  0  0  0  0  0  0  0  0  0
   56.7936   31.8544   43.0521 H   0  0  0  0  0  0  0  0  0  0  0  0
   56.6418   32.2746   46.5035 H   0  0  0  0  0  0  0  0  0  0  0  0
   57.5486   34.2140   47.7872 H   0  0  0  0  0  0  0  0  0  0  0  0
   59.2390   35.7247   46.7424 H   0  0  0  0  0  0  0  0  0  0  0  0
   60.0149   35.3064   44.4074 H   0  0  0  0  0  0  0  0  0  0  0  0
   59.1137   33.3709   43.1151 H   0  0  0  0  0  0  0  0  0  0  0  0
   57.9044   27.5389   47.8465 H   0  0  0  0  0  0  0  0  0  0  0  0
   59.1381   28.3573   49.8577 H   0  0  0  0  0  0  0  0  0  0  0  0
   62.3270   30.3926   52.1789 H   0  0  0  0  0  0  0  0  0  0  0  0
   63.5195   30.9753   50.9308 H   0  0  0  0  0  0  0  0  0  0  0  0
   63.3911   31.5200   53.8227 H   0  0  0  0  0  0  0  0  0  0  0  0
   64.7504   31.7078   52.6278 H   0  0  0  0  0  0  0  0  0  0  0  0
   61.8311   33.0361   53.9709 H   0  0  0  0  0  0  0  0  0  0  0  0
   62.1158   34.7141   53.3867 H   0  0  0  0  0  0  0  0  0  0  0  0
   60.3075   33.1973   52.1991 H   0  0  0  0  0  0  0  0  0  0  0  0
   61.4256   34.2238   51.2138 H   0  0  0  0  0  0  0  0  0  0  0  0
   61.8129   34.3555   47.8120 H   0  0  0  0  0  0  0  0  0  0  0  0
   61.6757   34.4774   49.6113 H   0  0  0  0  0  0  0  0  0  0  0  0
   63.6080   34.2910   50.9260 H   0  0  0  0  0  0  0  0  0  0  0  0
   65.1461   31.2962   49.6024 H   0  0  0  0  0  0  0  0  0  0  0  0
   67.4044   30.4632   50.2544 H   0  0  0  0  0  0  0  0  0  0  0  0
   68.9658   31.9375   51.5238 H   0  0  0  0  0  0  0  0  0  0  0  0
   68.2650   34.2510   52.1577 H   0  0  0  0  0  0  0  0  0  0  0  0
   65.9986   35.0848   51.5290 H   0  0  0  0  0  0  0  0  0  0  0  0
   59.3221   30.9651   45.6332 H   0  0  0  0  0  0  0  0  0  0  0  0
  1  2  2  0
  2  3  1  0
  3  4  1  0
  4  5  1  0
  5  6  2  0
  6  7  1  0
  7  8  2  0
  8  9  1  0
  9 10  2  0
  2 11  1  0
 11 12  1  0
 12 13  1  0
 13 14  2  0
 14 15  1  0
 15 16  2  0
 16 17  1  0
 17 18  1  0
 18 19  1  0
 19 20  1  0
 20 21  1  0
 21 22  1  0
 22 23  1  0
 17 24  2  0
 24 25  1  0
 25 26  1  0
 26 27  2  0
 26 28  1  0
 28 29  1  0
 29 30  2  0
 30 31  1  0
 31 32  2  0
 32 33  1  0
 33 34  2  0
 24 35  1  0
 35 36  2  0
 35 37  1  0
 37 38  1  0
 10  5  1  0
 38 12  2  0
 37 15  1  0
 23 18  1  0
 34 29  1  0
  4 39  1  0
  4 40  1  0
  6 41  1  0
  7 42  1  0
  8 43  1  0
  9 44  1  0
 10 45  1  0
 13 46  1  0
 14 47  1  0
 19 48  1  0
 19 49  1  0
 20 50  1  0
 20 51  1  0
 22 52  1  0
 22 53  1  0
 23 54  1  0
 23 55  1  0
 25 56  1  0
 25 57  1  0
 28 58  1  0
 30 59  1  0
 31 60  1  0
 32 61  1  0
 33 62  1  0
 34 63  1  0
 38 64  1  0
M  CHG  2   3  -1  11  -1
M  END
>  <UniqueID>  (2) 
2

>  <SMILES>  (2) 
O=C([N-]Cc1ccccc1)[N-]c1ccc2nc(N3CCOCC3)c(CC(=O)Nc3ccccc3)c(=O)n2c1

>  <Energy>  (2) 
91.27681496370174

>  <Genealogy>  (2) 
O=C([N-]Cc1ccccc1)[N-]c1ccc2nc(N3CCOCC3)c(CC(=O)Nc3ccccc3)c(=O)n2c1 (protonated)
O=C([N-]Cc1ccccc1)[N-]c1ccc2nc(N3CCOCC3)c(CC(=O)Nc3ccccc3)c(=O)n2c1 (3D coordinates assigned)
O=C([N-]Cc1ccccc1)[N-]c1ccc2nc(N3CCOCC3)c(CC(=O)Nc3ccccc3)c(=O)n2c1 (nonaromatic ring conformer: 91.27681496370174 kcal/mol)

>  <smiles>  (2) 
O=C(Cc1c(N2CCOCC2)nc2ccc(NC(=O)NCc3ccccc3)cn2c1=O)Nc1ccccc1

>  <score_type>  (2) 
oracle

>  <origin>  (2) 
adg

>  <m_score__min__energy>  (2) 
-13.1

>  <m_primary>  (2) 
energy

$$$$
2:0
     RDKit          3D

 38 39  0  0  0  0  0  0  0  0999 V2000
   58.1520   31.7800   47.3520 N   0  0  0  0  0  0  0  0  0  0  0  0
   58.4760   33.1610   46.3650 S   0  0  0  0  0  0  0  0  0  0  0  0
   58.1600   34.4100   47.1380 O   0  0  0  0  0  0  0  0  0  0  0  0
   59.9290   33.1730   45.9810 O   0  0  0  0  0  0  0  0  0  0  0  0
   57.4570   33.1120   44.8970 C   0  0  0  0  0  0  0  0  0  0  0  0
   57.3960   31.7110   44.2900 C   0  0  0  0  0  0  0  0  0  0  0  0
   56.2640   30.9730   44.8380 N   0  0  0  0  0  0  0  0  0  0  0  0
   56.1710   29.5450   44.8890 C   0  0  0  0  0  0  0  0  0  0  0  0
   55.1510   28.9850   44.4050 O   0  0  0  0  0  0  0  0  0  0  0  0
   57.2290   28.7000   45.5390 C   0  0  0  0  0  0  0  0  0  0  0  0
   56.7730   27.2780   45.6530 C   0  0  0  0  0  0  0  0  0  0  0  0
   55.5130   26.9080   45.9420 N   0  0  0  0  0  0  0  0  0  0  0  0
   55.5790   25.5600   45.9480 C   0  0  0  0  0  0  0  0  0  0  0  0
   54.5780   24.8330   46.1830 O   0  0  0  0  0  0  0  0  0  0  0  0
   56.8000   25.0520   45.6840 N   0  0  0  0  0  0  0  0  0  0  0  0
   57.5490   26.1550   45.4990 C   0  0  0  0  0  0  0  0  0  0  0  0
   58.9130   26.1490   45.1950 O   0  0  0  0  0  0  0  0  0  0  0  0
   59.9290   26.1130   46.1930 C   0  0  0  0  0  0  0  0  0  0  0  0
   60.1860   27.4980   46.7190 C   0  0  0  0  0  0  0  0  0  0  0  0
   60.4350   28.5510   45.8230 C   0  0  0  0  0  0  0  0  0  0  0  0
   60.6400   29.8500   46.3000 C   0  0  0  0  0  0  0  0  0  0  0  0
   60.5880   30.1070   47.6740 C   0  0  0  0  0  0  0  0  0  0  0  0
   60.3320   29.0660   48.5720 C   0  0  0  0  0  0  0  0  0  0  0  0
   60.1290   27.7660   48.0970 C   0  0  0  0  0  0  0  0  0  0  0  0
   57.4900   31.1730   46.8180 H   0  0  0  0  0  0  0  0  0  0  0  0
   56.4375   33.4293   45.1614 H   0  0  0  0  0  0  0  0  0  0  0  0
   57.9024   33.7867   44.1511 H   0  0  0  0  0  0  0  0  0  0  0  0
   57.2826   31.7925   43.1989 H   0  0  0  0  0  0  0  0  0  0  0  0
   58.3252   31.1744   44.5323 H   0  0  0  0  0  0  0  0  0  0  0  0
   58.1454   28.7380   44.9317 H   0  0  0  0  0  0  0  0  0  0  0  0
   57.4243   29.0913   46.5483 H   0  0  0  0  0  0  0  0  0  0  0  0
   59.6040   25.4643   47.0198 H   0  0  0  0  0  0  0  0  0  0  0  0
   60.8553   25.7186   45.7497 H   0  0  0  0  0  0  0  0  0  0  0  0
   60.4689   28.3532   44.7415 H   0  0  0  0  0  0  0  0  0  0  0  0
   60.8421   30.6694   45.5945 H   0  0  0  0  0  0  0  0  0  0  0  0
   60.7486   31.1288   48.0484 H   0  0  0  0  0  0  0  0  0  0  0  0
   60.2902   29.2695   49.6522 H   0  0  0  0  0  0  0  0  0  0  0  0
   59.9238   26.9500   48.8055 H   0  0  0  0  0  0  0  0  0  0  0  0
  1  2  1  0
  2  3  2  0
  2  4  2  0
  2  5  1  0
  5  6  1  0
  6  7  1  0
  7  8  1  0
  8  9  2  0
  8 10  1  0
 10 11  1  0
 11 12  1  0
 12 13  1  0
 13 14  2  0
 13 15  1  0
 15 16  1  0
 16 17  1  0
 17 18  1  0
 18 19  1  0
 19 20  2  0
 20 21  1  0
 21 22  2  0
 22 23  1  0
 23 24  2  0
 16 11  2  0
 24 19  1  0
  1 25  1  0
  5 26  1  0
  5 27  1  0
  6 28  1  0
  6 29  1  0
 10 30  1  0
 10 31  1  0
 18 32  1  0
 18 33  1  0
 20 34  1  0
 21 35  1  0
 22 36  1  0
 23 37  1  0
 24 38  1  0
M  CHG  4   1  -1   7  -1  12  -1  15  -1
M  END
>  <UniqueID>  (3) 
3

>  <SMILES>  (3) 
[NH-]S(=O)(=O)CC[N-]C(=O)Cc1[n-]c(=O)[n-]c1OCc1ccccc1

>  <Energy>  (3) 
53.69294559641584

>  <Genealogy>  (3) 
[NH-]S(=O)(=O)CC[N-]C(=O)Cc1[n-]c(=O)[n-]c1OCc1ccccc1 (protonated)
[NH-]S(=O)(=O)CC[N-]C(=O)Cc1[n-]c(=O)[n-]c1OCc1ccccc1 (3D coordinates assigned)
[NH-]S(=O)(=O)CC[N-]C(=O)Cc1[n-]c(=O)[n-]c1OCc1ccccc1 (optimized conformer: 53.69294559641584 kcal/mol)

>  <smiles>  (3) 
NS(=O)(=O)CCNC(=O)Cc1[nH]c(=O)[nH]c1OCc1ccccc1

>  <score_type>  (3) 
oracle

>  <origin>  (3) 
adg

>  <m_score__min__energy>  (3) 
-14.67

>  <m_primary>  (3) 
energy

$$$$
3:0
     RDKit          3D

 40 42  0  0  0  0  0  0  0  0999 V2000
   57.5372   22.2984   45.0541 H   0  0  0  0  0  0  0  0  0  0  0  0
   56.8720   23.1580   45.2230 C   0  0  0  0  0  0  0  0  0  0  0  0
   57.2990   24.2110   45.9700 N   0  0  0  0  0  0  0  0  0  0  0  0
   56.5230   25.3040   46.2110 C   0  0  0  0  0  0  0  0  0  0  0  0
   57.0380   26.2610   46.9340 N   0  0  0  0  0  0  0  0  0  0  0  0
   58.4030   26.4650   47.3260 C   0  0  0  0  0  0  0  0  0  0  0  0
   58.8940   25.7830   48.2680 O   0  0  0  0  0  0  0  0  0  0  0  0
   59.2010   27.5500   46.7080 C   0  0  0  0  0  0  0  0  0  0  0  0
   60.0800   27.2740   45.6450 C   0  0  0  0  0  0  0  0  0  0  0  0
   60.1840   26.2429   45.2763 H   0  0  0  0  0  0  0  0  0  0  0  0
   60.8220   28.3000   45.0540 C   0  0  0  0  0  0  0  0  0  0  0  0
   61.5060   28.0733   44.2229 H   0  0  0  0  0  0  0  0  0  0  0  0
   60.6980   29.6120   45.5150 C   0  0  0  0  0  0  0  0  0  0  0  0
   61.2796   30.4168   45.0416 H   0  0  0  0  0  0  0  0  0  0  0  0
   59.8340   29.9070   46.5800 C   0  0  0  0  0  0  0  0  0  0  0  0
   59.6690   31.3290   47.0520 C   0  0  0  0  0  0  0  0  0  0  0  0
   59.9585   31.3907   48.1114 H   0  0  0  0  0  0  0  0  0  0  0  0
   60.3098   31.9760   46.4349 H   0  0  0  0  0  0  0  0  0  0  0  0
   58.2220   31.8000   46.9030 C   0  0  0  0  0  0  0  0  0  0  0  0
   57.7890   31.9656   47.9005 H   0  0  0  0  0  0  0  0  0  0  0  0
   58.2064   32.7372   46.3273 H   0  0  0  0  0  0  0  0  0  0  0  0
   57.4350   30.7920   46.1960 N   0  0  0  0  0  0  0  0  0  0  0  0
   57.1990   30.8120   44.9170 C   0  0  0  0  0  0  0  0  0  0  0  0
   57.9700   31.5620   44.0780 N   0  0  0  0  0  0  0  0  0  0  0  0
   57.7440   31.6010   42.7380 C   0  0  0  0  0  0  0  0  0  0  0  0
   58.3863   32.2158   42.0903 H   0  0  0  0  0  0  0  0  0  0  0  0
   56.6980   30.8620   42.1830 C   0  0  0  0  0  0  0  0  0  0  0  0
   56.5109   30.8899   41.0994 H   0  0  0  0  0  0  0  0  0  0  0  0
   55.8920   30.0870   43.0190 C   0  0  0  0  0  0  0  0  0  0  0  0
   55.0636   29.5000   42.5958 H   0  0  0  0  0  0  0  0  0  0  0  0
   56.1390   30.0580   44.3940 C   0  0  0  0  0  0  0  0  0  0  0  0
   55.3350   29.2870   45.2260 O   0  0  0  0  0  0  0  0  0  0  0  0
   59.0810   28.8760   47.1650 C   0  0  0  0  0  0  0  0  0  0  0  0
   58.3900   29.1071   47.9891 H   0  0  0  0  0  0  0  0  0  0  0  0
   55.1990   25.3230   45.7010 C   0  0  0  0  0  0  0  0  0  0  0  0
   54.2990   26.3410   45.9940 O   0  0  0  0  0  0  0  0  0  0  0  0
   54.7560   24.2540   44.9170 C   0  0  0  0  0  0  0  0  0  0  0  0
   53.7418   24.2704   44.4914 H   0  0  0  0  0  0  0  0  0  0  0  0
   55.5940   23.1670   44.6720 C   0  0  0  0  0  0  0  0  0  0  0  0
   55.2494   22.3270   44.0510 H   0  0  0  0  0  0  0  0  0  0  0  0
  1  2  1  0
  2  3  1  0
  3  4  1  0
  4  5  2  3
  5  6  1  0
  6  7  2  0
  6  8  1  0
  8  9  2  0
  9 10  1  0
  9 11  1  0
 11 12  1  0
 11 13  2  0
 13 14  1  0
 13 15  1  0
 15 16  1  0
 16 17  1  0
 16 18  1  0
 16 19  1  0
 19 20  1  0
 19 21  1  0
 19 22  1  0
 22 23  2  0
 23 24  1  0
 24 25  1  0
 25 26  1  0
 25 27  2  0
 27 28  1  0
 27 29  1  0
 29 30  1  0
 29 31  2  0
 31 32  1  0
 15 33  2  0
 33 34  1  0
  4 35  1  0
 35 36  1  0
 35 37  2  0
 37 38  1  0
 37 39  1  0
 39 40  1  0
 39  2  2  0
 33  8  1  0
 31 23  1  0
M  CHG  4   3  -1  24  -1  32  -1  36  -1
M  END
>  <UniqueID>  (4) 
4

>  <SMILES>  (4) 
O=C(N=c1[n-]cccc1[O-])c1cccc(CC/N=c2/[n-]cccc2[O-])c1

>  <Energy>  (4) 
53.957380281818416

>  <Genealogy>  (4) 
O=C(N=c1[n-]cccc1[O-])c1cccc(CCN=c2[n-]cccc2[O-])c1 (protonated)
O=C(N=c1[n-]cccc1[O-])c1cccc(CC/N=c2/[n-]cccc2[O-])c1 (cis-trans isomerization)
O=C(N=c1[n-]cccc1[O-])c1cccc(CC/N=c2/[n-]cccc2[O-])c1 (3D coordinates assigned)
O=C(N=c1[n-]cccc1[O-])c1cccc(CC/N=c2/[n-]cccc2[O-])c1 (optimized conformer: 53.957380281818416 kcal/mol)

>  <smiles>  (4) 
O=C(N=c1[nH]cccc1O)c1cccc(CCN=c2[nH]cccc2O)c1

>  <score_type>  (4) 
oracle

>  <origin>  (4) 
adg

>  <m_score__min__energy>  (4) 
-16.27

>  <m_primary>  (4) 
energy

$$$$
4:0
     RDKit          3D

 40 42  0  0  0  0  0  0  0  0999 V2000
   58.3255   31.3553   47.9978 H   0  0  0  0  0  0  0  0  0  0  0  0
   58.2400   30.8340   47.0330 C   0  0  0  0  0  0  0  0  0  0  0  0
   58.3143   29.7373   46.9919 H   0  0  0  0  0  0  0  0  0  0  0  0
   58.0450   31.5360   45.9060 C   0  0  0  0  0  0  0  0  0  0  0  0
   57.9130   31.0490   44.5970 C   0  0  0  0  0  0  0  0  0  0  0  0
   57.8160   29.7900   44.1200 C   0  0  0  0  0  0  0  0  0  0  0  0
   57.9550   29.6481   43.0381 H   0  0  0  0  0  0  0  0  0  0  0  0
   57.5390   28.5890   44.9300 C   0  0  0  0  0  0  0  0  0  0  0  0
   56.2250   28.2210   45.2600 C   0  0  0  0  0  0  0  0  0  0  0  0
   55.1470   29.0060   44.8640 O   0  0  0  0  0  0  0  0  0  0  0  0
   55.9960   27.0880   45.9720 N   0  0  0  0  0  0  0  0  0  0  0  0
   57.0220   26.2860   46.3590 C   0  0  0  0  0  0  0  0  0  0  0  0
   56.7170   24.9300   47.2150 S   0  0  0  0  0  0  0  0  0  0  0  0
   58.2980   26.6050   46.0250 N   0  0  0  0  0  0  0  0  0  0  0  0
   58.5790   27.7290   45.3160 C   0  0  0  0  0  0  0  0  0  0  0  0
   59.7750   27.9910   45.0180 O   0  0  0  0  0  0  0  0  0  0  0  0
   57.8870   32.1980   43.8130 C   0  0  0  0  0  0  0  0  0  0  0  0
   57.7610   32.2670   42.3230 C   0  0  0  0  0  0  0  0  0  0  0  0
   56.8247   32.7797   42.0576 H   0  0  0  0  0  0  0  0  0  0  0  0
   58.6142   32.8238   41.9083 H   0  0  0  0  0  0  0  0  0  0  0  0
   57.7515   31.2482   41.9083 H   0  0  0  0  0  0  0  0  0  0  0  0
   57.9570   33.2910   44.5940 N   0  0  0  0  0  0  0  0  0  0  0  0
   58.0410   32.8930   45.8530 N   0  0  0  0  0  0  0  0  0  0  0  0
   58.2080   33.8400   46.9590 C   0  0  0  0  0  0  0  0  0  0  0  0
   58.0426   34.8623   46.5883 H   0  0  0  0  0  0  0  0  0  0  0  0
   57.4786   33.5994   47.7465 H   0  0  0  0  0  0  0  0  0  0  0  0
   59.5960   33.7400   47.5340 C   0  0  0  0  0  0  0  0  0  0  0  0
   59.7720   33.5700   48.9170 C   0  0  0  0  0  0  0  0  0  0  0  0
   58.8938   33.4940   49.5751 H   0  0  0  0  0  0  0  0  0  0  0  0
   61.0560   33.4970   49.4610 C   0  0  0  0  0  0  0  0  0  0  0  0
   61.1860   33.3715   50.5461 H   0  0  0  0  0  0  0  0  0  0  0  0
   62.1760   33.5830   48.6300 C   0  0  0  0  0  0  0  0  0  0  0  0
   63.1858   33.5362   49.0638 H   0  0  0  0  0  0  0  0  0  0  0  0
   62.0160   33.7290   47.2430 C   0  0  0  0  0  0  0  0  0  0  0  0
   63.2180   33.8600   46.3550 C   0  0  0  0  0  0  0  0  0  0  0  0
   64.1221   33.9585   46.9738 H   0  0  0  0  0  0  0  0  0  0  0  0
   63.3040   32.9659   45.7200 H   0  0  0  0  0  0  0  0  0  0  0  0
   63.1093   34.7516   45.7200 H   0  0  0  0  0  0  0  0  0  0  0  0
   60.7240   33.8200   46.7010 C   0  0  0  0  0  0  0  0  0  0  0  0
   60.5944   33.9548   45.6170 H   0  0  0  0  0  0  0  0  0  0  0  0
  1  2  1  0
  2  3  1  0
  2  4  2  0
  4  5  1  0
  5  6  2  0
  6  7  1  0
  6  8  1  0
  8  9  2  0
  9 10  1  0
  9 11  1  0
 11 12  1  0
 12 13  2  0
 12 14  1  0
 14 15  1  0
 15 16  2  0
  5 17  1  0
 17 18  1  0
 18 19  1  0
 18 20  1  0
 18 21  1  0
 17 22  2  0
 22 23  1  0
 23 24  1  0
 24 25  1  0
 24 26  1  0
 24 27  1  0
 27 28  2  0
 28 29  1  0
 28 30  1  0
 30 31  1  0
 30 32  2  0
 32 33  1  0
 32 34  1  0
 34 35  1  0
 35 36  1  0
 35 37  1  0
 35 38  1  0
 34 39  2  0
 39 40  1  0
 23  4  1  0
 39 27  1  0
 15  8  1  0
M  CHG  3  10  -1  11  -1  14  -1
M  END
>  <UniqueID>  (5) 
5

>  <SMILES>  (5) 
C=c1/c(=C\c2c([O-])[n-]c(=S)[n-]c2=O)c(C)nn1Cc1cccc(C)c1

>  <Energy>  (5) 
86.41030973407639

>  <Genealogy>  (5) 
C=c1c(=Cc2c([O-])[n-]c(=S)[n-]c2=O)c(C)nn1Cc1cccc(C)c1 (protonated)
C=c1/c(=C\c2c([O-])[n-]c(=S)[n-]c2=O)c(C)nn1Cc1cccc(C)c1 (cis-trans isomerization)
C=c1/c(=C\c2c([O-])[n-]c(=S)[n-]c2=O)c(C)nn1Cc1cccc(C)c1 (3D coordinates assigned)
C=c1/c(=C\c2c([O-])[n-]c(=S)[n-]c2=O)c(C)nn1Cc1cccc(C)c1 (optimized conformer: 86.41030973407639 kcal/mol)

>  <smiles>  (5) 
C=c1c(=Cc2c(O)[nH]c(=S)[nH]c2=O)c(C)nn1Cc1cccc(C)c1

>  <score_type>  (5) 
oracle

>  <origin>  (5) 
adg

>  <m_score__min__energy>  (5) 
-16.079999999999998

>  <m_primary>  (5) 
energy

$$$$
5:0
     RDKit          3D

 33 35  0  0  0  0  0  0  0  0999 V2000
   52.6229   30.6252   49.4196 H   0  0  0  0  0  0  0  0  0  0  0  0
   52.4730   30.7890   50.4970 C   0  0  0  0  0  0  0  0  0  0  0  0
   51.4640   31.6740   50.9380 C   0  0  0  0  0  0  0  0  0  0  0  0
   50.6690   32.3350   50.0100 O   0  0  0  0  0  0  0  0  0  0  0  0
   51.2640   31.8960   52.3140 C   0  0  0  0  0  0  0  0  0  0  0  0
   50.4871   32.5886   52.6700 H   0  0  0  0  0  0  0  0  0  0  0  0
   52.0820   31.2100   53.2110 C   0  0  0  0  0  0  0  0  0  0  0  0
   53.0520   30.3400   52.7820 C   0  0  0  0  0  0  0  0  0  0  0  0
   53.2870   30.1160   51.4250 C   0  0  0  0  0  0  0  0  0  0  0  0
   54.0837   29.4346   51.0919 H   0  0  0  0  0  0  0  0  0  0  0  0
   53.6840   29.8580   53.9140 C   0  0  0  0  0  0  0  0  0  0  0  0
   54.8360   28.9350   53.9830 C   0  0  0  0  0  0  0  0  0  0  0  0
   54.5870   27.5920   54.2720 C   0  0  0  0  0  0  0  0  0  0  0  0
   53.5557   27.2428   54.4285 H   0  0  0  0  0  0  0  0  0  0  0  0
   55.6450   26.7000   54.3610 C   0  0  0  0  0  0  0  0  0  0  0  0
   55.4496   25.6385   54.5730 H   0  0  0  0  0  0  0  0  0  0  0  0
   56.9190   27.1300   54.1880 N   0  0  0  0  0  0  0  0  0  0  0  0
   57.6880   26.4280   54.2880 H   0  0  0  0  0  0  0  0  0  0  0  0
   57.2290   28.4310   53.9080 C   0  0  0  0  0  0  0  0  0  0  0  0
   58.5030   28.7230   53.8190 N   0  0  0  0  0  0  0  0  0  0  0  0
   59.4530   28.6770   52.7090 C   0  0  0  0  0  0  0  0  0  0  0  0
   59.5844   27.6322   52.3910 H   0  0  0  0  0  0  0  0  0  0  0  0
   60.4100   29.0995   53.0489 H   0  0  0  0  0  0  0  0  0  0  0  0
   58.9510   29.5000   51.5250 C   0  0  0  0  0  0  0  0  0  0  0  0
   58.4117   30.3842   51.8955 H   0  0  0  0  0  0  0  0  0  0  0  0
   59.8066   29.8220   50.9133 H   0  0  0  0  0  0  0  0  0  0  0  0
   58.2731   28.8867   50.9133 H   0  0  0  0  0  0  0  0  0  0  0  0
   56.1620   29.3710   53.7520 C   0  0  0  0  0  0  0  0  0  0  0  0
   56.3760   31.0080   53.1120 Cl  0  0  0  0  0  0  0  0  0  0  0  0
   53.0660   30.4920   54.9880 C   0  0  0  0  0  0  0  0  0  0  0  0
   53.3408   30.3489   56.0435 H   0  0  0  0  0  0  0  0  0  0  0  0
   52.0810   31.3080   54.5520 N   0  0  0  0  0  0  0  0  0  0  0  0
   51.4590   31.9070   55.1400 H   0  0  0  0  0  0  0  0  0  0  0  0
  1  2  1  0
  2  3  2  0
  3  4  1  0
  3  5  1  0
  5  6  1  0
  5  7  2  0
  7  8  1  0
  8  9  2  0
  9 10  1  0
  8 11  1  0
 11 12  1  0
 12 13  1  0
 13 14  1  0
 13 15  2  0
 15 16  1  0
 15 17  1  0
 17 18  1  0
 17 19  1  0
 19 20  2  0
 20 21  1  0
 21 22  1  0
 21 23  1  0
 21 24  1  0
 24 25  1  0
 24 26  1  0
 24 27  1  0
 19 28  1  0
 28 29  1  0
 11 30  2  0
 30 31  1  0
 30 32  1  0
 32 33  1  0
  9  2  1  0
 28 12  2  0
 32  7  1  0
M  CHG  1   4  -1
M  END
>  <UniqueID>  (6) 
6

>  <SMILES>  (6) 
CC/N=c1/[nH]ccc(-c2c[nH]c3cc([O-])ccc23)c1Cl

>  <Energy>  (6) 
85.50838061427795

>  <Genealogy>  (6) 
CCN=c1[nH]ccc(-c2c[nH]c3cc([O-])ccc23)c1Cl (protonated)
CC/N=c1/[nH]ccc(-c2c[nH]c3cc([O-])ccc23)c1Cl (cis-trans isomerization)
CC/N=c1/[nH]ccc(-c2c[nH]c3cc([O-])ccc23)c1Cl (3D coordinates assigned)
CC/N=c1/[nH]ccc(-c2c[nH]c3cc([O-])ccc23)c1Cl (optimized conformer: 85.50838061427795 kcal/mol)

>  <smiles>  (6) 
CCN=c1[nH]ccc(-c2c[nH]c3cc(O)ccc23)c1Cl

>  <score_type>  (6) 
oracle

>  <origin>  (6) 
adg

>  <m_score__min__energy>  (6) 
-8.7400000000000002

>  <m_primary>  (6) 
energy

$$$$
6:0
     RDKit          3D

 50 52  0  0  0  0  0  0  0  0999 V2000
   64.2380   29.8230   51.6320 C   0  0  0  0  0  0  0  0  0  0  0  0
   62.8810   29.5790   51.1340 N   0  0  0  0  0  0  0  0  0  0  0  0
   62.1100   28.4520   51.6720 C   0  0  0  0  0  0  0  0  0  0  0  0
   62.3280   30.4380   50.1090 C   0  0  0  0  0  0  0  0  0  0  0  0
   61.3530   30.0220   49.3500 N   0  0  0  0  0  0  0  0  0  0  0  0
   62.8650   31.7600   49.9220 N   0  0  0  0  0  0  0  0  0  0  0  0
   63.0850   32.4460   48.3440 S   0  0  0  0  0  0  0  0  0  0  0  0
   63.2810   31.3460   47.3410 O   0  0  0  0  0  0  0  0  0  0  0  0
   64.3010   33.3290   48.3390 O   0  0  0  0  0  0  0  0  0  0  0  0
   61.6370   33.3520   47.9210 C   0  0  0  0  0  0  0  0  0  0  0  0
   60.8450   33.9470   48.9120 C   0  0  0  0  0  0  0  0  0  0  0  0
   59.6440   34.5740   48.5640 C   0  0  0  0  0  0  0  0  0  0  0  0
   59.2220   34.5910   47.2320 C   0  0  0  0  0  0  0  0  0  0  0  0
   60.0090   33.9900   46.2320 C   0  0  0  0  0  0  0  0  0  0  0  0
   59.5720   33.9430   44.8650 N   0  0  0  0  0  0  0  0  0  0  0  0
   58.1800   33.7090   44.4890 C   0  0  0  0  0  0  0  0  0  0  0  0
   57.8160   32.2660   44.7240 C   0  0  0  0  0  0  0  0  0  0  0  0
   57.0330   31.5800   43.7810 C   0  0  0  0  0  0  0  0  0  0  0  0
   56.7440   30.2260   43.9520 C   0  0  0  0  0  0  0  0  0  0  0  0
   57.2440   29.5300   45.0610 C   0  0  0  0  0  0  0  0  0  0  0  0
   56.9740   28.2040   45.2260 N   0  0  0  0  0  0  0  0  0  0  0  0
   57.4750   27.5160   46.2910 C   0  0  0  0  0  0  0  0  0  0  0  0
   57.2240   26.2530   46.4410 N   0  0  0  0  0  0  0  0  0  0  0  0
   58.2480   28.1520   47.2090 N   0  0  0  0  0  0  0  0  0  0  0  0
   58.5430   29.4730   47.0960 C   0  0  0  0  0  0  0  0  0  0  0  0
   59.2620   30.0210   47.9750 O   0  0  0  0  0  0  0  0  0  0  0  0
   58.0450   30.2070   46.0080 C   0  0  0  0  0  0  0  0  0  0  0  0
   58.3240   31.5740   45.8340 C   0  0  0  0  0  0  0  0  0  0  0  0
   61.2250   33.3920   46.5840 C   0  0  0  0  0  0  0  0  0  0  0  0
   64.2307   29.8217   52.7320 H   0  0  0  0  0  0  0  0  0  0  0  0
   64.9097   29.0312   51.2689 H   0  0  0  0  0  0  0  0  0  0  0  0
   64.5919   30.7992   51.2689 H   0  0  0  0  0  0  0  0  0  0  0  0
   62.1320   28.4842   52.7713 H   0  0  0  0  0  0  0  0  0  0  0  0
   61.0688   28.5207   51.3240 H   0  0  0  0  0  0  0  0  0  0  0  0
   62.5513   27.5064   51.3240 H   0  0  0  0  0  0  0  0  0  0  0  0
   60.4770   29.6090   49.7410 H   0  0  0  0  0  0  0  0  0  0  0  0
   61.4050   30.0980   48.3120 H   0  0  0  0  0  0  0  0  0  0  0  0
   63.3170   32.2510   50.7230 H   0  0  0  0  0  0  0  0  0  0  0  0
   61.1676   33.9210   49.9633 H   0  0  0  0  0  0  0  0  0  0  0  0
   59.0306   35.0546   49.3404 H   0  0  0  0  0  0  0  0  0  0  0  0
   58.2716   35.0757   46.9642 H   0  0  0  0  0  0  0  0  0  0  0  0
   60.2950   33.8510   44.1160 H   0  0  0  0  0  0  0  0  0  0  0  0
   57.5261   34.3527   45.0957 H   0  0  0  0  0  0  0  0  0  0  0  0
   58.0508   33.9439   43.4222 H   0  0  0  0  0  0  0  0  0  0  0  0
   56.6449   32.1143   42.9013 H   0  0  0  0  0  0  0  0  0  0  0  0
   56.1205   29.7019   43.2127 H   0  0  0  0  0  0  0  0  0  0  0  0
   56.3840   27.7030   44.5190 H   0  0  0  0  0  0  0  0  0  0  0  0
   56.4600   25.9100   47.0670 H   0  0  0  0  0  0  0  0  0  0  0  0
   58.9439   32.1040   46.5721 H   0  0  0  0  0  0  0  0  0  0  0  0
   61.8617   32.9500   45.8035 H   0  0  0  0  0  0  0  0  0  0  0  0
  1  2  1  0
  2  3  1  0
  2  4  1  0
  4  5  2  0
  4  6  1  0
  6  7  1  0
  7  8  2  0
  7  9  2  0
  7 10  1  0
 10 11  2  0
 11 12  1  0
 12 13  2  0
 13 14  1  0
 14 15  1  0
 15 16  1  0
 16 17  1  0
 17 18  2  0
 18 19  1  0
 19 20  2  0
 20 21  1  0
 21 22  1  0
 22 23  2  3
 22 24  1  0
 24 25  1  0
 25 26  2  0
 25 27  1  0
 27 28  2  0
 14 29  2  0
 29 10  1  0
 28 17  1  0
 27 20  1  0
  1 30  1  0
  1 31  1  0
  1 32  1  0
  3 33  1  0
  3 34  1  0
  3 35  1  0
  5 36  1  0
  5 37  1  0
  6 38  1  0
 11 39  1  0
 12 40  1  0
 13 41  1  0
 15 42  1  0
 16 43  1  0
 16 44  1  0
 18 45  1  0
 19 46  1  0
 21 47  1  0
 23 48  1  0
 28 49  1  0
 29 50  1  0
M  CHG  2   5   1  24  -1
M  END
>  <UniqueID>  (7) 
7

>  <SMILES>  (7) 
CN(C)C(=[NH2+])NS(=O)(=O)c1cccc(NCc2ccc3[nH]c(=N)[n-]c(=O)c3c2)c1

>  <Energy>  (7) 
55.226520464492076

>  <Genealogy>  (7) 
CN(C)C(=[NH2+])NS(=O)(=O)c1cccc(NCc2ccc3[nH]c(=N)[n-]c(=O)c3c2)c1 (protonated)
CN(C)C(=[NH2+])NS(=O)(=O)c1cccc(NCc2ccc3[nH]c(=N)[n-]c(=O)c3c2)c1 (3D coordinates assigned)
CN(C)C(=[NH2+])NS(=O)(=O)c1cccc(NCc2ccc3[nH]c(=N)[n-]c(=O)c3c2)c1 (optimized conformer: 55.226520464492076 kcal/mol)

>  <smiles>  (7) 
CN(C)C(=N)NS(=O)(=O)c1cccc(NCc2ccc3[nH]c(=N)[nH]c(=O)c3c2)c1

>  <score_type>  (7) 
oracle

>  <origin>  (7) 
adg

>  <m_score__min__energy>  (7) 
-9.2400000000000002

>  <m_primary>  (7) 
energy

$$$$
7:0
     RDKit          3D

 38 40  0  0  0  0  0  0  0  0999 V2000
   62.7020   32.8700   47.6920 C   0  0  0  0  0  0  0  0  0  0  0  0
   61.3530   32.9590   47.0250 C   0  0  0  0  0  0  0  0  0  0  0  0
   60.8410   34.2210   46.7010 C   0  0  0  0  0  0  0  0  0  0  0  0
   59.5890   34.3520   46.1110 C   0  0  0  0  0  0  0  0  0  0  0  0
   58.8240   33.2160   45.8060 C   0  0  0  0  0  0  0  0  0  0  0  0
   57.5640   33.3370   45.1930 C   0  0  0  0  0  0  0  0  0  0  0  0
   57.0780   34.4700   44.9270 O   0  0  0  0  0  0  0  0  0  0  0  0
   56.8370   32.1940   44.8720 C   0  0  0  0  0  0  0  0  0  0  0  0
   57.3680   30.9260   45.1450 C   0  0  0  0  0  0  0  0  0  0  0  0
   56.6070   29.7060   44.7810 C   0  0  0  0  0  0  0  0  0  0  0  0
   55.3470   29.7380   44.7550 O   0  0  0  0  0  0  0  0  0  0  0  0
   57.3040   28.5090   44.4070 N   0  0  0  0  0  0  0  0  0  0  0  0
   57.8730   27.5340   45.2960 C   0  0  0  0  0  0  0  0  0  0  0  0
   59.2650   27.3270   45.3580 C   0  0  0  0  0  0  0  0  0  0  0  0
   59.7990   26.3580   46.2110 C   0  0  0  0  0  0  0  0  0  0  0  0
   58.9530   25.5750   46.9980 C   0  0  0  0  0  0  0  0  0  0  0  0
   57.5690   25.7530   46.9270 C   0  0  0  0  0  0  0  0  0  0  0  0
   57.0200   26.7230   46.0740 C   0  0  0  0  0  0  0  0  0  0  0  0
   55.5980   26.8820   46.0150 N   0  0  0  0  0  0  0  0  0  0  0  0
   58.5940   30.8240   45.7410 N   0  0  0  0  0  0  0  0  0  0  0  0
   59.3280   31.9250   46.1040 C   0  0  0  0  0  0  0  0  0  0  0  0
   60.5940   31.7970   46.7420 C   0  0  0  0  0  0  0  0  0  0  0  0
   61.0990   30.5070   47.1290 N   0  0  0  0  0  0  0  0  0  0  0  0
   62.5722   32.8786   48.7843 H   0  0  0  0  0  0  0  0  0  0  0  0
   63.1999   31.9371   47.3892 H   0  0  0  0  0  0  0  0  0  0  0  0
   63.3182   33.7294   47.3892 H   0  0  0  0  0  0  0  0  0  0  0  0
   61.4368   35.1203   46.9160 H   0  0  0  0  0  0  0  0  0  0  0  0
   59.1954   35.3532   45.8817 H   0  0  0  0  0  0  0  0  0  0  0  0
   55.8458   32.2860   44.4041 H   0  0  0  0  0  0  0  0  0  0  0  0
   59.9359   27.9323   44.7307 H   0  0  0  0  0  0  0  0  0  0  0  0
   60.8880   26.2119   46.2625 H   0  0  0  0  0  0  0  0  0  0  0  0
   59.3760   24.8176   47.6743 H   0  0  0  0  0  0  0  0  0  0  0  0
   56.9054   25.1289   47.5436 H   0  0  0  0  0  0  0  0  0  0  0  0
   55.1460   27.5220   45.3250 H   0  0  0  0  0  0  0  0  0  0  0  0
   54.9760   26.3570   46.6700 H   0  0  0  0  0  0  0  0  0  0  0  0
   58.9790   29.8680   45.8910 H   0  0  0  0  0  0  0  0  0  0  0  0
   60.4860   29.6640   47.1560 H   0  0  0  0  0  0  0  0  0  0  0  0
   62.0580   30.3930   47.5240 H   0  0  0  0  0  0  0  0  0  0  0  0
  1  2  1  0
  2  3  2  0
  3  4  1  0
  4  5  2  0
  5  6  1  0
  6  7  2  0
  6  8  1  0
  8  9  2  0
  9 10  1  0
 10 11  2  0
 10 12  1  0
 12 13  1  0
 13 14  2  0
 14 15  1  0
 15 16  2  0
 16 17  1  0
 17 18  2  0
 18 19  1  0
  9 20  1  0
 20 21  1  0
 21 22  2  0
 22 23  1  0
 22  2  1  0
 21  5  1  0
 18 13  1  0
  1 24  1  0
  1 25  1  0
  1 26  1  0
  3 27  1  0
  4 28  1  0
  8 29  1  0
 14 30  1  0
 15 31  1  0
 16 32  1  0
 17 33  1  0
 19 34  1  0
 19 35  1  0
 20 36  1  0
 23 37  1  0
 23 38  1  0
M  CHG  1  12  -1
M  END
>  <UniqueID>  (8) 
8

>  <SMILES>  (8) 
Cc1ccc2c(=O)cc(C(=O)[N-]c3ccccc3N)[nH]c2c1N

>  <Energy>  (8) 
54.68729895164513

>  <Genealogy>  (8) 
Cc1ccc2c(=O)cc(C(=O)[N-]c3ccccc3N)[nH]c2c1N (protonated)
Cc1ccc2c(=O)cc(C(=O)[N-]c3ccccc3N)[nH]c2c1N (3D coordinates assigned)
Cc1ccc2c(=O)cc(C(=O)[N-]c3ccccc3N)[nH]c2c1N (optimized conformer: 54.68729895164513 kcal/mol)

>  <smiles>  (8) 
Cc1ccc2c(=O)cc(C(=O)Nc3ccccc3N)[nH]c2c1N

>  <score_type>  (8) 
oracle

>  <origin>  (8) 
adg

>  <m_score__min__energy>  (8) 
-9.6500000000000004

>  <m_primary>  (8) 
energy

$$$$
8:0
     RDKit          3D

 44 47  0  0  0  0  0  0  0  0999 V2000
   60.8150   26.6890   49.1390 O   0  0  0  0  0  0  0  0  0  0  0  0
   60.2130   27.0890   48.1050 C   0  0  0  0  0  0  0  0  0  0  0  0
   59.0840   27.9610   48.1290 N   0  0  0  0  0  0  0  0  0  0  0  0
   58.7440   28.1400   46.7500 C   0  0  0  0  0  0  0  0  0  0  0  0
   57.7070   28.9250   46.2490 C   0  0  0  0  0  0  0  0  0  0  0  0
   57.5320   28.9860   44.8490 C   0  0  0  0  0  0  0  0  0  0  0  0
   56.2560   29.9780   44.1510 S   0  0  0  0  0  0  0  0  0  0  0  0
   56.4120   30.0880   42.6600 O   0  0  0  0  0  0  0  0  0  0  0  0
   54.9290   29.3410   44.4480 O   0  0  0  0  0  0  0  0  0  0  0  0
   56.2920   31.5650   44.8520 N   0  0  0  0  0  0  0  0  0  0  0  0
   57.4740   32.2520   45.2850 C   0  0  0  0  0  0  0  0  0  0  0  0
   57.9480   33.3190   44.5130 C   0  0  0  0  0  0  0  0  0  0  0  0
   59.1000   34.0130   44.8920 C   0  0  0  0  0  0  0  0  0  0  0  0
   59.8020   33.6470   46.0460 C   0  0  0  0  0  0  0  0  0  0  0  0
   60.9570   34.3720   46.3760 O   0  0  0  0  0  0  0  0  0  0  0  0
   62.2790   33.8410   46.3490 C   0  0  0  0  0  0  0  0  0  0  0  0
   62.7240   33.5570   47.7540 C   0  0  0  0  0  0  0  0  0  0  0  0
   62.0460   34.1390   48.8350 C   0  0  0  0  0  0  0  0  0  0  0  0
   62.4410   33.8580   50.1480 C   0  0  0  0  0  0  0  0  0  0  0  0
   63.5060   32.9880   50.3890 C   0  0  0  0  0  0  0  0  0  0  0  0
   64.1760   32.3930   49.3180 C   0  0  0  0  0  0  0  0  0  0  0  0
   63.7850   32.6690   48.0030 C   0  0  0  0  0  0  0  0  0  0  0  0
   59.3330   32.5710   46.8230 C   0  0  0  0  0  0  0  0  0  0  0  0
   58.1750   31.8810   46.4470 C   0  0  0  0  0  0  0  0  0  0  0  0
   58.3930   28.2590   43.9910 C   0  0  0  0  0  0  0  0  0  0  0  0
   59.4380   27.4790   44.5190 C   0  0  0  0  0  0  0  0  0  0  0  0
   59.5890   27.4420   45.9030 C   0  0  0  0  0  0  0  0  0  0  0  0
   60.5610   26.7470   46.7300 C   0  0  0  0  0  0  0  0  0  0  0  0
   61.5190   26.0260   46.3380 O   0  0  0  0  0  0  0  0  0  0  0  0
   58.6100   28.3730   48.9630 H   0  0  0  0  0  0  0  0  0  0  0  0
   57.0427   29.4821   46.9260 H   0  0  0  0  0  0  0  0  0  0  0  0
   57.4092   33.6136   43.6004 H   0  0  0  0  0  0  0  0  0  0  0  0
   59.4578   34.8532   44.2788 H   0  0  0  0  0  0  0  0  0  0  0  0
   62.2897   32.9095   45.7640 H   0  0  0  0  0  0  0  0  0  0  0  0
   62.9608   34.5687   45.8847 H   0  0  0  0  0  0  0  0  0  0  0  0
   61.2010   34.8186   48.6503 H   0  0  0  0  0  0  0  0  0  0  0  0
   61.9111   34.3237   50.9920 H   0  0  0  0  0  0  0  0  0  0  0  0
   63.8170   32.7714   51.4216 H   0  0  0  0  0  0  0  0  0  0  0  0
   65.0133   31.7056   49.5085 H   0  0  0  0  0  0  0  0  0  0  0  0
   64.3089   32.1902   47.1626 H   0  0  0  0  0  0  0  0  0  0  0  0
   59.8791   32.2712   47.7296 H   0  0  0  0  0  0  0  0  0  0  0  0
   57.8113   31.0450   47.0626 H   0  0  0  0  0  0  0  0  0  0  0  0
   58.2433   28.3047   42.9022 H   0  0  0  0  0  0  0  0  0  0  0  0
   60.1146   26.9160   43.8594 H   0  0  0  0  0  0  0  0  0  0  0  0
  1  2  2  0
  2  3  1  0
  3  4  1  0
  4  5  2  0
  5  6  1  0
  6  7  1  0
  7  8  2  0
  7  9  2  0
  7 10  1  0
 10 11  1  0
 11 12  2  0
 12 13  1  0
 13 14  2  0
 14 15  1  0
 15 16  1  0
 16 17  1  0
 17 18  2  0
 18 19  1  0
 19 20  2  0
 20 21  1  0
 21 22  2  0
 14 23  1  0
 23 24  2  0
  6 25  2  0
 25 26  1  0
 26 27  2  0
 27 28  1  0
 28 29  2  0
 28  2  1  0
 27  4  1  0
 24 11  1  0
 22 17  1  0
  3 30  1  0
  5 31  1  0
 12 32  1  0
 13 33  1  0
 16 34  1  0
 16 35  1  0
 18 36  1  0
 19 37  1  0
 20 38  1  0
 21 39  1  0
 22 40  1  0
 23 41  1  0
 24 42  1  0
 25 43  1  0
 26 44  1  0
M  CHG  1  10  -1
M  END
>  <UniqueID>  (9) 
9

>  <SMILES>  (9) 
O=C1Nc2cc(S(=O)(=O)[N-]c3ccc(OCc4ccccc4)cc3)ccc2C1=O

>  <Energy>  (9) 
82.75141894573328

>  <Genealogy>  (9) 
O=C1Nc2cc(S(=O)(=O)[N-]c3ccc(OCc4ccccc4)cc3)ccc2C1=O (protonated)
O=C1Nc2cc(S(=O)(=O)[N-]c3ccc(OCc4ccccc4)cc3)ccc2C1=O (3D coordinates assigned)
O=C1Nc2cc(S(=O)(=O)[N-]c3ccc(OCc4ccccc4)cc3)ccc2C1=O (nonaromatic ring conformer: 82.75141894573328 kcal/mol)

>  <smiles>  (9) 
O=C1Nc2cc(S(=O)(=O)Nc3ccc(OCc4ccccc4)cc3)ccc2C1=O

>  <score_type>  (9) 
oracle

>  <origin>  (9) 
adg

>  <m_score__min__energy>  (9) 
-10.289999999999999

>  <m_primary>  (9) 
energy

$$$$
9:0
     RDKit          3D

 40 42  0  0  0  0  0  0  0  0999 V2000
   55.1190   30.0690   45.6400 H   0  0  0  0  0  0  0  0  0  0  0  0
   55.5420   29.2730   45.1760 O   0  0  0  0  0  0  0  0  0  0  0  0
   56.9140   29.2120   44.9360 C   0  0  0  0  0  0  0  0  0  0  0  0
   57.5280   27.9750   44.6910 C   0  0  0  0  0  0  0  0  0  0  0  0
   56.9195   27.0594   44.6531 H   0  0  0  0  0  0  0  0  0  0  0  0
   58.9090   27.9010   44.4950 C   0  0  0  0  0  0  0  0  0  0  0  0
   59.3847   26.9296   44.2949 H   0  0  0  0  0  0  0  0  0  0  0  0
   59.6860   29.0600   44.5530 C   0  0  0  0  0  0  0  0  0  0  0  0
   60.7749   28.9990   44.4096 H   0  0  0  0  0  0  0  0  0  0  0  0
   59.0820   30.2970   44.7930 C   0  0  0  0  0  0  0  0  0  0  0  0
   59.7005   31.2043   44.8582 H   0  0  0  0  0  0  0  0  0  0  0  0
   57.6930   30.3880   44.9510 C   0  0  0  0  0  0  0  0  0  0  0  0
   57.1040   31.6790   45.1720 N   0  0  0  0  0  0  0  0  0  0  0  0
   57.4900   32.8050   44.6410 C   0  0  0  0  0  0  0  0  0  0  0  0
   56.7900   33.3456   43.9870 H   0  0  0  0  0  0  0  0  0  0  0  0
   58.7910   33.3710   44.8730 N   0  0  0  0  0  0  0  0  0  0  0  0
   59.2700   33.8180   44.0590 H   0  0  0  0  0  0  0  0  0  0  0  0
   59.4140   33.4670   46.1640 C   0  0  0  0  0  0  0  0  0  0  0  0
   58.6890   33.2340   47.3460 C   0  0  0  0  0  0  0  0  0  0  0  0
   57.6170   32.9936   47.2915 H   0  0  0  0  0  0  0  0  0  0  0  0
   59.3220   33.3060   48.5890 C   0  0  0  0  0  0  0  0  0  0  0  0
   58.7495   33.1019   49.5058 H   0  0  0  0  0  0  0  0  0  0  0  0
   60.6840   33.6370   48.6770 C   0  0  0  0  0  0  0  0  0  0  0  0
   61.3520   33.6820   50.0020 C   0  0  0  0  0  0  0  0  0  0  0  0
   60.6460   33.8570   51.0320 O   0  0  0  0  0  0  0  0  0  0  0  0
   62.8180   33.5270   50.1570 C   0  0  0  0  0  0  0  0  0  0  0  0
   63.5310   34.2820   51.1080 C   0  0  0  0  0  0  0  0  0  0  0  0
   62.9992   35.0099   51.7383 H   0  0  0  0  0  0  0  0  0  0  0  0
   64.9110   34.1120   51.2560 C   0  0  0  0  0  0  0  0  0  0  0  0
   65.4620   34.7115   51.9956 H   0  0  0  0  0  0  0  0  0  0  0  0
   65.5910   33.1820   50.4660 C   0  0  0  0  0  0  0  0  0  0  0  0
   66.6775   33.0535   50.5800 H   0  0  0  0  0  0  0  0  0  0  0  0
   64.8910   32.4150   49.5310 C   0  0  0  0  0  0  0  0  0  0  0  0
   65.4263   31.6787   48.9135 H   0  0  0  0  0  0  0  0  0  0  0  0
   63.5110   32.5820   49.3790 C   0  0  0  0  0  0  0  0  0  0  0  0
   62.9639   31.9705   48.6464 H   0  0  0  0  0  0  0  0  0  0  0  0
   61.4050   33.8800   47.4950 C   0  0  0  0  0  0  0  0  0  0  0  0
   62.4753   34.1283   47.5488 H   0  0  0  0  0  0  0  0  0  0  0  0
   60.7700   33.8080   46.2510 C   0  0  0  0  0  0  0  0  0  0  0  0
   61.3394   34.0207   45.3342 H   0  0  0  0  0  0  0  0  0  0  0  0
  1  2  1  0
  2  3  1  0
  3  4  2  0
  4  5  1  0
  4  6  1  0
  6  7  1  0
  6  8  2  0
  8  9  1  0
  8 10  1  0
 10 11  1  0
 10 12  2  0
 12 13  1  0
 13 14  2  0
 14 15  1  0
 14 16  1  0
 16 17  1  0
 16 18  1  0
 18 19  2  0
 19 20  1  0
 19 21  1  0
 21 22  1  0
 21 23  2  0
 23 24  1  0
 24 25  2  0
 24 26  1  0
 26 27  2  0
 27 28  1  0
 27 29  1  0
 29 30  1  0
 29 31  2  0
 31 32  1  0
 31 33  1  0
 33 34  1  0
 33 35  2  0
 35 36  1  0
 23 37  1  0
 37 38  1  0
 37 39  2  0
 39 40  1  0
 12  3  1  0
 39 18  1  0
 35 26  1  0
M  END
>  <UniqueID>  (10) 
10

>  <SMILES>  (10) 
O=C(c1ccccc1)c1ccc(N/C=N\c2ccccc2O)cc1

>  <Energy>  (10) 
60.64435773092386

>  <Genealogy>  (10) 
O=C(c1ccccc1)c1ccc(N/C=N\c2ccccc2O)cc1 (cis-trans isomerization)
O=C(c1ccccc1)c1ccc(N/C=N\c2ccccc2O)cc1 (3D coordinates assigned)
O=C(c1ccccc1)c1ccc(N/C=N\c2ccccc2O)cc1 (optimized conformer: 60.64435773092386 kcal/mol)

>  <smiles>  (10) 
O=C(c1ccccc1)c1ccc(NC=Nc2ccccc2O)cc1

>  <score_type>  (10) 
oracle

>  <origin>  (10) 
adg

>  <m_score__min__energy>  (10) 
-10.48

>  <m_primary>  (10) 
energy

$$$$
10:0
     RDKit          3D

 51 54  0  0  0  0  0  0  0  0999 V2000
   54.1030   21.2760   46.6630 N   0  0  0  0  0  0  0  0  0  0  0  0
   53.6530   22.1260   45.7960 C   0  0  0  0  0  0  0  0  0  0  0  0
   52.3090   22.3140   45.6720 N   0  0  0  0  0  0  0  0  0  0  0  0
   51.7840   23.1760   44.7620 C   0  0  0  0  0  0  0  0  0  0  0  0
   52.6260   23.8950   43.9130 C   0  0  0  0  0  0  0  0  0  0  0  0
   54.0060   23.7240   44.0150 C   0  0  0  0  0  0  0  0  0  0  0  0
   54.5400   22.8430   44.9670 C   0  0  0  0  0  0  0  0  0  0  0  0
   56.0100   22.6850   45.0670 C   0  0  0  0  0  0  0  0  0  0  0  0
   56.6790   21.9450   44.0800 C   0  0  0  0  0  0  0  0  0  0  0  0
   58.0650   21.7880   44.1290 C   0  0  0  0  0  0  0  0  0  0  0  0
   58.8040   22.3870   45.1510 C   0  0  0  0  0  0  0  0  0  0  0  0
   60.1880   22.2340   45.1820 O   0  0  0  0  0  0  0  0  0  0  0  0
   58.1490   23.1410   46.1310 C   0  0  0  0  0  0  0  0  0  0  0  0
   56.7530   23.2770   46.1160 C   0  0  0  0  0  0  0  0  0  0  0  0
   56.0990   24.1130   47.1440 C   0  0  0  0  0  0  0  0  0  0  0  0
   55.3880   23.5560   48.0210 O   0  0  0  0  0  0  0  0  0  0  0  0
   56.2750   25.5360   47.1980 N   0  0  0  0  0  0  0  0  0  0  0  0
   57.5400   26.2510   47.0300 C   0  0  0  0  0  0  0  0  0  0  0  0
   57.5810   26.9880   45.7170 C   0  0  0  0  0  0  0  0  0  0  0  0
   58.1330   26.3770   44.5810 C   0  0  0  0  0  0  0  0  0  0  0  0
   58.1540   27.0520   43.3580 C   0  0  0  0  0  0  0  0  0  0  0  0
   57.6240   28.3410   43.2570 C   0  0  0  0  0  0  0  0  0  0  0  0
   57.0730   28.9720   44.3850 C   0  0  0  0  0  0  0  0  0  0  0  0
   56.4640   30.3200   44.2680 C   0  0  0  0  0  0  0  0  0  0  0  0
   55.2250   30.4600   44.4470 O   0  0  0  0  0  0  0  0  0  0  0  0
   57.2380   31.4670   43.8810 N   0  0  0  0  0  0  0  0  0  0  0  0
   57.7510   32.3740   44.6680 C   0  0  0  0  0  0  0  0  0  0  0  0
   57.7830   32.2320   46.0710 C   0  0  0  0  0  0  0  0  0  0  0  0
   58.3760   33.2280   46.8500 C   0  0  0  0  0  0  0  0  0  0  0  0
   58.9070   34.3640   46.2390 C   0  0  0  0  0  0  0  0  0  0  0  0
   59.4820   35.3380   46.9860 F   0  0  0  0  0  0  0  0  0  0  0  0
   58.8290   34.4920   44.8520 C   0  0  0  0  0  0  0  0  0  0  0  0
   58.2580   33.5070   44.1080 N   0  0  0  0  0  0  0  0  0  0  0  0
   57.0920   28.3020   45.6210 C   0  0  0  0  0  0  0  0  0  0  0  0
   54.6950   21.5760   47.4690 H   0  0  0  0  0  0  0  0  0  0  0  0
   50.6939   23.3070   44.6947 H   0  0  0  0  0  0  0  0  0  0  0  0
   52.2055   24.5896   43.1709 H   0  0  0  0  0  0  0  0  0  0  0  0
   54.6783   24.2819   43.3466 H   0  0  0  0  0  0  0  0  0  0  0  0
   56.1064   21.4850   43.2611 H   0  0  0  0  0  0  0  0  0  0  0  0
   58.5767   21.1905   43.3601 H   0  0  0  0  0  0  0  0  0  0  0  0
   60.6780   21.7050   44.4700 H   0  0  0  0  0  0  0  0  0  0  0  0
   58.7351   23.6323   46.9216 H   0  0  0  0  0  0  0  0  0  0  0  0
   57.6547   26.9743   47.8508 H   0  0  0  0  0  0  0  0  0  0  0  0
   58.3587   25.5164   47.0419 H   0  0  0  0  0  0  0  0  0  0  0  0
   58.5510   25.3621   44.6536 H   0  0  0  0  0  0  0  0  0  0  0  0
   58.5892   26.5672   42.4717 H   0  0  0  0  0  0  0  0  0  0  0  0
   57.6382   28.8643   42.2896 H   0  0  0  0  0  0  0  0  0  0  0  0
   57.3441   31.3433   46.5481 H   0  0  0  0  0  0  0  0  0  0  0  0
   58.4242   33.1169   47.9433 H   0  0  0  0  0  0  0  0  0  0  0  0
   59.2297   35.3904   44.3597 H   0  0  0  0  0  0  0  0  0  0  0  0
   56.7203   28.8116   46.5222 H   0  0  0  0  0  0  0  0  0  0  0  0
  1  2  2  3
  2  3  1  0
  3  4  1  0
  4  5  2  0
  5  6  1  0
  6  7  2  0
  7  8  1  0
  8  9  2  0
  9 10  1  0
 10 11  2  0
 11 12  1  0
 11 13  1  0
 13 14  2  0
 14 15  1  0
 15 16  2  0
 15 17  1  0
 17 18  1  0
 18 19  1  0
 19 20  2  0
 20 21  1  0
 21 22  2  0
 22 23  1  0
 23 24  1  0
 24 25  2  0
 24 26  1  0
 26 27  2  3
 27 28  1  0
 28 29  2  0
 29 30  1  0
 30 31  1  0
 30 32  2  0
 32 33  1  0
 23 34  2  0
  7  2  1  0
 14  8  1  0
 34 19  1  0
 33 27  1  0
  1 35  1  0
  4 36  1  0
  5 37  1  0
  6 38  1  0
  9 39  1  0
 10 40  1  0
 12 41  1  0
 13 42  1  0
 18 43  1  0
 18 44  1  0
 20 45  1  0
 21 46  1  0
 22 47  1  0
 28 48  1  0
 29 49  1  0
 32 50  1  0
 34 51  1  0
M  CHG  3   3  -1  17  -1  33  -1
M  END
>  <UniqueID>  (11) 
11

>  <SMILES>  (11) 
N=c1[n-]cccc1-c1ccc(O)cc1C(=O)[N-]Cc1cccc(C(=O)N=c2ccc(F)c[n-]2)c1

>  <Energy>  (11) 
77.81853221839188

>  <Genealogy>  (11) 
N=c1[n-]cccc1-c1ccc(O)cc1C(=O)[N-]Cc1cccc(C(=O)N=c2ccc(F)c[n-]2)c1 (protonated)
N=c1[n-]cccc1-c1ccc(O)cc1C(=O)[N-]Cc1cccc(C(=O)N=c2ccc(F)c[n-]2)c1 (3D coordinates assigned)
N=c1[n-]cccc1-c1ccc(O)cc1C(=O)[N-]Cc1cccc(C(=O)N=c2ccc(F)c[n-]2)c1 (optimized conformer: 77.81853221839188 kcal/mol)

>  <smiles>  (11) 
N=c1[nH]cccc1-c1ccc(O)cc1C(=O)NCc1cccc(C(=O)N=c2ccc(F)c[nH]2)c1

>  <score_type>  (11) 
oracle

>  <origin>  (11) 
adg

>  <m_score__min__energy>  (11) 
-13.029999999999999

>  <m_primary>  (11) 
energy

$$$$
11:0
     RDKit          3D

 38 40  0  0  0  0  0  0  0  0999 V2000
   55.8320   28.9920   44.8730 N   0  0  0  0  0  0  0  0  0  0  0  0
   57.1950   27.9750   45.1790 S   0  0  0  0  0  0  0  0  0  0  0  0
   56.7490   26.7520   45.9300 O   0  0  0  0  0  0  0  0  0  0  0  0
   57.8020   27.5450   43.8740 O   0  0  0  0  0  0  0  0  0  0  0  0
   58.3870   28.8600   46.1270 C   0  0  0  0  0  0  0  0  0  0  0  0
   59.5040   29.4250   45.5000 C   0  0  0  0  0  0  0  0  0  0  0  0
   60.4500   30.1250   46.2520 C   0  0  0  0  0  0  0  0  0  0  0  0
   60.2910   30.2570   47.6330 C   0  0  0  0  0  0  0  0  0  0  0  0
   59.1850   29.6830   48.2820 C   0  0  0  0  0  0  0  0  0  0  0  0
   59.0290   29.8360   49.7500 C   0  0  0  0  0  0  0  0  0  0  0  0
   60.1380   29.9660   50.6040 C   0  0  0  0  0  0  0  0  0  0  0  0
   59.9420   30.1160   51.9400 N   0  0  0  0  0  0  0  0  0  0  0  0
   58.6930   30.1440   52.4730 C   0  0  0  0  0  0  0  0  0  0  0  0
   57.5840   30.0220   51.6330 C   0  0  0  0  0  0  0  0  0  0  0  0
   56.3850   30.0490   52.1380 N   0  0  0  0  0  0  0  0  0  0  0  0
   55.5700   31.2530   52.2950 C   0  0  0  0  0  0  0  0  0  0  0  0
   54.1120   30.9510   52.0620 C   0  0  0  0  0  0  0  0  0  0  0  0
   53.6040   29.6650   52.3070 C   0  0  0  0  0  0  0  0  0  0  0  0
   52.2520   29.3880   52.0800 C   0  0  0  0  0  0  0  0  0  0  0  0
   51.3990   30.3910   51.6140 C   0  0  0  0  0  0  0  0  0  0  0  0
   51.8950   31.6760   51.3770 C   0  0  0  0  0  0  0  0  0  0  0  0
   51.0460   32.6740   50.9160 O   0  0  0  0  0  0  0  0  0  0  0  0
   53.2480   31.9580   51.6010 C   0  0  0  0  0  0  0  0  0  0  0  0
   57.7820   29.8730   50.2930 N   0  0  0  0  0  0  0  0  0  0  0  0
   58.2310   28.9850   47.5140 C   0  0  0  0  0  0  0  0  0  0  0  0
   55.1400   28.8120   45.6350 H   0  0  0  0  0  0  0  0  0  0  0  0
   59.6367   29.3174   44.4134 H   0  0  0  0  0  0  0  0  0  0  0  0
   61.3228   30.5736   45.7550 H   0  0  0  0  0  0  0  0  0  0  0  0
   61.0376   30.8148   48.2174 H   0  0  0  0  0  0  0  0  0  0  0  0
   61.1582   29.9464   50.1931 H   0  0  0  0  0  0  0  0  0  0  0  0
   58.5560   30.2619   53.5581 H   0  0  0  0  0  0  0  0  0  0  0  0
   55.6981   31.6438   53.3152 H   0  0  0  0  0  0  0  0  0  0  0  0
   55.8970   31.9973   51.5540 H   0  0  0  0  0  0  0  0  0  0  0  0
   54.2712   28.8733   52.6785 H   0  0  0  0  0  0  0  0  0  0  0  0
   51.8596   28.3779   52.2689 H   0  0  0  0  0  0  0  0  0  0  0  0
   50.3367   30.1696   51.4335 H   0  0  0  0  0  0  0  0  0  0  0  0
   53.6354   32.9707   51.4155 H   0  0  0  0  0  0  0  0  0  0  0  0
   57.3570   28.5348   48.0075 H   0  0  0  0  0  0  0  0  0  0  0  0
  1  2  1  0
  2  3  2  0
  2  4  2  0
  2  5  1  0
  5  6  2  0
  6  7  1  0
  7  8  2  0
  8  9  1  0
  9 10  1  0
 10 11  2  0
 11 12  1  0
 12 13  2  0
 13 14  1  0
 14 15  2  3
 15 16  1  0
 16 17  1  0
 17 18  2  0
 18 19  1  0
 19 20  2  0
 20 21  1  0
 21 22  1  0
 21 23  2  0
 14 24  1  0
  9 25  2  0
 25  5  1  0
 24 10  1  0
 23 17  1  0
  1 26  1  0
  6 27  1  0
  7 28  1  0
  8 29  1  0
 11 30  1  0
 13 31  1  0
 16 32  1  0
 16 33  1  0
 18 34  1  0
 19 35  1  0
 20 36  1  0
 23 37  1  0
 25 38  1  0
M  CHG  3   1  -1  22  -1  24  -1
M  END
>  <UniqueID>  (12) 
12

>  <SMILES>  (12) 
[NH-]S(=O)(=O)c1cccc(-c2cncc(=NCc3cccc([O-])c3)[n-]2)c1

>  <Energy>  (12) 
44.449322579342756

>  <Genealogy>  (12) 
[NH-]S(=O)(=O)c1cccc(-c2cncc(=NCc3cccc([O-])c3)[n-]2)c1 (protonated)
[NH-]S(=O)(=O)c1cccc(-c2cncc(=NCc3cccc([O-])c3)[n-]2)c1 (3D coordinates assigned)
[NH-]S(=O)(=O)c1cccc(-c2cncc(=NCc3cccc([O-])c3)[n-]2)c1 (optimized conformer: 44.449322579342756 kcal/mol)

>  <smiles>  (12) 
NS(=O)(=O)c1cccc(-c2cncc(=NCc3cccc(O)c3)[nH]2)c1

>  <score_type>  (12) 
oracle

>  <origin>  (12) 
adg

>  <m_score__min__energy>  (12) 
-15.56

>  <m_primary>  (12) 
energy

$$$$
12:0
     RDKit          3D

 29 30  0  0  0  0  0  0  0  0999 V2000
   61.1800   31.0520   47.1070 C   0  0  0  0  0  0  0  0  0  0  0  0
   60.7570   29.9470   46.3140 O   0  0  0  0  0  0  0  0  0  0  0  0
   59.4310   29.7100   45.9270 C   0  0  0  0  0  0  0  0  0  0  0  0
   58.6080   30.7250   45.4130 C   0  0  0  0  0  0  0  0  0  0  0  0
   57.3000   30.4160   45.0500 C   0  0  0  0  0  0  0  0  0  0  0  0
   56.5500   31.3180   44.5890 O   0  0  0  0  0  0  0  0  0  0  0  0
   56.8270   29.1050   45.2040 C   0  0  0  0  0  0  0  0  0  0  0  0
   55.5170   28.7760   44.8500 O   0  0  0  0  0  0  0  0  0  0  0  0
   57.7060   28.1300   45.7230 C   0  0  0  0  0  0  0  0  0  0  0  0
   57.3100   26.7190   45.9240 C   0  0  0  0  0  0  0  0  0  0  0  0
   58.2070   25.8330   45.9430 O   0  0  0  0  0  0  0  0  0  0  0  0
   55.9300   26.3460   46.0380 N   0  0  0  0  0  0  0  0  0  0  0  0
   55.4010   25.0130   46.0620 C   0  0  0  0  0  0  0  0  0  0  0  0
   56.0840   24.0320   46.7920 C   0  0  0  0  0  0  0  0  0  0  0  0
   55.6130   22.7150   46.8230 C   0  0  0  0  0  0  0  0  0  0  0  0
   54.4620   22.3660   46.1120 C   0  0  0  0  0  0  0  0  0  0  0  0
   53.7870   23.3310   45.3590 C   0  0  0  0  0  0  0  0  0  0  0  0
   52.6540   22.9790   44.6360 O   0  0  0  0  0  0  0  0  0  0  0  0
   54.2550   24.6500   45.3270 C   0  0  0  0  0  0  0  0  0  0  0  0
   58.9490   28.4780   46.0580 O   0  0  0  0  0  0  0  0  0  0  0  0
   61.0825   30.7972   48.1726 H   0  0  0  0  0  0  0  0  0  0  0  0
   62.2309   31.2850   46.8804 H   0  0  0  0  0  0  0  0  0  0  0  0
   60.5533   31.9272   46.8804 H   0  0  0  0  0  0  0  0  0  0  0  0
   58.9913   31.7497   45.2988 H   0  0  0  0  0  0  0  0  0  0  0  0
   55.1470   27.8390   44.9520 H   0  0  0  0  0  0  0  0  0  0  0  0
   56.9969   24.2989   47.3447 H   0  0  0  0  0  0  0  0  0  0  0  0
   56.1495   21.9533   47.4079 H   0  0  0  0  0  0  0  0  0  0  0  0
   54.0872   21.3323   46.1448 H   0  0  0  0  0  0  0  0  0  0  0  0
   53.7266   25.4051   44.7264 H   0  0  0  0  0  0  0  0  0  0  0  0
  1  2  1  0
  2  3  1  0
  3  4  2  0
  4  5  1  0
  5  6  2  0
  5  7  1  0
  7  8  1  0
  7  9  2  0
  9 10  1  0
 10 11  2  0
 10 12  1  0
 12 13  1  0
 13 14  2  0
 14 15  1  0
 15 16  2  0
 16 17  1  0
 17 18  1  0
 17 19  2  0
  9 20  1  0
 20  3  1  0
 19 13  1  0
  1 21  1  0
  1 22  1  0
  1 23  1  0
  4 24  1  0
  8 25  1  0
 14 26  1  0
 15 27  1  0
 16 28  1  0
 19 29  1  0
M  CHG  2  12  -1  18  -1
M  END
>  <UniqueID>  (13) 
13

>  <SMILES>  (13) 
COc1cc(=O)c(O)c(C(=O)[N-]c2cccc([O-])c2)o1

>  <Energy>  (13) 
36.281588680850845

>  <Genealogy>  (13) 
COc1cc(=O)c(O)c(C(=O)[N-]c2cccc([O-])c2)o1 (protonated)
COc1cc(=O)c(O)c(C(=O)[N-]c2cccc([O-])c2)o1 (3D coordinates assigned)
COc1cc(=O)c(O)c(C(=O)[N-]c2cccc([O-])c2)o1 (optimized conformer: 36.281588680850845 kcal/mol)

>  <smiles>  (13) 
COc1cc(=O)c(O)c(C(=O)Nc2cccc(O)c2)o1

>  <score_type>  (13) 
oracle

>  <origin>  (13) 
adg

>  <m_score__min__energy>  (13) 
-10.1

>  <m_primary>  (13) 
energy

$$$$
13:0
     RDKit          3D

 53 56  0  0  0  0  0  0  0  0999 V2000
   57.5350   29.5961   42.5234 H   0  0  0  0  0  0  0  0  0  0  0  0
   57.2420   29.4330   43.5710 C   0  0  0  0  0  0  0  0  0  0  0  0
   56.7010   30.5650   44.3470 C   0  0  0  0  0  0  0  0  0  0  0  0
   55.4600   30.6240   44.5460 O   0  0  0  0  0  0  0  0  0  0  0  0
   57.5350   31.6120   44.8590 N   0  0  0  0  0  0  0  0  0  0  0  0
   57.7860   31.8330   46.2800 C   0  0  0  0  0  0  0  0  0  0  0  0
   57.6481   30.8886   46.8270 H   0  0  0  0  0  0  0  0  0  0  0  0
   57.0817   32.5869   46.6616 H   0  0  0  0  0  0  0  0  0  0  0  0
   59.1920   32.3220   46.4750 C   0  0  0  0  0  0  0  0  0  0  0  0
   59.5100   33.6600   46.2080 C   0  0  0  0  0  0  0  0  0  0  0  0
   58.7225   34.3532   45.8773 H   0  0  0  0  0  0  0  0  0  0  0  0
   60.8210   34.1200   46.3590 C   0  0  0  0  0  0  0  0  0  0  0  0
   61.0610   35.1708   46.1393 H   0  0  0  0  0  0  0  0  0  0  0  0
   61.8340   33.2470   46.7900 C   0  0  0  0  0  0  0  0  0  0  0  0
   63.2270   33.7250   46.9470 C   0  0  0  0  0  0  0  0  0  0  0  0
   63.6840   34.5780   46.1400 O   0  0  0  0  0  0  0  0  0  0  0  0
   64.0960   33.2080   47.9650 N   0  0  0  0  0  0  0  0  0  0  0  0
   63.9010   33.3200   49.3840 C   0  0  0  0  0  0  0  0  0  0  0  0
   62.6580   33.7090   49.9170 C   0  0  0  0  0  0  0  0  0  0  0  0
   61.8118   33.9050   49.2421 H   0  0  0  0  0  0  0  0  0  0  0  0
   62.4910   33.8480   51.2960 C   0  0  0  0  0  0  0  0  0  0  0  0
   61.5129   34.1432   51.7037 H   0  0  0  0  0  0  0  0  0  0  0  0
   63.5630   33.6130   52.1580 C   0  0  0  0  0  0  0  0  0  0  0  0
   63.4281   33.7176   53.2447 H   0  0  0  0  0  0  0  0  0  0  0  0
   64.8070   33.2450   51.6410 C   0  0  0  0  0  0  0  0  0  0  0  0
   65.6511   33.0674   52.3236 H   0  0  0  0  0  0  0  0  0  0  0  0
   64.9880   33.1000   50.2560 C   0  0  0  0  0  0  0  0  0  0  0  0
   66.2740   32.7200   49.7510 N   0  0  0  0  0  0  0  0  0  0  0  0
   67.0550   32.4520   50.3880 H   0  0  0  0  0  0  0  0  0  0  0  0
   66.4580   32.7100   48.7220 H   0  0  0  0  0  0  0  0  0  0  0  0
   61.5050   31.9160   47.0970 C   0  0  0  0  0  0  0  0  0  0  0  0
   62.2831   31.2317   47.4662 H   0  0  0  0  0  0  0  0  0  0  0  0
   60.1940   31.4560   46.9360 C   0  0  0  0  0  0  0  0  0  0  0  0
   59.9478   30.4102   47.1721 H   0  0  0  0  0  0  0  0  0  0  0  0
   57.3870   28.2140   44.1030 C   0  0  0  0  0  0  0  0  0  0  0  0
   57.1104   27.3378   43.4982 H   0  0  0  0  0  0  0  0  0  0  0  0
   57.9040   27.9970   45.4710 C   0  0  0  0  0  0  0  0  0  0  0  0
   58.6120   28.9570   46.1240 N   0  0  0  0  0  0  0  0  0  0  0  0
   58.9070   28.3240   47.6290 S   0  0  0  0  0  0  0  0  0  0  0  0
   58.1600   26.8420   47.5060 C   0  0  0  0  0  0  0  0  0  0  0  0
   58.0856   26.0610   48.2770 H   0  0  0  0  0  0  0  0  0  0  0  0
   57.6510   26.8100   46.2130 C   0  0  0  0  0  0  0  0  0  0  0  0
   56.9360   25.6320   45.6840 C   0  0  0  0  0  0  0  0  0  0  0  0
   57.6660   24.5290   45.2140 C   0  0  0  0  0  0  0  0  0  0  0  0
   58.7656   24.5555   45.2234 H   0  0  0  0  0  0  0  0  0  0  0  0
   57.0010   23.3970   44.7340 C   0  0  0  0  0  0  0  0  0  0  0  0
   57.5777   22.5322   44.3741 H   0  0  0  0  0  0  0  0  0  0  0  0
   55.6040   23.3630   44.7110 C   0  0  0  0  0  0  0  0  0  0  0  0
   55.0822   22.4664   44.3451 H   0  0  0  0  0  0  0  0  0  0  0  0
   54.8700   24.4660   45.1520 C   0  0  0  0  0  0  0  0  0  0  0  0
   53.7708   24.4427   45.1173 H   0  0  0  0  0  0  0  0  0  0  0  0
   55.5290   25.6010   45.6380 C   0  0  0  0  0  0  0  0  0  0  0  0
   54.7820   26.6940   46.0620 O   0  0  0  0  0  0  0  0  0  0  0  0
  1  2  1  0
  2  3  1  0
  3  4  2  0
  3  5  1  0
  5  6  1  0
  6  7  1  0
  6  8  1  0
  6  9  1  0
  9 10  2  0
 10 11  1  0
 10 12  1  0
 12 13  1  0
 12 14  2  0
 14 15  1  0
 15 16  2  0
 15 17  1  0
 17 18  1  0
 18 19  2  0
 19 20  1  0
 19 21  1  0
 21 22  1  0
 21 23  2  0
 23 24  1  0
 23 25  1  0
 25 26  1  0
 25 27  2  0
 27 28  1  0
 28 29  1  0
 28 30  1  0
 14 31  1  0
 31 32  1  0
 31 33  2  0
 33 34  1  0
  2 35  2  0
 35 36  1  0
 35 37  1  0
 37 38  2  0
 38 39  1  0
 39 40  1  0
 40 41  1  0
 40 42  2  0
 42 43  1  0
 43 44  2  0
 44 45  1  0
 44 46  1  0
 46 47  1  0
 46 48  2  0
 48 49  1  0
 48 50  1  0
 50 51  1  0
 50 52  2  0
 52 53  1  0
 33  9  1  0
 42 37  1  0
 52 43  1  0
 27 18  1  0
M  CHG  3   5  -1  17  -1  53  -1
M  END
>  <UniqueID>  (14) 
14

>  <SMILES>  (14) 
Nc1ccccc1[N-]C(=O)c1ccc(C[N-]C(=O)/C=C/c2nscc2-c2ccccc2[O-])cc1

>  <Energy>  (14) 
100.96356228487998

>  <Genealogy>  (14) 
Nc1ccccc1[N-]C(=O)c1ccc(C[N-]C(=O)C=Cc2nscc2-c2ccccc2[O-])cc1 (protonated)
Nc1ccccc1[N-]C(=O)c1ccc(C[N-]C(=O)/C=C/c2nscc2-c2ccccc2[O-])cc1 (cis-trans isomerization)
Nc1ccccc1[N-]C(=O)c1ccc(C[N-]C(=O)/C=C/c2nscc2-c2ccccc2[O-])cc1 (3D coordinates assigned)
Nc1ccccc1[N-]C(=O)c1ccc(C[N-]C(=O)/C=C/c2nscc2-c2ccccc2[O-])cc1 (optimized conformer: 100.96356228487998 kcal/mol)

>  <smiles>  (14) 
Nc1ccccc1NC(=O)c1ccc(CNC(=O)C=Cc2nscc2-c2ccccc2O)cc1

>  <score_type>  (14) 
oracle

>  <origin>  (14) 
adg

>  <m_score__min__energy>  (14) 
-14.98

>  <m_primary>  (14) 
energy

$$$$
14:0
     RDKit          3D

 49 51  0  0  0  0  0  0  0  0999 V2000
   60.0520   26.8700   47.5270 N   0  0  0  0  0  0  0  0  0  0  0  0
   60.1220   28.0170   48.3810 C   0  0  0  0  0  0  0  0  0  0  0  0
   60.6530   27.8960   49.5190 O   0  0  0  0  0  0  0  0  0  0  0  0
   59.5850   29.3320   47.9560 C   0  0  0  0  0  0  0  0  0  0  0  0
   59.6280   30.4510   48.8260 C   0  0  0  0  0  0  0  0  0  0  0  0
   59.1260   31.7010   48.4260 C   0  0  0  0  0  0  0  0  0  0  0  0
   59.2220   32.8200   49.3170 N   0  0  0  0  0  0  0  0  0  0  0  0
   60.4230   33.5500   49.6090 C   0  0  0  0  0  0  0  0  0  0  0  0
   60.4860   34.2030   50.6850 O   0  0  0  0  0  0  0  0  0  0  0  0
   61.5920   33.5330   48.6970 C   0  0  0  0  0  0  0  0  0  0  0  0
   62.8790   33.2280   49.1790 C   0  0  0  0  0  0  0  0  0  0  0  0
   63.9710   33.2090   48.3080 C   0  0  0  0  0  0  0  0  0  0  0  0
   63.7950   33.5030   46.9530 C   0  0  0  0  0  0  0  0  0  0  0  0
   62.5250   33.8250   46.4690 C   0  0  0  0  0  0  0  0  0  0  0  0
   61.4280   33.8460   47.3350 C   0  0  0  0  0  0  0  0  0  0  0  0
   58.5180   31.7870   47.1670 C   0  0  0  0  0  0  0  0  0  0  0  0
   57.8610   32.8330   46.5480 C   0  0  0  0  0  0  0  0  0  0  0  0
   57.4210   32.3320   45.3320 C   0  0  0  0  0  0  0  0  0  0  0  0
   57.7640   31.0280   45.2010 N   0  0  0  0  0  0  0  0  0  0  0  0
   57.4460   30.1820   44.0460 C   0  0  0  0  0  0  0  0  0  0  0  0
   56.1330   29.4700   44.2430 C   0  0  0  0  0  0  0  0  0  0  0  0
   55.1700   29.7480   43.4790 O   0  0  0  0  0  0  0  0  0  0  0  0
   55.9380   28.4750   45.2580 N   0  0  0  0  0  0  0  0  0  0  0  0
   56.9690   27.6090   45.8270 C   0  0  0  0  0  0  0  0  0  0  0  0
   56.8380   26.1910   45.2570 C   0  0  0  0  0  0  0  0  0  0  0  0
   55.7220   25.3990   45.9470 C   0  0  0  0  0  0  0  0  0  0  0  0
   54.5210   26.1190   45.9480 O   0  0  0  0  0  0  0  0  0  0  0  0
   58.4440   30.7040   46.3240 C   0  0  0  0  0  0  0  0  0  0  0  0
   58.9850   29.4650   46.6820 C   0  0  0  0  0  0  0  0  0  0  0  0
   59.4680   26.8620   46.6640 H   0  0  0  0  0  0  0  0  0  0  0  0
   60.5280   25.9830   47.8050 H   0  0  0  0  0  0  0  0  0  0  0  0
   60.0615   30.3386   49.8307 H   0  0  0  0  0  0  0  0  0  0  0  0
   63.0254   33.0037   50.2459 H   0  0  0  0  0  0  0  0  0  0  0  0
   64.9726   32.9619   48.6898 H   0  0  0  0  0  0  0  0  0  0  0  0
   64.6558   33.4808   46.2685 H   0  0  0  0  0  0  0  0  0  0  0  0
   62.3878   34.0626   45.4038 H   0  0  0  0  0  0  0  0  0  0  0  0
   60.4316   34.1085   46.9499 H   0  0  0  0  0  0  0  0  0  0  0  0
   57.7169   33.8512   46.9384 H   0  0  0  0  0  0  0  0  0  0  0  0
   56.8697   32.9131   44.5781 H   0  0  0  0  0  0  0  0  0  0  0  0
   57.3824   30.8112   43.1460 H   0  0  0  0  0  0  0  0  0  0  0  0
   58.2397   29.4286   43.9345 H   0  0  0  0  0  0  0  0  0  0  0  0
   57.9616   28.0117   45.5767 H   0  0  0  0  0  0  0  0  0  0  0  0
   56.8457   27.5713   46.9194 H   0  0  0  0  0  0  0  0  0  0  0  0
   56.6137   26.2590   44.1822 H   0  0  0  0  0  0  0  0  0  0  0  0
   57.7879   25.6643   45.4311 H   0  0  0  0  0  0  0  0  0  0  0  0
   55.5715   24.4496   45.4123 H   0  0  0  0  0  0  0  0  0  0  0  0
   56.0188   25.2120   46.9896 H   0  0  0  0  0  0  0  0  0  0  0  0
   54.7640   27.0790   46.0120 H   0  0  0  0  0  0  0  0  0  0  0  0
   58.9448   28.6125   45.9880 H   0  0  0  0  0  0  0  0  0  0  0  0
  1  2  1  0
  2  3  2  0
  2  4  1  0
  4  5  2  0
  5  6  1  0
  6  7  1  0
  7  8  1  0
  8  9  2  0
  8 10  1  0
 10 11  2  0
 11 12  1  0
 12 13  2  0
 13 14  1  0
 14 15  2  0
  6 16  2  0
 16 17  1  0
 17 18  2  0
 18 19  1  0
 19 20  1  0
 20 21  1  0
 21 22  2  0
 21 23  1  0
 23 24  1  0
 24 25  1  0
 25 26  1  0
 26 27  1  0
 19 28  1  0
 28 29  2  0
 29  4  1  0
 15 10  1  0
 28 16  1  0
  1 30  1  0
  1 31  1  0
  5 32  1  0
 11 33  1  0
 12 34  1  0
 13 35  1  0
 14 36  1  0
 15 37  1  0
 17 38  1  0
 18 39  1  0
 20 40  1  0
 20 41  1  0
 24 42  1  0
 24 43  1  0
 25 44  1  0
 25 45  1  0
 26 46  1  0
 26 47  1  0
 27 48  1  0
 29 49  1  0
M  CHG  2   7  -1  23  -1
M  END
>  <UniqueID>  (15) 
15

>  <SMILES>  (15) 
NC(=O)c1cc([N-]C(=O)c2ccccc2)c2ccn(CC(=O)[N-]CCCO)c2c1

>  <Energy>  (15) 
85.77007129570306

>  <Genealogy>  (15) 
NC(=O)c1cc([N-]C(=O)c2ccccc2)c2ccn(CC(=O)[N-]CCCO)c2c1 (protonated)
NC(=O)c1cc([N-]C(=O)c2ccccc2)c2ccn(CC(=O)[N-]CCCO)c2c1 (3D coordinates assigned)
NC(=O)c1cc([N-]C(=O)c2ccccc2)c2ccn(CC(=O)[N-]CCCO)c2c1 (optimized conformer: 85.77007129570306 kcal/mol)

>  <smiles>  (15) 
NC(=O)c1cc(NC(=O)c2ccccc2)c2ccn(CC(=O)NCCCO)c2c1

>  <score_type>  (15) 
oracle

>  <origin>  (15) 
adg

>  <m_score__min__energy>  (15) 
-11.800000000000001

>  <m_primary>  (15) 
energy

$$$$
15:0
     RDKit          3D

 52 54  0  0  0  0  0  0  0  0999 V2000
   55.7719   31.1974   42.8673 H   0  0  0  0  0  0  0  0  0  0  0  0
   56.6210   30.8640   43.4820 C   0  0  0  0  0  0  0  0  0  0  0  0
   56.5040   29.5800   44.2070 C   0  0  0  0  0  0  0  0  0  0  0  0
   55.4590   29.3570   44.8720 O   0  0  0  0  0  0  0  0  0  0  0  0
   57.5830   28.5400   44.1860 C   0  0  0  0  0  0  0  0  0  0  0  0
   57.8574   28.2755   45.2179 H   0  0  0  0  0  0  0  0  0  0  0  0
   57.2185   27.6439   43.6624 H   0  0  0  0  0  0  0  0  0  0  0  0
   58.4650   28.9373   43.6624 H   0  0  0  0  0  0  0  0  0  0  0  0
   57.7120   31.6410   43.5380 C   0  0  0  0  0  0  0  0  0  0  0  0
   58.2698   31.8152   42.6060 H   0  0  0  0  0  0  0  0  0  0  0  0
   58.2140   32.2810   44.7800 C   0  0  0  0  0  0  0  0  0  0  0  0
   58.1340   31.5630   45.9800 C   0  0  0  0  0  0  0  0  0  0  0  0
   57.7002   30.5521   45.9808 H   0  0  0  0  0  0  0  0  0  0  0  0
   58.5980   32.1150   47.1740 C   0  0  0  0  0  0  0  0  0  0  0  0
   58.4979   31.5480   48.1113 H   0  0  0  0  0  0  0  0  0  0  0  0
   59.1900   33.3840   47.1910 C   0  0  0  0  0  0  0  0  0  0  0  0
   59.7910   34.0450   48.7610 S   0  0  0  0  0  0  0  0  0  0  0  0
   59.5270   32.5210   49.6900 C   0  0  0  0  0  0  0  0  0  0  0  0
   58.3140   32.3680   50.3800 C   0  0  0  0  0  0  0  0  0  0  0  0
   57.5683   33.1764   50.3578 H   0  0  0  0  0  0  0  0  0  0  0  0
   58.0460   31.1990   51.0940 C   0  0  0  0  0  0  0  0  0  0  0  0
   57.0869   31.0844   51.6202 H   0  0  0  0  0  0  0  0  0  0  0  0
   58.9930   30.1760   51.1410 C   0  0  0  0  0  0  0  0  0  0  0  0
   58.7759   29.2507   51.6948 H   0  0  0  0  0  0  0  0  0  0  0  0
   60.2150   30.3260   50.4860 C   0  0  0  0  0  0  0  0  0  0  0  0
   60.9617   29.5197   50.5337 H   0  0  0  0  0  0  0  0  0  0  0  0
   60.5010   31.4990   49.7650 C   0  0  0  0  0  0  0  0  0  0  0  0
   61.7950   31.6520   49.1580 N   0  0  0  0  0  0  0  0  0  0  0  0
   62.9080   32.1400   49.9950 C   0  0  0  0  0  0  0  0  0  0  0  0
   63.5936   31.3016   50.1876 H   0  0  0  0  0  0  0  0  0  0  0  0
   62.4685   32.5376   50.9217 H   0  0  0  0  0  0  0  0  0  0  0  0
   63.7070   33.2850   49.3410 C   0  0  0  0  0  0  0  0  0  0  0  0
   64.4365   33.6578   50.0750 H   0  0  0  0  0  0  0  0  0  0  0  0
   62.9727   34.0465   49.0395 H   0  0  0  0  0  0  0  0  0  0  0  0
   64.4390   32.9000   48.1180 N   0  0  0  0  0  0  0  0  0  0  0  0
   65.3130   33.4760   48.0700 H   0  0  0  0  0  0  0  0  0  0  0  0
   63.7210   33.0970   46.8480 C   0  0  0  0  0  0  0  0  0  0  0  0
   64.2098   32.4885   46.0729 H   0  0  0  0  0  0  0  0  0  0  0  0
   63.7580   34.1718   46.6169 H   0  0  0  0  0  0  0  0  0  0  0  0
   62.2380   32.6980   46.9180 C   0  0  0  0  0  0  0  0  0  0  0  0
   61.8762   32.5543   45.8892 H   0  0  0  0  0  0  0  0  0  0  0  0
   61.7298   33.5123   47.4553 H   0  0  0  0  0  0  0  0  0  0  0  0
   61.9370   31.4120   47.7120 C   0  0  0  0  0  0  0  0  0  0  0  0
   62.7608   30.7005   47.5534 H   0  0  0  0  0  0  0  0  0  0  0  0
   60.9780   31.0153   47.3472 H   0  0  0  0  0  0  0  0  0  0  0  0
   59.2510   34.1370   45.9970 C   0  0  0  0  0  0  0  0  0  0  0  0
   59.6860   35.5770   45.9980 C   0  0  0  0  0  0  0  0  0  0  0  0
   59.7918   35.9273   47.0353 H   0  0  0  0  0  0  0  0  0  0  0  0
   60.6519   35.6686   45.4797 H   0  0  0  0  0  0  0  0  0  0  0  0
   58.9324   36.1881   45.4797 H   0  0  0  0  0  0  0  0  0  0  0  0
   58.7720   33.5760   44.8000 C   0  0  0  0  0  0  0  0  0  0  0  0
   58.8333   34.1549   43.8667 H   0  0  0  0  0  0  0  0  0  0  0  0
  1  2  1  0
  2  3  1  0
  3  4  2  0
  3  5  1  0
  5  6  1  0
  5  7  1  0
  5  8  1  0
  2  9  2  0
  9 10  1  0
  9 11  1  0
 11 12  2  0
 12 13  1  0
 12 14  1  0
 14 15  1  0
 14 16  2  0
 16 17  1  0
 17 18  1  0
 18 19  2  0
 19 20  1  0
 19 21  1  0
 21 22  1  0
 21 23  2  0
 23 24  1  0
 23 25  1  0
 25 26  1  0
 25 27  2  0
 27 28  1  0
 28 29  1  0
 29 30  1  0
 29 31  1  0
 29 32  1  0
 32 33  1  0
 32 34  1  0
 32 35  1  0
 35 36  1  0
 35 37  1  0
 37 38  1  0
 37 39  1  0
 37 40  1  0
 40 41  1  0
 40 42  1  0
 40 43  1  0
 43 44  1  0
 43 45  1  0
 16 46  1  0
 46 47  1  0
 47 48  1  0
 47 49  1  0
 47 50  1  0
 46 51  2  0
 51 52  1  0
 51 11  1  0
 27 18  1  0
 43 28  1  0
M  END
>  <UniqueID>  (16) 
16

>  <SMILES>  (16) 
CC(=O)/C=C/c1ccc(Sc2ccccc2N2CCCNCC2)c(C)c1

>  <Energy>  (16) 
66.00464108405835

>  <Genealogy>  (16) 
CC(=O)/C=C/c1ccc(Sc2ccccc2N2CCCNCC2)c(C)c1 (cis-trans isomerization)
CC(=O)/C=C/c1ccc(Sc2ccccc2N2CCCNCC2)c(C)c1 (3D coordinates assigned)
CC(=O)/C=C/c1ccc(Sc2ccccc2N2CCCNCC2)c(C)c1 (nonaromatic ring conformer: 66.00464108405835 kcal/mol)

>  <smiles>  (16) 
CC(=O)C=Cc1ccc(Sc2ccccc2N2CCCNCC2)c(C)c1

>  <score_type>  (16) 
oracle

>  <origin>  (16) 
adg

>  <m_score__min__energy>  (16) 
-7.3499999999999996

>  <m_primary>  (16) 
energy

$$$$
16:0
     RDKit          3D

 54 57  0  0  0  0  0  0  0  0999 V2000
   60.1130   29.9570   46.6830 C   0  0  0  0  0  0  0  0  0  0  0  0
   59.5470   31.1310   46.3630 C   0  0  0  0  0  0  0  0  0  0  0  0
   58.4860   31.3450   45.4650 C   0  0  0  0  0  0  0  0  0  0  0  0
   57.6700   30.4860   44.8210 C   0  0  0  0  0  0  0  0  0  0  0  0
   57.2050   29.1810   45.3140 C   0  0  0  0  0  0  0  0  0  0  0  0
   58.0350   28.2170   45.7500 N   0  0  0  0  0  0  0  0  0  0  0  0
   57.2140   27.1680   45.9640 C   0  0  0  0  0  0  0  0  0  0  0  0
   57.6270   26.0620   46.4010 O   0  0  0  0  0  0  0  0  0  0  0  0
   55.9180   27.3910   45.6620 N   0  0  0  0  0  0  0  0  0  0  0  0
   55.9310   28.6650   45.2370 C   0  0  0  0  0  0  0  0  0  0  0  0
   54.8080   29.3320   44.7710 O   0  0  0  0  0  0  0  0  0  0  0  0
   58.4200   32.7150   45.2710 C   0  0  0  0  0  0  0  0  0  0  0  0
   59.3900   33.2850   46.0660 C   0  0  0  0  0  0  0  0  0  0  0  0
   59.7250   34.7480   46.0530 C   0  0  0  0  0  0  0  0  0  0  0  0
   60.0580   32.3300   46.7490 N   0  0  0  0  0  0  0  0  0  0  0  0
   61.2130   32.5500   47.5840 C   0  0  0  0  0  0  0  0  0  0  0  0
   62.4350   32.1130   47.1610 N   0  0  0  0  0  0  0  0  0  0  0  0
   63.5470   32.2360   47.9340 C   0  0  0  0  0  0  0  0  0  0  0  0
   63.4620   32.8120   49.2010 C   0  0  0  0  0  0  0  0  0  0  0  0
   64.8930   32.9610   50.2040 Cl  0  0  0  0  0  0  0  0  0  0  0  0
   62.2280   33.2700   49.6620 C   0  0  0  0  0  0  0  0  0  0  0  0
   61.0900   33.1620   48.8520 C   0  0  0  0  0  0  0  0  0  0  0  0
   59.8000   33.6820   49.3470 C   0  0  0  0  0  0  0  0  0  0  0  0
   59.2580   34.6450   48.7400 O   0  0  0  0  0  0  0  0  0  0  0  0
   59.1460   33.0920   50.4860 N   0  0  0  0  0  0  0  0  0  0  0  0
   59.1760   33.8010   51.7750 C   0  0  0  0  0  0  0  0  0  0  0  0
   58.4520   33.0120   52.8720 C   0  0  0  0  0  0  0  0  0  0  0  0
   57.1390   32.4450   52.3280 C   0  0  0  0  0  0  0  0  0  0  0  0
   57.3530   31.4880   51.1300 C   0  0  2  0  0  0  0  0  0  0  0  0
   57.2450   30.1520   51.5990 O   0  0  0  0  0  0  0  0  0  0  0  0
   56.2300   30.0410   52.5720 C   0  0  0  0  0  0  0  0  0  0  0  0
   58.7260   31.6860   50.4430 C   0  0  0  0  0  0  0  0  0  0  0  0
   60.9422   29.9249   47.4051 H   0  0  0  0  0  0  0  0  0  0  0  0
   59.7477   29.0269   46.2232 H   0  0  0  0  0  0  0  0  0  0  0  0
   57.3162   30.7927   43.8256 H   0  0  0  0  0  0  0  0  0  0  0  0
   57.7237   33.2478   44.6067 H   0  0  0  0  0  0  0  0  0  0  0  0
   59.8088   35.1142   47.0869 H   0  0  0  0  0  0  0  0  0  0  0  0
   60.6813   34.9006   45.5313 H   0  0  0  0  0  0  0  0  0  0  0  0
   58.9303   35.3015   45.5313 H   0  0  0  0  0  0  0  0  0  0  0  0
   62.5220   31.6530   46.2270 H   0  0  0  0  0  0  0  0  0  0  0  0
   64.5175   31.8797   47.5583 H   0  0  0  0  0  0  0  0  0  0  0  0
   62.1480   33.7171   50.6639 H   0  0  0  0  0  0  0  0  0  0  0  0
   60.2235   33.9505   52.0755 H   0  0  0  0  0  0  0  0  0  0  0  0
   58.6612   34.7649   51.6487 H   0  0  0  0  0  0  0  0  0  0  0  0
   59.0938   32.1850   53.2100 H   0  0  0  0  0  0  0  0  0  0  0  0
   58.2337   33.6832   53.7157 H   0  0  0  0  0  0  0  0  0  0  0  0
   56.6334   31.8927   53.1338 H   0  0  0  0  0  0  0  0  0  0  0  0
   56.5329   33.2916   51.9731 H   0  0  0  0  0  0  0  0  0  0  0  0
   56.5842   31.7106   50.3754 H   0  0  0  0  0  0  0  0  0  0  0  0
   56.6773   30.0899   53.5757 H   0  0  0  0  0  0  0  0  0  0  0  0
   55.5129   30.8661   52.4496 H   0  0  0  0  0  0  0  0  0  0  0  0
   55.7082   29.0804   52.4496 H   0  0  0  0  0  0  0  0  0  0  0  0
   59.4775   31.0715   50.9604 H   0  0  0  0  0  0  0  0  0  0  0  0
   58.6341   31.3831   49.3895 H   0  0  0  0  0  0  0  0  0  0  0  0
  1  2  2  0
  2  3  1  0
  3  4  2  3
  4  5  1  0
  5  6  1  0
  6  7  1  0
  7  8  2  0
  7  9  1  0
  9 10  1  0
 10 11  1  0
  3 12  1  0
 12 13  2  0
 13 14  1  0
 13 15  1  0
 15 16  1  0
 16 17  2  0
 17 18  1  0
 18 19  2  0
 19 20  1  0
 19 21  1  0
 21 22  2  0
 22 23  1  0
 23 24  2  0
 23 25  1  0
 25 26  1  0
 26 27  1  0
 27 28  1  0
 28 29  1  0
 29 30  1  0
 30 31  1  0
 29 32  1  0
 15  2  1  0
 22 16  1  0
 32 25  1  0
 10  5  2  0
  1 33  1  0
  1 34  1  0
  4 35  1  0
 12 36  1  0
 14 37  1  0
 14 38  1  0
 14 39  1  0
 17 40  1  0
 18 41  1  0
 21 42  1  0
 26 43  1  0
 26 44  1  0
 27 45  1  0
 27 46  1  0
 28 47  1  0
 28 48  1  0
 29 49  1  6
 31 50  1  0
 31 51  1  0
 31 52  1  0
 32 53  1  0
 32 54  1  0
M  CHG  4   6  -1   9  -1  11  -1  17   1
M  END
>  <UniqueID>  (17) 
17

>  <SMILES>  (17) 
C=c1c(=Cc2[n-]c(=O)[n-]c2[O-])cc(C)n1-c1[nH+]cc(Cl)cc1C(=O)N1CCC[C@H](OC)C1

>  <Energy>  (17) 
138.70056210342813

>  <Genealogy>  (17) 
C=c1c(=Cc2[n-]c(=O)[n-]c2[O-])cc(C)n1-c1[nH+]cc(Cl)cc1C(=O)N1CCCC(OC)C1 (protonated)
C=c1c(=Cc2[n-]c(=O)[n-]c2[O-])cc(C)n1-c1[nH+]cc(Cl)cc1C(=O)N1CCC[C@H](OC)C1 (chirality)
C=c1c(=Cc2[n-]c(=O)[n-]c2[O-])cc(C)n1-c1[nH+]cc(Cl)cc1C(=O)N1CCC[C@H](OC)C1 (3D coordinates assigned)
C=c1c(=Cc2[n-]c(=O)[n-]c2[O-])cc(C)n1-c1[nH+]cc(Cl)cc1C(=O)N1CCC[C@H](OC)C1 (nonaromatic ring conformer: 138.70056210342813 kcal/mol)

>  <smiles>  (17) 
C=c1c(=Cc2[nH]c(=O)[nH]c2O)cc(C)n1-c1ncc(Cl)cc1C(=O)N1CCCC(OC)C1

>  <score_type>  (17) 
oracle

>  <origin>  (17) 
adg

>  <m_score__min__energy>  (17) 
-15.039999999999999

>  <m_primary>  (17) 
energy

$$$$
17:0
     RDKit          3D

 52 54  0  0  0  0  0  0  0  0999 V2000
   60.0410   31.1060   46.9350 H   0  0  0  0  0  0  0  0  0  0  0  0
   61.0400   31.2300   46.8260 O   0  0  0  0  0  0  0  0  0  0  0  0
   61.7600   32.2130   47.5070 C   0  0  0  0  0  0  0  0  0  0  0  0
   63.1460   32.2820   47.3150 C   0  0  0  0  0  0  0  0  0  0  0  0
   63.6393   31.5716   46.6353 H   0  0  0  0  0  0  0  0  0  0  0  0
   63.9060   33.2470   47.9810 C   0  0  0  0  0  0  0  0  0  0  0  0
   64.9935   33.2952   47.8227 H   0  0  0  0  0  0  0  0  0  0  0  0
   63.2870   34.1500   48.8470 C   0  0  0  0  0  0  0  0  0  0  0  0
   63.8871   34.9073   49.3728 H   0  0  0  0  0  0  0  0  0  0  0  0
   61.9050   34.0920   49.0460 C   0  0  0  0  0  0  0  0  0  0  0  0
   61.4203   34.8035   49.7307 H   0  0  0  0  0  0  0  0  0  0  0  0
   61.1330   33.1310   48.3770 C   0  0  0  0  0  0  0  0  0  0  0  0
   59.3580   33.1020   48.6560 S   0  0  0  0  0  0  0  0  0  0  0  0
   58.9950   33.2660   46.9100 C   0  0  0  0  0  0  0  0  0  0  0  0
   58.6100   32.1740   46.1970 N   0  0  0  0  0  0  0  0  0  0  0  0
   58.3250   32.2430   44.8690 C   0  0  0  0  0  0  0  0  0  0  0  0
   57.9540   31.0040   44.1550 C   0  0  0  0  0  0  0  0  0  0  0  0
   58.3116   30.8872   43.1213 H   0  0  0  0  0  0  0  0  0  0  0  0
   57.2120   30.0070   44.6720 C   0  0  0  0  0  0  0  0  0  0  0  0
   55.8820   29.8010   44.1520 C   0  0  0  0  0  0  0  0  0  0  0  0
   54.8160   29.6350   43.7340 N   0  0  0  0  0  0  0  0  0  0  0  0
   57.7070   29.0740   45.7060 C   0  0  0  0  0  0  0  0  0  0  0  0
   57.0300   28.0490   45.9940 O   0  0  0  0  0  0  0  0  0  0  0  0
   58.9910   29.2800   46.3080 N   0  0  0  0  0  0  0  0  0  0  0  0
   59.2960   29.1600   47.7030 C   0  0  0  0  0  0  0  0  0  0  0  0
   60.3830   28.3670   48.0900 C   0  0  0  0  0  0  0  0  0  0  0  0
   60.9599   27.8206   47.3293 H   0  0  0  0  0  0  0  0  0  0  0  0
   60.7390   28.2660   49.4380 C   0  0  0  0  0  0  0  0  0  0  0  0
   61.5842   27.6282   49.7361 H   0  0  0  0  0  0  0  0  0  0  0  0
   60.0240   28.9730   50.4070 C   0  0  0  0  0  0  0  0  0  0  0  0
   60.3053   28.8889   51.4671 H   0  0  0  0  0  0  0  0  0  0  0  0
   58.9480   29.7900   50.0310 C   0  0  0  0  0  0  0  0  0  0  0  0
   58.0770   30.7280   51.2460 S   0  0  0  0  0  0  0  0  0  0  0  0
   59.0450   31.1890   52.3010 O   0  0  0  0  0  0  0  0  0  0  0  0
   57.4830   31.9470   50.5980 O   0  0  0  0  0  0  0  0  0  0  0  0
   56.8060   29.7890   51.9910 N   0  0  0  0  0  0  0  0  0  0  0  0
   57.2510   29.2990   53.3010 C   0  0  0  0  0  0  0  0  0  0  0  0
   56.7399   29.8618   54.0960 H   0  0  0  0  0  0  0  0  0  0  0  0
   57.0084   28.2301   53.3944 H   0  0  0  0  0  0  0  0  0  0  0  0
   58.3382   29.4378   53.3944 H   0  0  0  0  0  0  0  0  0  0  0  0
   55.6000   30.6130   52.1410 C   0  0  0  0  0  0  0  0  0  0  0  0
   55.3863   30.7590   53.2101 H   0  0  0  0  0  0  0  0  0  0  0  0
   55.7618   31.5902   51.6626 H   0  0  0  0  0  0  0  0  0  0  0  0
   54.7484   30.1071   51.6626 H   0  0  0  0  0  0  0  0  0  0  0  0
   58.5870   29.8830   48.6800 C   0  0  0  0  0  0  0  0  0  0  0  0
   57.7448   30.5247   48.3818 H   0  0  0  0  0  0  0  0  0  0  0  0
   58.4750   33.4680   44.1940 C   0  0  0  0  0  0  0  0  0  0  0  0
   58.2905   33.5311   43.1114 H   0  0  0  0  0  0  0  0  0  0  0  0
   58.8600   34.6030   44.9100 C   0  0  0  0  0  0  0  0  0  0  0  0
   58.9582   35.5713   44.3974 H   0  0  0  0  0  0  0  0  0  0  0  0
   59.1200   34.5060   46.2780 C   0  0  0  0  0  0  0  0  0  0  0  0
   59.4198   35.3953   46.8518 H   0  0  0  0  0  0  0  0  0  0  0  0
  1  2  1  0
  2  3  1  0
  3  4  2  0
  4  5  1  0
  4  6  1  0
  6  7  1  0
  6  8  2  0
  8  9  1  0
  8 10  1  0
 10 11  1  0
 10 12  2  0
 12 13  1  0
 13 14  1  0
 14 15  2  0
 15 16  1  0
 16 17  1  0
 17 18  1  0
 17 19  2  0
 19 20  1  0
 20 21  3  0
 19 22  1  0
 22 23  2  0
 22 24  1  0
 24 25  1  0
 25 26  2  0
 26 27  1  0
 26 28  1  0
 28 29  1  0
 28 30  2  0
 30 31  1  0
 30 32  1  0
 32 33  1  0
 33 34  2  0
 33 35  2  0
 33 36  1  0
 36 37  1  0
 37 38  1  0
 37 39  1  0
 37 40  1  0
 36 41  1  0
 41 42  1  0
 41 43  1  0
 41 44  1  0
 32 45  2  0
 45 46  1  0
 16 47  2  0
 47 48  1  0
 47 49  1  0
 49 50  1  0
 49 51  2  0
 51 52  1  0
 12  3  1  0
 51 14  1  0
 45 25  1  0
M  CHG  1  24  -1
M  END
>  <UniqueID>  (18) 
18

>  <SMILES>  (18) 
CN(C)S(=O)(=O)c1cccc([N-]C(=O)/C(C#N)=C\c2cccc(Sc3ccccc3O)n2)c1

>  <Energy>  (18) 
57.65008169957661

>  <Genealogy>  (18) 
CN(C)S(=O)(=O)c1cccc([N-]C(=O)C(C#N)=Cc2cccc(Sc3ccccc3O)n2)c1 (protonated)
CN(C)S(=O)(=O)c1cccc([N-]C(=O)/C(C#N)=C\c2cccc(Sc3ccccc3O)n2)c1 (cis-trans isomerization)
CN(C)S(=O)(=O)c1cccc([N-]C(=O)/C(C#N)=C\c2cccc(Sc3ccccc3O)n2)c1 (3D coordinates assigned)
CN(C)S(=O)(=O)c1cccc([N-]C(=O)/C(C#N)=C\c2cccc(Sc3ccccc3O)n2)c1 (optimized conformer: 57.65008169957661 kcal/mol)

>  <smiles>  (18) 
CN(C)S(=O)(=O)c1cccc(NC(=O)C(C#N)=Cc2cccc(Sc3ccccc3O)n2)c1

>  <score_type>  (18) 
oracle

>  <origin>  (18) 
adg

>  <m_score__min__energy>  (18) 
-11.359999999999999

>  <m_primary>  (18) 
energy

$$$$
18:0
     RDKit          3D

 46 48  0  0  0  0  0  0  0  0999 V2000
   55.8300   30.9120   44.8550 O   0  0  0  0  0  0  0  0  0  0  0  0
   56.9450   31.2960   44.4020 C   0  0  0  0  0  0  0  0  0  0  0  0
   57.8380   30.3510   43.7950 N   0  0  0  0  0  0  0  0  0  0  0  0
   57.5500   28.9200   43.7480 C   0  0  0  0  0  0  0  0  0  0  0  0
   58.1610   28.2290   44.9380 C   0  0  0  0  0  0  0  0  0  0  0  0
   57.4590   27.2180   45.6150 C   0  0  0  0  0  0  0  0  0  0  0  0
   58.0240   26.6010   46.7360 C   0  0  0  0  0  0  0  0  0  0  0  0
   59.2870   26.9910   47.1900 C   0  0  0  0  0  0  0  0  0  0  0  0
   59.9890   27.9990   46.5230 C   0  0  0  0  0  0  0  0  0  0  0  0
   59.4280   28.6180   45.4010 C   0  0  0  0  0  0  0  0  0  0  0  0
   57.3660   32.7350   44.5690 C   0  0  0  0  0  0  0  0  0  0  0  0
   56.6420   33.4140   45.7600 C   0  0  0  0  0  0  0  0  0  0  0  0
   57.5360   33.4560   47.0040 C   0  0  0  0  0  0  0  0  0  0  0  0
   58.7650   34.2450   46.7640 N   0  0  0  0  0  0  0  0  0  0  0  0
   59.9610   33.8520   47.9740 S   0  0  0  0  0  0  0  0  0  0  0  0
   60.0410   34.9590   48.9880 O   0  0  0  0  0  0  0  0  0  0  0  0
   59.5620   32.5770   48.6680 O   0  0  0  0  0  0  0  0  0  0  0  0
   61.5240   33.6660   47.2090 N   0  0  0  0  0  0  0  0  0  0  0  0
   61.9120   32.2520   47.1540 C   0  0  0  0  0  0  0  0  0  0  0  0
   63.0360   32.4340   48.1550 C   0  0  0  0  0  0  0  0  0  0  0  0
   62.6100   33.8900   48.1720 C   0  0  0  0  0  0  0  0  0  0  0  0
   59.3270   34.1150   45.3960 C   0  0  0  0  0  0  0  0  0  0  0  0
   58.9030   32.8150   44.6960 C   0  0  0  0  0  0  0  0  0  0  0  0
   58.7430   30.6880   43.3950 H   0  0  0  0  0  0  0  0  0  0  0  0
   56.4606   28.7677   43.7588 H   0  0  0  0  0  0  0  0  0  0  0  0
   57.9784   28.4970   42.8274 H   0  0  0  0  0  0  0  0  0  0  0  0
   56.4631   26.9110   45.2629 H   0  0  0  0  0  0  0  0  0  0  0  0
   57.4730   25.8070   47.2614 H   0  0  0  0  0  0  0  0  0  0  0  0
   59.7286   26.5046   48.0723 H   0  0  0  0  0  0  0  0  0  0  0  0
   60.9830   28.3056   46.8806 H   0  0  0  0  0  0  0  0  0  0  0  0
   59.9817   29.4126   44.8795 H   0  0  0  0  0  0  0  0  0  0  0  0
   57.0641   33.2972   43.6730 H   0  0  0  0  0  0  0  0  0  0  0  0
   56.3733   34.4424   45.4769 H   0  0  0  0  0  0  0  0  0  0  0  0
   55.7419   32.8285   45.9988 H   0  0  0  0  0  0  0  0  0  0  0  0
   56.9744   33.9128   47.8322 H   0  0  0  0  0  0  0  0  0  0  0  0
   57.8309   32.4255   47.2513 H   0  0  0  0  0  0  0  0  0  0  0  0
   61.1233   31.5692   47.5028 H   0  0  0  0  0  0  0  0  0  0  0  0
   62.1434   31.8057   46.1756 H   0  0  0  0  0  0  0  0  0  0  0  0
   62.9066   31.8975   49.1065 H   0  0  0  0  0  0  0  0  0  0  0  0
   64.0702   32.1147   47.9590 H   0  0  0  0  0  0  0  0  0  0  0  0
   62.2573   34.2304   49.1567 H   0  0  0  0  0  0  0  0  0  0  0  0
   63.3607   34.6633   47.9521 H   0  0  0  0  0  0  0  0  0  0  0  0
   58.9817   34.9673   44.7924 H   0  0  0  0  0  0  0  0  0  0  0  0
   60.4228   34.0968   45.4899 H   0  0  0  0  0  0  0  0  0  0  0  0
   59.3497   32.7845   43.6912 H   0  0  0  0  0  0  0  0  0  0  0  0
   59.2514   31.9619   45.2968 H   0  0  0  0  0  0  0  0  0  0  0  0
  1  2  2  0
  2  3  1  0
  3  4  1  0
  4  5  1  0
  5  6  2  0
  6  7  1  0
  7  8  2  0
  8  9  1  0
  9 10  2  0
  2 11  1  0
 11 12  1  0
 12 13  1  0
 13 14  1  0
 14 15  1  0
 15 16  2  0
 15 17  2  0
 15 18  1  0
 18 19  1  0
 19 20  1  0
 20 21  1  0
 14 22  1  0
 22 23  1  0
 10  5  1  0
 23 11  1  0
 21 18  1  0
  3 24  1  0
  4 25  1  0
  4 26  1  0
  6 27  1  0
  7 28  1  0
  8 29  1  0
  9 30  1  0
 10 31  1  0
 11 32  1  0
 12 33  1  0
 12 34  1  0
 13 35  1  0
 13 36  1  0
 19 37  1  0
 19 38  1  0
 20 39  1  0
 20 40  1  0
 21 41  1  0
 21 42  1  0
 22 43  1  0
 22 44  1  0
 23 45  1  0
 23 46  1  0
M  END
>  <UniqueID>  (19) 
19

>  <SMILES>  (19) 
O=C(NCc1ccccc1)C1CCN(S(=O)(=O)N2CCC2)CC1

>  <Energy>  (19) 
113.97682040417207

>  <Genealogy>  (19) 
O=C(NCc1ccccc1)C1CCN(S(=O)(=O)N2CCC2)CC1 (3D coordinates assigned)
O=C(NCc1ccccc1)C1CCN(S(=O)(=O)N2CCC2)CC1 (nonaromatic ring conformer: 113.97682040417207 kcal/mol)

>  <smiles>  (19) 
O=C(NCc1ccccc1)C1CCN(S(=O)(=O)N2CCC2)CC1

>  <score_type>  (19) 
oracle

>  <origin>  (19) 
adg

>  <m_score__min__energy>  (19) 
-8.8399999999999999

>  <m_primary>  (19) 
energy

$$$$
19:0
     RDKit          3D

 61 64  0  0  0  0  0  0  0  0999 V2000
   58.5330   29.4360   47.2030 C   0  0  0  0  0  0  0  0  0  0  0  0
   57.9480   29.3720   45.9960 C   0  0  0  0  0  0  0  0  0  0  0  0
   57.6120   28.2150   45.2740 C   0  0  0  0  0  0  0  0  0  0  0  0
   57.5950   26.9200   45.6420 C   0  0  0  0  0  0  0  0  0  0  0  0
   56.4120   26.0450   45.6210 C   0  0  0  0  0  0  0  0  0  0  0  0
   55.2040   26.4000   46.1110 N   0  0  0  0  0  0  0  0  0  0  0  0
   54.3760   25.3930   45.8720 N   0  0  0  0  0  0  0  0  0  0  0  0
   55.0940   24.4540   45.2320 C   0  0  0  0  0  0  0  0  0  0  0  0
   54.6220   23.3430   44.8720 O   0  0  0  0  0  0  0  0  0  0  0  0
   56.3670   24.8330   45.0320 N   0  0  0  0  0  0  0  0  0  0  0  0
   57.4670   24.0510   44.4670 C   0  0  0  0  0  0  0  0  0  0  0  0
   58.2090   23.3050   45.5840 C   0  0  0  0  0  0  0  0  0  0  0  0
   57.4050   22.1090   46.1100 C   0  0  0  0  0  0  0  0  0  0  0  0
   57.1150   22.2480   47.5560 N   0  0  0  0  0  0  0  0  0  0  0  0
   55.8640   21.5570   47.9160 C   0  0  0  0  0  0  0  0  0  0  0  0
   57.0130   23.6700   47.9220 C   0  0  0  0  0  0  0  0  0  0  0  0
   57.2620   28.6380   44.0030 C   0  0  0  0  0  0  0  0  0  0  0  0
   57.3280   30.0150   44.0070 C   0  0  0  0  0  0  0  0  0  0  0  0
   57.0190   30.8840   42.8260 C   0  0  0  0  0  0  0  0  0  0  0  0
   57.7440   30.4630   45.2120 N   0  0  0  0  0  0  0  0  0  0  0  0
   57.9770   31.8390   45.5610 C   0  0  0  0  0  0  0  0  0  0  0  0
   57.0230   32.8160   45.2510 C   0  0  0  0  0  0  0  0  0  0  0  0
   57.2570   34.1530   45.5800 C   0  0  0  0  0  0  0  0  0  0  0  0
   58.4390   34.5210   46.2270 C   0  0  0  0  0  0  0  0  0  0  0  0
   59.4020   33.5510   46.5610 C   0  0  0  0  0  0  0  0  0  0  0  0
   60.6490   33.9540   47.2550 C   0  0  0  0  0  0  0  0  0  0  0  0
   60.5850   34.7690   48.2170 O   0  0  0  0  0  0  0  0  0  0  0  0
   61.9240   33.4200   46.8640 N   0  0  0  0  0  0  0  0  0  0  0  0
   63.1560   33.8430   47.5220 C   0  0  0  0  0  0  0  0  0  0  0  0
   63.8420   32.7290   48.2920 C   0  0  0  0  0  0  0  0  0  0  0  0
   63.0830   33.8140   49.0390 C   0  0  0  0  0  0  0  0  0  0  0  0
   59.1640   32.2080   46.2110 C   0  0  0  0  0  0  0  0  0  0  0  0
   58.7432   30.4137   47.6612 H   0  0  0  0  0  0  0  0  0  0  0  0
   58.8020   28.5107   47.7336 H   0  0  0  0  0  0  0  0  0  0  0  0
   58.5426   26.4802   45.9864 H   0  0  0  0  0  0  0  0  0  0  0  0
   57.0642   23.3226   43.7478 H   0  0  0  0  0  0  0  0  0  0  0  0
   58.1680   24.7292   43.9585 H   0  0  0  0  0  0  0  0  0  0  0  0
   59.1698   22.9415   45.1906 H   0  0  0  0  0  0  0  0  0  0  0  0
   58.3597   24.0059   46.4183 H   0  0  0  0  0  0  0  0  0  0  0  0
   56.4552   22.0457   45.5588 H   0  0  0  0  0  0  0  0  0  0  0  0
   58.0028   21.1975   45.9624 H   0  0  0  0  0  0  0  0  0  0  0  0
   55.7745   21.5076   49.0112 H   0  0  0  0  0  0  0  0  0  0  0  0
   55.0076   22.1100   47.5027 H   0  0  0  0  0  0  0  0  0  0  0  0
   55.8761   20.5377   47.5027 H   0  0  0  0  0  0  0  0  0  0  0  0
   57.0060   23.7670   49.0177 H   0  0  0  0  0  0  0  0  0  0  0  0
   57.8742   24.2171   47.5109 H   0  0  0  0  0  0  0  0  0  0  0  0
   56.0825   24.0886   47.5109 H   0  0  0  0  0  0  0  0  0  0  0  0
   56.9844   27.9978   43.1527 H   0  0  0  0  0  0  0  0  0  0  0  0
   56.6695   31.8668   43.1753 H   0  0  0  0  0  0  0  0  0  0  0  0
   57.9266   31.0125   42.2179 H   0  0  0  0  0  0  0  0  0  0  0  0
   56.2341   30.4107   42.2179 H   0  0  0  0  0  0  0  0  0  0  0  0
   56.0877   32.5300   44.7475 H   0  0  0  0  0  0  0  0  0  0  0  0
   56.5082   34.9186   45.3288 H   0  0  0  0  0  0  0  0  0  0  0  0
   58.6183   35.5770   46.4773 H   0  0  0  0  0  0  0  0  0  0  0  0
   61.9710   32.5970   46.2230 H   0  0  0  0  0  0  0  0  0  0  0  0
   63.4690   34.5843   46.7720 H   0  0  0  0  0  0  0  0  0  0  0  0
   63.4413   31.7053   48.2523 H   0  0  0  0  0  0  0  0  0  0  0  0
   64.8651   32.3270   48.3324 H   0  0  0  0  0  0  0  0  0  0  0  0
   62.1330   33.5757   49.5397 H   0  0  0  0  0  0  0  0  0  0  0  0
   63.3290   34.5225   49.8437 H   0  0  0  0  0  0  0  0  0  0  0  0
   59.9158   31.4412   46.4495 H   0  0  0  0  0  0  0  0  0  0  0  0
  1  2  2  0
  2  3  1  0
  3  4  2  3
  4  5  1  0
  5  6  2  0
  6  7  1  0
  7  8  1  0
  8  9  2  0
  8 10  1  0
 10 11  1  0
 11 12  1  0
 12 13  1  0
 13 14  1  0
 14 15  1  0
 14 16  1  0
  3 17  1  0
 17 18  2  0
 18 19  1  0
 18 20  1  0
 20 21  1  0
 21 22  2  0
 22 23  1  0
 23 24  2  0
 24 25  1  0
 25 26  1  0
 26 27  2  0
 26 28  1  0
 28 29  1  0
 29 30  1  0
 30 31  1  0
 25 32  2  0
 20  2  1  0
 32 21  1  0
 10  5  1  0
 31 29  1  0
  1 33  1  0
  1 34  1  0
  4 35  1  0
 11 36  1  0
 11 37  1  0
 12 38  1  0
 12 39  1  0
 13 40  1  0
 13 41  1  0
 15 42  1  0
 15 43  1  0
 15 44  1  0
 16 45  1  0
 16 46  1  0
 16 47  1  0
 17 48  1  0
 19 49  1  0
 19 50  1  0
 19 51  1  0
 22 52  1  0
 23 53  1  0
 24 54  1  0
 28 55  1  0
 29 56  1  0
 30 57  1  0
 30 58  1  0
 31 59  1  0
 31 60  1  0
 32 61  1  0
M  CHG  1   7  -1
M  END
>  <UniqueID>  (20) 
20

>  <SMILES>  (20) 
C=c1c(=Cc2n[n-]c(=O)n2CCCN(C)C)cc(C)n1-c1cccc(C(=O)NC2CC2)c1

>  <Energy>  (20) 
405.2502723112006

>  <Genealogy>  (20) 
C=c1c(=Cc2n[n-]c(=O)n2CCCN(C)C)cc(C)n1-c1cccc(C(=O)NC2CC2)c1 (protonated)
C=c1c(=Cc2n[n-]c(=O)n2CCCN(C)C)cc(C)n1-c1cccc(C(=O)NC2CC2)c1 (3D coordinates assigned)
C=c1c(=Cc2n[n-]c(=O)n2CCCN(C)C)cc(C)n1-c1cccc(C(=O)NC2CC2)c1 (nonaromatic ring conformer: 405.2502723112006 kcal/mol)

>  <smiles>  (20) 
C=c1c(=Cc2n[nH]c(=O)n2CCCN(C)C)cc(C)n1-c1cccc(C(=O)NC2CC2)c1

>  <score_type>  (20) 
oracle

>  <origin>  (20) 
adg

>  <m_score__min__energy>  (20) 
-11.75

>  <m_primary>  (20) 
energy

$$$$
20:0
     RDKit          3D

 28 30  0  0  0  0  0  0  0  0999 V2000
   55.9810   29.4690   43.5730 C   0  0  0  0  0  0  0  0  0  0  0  0
   56.7910   29.6100   44.6240 C   0  0  0  0  0  0  0  0  0  0  0  0
   57.0200   30.8040   45.2030 N   0  0  0  0  0  0  0  0  0  0  0  0
   57.8640   30.6300   46.2070 N   0  0  0  0  0  0  0  0  0  0  0  0
   58.1930   29.3250   46.2830 C   0  0  0  0  0  0  0  0  0  0  0  0
   58.9710   28.7900   47.4170 C   0  0  0  0  0  0  0  0  0  0  0  0
   59.7400   27.6230   47.2750 C   0  0  0  0  0  0  0  0  0  0  0  0
   60.4600   27.1160   48.3600 C   0  0  0  0  0  0  0  0  0  0  0  0
   60.3980   27.7560   49.6010 C   0  0  0  0  0  0  0  0  0  0  0  0
   59.6080   28.8990   49.7600 C   0  0  0  0  0  0  0  0  0  0  0  0
   59.5390   29.5280   50.9970 O   0  0  0  0  0  0  0  0  0  0  0  0
   58.8890   29.4090   48.6740 C   0  0  0  0  0  0  0  0  0  0  0  0
   57.5390   28.6260   45.2650 C   0  0  0  0  0  0  0  0  0  0  0  0
   57.6060   27.3190   44.9340 C   0  0  0  0  0  0  0  0  0  0  0  0
   57.1880   26.2090   45.8060 C   0  0  0  0  0  0  0  0  0  0  0  0
   58.0450   25.3330   46.3590 N   0  0  0  0  0  0  0  0  0  0  0  0
   57.2460   24.5620   47.1280 C   0  0  0  0  0  0  0  0  0  0  0  0
   57.6870   23.5980   47.8080 O   0  0  0  0  0  0  0  0  0  0  0  0
   55.9420   24.9080   47.1200 N   0  0  0  0  0  0  0  0  0  0  0  0
   55.9230   25.9620   46.2900 C   0  0  0  0  0  0  0  0  0  0  0  0
   54.7810   26.7010   46.0050 O   0  0  0  0  0  0  0  0  0  0  0  0
   55.8220   28.4745   43.1306 H   0  0  0  0  0  0  0  0  0  0  0  0
   55.4722   30.3473   43.1490 H   0  0  0  0  0  0  0  0  0  0  0  0
   59.7756   27.1057   46.3049 H   0  0  0  0  0  0  0  0  0  0  0  0
   61.0758   26.2128   48.2374 H   0  0  0  0  0  0  0  0  0  0  0  0
   60.9707   27.3606   50.4528 H   0  0  0  0  0  0  0  0  0  0  0  0
   58.2564   30.2992   48.8057 H   0  0  0  0  0  0  0  0  0  0  0  0
   58.0020   27.0647   43.9397 H   0  0  0  0  0  0  0  0  0  0  0  0
  1  2  2  0
  2  3  1  0
  3  4  1  0
  4  5  2  0
  5  6  1  0
  6  7  2  0
  7  8  1  0
  8  9  2  0
  9 10  1  0
 10 11  1  0
 10 12  2  0
  5 13  1  0
 13 14  2  3
 14 15  1  0
 15 16  1  0
 16 17  1  0
 17 18  2  0
 17 19  1  0
 19 20  1  0
 20 21  1  0
 13  2  1  0
 20 15  2  0
 12  6  1  0
  1 22  1  0
  1 23  1  0
  7 24  1  0
  8 25  1  0
  9 26  1  0
 12 27  1  0
 14 28  1  0
M  CHG  5   3  -1  11  -1  16  -1  19  -1  21  -1
M  END
>  <UniqueID>  (21) 
21

>  <SMILES>  (21) 
C=c1[n-]nc(-c2cccc([O-])c2)c1=Cc1[n-]c(=O)[n-]c1[O-]

>  <Energy>  (21) 
105.8478781626016

>  <Genealogy>  (21) 
C=c1[n-]nc(-c2cccc([O-])c2)c1=Cc1[n-]c(=O)[n-]c1[O-] (protonated)
C=c1[n-]nc(-c2cccc([O-])c2)c1=Cc1[n-]c(=O)[n-]c1[O-] (3D coordinates assigned)
C=c1[n-]nc(-c2cccc([O-])c2)c1=Cc1[n-]c(=O)[n-]c1[O-] (optimized conformer: 105.8478781626016 kcal/mol)

>  <smiles>  (21) 
C=c1[nH]nc(-c2cccc(O)c2)c1=Cc1[nH]c(=O)[nH]c1O

>  <score_type>  (21) 
oracle

>  <origin>  (21) 
adg

>  <m_score__min__energy>  (21) 
-18.100000000000001

>  <m_primary>  (21) 
energy

$$$$
21:0
     RDKit          3D

 45 47  0  0  0  0  0  0  0  0999 V2000
   56.0920   20.0730   43.7430 N   0  0  0  0  0  0  0  0  0  0  0  0
   56.2730   21.3380   43.9710 C   0  0  0  0  0  0  0  0  0  0  0  0
   55.9100   22.2250   43.0080 N   0  0  0  0  0  0  0  0  0  0  0  0
   56.1230   23.5580   43.1360 C   0  0  0  0  0  0  0  0  0  0  0  0
   56.7450   24.0490   44.2890 C   0  0  0  0  0  0  0  0  0  0  0  0
   57.0390   25.4910   44.4700 C   0  0  0  0  0  0  0  0  0  0  0  0
   57.7650   26.1730   43.4780 C   0  0  0  0  0  0  0  0  0  0  0  0
   58.0640   27.5290   43.6230 C   0  0  0  0  0  0  0  0  0  0  0  0
   57.6670   28.2210   44.7740 C   0  0  0  0  0  0  0  0  0  0  0  0
   57.9800   29.6540   44.9330 C   0  0  0  0  0  0  0  0  0  0  0  0
   57.3280   30.5680   44.0890 C   0  0  0  0  0  0  0  0  0  0  0  0
   57.5920   31.9340   44.1850 C   0  0  0  0  0  0  0  0  0  0  0  0
   58.5050   32.4050   45.1260 C   0  0  0  0  0  0  0  0  0  0  0  0
   59.1530   31.5110   45.9810 C   0  0  0  0  0  0  0  0  0  0  0  0
   58.8990   30.1300   45.9040 C   0  0  0  0  0  0  0  0  0  0  0  0
   59.7130   29.0500   47.0560 S   0  0  0  0  0  0  0  0  0  0  0  0
   58.7200   28.5700   48.0790 O   0  0  0  0  0  0  0  0  0  0  0  0
   60.8050   29.7940   47.7690 O   0  0  0  0  0  0  0  0  0  0  0  0
   60.3940   27.6210   46.2210 C   0  0  0  0  0  0  0  0  0  0  0  0
   60.3780   26.3920   47.1290 C   0  0  0  0  0  0  0  0  0  0  0  0
   60.7480   26.7490   48.4320 O   0  0  0  0  0  0  0  0  0  0  0  0
   56.9340   27.5510   45.7630 C   0  0  0  0  0  0  0  0  0  0  0  0
   56.6310   26.1920   45.6230 C   0  0  0  0  0  0  0  0  0  0  0  0
   55.9860   25.5610   46.6360 F   0  0  0  0  0  0  0  0  0  0  0  0
   57.1120   23.1660   45.2560 N   0  0  0  0  0  0  0  0  0  0  0  0
   56.8860   21.8280   45.1530 C   0  0  0  0  0  0  0  0  0  0  0  0
   57.2720   20.9780   46.3020 C   0  0  0  0  0  0  0  0  0  0  0  0
   57.5950   19.6010   46.0960 N   0  0  0  0  0  0  0  0  0  0  0  0
   57.3860   21.4680   47.4560 O   0  0  0  0  0  0  0  0  0  0  0  0
   56.7900   19.3240   43.9320 H   0  0  0  0  0  0  0  0  0  0  0  0
   55.8091   24.2483   42.3391 H   0  0  0  0  0  0  0  0  0  0  0  0
   58.1004   25.6337   42.5799 H   0  0  0  0  0  0  0  0  0  0  0  0
   58.6139   28.0563   42.8295 H   0  0  0  0  0  0  0  0  0  0  0  0
   56.6032   30.2034   43.3462 H   0  0  0  0  0  0  0  0  0  0  0  0
   57.0785   32.6408   43.5166 H   0  0  0  0  0  0  0  0  0  0  0  0
   58.7157   33.4824   45.1956 H   0  0  0  0  0  0  0  0  0  0  0  0
   59.8703   31.8914   46.7232 H   0  0  0  0  0  0  0  0  0  0  0  0
   59.7953   27.4112   45.3223 H   0  0  0  0  0  0  0  0  0  0  0  0
   61.4371   27.8402   45.9491 H   0  0  0  0  0  0  0  0  0  0  0  0
   59.3648   25.9638   47.1433 H   0  0  0  0  0  0  0  0  0  0  0  0
   61.0932   25.6508   46.7429 H   0  0  0  0  0  0  0  0  0  0  0  0
   60.6610   27.7370   48.4920 H   0  0  0  0  0  0  0  0  0  0  0  0
   56.5945   28.0972   46.6554 H   0  0  0  0  0  0  0  0  0  0  0  0
   57.5080   19.1630   45.1510 H   0  0  0  0  0  0  0  0  0  0  0  0
   57.9030   19.0090   46.8980 H   0  0  0  0  0  0  0  0  0  0  0  0
  1  2  2  3
  2  3  1  0
  3  4  1  0
  4  5  2  0
  5  6  1  0
  6  7  2  0
  7  8  1  0
  8  9  2  0
  9 10  1  0
 10 11  2  0
 11 12  1  0
 12 13  2  0
 13 14  1  0
 14 15  2  0
 15 16  1  0
 16 17  2  0
 16 18  2  0
 16 19  1  0
 19 20  1  0
 20 21  1  0
  9 22  1  0
 22 23  2  0
 23 24  1  0
  5 25  1  0
 25 26  2  0
 26 27  1  0
 27 28  1  0
 27 29  2  0
 26  2  1  0
 23  6  1  0
 15 10  1  0
  1 30  1  0
  4 31  1  0
  7 32  1  0
  8 33  1  0
 11 34  1  0
 12 35  1  0
 13 36  1  0
 14 37  1  0
 19 38  1  0
 19 39  1  0
 20 40  1  0
 20 41  1  0
 21 42  1  0
 22 43  1  0
 28 44  1  0
 28 45  1  0
M  CHG  1   3  -1
M  END
>  <UniqueID>  (22) 
22

>  <SMILES>  (22) 
N=c1[n-]cc(-c2ccc(-c3ccccc3S(=O)(=O)CCO)cc2F)nc1C(N)=O

>  <Energy>  (22) 
63.46345337208983

>  <Genealogy>  (22) 
N=c1[n-]cc(-c2ccc(-c3ccccc3S(=O)(=O)CCO)cc2F)nc1C(N)=O (protonated)
N=c1[n-]cc(-c2ccc(-c3ccccc3S(=O)(=O)CCO)cc2F)nc1C(N)=O (3D coordinates assigned)
N=c1[n-]cc(-c2ccc(-c3ccccc3S(=O)(=O)CCO)cc2F)nc1C(N)=O (optimized conformer: 63.46345337208983 kcal/mol)

>  <smiles>  (22) 
N=c1[nH]cc(-c2ccc(-c3ccccc3S(=O)(=O)CCO)cc2F)nc1C(N)=O

>  <score_type>  (22) 
oracle

>  <origin>  (22) 
adg

>  <m_score__min__energy>  (22) 
-10.31

>  <m_primary>  (22) 
energy

$$$$
22:0
     RDKit          3D

 71 75  0  0  0  0  0  0  0  0999 V2000
   55.3690   29.3460   45.1160 O   0  0  0  0  0  0  0  0  0  0  0  0
   56.4030   29.7600   44.5240 C   0  0  0  0  0  0  0  0  0  0  0  0
   56.3540   31.0510   43.7600 C   0  0  0  0  0  0  0  0  0  0  0  0
   57.6940   31.7380   43.8070 C   0  0  0  0  0  0  0  0  0  0  0  0
   58.5200   31.4890   42.8850 O   0  0  0  0  0  0  0  0  0  0  0  0
   58.0550   32.7420   44.8490 C   0  0  0  0  0  0  0  0  0  0  0  0
   59.0280   33.7380   44.6250 C   0  0  0  0  0  0  0  0  0  0  0  0
   59.3630   34.6450   45.6330 C   0  0  0  0  0  0  0  0  0  0  0  0
   58.7280   34.5810   46.8750 C   0  0  0  0  0  0  0  0  0  0  0  0
   57.7460   33.6160   47.1060 C   0  0  0  0  0  0  0  0  0  0  0  0
   57.4070   32.7070   46.1010 C   0  0  0  0  0  0  0  0  0  0  0  0
   57.6080   28.9850   44.5480 N   0  0  0  0  0  0  0  0  0  0  0  0
   57.8640   27.9230   45.4840 C   0  0  0  0  0  0  0  0  0  0  0  0
   57.3990   26.6200   45.2360 C   0  0  0  0  0  0  0  0  0  0  0  0
   57.6570   25.5870   46.1480 C   0  0  0  0  0  0  0  0  0  0  0  0
   57.1970   23.9280   45.7710 S   0  0  0  0  0  0  0  0  0  0  0  0
   55.6980   23.8010   45.7660 O   0  0  0  0  0  0  0  0  0  0  0  0
   57.7510   23.0260   46.8420 O   0  0  0  0  0  0  0  0  0  0  0  0
   57.8720   23.4940   44.2140 N   0  0  0  0  0  0  0  0  0  0  0  0
   56.9510   23.8110   43.0980 C   0  0  0  0  0  0  0  0  0  0  0  0
   56.1480   22.5880   42.6210 C   0  0  0  0  0  0  0  0  0  0  0  0
   55.9250   21.7000   43.6950 O   0  0  0  0  0  0  0  0  0  0  0  0
   57.1450   21.0960   44.0870 C   0  0  0  0  0  0  0  0  0  0  0  0
   58.3260   22.0930   44.1840 C   0  0  0  0  0  0  0  0  0  0  0  0
   58.3400   25.8670   47.3380 C   0  0  0  0  0  0  0  0  0  0  0  0
   58.7750   27.1640   47.6090 C   0  0  0  0  0  0  0  0  0  0  0  0
   58.5480   28.1930   46.6860 C   0  0  0  0  0  0  0  0  0  0  0  0
   59.1110   29.4880   46.9300 N   0  0  0  0  0  0  0  0  0  0  0  0
   58.8190   30.1840   48.1910 C   0  0  0  0  0  0  0  0  0  0  0  0
   59.6710   31.4510   48.3170 C   0  0  0  0  0  0  0  0  0  0  0  0
   61.0630   31.1360   47.9540 N   0  0  0  0  0  0  0  0  0  0  0  0
   62.1240   31.2240   48.9270 C   0  0  0  0  0  0  0  0  0  0  0  0
   62.0690   30.4760   50.1190 C   0  0  0  0  0  0  0  0  0  0  0  0
   63.1180   30.5360   51.0410 C   0  0  0  0  0  0  0  0  0  0  0  0
   64.2340   31.3350   50.7800 C   0  0  0  0  0  0  0  0  0  0  0  0
   64.3040   32.0760   49.5970 C   0  0  0  0  0  0  0  0  0  0  0  0
   63.2580   32.0200   48.6710 C   0  0  0  0  0  0  0  0  0  0  0  0
   61.3340   30.4960   46.6550 C   0  0  0  0  0  0  0  0  0  0  0  0
   60.0380   30.0700   45.9510 C   0  0  0  0  0  0  0  0  0  0  0  0
   56.0895   30.8430   42.7127 H   0  0  0  0  0  0  0  0  0  0  0  0
   55.5990   31.7081   44.2162 H   0  0  0  0  0  0  0  0  0  0  0  0
   59.5278   33.8012   43.6472 H   0  0  0  0  0  0  0  0  0  0  0  0
   60.1294   35.4121   45.4479 H   0  0  0  0  0  0  0  0  0  0  0  0
   59.0012   35.2901   47.6704 H   0  0  0  0  0  0  0  0  0  0  0  0
   57.2384   33.5714   48.0809 H   0  0  0  0  0  0  0  0  0  0  0  0
   56.6259   31.9555   46.2883 H   0  0  0  0  0  0  0  0  0  0  0  0
   58.2940   29.1390   43.7770 H   0  0  0  0  0  0  0  0  0  0  0  0
   56.8284   26.4092   44.3195 H   0  0  0  0  0  0  0  0  0  0  0  0
   56.2455   24.5853   43.4338 H   0  0  0  0  0  0  0  0  0  0  0  0
   57.5631   24.1557   42.2515 H   0  0  0  0  0  0  0  0  0  0  0  0
   55.1800   22.9232   42.2201 H   0  0  0  0  0  0  0  0  0  0  0  0
   56.7196   22.0673   41.8386 H   0  0  0  0  0  0  0  0  0  0  0  0
   57.0014   20.6297   45.0729 H   0  0  0  0  0  0  0  0  0  0  0  0
   57.4056   20.3610   43.3112 H   0  0  0  0  0  0  0  0  0  0  0  0
   58.8909   21.8841   45.1045 H   0  0  0  0  0  0  0  0  0  0  0  0
   58.9531   21.9609   43.2900 H   0  0  0  0  0  0  0  0  0  0  0  0
   58.5340   25.0613   48.0613 H   0  0  0  0  0  0  0  0  0  0  0  0
   59.2988   27.3800   48.5519 H   0  0  0  0  0  0  0  0  0  0  0  0
   57.7545   30.4604   48.2133 H   0  0  0  0  0  0  0  0  0  0  0  0
   59.0553   29.5127   49.0297 H   0  0  0  0  0  0  0  0  0  0  0  0
   59.2806   32.2257   47.6407 H   0  0  0  0  0  0  0  0  0  0  0  0
   59.6334   31.8204   49.3524 H   0  0  0  0  0  0  0  0  0  0  0  0
   61.1952   29.8406   50.3258 H   0  0  0  0  0  0  0  0  0  0  0  0
   63.0648   29.9537   51.9727 H   0  0  0  0  0  0  0  0  0  0  0  0
   65.0587   31.3809   51.5065 H   0  0  0  0  0  0  0  0  0  0  0  0
   65.1837   32.7044   49.3941 H   0  0  0  0  0  0  0  0  0  0  0  0
   63.3207   32.6000   47.7384 H   0  0  0  0  0  0  0  0  0  0  0  0
   61.8716   31.2083   46.0118 H   0  0  0  0  0  0  0  0  0  0  0  0
   61.9383   29.5948   46.8360 H   0  0  0  0  0  0  0  0  0  0  0  0
   59.5707   30.9486   45.4824 H   0  0  0  0  0  0  0  0  0  0  0  0
   60.2715   29.3206   45.1803 H   0  0  0  0  0  0  0  0  0  0  0  0
  1  2  2  0
  2  3  1  0
  3  4  1  0
  4  5  2  0
  4  6  1  0
  6  7  2  0
  7  8  1  0
  8  9  2  0
  9 10  1  0
 10 11  2  0
  2 12  1  0
 12 13  1  0
 13 14  2  0
 14 15  1  0
 15 16  1  0
 16 17  2  0
 16 18  2  0
 16 19  1  0
 19 20  1  0
 20 21  1  0
 21 22  1  0
 22 23  1  0
 23 24  1  0
 15 25  2  0
 25 26  1  0
 26 27  2  0
 27 28  1  0
 28 29  1  0
 29 30  1  0
 30 31  1  0
 31 32  1  0
 32 33  2  0
 33 34  1  0
 34 35  2  0
 35 36  1  0
 36 37  2  0
 31 38  1  0
 38 39  1  0
 11  6  1  0
 27 13  1  0
 39 28  1  0
 24 19  1  0
 37 32  1  0
  3 40  1  0
  3 41  1  0
  7 42  1  0
  8 43  1  0
  9 44  1  0
 10 45  1  0
 11 46  1  0
 12 47  1  0
 14 48  1  0
 20 49  1  0
 20 50  1  0
 21 51  1  0
 21 52  1  0
 23 53  1  0
 23 54  1  0
 24 55  1  0
 24 56  1  0
 25 57  1  0
 26 58  1  0
 29 59  1  0
 29 60  1  0
 30 61  1  0
 30 62  1  0
 33 63  1  0
 34 64  1  0
 35 65  1  0
 36 66  1  0
 37 67  1  0
 38 68  1  0
 38 69  1  0
 39 70  1  0
 39 71  1  0
M  END
>  <UniqueID>  (23) 
23

>  <SMILES>  (23) 
O=C(CC(=O)c1ccccc1)Nc1cc(S(=O)(=O)N2CCOCC2)ccc1N1CCN(c2ccccc2)CC1

>  <Energy>  (23) 
100.03836245704532

>  <Genealogy>  (23) 
O=C(CC(=O)c1ccccc1)Nc1cc(S(=O)(=O)N2CCOCC2)ccc1N1CCN(c2ccccc2)CC1 (3D coordinates assigned)
O=C(CC(=O)c1ccccc1)Nc1cc(S(=O)(=O)N2CCOCC2)ccc1N1CCN(c2ccccc2)CC1 (nonaromatic ring conformer: 100.03836245704532 kcal/mol)

>  <smiles>  (23) 
O=C(CC(=O)c1ccccc1)Nc1cc(S(=O)(=O)N2CCOCC2)ccc1N1CCN(c2ccccc2)CC1

>  <score_type>  (23) 
oracle

>  <origin>  (23) 
adg

>  <m_score__min__energy>  (23) 
-11.08

>  <m_primary>  (23) 
energy

$$$$
23:0
     RDKit          3D

 43 45  0  0  0  0  0  0  0  0999 V2000
   56.7140   30.4230   54.2920 C   0  0  0  0  0  0  0  0  0  0  0  0
   56.7100   31.1020   52.6500 S   0  0  0  0  0  0  0  0  0  0  0  0
   55.2930   31.4200   52.2540 O   0  0  0  0  0  0  0  0  0  0  0  0
   57.5420   32.3540   52.6300 O   0  0  0  0  0  0  0  0  0  0  0  0
   57.3710   29.9340   51.5540 N   0  0  0  0  0  0  0  0  0  0  0  0
   58.4520   30.1720   50.6410 C   0  0  0  0  0  0  0  0  0  0  0  0
   59.5260   29.2740   50.5180 C   0  0  0  0  0  0  0  0  0  0  0  0
   60.5720   29.5440   49.6370 C   0  0  0  0  0  0  0  0  0  0  0  0
   60.5520   30.7000   48.8580 C   0  0  0  0  0  0  0  0  0  0  0  0
   59.4850   31.6070   48.9560 C   0  0  0  0  0  0  0  0  0  0  0  0
   59.4510   32.7750   48.0500 C   0  0  0  0  0  0  0  0  0  0  0  0
   60.2650   33.8930   48.2890 C   0  0  0  0  0  0  0  0  0  0  0  0
   60.2520   34.9550   47.3870 C   0  0  0  0  0  0  0  0  0  0  0  0
   59.4440   34.8940   46.2500 C   0  0  0  0  0  0  0  0  0  0  0  0
   58.6440   33.7670   46.0340 C   0  0  0  0  0  0  0  0  0  0  0  0
   57.9270   33.6910   44.9510 N   0  0  0  0  0  0  0  0  0  0  0  0
   58.0170   32.6440   43.9750 C   0  0  0  0  0  0  0  0  0  0  0  0
   58.3350   32.9430   42.7940 O   0  0  0  0  0  0  0  0  0  0  0  0
   57.7120   31.2320   44.3130 C   0  0  0  0  0  0  0  0  0  0  0  0
   56.3890   30.7600   44.2490 C   0  0  0  0  0  0  0  0  0  0  0  0
   56.0940   29.4310   44.5670 C   0  0  0  0  0  0  0  0  0  0  0  0
   54.7840   28.9740   44.4910 O   0  0  0  0  0  0  0  0  0  0  0  0
   57.1150   28.5600   44.9620 C   0  0  0  0  0  0  0  0  0  0  0  0
   58.4330   29.0220   45.0490 C   0  0  0  0  0  0  0  0  0  0  0  0
   59.4820   28.1300   45.4660 C   0  0  0  0  0  0  0  0  0  0  0  0
   60.3240   27.4110   45.8030 N   0  0  0  0  0  0  0  0  0  0  0  0
   58.7320   30.3530   44.7270 C   0  0  0  0  0  0  0  0  0  0  0  0
   58.6690   32.7420   46.9350 N   0  0  0  0  0  0  0  0  0  0  0  0
   58.4410   31.3490   49.8750 C   0  0  0  0  0  0  0  0  0  0  0  0
   57.4030   32.2630   50.0690 O   0  0  0  0  0  0  0  0  0  0  0  0
   56.7092   31.2412   55.0272 H   0  0  0  0  0  0  0  0  0  0  0  0
   55.8195   29.7984   54.4327 H   0  0  0  0  0  0  0  0  0  0  0  0
   57.6158   29.8090   54.4327 H   0  0  0  0  0  0  0  0  0  0  0  0
   59.5413   28.3534   51.1199 H   0  0  0  0  0  0  0  0  0  0  0  0
   61.4157   28.8428   49.5562 H   0  0  0  0  0  0  0  0  0  0  0  0
   61.3786   30.9030   48.1612 H   0  0  0  0  0  0  0  0  0  0  0  0
   60.9078   33.9306   49.1808 H   0  0  0  0  0  0  0  0  0  0  0  0
   60.8779   35.8408   47.5706 H   0  0  0  0  0  0  0  0  0  0  0  0
   59.4366   35.7255   45.5299 H   0  0  0  0  0  0  0  0  0  0  0  0
   55.5802   31.4415   43.9465 H   0  0  0  0  0  0  0  0  0  0  0  0
   56.8819   27.5126   45.2041 H   0  0  0  0  0  0  0  0  0  0  0  0
   59.7689   30.7132   44.7980 H   0  0  0  0  0  0  0  0  0  0  0  0
   56.6320   32.0830   50.6950 H   0  0  0  0  0  0  0  0  0  0  0  0
  1  2  1  0
  2  3  2  0
  2  4  2  0
  2  5  1  0
  5  6  1  0
  6  7  2  0
  7  8  1  0
  8  9  2  0
  9 10  1  0
 10 11  1  0
 11 12  2  0
 12 13  1  0
 13 14  2  0
 14 15  1  0
 15 16  2  3
 16 17  1  0
 17 18  2  0
 17 19  1  0
 19 20  2  0
 20 21  1  0
 21 22  1  0
 21 23  2  0
 23 24  1  0
 24 25  1  0
 25 26  3  0
 24 27  2  0
 15 28  1  0
 10 29  2  0
 29 30  1  0
 29  6  1  0
 28 11  1  0
 27 19  1  0
  1 31  1  0
  1 32  1  0
  1 33  1  0
  7 34  1  0
  8 35  1  0
  9 36  1  0
 12 37  1  0
 13 38  1  0
 14 39  1  0
 20 40  1  0
 23 41  1  0
 27 42  1  0
 30 43  1  0
M  CHG  3   5  -1  22  -1  28  -1
M  END
>  <UniqueID>  (24) 
24

>  <SMILES>  (24) 
CS(=O)(=O)[N-]c1cccc(-c2cccc(=NC(=O)c3cc([O-])cc(C#N)c3)[n-]2)c1O

>  <Energy>  (24) 
58.64931721796818

>  <Genealogy>  (24) 
CS(=O)(=O)[N-]c1cccc(-c2cccc(=NC(=O)c3cc([O-])cc(C#N)c3)[n-]2)c1O (protonated)
CS(=O)(=O)[N-]c1cccc(-c2cccc(=NC(=O)c3cc([O-])cc(C#N)c3)[n-]2)c1O (3D coordinates assigned)
CS(=O)(=O)[N-]c1cccc(-c2cccc(=NC(=O)c3cc([O-])cc(C#N)c3)[n-]2)c1O (optimized conformer: 58.64931721796818 kcal/mol)

>  <smiles>  (24) 
CS(=O)(=O)Nc1cccc(-c2cccc(=NC(=O)c3cc(O)cc(C#N)c3)[nH]2)c1O

>  <score_type>  (24) 
oracle

>  <origin>  (24) 
adg

>  <m_score__min__energy>  (24) 
-14.640000000000001

>  <m_primary>  (24) 
energy

$$$$
24:0
     RDKit          3D

 47 49  0  0  0  0  0  0  0  0999 V2000
   62.0840   31.5050   47.1370 C   0  0  0  0  0  0  0  0  0  0  0  0
   61.1410   30.6570   47.9480 C   0  0  0  0  0  0  0  0  0  0  0  0
   61.1420   30.7680   49.3500 C   0  0  0  0  0  0  0  0  0  0  0  0
   60.2520   30.0160   50.1210 C   0  0  0  0  0  0  0  0  0  0  0  0
   59.3530   29.1480   49.5030 C   0  0  0  0  0  0  0  0  0  0  0  0
   59.3450   29.0240   48.1110 C   0  0  0  0  0  0  0  0  0  0  0  0
   60.2430   29.7590   47.3260 C   0  0  0  0  0  0  0  0  0  0  0  0
   60.2090   29.5660   45.5320 S   0  0  0  0  0  0  0  0  0  0  0  0
   58.4460   29.1900   45.4430 C   0  0  0  0  0  0  0  0  0  0  0  0
   58.0440   27.9470   45.8180 N   0  0  0  0  0  0  0  0  0  0  0  0
   56.7480   27.5640   45.7370 C   0  0  0  0  0  0  0  0  0  0  0  0
   56.4110   26.4110   46.1110 O   0  0  0  0  0  0  0  0  0  0  0  0
   55.8190   28.4160   45.2440 N   0  0  0  0  0  0  0  0  0  0  0  0
   56.1590   29.6620   44.8270 C   0  0  0  0  0  0  0  0  0  0  0  0
   55.2680   30.3980   44.3270 O   0  0  0  0  0  0  0  0  0  0  0  0
   57.4940   30.1090   44.9350 C   0  0  0  0  0  0  0  0  0  0  0  0
   57.8960   31.4500   44.3440 C   0  0  0  0  0  0  0  0  0  0  0  0
   57.6060   32.8400   45.5080 S   0  0  0  0  0  0  0  0  0  0  0  0
   59.3160   33.4710   45.5480 C   0  0  0  0  0  0  0  0  0  0  0  0
   59.5580   34.2320   46.8150 C   0  0  0  0  0  0  0  0  0  0  0  0
   60.0240   35.4020   46.7540 O   0  0  0  0  0  0  0  0  0  0  0  0
   59.2950   33.6260   48.0890 N   0  0  0  0  0  0  0  0  0  0  0  0
   59.8990   34.1220   49.3210 C   0  0  0  0  0  0  0  0  0  0  0  0
   59.2810   33.4320   50.5000 C   0  0  0  0  0  0  0  0  0  0  0  0
   59.5950   33.8320   51.8070 C   0  0  0  0  0  0  0  0  0  0  0  0
   58.9590   33.2130   52.8850 C   0  0  0  0  0  0  0  0  0  0  0  0
   58.0160   32.2090   52.6510 C   0  0  0  0  0  0  0  0  0  0  0  0
   57.7230   31.8390   51.3370 C   0  0  0  0  0  0  0  0  0  0  0  0
   58.3490   32.4560   50.3000 N   0  0  0  0  0  0  0  0  0  0  0  0
   62.7291   32.0851   47.8132 H   0  0  0  0  0  0  0  0  0  0  0  0
   62.7065   30.8569   46.5026 H   0  0  0  0  0  0  0  0  0  0  0  0
   61.5054   32.1926   46.5026 H   0  0  0  0  0  0  0  0  0  0  0  0
   61.8486   31.4518   49.8431 H   0  0  0  0  0  0  0  0  0  0  0  0
   60.2606   30.1089   51.2170 H   0  0  0  0  0  0  0  0  0  0  0  0
   58.6496   28.5604   50.1113 H   0  0  0  0  0  0  0  0  0  0  0  0
   58.6280   28.3439   47.6279 H   0  0  0  0  0  0  0  0  0  0  0  0
   58.9659   31.4183   44.0905 H   0  0  0  0  0  0  0  0  0  0  0  0
   57.2765   31.6236   43.4517 H   0  0  0  0  0  0  0  0  0  0  0  0
   60.0167   32.6248   45.4931 H   0  0  0  0  0  0  0  0  0  0  0  0
   59.4702   34.1432   44.6910 H   0  0  0  0  0  0  0  0  0  0  0  0
   58.7510   32.7350   48.1310 H   0  0  0  0  0  0  0  0  0  0  0  0
   60.9803   33.9207   49.3050 H   0  0  0  0  0  0  0  0  0  0  0  0
   59.7262   35.2054   49.4011 H   0  0  0  0  0  0  0  0  0  0  0  0
   60.3357   34.6263   51.9814 H   0  0  0  0  0  0  0  0  0  0  0  0
   59.1996   33.5148   53.9150 H   0  0  0  0  0  0  0  0  0  0  0  0
   57.5096   31.7151   53.4934 H   0  0  0  0  0  0  0  0  0  0  0  0
   56.9849   31.0474   51.1407 H   0  0  0  0  0  0  0  0  0  0  0  0
  1  2  1  0
  2  3  2  0
  3  4  1  0
  4  5  2  0
  5  6  1  0
  6  7  2  0
  7  8  1  0
  8  9  1  0
  9 10  1  0
 10 11  1  0
 11 12  2  0
 11 13  1  0
 13 14  1  0
 14 15  2  0
 14 16  1  0
 16 17  1  0
 17 18  1  0
 18 19  1  0
 19 20  1  0
 20 21  2  0
 20 22  1  0
 22 23  1  0
 23 24  1  0
 24 25  2  0
 25 26  1  0
 26 27  2  0
 27 28  1  0
 28 29  2  0
  7  2  1  0
 16  9  2  0
 29 24  1  0
  1 30  1  0
  1 31  1  0
  1 32  1  0
  3 33  1  0
  4 34  1  0
  5 35  1  0
  6 36  1  0
 17 37  1  0
 17 38  1  0
 19 39  1  0
 19 40  1  0
 22 41  1  0
 23 42  1  0
 23 43  1  0
 25 44  1  0
 26 45  1  0
 27 46  1  0
 28 47  1  0
M  CHG  2  10  -1  13  -1
M  END
>  <UniqueID>  (25) 
25

>  <SMILES>  (25) 
Cc1ccccc1Sc1[n-]c(=O)[n-]c(=O)c1CSCC(=O)NCc1ccccn1

>  <Energy>  (25) 
45.9846362595043

>  <Genealogy>  (25) 
Cc1ccccc1Sc1[n-]c(=O)[n-]c(=O)c1CSCC(=O)NCc1ccccn1 (protonated)
Cc1ccccc1Sc1[n-]c(=O)[n-]c(=O)c1CSCC(=O)NCc1ccccn1 (3D coordinates assigned)
Cc1ccccc1Sc1[n-]c(=O)[n-]c(=O)c1CSCC(=O)NCc1ccccn1 (optimized conformer: 45.9846362595043 kcal/mol)

>  <smiles>  (25) 
Cc1ccccc1Sc1[nH]c(=O)[nH]c(=O)c1CSCC(=O)NCc1ccccn1

>  <score_type>  (25) 
oracle

>  <origin>  (25) 
adg

>  <m_score__min__energy>  (25) 
-12.640000000000001

>  <m_primary>  (25) 
energy

$$$$
25:0
     RDKit          3D

 41 43  0  0  0  0  0  0  0  0999 V2000
   55.2370   22.5580   48.9910 O   0  0  0  0  0  0  0  0  0  0  0  0
   56.2800   21.9770   48.5890 C   0  0  0  0  0  0  0  0  0  0  0  0
   57.4270   22.0520   49.3700 O   0  0  0  0  0  0  0  0  0  0  0  0
   56.2820   21.2550   47.2920 C   0  0  0  0  0  0  0  0  0  0  0  0
   56.4660   19.8580   47.2850 C   0  0  0  0  0  0  0  0  0  0  0  0
   56.4420   19.1410   46.0870 C   0  0  0  0  0  0  0  0  0  0  0  0
   56.2370   19.8030   44.8790 C   0  0  0  0  0  0  0  0  0  0  0  0
   56.0640   21.1870   44.8610 C   0  0  0  0  0  0  0  0  0  0  0  0
   56.0890   21.9250   46.0550 C   0  0  0  0  0  0  0  0  0  0  0  0
   55.9670   23.3590   45.9840 N   0  0  0  0  0  0  0  0  0  0  0  0
   54.7540   23.9270   45.7080 C   0  0  0  0  0  0  0  0  0  0  0  0
   53.7310   23.2100   45.5380 O   0  0  0  0  0  0  0  0  0  0  0  0
   54.6370   25.2750   45.6170 N   0  0  0  0  0  0  0  0  0  0  0  0
   55.7000   26.0920   45.8020 C   0  0  0  0  0  0  0  0  0  0  0  0
   55.5210   27.4670   45.7010 O   0  0  0  0  0  0  0  0  0  0  0  0
   56.9600   25.5510   46.1010 C   0  0  0  0  0  0  0  0  0  0  0  0
   58.1250   26.4440   46.3190 C   0  0  0  0  0  0  0  0  0  0  0  0
   58.2860   26.9820   47.4480 O   0  0  0  0  0  0  0  0  0  0  0  0
   59.1750   26.6590   45.2590 C   0  0  0  0  0  0  0  0  0  0  0  0
   58.5750   27.2690   43.9850 C   0  0  0  0  0  0  0  0  0  0  0  0
   58.1070   28.6840   44.2120 C   0  0  0  0  0  0  0  0  0  0  0  0
   58.7850   29.5170   45.1170 C   0  0  0  0  0  0  0  0  0  0  0  0
   58.3320   30.8180   45.3540 C   0  0  0  0  0  0  0  0  0  0  0  0
   57.1940   31.2940   44.6950 C   0  0  0  0  0  0  0  0  0  0  0  0
   56.5120   30.4700   43.7960 C   0  0  0  0  0  0  0  0  0  0  0  0
   56.9660   29.1710   43.5520 C   0  0  0  0  0  0  0  0  0  0  0  0
   57.0750   24.1480   46.1560 C   0  0  0  0  0  0  0  0  0  0  0  0
   58.2060   23.6150   46.3350 O   0  0  0  0  0  0  0  0  0  0  0  0
   56.6304   19.3263   48.2338 H   0  0  0  0  0  0  0  0  0  0  0  0
   56.5854   18.0504   46.0974 H   0  0  0  0  0  0  0  0  0  0  0  0
   56.2115   19.2338   43.9380 H   0  0  0  0  0  0  0  0  0  0  0  0
   55.9067   21.7045   43.9032 H   0  0  0  0  0  0  0  0  0  0  0  0
   59.9450   27.3392   45.6520 H   0  0  0  0  0  0  0  0  0  0  0  0
   59.6088   25.6816   45.0012 H   0  0  0  0  0  0  0  0  0  0  0  0
   59.3404   27.2690   43.1950 H   0  0  0  0  0  0  0  0  0  0  0  0
   57.7054   26.6629   43.6910 H   0  0  0  0  0  0  0  0  0  0  0  0
   59.6768   29.1438   45.6418 H   0  0  0  0  0  0  0  0  0  0  0  0
   58.8709   31.4678   46.0592 H   0  0  0  0  0  0  0  0  0  0  0  0
   56.8360   32.3167   44.8843 H   0  0  0  0  0  0  0  0  0  0  0  0
   55.6160   30.8445   43.2793 H   0  0  0  0  0  0  0  0  0  0  0  0
   56.4281   28.5272   42.8405 H   0  0  0  0  0  0  0  0  0  0  0  0
  1  2  2  0
  2  3  1  0
  2  4  1  0
  4  5  2  0
  5  6  1  0
  6  7  2  0
  7  8  1  0
  8  9  2  0
  9 10  1  0
 10 11  1  0
 11 12  2  0
 11 13  1  0
 13 14  1  0
 14 15  1  0
 14 16  2  0
 16 17  1  0
 17 18  2  0
 17 19  1  0
 19 20  1  0
 20 21  1  0
 21 22  2  0
 22 23  1  0
 23 24  2  0
 24 25  1  0
 25 26  2  0
 16 27  1  0
 27 28  2  0
  9  4  1  0
 27 10  1  0
 26 21  1  0
  5 29  1  0
  6 30  1  0
  7 31  1  0
  8 32  1  0
 19 33  1  0
 19 34  1  0
 20 35  1  0
 20 36  1  0
 22 37  1  0
 23 38  1  0
 24 39  1  0
 25 40  1  0
 26 41  1  0
M  CHG  3   3  -1  13  -1  15  -1
M  END
>  <UniqueID>  (26) 
26

>  <SMILES>  (26) 
O=C([O-])c1ccccc1-n1c(=O)[n-]c([O-])c(C(=O)CCc2ccccc2)c1=O

>  <Energy>  (26) 
59.176232844449416

>  <Genealogy>  (26) 
O=C([O-])c1ccccc1-n1c(=O)[n-]c([O-])c(C(=O)CCc2ccccc2)c1=O (protonated)
O=C([O-])c1ccccc1-n1c(=O)[n-]c([O-])c(C(=O)CCc2ccccc2)c1=O (3D coordinates assigned)
O=C([O-])c1ccccc1-n1c(=O)[n-]c([O-])c(C(=O)CCc2ccccc2)c1=O (optimized conformer: 59.176232844449416 kcal/mol)

>  <smiles>  (26) 
O=C(O)c1ccccc1-n1c(=O)[nH]c(O)c(C(=O)CCc2ccccc2)c1=O

>  <score_type>  (26) 
oracle

>  <origin>  (26) 
adg

>  <m_score__min__energy>  (26) 
-13.93

>  <m_primary>  (26) 
energy

$$$$
26:0
     RDKit          3D

 50 52  0  0  0  0  0  0  0  0999 V2000
   56.0250   29.8490   43.5570 C   0  0  0  0  0  0  0  0  0  0  0  0
   57.0190   30.5910   44.4000 C   0  0  0  0  0  0  0  0  0  0  0  0
   57.9830   29.8800   45.1260 C   0  0  0  0  0  0  0  0  0  0  0  0
   58.9270   30.5570   45.8990 C   0  0  0  0  0  0  0  0  0  0  0  0
   58.9370   31.9630   45.9440 C   0  0  0  0  0  0  0  0  0  0  0  0
   59.8900   32.6790   46.7470 N   0  0  0  0  0  0  0  0  0  0  0  0
   59.6450   33.3060   48.0130 C   0  0  0  0  0  0  0  0  0  0  0  0
   59.6310   34.5640   48.1030 O   0  0  0  0  0  0  0  0  0  0  0  0
   59.3510   32.4770   49.2050 C   0  0  0  0  0  0  0  0  0  0  0  0
   58.9100   33.0740   50.4000 C   0  0  0  0  0  0  0  0  0  0  0  0
   58.6280   32.2910   51.5240 C   0  0  0  0  0  0  0  0  0  0  0  0
   58.7900   30.9010   51.4740 C   0  0  0  0  0  0  0  0  0  0  0  0
   58.4300   29.9040   52.8790 S   0  0  0  0  0  0  0  0  0  0  0  0
   58.1770   30.7980   54.0610 O   0  0  0  0  0  0  0  0  0  0  0  0
   59.5900   28.9930   53.1680 O   0  0  0  0  0  0  0  0  0  0  0  0
   57.0240   28.9460   52.5460 N   0  0  0  0  0  0  0  0  0  0  0  0
   55.6880   29.4530   52.4310 C   0  0  0  0  0  0  0  0  0  0  0  0
   54.6190   28.6040   52.7450 C   0  0  0  0  0  0  0  0  0  0  0  0
   53.3000   29.0580   52.6470 C   0  0  0  0  0  0  0  0  0  0  0  0
   53.0340   30.3780   52.2490 C   0  0  0  0  0  0  0  0  0  0  0  0
   51.6920   30.8650   52.1050 N   0  0  0  0  0  0  0  0  0  0  0  0
   51.2630   31.9340   51.2510 C   0  0  0  0  0  0  0  0  0  0  0  0
   51.0270   33.0610   51.7620 O   0  0  0  0  0  0  0  0  0  0  0  0
   51.0170   31.7360   49.8120 C   0  0  0  0  0  0  0  0  0  0  0  0
   50.6210   32.6880   49.0890 O   0  0  0  0  0  0  0  0  0  0  0  0
   51.2610   30.4970   49.2330 O   0  0  0  0  0  0  0  0  0  0  0  0
   54.1000   31.2200   51.9100 C   0  0  0  0  0  0  0  0  0  0  0  0
   55.4190   30.7670   52.0080 C   0  0  0  0  0  0  0  0  0  0  0  0
   59.2240   30.2980   50.2880 C   0  0  0  0  0  0  0  0  0  0  0  0
   59.5040   31.0790   49.1610 C   0  0  0  0  0  0  0  0  0  0  0  0
   57.9530   32.6840   45.2330 C   0  0  0  0  0  0  0  0  0  0  0  0
   57.9280   34.1870   45.2820 C   0  0  0  0  0  0  0  0  0  0  0  0
   57.0110   31.9930   44.4540 C   0  0  0  0  0  0  0  0  0  0  0  0
   55.3148   29.3189   44.2086 H   0  0  0  0  0  0  0  0  0  0  0  0
   55.4783   30.5617   42.9220 H   0  0  0  0  0  0  0  0  0  0  0  0
   56.5528   29.1222   42.9220 H   0  0  0  0  0  0  0  0  0  0  0  0
   57.9960   28.7808   45.0865 H   0  0  0  0  0  0  0  0  0  0  0  0
   59.6689   29.9870   46.4775 H   0  0  0  0  0  0  0  0  0  0  0  0
   58.7859   34.1658   50.4508 H   0  0  0  0  0  0  0  0  0  0  0  0
   58.2776   32.7688   52.4508 H   0  0  0  0  0  0  0  0  0  0  0  0
   54.8186   27.5726   53.0711 H   0  0  0  0  0  0  0  0  0  0  0  0
   52.4677   28.3785   52.8826 H   0  0  0  0  0  0  0  0  0  0  0  0
   53.8984   32.2446   51.5643 H   0  0  0  0  0  0  0  0  0  0  0  0
   56.2500   31.4412   51.7532 H   0  0  0  0  0  0  0  0  0  0  0  0
   59.3455   29.2057   50.2414 H   0  0  0  0  0  0  0  0  0  0  0  0
   59.8463   30.5963   48.2337 H   0  0  0  0  0  0  0  0  0  0  0  0
   57.9225   34.5196   46.3305 H   0  0  0  0  0  0  0  0  0  0  0  0
   58.8196   34.5853   44.7757 H   0  0  0  0  0  0  0  0  0  0  0  0
   57.0236   34.5554   44.7757 H   0  0  0  0  0  0  0  0  0  0  0  0
   56.2598   32.5561   43.8807 H   0  0  0  0  0  0  0  0  0  0  0  0
  1  2  1  0
  2  3  2  0
  3  4  1  0
  4  5  2  0
  5  6  1  0
  6  7  1  0
  7  8  2  0
  7  9  1  0
  9 10  2  0
 10 11  1  0
 11 12  2  0
 12 13  1  0
 13 14  2  0
 13 15  2  0
 13 16  1  0
 16 17  1  0
 17 18  2  0
 18 19  1  0
 19 20  2  0
 20 21  1  0
 21 22  1  0
 22 23  2  0
 22 24  1  0
 24 25  2  0
 24 26  1  0
 20 27  1  0
 27 28  2  0
 12 29  1  0
 29 30  2  0
  5 31  1  0
 31 32  1  0
 31 33  2  0
 33  2  1  0
 30  9  1  0
 28 17  1  0
  1 34  1  0
  1 35  1  0
  1 36  1  0
  3 37  1  0
  4 38  1  0
 10 39  1  0
 11 40  1  0
 18 41  1  0
 19 42  1  0
 27 43  1  0
 28 44  1  0
 29 45  1  0
 30 46  1  0
 32 47  1  0
 32 48  1  0
 32 49  1  0
 33 50  1  0
M  CHG  4   6  -1  16  -1  21  -1  26  -1
M  END
>  <UniqueID>  (27) 
27

>  <SMILES>  (27) 
Cc1ccc([N-]C(=O)c2ccc(S(=O)(=O)[N-]c3ccc([N-]C(=O)C(=O)[O-])cc3)cc2)c(C)c1

>  <Energy>  (27) 
65.2176149642532

>  <Genealogy>  (27) 
Cc1ccc([N-]C(=O)c2ccc(S(=O)(=O)[N-]c3ccc([N-]C(=O)C(=O)[O-])cc3)cc2)c(C)c1 (protonated)
Cc1ccc([N-]C(=O)c2ccc(S(=O)(=O)[N-]c3ccc([N-]C(=O)C(=O)[O-])cc3)cc2)c(C)c1 (3D coordinates assigned)
Cc1ccc([N-]C(=O)c2ccc(S(=O)(=O)[N-]c3ccc([N-]C(=O)C(=O)[O-])cc3)cc2)c(C)c1 (optimized conformer: 65.2176149642532 kcal/mol)

>  <smiles>  (27) 
Cc1ccc(NC(=O)c2ccc(S(=O)(=O)Nc3ccc(NC(=O)C(=O)O)cc3)cc2)c(C)c1

>  <score_type>  (27) 
oracle

>  <origin>  (27) 
adg

>  <m_score__min__energy>  (27) 
-16.07

>  <m_primary>  (27) 
energy

$$$$
27:0
     RDKit          3D

 28 30  0  0  0  0  0  0  0  0999 V2000
   56.0880   22.0060   43.1990 O   0  0  0  0  0  0  0  0  0  0  0  0
   55.6790   22.8190   44.0690 C   0  0  0  0  0  0  0  0  0  0  0  0
   56.5330   23.8100   44.5600 C   0  0  0  0  0  0  0  0  0  0  0  0
   56.0450   24.7020   45.5300 C   0  0  0  0  0  0  0  0  0  0  0  0
   56.8820   25.7840   46.1080 C   0  0  0  0  0  0  0  0  0  0  0  0
   57.9510   25.5740   46.9890 C   0  0  0  0  0  0  0  0  0  0  0  0
   58.6210   27.0700   47.3740 S   0  0  0  0  0  0  0  0  0  0  0  0
   57.5270   27.9230   46.4340 C   0  0  0  0  0  0  0  0  0  0  0  0
   57.5630   29.2170   46.2970 N   0  0  0  0  0  0  0  0  0  0  0  0
   57.3590   29.9480   45.0770 C   0  0  0  0  0  0  0  0  0  0  0  0
   58.3820   30.7370   44.5230 C   0  0  0  0  0  0  0  0  0  0  0  0
   58.1810   31.4000   43.3080 C   0  0  0  0  0  0  0  0  0  0  0  0
   56.9690   31.2620   42.6280 C   0  0  0  0  0  0  0  0  0  0  0  0
   55.9600   30.4510   43.1550 C   0  0  0  0  0  0  0  0  0  0  0  0
   56.1560   29.7860   44.3720 C   0  0  0  0  0  0  0  0  0  0  0  0
   55.1500   28.9720   44.8790 O   0  0  0  0  0  0  0  0  0  0  0  0
   56.6610   27.0950   45.8050 N   0  0  0  0  0  0  0  0  0  0  0  0
   54.7570   24.5690   45.9530 N   0  0  0  0  0  0  0  0  0  0  0  0
   53.9430   23.5990   45.4650 C   0  0  0  0  0  0  0  0  0  0  0  0
   52.4070   23.4770   46.0030 S   0  0  0  0  0  0  0  0  0  0  0  0
   54.4060   22.7320   44.5290 N   0  0  0  0  0  0  0  0  0  0  0  0
   57.5673   23.8903   44.1943 H   0  0  0  0  0  0  0  0  0  0  0  0
   58.2939   24.5987   47.3648 H   0  0  0  0  0  0  0  0  0  0  0  0
   59.3443   30.8334   45.0471 H   0  0  0  0  0  0  0  0  0  0  0  0
   58.9782   32.0307   42.8877 H   0  0  0  0  0  0  0  0  0  0  0  0
   56.8084   31.7917   41.6774 H   0  0  0  0  0  0  0  0  0  0  0  0
   55.0100   30.3348   42.6128 H   0  0  0  0  0  0  0  0  0  0  0  0
   55.9330   27.4090   45.1260 H   0  0  0  0  0  0  0  0  0  0  0  0
  1  2  2  0
  2  3  1  0
  3  4  2  0
  4  5  1  0
  5  6  2  0
  6  7  1  0
  7  8  1  0
  8  9  2  3
  9 10  1  0
 10 11  2  0
 11 12  1  0
 12 13  2  0
 13 14  1  0
 14 15  2  0
 15 16  1  0
  8 17  1  0
  4 18  1  0
 18 19  1  0
 19 20  2  0
 19 21  1  0
 21  2  1  0
 17  5  1  0
 15 10  1  0
  3 22  1  0
  6 23  1  0
 11 24  1  0
 12 25  1  0
 13 26  1  0
 14 27  1  0
 17 28  1  0
M  CHG  3  16  -1  18  -1  21  -1
M  END
>  <UniqueID>  (28) 
28

>  <SMILES>  (28) 
O=c1cc(-c2csc(=Nc3ccccc3[O-])[nH]2)[n-]c(=S)[n-]1

>  <Energy>  (28) 
70.95840795188849

>  <Genealogy>  (28) 
O=c1cc(-c2csc(=Nc3ccccc3[O-])[nH]2)[n-]c(=S)[n-]1 (protonated)
O=c1cc(-c2csc(=Nc3ccccc3[O-])[nH]2)[n-]c(=S)[n-]1 (3D coordinates assigned)
O=c1cc(-c2csc(=Nc3ccccc3[O-])[nH]2)[n-]c(=S)[n-]1 (optimized conformer: 70.95840795188849 kcal/mol)

>  <smiles>  (28) 
O=c1cc(-c2csc(=Nc3ccccc3O)[nH]2)[nH]c(=S)[nH]1

>  <score_type>  (28) 
oracle

>  <origin>  (28) 
adg

>  <m_score__min__energy>  (28) 
-14.289999999999999

>  <m_primary>  (28) 
energy

$$$$
28:0
     RDKit          3D

 45 48  0  0  0  0  0  0  0  0999 V2000
   54.7920   27.0960   46.5180 H   0  0  0  0  0  0  0  0  0  0  0  0
   54.7790   26.2700   45.8790 N   0  0  0  0  0  0  0  0  0  0  0  0
   55.9700   25.5310   45.6170 C   0  0  0  0  0  0  0  0  0  0  0  0
   55.9260   24.5260   44.8580 O   0  0  0  0  0  0  0  0  0  0  0  0
   57.2410   25.9380   46.2310 C   0  0  0  0  0  0  0  0  0  0  0  0
   57.4540   27.2680   47.2410 S   0  0  0  0  0  0  0  0  0  0  0  0
   59.1020   26.9620   47.4380 C   0  0  0  0  0  0  0  0  0  0  0  0
   59.9280   27.6690   48.1500 N   0  0  0  0  0  0  0  0  0  0  0  0
   59.5350   28.6210   49.1960 C   0  0  1  0  0  0  0  0  0  0  0  0
   58.6384   28.2032   49.6771 H   0  0  0  0  0  0  0  0  0  0  0  0
   60.6860   28.8390   50.1710 C   0  0  0  0  0  0  0  0  0  0  0  0
   60.3028   29.1573   51.1517 H   0  0  0  0  0  0  0  0  0  0  0  0
   61.2610   27.9154   50.3334 H   0  0  0  0  0  0  0  0  0  0  0  0
   61.5460   29.9360   49.5550 C   0  0  0  0  0  0  0  0  0  0  0  0
   61.9144   30.6140   50.3389 H   0  0  0  0  0  0  0  0  0  0  0  0
   62.4215   29.5112   49.0421 H   0  0  0  0  0  0  0  0  0  0  0  0
   60.6520   30.6980   48.5770 C   0  0  0  0  0  0  0  0  0  0  0  0
   60.5516   31.7468   48.8931 H   0  0  0  0  0  0  0  0  0  0  0  0
   61.0801   30.6947   47.5637 H   0  0  0  0  0  0  0  0  0  0  0  0
   59.2880   30.0070   48.6010 C   0  0  1  0  0  0  0  0  0  0  0  0
   58.5657   30.5811   49.1999 H   0  0  0  0  0  0  0  0  0  0  0  0
   58.6980   29.9160   47.2640 N   0  0  0  0  0  0  0  0  0  0  0  0
   59.2090   30.5620   46.0920 C   0  0  0  0  0  0  0  0  0  0  0  0
   59.9170   29.9020   45.2880 O   0  0  0  0  0  0  0  0  0  0  0  0
   58.9030   31.9710   45.7860 C   0  0  0  0  0  0  0  0  0  0  0  0
   59.6720   32.9740   46.3960 C   0  0  0  0  0  0  0  0  0  0  0  0
   60.4406   32.6997   47.1335 H   0  0  0  0  0  0  0  0  0  0  0  0
   59.4690   34.3170   46.0740 C   0  0  0  0  0  0  0  0  0  0  0  0
   60.0641   35.0971   46.5713 H   0  0  0  0  0  0  0  0  0  0  0  0
   58.5130   34.6710   45.1230 C   0  0  0  0  0  0  0  0  0  0  0  0
   58.3576   35.7294   44.8669 H   0  0  0  0  0  0  0  0  0  0  0  0
   57.7520   33.6810   44.4950 C   0  0  0  0  0  0  0  0  0  0  0  0
   57.0076   33.9657   43.7369 H   0  0  0  0  0  0  0  0  0  0  0  0
   57.9280   32.3260   44.8220 C   0  0  0  0  0  0  0  0  0  0  0  0
   57.1180   31.3390   44.1600 N   0  0  0  0  0  0  0  0  0  0  0  0
   56.2100   30.6040   44.7810 N   0  0  0  0  0  0  0  0  0  0  0  0
   55.6880   29.7500   43.8810 C   0  0  0  0  0  0  0  0  0  0  0  0
   54.8980   29.0134   44.0890 H   0  0  0  0  0  0  0  0  0  0  0  0
   56.2970   29.9410   42.6560 C   0  0  0  0  0  0  0  0  0  0  0  0
   56.0995   29.4034   41.7169 H   0  0  0  0  0  0  0  0  0  0  0  0
   57.2060   30.9530   42.8700 C   0  0  0  0  0  0  0  0  0  0  0  0
   57.8880   31.3751   42.1172 H   0  0  0  0  0  0  0  0  0  0  0  0
   59.5000   25.8700   46.7510 N   0  0  0  0  0  0  0  0  0  0  0  0
   58.4670   25.2950   46.0770 C   0  0  0  0  0  0  0  0  0  0  0  0
   58.5905   24.3933   45.4592 H   0  0  0  0  0  0  0  0  0  0  0  0
  1  2  1  0
  2  3  1  0
  3  4  2  0
  3  5  1  0
  5  6  1  0
  6  7  1  0
  7  8  2  0
  8  9  1  0
  9 10  1  1
  9 11  1  0
 11 12  1  0
 11 13  1  0
 11 14  1  0
 14 15  1  0
 14 16  1  0
 14 17  1  0
 17 18  1  0
 17 19  1  0
 17 20  1  0
 20 21  1  1
 20 22  1  0
 22 23  1  0
 23 24  2  0
 23 25  1  0
 25 26  2  0
 26 27  1  0
 26 28  1  0
 28 29  1  0
 28 30  2  0
 30 31  1  0
 30 32  1  0
 32 33  1  0
 32 34  2  0
 34 35  1  0
 35 36  1  0
 36 37  2  0
 37 38  1  0
 37 39  1  0
 39 40  1  0
 39 41  2  0
 41 42  1  0
  7 43  1  0
 43 44  1  0
 44 45  1  0
 44  5  2  0
 20  9  1  0
 34 25  1  0
 41 35  1  0
M  CHG  3   2  -1  22  -1  43  -1
M  END
>  <UniqueID>  (29) 
29

>  <SMILES>  (29) 
[NH-]C(=O)c1c[n-]/c(=N/[C@H]2CCC[C@H]2[N-]C(=O)c2ccccc2-n2cccn2)s1

>  <Energy>  (29) 
119.20265813512455

>  <Genealogy>  (29) 
[NH-]C(=O)c1c[n-]c(=NC2CCCC2[N-]C(=O)c2ccccc2-n2cccn2)s1 (protonated)
[NH-]C(=O)c1c[n-]c(=N[C@H]2CCC[C@H]2[N-]C(=O)c2ccccc2-n2cccn2)s1 (chirality)
[NH-]C(=O)c1c[n-]/c(=N/[C@H]2CCC[C@H]2[N-]C(=O)c2ccccc2-n2cccn2)s1 (cis-trans isomerization)
[NH-]C(=O)c1c[n-]/c(=N/[C@H]2CCC[C@H]2[N-]C(=O)c2ccccc2-n2cccn2)s1 (3D coordinates assigned)
[NH-]C(=O)c1c[n-]/c(=N/[C@H]2CCC[C@H]2[N-]C(=O)c2ccccc2-n2cccn2)s1 (nonaromatic ring conformer: 119.20265813512455 kcal/mol)

>  <smiles>  (29) 
NC(=O)c1c[nH]c(=NC2CCCC2NC(=O)c2ccccc2-n2cccn2)s1

>  <score_type>  (29) 
oracle

>  <origin>  (29) 
adg

>  <m_score__min__energy>  (29) 
-13.56

>  <m_primary>  (29) 
energy

$$$$
29:0
     RDKit          3D

 61 63  0  0  0  0  0  0  0  0999 V2000
   56.7090   30.4970   43.5090 C   0  0  0  0  0  0  0  0  0  0  0  0
   56.3170   29.3330   44.3560 C   0  0  0  0  0  0  0  0  0  0  0  0
   55.1670   29.3030   44.8730 O   0  0  0  0  0  0  0  0  0  0  0  0
   57.2670   28.2850   44.6020 N   0  0  0  0  0  0  0  0  0  0  0  0
   57.7210   27.7850   45.9070 C   0  0  1  0  0  0  0  0  0  0  0  0
   58.0180   28.9420   46.8930 C   0  0  0  0  0  0  0  0  0  0  0  0
   58.9860   28.5880   48.0010 C   0  0  0  0  0  0  0  0  0  0  0  0
   59.8780   27.5150   47.8340 C   0  0  0  0  0  0  0  0  0  0  0  0
   60.7610   27.1620   48.8580 C   0  0  0  0  0  0  0  0  0  0  0  0
   60.7710   27.8760   50.0650 C   0  0  0  0  0  0  0  0  0  0  0  0
   61.7280   27.4900   51.1600 C   0  0  0  0  0  0  0  0  0  0  0  0
   62.1670   28.6740   51.8920 N   0  0  0  0  0  0  0  0  0  0  0  0
   63.1580   29.5870   51.4040 C   0  0  0  0  0  0  0  0  0  0  0  0
   64.3530   29.2040   51.2780 O   0  0  0  0  0  0  0  0  0  0  0  0
   62.7870   30.9380   51.0580 N   0  0  0  0  0  0  0  0  0  0  0  0
   61.4390   31.4050   51.4160 C   0  0  0  0  0  0  0  0  0  0  0  0
   61.1910   32.8330   50.9460 C   0  0  0  0  0  0  0  0  0  0  0  0
   61.7490   32.9830   49.5940 N   0  0  0  0  0  0  0  0  0  0  0  0
   61.2480   34.2100   48.9400 C   0  0  0  0  0  0  0  0  0  0  0  0
   60.2150   33.8660   47.8900 C   0  0  0  0  0  0  0  0  0  0  0  0
   60.4620   34.2030   46.5460 C   0  0  0  0  0  0  0  0  0  0  0  0
   59.5130   33.9250   45.5590 C   0  0  0  0  0  0  0  0  0  0  0  0
   58.3100   33.3070   45.9000 C   0  0  0  0  0  0  0  0  0  0  0  0
   58.0510   32.9660   47.2290 C   0  0  0  0  0  0  0  0  0  0  0  0
   58.9910   33.2390   48.2290 C   0  0  0  0  0  0  0  0  0  0  0  0
   58.6780   32.8780   49.5420 O   0  0  0  0  0  0  0  0  0  0  0  0
   63.2230   33.0090   49.6700 C   0  0  0  0  0  0  0  0  0  0  0  0
   63.8090   31.8560   50.5220 C   0  0  0  0  0  0  0  0  0  0  0  0
   59.8940   28.9590   50.2300 C   0  0  0  0  0  0  0  0  0  0  0  0
   59.0070   29.3170   49.2090 C   0  0  0  0  0  0  0  0  0  0  0  0
   58.1440   30.3900   49.4080 O   0  0  0  0  0  0  0  0  0  0  0  0
   56.8130   26.7150   46.4710 C   0  0  0  0  0  0  0  0  0  0  0  0
   55.4570   26.6290   46.0400 N   0  0  0  0  0  0  0  0  0  0  0  0
   57.2080   25.9620   47.4030 O   0  0  0  0  0  0  0  0  0  0  0  0
   56.9932   31.3410   44.1546 H   0  0  0  0  0  0  0  0  0  0  0  0
   57.5626   30.2174   42.8740 H   0  0  0  0  0  0  0  0  0  0  0  0
   55.8602   30.7907   42.8740 H   0  0  0  0  0  0  0  0  0  0  0  0
   58.6825   27.2761   45.7444 H   0  0  0  0  0  0  0  0  0  0  0  0
   58.4418   29.7807   46.3212 H   0  0  0  0  0  0  0  0  0  0  0  0
   57.0635   29.1923   47.3790 H   0  0  0  0  0  0  0  0  0  0  0  0
   59.8812   26.9491   46.8907 H   0  0  0  0  0  0  0  0  0  0  0  0
   61.4528   26.3186   48.7164 H   0  0  0  0  0  0  0  0  0  0  0  0
   61.2256   26.8002   51.8541 H   0  0  0  0  0  0  0  0  0  0  0  0
   62.6057   27.0017   50.7114 H   0  0  0  0  0  0  0  0  0  0  0  0
   60.6966   30.7421   50.9477 H   0  0  0  0  0  0  0  0  0  0  0  0
   61.3507   31.3859   52.5123 H   0  0  0  0  0  0  0  0  0  0  0  0
   60.1098   33.0344   50.9256 H   0  0  0  0  0  0  0  0  0  0  0  0
   61.6719   33.5447   51.6332 H   0  0  0  0  0  0  0  0  0  0  0  0
   60.7905   34.8632   49.6977 H   0  0  0  0  0  0  0  0  0  0  0  0
   62.0908   34.7245   48.4551 H   0  0  0  0  0  0  0  0  0  0  0  0
   61.4096   34.6890   46.2705 H   0  0  0  0  0  0  0  0  0  0  0  0
   59.7149   34.1939   44.5116 H   0  0  0  0  0  0  0  0  0  0  0  0
   57.5646   33.0881   45.1212 H   0  0  0  0  0  0  0  0  0  0  0  0
   57.1005   32.4789   47.4920 H   0  0  0  0  0  0  0  0  0  0  0  0
   58.5270   31.9210   49.8330 H   0  0  0  0  0  0  0  0  0  0  0  0
   63.6274   32.9308   48.6500 H   0  0  0  0  0  0  0  0  0  0  0  0
   63.5093   33.9534   50.1559 H   0  0  0  0  0  0  0  0  0  0  0  0
   64.5012   31.2766   49.8935 H   0  0  0  0  0  0  0  0  0  0  0  0
   64.3122   32.3168   51.3848 H   0  0  0  0  0  0  0  0  0  0  0  0
   59.9040   29.5310   51.1695 H   0  0  0  0  0  0  0  0  0  0  0  0
   55.1480   27.0870   45.1530 H   0  0  0  0  0  0  0  0  0  0  0  0
  1  2  1  0
  2  3  2  0
  2  4  1  0
  4  5  1  0
  5  6  1  0
  6  7  1  0
  7  8  2  0
  8  9  1  0
  9 10  2  0
 10 11  1  0
 11 12  1  0
 12 13  1  0
 13 14  2  0
 13 15  1  0
 15 16  1  0
 16 17  1  0
 17 18  1  0
 18 19  1  0
 19 20  1  0
 20 21  2  0
 21 22  1  0
 22 23  2  0
 23 24  1  0
 24 25  2  0
 25 26  1  0
 18 27  1  0
 27 28  1  0
 10 29  1  0
 29 30  2  0
 30 31  1  0
  5 32  1  0
 32 33  1  0
 32 34  2  0
 30  7  1  0
 28 15  1  0
 25 20  1  0
  1 35  1  0
  1 36  1  0
  1 37  1  0
  5 38  1  6
  6 39  1  0
  6 40  1  0
  8 41  1  0
  9 42  1  0
 11 43  1  0
 11 44  1  0
 16 45  1  0
 16 46  1  0
 17 47  1  0
 17 48  1  0
 19 49  1  0
 19 50  1  0
 21 51  1  0
 22 52  1  0
 23 53  1  0
 24 54  1  0
 26 55  1  0
 27 56  1  0
 27 57  1  0
 28 58  1  0
 28 59  1  0
 29 60  1  0
 33 61  1  0
M  CHG  4   4  -1  12  -1  31  -1  33  -1
M  END
>  <UniqueID>  (30) 
30

>  <SMILES>  (30) 
CC(=O)[N-][C@@H](Cc1ccc(C[N-]C(=O)N2CCN(Cc3ccccc3O)CC2)cc1[O-])C([NH-])=O

>  <Energy>  (30) 
64.99505859365298

>  <Genealogy>  (30) 
CC(=O)[N-]C(Cc1ccc(C[N-]C(=O)N2CCN(Cc3ccccc3O)CC2)cc1[O-])C([NH-])=O (protonated)
CC(=O)[N-][C@@H](Cc1ccc(C[N-]C(=O)N2CCN(Cc3ccccc3O)CC2)cc1[O-])C([NH-])=O (chirality)
CC(=O)[N-][C@@H](Cc1ccc(C[N-]C(=O)N2CCN(Cc3ccccc3O)CC2)cc1[O-])C([NH-])=O (3D coordinates assigned)
CC(=O)[N-][C@@H](Cc1ccc(C[N-]C(=O)N2CCN(Cc3ccccc3O)CC2)cc1[O-])C([NH-])=O (nonaromatic ring conformer: 64.99505859365298 kcal/mol)

>  <smiles>  (30) 
CC(=O)NC(Cc1ccc(CNC(=O)N2CCN(Cc3ccccc3O)CC2)cc1O)C(N)=O

>  <score_type>  (30) 
oracle

>  <origin>  (30) 
adg

>  <m_score__min__energy>  (30) 
-18.050000000000001

>  <m_primary>  (30) 
energy

$$$$
30:0
     RDKit          3D

 35 37  0  0  1  0  0  0  0  0999 V2000
   61.3040   34.1020   48.4820 C   0  0  0  0  0  0  0  0  0  0  0  0
   60.6010   32.9650   47.8190 C   0  0  0  0  0  0  0  0  0  0  0  0
   60.6100   31.6830   48.3610 C   0  0  0  0  0  0  0  0  0  0  0  0
   59.9450   30.6680   47.7100 C   0  0  0  0  0  0  0  0  0  0  0  0
   59.9780   29.3870   48.2910 O   0  0  0  0  0  0  0  0  0  0  0  0
   59.5170   28.3710   47.4390 C   0  0  0  0  0  0  0  0  0  0  0  0
   60.3820   27.3740   47.0110 C   0  0  0  0  0  0  0  0  0  0  0  0
   59.9200   26.3910   46.1810 C   0  0  0  0  0  0  0  0  0  0  0  0
   58.6090   26.3370   45.7370 C   0  0  0  0  0  0  0  0  0  0  0  0
   57.7630   27.3300   46.1670 C   0  0  0  0  0  0  0  0  0  0  0  0
   56.4320   27.2980   45.7310 O   0  0  0  0  0  0  0  0  0  0  0  0
   58.2050   28.3250   46.9990 C   0  0  0  0  0  0  0  0  0  0  0  0
   59.2920   30.9100   46.5580 N   0  0  0  0  0  0  0  0  0  0  0  0
   59.2780   32.1390   46.0300 C   0  0  0  0  0  0  0  0  0  0  0  0
   58.6580   32.4060   44.9210 N   0  0  0  0  0  0  0  0  0  0  0  0
   57.6640   31.5640   44.3490 C   0  0  0  0  0  0  0  0  0  0  0  0
   56.9050   30.7210   45.0600 N   0  0  0  0  0  0  0  0  0  0  0  0
   56.0740   30.0840   44.2060 C   0  0  0  0  0  0  0  0  0  0  0  0
   55.1770   29.1920   44.4440 N   0  0  0  0  0  0  0  0  0  0  0  0
   56.3550   30.5640   42.9910 N   0  0  0  0  0  0  0  0  0  0  0  0
   57.3180   31.4650   43.0520 N   0  0  0  0  0  0  0  0  0  0  0  0
   59.9240   33.1570   46.6490 N   0  0  0  0  0  0  0  0  0  0  0  0
   61.2344   33.9895   49.5740 H   0  0  0  0  0  0  0  0  0  0  0  0
   62.3618   34.1050   48.1804 H   0  0  0  0  0  0  0  0  0  0  0  0
   60.8340   35.0497   48.1804 H   0  0  0  0  0  0  0  0  0  0  0  0
   61.1439   31.4823   49.3016 H   0  0  0  0  0  0  0  0  0  0  0  0
   61.4325   27.3746   47.3374 H   0  0  0  0  0  0  0  0  0  0  0  0
   60.6197   25.6089   45.8514 H   0  0  0  0  0  0  0  0  0  0  0  0
   58.2610   25.5347   45.0698 H   0  0  0  0  0  0  0  0  0  0  0  0
   56.1900   27.3230   44.7550 H   0  0  0  0  0  0  0  0  0  0  0  0
   57.5013   29.1052   47.3248 H   0  0  0  0  0  0  0  0  0  0  0  0
   58.7900   30.1320   46.0720 H   0  0  0  0  0  0  0  0  0  0  0  0
   55.1590   28.5510   45.2450 H   0  0  0  0  0  0  0  0  0  0  0  0
   55.9040   30.2940   42.0850 H   0  0  0  0  0  0  0  0  0  0  0  0
   57.7240   31.9920   42.2390 H   0  0  0  0  0  0  0  0  0  0  0  0
  1  2  1  0
  2  3  1  0
  3  4  2  0
  4  5  1  0
  5  6  1  0
  6  7  2  0
  7  8  1  0
  8  9  2  0
  9 10  1  0
 10 11  1  0
 10 12  2  0
  4 13  1  0
 13 14  1  0
 14 15  2  0
 15 16  1  0
 16 17  2  0
 17 18  1  0
 18 19  2  3
 18 20  1  0
 20 21  1  0
 14 22  1  0
 22  2  2  0
 12  6  1  0
 21 16  1  0
  1 23  1  0
  1 24  1  0
  1 25  1  0
  3 26  1  0
  7 27  1  0
  8 28  1  0
  9 29  1  0
 11 30  1  0
 12 31  1  0
 13 32  1  0
 19 33  1  0
 20 34  1  0
 21 35  1  0
M  END
>  <smiles>  (31) 
Cc1cc(Oc2cccc(O)c2)[nH]c(=Nc2nc(=N)[nH][nH]2)n1

>  <score_type>  (31) 
oracle

>  <origin>  (31) 
adg

>  <m_score__min__energy>  (31) 
-7.8399999999999999

>  <m_primary>  (31) 
energy

$$$$
31:0
     RDKit          3D

 41 44  0  0  0  0  0  0  0  0999 V2000
   60.8450   27.2760   46.0090 C   0  0  0  0  0  0  0  0  0  0  0  0
   59.3470   27.2010   45.9750 C   0  0  0  0  0  0  0  0  0  0  0  0
   58.6830   26.0870   46.5060 C   0  0  0  0  0  0  0  0  0  0  0  0
   57.2880   26.0330   46.5020 C   0  0  0  0  0  0  0  0  0  0  0  0
   56.5410   27.0890   45.9700 C   0  0  0  0  0  0  0  0  0  0  0  0
   55.1530   26.9940   45.9570 O   0  0  0  0  0  0  0  0  0  0  0  0
   57.1930   28.2210   45.4420 C   0  0  0  0  0  0  0  0  0  0  0  0
   56.4190   29.3480   44.8630 C   0  0  0  0  0  0  0  0  0  0  0  0
   55.1600   29.3210   44.9050 O   0  0  0  0  0  0  0  0  0  0  0  0
   57.0610   30.5040   44.3030 N   0  0  0  0  0  0  0  0  0  0  0  0
   57.5460   31.6390   45.0340 C   0  0  0  0  0  0  0  0  0  0  0  0
   57.3580   32.9180   44.5010 C   0  0  0  0  0  0  0  0  0  0  0  0
   57.7930   34.0460   45.2020 C   0  0  0  0  0  0  0  0  0  0  0  0
   58.4250   33.9020   46.4390 C   0  0  0  0  0  0  0  0  0  0  0  0
   58.6420   32.6230   46.9820 C   0  0  0  0  0  0  0  0  0  0  0  0
   59.3210   32.4570   48.2880 C   0  0  0  0  0  0  0  0  0  0  0  0
   60.3910   33.0900   48.5060 O   0  0  0  0  0  0  0  0  0  0  0  0
   58.7790   31.5810   49.3520 C   0  0  0  0  0  0  0  0  0  0  0  0
   58.0490   32.1590   50.4150 C   0  0  0  0  0  0  0  0  0  0  0  0
   57.5580   31.3060   51.3930 C   0  0  0  0  0  0  0  0  0  0  0  0
   56.8180   31.5060   52.5310 C   0  0  0  0  0  0  0  0  0  0  0  0
   56.6220   30.3000   53.1200 N   0  0  0  0  0  0  0  0  0  0  0  0
   57.2130   29.3520   52.3940 N   0  0  0  0  0  0  0  0  0  0  0  0
   57.7790   29.9690   51.3450 C   0  0  0  0  0  0  0  0  0  0  0  0
   58.4930   29.3870   50.3530 N   0  0  0  0  0  0  0  0  0  0  0  0
   59.0060   30.1690   49.3550 C   0  0  0  0  0  0  0  0  0  0  0  0
   59.6980   29.6290   48.4520 O   0  0  0  0  0  0  0  0  0  0  0  0
   58.2240   31.4930   46.2580 C   0  0  0  0  0  0  0  0  0  0  0  0
   58.5990   28.2760   45.4710 C   0  0  0  0  0  0  0  0  0  0  0  0
   61.1876   27.2932   47.0541 H   0  0  0  0  0  0  0  0  0  0  0  0
   61.2678   26.3979   45.4989 H   0  0  0  0  0  0  0  0  0  0  0  0
   61.1779   28.1919   45.4989 H   0  0  0  0  0  0  0  0  0  0  0  0
   59.2628   25.2525   46.9273 H   0  0  0  0  0  0  0  0  0  0  0  0
   56.7735   25.1550   46.9196 H   0  0  0  0  0  0  0  0  0  0  0  0
   56.8651   33.0369   43.5248 H   0  0  0  0  0  0  0  0  0  0  0  0
   57.6373   35.0492   44.7786 H   0  0  0  0  0  0  0  0  0  0  0  0
   58.7549   34.7940   46.9917 H   0  0  0  0  0  0  0  0  0  0  0  0
   57.8765   33.2442   50.4652 H   0  0  0  0  0  0  0  0  0  0  0  0
   56.4487   32.4740   52.9006 H   0  0  0  0  0  0  0  0  0  0  0  0
   58.4287   30.4864   46.6516 H   0  0  0  0  0  0  0  0  0  0  0  0
   59.1168   29.1706   45.0948 H   0  0  0  0  0  0  0  0  0  0  0  0
  1  2  1  0
  2  3  2  0
  3  4  1  0
  4  5  2  0
  5  6  1  0
  5  7  1  0
  7  8  1  0
  8  9  2  0
  8 10  1  0
 10 11  1  0
 11 12  2  0
 12 13  1  0
 13 14  2  0
 14 15  1  0
 15 16  1  0
 16 17  2  0
 16 18  1  0
 18 19  2  0
 19 20  1  0
 20 21  2  0
 21 22  1  0
 22 23  1  0
 23 24  2  0
 24 25  1  0
 25 26  1  0
 26 27  2  0
 15 28  2  0
  7 29  2  0
 29  2  1  0
 28 11  1  0
 26 18  1  0
 24 20  1  0
  1 30  1  0
  1 31  1  0
  1 32  1  0
  3 33  1  0
  4 34  1  0
 12 35  1  0
 13 36  1  0
 14 37  1  0
 19 38  1  0
 21 39  1  0
 28 40  1  0
 29 41  1  0
M  CHG  4   6  -1  10  -1  22  -1  25  -1
M  END
>  <UniqueID>  (32) 
31

>  <SMILES>  (32) 
Cc1ccc([O-])c(C(=O)[N-]c2cccc(C(=O)c3cc4c[n-]nc4[n-]c3=O)c2)c1

>  <Energy>  (32) 
100.39555610290297

>  <Genealogy>  (32) 
Cc1ccc([O-])c(C(=O)[N-]c2cccc(C(=O)c3cc4c[n-]nc4[n-]c3=O)c2)c1 (protonated)
Cc1ccc([O-])c(C(=O)[N-]c2cccc(C(=O)c3cc4c[n-]nc4[n-]c3=O)c2)c1 (3D coordinates assigned)
Cc1ccc([O-])c(C(=O)[N-]c2cccc(C(=O)c3cc4c[n-]nc4[n-]c3=O)c2)c1 (optimized conformer: 100.39555610290297 kcal/mol)

>  <smiles>  (32) 
Cc1ccc(O)c(C(=O)Nc2cccc(C(=O)c3cc4c[nH]nc4[nH]c3=O)c2)c1

>  <score_type>  (32) 
oracle

>  <origin>  (32) 
adg

>  <m_score__min__energy>  (32) 
-16.030000000000001

>  <m_primary>  (32) 
energy

$$$$
32:0
     RDKit          3D

 40 43  0  0  0  0  0  0  0  0999 V2000
   61.1240   30.3940   50.1040 C   0  0  0  0  0  0  0  0  0  0  0  0
   61.9730   30.4640   48.9630 O   0  0  0  0  0  0  0  0  0  0  0  0
   62.1850   31.6210   48.1950 C   0  0  0  0  0  0  0  0  0  0  0  0
   63.4300   32.2800   48.1840 C   0  0  0  0  0  0  0  0  0  0  0  0
   63.6190   33.4230   47.4060 C   0  0  0  0  0  0  0  0  0  0  0  0
   62.5710   33.9250   46.6360 C   0  0  0  0  0  0  0  0  0  0  0  0
   61.3310   33.2850   46.6380 C   0  0  0  0  0  0  0  0  0  0  0  0
   61.1240   32.1250   47.4120 C   0  0  0  0  0  0  0  0  0  0  0  0
   59.8460   31.4500   47.4180 N   0  0  0  0  0  0  0  0  0  0  0  0
   58.5790   32.0880   47.0570 C   0  0  0  0  0  0  0  0  0  0  0  0
   58.3580   32.0150   45.5670 C   0  0  0  0  0  0  0  0  0  0  0  0
   58.4320   33.1560   44.7490 C   0  0  0  0  0  0  0  0  0  0  0  0
   58.1160   32.9180   43.4200 C   0  0  0  0  0  0  0  0  0  0  0  0
   57.7520   31.2880   43.2510 S   0  0  0  0  0  0  0  0  0  0  0  0
   58.0030   30.8600   44.8580 C   0  0  0  0  0  0  0  0  0  0  0  0
   57.8560   29.4890   45.3800 C   0  0  0  0  0  0  0  0  0  0  0  0
   58.9550   28.8210   45.9800 C   0  0  0  0  0  0  0  0  0  0  0  0
   58.8180   27.5090   46.4690 C   0  0  0  0  0  0  0  0  0  0  0  0
   57.5770   26.8940   46.3320 C   0  0  0  0  0  0  0  0  0  0  0  0
   57.2260   25.6600   46.7220 N   0  0  0  0  0  0  0  0  0  0  0  0
   55.9260   25.6010   46.3360 C   0  0  0  0  0  0  0  0  0  0  0  0
   55.2130   24.5810   46.5250 O   0  0  0  0  0  0  0  0  0  0  0  0
   55.4480   26.7190   45.7320 N   0  0  0  0  0  0  0  0  0  0  0  0
   56.5210   27.5230   45.7440 C   0  0  0  0  0  0  0  0  0  0  0  0
   56.6180   28.8200   45.2460 C   0  0  0  0  0  0  0  0  0  0  0  0
   61.7336   30.4443   51.0183 H   0  0  0  0  0  0  0  0  0  0  0  0
   60.4175   31.2369   50.0876 H   0  0  0  0  0  0  0  0  0  0  0  0
   60.5651   29.4467   50.0876 H   0  0  0  0  0  0  0  0  0  0  0  0
   64.2592   31.8908   48.7931 H   0  0  0  0  0  0  0  0  0  0  0  0
   64.5960   33.9284   47.4003 H   0  0  0  0  0  0  0  0  0  0  0  0
   62.7218   34.8275   46.0255 H   0  0  0  0  0  0  0  0  0  0  0  0
   60.5079   33.6891   46.0304 H   0  0  0  0  0  0  0  0  0  0  0  0
   59.8100   30.4310   47.6420 H   0  0  0  0  0  0  0  0  0  0  0  0
   57.7544   31.5725   47.5712 H   0  0  0  0  0  0  0  0  0  0  0  0
   58.6129   33.1447   47.3608 H   0  0  0  0  0  0  0  0  0  0  0  0
   58.7152   34.1486   45.1292 H   0  0  0  0  0  0  0  0  0  0  0  0
   58.1056   33.6679   42.6153 H   0  0  0  0  0  0  0  0  0  0  0  0
   59.9242   29.3345   46.0636 H   0  0  0  0  0  0  0  0  0  0  0  0
   59.6624   26.9873   46.9432 H   0  0  0  0  0  0  0  0  0  0  0  0
   55.7584   29.3084   44.7636 H   0  0  0  0  0  0  0  0  0  0  0  0
  1  2  1  0
  2  3  1  0
  3  4  2  0
  4  5  1  0
  5  6  2  0
  6  7  1  0
  7  8  2  0
  8  9  1  0
  9 10  1  0
 10 11  1  0
 11 12  1  0
 12 13  2  0
 13 14  1  0
 14 15  1  0
 15 16  1  0
 16 17  2  0
 17 18  1  0
 18 19  2  0
 19 20  1  0
 20 21  1  0
 21 22  2  0
 21 23  1  0
 23 24  1  0
 24 25  2  0
  8  3  1  0
 15 11  2  0
 25 16  1  0
 24 19  1  0
  1 26  1  0
  1 27  1  0
  1 28  1  0
  4 29  1  0
  5 30  1  0
  6 31  1  0
  7 32  1  0
  9 33  1  0
 10 34  1  0
 10 35  1  0
 12 36  1  0
 13 37  1  0
 17 38  1  0
 18 39  1  0
 25 40  1  0
M  CHG  2  20  -1  23  -1
M  END
>  <UniqueID>  (33) 
32

>  <SMILES>  (33) 
COc1ccccc1NCc1ccsc1-c1ccc2[n-]c(=O)[n-]c2c1

>  <Energy>  (33) 
109.42423093688514

>  <Genealogy>  (33) 
COc1ccccc1NCc1ccsc1-c1ccc2[n-]c(=O)[n-]c2c1 (protonated)
COc1ccccc1NCc1ccsc1-c1ccc2[n-]c(=O)[n-]c2c1 (3D coordinates assigned)
COc1ccccc1NCc1ccsc1-c1ccc2[n-]c(=O)[n-]c2c1 (optimized conformer: 109.42423093688514 kcal/mol)

>  <smiles>  (33) 
COc1ccccc1NCc1ccsc1-c1ccc2[nH]c(=O)[nH]c2c1

>  <score_type>  (33) 
oracle

>  <origin>  (33) 
adg

>  <m_score__min__energy>  (33) 
-11.470000000000001

>  <m_primary>  (33) 
energy

$$$$
33:0
     RDKit          3D

 77 81  0  0  0  0  0  0  0  0999 V2000
   56.9809   31.9156   42.1472 H   0  0  0  0  0  0  0  0  0  0  0  0
   56.9760   31.1970   42.9800 C   0  0  0  0  0  0  0  0  0  0  0  0
   56.2590   29.6690   42.9770 S   0  0  0  0  0  0  0  0  0  0  0  0
   56.6480   29.3660   44.5690 C   0  0  0  0  0  0  0  0  0  0  0  0
   56.2410   28.3170   45.2450 N   0  0  0  0  0  0  0  0  0  0  0  0
   57.0570   27.1490   45.4690 C   0  0  0  0  0  0  0  0  0  0  0  0
   57.2640   26.3260   44.5340 O   0  0  0  0  0  0  0  0  0  0  0  0
   57.9380   27.0910   46.6860 C   0  0  0  0  0  0  0  0  0  0  0  0
   57.2989   26.9701   47.5731 H   0  0  0  0  0  0  0  0  0  0  0  0
   58.6250   26.2430   46.5481 H   0  0  0  0  0  0  0  0  0  0  0  0
   58.7980   28.3400   46.8760 C   0  0  0  0  0  0  0  0  0  0  0  0
   59.8710   28.6050   45.9920 C   0  0  0  0  0  0  0  0  0  0  0  0
   60.0653   27.9287   45.1465 H   0  0  0  0  0  0  0  0  0  0  0  0
   60.6850   29.7250   46.1910 C   0  0  0  0  0  0  0  0  0  0  0  0
   61.5275   29.9127   45.5091 H   0  0  0  0  0  0  0  0  0  0  0  0
   60.4400   30.6100   47.2480 C   0  0  0  0  0  0  0  0  0  0  0  0
   61.0998   31.4753   47.4090 H   0  0  0  0  0  0  0  0  0  0  0  0
   59.3530   30.3880   48.0970 C   0  0  0  0  0  0  0  0  0  0  0  0
   59.0750   31.3300   49.1350 N   0  0  0  0  0  0  0  0  0  0  0  0
   58.8720   30.9280   50.4920 C   0  0  0  0  0  0  0  0  0  0  0  0
   58.7290   29.7020   50.7400 O   0  0  0  0  0  0  0  0  0  0  0  0
   59.0980   31.9320   51.6360 C   0  0  0  0  0  0  0  0  0  0  0  0
   60.1136   32.3096   51.4463 H   0  0  0  0  0  0  0  0  0  0  0  0
   58.1160   33.1230   51.6390 C   0  0  0  0  0  0  0  0  0  0  0  0
   58.1043   33.5856   50.6411 H   0  0  0  0  0  0  0  0  0  0  0  0
   57.1116   32.7566   51.8977 H   0  0  0  0  0  0  0  0  0  0  0  0
   58.5520   34.1820   52.6890 C   0  0  0  0  0  0  0  0  0  0  0  0
   59.1881   34.9248   52.1855 H   0  0  0  0  0  0  0  0  0  0  0  0
   57.6289   34.6176   53.0992 H   0  0  0  0  0  0  0  0  0  0  0  0
   59.3080   33.6260   53.8400 N   0  0  0  0  0  0  0  0  0  0  0  0
   60.3140   33.5430   53.5830 H   0  0  0  0  0  0  0  0  0  0  0  0
   58.8390   32.2700   54.1930 C   0  0  0  0  0  0  0  0  0  0  0  0
   59.4198   31.9088   55.0545 H   0  0  0  0  0  0  0  0  0  0  0  0
   57.7666   32.3376   54.4284 H   0  0  0  0  0  0  0  0  0  0  0  0
   59.0030   31.2630   53.0250 C   0  0  0  0  0  0  0  0  0  0  0  0
   59.9216   30.6820   53.1940 H   0  0  0  0  0  0  0  0  0  0  0  0
   58.1022   30.6317   53.0164 H   0  0  0  0  0  0  0  0  0  0  0  0
   58.5280   29.2570   47.9130 C   0  0  0  0  0  0  0  0  0  0  0  0
   57.6706   29.0903   48.5816 H   0  0  0  0  0  0  0  0  0  0  0  0
   57.3570   30.3410   45.1250 N   0  0  0  0  0  0  0  0  0  0  0  0
   57.5740   31.3850   44.2600 C   0  0  0  0  0  0  0  0  0  0  0  0
   58.3750   32.5750   44.5900 C   0  0  0  0  0  0  0  0  0  0  0  0
   58.0382   33.4007   43.9459 H   0  0  0  0  0  0  0  0  0  0  0  0
   59.4248   32.2895   44.4278 H   0  0  0  0  0  0  0  0  0  0  0  0
   58.2840   33.0400   46.0370 C   0  0  0  0  0  0  0  0  0  0  0  0
   57.4160   32.4670   46.7630 O   0  0  0  0  0  0  0  0  0  0  0  0
   59.0980   34.1340   46.5780 N   0  0  0  0  0  0  0  0  0  0  0  0
   60.3650   34.5490   45.9870 C   0  0  0  0  0  0  0  0  0  0  0  0
   60.5035   35.6319   46.1219 H   0  0  0  0  0  0  0  0  0  0  0  0
   60.3758   34.3286   44.9094 H   0  0  0  0  0  0  0  0  0  0  0  0
   61.4830   33.7910   46.6960 C   0  0  0  0  0  0  0  0  0  0  0  0
   62.4476   34.0338   46.2262 H   0  0  0  0  0  0  0  0  0  0  0  0
   61.3031   32.7086   46.6178 H   0  0  0  0  0  0  0  0  0  0  0  0
   61.5140   34.2080   48.1910 C   0  0  0  0  0  0  0  0  0  0  0  0
   61.8485   35.2546   48.2422 H   0  0  0  0  0  0  0  0  0  0  0  0
   62.4630   33.2920   48.9160 C   0  0  0  0  0  0  0  0  0  0  0  0
   63.8690   33.4400   48.7960 C   0  0  0  0  0  0  0  0  0  0  0  0
   64.2898   34.2420   48.1718 H   0  0  0  0  0  0  0  0  0  0  0  0
   64.7210   32.5550   49.4800 C   0  0  0  0  0  0  0  0  0  0  0  0
   65.8125   32.6655   49.4002 H   0  0  0  0  0  0  0  0  0  0  0  0
   64.1710   31.5300   50.2650 C   0  0  0  0  0  0  0  0  0  0  0  0
   64.8383   30.8532   50.8187 H   0  0  0  0  0  0  0  0  0  0  0  0
   62.7830   31.3570   50.3530 C   0  0  0  0  0  0  0  0  0  0  0  0
   62.1640   30.2840   51.2090 C   0  0  0  0  0  0  0  0  0  0  0  0
   61.5419   30.7548   51.9844 H   0  0  0  0  0  0  0  0  0  0  0  0
   62.9681   29.6929   51.6717 H   0  0  0  0  0  0  0  0  0  0  0  0
   61.3260   29.3880   50.3950 N   0  0  0  0  0  0  0  0  0  0  0  0
   60.6870   28.8470   51.0340 H   0  0  0  0  0  0  0  0  0  0  0  0
   60.7030   29.9980   49.8020 H   0  0  0  0  0  0  0  0  0  0  0  0
   61.9370   32.2280   49.6690 C   0  0  0  0  0  0  0  0  0  0  0  0
   60.8479   32.0815   49.7188 H   0  0  0  0  0  0  0  0  0  0  0  0
   60.0950   34.1680   48.8810 C   0  0  0  0  0  0  0  0  0  0  0  0
   60.1167   34.8421   49.7500 H   0  0  0  0  0  0  0  0  0  0  0  0
   59.9102   33.1186   49.1541 H   0  0  0  0  0  0  0  0  0  0  0  0
   58.9220   34.5970   47.9660 C   0  0  0  0  0  0  0  0  0  0  0  0
   58.8557   35.6950   47.9670 H   0  0  0  0  0  0  0  0  0  0  0  0
   58.0027   34.1390   48.3598 H   0  0  0  0  0  0  0  0  0  0  0  0
  1  2  1  0
  2  3  1  0
  3  4  1  0
  4  5  2  0
  5  6  1  0
  6  7  2  0
  6  8  1  0
  8  9  1  0
  8 10  1  0
  8 11  1  0
 11 12  2  0
 12 13  1  0
 12 14  1  0
 14 15  1  0
 14 16  2  0
 16 17  1  0
 16 18  1  0
 18 19  1  0
 19 20  1  0
 20 21  2  0
 20 22  1  0
 22 23  1  0
 22 24  1  0
 24 25  1  0
 24 26  1  0
 24 27  1  0
 27 28  1  0
 27 29  1  0
 27 30  1  0
 30 31  1  0
 30 32  1  0
 32 33  1  0
 32 34  1  0
 32 35  1  0
 35 36  1  0
 35 37  1  0
 18 38  2  0
 38 39  1  0
  4 40  1  0
 40 41  1  0
 41 42  1  0
 42 43  1  0
 42 44  1  0
 42 45  1  0
 45 46  2  0
 45 47  1  0
 47 48  1  0
 48 49  1  0
 48 50  1  0
 48 51  1  0
 51 52  1  0
 51 53  1  0
 51 54  1  0
 54 55  1  0
 54 56  1  0
 56 57  2  0
 57 58  1  0
 57 59  1  0
 59 60  1  0
 59 61  2  0
 61 62  1  0
 61 63  1  0
 63 64  1  0
 64 65  1  0
 64 66  1  0
 64 67  1  0
 67 68  1  0
 67 69  1  0
 63 70  2  0
 70 71  1  0
 54 72  1  0
 72 73  1  0
 72 74  1  0
 72 75  1  0
 75 76  1  0
 75 77  1  0
 41  2  2  0
 75 47  1  0
 38 11  1  0
 70 56  1  0
 35 22  1  0
M  CHG  2  19  -1  40  -1
M  END
>  <UniqueID>  (34) 
33

>  <SMILES>  (34) 
NCc1cccc(C2CCN(C(=O)Cc3cs/c(=N/C(=O)Cc4cccc([N-]C(=O)C5CCNCC5)c4)[n-]3)CC2)c1

>  <Energy>  (34) 
147.0411165596814

>  <Genealogy>  (34) 
NCc1cccc(C2CCN(C(=O)Cc3csc(=NC(=O)Cc4cccc([N-]C(=O)C5CCNCC5)c4)[n-]3)CC2)c1 (protonated)
NCc1cccc(C2CCN(C(=O)Cc3cs/c(=N/C(=O)Cc4cccc([N-]C(=O)C5CCNCC5)c4)[n-]3)CC2)c1 (cis-trans isomerization)
NCc1cccc(C2CCN(C(=O)Cc3cs/c(=N/C(=O)Cc4cccc([N-]C(=O)C5CCNCC5)c4)[n-]3)CC2)c1 (3D coordinates assigned)
NCc1cccc(C2CCN(C(=O)Cc3cs/c(=N/C(=O)Cc4cccc([N-]C(=O)C5CCNCC5)c4)[n-]3)CC2)c1 (nonaromatic ring conformer: 147.0411165596814 kcal/mol)

>  <smiles>  (34) 
NCc1cccc(C2CCN(C(=O)Cc3csc(=NC(=O)Cc4cccc(NC(=O)C5CCNCC5)c4)[nH]3)CC2)c1

>  <score_type>  (34) 
oracle

>  <origin>  (34) 
adg

>  <m_score__min__energy>  (34) 
-15.51

>  <m_primary>  (34) 
energy

$$$$
34:0
     RDKit          3D

 52 55  0  0  0  0  0  0  0  0999 V2000
   59.1702   35.2270   46.3631 H   0  0  0  0  0  0  0  0  0  0  0  0
   58.6890   34.4110   45.8040 C   0  0  0  0  0  0  0  0  0  0  0  0
   57.6480   33.6830   46.3880 C   0  0  0  0  0  0  0  0  0  0  0  0
   57.3087   33.9286   47.4051 H   0  0  0  0  0  0  0  0  0  0  0  0
   57.0380   32.6430   45.6800 C   0  0  0  0  0  0  0  0  0  0  0  0
   56.2090   32.0822   46.1363 H   0  0  0  0  0  0  0  0  0  0  0  0
   57.4800   32.3110   44.3870 C   0  0  0  0  0  0  0  0  0  0  0  0
   56.8050   31.2090   43.6100 C   0  0  0  0  0  0  0  0  0  0  0  0
   57.5656   30.6536   43.0416 H   0  0  0  0  0  0  0  0  0  0  0  0
   56.0675   31.6636   42.9322 H   0  0  0  0  0  0  0  0  0  0  0  0
   56.1040   30.2820   44.5010 N   0  0  0  0  0  0  0  0  0  0  0  0
   56.6350   29.3490   45.2410 C   0  0  0  0  0  0  0  0  0  0  0  0
   56.0340   28.1330   45.2760 N   0  0  0  0  0  0  0  0  0  0  0  0
   56.5530   27.1230   46.0150 C   0  0  0  0  0  0  0  0  0  0  0  0
   55.9420   25.9740   46.0370 N   0  0  0  0  0  0  0  0  0  0  0  0
   56.4410   24.7210   45.5400 C   0  0  0  0  0  0  0  0  0  0  0  0
   57.6440   24.1570   46.0080 C   0  0  0  0  0  0  0  0  0  0  0  0
   58.2172   24.6656   46.7971 H   0  0  0  0  0  0  0  0  0  0  0  0
   58.1120   22.9530   45.4730 C   0  0  0  0  0  0  0  0  0  0  0  0
   59.0433   22.5087   45.8540 H   0  0  0  0  0  0  0  0  0  0  0  0
   57.4000   22.3130   44.4560 C   0  0  0  0  0  0  0  0  0  0  0  0
   57.7660   21.3617   44.0423 H   0  0  0  0  0  0  0  0  0  0  0  0
   56.2210   22.8830   43.9640 C   0  0  0  0  0  0  0  0  0  0  0  0
   55.5200   22.2540   42.9430 O   0  0  0  0  0  0  0  0  0  0  0  0
   55.7510   24.0880   44.4970 C   0  0  0  0  0  0  0  0  0  0  0  0
   54.8334   24.5420   44.0947 H   0  0  0  0  0  0  0  0  0  0  0  0
   57.6720   27.3430   46.7510 N   0  0  0  0  0  0  0  0  0  0  0  0
   58.2820   28.5530   46.7440 C   0  0  0  0  0  0  0  0  0  0  0  0
   59.3610   28.7090   47.4580 N   0  0  0  0  0  0  0  0  0  0  0  0
   60.0220   29.9470   47.7650 C   0  0  0  0  0  0  0  0  0  0  0  0
   61.0040   30.4450   46.8930 C   0  0  0  0  0  0  0  0  0  0  0  0
   61.3072   29.8523   46.0173 H   0  0  0  0  0  0  0  0  0  0  0  0
   61.5970   31.6830   47.1280 C   0  0  0  0  0  0  0  0  0  0  0  0
   62.3792   32.0544   46.4496 H   0  0  0  0  0  0  0  0  0  0  0  0
   61.2020   32.4520   48.2200 C   0  0  0  0  0  0  0  0  0  0  0  0
   61.6812   33.4250   48.4035 H   0  0  0  0  0  0  0  0  0  0  0  0
   60.1970   31.9960   49.0890 C   0  0  0  0  0  0  0  0  0  0  0  0
   59.7850   32.8690   50.2470 C   0  0  0  0  0  0  0  0  0  0  0  0
   60.0248   32.3609   51.1927 H   0  0  0  0  0  0  0  0  0  0  0  0
   60.3270   33.8249   50.1966 H   0  0  0  0  0  0  0  0  0  0  0  0
   58.7026   33.0582   50.1966 H   0  0  0  0  0  0  0  0  0  0  0  0
   59.6100   30.7220   48.8740 C   0  0  0  0  0  0  0  0  0  0  0  0
   58.5180   30.2140   49.7880 C   0  0  0  0  0  0  0  0  0  0  0  0
   58.8216   30.3552   50.8358 H   0  0  0  0  0  0  0  0  0  0  0  0
   57.5901   30.7729   49.5966 H   0  0  0  0  0  0  0  0  0  0  0  0
   58.3478   29.1442   49.5966 H   0  0  0  0  0  0  0  0  0  0  0  0
   57.7730   29.5590   45.9680 N   0  0  0  0  0  0  0  0  0  0  0  0
   58.2730   30.4710   45.9050 H   0  0  0  0  0  0  0  0  0  0  0  0
   58.5180   33.0580   43.8040 C   0  0  0  0  0  0  0  0  0  0  0  0
   58.8596   32.8191   42.7861 H   0  0  0  0  0  0  0  0  0  0  0  0
   59.1180   34.1030   44.5120 C   0  0  0  0  0  0  0  0  0  0  0  0
   59.9299   34.6839   44.0501 H   0  0  0  0  0  0  0  0  0  0  0  0
  1  2  1  0
  2  3  2  0
  3  4  1  0
  3  5  1  0
  5  6  1  0
  5  7  2  0
  7  8  1  0
  8  9  1  0
  8 10  1  0
  8 11  1  0
 11 12  2  3
 12 13  1  0
 13 14  1  0
 14 15  2  0
 15 16  1  0
 16 17  2  0
 17 18  1  0
 17 19  1  0
 19 20  1  0
 19 21  2  0
 21 22  1  0
 21 23  1  0
 23 24  1  0
 23 25  2  0
 25 26  1  0
 14 27  1  0
 27 28  1  0
 28 29  2  0
 29 30  1  0
 30 31  2  0
 31 32  1  0
 31 33  1  0
 33 34  1  0
 33 35  2  0
 35 36  1  0
 35 37  1  0
 37 38  1  0
 38 39  1  0
 38 40  1  0
 38 41  1  0
 37 42  2  0
 42 43  1  0
 43 44  1  0
 43 45  1  0
 43 46  1  0
 28 47  1  0
 47 48  1  0
  7 49  1  0
 49 50  1  0
 49 51  2  0
 51 52  1  0
 51  2  1  0
 47 12  1  0
 25 16  1  0
 42 30  1  0
M  CHG  3  13  -1  24  -1  27  -1
M  END
>  <UniqueID>  (35) 
34

>  <SMILES>  (35) 
Cc1cccc(/N=c2/[n-]/c(=N\c3cccc([O-])c3)[n-]c(=NCc3ccccc3)[nH]2)c1C

>  <Energy>  (35) 
72.73181043899146

>  <Genealogy>  (35) 
Cc1cccc(N=c2[n-]c(=Nc3cccc([O-])c3)[n-]c(=NCc3ccccc3)[nH]2)c1C (protonated)
Cc1cccc(/N=c2/[n-]/c(=N\c3cccc([O-])c3)[n-]c(=NCc3ccccc3)[nH]2)c1C (cis-trans isomerization)
Cc1cccc(/N=c2/[n-]/c(=N\c3cccc([O-])c3)[n-]c(=NCc3ccccc3)[nH]2)c1C (3D coordinates assigned)
Cc1cccc(/N=c2/[n-]/c(=N\c3cccc([O-])c3)[n-]c(=NCc3ccccc3)[nH]2)c1C (optimized conformer: 72.73181043899146 kcal/mol)

>  <smiles>  (35) 
Cc1cccc(N=c2[nH]c(=NCc3ccccc3)[nH]c(=Nc3cccc(O)c3)[nH]2)c1C

>  <score_type>  (35) 
oracle

>  <origin>  (35) 
adg

>  <m_score__min__energy>  (35) 
-15.15

>  <m_primary>  (35) 
energy

$$$$
35:0
     RDKit          3D

 60 62  0  0  0  0  0  0  0  0999 V2000
   57.9440   33.2700   46.3600 C   0  0  0  0  0  0  0  0  0  0  0  0
   59.4180   33.6190   46.1660 C   0  0  0  0  0  0  0  0  0  0  0  0
   60.2920   32.8960   47.1080 N   0  0  0  0  0  0  0  0  0  0  0  0
   61.7500   32.8530   46.9020 C   0  0  0  0  0  0  0  0  0  0  0  0
   62.4780   33.6580   47.9730 C   0  0  0  0  0  0  0  0  0  0  0  0
   59.7840   32.5910   48.4210 C   0  0  0  0  0  0  0  0  0  0  0  0
   59.5750   33.6310   49.3420 C   0  0  0  0  0  0  0  0  0  0  0  0
   59.1210   33.3560   50.6380 C   0  0  0  0  0  0  0  0  0  0  0  0
   58.9160   34.3870   51.5520 O   0  0  0  0  0  0  0  0  0  0  0  0
   58.8730   32.0370   51.0200 C   0  0  0  0  0  0  0  0  0  0  0  0
   59.0750   30.9940   50.1150 C   0  0  0  0  0  0  0  0  0  0  0  0
   59.5310   31.2550   48.8120 C   0  0  0  0  0  0  0  0  0  0  0  0
   59.6920   30.1640   47.8860 N   0  0  0  0  0  0  0  0  0  0  0  0
   59.3880   28.7880   48.2910 C   0  0  0  0  0  0  0  0  0  0  0  0
   58.2020   28.2400   47.4720 C   0  0  0  0  0  0  0  0  0  0  0  0
   57.9470   29.0280   46.2390 N   0  0  0  0  0  0  0  0  0  0  0  0
   57.0790   28.2890   45.3020 C   0  0  0  0  0  0  0  0  0  0  0  0
   57.1700   26.8020   45.5520 C   0  0  0  0  0  0  0  0  0  0  0  0
   58.4110   26.1530   45.4730 C   0  0  0  0  0  0  0  0  0  0  0  0
   58.5170   24.7830   45.7440 C   0  0  0  0  0  0  0  0  0  0  0  0
   59.8420   24.0880   45.6210 C   0  0  0  0  0  0  0  0  0  0  0  0
   57.3670   24.0510   46.0710 C   0  0  0  0  0  0  0  0  0  0  0  0
   56.1190   24.6850   46.1570 C   0  0  0  0  0  0  0  0  0  0  0  0
   54.8940   23.9010   46.5330 C   0  0  0  0  0  0  0  0  0  0  0  0
   56.0230   26.0660   45.9050 C   0  0  0  0  0  0  0  0  0  0  0  0
   54.7900   26.7060   46.0050 O   0  0  0  0  0  0  0  0  0  0  0  0
   59.2130   29.4120   45.5860 C   0  0  0  0  0  0  0  0  0  0  0  0
   59.9560   30.4270   46.4670 C   0  0  0  0  0  0  0  0  0  0  0  0
   57.7183   33.2166   47.4353 H   0  0  0  0  0  0  0  0  0  0  0  0
   57.3191   34.0450   45.8922 H   0  0  0  0  0  0  0  0  0  0  0  0
   57.7329   32.2970   45.8922 H   0  0  0  0  0  0  0  0  0  0  0  0
   59.7115   33.3571   45.1387 H   0  0  0  0  0  0  0  0  0  0  0  0
   59.5369   34.6961   46.3550 H   0  0  0  0  0  0  0  0  0  0  0  0
   62.0886   31.8073   46.9458 H   0  0  0  0  0  0  0  0  0  0  0  0
   61.9778   33.2914   45.9192 H   0  0  0  0  0  0  0  0  0  0  0  0
   62.1645   33.3113   48.9687 H   0  0  0  0  0  0  0  0  0  0  0  0
   63.5635   33.5193   47.8614 H   0  0  0  0  0  0  0  0  0  0  0  0
   62.2312   34.7241   47.8614 H   0  0  0  0  0  0  0  0  0  0  0  0
   59.7698   34.6713   49.0423 H   0  0  0  0  0  0  0  0  0  0  0  0
   58.7380   35.3370   51.2490 H   0  0  0  0  0  0  0  0  0  0  0  0
   58.5172   31.8186   52.0377 H   0  0  0  0  0  0  0  0  0  0  0  0
   58.8753   29.9576   50.4248 H   0  0  0  0  0  0  0  0  0  0  0  0
   60.2712   28.1553   48.1189 H   0  0  0  0  0  0  0  0  0  0  0  0
   59.1210   28.7792   49.3581 H   0  0  0  0  0  0  0  0  0  0  0  0
   58.4212   27.2005   47.1868 H   0  0  0  0  0  0  0  0  0  0  0  0
   57.3028   28.3067   48.1021 H   0  0  0  0  0  0  0  0  0  0  0  0
   56.0377   28.6156   45.4399 H   0  0  0  0  0  0  0  0  0  0  0  0
   57.4102   28.4963   44.2737 H   0  0  0  0  0  0  0  0  0  0  0  0
   59.3088   26.7250   45.1958 H   0  0  0  0  0  0  0  0  0  0  0  0
   60.2409   23.8788   46.6246 H   0  0  0  0  0  0  0  0  0  0  0  0
   59.7108   23.1426   45.0742 H   0  0  0  0  0  0  0  0  0  0  0  0
   60.5452   24.7334   45.0742 H   0  0  0  0  0  0  0  0  0  0  0  0
   57.4441   22.9704   46.2617 H   0  0  0  0  0  0  0  0  0  0  0  0
   54.8136   23.8496   47.6289 H   0  0  0  0  0  0  0  0  0  0  0  0
   54.0015   24.3962   46.1227 H   0  0  0  0  0  0  0  0  0  0  0  0
   54.9698   22.8832   46.1227 H   0  0  0  0  0  0  0  0  0  0  0  0
   59.8398   28.5187   45.4474 H   0  0  0  0  0  0  0  0  0  0  0  0
   58.9980   29.8646   44.6067 H   0  0  0  0  0  0  0  0  0  0  0  0
   61.0368   30.3473   46.2788 H   0  0  0  0  0  0  0  0  0  0  0  0
   59.6025   31.4390   46.2204 H   0  0  0  0  0  0  0  0  0  0  0  0
  1  2  1  0
  2  3  1  0
  3  4  1  0
  4  5  1  0
  3  6  1  0
  6  7  2  0
  7  8  1  0
  8  9  1  0
  8 10  2  0
 10 11  1  0
 11 12  2  0
 12 13  1  0
 13 14  1  0
 14 15  1  0
 15 16  1  0
 16 17  1  0
 17 18  1  0
 18 19  2  0
 19 20  1  0
 20 21  1  0
 20 22  2  0
 22 23  1  0
 23 24  1  0
 23 25  2  0
 25 26  1  0
 16 27  1  0
 27 28  1  0
 12  6  1  0
 28 13  1  0
 25 18  1  0
  1 29  1  0
  1 30  1  0
  1 31  1  0
  2 32  1  0
  2 33  1  0
  4 34  1  0
  4 35  1  0
  5 36  1  0
  5 37  1  0
  5 38  1  0
  7 39  1  0
  9 40  1  0
 10 41  1  0
 11 42  1  0
 14 43  1  0
 14 44  1  0
 15 45  1  0
 15 46  1  0
 17 47  1  0
 17 48  1  0
 19 49  1  0
 21 50  1  0
 21 51  1  0
 21 52  1  0
 22 53  1  0
 24 54  1  0
 24 55  1  0
 24 56  1  0
 27 57  1  0
 27 58  1  0
 28 59  1  0
 28 60  1  0
M  CHG  1  26  -1
M  END
>  <UniqueID>  (36) 
35

>  <SMILES>  (36) 
CCN(CC)c1cc(O)ccc1N1CCN(Cc2cc(C)cc(C)c2[O-])CC1

>  <Energy>  (36) 
69.41106895805602

>  <Genealogy>  (36) 
CCN(CC)c1cc(O)ccc1N1CCN(Cc2cc(C)cc(C)c2[O-])CC1 (protonated)
CCN(CC)c1cc(O)ccc1N1CCN(Cc2cc(C)cc(C)c2[O-])CC1 (3D coordinates assigned)
CCN(CC)c1cc(O)ccc1N1CCN(Cc2cc(C)cc(C)c2[O-])CC1 (nonaromatic ring conformer: 69.41106895805602 kcal/mol)

>  <smiles>  (36) 
CCN(CC)c1cc(O)ccc1N1CCN(Cc2cc(C)cc(C)c2O)CC1

>  <score_type>  (36) 
oracle

>  <origin>  (36) 
adg

>  <m_score__min__energy>  (36) 
-10.699999999999999

>  <m_primary>  (36) 
energy

$$$$
36:0
     RDKit          3D

 43 45  0  0  1  0  0  0  0  0999 V2000
   59.0450   32.3700   49.7710 C   0  0  0  0  0  0  0  0  0  0  0  0
   58.0540   32.3830   48.7450 O   0  0  0  0  0  0  0  0  0  0  0  0
   58.3030   33.0380   47.5500 C   0  0  0  0  0  0  0  0  0  0  0  0
   59.1620   34.0920   47.5800 N   0  0  0  0  0  0  0  0  0  0  0  0
   59.4740   34.7980   46.4800 C   0  0  0  0  0  0  0  0  0  0  0  0
   58.8770   34.4010   45.2990 C   0  0  0  0  0  0  0  0  0  0  0  0
   58.0100   33.3350   45.2790 C   0  0  0  0  0  0  0  0  0  0  0  0
   57.4920   33.0290   44.1230 N   0  0  0  0  0  0  0  0  0  0  0  0
   57.3540   31.6590   43.7490 C   0  0  0  0  0  0  0  0  0  0  0  0
   57.8720   31.2970   42.6610 O   0  0  0  0  0  0  0  0  0  0  0  0
   56.6500   30.7880   44.6180 N   0  0  0  0  0  0  0  0  0  0  0  0
   57.3360   29.8840   45.2480 C   0  0  0  0  0  0  0  0  0  0  0  0
   57.8550   29.8660   46.4720 N   0  0  0  0  0  0  0  0  0  0  0  0
   58.5170   28.8480   46.9140 C   0  0  0  0  0  0  0  0  0  0  0  0
   58.6630   27.7640   46.0440 C   0  0  0  0  0  0  0  0  0  0  0  0
   59.5010   26.1560   46.2290 S   0  0  0  0  0  0  0  0  0  0  0  0
   58.5970   24.8070   45.5890 C   0  0  0  0  0  0  0  0  0  0  0  0
   59.2970   23.6720   45.2710 N   0  0  0  0  0  0  0  0  0  0  0  0
   58.7300   22.5880   44.7600 C   0  0  0  0  0  0  0  0  0  0  0  0
   57.3870   22.5180   44.5070 C   0  0  0  0  0  0  0  0  0  0  0  0
   56.8080   21.2670   43.9290 C   0  0  0  0  0  0  0  0  0  0  0  0
   55.8950   21.6180   42.9150 O   0  0  0  0  0  0  0  0  0  0  0  0
   56.6250   23.6230   44.8030 C   0  0  0  0  0  0  0  0  0  0  0  0
   55.3830   23.6030   44.5880 O   0  0  0  0  0  0  0  0  0  0  0  0
   57.2490   24.7560   45.3440 C   0  0  0  0  0  0  0  0  0  0  0  0
   56.3600   25.8650   45.6510 C   0  0  0  0  0  0  0  0  0  0  0  0
   55.5300   25.6510   46.6010 O   0  0  0  0  0  0  0  0  0  0  0  0
   57.7720   28.3140   44.5220 S   0  0  0  0  0  0  0  0  0  0  0  0
   57.7230   32.6520   46.4050 N   0  0  0  0  0  0  0  0  0  0  0  0
   58.5539   32.3764   50.7552 H   0  0  0  0  0  0  0  0  0  0  0  0
   59.6609   31.4637   49.6745 H   0  0  0  0  0  0  0  0  0  0  0  0
   59.6844   33.2598   49.6745 H   0  0  0  0  0  0  0  0  0  0  0  0
   60.1697   35.6492   46.5180 H   0  0  0  0  0  0  0  0  0  0  0  0
   59.0974   34.9425   44.3673 H   0  0  0  0  0  0  0  0  0  0  0  0
   57.7020   30.7470   47.0980 H   0  0  0  0  0  0  0  0  0  0  0  0
   58.9453   28.8352   47.9271 H   0  0  0  0  0  0  0  0  0  0  0  0
   60.3480   23.6340   45.4330 H   0  0  0  0  0  0  0  0  0  0  0  0
   59.3602   21.7158   44.5318 H   0  0  0  0  0  0  0  0  0  0  0  0
   57.6126   20.6485   43.5047 H   0  0  0  0  0  0  0  0  0  0  0  0
   56.2934   20.6945   44.7147 H   0  0  0  0  0  0  0  0  0  0  0  0
   55.1470   22.1460   43.2930 H   0  0  0  0  0  0  0  0  0  0  0  0
   56.3983   26.8195   45.1056 H   0  0  0  0  0  0  0  0  0  0  0  0
   57.0550   31.8370   46.3710 H   0  0  0  0  0  0  0  0  0  0  0  0
  1  2  1  0
  2  3  1  0
  3  4  2  0
  4  5  1  0
  5  6  2  0
  6  7  1  0
  7  8  2  0
  8  9  1  0
  9 10  2  0
  9 11  1  0
 11 12  2  0
 12 13  1  0
 13 14  1  0
 14 15  2  0
 15 16  1  0
 16 17  1  0
 17 18  1  0
 18 19  1  0
 19 20  2  0
 20 21  1  0
 21 22  1  0
 20 23  1  0
 23 24  2  0
 23 25  1  0
 25 26  1  0
 26 27  2  0
 15 28  1  0
  7 29  1  0
 29  3  1  0
 28 12  1  0
 25 17  2  0
  1 30  1  0
  1 31  1  0
  1 32  1  0
  5 33  1  0
  6 34  1  0
 13 35  1  0
 14 36  1  0
 18 37  1  0
 19 38  1  0
 21 39  1  0
 21 40  1  0
 22 41  1  0
 26 42  1  0
 29 43  1  0
M  END
>  <smiles>  (37) 
COc1nccc(=NC(=O)N=c2[nH]cc(Sc3[nH]cc(CO)c(=O)c3C=O)s2)[nH]1

>  <score_type>  (37) 
oracle

>  <origin>  (37) 
adg

>  <m_score__min__energy>  (37) 
-8.5399999999999991

>  <m_primary>  (37) 
energy

$$$$
37:0
     RDKit          3D

 35 37  0  0  0  0  0  0  0  0999 V2000
   56.2460   30.0960   45.6790 H   0  0  0  0  0  0  0  0  0  0  0  0
   55.7510   29.3310   45.2350 O   0  0  0  0  0  0  0  0  0  0  0  0
   56.2670   28.0380   45.2570 C   0  0  0  0  0  0  0  0  0  0  0  0
   55.5300   27.0280   45.7940 N   0  0  0  0  0  0  0  0  0  0  0  0
   55.9920   25.7510   45.8500 C   0  0  0  0  0  0  0  0  0  0  0  0
   55.2790   24.8550   46.3740 O   0  0  0  0  0  0  0  0  0  0  0  0
   57.2530   25.4400   45.3280 C   0  0  0  0  0  0  0  0  0  0  0  0
   57.9420   23.6560   45.3980 Br  0  0  0  0  0  0  0  0  0  0  0  0
   58.0190   26.4550   44.7510 C   0  0  0  0  0  0  0  0  0  0  0  0
   58.9943   26.2179   44.3008 H   0  0  0  0  0  0  0  0  0  0  0  0
   57.5480   27.7760   44.7440 C   0  0  0  0  0  0  0  0  0  0  0  0
   58.3490   28.8660   44.1460 C   0  0  0  0  0  0  0  0  0  0  0  0
   59.0844   28.5856   43.3775 H   0  0  0  0  0  0  0  0  0  0  0  0
   58.2560   30.1730   44.4610 C   0  0  0  0  0  0  0  0  0  0  0  0
   57.5690   31.3580   43.1270 Br  0  0  0  0  0  0  0  0  0  0  0  0
   58.5820   30.7740   45.7750 C   0  0  0  0  0  0  0  0  0  0  0  0
   59.5439   30.5330   46.2511 H   0  0  0  0  0  0  0  0  0  0  0  0
   57.7620   31.5770   46.3780 N   0  0  0  0  0  0  0  0  0  0  0  0
   58.1220   32.8080   46.9580 N   0  0  0  0  0  0  0  0  0  0  0  0
   58.8400   32.9480   48.0900 C   0  0  0  0  0  0  0  0  0  0  0  0
   59.1890   31.8510   49.0180 C   0  0  0  0  0  0  0  0  0  0  0  0
   60.1590   30.8940   48.6740 C   0  0  0  0  0  0  0  0  0  0  0  0
   60.6590   30.9490   47.6957 H   0  0  0  0  0  0  0  0  0  0  0  0
   60.4920   29.8720   49.5690 C   0  0  0  0  0  0  0  0  0  0  0  0
   61.2504   29.1250   49.2917 H   0  0  0  0  0  0  0  0  0  0  0  0
   59.8630   29.7980   50.8150 C   0  0  0  0  0  0  0  0  0  0  0  0
   60.3410   28.4200   52.0460 Br  0  0  0  0  0  0  0  0  0  0  0  0
   58.8860   30.7370   51.1580 C   0  0  0  0  0  0  0  0  0  0  0  0
   58.3850   30.6751   52.1353 H   0  0  0  0  0  0  0  0  0  0  0  0
   58.5440   31.7540   50.2630 C   0  0  0  0  0  0  0  0  0  0  0  0
   57.7658   32.4826   50.5342 H   0  0  0  0  0  0  0  0  0  0  0  0
   59.2870   34.2130   48.2290 N   0  0  0  0  0  0  0  0  0  0  0  0
   58.8740   34.8930   47.1680 N   0  0  0  0  0  0  0  0  0  0  0  0
   58.1800   34.0370   46.3960 C   0  0  0  0  0  0  0  0  0  0  0  0
   57.6920   34.4220   44.8810 S   0  0  0  0  0  0  0  0  0  0  0  0
  1  2  1  0
  2  3  1  0
  3  4  1  0
  4  5  1  0
  5  6  2  0
  5  7  1  0
  7  8  1  0
  7  9  2  0
  9 10  1  0
  9 11  1  0
 11 12  1  0
 12 13  1  0
 12 14  2  0
 14 15  1  0
 14 16  1  0
 16 17  1  0
 16 18  2  0
 18 19  1  0
 19 20  1  0
 20 21  1  0
 21 22  2  0
 22 23  1  0
 22 24  1  0
 24 25  1  0
 24 26  2  0
 26 27  1  0
 26 28  1  0
 28 29  1  0
 28 30  2  0
 30 31  1  0
 20 32  2  0
 32 33  1  0
 33 34  1  0
 34 35  2  0
 11  3  2  0
 34 19  1  0
 30 21  1  0
M  CHG  2   4  -1  33  -1
M  END
>  <UniqueID>  (38) 
36

>  <SMILES>  (38) 
O=c1[n-]c(O)c(/C=C(Br)\C=N\n2c(-c3ccc(Br)cc3)n[n-]c2=S)cc1Br

>  <Energy>  (38) 
87.32595447054352

>  <Genealogy>  (38) 
O=c1[n-]c(O)c(C=C(Br)C=Nn2c(-c3ccc(Br)cc3)n[n-]c2=S)cc1Br (protonated)
O=c1[n-]c(O)c(/C=C(Br)\C=N\n2c(-c3ccc(Br)cc3)n[n-]c2=S)cc1Br (cis-trans isomerization)
O=c1[n-]c(O)c(/C=C(Br)\C=N\n2c(-c3ccc(Br)cc3)n[n-]c2=S)cc1Br (3D coordinates assigned)
O=c1[n-]c(O)c(/C=C(Br)\C=N\n2c(-c3ccc(Br)cc3)n[n-]c2=S)cc1Br (optimized conformer: 87.32595447054352 kcal/mol)

>  <smiles>  (38) 
O=c1[nH]c(O)c(C=C(Br)C=Nn2c(-c3ccc(Br)cc3)n[nH]c2=S)cc1Br

>  <score_type>  (38) 
oracle

>  <origin>  (38) 
adg

>  <m_score__min__energy>  (38) 
-12.94

>  <m_primary>  (38) 
energy

$$$$
38:0
     RDKit          3D

 51 54  0  0  0  0  0  0  0  0999 V2000
   64.8620   32.2250   49.0950 N   0  0  0  0  0  0  0  0  0  0  0  0
   64.9380   33.1700   50.1710 C   0  0  0  0  0  0  0  0  0  0  0  0
   66.1760   33.4140   50.7830 C   0  0  0  0  0  0  0  0  0  0  0  0
   66.2680   34.2760   51.8810 C   0  0  0  0  0  0  0  0  0  0  0  0
   65.1200   34.8940   52.3810 C   0  0  0  0  0  0  0  0  0  0  0  0
   63.8810   34.6660   51.7750 C   0  0  0  0  0  0  0  0  0  0  0  0
   63.7820   33.8280   50.6560 C   0  0  0  0  0  0  0  0  0  0  0  0
   62.5000   33.6560   50.0310 N   0  0  0  0  0  0  0  0  0  0  0  0
   62.3080   33.8380   48.6170 C   0  0  0  0  0  0  0  0  0  0  0  0
   63.3090   34.0350   47.8740 O   0  0  0  0  0  0  0  0  0  0  0  0
   60.9560   33.7910   48.0060 C   0  0  0  0  0  0  0  0  0  0  0  0
   59.9810   32.9280   48.5340 C   0  0  0  0  0  0  0  0  0  0  0  0
   58.7060   32.8590   47.9640 C   0  0  0  0  0  0  0  0  0  0  0  0
   58.3830   33.6520   46.8540 C   0  0  0  0  0  0  0  0  0  0  0  0
   57.0210   33.5400   46.2230 C   0  0  0  0  0  0  0  0  0  0  0  0
   56.9870   32.4000   45.3120 N   0  0  0  0  0  0  0  0  0  0  0  0
   57.7240   32.3490   44.0850 C   0  0  0  0  0  0  0  0  0  0  0  0
   58.4800   33.3040   43.7550 O   0  0  0  0  0  0  0  0  0  0  0  0
   57.6460   31.1310   43.2160 C   0  0  0  0  0  0  0  0  0  0  0  0
   57.3800   29.8990   44.0360 C   0  0  0  0  0  0  0  0  0  0  0  0
   58.4260   29.1080   44.4020 N   0  0  0  0  0  0  0  0  0  0  0  0
   58.2440   27.9990   45.1690 C   0  0  0  0  0  0  0  0  0  0  0  0
   59.3330   27.1980   45.5330 C   0  0  0  0  0  0  0  0  0  0  0  0
   59.1250   26.0620   46.3260 C   0  0  0  0  0  0  0  0  0  0  0  0
   57.8330   25.7280   46.7550 C   0  0  0  0  0  0  0  0  0  0  0  0
   56.7420   26.5270   46.3930 C   0  0  0  0  0  0  0  0  0  0  0  0
   56.9440   27.6630   45.6000 C   0  0  0  0  0  0  0  0  0  0  0  0
   55.9000   28.4570   45.2460 N   0  0  0  0  0  0  0  0  0  0  0  0
   56.0840   29.5670   44.4810 C   0  0  0  0  0  0  0  0  0  0  0  0
   55.0930   30.2860   44.1820 O   0  0  0  0  0  0  0  0  0  0  0  0
   59.3570   34.5010   46.3100 C   0  0  0  0  0  0  0  0  0  0  0  0
   60.6330   34.5700   46.8790 C   0  0  0  0  0  0  0  0  0  0  0  0
   64.8450   32.5300   48.0960 H   0  0  0  0  0  0  0  0  0  0  0  0
   64.7770   31.2030   49.2910 H   0  0  0  0  0  0  0  0  0  0  0  0
   67.0818   32.9238   50.3967 H   0  0  0  0  0  0  0  0  0  0  0  0
   67.2444   34.4669   52.3503 H   0  0  0  0  0  0  0  0  0  0  0  0
   65.1907   35.5611   53.2528 H   0  0  0  0  0  0  0  0  0  0  0  0
   62.9782   35.1473   52.1790 H   0  0  0  0  0  0  0  0  0  0  0  0
   61.6760   33.5320   50.6600 H   0  0  0  0  0  0  0  0  0  0  0  0
   60.2231   32.3004   49.4044 H   0  0  0  0  0  0  0  0  0  0  0  0
   57.9527   32.1791   48.3887 H   0  0  0  0  0  0  0  0  0  0  0  0
   56.2650   33.4007   47.0098 H   0  0  0  0  0  0  0  0  0  0  0  0
   56.8065   34.4600   45.6595 H   0  0  0  0  0  0  0  0  0  0  0  0
   56.8321   31.2606   42.4875 H   0  0  0  0  0  0  0  0  0  0  0  0
   58.6095   31.0068   42.7001 H   0  0  0  0  0  0  0  0  0  0  0  0
   60.3475   27.4595   45.1978 H   0  0  0  0  0  0  0  0  0  0  0  0
   59.9784   25.4300   46.6130 H   0  0  0  0  0  0  0  0  0  0  0  0
   57.6759   24.8352   47.3781 H   0  0  0  0  0  0  0  0  0  0  0  0
   55.7289   26.2630   46.7306 H   0  0  0  0  0  0  0  0  0  0  0  0
   59.1164   35.1165   45.4306 H   0  0  0  0  0  0  0  0  0  0  0  0
   61.3899   35.2382   46.4423 H   0  0  0  0  0  0  0  0  0  0  0  0
  1  2  1  0
  2  3  2  0
  3  4  1  0
  4  5  2  0
  5  6  1  0
  6  7  2  0
  7  8  1  0
  8  9  1  0
  9 10  2  0
  9 11  1  0
 11 12  2  0
 12 13  1  0
 13 14  2  0
 14 15  1  0
 15 16  1  0
 16 17  1  0
 17 18  2  0
 17 19  1  0
 19 20  1  0
 20 21  2  0
 21 22  1  0
 22 23  2  0
 23 24  1  0
 24 25  2  0
 25 26  1  0
 26 27  2  0
 27 28  1  0
 28 29  1  0
 29 30  2  0
 14 31  1  0
 31 32  2  0
  7  2  1  0
 32 11  1  0
 29 20  1  0
 27 22  1  0
  1 33  1  0
  1 34  1  0
  3 35  1  0
  4 36  1  0
  5 37  1  0
  6 38  1  0
  8 39  1  0
 12 40  1  0
 13 41  1  0
 15 42  1  0
 15 43  1  0
 19 44  1  0
 19 45  1  0
 23 46  1  0
 24 47  1  0
 25 48  1  0
 26 49  1  0
 31 50  1  0
 32 51  1  0
M  CHG  2  16  -1  28  -1
M  END
>  <UniqueID>  (39) 
37

>  <SMILES>  (39) 
Nc1ccccc1NC(=O)c1ccc(C[N-]C(=O)Cc2nc3ccccc3[n-]c2=O)cc1

>  <Energy>  (39) 
65.27176888178589

>  <Genealogy>  (39) 
Nc1ccccc1NC(=O)c1ccc(C[N-]C(=O)Cc2nc3ccccc3[n-]c2=O)cc1 (protonated)
Nc1ccccc1NC(=O)c1ccc(C[N-]C(=O)Cc2nc3ccccc3[n-]c2=O)cc1 (3D coordinates assigned)
Nc1ccccc1NC(=O)c1ccc(C[N-]C(=O)Cc2nc3ccccc3[n-]c2=O)cc1 (optimized conformer: 65.27176888178589 kcal/mol)

>  <smiles>  (39) 
Nc1ccccc1NC(=O)c1ccc(CNC(=O)Cc2nc3ccccc3[nH]c2=O)cc1

>  <score_type>  (39) 
oracle

>  <origin>  (39) 
adg

>  <m_score__min__energy>  (39) 
-12.300000000000001

>  <m_primary>  (39) 
energy

$$$$
39:0
     RDKit          3D

 47 50  0  0  0  0  0  0  0  0999 V2000
   55.7780   24.1870   44.3770 C   0  0  0  0  0  0  0  0  0  0  0  0
   55.1330   25.1050   45.7370 S   0  0  0  0  0  0  0  0  0  0  0  0
   55.5760   24.5040   47.0380 O   0  0  0  0  0  0  0  0  0  0  0  0
   53.6440   25.1780   45.6060 O   0  0  0  0  0  0  0  0  0  0  0  0
   55.7640   26.7060   45.6610 N   0  0  0  0  0  0  0  0  0  0  0  0
   57.1350   26.9340   46.0020 C   0  0  0  0  0  0  0  0  0  0  0  0
   57.7940   25.9180   46.3420 O   0  0  0  0  0  0  0  0  0  0  0  0
   57.7300   28.2630   45.9580 C   0  0  0  0  0  0  0  0  0  0  0  0
   57.2750   29.2900   45.1810 C   0  0  0  0  0  0  0  0  0  0  0  0
   57.8560   30.5500   45.1540 C   0  0  0  0  0  0  0  0  0  0  0  0
   57.2830   31.5680   44.2470 C   0  0  0  0  0  0  0  0  0  0  0  0
   57.0050   30.9950   42.8290 C   0  0  0  0  0  0  0  0  0  0  0  0
   57.9600   32.1000   43.0680 C   0  0  0  0  0  0  0  0  0  0  0  0
   58.9460   30.7440   45.9630 C   0  0  0  0  0  0  0  0  0  0  0  0
   59.7240   31.8110   46.1850 N   0  0  0  0  0  0  0  0  0  0  0  0
   60.6680   31.4950   47.0820 C   0  0  0  0  0  0  0  0  0  0  0  0
   61.7180   32.4130   47.5860 C   0  0  0  0  0  0  0  0  0  0  0  0
   62.0460   33.4680   46.5300 C   0  0  0  0  0  0  0  0  0  0  0  0
   63.3530   34.1530   46.8320 C   0  0  0  0  0  0  0  0  0  0  0  0
   63.7660   33.9750   48.2140 N   0  0  0  0  0  0  0  0  0  0  0  0
   63.9490   32.5920   48.5810 C   0  0  0  0  0  0  0  0  0  0  0  0
   62.9930   31.6660   47.9000 C   0  0  0  0  0  0  0  0  0  0  0  0
   60.4990   30.1970   47.4510 N   0  0  0  0  0  0  0  0  0  0  0  0
   59.4410   29.7360   46.7640 C   0  0  0  0  0  0  0  0  0  0  0  0
   58.8290   28.5030   46.7550 C   0  0  0  0  0  0  0  0  0  0  0  0
   56.3721   23.3415   44.7541 H   0  0  0  0  0  0  0  0  0  0  0  0
   54.9473   23.8070   43.7642 H   0  0  0  0  0  0  0  0  0  0  0  0
   56.4171   24.8397   43.7642 H   0  0  0  0  0  0  0  0  0  0  0  0
   55.1440   27.4840   45.3680 H   0  0  0  0  0  0  0  0  0  0  0  0
   56.3991   29.1082   44.5409 H   0  0  0  0  0  0  0  0  0  0  0  0
   56.7793   32.0868   45.0759 H   0  0  0  0  0  0  0  0  0  0  0  0
   57.3688   29.9947   42.5514 H   0  0  0  0  0  0  0  0  0  0  0  0
   56.1179   30.8368   42.1981 H   0  0  0  0  0  0  0  0  0  0  0  0
   59.0372   31.9192   42.9375 H   0  0  0  0  0  0  0  0  0  0  0  0
   58.0630   33.1120   42.6495 H   0  0  0  0  0  0  0  0  0  0  0  0
   59.6330   32.7410   45.7570 H   0  0  0  0  0  0  0  0  0  0  0  0
   61.3283   32.8834   48.5008 H   0  0  0  0  0  0  0  0  0  0  0  0
   62.1150   32.9813   45.5459 H   0  0  0  0  0  0  0  0  0  0  0  0
   61.2474   34.2244   46.5335 H   0  0  0  0  0  0  0  0  0  0  0  0
   64.1303   33.7362   46.1746 H   0  0  0  0  0  0  0  0  0  0  0  0
   63.2143   35.2305   46.6598 H   0  0  0  0  0  0  0  0  0  0  0  0
   64.6300   34.5410   48.3350 H   0  0  0  0  0  0  0  0  0  0  0  0
   64.9736   32.2931   48.3147 H   0  0  0  0  0  0  0  0  0  0  0  0
   63.7615   32.5152   49.6622 H   0  0  0  0  0  0  0  0  0  0  0  0
   63.4416   31.2949   46.9667 H   0  0  0  0  0  0  0  0  0  0  0  0
   62.7700   30.8141   48.5592 H   0  0  0  0  0  0  0  0  0  0  0  0
   59.2224   27.6978   47.3928 H   0  0  0  0  0  0  0  0  0  0  0  0
  1  2  1  0
  2  3  2  0
  2  4  2  0
  2  5  1  0
  5  6  1  0
  6  7  2  0
  6  8  1  0
  8  9  2  0
  9 10  1  0
 10 11  1  0
 11 12  1  0
 12 13  1  0
 10 14  2  0
 14 15  1  0
 15 16  1  0
 16 17  1  0
 17 18  1  0
 18 19  1  0
 19 20  1  0
 20 21  1  0
 21 22  1  0
 16 23  2  0
 23 24  1  0
 24 25  2  0
 25  8  1  0
 13 11  1  0
 24 14  1  0
 22 17  1  0
  1 26  1  0
  1 27  1  0
  1 28  1  0
  5 29  1  0
  9 30  1  0
 11 31  1  0
 12 32  1  0
 12 33  1  0
 13 34  1  0
 13 35  1  0
 15 36  1  0
 17 37  1  0
 18 38  1  0
 18 39  1  0
 19 40  1  0
 19 41  1  0
 20 42  1  0
 21 43  1  0
 21 44  1  0
 22 45  1  0
 22 46  1  0
 25 47  1  0
M  END
>  <smiles>  (40) 
CS(=O)(=O)NC(=O)c1cc(C2CC2)c2[nH]c(C3CCNCC3)nc2c1

>  <score_type>  (40) 
oracle

>  <origin>  (40) 
adg

>  <m_score__min__energy>  (40) 
-8.7200000000000006

>  <m_primary>  (40) 
energy

$$$$
40:0
     RDKit          3D

 50 52  0  0  0  0  0  0  0  0999 V2000
   60.3930   26.8970   48.5350 C   0  0  0  0  0  0  0  0  0  0  0  0
   60.7100   27.2080   49.9680 C   0  0  0  0  0  0  0  0  0  0  0  0
   61.2340   26.3170   50.6850 O   0  0  0  0  0  0  0  0  0  0  0  0
   60.3990   28.4800   50.5560 N   0  0  0  0  0  0  0  0  0  0  0  0
   60.6680   29.7610   49.9730 C   0  0  0  0  0  0  0  0  0  0  0  0
   61.9850   30.2250   49.8150 C   0  0  0  0  0  0  0  0  0  0  0  0
   62.2240   31.4850   49.2620 C   0  0  0  0  0  0  0  0  0  0  0  0
   61.1520   32.2970   48.8620 C   0  0  0  0  0  0  0  0  0  0  0  0
   61.4540   33.8410   48.0680 S   0  0  0  0  0  0  0  0  0  0  0  0
   60.6370   34.9110   48.7370 O   0  0  0  0  0  0  0  0  0  0  0  0
   62.9040   34.2250   48.1770 O   0  0  0  0  0  0  0  0  0  0  0  0
   60.9770   33.7320   46.4010 N   0  0  0  0  0  0  0  0  0  0  0  0
   59.6380   33.4950   45.9470 C   0  0  0  0  0  0  0  0  0  0  0  0
   58.9070   34.5690   45.4230 C   0  0  0  0  0  0  0  0  0  0  0  0
   57.5970   34.3820   44.9750 C   0  0  0  0  0  0  0  0  0  0  0  0
   57.0080   33.1160   45.0380 C   0  0  0  0  0  0  0  0  0  0  0  0
   57.7220   32.0340   45.5740 C   0  0  0  0  0  0  0  0  0  0  0  0
   57.1740   30.7110   45.6000 N   0  0  0  0  0  0  0  0  0  0  0  0
   57.8510   29.5250   46.0350 C   0  0  0  0  0  0  0  0  0  0  0  0
   58.0630   29.3170   47.2600 O   0  0  0  0  0  0  0  0  0  0  0  0
   58.4250   28.5900   45.0150 C   0  0  0  0  0  0  0  0  0  0  0  0
   57.3880   27.5590   44.5460 C   0  0  0  0  0  0  0  0  0  0  0  0
   57.3510   26.3830   45.4360 N   0  0  0  0  0  0  0  0  0  0  0  0
   58.4890   25.6450   45.6050 C   0  0  0  0  0  0  0  0  0  0  0  0
   58.5010   24.5420   46.4570 C   0  0  0  0  0  0  0  0  0  0  0  0
   57.3260   24.2010   47.1180 C   0  0  0  0  0  0  0  0  0  0  0  0
   57.2950   23.2080   47.8930 O   0  0  0  0  0  0  0  0  0  0  0  0
   56.2120   24.9490   46.9390 N   0  0  0  0  0  0  0  0  0  0  0  0
   56.2140   26.0380   46.1220 C   0  0  0  0  0  0  0  0  0  0  0  0
   55.1590   26.7170   46.0070 O   0  0  0  0  0  0  0  0  0  0  0  0
   59.0450   32.2250   46.0000 C   0  0  0  0  0  0  0  0  0  0  0  0
   59.8370   31.8500   49.0530 C   0  0  0  0  0  0  0  0  0  0  0  0
   59.5970   30.5940   49.6230 C   0  0  0  0  0  0  0  0  0  0  0  0
   59.6084   26.1272   48.4918 H   0  0  0  0  0  0  0  0  0  0  0  0
   60.0401   27.8090   48.0313 H   0  0  0  0  0  0  0  0  0  0  0  0
   61.2981   26.5267   48.0313 H   0  0  0  0  0  0  0  0  0  0  0  0
   62.8300   29.5940   50.1277 H   0  0  0  0  0  0  0  0  0  0  0  0
   63.2571   31.8423   49.1395 H   0  0  0  0  0  0  0  0  0  0  0  0
   59.3675   35.5662   45.3639 H   0  0  0  0  0  0  0  0  0  0  0  0
   57.0280   35.2327   44.5719 H   0  0  0  0  0  0  0  0  0  0  0  0
   55.9832   32.9679   44.6668 H   0  0  0  0  0  0  0  0  0  0  0  0
   58.7656   29.1739   44.1472 H   0  0  0  0  0  0  0  0  0  0  0  0
   59.2633   28.0486   45.4778 H   0  0  0  0  0  0  0  0  0  0  0  0
   56.3944   28.0309   44.5364 H   0  0  0  0  0  0  0  0  0  0  0  0
   57.6712   27.2196   43.5387 H   0  0  0  0  0  0  0  0  0  0  0  0
   59.4046   25.9244   45.0631 H   0  0  0  0  0  0  0  0  0  0  0  0
   59.4193   23.9544   46.6033 H   0  0  0  0  0  0  0  0  0  0  0  0
   59.6233   31.3698   46.3796 H   0  0  0  0  0  0  0  0  0  0  0  0
   58.9919   32.4876   48.7543 H   0  0  0  0  0  0  0  0  0  0  0  0
   58.5635   30.2597   49.7968 H   0  0  0  0  0  0  0  0  0  0  0  0
  1  2  1  0
  2  3  2  0
  2  4  1  0
  4  5  1  0
  5  6  2  0
  6  7  1  0
  7  8  2  0
  8  9  1  0
  9 10  2  0
  9 11  2  0
  9 12  1  0
 12 13  1  0
 13 14  2  0
 14 15  1  0
 15 16  2  0
 16 17  1  0
 17 18  1  0
 18 19  1  0
 19 20  2  0
 19 21  1  0
 21 22  1  0
 22 23  1  0
 23 24  1  0
 24 25  2  0
 25 26  1  0
 26 27  2  0
 26 28  1  0
 28 29  1  0
 29 30  2  0
 17 31  2  0
  8 32  1  0
 32 33  2  0
 33  5  1  0
 31 13  1  0
 29 23  1  0
  1 34  1  0
  1 35  1  0
  1 36  1  0
  6 37  1  0
  7 38  1  0
 14 39  1  0
 15 40  1  0
 16 41  1  0
 21 42  1  0
 21 43  1  0
 22 44  1  0
 22 45  1  0
 24 46  1  0
 25 47  1  0
 31 48  1  0
 32 49  1  0
 33 50  1  0
M  CHG  4   4  -1  12  -1  18  -1  28  -1
M  END
>  <UniqueID>  (41) 
38

>  <SMILES>  (41) 
CC(=O)[N-]c1ccc(S(=O)(=O)[N-]c2cccc([N-]C(=O)CCn3ccc(=O)[n-]c3=O)c2)cc1

>  <Energy>  (41) 
60.51932037023371

>  <Genealogy>  (41) 
CC(=O)[N-]c1ccc(S(=O)(=O)[N-]c2cccc([N-]C(=O)CCn3ccc(=O)[n-]c3=O)c2)cc1 (protonated)
CC(=O)[N-]c1ccc(S(=O)(=O)[N-]c2cccc([N-]C(=O)CCn3ccc(=O)[n-]c3=O)c2)cc1 (3D coordinates assigned)
CC(=O)[N-]c1ccc(S(=O)(=O)[N-]c2cccc([N-]C(=O)CCn3ccc(=O)[n-]c3=O)c2)cc1 (optimized conformer: 60.51932037023371 kcal/mol)

>  <smiles>  (41) 
CC(=O)Nc1ccc(S(=O)(=O)Nc2cccc(NC(=O)CCn3ccc(=O)[nH]c3=O)c2)cc1

>  <score_type>  (41) 
oracle

>  <origin>  (41) 
adg

>  <m_score__min__energy>  (41) 
-14.06

>  <m_primary>  (41) 
energy

$$$$
41:0
     RDKit          3D

 60 63  0  0  0  0  0  0  0  0999 V2000
   54.3170   25.0790   45.5520 C   0  0  0  0  0  0  0  0  0  0  0  0
   54.9270   26.3310   45.9760 N   0  0  0  0  0  0  0  0  0  0  0  0
   56.3180   26.4460   46.2910 C   0  0  0  0  0  0  0  0  0  0  0  0
   56.8500   25.6370   47.0980 O   0  0  0  0  0  0  0  0  0  0  0  0
   57.1230   27.5050   45.6560 C   0  0  0  0  0  0  0  0  0  0  0  0
   56.6180   28.8060   45.4890 C   0  0  0  0  0  0  0  0  0  0  0  0
   57.4250   29.7950   44.9030 C   0  0  0  0  0  0  0  0  0  0  0  0
   56.9710   31.1080   44.7060 O   0  0  0  0  0  0  0  0  0  0  0  0
   57.6290   32.2710   45.1410 C   0  0  0  0  0  0  0  0  0  0  0  0
   57.5630   33.4750   44.4200 C   0  0  0  0  0  0  0  0  0  0  0  0
   58.2360   34.6070   44.8820 C   0  0  0  0  0  0  0  0  0  0  0  0
   58.9650   34.5540   46.0730 C   0  0  0  0  0  0  0  0  0  0  0  0
   59.0030   33.3730   46.8280 C   0  0  0  0  0  0  0  0  0  0  0  0
   59.7680   33.3350   48.0440 N   0  0  0  0  0  0  0  0  0  0  0  0
   61.1350   32.8990   48.1080 C   0  0  0  0  0  0  0  0  0  0  0  0
   61.6010   32.1600   47.1990 O   0  0  0  0  0  0  0  0  0  0  0  0
   61.9900   33.2520   49.2660 C   0  0  0  0  0  0  0  0  0  0  0  0
   63.3700   33.0190   49.2060 C   0  0  0  0  0  0  0  0  0  0  0  0
   64.2070   33.3490   50.2840 C   0  0  0  0  0  0  0  0  0  0  0  0
   65.6890   33.0540   50.1650 C   0  0  0  0  0  0  0  0  0  0  0  0
   65.9480   31.6090   50.3550 N   0  0  0  0  0  0  0  0  0  0  0  0
   67.3090   31.3390   50.8660 C   0  0  0  0  0  0  0  0  0  0  0  0
   67.4480   31.6640   52.3730 C   0  0  0  0  0  0  0  0  0  0  0  0
   66.2120   31.9850   52.9800 O   0  0  0  0  0  0  0  0  0  0  0  0
   65.2660   30.9780   52.6960 C   0  0  0  0  0  0  0  0  0  0  0  0
   64.9220   30.9490   51.1930 C   0  0  0  0  0  0  0  0  0  0  0  0
   63.6260   33.9310   51.4340 C   0  0  0  0  0  0  0  0  0  0  0  0
   64.4350   34.3160   52.6370 C   0  0  0  0  0  0  0  0  0  0  0  0
   62.2840   34.1580   51.4630 N   0  0  0  0  0  0  0  0  0  0  0  0
   61.4630   33.8440   50.4290 C   0  0  0  0  0  0  0  0  0  0  0  0
   60.2350   34.1130   50.5200 O   0  0  0  0  0  0  0  0  0  0  0  0
   58.3360   32.2310   46.3490 C   0  0  0  0  0  0  0  0  0  0  0  0
   58.7020   29.4540   44.4550 C   0  0  0  0  0  0  0  0  0  0  0  0
   59.1710   28.1510   44.6290 C   0  0  0  0  0  0  0  0  0  0  0  0
   58.3810   27.2170   45.2220 N   0  0  0  0  0  0  0  0  0  0  0  0
   54.0311   24.4921   46.4373 H   0  0  0  0  0  0  0  0  0  0  0  0
   53.4221   25.2928   44.9491 H   0  0  0  0  0  0  0  0  0  0  0  0
   55.0369   24.5060   44.9491 H   0  0  0  0  0  0  0  0  0  0  0  0
   55.5960   29.0484   45.8156 H   0  0  0  0  0  0  0  0  0  0  0  0
   56.9794   33.5256   43.4890 H   0  0  0  0  0  0  0  0  0  0  0  0
   58.1925   35.5437   44.3069 H   0  0  0  0  0  0  0  0  0  0  0  0
   59.5118   35.4432   46.4200 H   0  0  0  0  0  0  0  0  0  0  0  0
   59.2750   33.5340   48.9430 H   0  0  0  0  0  0  0  0  0  0  0  0
   63.8046   32.5706   48.3004 H   0  0  0  0  0  0  0  0  0  0  0  0
   66.0390   33.3561   49.1669 H   0  0  0  0  0  0  0  0  0  0  0  0
   66.2268   33.6165   50.9424 H   0  0  0  0  0  0  0  0  0  0  0  0
   67.5399   30.2747   50.7113 H   0  0  0  0  0  0  0  0  0  0  0  0
   68.0083   31.9868   50.3170 H   0  0  0  0  0  0  0  0  0  0  0  0
   67.8735   30.7876   52.8839 H   0  0  0  0  0  0  0  0  0  0  0  0
   68.1003   32.5451   52.4633 H   0  0  0  0  0  0  0  0  0  0  0  0
   65.6809   30.0022   52.9887 H   0  0  0  0  0  0  0  0  0  0  0  0
   64.3469   31.1920   53.2612 H   0  0  0  0  0  0  0  0  0  0  0  0
   64.8297   29.9003   50.8741 H   0  0  0  0  0  0  0  0  0  0  0  0
   63.9804   31.5017   51.0589 H   0  0  0  0  0  0  0  0  0  0  0  0
   63.8817   34.0527   53.5505 H   0  0  0  0  0  0  0  0  0  0  0  0
   65.3942   33.7778   52.6213 H   0  0  0  0  0  0  0  0  0  0  0  0
   64.6223   35.3998   52.6213 H   0  0  0  0  0  0  0  0  0  0  0  0
   58.3701   31.2971   46.9292 H   0  0  0  0  0  0  0  0  0  0  0  0
   59.3361   30.2088   43.9669 H   0  0  0  0  0  0  0  0  0  0  0  0
   60.1804   27.8797   44.2861 H   0  0  0  0  0  0  0  0  0  0  0  0
  1  2  1  0
  2  3  1  0
  3  4  2  0
  3  5  1  0
  5  6  2  0
  6  7  1  0
  7  8  1  0
  8  9  1  0
  9 10  2  0
 10 11  1  0
 11 12  2  0
 12 13  1  0
 13 14  1  0
 14 15  1  0
 15 16  2  0
 15 17  1  0
 17 18  2  0
 18 19  1  0
 19 20  1  0
 20 21  1  0
 21 22  1  0
 22 23  1  0
 23 24  1  0
 24 25  1  0
 25 26  1  0
 19 27  2  0
 27 28  1  0
 27 29  1  0
 29 30  1  0
 30 31  2  0
 13 32  2  0
  7 33  2  0
 33 34  1  0
 34 35  2  0
 35  5  1  0
 32  9  1  0
 30 17  1  0
 26 21  1  0
  1 36  1  0
  1 37  1  0
  1 38  1  0
  6 39  1  0
 10 40  1  0
 11 41  1  0
 12 42  1  0
 14 43  1  0
 18 44  1  0
 20 45  1  0
 20 46  1  0
 22 47  1  0
 22 48  1  0
 23 49  1  0
 23 50  1  0
 25 51  1  0
 25 52  1  0
 26 53  1  0
 26 54  1  0
 28 55  1  0
 28 56  1  0
 28 57  1  0
 32 58  1  0
 33 59  1  0
 34 60  1  0
M  CHG  2   2  -1  29  -1
M  END
>  <UniqueID>  (42) 
39

>  <SMILES>  (42) 
C[N-]C(=O)c1cc(Oc2cccc(NC(=O)c3cc(CN4CCOCC4)c(C)[n-]c3=O)c2)ccn1

>  <Energy>  (42) 
88.82807393557741

>  <Genealogy>  (42) 
C[N-]C(=O)c1cc(Oc2cccc(NC(=O)c3cc(CN4CCOCC4)c(C)[n-]c3=O)c2)ccn1 (protonated)
C[N-]C(=O)c1cc(Oc2cccc(NC(=O)c3cc(CN4CCOCC4)c(C)[n-]c3=O)c2)ccn1 (3D coordinates assigned)
C[N-]C(=O)c1cc(Oc2cccc(NC(=O)c3cc(CN4CCOCC4)c(C)[n-]c3=O)c2)ccn1 (nonaromatic ring conformer: 88.82807393557741 kcal/mol)

>  <smiles>  (42) 
CNC(=O)c1cc(Oc2cccc(NC(=O)c3cc(CN4CCOCC4)c(C)[nH]c3=O)c2)ccn1

>  <score_type>  (42) 
oracle

>  <origin>  (42) 
adg

>  <m_score__min__energy>  (42) 
-12.550000000000001

>  <m_primary>  (42) 
energy

$$$$
42:0
     RDKit          3D

 71 75  0  0  0  0  0  0  0  0999 V2000
   54.4200   27.0800   46.7750 H   0  0  0  0  0  0  0  0  0  0  0  0
   54.9760   26.3330   46.3000 N   0  0  0  0  0  0  0  0  0  0  0  0
   56.5060   27.0230   45.8900 S   0  0  0  0  0  0  0  0  0  0  0  0
   56.3000   28.4180   45.3740 O   0  0  0  0  0  0  0  0  0  0  0  0
   57.3690   27.0690   47.1200 O   0  0  0  0  0  0  0  0  0  0  0  0
   57.2940   26.0240   44.6380 C   0  0  0  0  0  0  0  0  0  0  0  0
   57.8686   25.2223   45.1250 H   0  0  0  0  0  0  0  0  0  0  0  0
   56.5171   25.5968   43.9869 H   0  0  0  0  0  0  0  0  0  0  0  0
   58.2430   26.8740   43.7800 C   0  0  0  0  0  0  0  0  0  0  0  0
   59.0834   26.2439   43.4536 H   0  0  0  0  0  0  0  0  0  0  0  0
   57.6680   27.2561   42.9236 H   0  0  0  0  0  0  0  0  0  0  0  0
   58.7780   28.0320   44.5120 N   0  0  0  0  0  0  0  0  0  0  0  0
   58.5400   27.9440   45.5280 H   0  0  0  0  0  0  0  0  0  0  0  0
   58.2530   29.3060   44.0050 C   0  0  0  0  0  0  0  0  0  0  0  0
   58.8117   29.6017   43.1048 H   0  0  0  0  0  0  0  0  0  0  0  0
   57.1886   29.1918   43.7518 H   0  0  0  0  0  0  0  0  0  0  0  0
   58.4090   30.3630   45.0630 C   0  0  0  0  0  0  0  0  0  0  0  0
   58.4200   30.0020   46.4180 C   0  0  0  0  0  0  0  0  0  0  0  0
   58.3684   28.9401   46.7002 H   0  0  0  0  0  0  0  0  0  0  0  0
   58.4960   30.9810   47.4130 C   0  0  0  0  0  0  0  0  0  0  0  0
   58.5700   30.5800   48.7880 N   0  0  0  0  0  0  0  0  0  0  0  0
   59.0330   31.2180   49.8320 C   0  0  0  0  0  0  0  0  0  0  0  0
   58.2290   32.2510   50.3340 C   0  0  0  0  0  0  0  0  0  0  0  0
   57.3554   32.5915   49.7588 H   0  0  0  0  0  0  0  0  0  0  0  0
   58.5280   32.8490   51.5550 C   0  0  0  0  0  0  0  0  0  0  0  0
   57.8747   33.6390   51.9539 H   0  0  0  0  0  0  0  0  0  0  0  0
   59.6220   32.4600   52.2530 N   0  0  0  0  0  0  0  0  0  0  0  0
   60.4850   31.5270   51.7750 C   0  0  0  0  0  0  0  0  0  0  0  0
   61.6270   31.2150   52.5210 C   0  0  0  0  0  0  0  0  0  0  0  0
   61.7662   31.6548   53.5196 H   0  0  0  0  0  0  0  0  0  0  0  0
   62.5900   30.3480   52.0030 C   0  0  0  0  0  0  0  0  0  0  0  0
   64.0230   29.9680   52.9390 Cl  0  0  0  0  0  0  0  0  0  0  0  0
   62.4330   29.8250   50.7200 C   0  0  0  0  0  0  0  0  0  0  0  0
   63.2125   29.1752   50.2956 H   0  0  0  0  0  0  0  0  0  0  0  0
   61.2920   30.1210   49.9700 C   0  0  0  0  0  0  0  0  0  0  0  0
   61.2000   29.7342   48.9444 H   0  0  0  0  0  0  0  0  0  0  0  0
   60.2530   30.9130   50.5150 C   0  0  0  0  0  0  0  0  0  0  0  0
   58.6190   32.3310   47.0480 C   0  0  0  0  0  0  0  0  0  0  0  0
   58.7319   33.0993   47.8271 H   0  0  0  0  0  0  0  0  0  0  0  0
   58.5990   32.7070   45.6970 C   0  0  0  0  0  0  0  0  0  0  0  0
   58.6950   34.1560   45.3000 C   0  0  0  0  0  0  0  0  0  0  0  0
   59.3433   34.2466   44.4160 H   0  0  0  0  0  0  0  0  0  0  0  0
   57.6859   34.5291   45.0710 H   0  0  0  0  0  0  0  0  0  0  0  0
   59.2430   34.9330   46.3660 O   0  0  0  0  0  0  0  0  0  0  0  0
   60.3320   34.5560   47.1680 C   0  0  0  0  0  0  0  0  0  0  0  0
   60.1730   34.5940   48.5560 C   0  0  0  0  0  0  0  0  0  0  0  0
   59.2115   34.9119   48.9855 H   0  0  0  0  0  0  0  0  0  0  0  0
   61.2240   34.2320   49.4040 C   0  0  0  0  0  0  0  0  0  0  0  0
   61.0828   34.2703   50.4942 H   0  0  0  0  0  0  0  0  0  0  0  0
   62.4610   33.8190   48.8750 C   0  0  0  0  0  0  0  0  0  0  0  0
   63.5480   33.4410   49.7490 N   0  0  0  0  0  0  0  0  0  0  0  0
   64.4420   32.3300   49.3930 C   0  0  0  0  0  0  0  0  0  0  0  0
   63.9893   31.3815   49.7177 H   0  0  0  0  0  0  0  0  0  0  0  0
   64.5885   32.3237   48.3028 H   0  0  0  0  0  0  0  0  0  0  0  0
   65.8040   32.5020   50.0790 C   0  0  0  0  0  0  0  0  0  0  0  0
   66.4252   31.6237   49.8495 H   0  0  0  0  0  0  0  0  0  0  0  0
   66.2494   33.4321   49.6963 H   0  0  0  0  0  0  0  0  0  0  0  0
   65.7000   32.6340   51.5460 N   0  0  0  0  0  0  0  0  0  0  0  0
   65.8030   31.6830   51.9730 H   0  0  0  0  0  0  0  0  0  0  0  0
   64.4350   33.2190   52.0320 C   0  0  0  0  0  0  0  0  0  0  0  0
   63.7348   32.4016   52.2592 H   0  0  0  0  0  0  0  0  0  0  0  0
   64.6698   33.8173   52.9247 H   0  0  0  0  0  0  0  0  0  0  0  0
   63.7790   34.1550   51.0110 C   0  0  0  0  0  0  0  0  0  0  0  0
   62.8174   34.5112   51.4090 H   0  0  0  0  0  0  0  0  0  0  0  0
   64.4461   35.0096   50.8248 H   0  0  0  0  0  0  0  0  0  0  0  0
   62.6160   33.7780   47.4770 C   0  0  0  0  0  0  0  0  0  0  0  0
   63.5754   33.4566   47.0454 H   0  0  0  0  0  0  0  0  0  0  0  0
   61.5650   34.1410   46.6310 C   0  0  0  0  0  0  0  0  0  0  0  0
   61.7018   34.1023   45.5402 H   0  0  0  0  0  0  0  0  0  0  0  0
   58.4780   31.7190   44.7090 C   0  0  0  0  0  0  0  0  0  0  0  0
   58.4369   32.0093   43.6488 H   0  0  0  0  0  0  0  0  0  0  0  0
  1  2  1  0
  2  3  1  0
  3  4  2  0
  3  5  2  0
  3  6  1  0
  6  7  1  0
  6  8  1  0
  6  9  1  0
  9 10  1  0
  9 11  1  0
  9 12  1  0
 12 13  1  0
 12 14  1  0
 14 15  1  0
 14 16  1  0
 14 17  1  0
 17 18  2  0
 18 19  1  0
 18 20  1  0
 20 21  1  0
 21 22  2  0
 22 23  1  0
 23 24  1  0
 23 25  2  0
 25 26  1  0
 25 27  1  0
 27 28  1  0
 28 29  2  0
 29 30  1  0
 29 31  1  0
 31 32  1  0
 31 33  2  0
 33 34  1  0
 33 35  1  0
 35 36  1  0
 35 37  2  0
 20 38  2  0
 38 39  1  0
 38 40  1  0
 40 41  1  0
 41 42  1  0
 41 43  1  0
 41 44  1  0
 44 45  1  0
 45 46  2  0
 46 47  1  0
 46 48  1  0
 48 49  1  0
 48 50  2  0
 50 51  1  0
 51 52  1  0
 52 53  1  0
 52 54  1  0
 52 55  1  0
 55 56  1  0
 55 57  1  0
 55 58  1  0
 58 59  1  0
 58 60  1  0
 60 61  1  0
 60 62  1  0
 60 63  1  0
 63 64  1  0
 63 65  1  0
 50 66  1  0
 66 67  1  0
 66 68  2  0
 68 69  1  0
 40 70  2  0
 70 71  1  0
 70 17  1  0
 37 22  1  0
 68 45  1  0
 37 28  1  0
 63 51  1  0
M  CHG  2   2  -1  27  -1
M  END
>  <UniqueID>  (43) 
40

>  <SMILES>  (43) 
[NH-]S(=O)(=O)CCNCc1cc(COc2ccc(N3CCNCC3)cc2)cc(/N=c2/cc[n-]c3cc(Cl)ccc23)c1

>  <Energy>  (43) 
99.08878402840648

>  <Genealogy>  (43) 
[NH-]S(=O)(=O)CCNCc1cc(COc2ccc(N3CCNCC3)cc2)cc(N=c2cc[n-]c3cc(Cl)ccc23)c1 (protonated)
[NH-]S(=O)(=O)CCNCc1cc(COc2ccc(N3CCNCC3)cc2)cc(/N=c2/cc[n-]c3cc(Cl)ccc23)c1 (cis-trans isomerization)
[NH-]S(=O)(=O)CCNCc1cc(COc2ccc(N3CCNCC3)cc2)cc(/N=c2/cc[n-]c3cc(Cl)ccc23)c1 (3D coordinates assigned)
[NH-]S(=O)(=O)CCNCc1cc(COc2ccc(N3CCNCC3)cc2)cc(/N=c2/cc[n-]c3cc(Cl)ccc23)c1 (nonaromatic ring conformer: 99.08878402840648 kcal/mol)

>  <smiles>  (43) 
NS(=O)(=O)CCNCc1cc(COc2ccc(N3CCNCC3)cc2)cc(N=c2cc[nH]c3cc(Cl)ccc23)c1

>  <score_type>  (43) 
oracle

>  <origin>  (43) 
adg

>  <m_score__min__energy>  (43) 
-14.390000000000001

>  <m_primary>  (43) 
energy

$$$$
43:0
     RDKit          3D

 47 49  0  0  0  0  0  0  0  0999 V2000
   59.2290   34.0129   49.3080 H   0  0  0  0  0  0  0  0  0  0  0  0
   59.8890   34.0140   48.4280 C   0  0  0  0  0  0  0  0  0  0  0  0
   61.1970   34.2090   48.6240 C   0  0  0  0  0  0  0  0  0  0  0  0
   61.5457   35.1403   49.0942 H   0  0  0  0  0  0  0  0  0  0  0  0
   62.3610   32.9910   48.1370 S   0  0  0  0  0  0  0  0  0  0  0  0
   63.5210   32.9820   49.0930 O   0  0  0  0  0  0  0  0  0  0  0  0
   62.8660   33.2930   46.7540 O   0  0  0  0  0  0  0  0  0  0  0  0
   61.5790   31.4130   48.1480 C   0  0  0  0  0  0  0  0  0  0  0  0
   61.2750   30.7840   49.3630 C   0  0  0  0  0  0  0  0  0  0  0  0
   61.5141   31.2836   50.3134 H   0  0  0  0  0  0  0  0  0  0  0  0
   60.6690   29.5240   49.3720 C   0  0  0  0  0  0  0  0  0  0  0  0
   60.4219   29.0414   50.3291 H   0  0  0  0  0  0  0  0  0  0  0  0
   60.3750   28.8730   48.1640 C   0  0  0  0  0  0  0  0  0  0  0  0
   59.6880   27.5390   48.1730 C   0  0  0  0  0  0  0  0  0  0  0  0
   59.5230   27.2186   49.2123 H   0  0  0  0  0  0  0  0  0  0  0  0
   58.7202   27.6215   47.6567 H   0  0  0  0  0  0  0  0  0  0  0  0
   60.3172   26.7990   47.6567 H   0  0  0  0  0  0  0  0  0  0  0  0
   60.6700   29.5090   46.9480 C   0  0  0  0  0  0  0  0  0  0  0  0
   60.4216   29.0152   45.9970 H   0  0  0  0  0  0  0  0  0  0  0  0
   61.2780   30.7670   46.9410 C   0  0  0  0  0  0  0  0  0  0  0  0
   61.5214   31.2524   45.9844 H   0  0  0  0  0  0  0  0  0  0  0  0
   59.2740   33.7990   47.0950 C   0  0  0  0  0  0  0  0  0  0  0  0
   59.2950   34.7800   46.0850 C   0  0  0  0  0  0  0  0  0  0  0  0
   59.7756   35.7511   46.2746 H   0  0  0  0  0  0  0  0  0  0  0  0
   58.7080   34.5250   44.8430 C   0  0  0  0  0  0  0  0  0  0  0  0
   58.7221   35.2992   44.0617 H   0  0  0  0  0  0  0  0  0  0  0  0
   58.1040   33.2930   44.5890 C   0  0  0  0  0  0  0  0  0  0  0  0
   57.6369   33.1043   43.6112 H   0  0  0  0  0  0  0  0  0  0  0  0
   58.0890   32.2910   45.5760 C   0  0  0  0  0  0  0  0  0  0  0  0
   57.4850   31.0040   45.3430 N   0  0  0  0  0  0  0  0  0  0  0  0
   56.6430   30.7390   45.9040 H   0  0  0  0  0  0  0  0  0  0  0  0
   57.9990   30.0050   44.4040 C   0  0  0  0  0  0  0  0  0  0  0  0
   57.5492   30.1756   43.4148 H   0  0  0  0  0  0  0  0  0  0  0  0
   59.0933   30.1032   44.3509 H   0  0  0  0  0  0  0  0  0  0  0  0
   57.6620   28.6060   44.8660 C   0  0  0  0  0  0  0  0  0  0  0  0
   58.6810   27.6420   44.9530 C   0  0  0  0  0  0  0  0  0  0  0  0
   59.7115   27.9099   44.6767 H   0  0  0  0  0  0  0  0  0  0  0  0
   58.3940   26.3460   45.3880 C   0  0  0  0  0  0  0  0  0  0  0  0
   59.1959   25.5950   45.4422 H   0  0  0  0  0  0  0  0  0  0  0  0
   57.0920   26.0020   45.7540 C   0  0  0  0  0  0  0  0  0  0  0  0
   56.8684   24.9795   46.0925 H   0  0  0  0  0  0  0  0  0  0  0  0
   56.0720   26.9550   45.6910 C   0  0  0  0  0  0  0  0  0  0  0  0
   54.7790   26.6060   46.0650 O   0  0  0  0  0  0  0  0  0  0  0  0
   56.3510   28.2580   45.2550 C   0  0  0  0  0  0  0  0  0  0  0  0
   55.3250   29.1960   45.2150 O   0  0  0  0  0  0  0  0  0  0  0  0
   58.6760   32.5560   46.8230 C   0  0  0  0  0  0  0  0  0  0  0  0
   58.6681   31.7781   47.6006 H   0  0  0  0  0  0  0  0  0  0  0  0
  1  2  1  0
  2  3  2  0
  3  4  1  0
  3  5  1  0
  5  6  2  0
  5  7  2  0
  5  8  1  0
  8  9  2  0
  9 10  1  0
  9 11  1  0
 11 12  1  0
 11 13  2  0
 13 14  1  0
 14 15  1  0
 14 16  1  0
 14 17  1  0
 13 18  1  0
 18 19  1  0
 18 20  2  0
 20 21  1  0
  2 22  1  0
 22 23  2  0
 23 24  1  0
 23 25  1  0
 25 26  1  0
 25 27  2  0
 27 28  1  0
 27 29  1  0
 29 30  1  0
 30 31  1  0
 30 32  1  0
 32 33  1  0
 32 34  1  0
 32 35  1  0
 35 36  2  0
 36 37  1  0
 36 38  1  0
 38 39  1  0
 38 40  2  0
 40 41  1  0
 40 42  1  0
 42 43  1  0
 42 44  2  0
 44 45  1  0
 29 46  2  0
 46 47  1  0
 20  8  1  0
 46 22  1  0
 44 35  1  0
M  CHG  2  43  -1  45  -1
M  END
>  <UniqueID>  (44) 
41

>  <SMILES>  (44) 
Cc1ccc(S(=O)(=O)/C=C/c2cccc(NCc3cccc([O-])c3[O-])c2)cc1

>  <Energy>  (44) 
53.11368044104793

>  <Genealogy>  (44) 
Cc1ccc(S(=O)(=O)C=Cc2cccc(NCc3cccc([O-])c3[O-])c2)cc1 (protonated)
Cc1ccc(S(=O)(=O)/C=C/c2cccc(NCc3cccc([O-])c3[O-])c2)cc1 (cis-trans isomerization)
Cc1ccc(S(=O)(=O)/C=C/c2cccc(NCc3cccc([O-])c3[O-])c2)cc1 (3D coordinates assigned)
Cc1ccc(S(=O)(=O)/C=C/c2cccc(NCc3cccc([O-])c3[O-])c2)cc1 (optimized conformer: 53.11368044104793 kcal/mol)

>  <smiles>  (44) 
Cc1ccc(S(=O)(=O)C=Cc2cccc(NCc3cccc(O)c3O)c2)cc1

>  <score_type>  (44) 
oracle

>  <origin>  (44) 
adg

>  <m_score__min__energy>  (44) 
-16.489999999999998

>  <m_primary>  (44) 
energy

$$$$
44:0
     RDKit          3D

 38 39  0  0  0  0  0  0  0  0999 V2000
   56.2900   24.1120   44.0840 C   0  0  0  0  0  0  0  0  0  0  0  0
   57.2720   23.7530   45.1900 C   0  0  0  0  0  0  0  0  0  0  0  0
   56.6610   24.2700   46.7920 S   0  0  0  0  0  0  0  0  0  0  0  0
   55.1630   24.3520   46.7200 O   0  0  0  0  0  0  0  0  0  0  0  0
   57.0390   23.2600   47.8390 O   0  0  0  0  0  0  0  0  0  0  0  0
   57.2770   25.8340   47.2300 N   0  0  0  0  0  0  0  0  0  0  0  0
   57.7580   26.8330   46.3200 C   0  0  0  0  0  0  0  0  0  0  0  0
   59.1430   26.9610   46.1580 C   0  0  0  0  0  0  0  0  0  0  0  0
   59.6720   27.9550   45.3320 C   0  0  0  0  0  0  0  0  0  0  0  0
   58.8200   28.8350   44.6640 C   0  0  0  0  0  0  0  0  0  0  0  0
   57.4310   28.7090   44.7940 C   0  0  0  0  0  0  0  0  0  0  0  0
   56.3700   29.8730   43.9960 S   0  0  0  0  0  0  0  0  0  0  0  0
   55.9240   29.3570   42.6560 O   0  0  0  0  0  0  0  0  0  0  0  0
   55.1620   30.0990   44.8600 O   0  0  0  0  0  0  0  0  0  0  0  0
   57.1990   31.3850   43.7720 N   0  0  0  0  0  0  0  0  0  0  0  0
   57.6450   32.1720   44.7080 C   0  0  0  0  0  0  0  0  0  0  0  0
   58.0650   33.4930   44.4560 C   0  0  0  0  0  0  0  0  0  0  0  0
   58.5810   34.2630   45.5000 C   0  0  0  0  0  0  0  0  0  0  0  0
   58.6590   33.7310   46.7920 C   0  0  0  0  0  0  0  0  0  0  0  0
   59.2640   34.5280   47.9090 C   0  0  0  0  0  0  0  0  0  0  0  0
   58.2300   32.4160   47.0060 C   0  0  0  0  0  0  0  0  0  0  0  0
   57.7360   31.6820   45.9740 N   0  0  0  0  0  0  0  0  0  0  0  0
   56.8960   27.6790   45.5900 C   0  0  0  0  0  0  0  0  0  0  0  0
   55.5210   27.4840   45.6230 O   0  0  0  0  0  0  0  0  0  0  0  0
   55.3456   24.4573   44.5300 H   0  0  0  0  0  0  0  0  0  0  0  0
   56.7157   24.9126   43.4613 H   0  0  0  0  0  0  0  0  0  0  0  0
   56.0989   23.2256   43.4613 H   0  0  0  0  0  0  0  0  0  0  0  0
   57.4211   22.6632   45.1975 H   0  0  0  0  0  0  0  0  0  0  0  0
   58.2214   24.2732   44.9950 H   0  0  0  0  0  0  0  0  0  0  0  0
   59.8198   26.2729   46.6857 H   0  0  0  0  0  0  0  0  0  0  0  0
   60.7613   28.0442   45.2079 H   0  0  0  0  0  0  0  0  0  0  0  0
   59.2409   29.6313   44.0325 H   0  0  0  0  0  0  0  0  0  0  0  0
   57.9869   33.9150   43.4432 H   0  0  0  0  0  0  0  0  0  0  0  0
   58.9267   35.2892   45.3068 H   0  0  0  0  0  0  0  0  0  0  0  0
   58.9449   34.1076   48.8741 H   0  0  0  0  0  0  0  0  0  0  0  0
   60.3608   34.4875   47.8361 H   0  0  0  0  0  0  0  0  0  0  0  0
   58.9301   35.5736   47.8361 H   0  0  0  0  0  0  0  0  0  0  0  0
   58.2928   31.9753   48.0119 H   0  0  0  0  0  0  0  0  0  0  0  0
  1  2  1  0
  2  3  1  0
  3  4  2  0
  3  5  2  0
  3  6  1  0
  6  7  1  0
  7  8  2  0
  8  9  1  0
  9 10  2  0
 10 11  1  0
 11 12  1  0
 12 13  2  0
 12 14  2  0
 12 15  1  0
 15 16  2  3
 16 17  1  0
 17 18  2  0
 18 19  1  0
 19 20  1  0
 19 21  2  0
 21 22  1  0
 11 23  2  0
 23 24  1  0
 23  7  1  0
 22 16  1  0
  1 25  1  0
  1 26  1  0
  1 27  1  0
  2 28  1  0
  2 29  1  0
  8 30  1  0
  9 31  1  0
 10 32  1  0
 17 33  1  0
 18 34  1  0
 20 35  1  0
 20 36  1  0
 20 37  1  0
 21 38  1  0
M  CHG  3   6  -1  22  -1  24  -1
M  END
>  <UniqueID>  (45) 
42

>  <SMILES>  (45) 
CCS(=O)(=O)[N-]c1cccc(S(=O)(=O)N=c2ccc(C)c[n-]2)c1[O-]

>  <Energy>  (45) 
41.70654755873302

>  <Genealogy>  (45) 
CCS(=O)(=O)[N-]c1cccc(S(=O)(=O)N=c2ccc(C)c[n-]2)c1[O-] (protonated)
CCS(=O)(=O)[N-]c1cccc(S(=O)(=O)N=c2ccc(C)c[n-]2)c1[O-] (3D coordinates assigned)
CCS(=O)(=O)[N-]c1cccc(S(=O)(=O)N=c2ccc(C)c[n-]2)c1[O-] (optimized conformer: 41.70654755873302 kcal/mol)

>  <smiles>  (45) 
CCS(=O)(=O)Nc1cccc(S(=O)(=O)N=c2ccc(C)c[nH]2)c1O

>  <score_type>  (45) 
oracle

>  <origin>  (45) 
adg

>  <m_score__min__energy>  (45) 
-15.75

>  <m_primary>  (45) 
energy

$$$$
45:0
     RDKit          3D

 37 39  0  0  0  0  0  0  0  0999 V2000
   63.6840   33.0760   46.9710 C   0  0  0  0  0  0  0  0  0  0  0  0
   62.3220   33.4050   47.4850 C   0  0  0  0  0  0  0  0  0  0  0  0
   62.0890   33.8310   48.7900 C   0  0  0  0  0  0  0  0  0  0  0  0
   60.4440   34.1390   48.9500 S   0  0  0  0  0  0  0  0  0  0  0  0
   60.1080   33.7380   47.3440 C   0  0  0  0  0  0  0  0  0  0  0  0
   58.9370   33.7410   46.7810 N   0  0  0  0  0  0  0  0  0  0  0  0
   58.6780   33.9260   45.3810 C   0  0  0  0  0  0  0  0  0  0  0  0
   58.9000   35.0550   44.8720 O   0  0  0  0  0  0  0  0  0  0  0  0
   58.0910   32.8510   44.5420 C   0  0  0  0  0  0  0  0  0  0  0  0
   58.2130   32.8980   43.1440 C   0  0  0  0  0  0  0  0  0  0  0  0
   57.6490   31.8960   42.3510 C   0  0  0  0  0  0  0  0  0  0  0  0
   56.9620   30.8350   42.9450 C   0  0  0  0  0  0  0  0  0  0  0  0
   56.8390   30.7620   44.3380 C   0  0  0  0  0  0  0  0  0  0  0  0
   56.1220   29.6590   44.9090 N   0  0  0  0  0  0  0  0  0  0  0  0
   56.6450   28.3490   45.1640 C   0  0  0  0  0  0  0  0  0  0  0  0
   55.9150   27.4440   45.6520 O   0  0  0  0  0  0  0  0  0  0  0  0
   58.1010   28.0860   44.9510 C   0  0  0  0  0  0  0  0  0  0  0  0
   58.9130   28.8930   45.9180 C   0  0  0  0  0  0  0  0  0  0  0  0
   60.1330   29.4990   45.5790 C   0  0  0  0  0  0  0  0  0  0  0  0
   60.7410   30.1540   46.6410 C   0  0  0  0  0  0  0  0  0  0  0  0
   59.7660   29.9640   47.9970 S   0  0  0  0  0  0  0  0  0  0  0  0
   58.5640   29.0540   47.2550 C   0  0  0  0  0  0  0  0  0  0  0  0
   57.3770   31.7910   45.1310 C   0  0  0  0  0  0  0  0  0  0  0  0
   61.2220   33.3570   46.6840 N   0  0  0  0  0  0  0  0  0  0  0  0
   64.3658   32.9113   47.8184 H   0  0  0  0  0  0  0  0  0  0  0  0
   63.6341   32.1641   46.3579 H   0  0  0  0  0  0  0  0  0  0  0  0
   64.0559   33.9101   46.3579 H   0  0  0  0  0  0  0  0  0  0  0  0
   62.8480   33.9459   49.5779 H   0  0  0  0  0  0  0  0  0  0  0  0
   58.7561   33.7291   42.6704 H   0  0  0  0  0  0  0  0  0  0  0  0
   57.7461   31.9427   41.2563 H   0  0  0  0  0  0  0  0  0  0  0  0
   56.5149   30.0520   42.3149 H   0  0  0  0  0  0  0  0  0  0  0  0
   58.3049   27.0164   45.1074 H   0  0  0  0  0  0  0  0  0  0  0  0
   58.3735   28.3708   43.9240 H   0  0  0  0  0  0  0  0  0  0  0  0
   60.5657   29.4586   44.5685 H   0  0  0  0  0  0  0  0  0  0  0  0
   61.6942   30.7016   46.6021 H   0  0  0  0  0  0  0  0  0  0  0  0
   57.6608   28.6559   47.7406 H   0  0  0  0  0  0  0  0  0  0  0  0
   57.2385   31.7672   46.2220 H   0  0  0  0  0  0  0  0  0  0  0  0
  1  2  1  0
  2  3  2  0
  3  4  1  0
  4  5  1  0
  5  6  2  3
  6  7  1  0
  7  8  2  0
  7  9  1  0
  9 10  2  0
 10 11  1  0
 11 12  2  0
 12 13  1  0
 13 14  1  0
 14 15  1  0
 15 16  2  0
 15 17  1  0
 17 18  1  0
 18 19  1  0
 19 20  2  0
 20 21  1  0
 21 22  1  0
 13 23  2  0
  5 24  1  0
 24  2  1  0
 23  9  1  0
 22 18  2  0
  1 25  1  0
  1 26  1  0
  1 27  1  0
  3 28  1  0
 10 29  1  0
 11 30  1  0
 12 31  1  0
 17 32  1  0
 17 33  1  0
 19 34  1  0
 20 35  1  0
 22 36  1  0
 23 37  1  0
M  CHG  2  14  -1  24  -1
M  END
>  <UniqueID>  (46) 
43

>  <SMILES>  (46) 
Cc1csc(=NC(=O)c2cccc([N-]C(=O)Cc3ccsc3)c2)[n-]1

>  <Energy>  (46) 
102.04551917652569

>  <Genealogy>  (46) 
Cc1csc(=NC(=O)c2cccc([N-]C(=O)Cc3ccsc3)c2)[n-]1 (protonated)
Cc1csc(=NC(=O)c2cccc([N-]C(=O)Cc3ccsc3)c2)[n-]1 (3D coordinates assigned)
Cc1csc(=NC(=O)c2cccc([N-]C(=O)Cc3ccsc3)c2)[n-]1 (optimized conformer: 102.04551917652569 kcal/mol)

>  <smiles>  (46) 
Cc1csc(=NC(=O)c2cccc(NC(=O)Cc3ccsc3)c2)[nH]1

>  <score_type>  (46) 
oracle

>  <origin>  (46) 
adg

>  <m_score__min__energy>  (46) 
-11.57

>  <m_primary>  (46) 
energy

$$$$
46:0
     RDKit          3D

 51 53  0  0  0  0  0  0  0  0999 V2000
   54.7900   26.3410   45.9790 O   0  0  0  0  0  0  0  0  0  0  0  0
   55.9530   25.8920   46.1670 C   0  0  0  0  0  0  0  0  0  0  0  0
   56.2280   25.1600   47.3150 O   0  0  0  0  0  0  0  0  0  0  0  0
   57.0240   26.1010   45.1400 C   0  0  0  0  0  0  0  0  0  0  0  0
   57.4330   27.5490   45.0410 C   0  0  0  0  0  0  0  0  0  0  0  0
   56.4620   28.5620   45.0070 C   0  0  0  0  0  0  0  0  0  0  0  0
   56.8430   29.9020   44.8860 C   0  0  0  0  0  0  0  0  0  0  0  0
   58.1950   30.2520   44.7880 C   0  0  0  0  0  0  0  0  0  0  0  0
   58.5320   31.6380   44.6320 N   0  0  0  0  0  0  0  0  0  0  0  0
   58.6060   32.8280   45.8930 S   0  0  0  0  0  0  0  0  0  0  0  0
   57.3530   33.6550   45.8450 O   0  0  0  0  0  0  0  0  0  0  0  0
   59.7730   33.7500   45.6740 O   0  0  0  0  0  0  0  0  0  0  0  0
   58.7170   32.0440   47.4670 C   0  0  0  0  0  0  0  0  0  0  0  0
   59.3840   30.8190   47.6130 C   0  0  0  0  0  0  0  0  0  0  0  0
   59.4740   30.2120   48.8700 C   0  0  0  0  0  0  0  0  0  0  0  0
   58.8910   30.8160   49.9920 C   0  0  0  0  0  0  0  0  0  0  0  0
   59.0140   30.1730   51.2680 N   0  0  0  0  0  0  0  0  0  0  0  0
   60.2260   29.9050   51.9900 C   0  0  0  0  0  0  0  0  0  0  0  0
   60.4880   28.7140   52.3070 O   0  0  0  0  0  0  0  0  0  0  0  0
   61.1810   30.9900   52.4080 C   0  0  0  0  0  0  0  0  0  0  0  0
   61.5200   31.8510   51.2750 N   0  0  0  0  0  0  0  0  0  0  0  0
   62.4320   31.4460   50.2420 C   0  0  0  0  0  0  0  0  0  0  0  0
   63.1140   30.3950   50.3870 O   0  0  0  0  0  0  0  0  0  0  0  0
   62.6020   32.2580   49.0150 C   0  0  0  0  0  0  0  0  0  0  0  0
   63.6390   31.9880   48.1010 C   0  0  0  0  0  0  0  0  0  0  0  0
   63.7620   32.7420   46.9300 C   0  0  0  0  0  0  0  0  0  0  0  0
   62.8610   33.7760   46.6650 C   0  0  0  0  0  0  0  0  0  0  0  0
   61.8490   34.0720   47.5780 C   0  0  0  0  0  0  0  0  0  0  0  0
   61.7190   33.3220   48.7480 C   0  0  0  0  0  0  0  0  0  0  0  0
   58.2620   32.0620   49.8520 C   0  0  0  0  0  0  0  0  0  0  0  0
   58.1590   32.6620   48.5940 C   0  0  0  0  0  0  0  0  0  0  0  0
   59.1680   29.2410   44.8390 C   0  0  0  0  0  0  0  0  0  0  0  0
   58.7890   27.9000   44.9560 C   0  0  0  0  0  0  0  0  0  0  0  0
   57.9036   25.5011   45.4163 H   0  0  0  0  0  0  0  0  0  0  0  0
   56.6244   25.7920   44.1629 H   0  0  0  0  0  0  0  0  0  0  0  0
   55.3958   28.3004   45.0759 H   0  0  0  0  0  0  0  0  0  0  0  0
   56.0737   30.6880   44.8677 H   0  0  0  0  0  0  0  0  0  0  0  0
   59.8378   30.3340   46.7362 H   0  0  0  0  0  0  0  0  0  0  0  0
   60.0055   29.2550   48.9784 H   0  0  0  0  0  0  0  0  0  0  0  0
   60.7125   31.5986   53.1955 H   0  0  0  0  0  0  0  0  0  0  0  0
   62.1033   30.5218   52.7824 H   0  0  0  0  0  0  0  0  0  0  0  0
   61.1840   32.8410   51.2990 H   0  0  0  0  0  0  0  0  0  0  0  0
   64.3557   31.1800   48.3095 H   0  0  0  0  0  0  0  0  0  0  0  0
   64.5694   32.5206   46.2165 H   0  0  0  0  0  0  0  0  0  0  0  0
   62.9497   34.3574   45.7354 H   0  0  0  0  0  0  0  0  0  0  0  0
   61.1517   34.8983   47.3756 H   0  0  0  0  0  0  0  0  0  0  0  0
   60.9216   33.5636   49.4662 H   0  0  0  0  0  0  0  0  0  0  0  0
   57.8481   32.5690   50.7361 H   0  0  0  0  0  0  0  0  0  0  0  0
   57.6371   33.6245   48.4880 H   0  0  0  0  0  0  0  0  0  0  0  0
   60.2345   29.5053   44.7866 H   0  0  0  0  0  0  0  0  0  0  0  0
   59.5591   27.1150   44.9816 H   0  0  0  0  0  0  0  0  0  0  0  0
  1  2  2  0
  2  3  1  0
  2  4  1  0
  4  5  1  0
  5  6  2  0
  6  7  1  0
  7  8  2  0
  8  9  1  0
  9 10  1  0
 10 11  2  0
 10 12  2  0
 10 13  1  0
 13 14  2  0
 14 15  1  0
 15 16  2  0
 16 17  1  0
 17 18  1  0
 18 19  2  0
 18 20  1  0
 20 21  1  0
 21 22  1  0
 22 23  2  0
 22 24  1  0
 24 25  2  0
 25 26  1  0
 26 27  2  0
 27 28  1  0
 28 29  2  0
 16 30  1  0
 30 31  2  0
  8 32  1  0
 32 33  2  0
 33  5  1  0
 31 13  1  0
 29 24  1  0
  4 34  1  0
  4 35  1  0
  6 36  1  0
  7 37  1  0
 14 38  1  0
 15 39  1  0
 20 40  1  0
 20 41  1  0
 21 42  1  0
 25 43  1  0
 26 44  1  0
 27 45  1  0
 28 46  1  0
 29 47  1  0
 30 48  1  0
 31 49  1  0
 32 50  1  0
 33 51  1  0
M  CHG  3   3  -1   9  -1  17  -1
M  END
>  <UniqueID>  (47) 
44

>  <SMILES>  (47) 
O=C([O-])Cc1ccc([N-]S(=O)(=O)c2ccc([N-]C(=O)CNC(=O)c3ccccc3)cc2)cc1

>  <Energy>  (47) 
56.11828366565346

>  <Genealogy>  (47) 
O=C([O-])Cc1ccc([N-]S(=O)(=O)c2ccc([N-]C(=O)CNC(=O)c3ccccc3)cc2)cc1 (protonated)
O=C([O-])Cc1ccc([N-]S(=O)(=O)c2ccc([N-]C(=O)CNC(=O)c3ccccc3)cc2)cc1 (3D coordinates assigned)
O=C([O-])Cc1ccc([N-]S(=O)(=O)c2ccc([N-]C(=O)CNC(=O)c3ccccc3)cc2)cc1 (optimized conformer: 56.11828366565346 kcal/mol)

>  <smiles>  (47) 
O=C(O)Cc1ccc(NS(=O)(=O)c2ccc(NC(=O)CNC(=O)c3ccccc3)cc2)cc1

>  <score_type>  (47) 
oracle

>  <origin>  (47) 
adg

>  <m_score__min__energy>  (47) 
-14.51

>  <m_primary>  (47) 
energy

$$$$
47:0
     RDKit          3D

 38 40  0  0  0  0  0  0  0  0999 V2000
   58.1970   34.1960   46.2430 C   0  0  0  0  0  0  0  0  0  0  0  0
   59.4250   33.5360   45.6260 C   0  0  0  0  0  0  0  0  0  0  0  0
   60.5920   33.8300   46.3900 O   0  0  0  0  0  0  0  0  0  0  0  0
   61.1440   32.9480   47.3280 C   0  0  0  0  0  0  0  0  0  0  0  0
   62.3790   32.6880   47.3020 O   0  0  0  0  0  0  0  0  0  0  0  0
   60.2740   32.3150   48.3440 C   0  0  0  0  0  0  0  0  0  0  0  0
   59.7150   33.0760   49.3860 C   0  0  0  0  0  0  0  0  0  0  0  0
   58.8920   32.4750   50.3430 C   0  0  0  0  0  0  0  0  0  0  0  0
   58.6020   31.1010   50.2650 C   0  0  0  0  0  0  0  0  0  0  0  0
   57.7810   30.4390   51.2390 N   0  0  0  0  0  0  0  0  0  0  0  0
   56.5450   30.9180   51.7830 C   0  0  0  0  0  0  0  0  0  0  0  0
   56.4370   32.1130   52.1700 O   0  0  0  0  0  0  0  0  0  0  0  0
   55.4290   30.0200   51.8710 N   0  0  0  0  0  0  0  0  0  0  0  0
   54.0890   30.4210   52.2050 C   0  0  0  0  0  0  0  0  0  0  0  0
   53.3770   29.6940   53.1950 C   0  0  0  0  0  0  0  0  0  0  0  0
   52.0560   30.0400   53.5330 C   0  0  0  0  0  0  0  0  0  0  0  0
   51.4770   31.1070   52.8540 C   0  0  0  0  0  0  0  0  0  0  0  0
   50.2350   31.6850   52.9280 C   0  0  0  0  0  0  0  0  0  0  0  0
   50.1870   32.6900   52.0210 N   0  0  0  0  0  0  0  0  0  0  0  0
   51.3530   32.7630   51.3830 N   0  0  0  0  0  0  0  0  0  0  0  0
   52.1420   31.8010   51.8900 C   0  0  0  0  0  0  0  0  0  0  0  0
   53.4490   31.4890   51.5270 C   0  0  0  0  0  0  0  0  0  0  0  0
   59.1780   30.3380   49.2440 C   0  0  0  0  0  0  0  0  0  0  0  0
   60.0000   30.9390   48.2850 C   0  0  0  0  0  0  0  0  0  0  0  0
   58.2714   34.1560   47.3398 H   0  0  0  0  0  0  0  0  0  0  0  0
   58.1420   35.2452   45.9172 H   0  0  0  0  0  0  0  0  0  0  0  0
   57.2916   33.6630   45.9172 H   0  0  0  0  0  0  0  0  0  0  0  0
   59.2750   32.4466   45.6005 H   0  0  0  0  0  0  0  0  0  0  0  0
   59.5618   33.9262   44.6067 H   0  0  0  0  0  0  0  0  0  0  0  0
   59.9271   34.1535   49.4486 H   0  0  0  0  0  0  0  0  0  0  0  0
   58.4698   33.0788   51.1598 H   0  0  0  0  0  0  0  0  0  0  0  0
   55.6270   28.9980   51.7720 H   0  0  0  0  0  0  0  0  0  0  0  0
   53.8644   28.8495   53.7042 H   0  0  0  0  0  0  0  0  0  0  0  0
   51.5015   29.4872   54.3056 H   0  0  0  0  0  0  0  0  0  0  0  0
   49.4213   31.3851   53.6048 H   0  0  0  0  0  0  0  0  0  0  0  0
   53.9690   32.0533   50.7389 H   0  0  0  0  0  0  0  0  0  0  0  0
   58.9830   29.2565   49.1948 H   0  0  0  0  0  0  0  0  0  0  0  0
   60.4348   30.3296   47.4791 H   0  0  0  0  0  0  0  0  0  0  0  0
  1  2  1  0
  2  3  1  0
  3  4  1  0
  4  5  2  0
  4  6  1  0
  6  7  2  0
  7  8  1  0
  8  9  2  0
  9 10  1  0
 10 11  1  0
 11 12  2  0
 11 13  1  0
 13 14  1  0
 14 15  1  0
 15 16  2  0
 16 17  1  0
 17 18  2  0
 18 19  1  0
 19 20  1  0
 20 21  2  0
 21 22  1  0
  9 23  1  0
 23 24  2  0
 24  6  1  0
 22 14  2  0
 21 17  1  0
  1 25  1  0
  1 26  1  0
  1 27  1  0
  2 28  1  0
  2 29  1  0
  7 30  1  0
  8 31  1  0
 13 32  1  0
 15 33  1  0
 16 34  1  0
 18 35  1  0
 22 36  1  0
 23 37  1  0
 24 38  1  0
M  CHG  2  10  -1  19  -1
M  END
>  <UniqueID>  (48) 
45

>  <SMILES>  (48) 
CCOC(=O)c1ccc([N-]C(=O)Nc2ccc3c[n-]nc3c2)cc1

>  <Energy>  (48) 
81.48113723734737

>  <Genealogy>  (48) 
CCOC(=O)c1ccc([N-]C(=O)Nc2ccc3c[n-]nc3c2)cc1 (protonated)
CCOC(=O)c1ccc([N-]C(=O)Nc2ccc3c[n-]nc3c2)cc1 (3D coordinates assigned)
CCOC(=O)c1ccc([N-]C(=O)Nc2ccc3c[n-]nc3c2)cc1 (optimized conformer: 81.48113723734737 kcal/mol)

>  <smiles>  (48) 
CCOC(=O)c1ccc(NC(=O)Nc2ccc3c[nH]nc3c2)cc1

>  <score_type>  (48) 
oracle

>  <origin>  (48) 
adg

>  <m_score__min__energy>  (48) 
-11.1

>  <m_primary>  (48) 
energy

$$$$
48:0
     RDKit          3D

 44 45  0  0  0  0  0  0  0  0999 V2000
   59.2940   34.6120   47.4350 C   0  0  0  0  0  0  0  0  0  0  0  0
   58.6810   34.4510   46.0430 C   0  0  0  0  0  0  0  0  0  0  0  0
   57.4990   33.5250   46.1680 C   0  0  0  0  0  0  0  0  0  0  0  0
   57.5310   32.5170   45.0810 C   0  0  0  0  0  0  0  0  0  0  0  0
   57.8200   32.9480   43.8040 C   0  0  0  0  0  0  0  0  0  0  0  0
   57.8690   32.0580   42.7260 C   0  0  0  0  0  0  0  0  0  0  0  0
   58.1300   32.4320   41.5640 O   0  0  0  0  0  0  0  0  0  0  0  0
   57.6190   30.7720   43.0200 N   0  0  0  0  0  0  0  0  0  0  0  0
   57.3350   30.3300   44.2580 C   0  0  0  0  0  0  0  0  0  0  0  0
   57.0260   28.5870   44.4780 S   0  0  0  0  0  0  0  0  0  0  0  0
   57.6360   27.9920   46.0630 C   0  0  0  0  0  0  0  0  0  0  0  0
   58.9370   28.5540   46.4280 C   0  0  0  0  0  0  0  0  0  0  0  0
   59.9820   27.8910   46.2760 O   0  0  0  0  0  0  0  0  0  0  0  0
   59.0830   29.8720   46.9700 N   0  0  0  0  0  0  0  0  0  0  0  0
   60.3960   30.3190   47.2910 C   0  0  0  0  0  0  0  0  0  0  0  0
   60.8090   31.6410   46.7640 C   0  0  0  0  0  0  0  0  0  0  0  0
   62.0190   32.1980   47.4200 C   0  0  0  0  0  0  0  0  0  0  0  0
   62.6170   33.3240   46.9060 C   0  0  0  0  0  0  0  0  0  0  0  0
   63.7590   33.8920   47.4820 C   0  0  0  0  0  0  0  0  0  0  0  0
   64.2430   33.2460   48.6020 C   0  0  0  0  0  0  0  0  0  0  0  0
   63.6780   32.1230   49.1440 C   0  0  0  0  0  0  0  0  0  0  0  0
   62.5610   31.5900   48.5580 C   0  0  0  0  0  0  0  0  0  0  0  0
   57.2870   31.2010   45.3070 N   0  0  0  0  0  0  0  0  0  0  0  0
   58.5281   34.4108   48.1985 H   0  0  0  0  0  0  0  0  0  0  0  0
   60.1256   33.9018   47.5538 H   0  0  0  0  0  0  0  0  0  0  0  0
   59.6693   35.6392   47.5538 H   0  0  0  0  0  0  0  0  0  0  0  0
   58.3520   35.4294   45.6629 H   0  0  0  0  0  0  0  0  0  0  0  0
   59.4210   34.0390   45.3412 H   0  0  0  0  0  0  0  0  0  0  0  0
   57.5376   33.0135   47.1411 H   0  0  0  0  0  0  0  0  0  0  0  0
   56.5707   34.1102   46.0923 H   0  0  0  0  0  0  0  0  0  0  0  0
   58.0165   34.0160   43.6287 H   0  0  0  0  0  0  0  0  0  0  0  0
   57.6590   30.1050   42.1980 H   0  0  0  0  0  0  0  0  0  0  0  0
   56.9076   28.2623   46.8417 H   0  0  0  0  0  0  0  0  0  0  0  0
   57.7632   26.9028   45.9762 H   0  0  0  0  0  0  0  0  0  0  0  0
   58.1990   30.4300   47.0970 H   0  0  0  0  0  0  0  0  0  0  0  0
   60.4723   30.3613   48.3875 H   0  0  0  0  0  0  0  0  0  0  0  0
   61.0682   29.5971   46.8042 H   0  0  0  0  0  0  0  0  0  0  0  0
   61.0150   31.5363   45.6886 H   0  0  0  0  0  0  0  0  0  0  0  0
   59.9840   32.3390   46.9695 H   0  0  0  0  0  0  0  0  0  0  0  0
   62.1831   33.7946   46.0114 H   0  0  0  0  0  0  0  0  0  0  0  0
   64.2385   34.7923   47.0702 H   0  0  0  0  0  0  0  0  0  0  0  0
   65.1384   33.6594   49.0892 H   0  0  0  0  0  0  0  0  0  0  0  0
   64.1154   31.6551   50.0383 H   0  0  0  0  0  0  0  0  0  0  0  0
   62.0922   30.6886   48.9796 H   0  0  0  0  0  0  0  0  0  0  0  0
  1  2  1  0
  2  3  1  0
  3  4  1  0
  4  5  2  0
  5  6  1  0
  6  7  2  0
  6  8  1  0
  8  9  1  0
  9 10  1  0
 10 11  1  0
 11 12  1  0
 12 13  2  0
 12 14  1  0
 14 15  1  0
 15 16  1  0
 16 17  1  0
 17 18  2  0
 18 19  1  0
 19 20  2  0
 20 21  1  0
 21 22  2  0
  9 23  2  0
 23  4  1  0
 22 17  1  0
  1 24  1  0
  1 25  1  0
  1 26  1  0
  2 27  1  0
  2 28  1  0
  3 29  1  0
  3 30  1  0
  5 31  1  0
  8 32  1  0
 11 33  1  0
 11 34  1  0
 14 35  1  0
 15 36  1  0
 15 37  1  0
 16 38  1  0
 16 39  1  0
 18 40  1  0
 19 41  1  0
 20 42  1  0
 21 43  1  0
 22 44  1  0
M  END
>  <smiles>  (49) 
CCCc1cc(=O)[nH]c(SCC(=O)NCCc2ccccc2)n1

>  <score_type>  (49) 
oracle

>  <origin>  (49) 
adg

>  <m_score__min__energy>  (49) 
-7.8300000000000001

>  <m_primary>  (49) 
energy

$$$$
49:0
     RDKit          3D

 59 61  0  0  0  0  0  0  0  0999 V2000
   63.0870   33.8300   46.3460 S   0  0  0  0  0  0  0  0  0  0  0  0
   63.2750   32.6900   47.5150 C   0  0  0  0  0  0  0  0  0  0  0  0
   64.4640   32.7350   48.3230 N   0  0  0  0  0  0  0  0  0  0  0  0
   64.6360   32.0420   49.6020 C   0  0  0  0  0  0  0  0  0  0  0  0
   63.8600   32.7530   50.7210 C   0  0  0  0  0  0  0  0  0  0  0  0
   62.3540   32.4640   50.6890 C   0  0  0  0  0  0  0  0  0  0  0  0
   61.5940   33.7170   50.5770 N   0  0  0  0  0  0  0  0  0  0  0  0
   60.1420   33.4810   50.5780 C   0  0  0  0  0  0  0  0  0  0  0  0
   59.5500   33.5860   49.1930 C   0  0  0  0  0  0  0  0  0  0  0  0
   58.5260   32.7140   48.7950 C   0  0  0  0  0  0  0  0  0  0  0  0
   57.9890   32.7950   47.5080 C   0  0  0  0  0  0  0  0  0  0  0  0
   58.4710   33.7540   46.5960 C   0  0  0  0  0  0  0  0  0  0  0  0
   57.9640   33.8850   45.2930 O   0  0  0  0  0  0  0  0  0  0  0  0
   58.4590   33.1960   44.1430 C   0  0  0  0  0  0  0  0  0  0  0  0
   57.8020   31.8490   44.0010 C   0  0  0  0  0  0  0  0  0  0  0  0
   57.7690   30.9520   45.0810 C   0  0  0  0  0  0  0  0  0  0  0  0
   57.1640   29.6990   44.9380 C   0  0  0  0  0  0  0  0  0  0  0  0
   56.5950   29.3310   43.7170 C   0  0  0  0  0  0  0  0  0  0  0  0
   56.6340   30.2130   42.6330 C   0  0  0  0  0  0  0  0  0  0  0  0
   57.2390   31.4670   42.7730 C   0  0  0  0  0  0  0  0  0  0  0  0
   59.5020   34.6140   46.9940 C   0  0  0  0  0  0  0  0  0  0  0  0
   60.0390   34.5330   48.2810 C   0  0  0  0  0  0  0  0  0  0  0  0
   62.3120   31.6290   47.6600 N   0  0  0  0  0  0  0  0  0  0  0  0
   61.1020   31.5260   46.8410 C   0  0  0  0  0  0  0  0  0  0  0  0
   60.5920   30.1090   46.8330 C   0  0  0  0  0  0  0  0  0  0  0  0
   59.9280   29.5850   47.9550 C   0  0  0  0  0  0  0  0  0  0  0  0
   59.3920   28.2930   47.9160 C   0  0  0  0  0  0  0  0  0  0  0  0
   59.5080   27.5220   46.7570 C   0  0  0  0  0  0  0  0  0  0  0  0
   60.1590   28.0400   45.6350 C   0  0  0  0  0  0  0  0  0  0  0  0
   60.6960   29.3310   45.6680 C   0  0  0  0  0  0  0  0  0  0  0  0
   65.2490   33.3500   48.0110 H   0  0  0  0  0  0  0  0  0  0  0  0
   64.2647   31.0111   49.5055 H   0  0  0  0  0  0  0  0  0  0  0  0
   65.7051   32.0434   49.8608 H   0  0  0  0  0  0  0  0  0  0  0  0
   64.2596   32.4195   51.6901 H   0  0  0  0  0  0  0  0  0  0  0  0
   63.9887   33.8352   50.5717 H   0  0  0  0  0  0  0  0  0  0  0  0
   62.1262   31.8234   49.8243 H   0  0  0  0  0  0  0  0  0  0  0  0
   62.0684   31.9557   51.6217 H   0  0  0  0  0  0  0  0  0  0  0  0
   61.8450   34.3430   51.3780 H   0  0  0  0  0  0  0  0  0  0  0  0
   59.9465   32.4728   50.9721 H   0  0  0  0  0  0  0  0  0  0  0  0
   59.6733   34.2523   51.2068 H   0  0  0  0  0  0  0  0  0  0  0  0
   58.1435   31.9618   49.5006 H   0  0  0  0  0  0  0  0  0  0  0  0
   57.1861   32.1067   47.2054 H   0  0  0  0  0  0  0  0  0  0  0  0
   58.2487   33.7959   43.2453 H   0  0  0  0  0  0  0  0  0  0  0  0
   59.5427   33.0483   44.2606 H   0  0  0  0  0  0  0  0  0  0  0  0
   58.2206   31.2358   46.0430 H   0  0  0  0  0  0  0  0  0  0  0  0
   57.1364   29.0023   45.7888 H   0  0  0  0  0  0  0  0  0  0  0  0
   56.1159   28.3468   43.6081 H   0  0  0  0  0  0  0  0  0  0  0  0
   56.1892   29.9213   41.6702 H   0  0  0  0  0  0  0  0  0  0  0  0
   57.2736   32.1567   41.9168 H   0  0  0  0  0  0  0  0  0  0  0  0
   59.8926   35.3603   46.2866 H   0  0  0  0  0  0  0  0  0  0  0  0
   60.8487   35.2147   48.5805 H   0  0  0  0  0  0  0  0  0  0  0  0
   62.4880   30.8810   48.3630 H   0  0  0  0  0  0  0  0  0  0  0  0
   60.3269   32.1878   47.2549 H   0  0  0  0  0  0  0  0  0  0  0  0
   61.3428   31.8242   45.8099 H   0  0  0  0  0  0  0  0  0  0  0  0
   59.8292   30.1923   48.8668 H   0  0  0  0  0  0  0  0  0  0  0  0
   58.8788   27.8841   48.7989 H   0  0  0  0  0  0  0  0  0  0  0  0
   59.0865   26.5064   46.7279 H   0  0  0  0  0  0  0  0  0  0  0  0
   60.2495   27.4312   44.7233 H   0  0  0  0  0  0  0  0  0  0  0  0
   61.2010   29.7381   44.7796 H   0  0  0  0  0  0  0  0  0  0  0  0
  1  2  2  0
  2  3  1  0
  3  4  1  0
  4  5  1  0
  5  6  1  0
  6  7  1  0
  7  8  1  0
  8  9  1  0
  9 10  2  0
 10 11  1  0
 11 12  2  0
 12 13  1  0
 13 14  1  0
 14 15  1  0
 15 16  2  0
 16 17  1  0
 17 18  2  0
 18 19  1  0
 19 20  2  0
 12 21  1  0
 21 22  2  0
  2 23  1  0
 23 24  1  0
 24 25  1  0
 25 26  2  0
 26 27  1  0
 27 28  2  0
 28 29  1  0
 29 30  2  0
 22  9  1  0
 30 25  1  0
 20 15  1  0
  3 31  1  0
  4 32  1  0
  4 33  1  0
  5 34  1  0
  5 35  1  0
  6 36  1  0
  6 37  1  0
  7 38  1  0
  8 39  1  0
  8 40  1  0
 10 41  1  0
 11 42  1  0
 14 43  1  0
 14 44  1  0
 16 45  1  0
 17 46  1  0
 18 47  1  0
 19 48  1  0
 20 49  1  0
 21 50  1  0
 22 51  1  0
 23 52  1  0
 24 53  1  0
 24 54  1  0
 26 55  1  0
 27 56  1  0
 28 57  1  0
 29 58  1  0
 30 59  1  0
M  END
>  <UniqueID>  (50) 
46

>  <SMILES>  (50) 
S=C(NCCCNCc1ccc(OCc2ccccc2)cc1)NCc1ccccc1

>  <Energy>  (50) 
52.9661672605394

>  <Genealogy>  (50) 
S=C(NCCCNCc1ccc(OCc2ccccc2)cc1)NCc1ccccc1 (3D coordinates assigned)
S=C(NCCCNCc1ccc(OCc2ccccc2)cc1)NCc1ccccc1 (optimized conformer: 52.9661672605394 kcal/mol)

>  <smiles>  (50) 
S=C(NCCCNCc1ccc(OCc2ccccc2)cc1)NCc1ccccc1

>  <score_type>  (50) 
oracle

>  <origin>  (50) 
adg

>  <m_score__min__energy>  (50) 
-7.9699999999999998

>  <m_primary>  (50) 
energy

$$$$
50:0
     RDKit          3D

 51 53  0  0  0  0  0  0  0  0999 V2000
   52.0790   23.7520   44.2790 C   0  0  0  0  0  0  0  0  0  0  0  0
   52.3310   22.9620   45.4900 N   0  0  0  0  0  0  0  0  0  0  0  0
   51.2230   22.2080   46.0900 C   0  0  0  0  0  0  0  0  0  0  0  0
   53.6530   22.9300   46.0880 C   0  0  0  0  0  0  0  0  0  0  0  0
   54.1180   21.7760   46.7500 C   0  0  0  0  0  0  0  0  0  0  0  0
   55.3930   21.7450   47.3150 C   0  0  0  0  0  0  0  0  0  0  0  0
   56.2250   22.8610   47.2370 C   0  0  0  0  0  0  0  0  0  0  0  0
   55.7880   24.0300   46.5980 C   0  0  0  0  0  0  0  0  0  0  0  0
   56.6890   25.2060   46.5230 C   0  0  0  0  0  0  0  0  0  0  0  0
   57.5430   25.3810   47.4340 O   0  0  0  0  0  0  0  0  0  0  0  0
   56.6040   26.1440   45.4350 N   0  0  0  0  0  0  0  0  0  0  0  0
   57.4460   27.3020   45.3380 C   0  0  0  0  0  0  0  0  0  0  0  0
   58.8350   27.1290   45.2770 C   0  0  0  0  0  0  0  0  0  0  0  0
   59.6790   28.2340   45.1790 C   0  0  0  0  0  0  0  0  0  0  0  0
   59.1450   29.5220   45.1240 C   0  0  0  0  0  0  0  0  0  0  0  0
   57.7540   29.7210   45.1580 C   0  0  0  0  0  0  0  0  0  0  0  0
   57.2100   31.0980   45.0630 C   0  0  0  0  0  0  0  0  0  0  0  0
   56.0850   31.2880   44.5230 O   0  0  0  0  0  0  0  0  0  0  0  0
   57.9620   32.2270   45.5460 N   0  0  0  0  0  0  0  0  0  0  0  0
   58.4950   32.2160   46.9150 C   0  0  0  0  0  0  0  0  0  0  0  0
   59.8260   32.9720   46.9720 C   0  0  0  0  0  0  0  0  0  0  0  0
   59.6820   34.3710   46.3620 C   0  0  0  0  0  0  0  0  0  0  0  0
   59.1590   34.2860   44.9240 C   0  0  0  0  0  0  0  0  0  0  0  0
   57.8320   33.5230   44.8690 C   0  0  0  0  0  0  0  0  0  0  0  0
   56.9020   28.5990   45.2490 C   0  0  0  0  0  0  0  0  0  0  0  0
   55.5190   28.7660   45.2400 O   0  0  0  0  0  0  0  0  0  0  0  0
   54.5060   24.0530   46.0160 C   0  0  0  0  0  0  0  0  0  0  0  0
   51.7560   24.7646   44.5624 H   0  0  0  0  0  0  0  0  0  0  0  0
   53.0017   23.8147   43.6835 H   0  0  0  0  0  0  0  0  0  0  0  0
   51.2904   23.2688   43.6835 H   0  0  0  0  0  0  0  0  0  0  0  0
   51.2967   22.2581   47.1864 H   0  0  0  0  0  0  0  0  0  0  0  0
   50.2659   22.6430   45.7665 H   0  0  0  0  0  0  0  0  0  0  0  0
   51.2764   21.1580   45.7665 H   0  0  0  0  0  0  0  0  0  0  0  0
   53.4690   20.8908   46.8219 H   0  0  0  0  0  0  0  0  0  0  0  0
   55.7438   20.8355   47.8246 H   0  0  0  0  0  0  0  0  0  0  0  0
   57.2312   22.8241   47.6798 H   0  0  0  0  0  0  0  0  0  0  0  0
   55.9780   25.9440   44.6250 H   0  0  0  0  0  0  0  0  0  0  0  0
   59.2618   26.1156   45.3066 H   0  0  0  0  0  0  0  0  0  0  0  0
   60.7690   28.0903   45.1449 H   0  0  0  0  0  0  0  0  0  0  0  0
   59.8184   30.3890   45.0534 H   0  0  0  0  0  0  0  0  0  0  0  0
   57.7733   32.7000   47.5895 H   0  0  0  0  0  0  0  0  0  0  0  0
   58.6610   31.1742   47.2266 H   0  0  0  0  0  0  0  0  0  0  0  0
   60.1428   33.0665   48.0212 H   0  0  0  0  0  0  0  0  0  0  0  0
   60.5761   32.4107   46.3956 H   0  0  0  0  0  0  0  0  0  0  0  0
   58.9765   34.9580   46.9683 H   0  0  0  0  0  0  0  0  0  0  0  0
   60.6702   34.8540   46.3500 H   0  0  0  0  0  0  0  0  0  0  0  0
   59.0056   35.3037   44.5359 H   0  0  0  0  0  0  0  0  0  0  0  0
   59.8988   33.7489   44.3123 H   0  0  0  0  0  0  0  0  0  0  0  0
   57.0512   34.1162   45.3674 H   0  0  0  0  0  0  0  0  0  0  0  0
   57.5606   33.3518   43.8168 H   0  0  0  0  0  0  0  0  0  0  0  0
   54.1635   24.9603   45.4969 H   0  0  0  0  0  0  0  0  0  0  0  0
  1  2  1  0
  2  3  1  0
  2  4  1  0
  4  5  2  0
  5  6  1  0
  6  7  2  0
  7  8  1  0
  8  9  1  0
  9 10  2  0
  9 11  1  0
 11 12  1  0
 12 13  2  0
 13 14  1  0
 14 15  2  0
 15 16  1  0
 16 17  1  0
 17 18  2  0
 17 19  1  0
 19 20  1  0
 20 21  1  0
 21 22  1  0
 22 23  1  0
 23 24  1  0
 16 25  2  0
 25 26  1  0
  8 27  2  0
 27  4  1  0
 25 12  1  0
 24 19  1  0
  1 28  1  0
  1 29  1  0
  1 30  1  0
  3 31  1  0
  3 32  1  0
  3 33  1  0
  5 34  1  0
  6 35  1  0
  7 36  1  0
 11 37  1  0
 13 38  1  0
 14 39  1  0
 15 40  1  0
 20 41  1  0
 20 42  1  0
 21 43  1  0
 21 44  1  0
 22 45  1  0
 22 46  1  0
 23 47  1  0
 23 48  1  0
 24 49  1  0
 24 50  1  0
 27 51  1  0
M  CHG  1  26  -1
M  END
>  <UniqueID>  (51) 
47

>  <SMILES>  (51) 
CN(C)c1cccc(C(=O)Nc2cccc(C(=O)N3CCCCC3)c2[O-])c1

>  <Energy>  (51) 
63.12017075930128

>  <Genealogy>  (51) 
CN(C)c1cccc(C(=O)Nc2cccc(C(=O)N3CCCCC3)c2[O-])c1 (protonated)
CN(C)c1cccc(C(=O)Nc2cccc(C(=O)N3CCCCC3)c2[O-])c1 (3D coordinates assigned)
CN(C)c1cccc(C(=O)Nc2cccc(C(=O)N3CCCCC3)c2[O-])c1 (nonaromatic ring conformer: 63.12017075930128 kcal/mol)

>  <smiles>  (51) 
CN(C)c1cccc(C(=O)Nc2cccc(C(=O)N3CCCCC3)c2O)c1

>  <score_type>  (51) 
oracle

>  <origin>  (51) 
adg

>  <m_score__min__energy>  (51) 
-11.81

>  <m_primary>  (51) 
energy

$$$$
51:0
     RDKit          3D

 61 63  0  0  0  0  0  0  0  0999 V2000
   58.8840   33.3590   51.6370 C   0  0  0  0  0  0  0  0  0  0  0  0
   58.0380   32.2740   50.9840 C   0  0  0  0  0  0  0  0  0  0  0  0
   58.9130   31.2270   50.2850 C   0  0  0  0  0  0  0  0  0  0  0  0
   59.6530   30.3580   51.3100 C   0  0  0  0  0  0  0  0  0  0  0  0
   60.8370   29.6270   50.6680 C   0  0  0  0  0  0  0  0  0  0  0  0
   60.4000   28.4030   50.0000 N   0  0  0  0  0  0  0  0  0  0  0  0
   60.3870   28.1700   48.5840 C   0  0  0  0  0  0  0  0  0  0  0  0
   60.8910   27.1050   48.1400 O   0  0  0  0  0  0  0  0  0  0  0  0
   59.7640   29.1190   47.6390 C   0  0  0  0  0  0  0  0  0  0  0  0
   60.3280   30.3900   47.4580 C   0  0  0  0  0  0  0  0  0  0  0  0
   59.7060   31.3450   46.6440 C   0  0  0  0  0  0  0  0  0  0  0  0
   60.2760   32.6530   46.5050 N   0  0  0  0  0  0  0  0  0  0  0  0
   59.5450   34.0450   47.2350 S   0  0  0  0  0  0  0  0  0  0  0  0
   59.5390   35.1690   46.2370 O   0  0  0  0  0  0  0  0  0  0  0  0
   58.1250   33.7260   47.6110 O   0  0  0  0  0  0  0  0  0  0  0  0
   60.4630   34.5500   48.6840 C   0  0  0  0  0  0  0  0  0  0  0  0
   61.7380   33.7620   48.7930 C   0  0  0  0  0  0  0  0  0  0  0  0
   62.7180   33.8500   47.7890 C   0  0  0  0  0  0  0  0  0  0  0  0
   63.9200   33.1450   47.9130 C   0  0  0  0  0  0  0  0  0  0  0  0
   64.1550   32.3550   49.0420 C   0  0  0  0  0  0  0  0  0  0  0  0
   63.1880   32.2690   50.0510 C   0  0  0  0  0  0  0  0  0  0  0  0
   61.9840   32.9710   49.9300 C   0  0  0  0  0  0  0  0  0  0  0  0
   58.5100   31.0110   45.9840 C   0  0  0  0  0  0  0  0  0  0  0  0
   57.5950   32.2310   45.0340 S   0  0  0  0  0  0  0  0  0  0  0  0
   56.6740   30.9650   44.1750 C   0  0  0  0  0  0  0  0  0  0  0  0
   57.1080   30.3680   43.0500 N   0  0  0  0  0  0  0  0  0  0  0  0
   56.1260   29.4790   42.8160 C   0  0  0  0  0  0  0  0  0  0  0  0
   55.1600   29.5290   43.7460 N   0  0  0  0  0  0  0  0  0  0  0  0
   55.5080   30.4660   44.6090 N   0  0  0  0  0  0  0  0  0  0  0  0
   57.9660   29.7310   46.1280 C   0  0  0  0  0  0  0  0  0  0  0  0
   58.5790   28.7780   46.9590 C   0  0  0  0  0  0  0  0  0  0  0  0
   57.9960   27.4830   47.1740 N   0  0  0  0  0  0  0  0  0  0  0  0
   56.8690   26.6940   46.1210 S   0  0  0  0  0  0  0  0  0  0  0  0
   57.7310   25.9910   44.7320 C   0  0  0  0  0  0  0  0  0  0  0  0
   55.8860   27.7110   45.6210 O   0  0  0  0  0  0  0  0  0  0  0  0
   56.1240   25.6270   46.8680 O   0  0  0  0  0  0  0  0  0  0  0  0
   58.8143   33.2695   52.7311 H   0  0  0  0  0  0  0  0  0  0  0  0
   59.9327   33.2433   51.3258 H   0  0  0  0  0  0  0  0  0  0  0  0
   58.5161   34.3478   51.3258 H   0  0  0  0  0  0  0  0  0  0  0  0
   57.4342   31.7770   51.7575 H   0  0  0  0  0  0  0  0  0  0  0  0
   57.3928   32.7460   50.2284 H   0  0  0  0  0  0  0  0  0  0  0  0
   58.2753   30.5835   49.6611 H   0  0  0  0  0  0  0  0  0  0  0  0
   59.6569   31.7487   49.6649 H   0  0  0  0  0  0  0  0  0  0  0  0
   60.0256   31.0000   52.1217 H   0  0  0  0  0  0  0  0  0  0  0  0
   58.9507   29.6065   51.6998 H   0  0  0  0  0  0  0  0  0  0  0  0
   61.3107   30.2900   49.9291 H   0  0  0  0  0  0  0  0  0  0  0  0
   61.5517   29.3570   51.4594 H   0  0  0  0  0  0  0  0  0  0  0  0
   61.2727   30.6406   47.9627 H   0  0  0  0  0  0  0  0  0  0  0  0
   60.9890   32.8300   45.7600 H   0  0  0  0  0  0  0  0  0  0  0  0
   60.7033   35.6206   48.6067 H   0  0  0  0  0  0  0  0  0  0  0  0
   59.8502   34.3656   49.5787 H   0  0  0  0  0  0  0  0  0  0  0  0
   62.5390   34.4758   46.9022 H   0  0  0  0  0  0  0  0  0  0  0  0
   64.6808   33.2124   47.1214 H   0  0  0  0  0  0  0  0  0  0  0  0
   65.1002   31.8005   49.1378 H   0  0  0  0  0  0  0  0  0  0  0  0
   63.3753   31.6487   50.9399 H   0  0  0  0  0  0  0  0  0  0  0  0
   61.2277   32.9043   50.7260 H   0  0  0  0  0  0  0  0  0  0  0  0
   56.1160   28.7891   41.9593 H   0  0  0  0  0  0  0  0  0  0  0  0
   57.0470   29.4668   45.5842 H   0  0  0  0  0  0  0  0  0  0  0  0
   58.5360   25.3345   45.0941 H   0  0  0  0  0  0  0  0  0  0  0  0
   57.0273   25.4059   44.1217 H   0  0  0  0  0  0  0  0  0  0  0  0
   58.1626   26.7980   44.1217 H   0  0  0  0  0  0  0  0  0  0  0  0
  1  2  1  0
  2  3  1  0
  3  4  1  0
  4  5  1  0
  5  6  1  0
  6  7  1  0
  7  8  2  0
  7  9  1  0
  9 10  2  0
 10 11  1  0
 11 12  1  0
 12 13  1  0
 13 14  2  0
 13 15  2  0
 13 16  1  0
 16 17  1  0
 17 18  2  0
 18 19  1  0
 19 20  2  0
 20 21  1  0
 21 22  2  0
 11 23  2  0
 23 24  1  0
 24 25  1  0
 25 26  1  0
 26 27  2  0
 27 28  1  0
 28 29  1  0
 23 30  1  0
 30 31  2  0
 31 32  1  0
 32 33  1  0
 33 34  1  0
 33 35  2  0
 33 36  2  0
 31  9  1  0
 22 17  1  0
 29 25  2  0
  1 37  1  0
  1 38  1  0
  1 39  1  0
  2 40  1  0
  2 41  1  0
  3 42  1  0
  3 43  1  0
  4 44  1  0
  4 45  1  0
  5 46  1  0
  5 47  1  0
 10 48  1  0
 12 49  1  0
 16 50  1  0
 16 51  1  0
 18 52  1  0
 19 53  1  0
 20 54  1  0
 21 55  1  0
 22 56  1  0
 27 57  1  0
 30 58  1  0
 34 59  1  0
 34 60  1  0
 34 61  1  0
M  CHG  3   6  -1  28  -1  32  -1
M  END
>  <UniqueID>  (52) 
48

>  <SMILES>  (52) 
CCCCC[N-]C(=O)c1cc(NS(=O)(=O)Cc2ccccc2)c(Sc2nc[n-]n2)cc1[N-]S(C)(=O)=O

>  <Energy>  (52) 
81.33734530755716

>  <Genealogy>  (52) 
CCCCC[N-]C(=O)c1cc(NS(=O)(=O)Cc2ccccc2)c(Sc2nc[n-]n2)cc1[N-]S(C)(=O)=O (protonated)
CCCCC[N-]C(=O)c1cc(NS(=O)(=O)Cc2ccccc2)c(Sc2nc[n-]n2)cc1[N-]S(C)(=O)=O (3D coordinates assigned)
CCCCC[N-]C(=O)c1cc(NS(=O)(=O)Cc2ccccc2)c(Sc2nc[n-]n2)cc1[N-]S(C)(=O)=O (optimized conformer: 81.33734530755716 kcal/mol)

>  <smiles>  (52) 
CCCCCNC(=O)c1cc(NS(=O)(=O)Cc2ccccc2)c(Sc2nc[nH]n2)cc1NS(C)(=O)=O

>  <score_type>  (52) 
oracle

>  <origin>  (52) 
adg

>  <m_score__min__energy>  (52) 
-13.960000000000001

>  <m_primary>  (52) 
energy

$$$$
52:0
     RDKit          3D

 46 48  0  0  1  0  0  0  0  0999 V2000
   57.1610   28.9630   43.2940 N   0  0  0  0  0  0  0  0  0  0  0  0
   56.6220   30.1030   43.9700 C   0  0  0  0  0  0  0  0  0  0  0  0
   55.7430   29.9150   44.8490 O   0  0  0  0  0  0  0  0  0  0  0  0
   57.1230   31.3670   43.5970 N   0  0  0  0  0  0  0  0  0  0  0  0
   57.6590   32.1650   44.4390 C   0  0  0  0  0  0  0  0  0  0  0  0
   58.3050   33.2450   43.9650 N   0  0  0  0  0  0  0  0  0  0  0  0
   58.8600   34.0650   44.8680 C   0  0  0  0  0  0  0  0  0  0  0  0
   58.7860   33.8320   46.2410 C   0  0  0  0  0  0  0  0  0  0  0  0
   59.4360   34.8310   47.1170 C   0  0  0  0  0  0  0  0  0  0  0  0
   60.6530   34.2680   47.7300 C   0  0  0  0  0  0  0  0  0  0  0  0
   60.8830   34.1370   49.0630 C   0  0  0  0  0  0  0  0  0  0  0  0
   62.0770   33.5900   49.5390 C   0  0  0  0  0  0  0  0  0  0  0  0
   63.0690   33.1620   48.6950 C   0  0  0  0  0  0  0  0  0  0  0  0
   64.2710   32.6110   49.1340 O   0  0  0  0  0  0  0  0  0  0  0  0
   62.8420   33.2920   47.3200 C   0  0  0  0  0  0  0  0  0  0  0  0
   63.8050   32.8770   46.3920 O   0  0  0  0  0  0  0  0  0  0  0  0
   61.6480   33.8380   46.8660 C   0  0  0  0  0  0  0  0  0  0  0  0
   58.1180   32.7180   46.6970 C   0  0  0  0  0  0  0  0  0  0  0  0
   58.0400   32.4710   47.9340 N   0  0  0  0  0  0  0  0  0  0  0  0
   58.9310   31.5900   48.5980 C   0  0  0  0  0  0  0  0  0  0  0  0
   59.2980   30.5140   47.6320 C   0  0  0  0  0  0  0  0  0  0  0  0
   58.5200   29.3680   47.4760 C   0  0  0  0  0  0  0  0  0  0  0  0
   58.8920   28.3960   46.5760 C   0  0  0  0  0  0  0  0  0  0  0  0
   60.0210   28.4880   45.7930 C   0  0  0  0  0  0  0  0  0  0  0  0
   60.7920   29.6200   45.9440 C   0  0  0  0  0  0  0  0  0  0  0  0
   60.4430   30.6000   46.8330 C   0  0  0  0  0  0  0  0  0  0  0  0
   57.5720   31.9160   45.7650 N   0  0  0  0  0  0  0  0  0  0  0  0
   57.9930   29.0100   42.6770 H   0  0  0  0  0  0  0  0  0  0  0  0
   56.7210   28.0220   43.4030 H   0  0  0  0  0  0  0  0  0  0  0  0
   58.3750   33.4440   42.9430 H   0  0  0  0  0  0  0  0  0  0  0  0
   59.3953   34.9576   44.5120 H   0  0  0  0  0  0  0  0  0  0  0  0
   59.7071   35.7140   46.5197 H   0  0  0  0  0  0  0  0  0  0  0  0
   58.7341   35.1134   47.9155 H   0  0  0  0  0  0  0  0  0  0  0  0
   60.1161   34.4672   49.7791 H   0  0  0  0  0  0  0  0  0  0  0  0
   62.2260   33.4998   50.6251 H   0  0  0  0  0  0  0  0  0  0  0  0
   64.9180   32.3460   48.4010 H   0  0  0  0  0  0  0  0  0  0  0  0
   64.6240   32.3680   46.7490 H   0  0  0  0  0  0  0  0  0  0  0  0
   61.4864   33.9325   45.7821 H   0  0  0  0  0  0  0  0  0  0  0  0
   59.8327   32.1351   48.9139 H   0  0  0  0  0  0  0  0  0  0  0  0
   58.4579   31.1622   49.4942 H   0  0  0  0  0  0  0  0  0  0  0  0
   57.6058   29.2403   48.0743 H   0  0  0  0  0  0  0  0  0  0  0  0
   58.2574   27.5030   46.4773 H   0  0  0  0  0  0  0  0  0  0  0  0
   60.2944   27.6955   45.0808 H   0  0  0  0  0  0  0  0  0  0  0  0
   61.7035   29.7379   45.3397 H   0  0  0  0  0  0  0  0  0  0  0  0
   61.0863   31.4878   46.9226 H   0  0  0  0  0  0  0  0  0  0  0  0
   57.0540   31.0630   46.0370 H   0  0  0  0  0  0  0  0  0  0  0  0
  1  2  1  0
  2  3  2  0
  2  4  1  0
  4  5  2  0
  5  6  1  0
  6  7  1  0
  7  8  2  0
  8  9  1  0
  9 10  1  0
 10 11  2  0
 11 12  1  0
 12 13  2  0
 13 14  1  0
 13 15  1  0
 15 16  1  0
 15 17  2  0
  8 18  1  0
 18 19  2  0
 19 20  1  0
 20 21  1  0
 21 22  2  0
 22 23  1  0
 23 24  2  0
 24 25  1  0
 25 26  2  0
 18 27  1  0
 27  5  1  0
 17 10  1  0
 26 21  1  0
  1 28  1  0
  1 29  1  0
  6 30  1  0
  7 31  1  0
  9 32  1  0
  9 33  1  0
 11 34  1  0
 12 35  1  0
 14 36  1  0
 16 37  1  0
 17 38  1  0
 20 39  1  0
 20 40  1  0
 22 41  1  0
 23 42  1  0
 24 43  1  0
 25 44  1  0
 26 45  1  0
 27 46  1  0
M  END
>  <smiles>  (53) 
NC(=O)N=c1[nH]cc(Cc2ccc(O)c(O)c2)c(=NCc2ccccc2)[nH]1

>  <score_type>  (53) 
oracle

>  <origin>  (53) 
adg

>  <m_score__min__energy>  (53) 
-8.5299999999999994

>  <m_primary>  (53) 
energy

$$$$
53:0
     RDKit          3D

 53 56  0  0  0  0  0  0  0  0999 V2000
   67.4780   33.3650   50.7770 C   0  0  0  0  0  0  0  0  0  0  0  0
   66.6090   32.9510   49.7310 O   0  0  0  0  0  0  0  0  0  0  0  0
   65.2240   32.7780   49.8700 C   0  0  0  0  0  0  0  0  0  0  0  0
   64.6350   32.3510   51.0750 C   0  0  0  0  0  0  0  0  0  0  0  0
   63.2490   32.2030   51.1680 C   0  0  0  0  0  0  0  0  0  0  0  0
   62.4360   32.4760   50.0640 C   0  0  0  0  0  0  0  0  0  0  0  0
   61.0930   32.3370   50.1600 N   0  0  0  0  0  0  0  0  0  0  0  0
   60.2760   32.5930   49.1080 C   0  0  0  0  0  0  0  0  0  0  0  0
   58.5040   32.3500   49.3330 S   0  0  0  0  0  0  0  0  0  0  0  0
   58.7040   30.8950   50.4100 C   0  0  0  0  0  0  0  0  0  0  0  0
   59.5050   29.8610   49.6880 C   0  0  0  0  0  0  0  0  0  0  0  0
   60.2770   29.1040   50.3360 O   0  0  0  0  0  0  0  0  0  0  0  0
   59.3590   29.7060   48.2710 N   0  0  0  0  0  0  0  0  0  0  0  0
   60.0740   28.6680   47.5350 C   0  0  0  0  0  0  0  0  0  0  0  0
   59.5640   28.5760   46.0940 C   0  0  0  0  0  0  0  0  0  0  0  0
   58.2410   27.8560   46.0420 C   0  0  0  0  0  0  0  0  0  0  0  0
   57.1100   28.4880   45.5060 C   0  0  0  0  0  0  0  0  0  0  0  0
   55.9120   27.8480   45.4950 N   0  0  0  0  0  0  0  0  0  0  0  0
   55.7830   26.5970   46.0070 C   0  0  0  0  0  0  0  0  0  0  0  0
   54.6640   26.0200   45.9880 O   0  0  0  0  0  0  0  0  0  0  0  0
   56.8600   25.9650   46.5420 N   0  0  0  0  0  0  0  0  0  0  0  0
   58.0790   26.5630   46.5740 C   0  0  0  0  0  0  0  0  0  0  0  0
   59.0540   25.9500   47.0850 O   0  0  0  0  0  0  0  0  0  0  0  0
   60.8000   32.9980   47.9060 N   0  0  0  0  0  0  0  0  0  0  0  0
   59.9340   33.2640   46.7870 C   0  0  0  0  0  0  0  0  0  0  0  0
   59.2490   32.2130   46.1560 C   0  0  0  0  0  0  0  0  0  0  0  0
   58.4030   32.4750   45.0740 C   0  0  0  0  0  0  0  0  0  0  0  0
   58.2370   33.7850   44.6150 C   0  0  0  0  0  0  0  0  0  0  0  0
   58.9220   34.8360   45.2340 C   0  0  0  0  0  0  0  0  0  0  0  0
   59.7710   34.5780   46.3150 C   0  0  0  0  0  0  0  0  0  0  0  0
   62.1560   33.1490   47.7640 C   0  0  0  0  0  0  0  0  0  0  0  0
   62.6390   33.5190   46.6560 O   0  0  0  0  0  0  0  0  0  0  0  0
   63.0120   32.8940   48.8510 C   0  0  0  0  0  0  0  0  0  0  0  0
   64.4080   33.0450   48.7640 C   0  0  0  0  0  0  0  0  0  0  0  0
   67.0132   33.1436   51.7491 H   0  0  0  0  0  0  0  0  0  0  0  0
   68.4329   32.8251   50.6957 H   0  0  0  0  0  0  0  0  0  0  0  0
   67.6603   34.4467   50.6957 H   0  0  0  0  0  0  0  0  0  0  0  0
   65.2688   32.1329   51.9472 H   0  0  0  0  0  0  0  0  0  0  0  0
   62.7957   31.8704   52.1134 H   0  0  0  0  0  0  0  0  0  0  0  0
   59.2264   31.1882   51.3326 H   0  0  0  0  0  0  0  0  0  0  0  0
   57.7162   30.4858   50.6686 H   0  0  0  0  0  0  0  0  0  0  0  0
   58.7180   30.3560   47.7610 H   0  0  0  0  0  0  0  0  0  0  0  0
   61.1474   28.9082   47.5233 H   0  0  0  0  0  0  0  0  0  0  0  0
   59.9040   27.7016   48.0322 H   0  0  0  0  0  0  0  0  0  0  0  0
   59.4386   29.5913   45.6898 H   0  0  0  0  0  0  0  0  0  0  0  0
   60.2960   28.0144   45.4950 H   0  0  0  0  0  0  0  0  0  0  0  0
   57.1931   29.5043   45.0935 H   0  0  0  0  0  0  0  0  0  0  0  0
   59.3783   31.1809   46.5139 H   0  0  0  0  0  0  0  0  0  0  0  0
   57.8673   31.6491   44.5832 H   0  0  0  0  0  0  0  0  0  0  0  0
   57.5674   33.9895   43.7666 H   0  0  0  0  0  0  0  0  0  0  0  0
   58.7928   35.8660   44.8702 H   0  0  0  0  0  0  0  0  0  0  0  0
   60.3125   35.4053   46.7970 H   0  0  0  0  0  0  0  0  0  0  0  0
   64.8626   33.3758   47.8185 H   0  0  0  0  0  0  0  0  0  0  0  0
  1  2  1  0
  2  3  1  0
  3  4  2  0
  4  5  1  0
  5  6  2  0
  6  7  1  0
  7  8  2  0
  8  9  1  0
  9 10  1  0
 10 11  1  0
 11 12  2  0
 11 13  1  0
 13 14  1  0
 14 15  1  0
 15 16  1  0
 16 17  2  0
 17 18  1  0
 18 19  1  0
 19 20  2  0
 19 21  1  0
 21 22  1  0
 22 23  2  0
  8 24  1  0
 24 25  1  0
 25 26  2  0
 26 27  1  0
 27 28  2  0
 28 29  1  0
 29 30  2  0
 24 31  1  0
 31 32  2  0
 31 33  1  0
 33 34  2  0
 34  3  1  0
 33  6  1  0
 22 16  1  0
 30 25  1  0
  1 35  1  0
  1 36  1  0
  1 37  1  0
  4 38  1  0
  5 39  1  0
 10 40  1  0
 10 41  1  0
 13 42  1  0
 14 43  1  0
 14 44  1  0
 15 45  1  0
 15 46  1  0
 17 47  1  0
 26 48  1  0
 27 49  1  0
 28 50  1  0
 29 51  1  0
 30 52  1  0
 34 53  1  0
M  CHG  2  18  -1  21  -1
M  END
>  <UniqueID>  (54) 
49

>  <SMILES>  (54) 
COc1ccc2nc(SCC(=O)NCCc3c[n-]c(=O)[n-]c3=O)n(-c3ccccc3)c(=O)c2c1

>  <Energy>  (54) 
61.46621572210676

>  <Genealogy>  (54) 
COc1ccc2nc(SCC(=O)NCCc3c[n-]c(=O)[n-]c3=O)n(-c3ccccc3)c(=O)c2c1 (protonated)
COc1ccc2nc(SCC(=O)NCCc3c[n-]c(=O)[n-]c3=O)n(-c3ccccc3)c(=O)c2c1 (3D coordinates assigned)
COc1ccc2nc(SCC(=O)NCCc3c[n-]c(=O)[n-]c3=O)n(-c3ccccc3)c(=O)c2c1 (optimized conformer: 61.46621572210676 kcal/mol)

>  <smiles>  (54) 
COc1ccc2nc(SCC(=O)NCCc3c[nH]c(=O)[nH]c3=O)n(-c3ccccc3)c(=O)c2c1

>  <score_type>  (54) 
oracle

>  <origin>  (54) 
adg

>  <m_score__min__energy>  (54) 
-13.74

>  <m_primary>  (54) 
energy

$$$$
54:0
     RDKit          3D

 30 32  0  0  0  0  0  0  0  0999 V2000
   55.9557   30.2788   42.4221 H   0  0  0  0  0  0  0  0  0  0  0  0
   56.5590   30.3210   43.3410 C   0  0  0  0  0  0  0  0  0  0  0  0
   58.1260   30.9150   43.4750 S   0  0  0  0  0  0  0  0  0  0  0  0
   58.2330   30.5840   45.1220 C   0  0  0  0  0  0  0  0  0  0  0  0
   59.3970   30.9300   45.9900 C   0  0  0  0  0  0  0  0  0  0  0  0
   59.1323   31.7831   46.6320 H   0  0  0  0  0  0  0  0  0  0  0  0
   60.2558   31.1943   45.3555 H   0  0  0  0  0  0  0  0  0  0  0  0
   59.7600   29.7580   46.8470 C   0  0  0  0  0  0  0  0  0  0  0  0
   60.0020   28.5290   46.3120 N   0  0  0  0  0  0  0  0  0  0  0  0
   60.3530   27.6340   47.2580 C   0  0  0  0  0  0  0  0  0  0  0  0
   60.6610   26.4050   46.9660 N   0  0  0  0  0  0  0  0  0  0  0  0
   59.7750   25.4220   46.4100 C   0  0  0  0  0  0  0  0  0  0  0  0
   60.2720   24.3730   45.9230 O   0  0  0  0  0  0  0  0  0  0  0  0
   58.3120   25.6510   46.3120 C   0  0  0  0  0  0  0  0  0  0  0  0
   57.8250   26.8410   45.7400 C   0  0  0  0  0  0  0  0  0  0  0  0
   58.5322   27.6015   45.3775 H   0  0  0  0  0  0  0  0  0  0  0  0
   56.4500   27.0640   45.6290 C   0  0  0  0  0  0  0  0  0  0  0  0
   56.0796   28.0001   45.1858 H   0  0  0  0  0  0  0  0  0  0  0  0
   55.5450   26.1000   46.0800 C   0  0  0  0  0  0  0  0  0  0  0  0
   54.1780   26.3240   45.9690 O   0  0  0  0  0  0  0  0  0  0  0  0
   56.0150   24.9100   46.6420 C   0  0  0  0  0  0  0  0  0  0  0  0
   55.3010   24.1504   46.9930 H   0  0  0  0  0  0  0  0  0  0  0  0
   57.3900   24.6810   46.7600 C   0  0  0  0  0  0  0  0  0  0  0  0
   57.8300   23.4930   47.3370 O   0  0  0  0  0  0  0  0  0  0  0  0
   60.4120   28.3400   48.7900 S   0  0  0  0  0  0  0  0  0  0  0  0
   59.9440   29.8530   48.2250 C   0  0  0  0  0  0  0  0  0  0  0  0
   59.8073   30.7579   48.8353 H   0  0  0  0  0  0  0  0  0  0  0  0
   57.0860   30.0450   45.5920 N   0  0  0  0  0  0  0  0  0  0  0  0
   56.1650   29.8930   44.6030 C   0  0  0  0  0  0  0  0  0  0  0  0
   54.9120   29.3500   44.8500 O   0  0  0  0  0  0  0  0  0  0  0  0
  1  2  1  0
  2  3  1  0
  3  4  1  0
  4  5  1  0
  5  6  1  0
  5  7  1  0
  5  8  1  0
  8  9  1  0
  9 10  1  0
 10 11  2  0
 11 12  1  0
 12 13  2  0
 12 14  1  0
 14 15  2  0
 15 16  1  0
 15 17  1  0
 17 18  1  0
 17 19  2  0
 19 20  1  0
 19 21  1  0
 21 22  1  0
 21 23  2  0
 23 24  1  0
 10 25  1  0
 25 26  1  0
 26 27  1  0
  4 28  2  0
 28 29  1  0
 29 30  1  0
 29  2  2  0
 26  8  2  0
 23 14  1  0
M  CHG  4   9  -1  20  -1  24  -1  30  -1
M  END
>  <UniqueID>  (55) 
50

>  <SMILES>  (55) 
O=C(/N=c1/[n-]c(Cc2nc([O-])cs2)cs1)c1ccc([O-])cc1[O-]

>  <Energy>  (55) 
99.60709054900387

>  <Genealogy>  (55) 
O=C(N=c1[n-]c(Cc2nc([O-])cs2)cs1)c1ccc([O-])cc1[O-] (protonated)
O=C(/N=c1/[n-]c(Cc2nc([O-])cs2)cs1)c1ccc([O-])cc1[O-] (cis-trans isomerization)
O=C(/N=c1/[n-]c(Cc2nc([O-])cs2)cs1)c1ccc([O-])cc1[O-] (3D coordinates assigned)
O=C(/N=c1/[n-]c(Cc2nc([O-])cs2)cs1)c1ccc([O-])cc1[O-] (optimized conformer: 99.60709054900387 kcal/mol)

>  <smiles>  (55) 
O=C(N=c1[nH]c(Cc2nc(O)cs2)cs1)c1ccc(O)cc1O

>  <score_type>  (55) 
oracle

>  <origin>  (55) 
adg

>  <m_score__min__energy>  (55) 
-16.969999999999999

>  <m_primary>  (55) 
energy

$$$$
55:0
     RDKit          3D

 40 42  0  0  0  0  0  0  0  0999 V2000
   54.3900   26.7210   45.2760 H   0  0  0  0  0  0  0  0  0  0  0  0
   54.0810   25.8220   45.6250 O   0  0  0  0  0  0  0  0  0  0  0  0
   54.8520   24.6750   45.4560 C   0  0  0  0  0  0  0  0  0  0  0  0
   54.4910   23.6540   44.6600 N   0  0  0  0  0  0  0  0  0  0  0  0
   55.5260   22.7970   44.7900 C   0  0  0  0  0  0  0  0  0  0  0  0
   55.5730   21.6960   44.1830 O   0  0  0  0  0  0  0  0  0  0  0  0
   56.5110   23.2180   45.6120 N   0  0  0  0  0  0  0  0  0  0  0  0
   56.0620   24.4060   46.0550 C   0  0  0  0  0  0  0  0  0  0  0  0
   56.8450   25.3420   46.8880 C   0  0  0  0  0  0  0  0  0  0  0  0
   57.1327   24.9903   47.8898 H   0  0  0  0  0  0  0  0  0  0  0  0
   57.2430   26.5850   46.5440 C   0  0  0  0  0  0  0  0  0  0  0  0
   56.3350   27.3780   45.9110 N   0  0  0  0  0  0  0  0  0  0  0  0
   56.6240   28.6420   45.5060 C   0  0  0  0  0  0  0  0  0  0  0  0
   55.7420   29.3220   44.9150 O   0  0  0  0  0  0  0  0  0  0  0  0
   57.9020   29.1610   45.7520 C   0  0  0  0  0  0  0  0  0  0  0  0
   58.2360   30.3660   45.3700 C   0  0  0  0  0  0  0  0  0  0  0  0
   58.5720   31.5690   44.9880 C   0  0  0  0  0  0  0  0  0  0  0  0
   58.4390   31.8560   43.9345 H   0  0  0  0  0  0  0  0  0  0  0  0
   59.1300   32.5580   45.9460 C   0  0  0  0  0  0  0  0  0  0  0  0
   60.1690   32.2580   46.7750 C   0  0  0  0  0  0  0  0  0  0  0  0
   60.8700   30.9220   46.7410 C   0  0  0  0  0  0  0  0  0  0  0  0
   61.0512   30.5767   47.7696 H   0  0  0  0  0  0  0  0  0  0  0  0
   60.2396   30.1904   46.2143 H   0  0  0  0  0  0  0  0  0  0  0  0
   61.8302   31.0250   46.2143 H   0  0  0  0  0  0  0  0  0  0  0  0
   60.7450   33.3330   47.6710 C   0  0  0  0  0  0  0  0  0  0  0  0
   61.4935   33.9086   47.1068 H   0  0  0  0  0  0  0  0  0  0  0  0
   61.2082   32.8504   48.5443 H   0  0  0  0  0  0  0  0  0  0  0  0
   59.6500   34.2820   48.1620 C   0  0  0  0  0  0  0  0  0  0  0  0
   60.1144   35.1481   48.6561 H   0  0  0  0  0  0  0  0  0  0  0  0
   59.0031   33.7468   48.8726 H   0  0  0  0  0  0  0  0  0  0  0  0
   58.8200   34.7570   47.0060 C   0  0  0  0  0  0  0  0  0  0  0  0
   58.4358   35.7877   46.9992 H   0  0  0  0  0  0  0  0  0  0  0  0
   58.5410   33.9370   45.9790 C   0  0  0  0  0  0  0  0  0  0  0  0
   57.6380   34.4160   44.8720 C   0  0  0  0  0  0  0  0  0  0  0  0
   56.7452   34.8896   45.3062 H   0  0  0  0  0  0  0  0  0  0  0  0
   58.1757   35.1475   44.2508 H   0  0  0  0  0  0  0  0  0  0  0  0
   57.3339   33.5606   44.2508 H   0  0  0  0  0  0  0  0  0  0  0  0
   58.8090   28.3960   46.4090 N   0  0  0  0  0  0  0  0  0  0  0  0
   58.5220   27.1350   46.8240 C   0  0  0  0  0  0  0  0  0  0  0  0
   59.3900   26.5060   47.4850 O   0  0  0  0  0  0  0  0  0  0  0  0
  1  2  1  0
  2  3  1  0
  3  4  1  0
  4  5  1  0
  5  6  2  0
  5  7  1  0
  7  8  1  0
  8  9  1  0
  9 10  1  0
  9 11  2  0
 11 12  1  0
 12 13  1  0
 13 14  2  0
 13 15  1  0
 15 16  2  0
 16 17  2  0
 17 18  1  0
 17 19  1  0
 19 20  2  0
 20 21  1  0
 21 22  1  0
 21 23  1  0
 21 24  1  0
 20 25  1  0
 25 26  1  0
 25 27  1  0
 25 28  1  0
 28 29  1  0
 28 30  1  0
 28 31  1  0
 31 32  1  0
 31 33  2  0
 33 34  1  0
 34 35  1  0
 34 36  1  0
 34 37  1  0
 15 38  1  0
 38 39  1  0
 39 40  2  0
  8  3  2  0
 39 11  1  0
 33 19  1  0
M  CHG  4   4  -1   7  -1  12  -1  38  -1
M  END
>  <UniqueID>  (56) 
51

>  <SMILES>  (56) 
CC1=CCCC(C)=C1C=C=c1[n-]c(=O)/c(=C\c2[n-]c(=O)[n-]c2O)[n-]c1=O

>  <Energy>  (56) 
86.56770428311214

>  <Genealogy>  (56) 
CC1=CCCC(C)=C1C=C=c1[n-]c(=O)c(=Cc2[n-]c(=O)[n-]c2O)[n-]c1=O (protonated)
CC1=CCCC(C)=C1C=C=c1[n-]c(=O)/c(=C\c2[n-]c(=O)[n-]c2O)[n-]c1=O (cis-trans isomerization)
CC1=CCCC(C)=C1C=C=c1[n-]c(=O)/c(=C\c2[n-]c(=O)[n-]c2O)[n-]c1=O (3D coordinates assigned)
CC1=CCCC(C)=C1C=C=c1[n-]c(=O)/c(=C\c2[n-]c(=O)[n-]c2O)[n-]c1=O (nonaromatic ring conformer: 86.56770428311214 kcal/mol)

>  <smiles>  (56) 
CC1=CCCC(C)=C1C=C=c1[nH]c(=O)c(=Cc2[nH]c(=O)[nH]c2O)[nH]c1=O

>  <score_type>  (56) 
oracle

>  <origin>  (56) 
adg

>  <m_score__min__energy>  (56) 
-15.19

>  <m_primary>  (56) 
energy

$$$$
56:0
     RDKit          3D

 33 34  0  0  0  0  0  0  0  0999 V2000
   55.8920   31.4220   44.8410 O   0  0  0  0  0  0  0  0  0  0  0  0
   56.7300   30.8210   44.1160 C   0  0  0  0  0  0  0  0  0  0  0  0
   57.9000   31.5840   43.5690 C   0  0  0  0  0  0  0  0  0  0  0  0
   58.4240   32.5240   44.6190 C   0  0  0  0  0  0  0  0  0  0  0  0
   58.7950   33.8340   44.2740 C   0  0  0  0  0  0  0  0  0  0  0  0
   59.2190   34.7300   45.2590 C   0  0  0  0  0  0  0  0  0  0  0  0
   59.2680   34.3320   46.5980 C   0  0  0  0  0  0  0  0  0  0  0  0
   59.6900   35.2370   47.5700 O   0  0  0  0  0  0  0  0  0  0  0  0
   58.8910   33.0290   46.9510 C   0  0  0  0  0  0  0  0  0  0  0  0
   58.4650   32.1310   45.9670 C   0  0  0  0  0  0  0  0  0  0  0  0
   56.5810   29.3730   43.8690 C   0  0  0  0  0  0  0  0  0  0  0  0
   56.5660   28.9400   42.6870 O   0  0  0  0  0  0  0  0  0  0  0  0
   56.4030   28.4460   44.9480 N   0  0  0  0  0  0  0  0  0  0  0  0
   57.4540   27.8580   45.7320 C   0  0  0  0  0  0  0  0  0  0  0  0
   58.7210   28.4720   45.7840 C   0  0  0  0  0  0  0  0  0  0  0  0
   59.7570   27.9030   46.5220 C   0  0  0  0  0  0  0  0  0  0  0  0
   59.5520   26.7070   47.2050 C   0  0  0  0  0  0  0  0  0  0  0  0
   58.3110   26.0700   47.1450 C   0  0  0  0  0  0  0  0  0  0  0  0
   57.2490   26.6260   46.4050 C   0  0  0  0  0  0  0  0  0  0  0  0
   55.9470   25.9060   46.3700 C   0  0  0  0  0  0  0  0  0  0  0  0
   55.8640   24.6890   46.6790 O   0  0  0  0  0  0  0  0  0  0  0  0
   54.7870   26.5750   45.9920 O   0  0  0  0  0  0  0  0  0  0  0  0
   58.6936   30.8794   43.2794 H   0  0  0  0  0  0  0  0  0  0  0  0
   57.5807   32.1609   42.6885 H   0  0  0  0  0  0  0  0  0  0  0  0
   58.7516   34.1563   43.2232 H   0  0  0  0  0  0  0  0  0  0  0  0
   59.5152   35.7519   44.9797 H   0  0  0  0  0  0  0  0  0  0  0  0
   59.1850   36.0980   47.7460 H   0  0  0  0  0  0  0  0  0  0  0  0
   58.9302   32.7122   48.0036 H   0  0  0  0  0  0  0  0  0  0  0  0
   58.1607   31.1125   46.2499 H   0  0  0  0  0  0  0  0  0  0  0  0
   58.8942   29.4102   45.2364 H   0  0  0  0  0  0  0  0  0  0  0  0
   60.7378   28.3992   46.5651 H   0  0  0  0  0  0  0  0  0  0  0  0
   60.3691   26.2633   47.7928 H   0  0  0  0  0  0  0  0  0  0  0  0
   58.1606   25.1220   47.6823 H   0  0  0  0  0  0  0  0  0  0  0  0
  1  2  2  0
  2  3  1  0
  3  4  1  0
  4  5  2  0
  5  6  1  0
  6  7  2  0
  7  8  1  0
  7  9  1  0
  9 10  2  0
  2 11  1  0
 11 12  2  0
 11 13  1  0
 13 14  1  0
 14 15  2  0
 15 16  1  0
 16 17  2  0
 17 18  1  0
 18 19  2  0
 19 20  1  0
 20 21  2  0
 20 22  1  0
 10  4  1  0
 19 14  1  0
  3 23  1  0
  3 24  1  0
  5 25  1  0
  6 26  1  0
  8 27  1  0
  9 28  1  0
 10 29  1  0
 15 30  1  0
 16 31  1  0
 17 32  1  0
 18 33  1  0
M  CHG  2  13  -1  22  -1
M  END
>  <UniqueID>  (57) 
52

>  <SMILES>  (57) 
O=C(Cc1ccc(O)cc1)C(=O)[N-]c1ccccc1C(=O)[O-]

>  <Energy>  (57) 
39.010621578127136

>  <Genealogy>  (57) 
O=C(Cc1ccc(O)cc1)C(=O)[N-]c1ccccc1C(=O)[O-] (protonated)
O=C(Cc1ccc(O)cc1)C(=O)[N-]c1ccccc1C(=O)[O-] (3D coordinates assigned)
O=C(Cc1ccc(O)cc1)C(=O)[N-]c1ccccc1C(=O)[O-] (optimized conformer: 39.010621578127136 kcal/mol)

>  <smiles>  (57) 
O=C(Cc1ccc(O)cc1)C(=O)Nc1ccccc1C(=O)O

>  <score_type>  (57) 
oracle

>  <origin>  (57) 
adg

>  <m_score__min__energy>  (57) 
-12.220000000000001

>  <m_primary>  (57) 
energy

$$$$
57:0
     RDKit          3D

 41 43  0  0  0  0  0  0  0  0999 V2000
   56.0358   28.9456   46.0471 H   0  0  0  0  0  0  0  0  0  0  0  0
   56.6780   28.2640   45.4700 C   0  0  0  0  0  0  0  0  0  0  0  0
   57.3760   28.7740   44.4380 C   0  0  0  0  0  0  0  0  0  0  0  0
   57.7660   27.9410   43.3220 C   0  0  0  0  0  0  0  0  0  0  0  0
   58.0750   27.2740   42.4280 N   0  0  0  0  0  0  0  0  0  0  0  0
   57.8830   30.1660   44.4720 C   0  0  0  0  0  0  0  0  0  0  0  0
   58.2790   30.6920   43.3960 O   0  0  0  0  0  0  0  0  0  0  0  0
   57.9300   30.9180   45.7000 N   0  0  0  0  0  0  0  0  0  0  0  0
   57.6880   30.4430   46.5980 H   0  0  0  0  0  0  0  0  0  0  0  0
   58.3710   32.2830   45.7870 C   0  0  0  0  0  0  0  0  0  0  0  0
   58.1080   33.2070   44.7590 C   0  0  0  0  0  0  0  0  0  0  0  0
   57.5714   32.8830   43.8551 H   0  0  0  0  0  0  0  0  0  0  0  0
   58.5260   34.5350   44.8820 C   0  0  0  0  0  0  0  0  0  0  0  0
   58.3281   35.2497   44.0696 H   0  0  0  0  0  0  0  0  0  0  0  0
   59.1940   34.9570   46.0330 C   0  0  0  0  0  0  0  0  0  0  0  0
   59.5284   36.0011   46.1231 H   0  0  0  0  0  0  0  0  0  0  0  0
   59.4380   34.0530   47.0710 C   0  0  0  0  0  0  0  0  0  0  0  0
   60.2640   34.5860   48.5240 Cl  0  0  0  0  0  0  0  0  0  0  0  0
   59.0190   32.7220   46.9520 C   0  0  0  0  0  0  0  0  0  0  0  0
   59.1988   32.0164   47.7765 H   0  0  0  0  0  0  0  0  0  0  0  0
   56.7230   26.8430   45.8740 C   0  0  0  0  0  0  0  0  0  0  0  0
   55.6530   25.9970   46.0910 C   0  0  0  0  0  0  0  0  0  0  0  0
   54.3110   26.3350   45.9780 O   0  0  0  0  0  0  0  0  0  0  0  0
   56.0830   24.7750   46.4650 N   0  0  0  0  0  0  0  0  0  0  0  0
   57.4250   24.9140   46.4750 C   0  0  0  0  0  0  0  0  0  0  0  0
   58.2060   23.9670   46.7650 O   0  0  0  0  0  0  0  0  0  0  0  0
   57.8500   26.1540   46.1430 N   0  0  0  0  0  0  0  0  0  0  0  0
   59.2340   26.6060   45.9820 C   0  0  0  0  0  0  0  0  0  0  0  0
   59.9180   25.7834   46.2380 H   0  0  0  0  0  0  0  0  0  0  0  0
   59.3943   26.9133   44.9380 H   0  0  0  0  0  0  0  0  0  0  0  0
   59.5020   27.7780   46.8890 C   0  0  0  0  0  0  0  0  0  0  0  0
   60.3800   28.7950   46.4820 C   0  0  0  0  0  0  0  0  0  0  0  0
   60.8994   28.7159   45.5156 H   0  0  0  0  0  0  0  0  0  0  0  0
   60.5970   29.9080   47.3000 C   0  0  0  0  0  0  0  0  0  0  0  0
   61.2894   30.6997   46.9779 H   0  0  0  0  0  0  0  0  0  0  0  0
   59.9350   30.0160   48.5270 C   0  0  0  0  0  0  0  0  0  0  0  0
   60.1071   30.8919   49.1699 H   0  0  0  0  0  0  0  0  0  0  0  0
   59.0550   29.0110   48.9360 C   0  0  0  0  0  0  0  0  0  0  0  0
   58.5327   29.0973   49.9003 H   0  0  0  0  0  0  0  0  0  0  0  0
   58.8370   27.8950   48.1210 C   0  0  0  0  0  0  0  0  0  0  0  0
   58.1425   27.1063   48.4460 H   0  0  0  0  0  0  0  0  0  0  0  0
  1  2  1  0
  2  3  2  0
  3  4  1  0
  4  5  3  0
  3  6  1  0
  6  7  2  0
  6  8  1  0
  8  9  1  0
  8 10  1  0
 10 11  2  0
 11 12  1  0
 11 13  1  0
 13 14  1  0
 13 15  2  0
 15 16  1  0
 15 17  1  0
 17 18  1  0
 17 19  2  0
 19 20  1  0
  2 21  1  0
 21 22  2  0
 22 23  1  0
 22 24  1  0
 24 25  1  0
 25 26  2  0
 25 27  1  0
 27 28  1  0
 28 29  1  0
 28 30  1  0
 28 31  1  0
 31 32  2  0
 32 33  1  0
 32 34  1  0
 34 35  1  0
 34 36  2  0
 36 37  1  0
 36 38  1  0
 38 39  1  0
 38 40  2  0
 40 41  1  0
 19 10  1  0
 27 21  1  0
 40 31  1  0
M  CHG  2  23  -1  24  -1
M  END
>  <UniqueID>  (58) 
53

>  <SMILES>  (58) 
N#C/C(=C\c1c([O-])[n-]c(=O)n1Cc1ccccc1)C(=O)Nc1cccc(Cl)c1

>  <Energy>  (58) 
84.76214466837045

>  <Genealogy>  (58) 
N#CC(=Cc1c([O-])[n-]c(=O)n1Cc1ccccc1)C(=O)Nc1cccc(Cl)c1 (protonated)
N#C/C(=C\c1c([O-])[n-]c(=O)n1Cc1ccccc1)C(=O)Nc1cccc(Cl)c1 (cis-trans isomerization)
N#C/C(=C\c1c([O-])[n-]c(=O)n1Cc1ccccc1)C(=O)Nc1cccc(Cl)c1 (3D coordinates assigned)
N#C/C(=C\c1c([O-])[n-]c(=O)n1Cc1ccccc1)C(=O)Nc1cccc(Cl)c1 (optimized conformer: 84.76214466837045 kcal/mol)

>  <smiles>  (58) 
N#CC(=Cc1c(O)[nH]c(=O)n1Cc1ccccc1)C(=O)Nc1cccc(Cl)c1

>  <score_type>  (58) 
oracle

>  <origin>  (58) 
adg

>  <m_score__min__energy>  (58) 
-13.85

>  <m_primary>  (58) 
energy

$$$$
58:0
     RDKit          3D

 39 41  0  0  0  0  0  0  0  0999 V2000
   59.6530   26.6390   47.2090 O   0  0  0  0  0  0  0  0  0  0  0  0
   58.6980   27.4370   47.4070 C   0  0  0  0  0  0  0  0  0  0  0  0
   57.4000   27.2360   46.6880 C   0  0  0  0  0  0  0  0  0  0  0  0
   57.6290   27.2830   44.8760 S   0  0  0  0  0  0  0  0  0  0  0  0
   57.3820   29.0520   44.7340 C   0  0  0  0  0  0  0  0  0  0  0  0
   56.1840   29.6560   44.8930 N   0  0  0  0  0  0  0  0  0  0  0  0
   56.2400   30.9760   44.7340 N   0  0  0  0  0  0  0  0  0  0  0  0
   57.4840   31.4190   44.4450 C   0  0  0  0  0  0  0  0  0  0  0  0
   57.7950   32.6660   44.2460 N   0  0  0  0  0  0  0  0  0  0  0  0
   57.5410   33.7590   45.1440 C   0  0  0  0  0  0  0  0  0  0  0  0
   56.6450   34.6080   44.8800 O   0  0  0  0  0  0  0  0  0  0  0  0
   58.3360   33.8920   46.3880 C   0  0  0  0  0  0  0  0  0  0  0  0
   59.3580   34.8530   46.4900 C   0  0  0  0  0  0  0  0  0  0  0  0
   60.0820   34.9660   47.6350 N   0  0  0  0  0  0  0  0  0  0  0  0
   59.8510   34.1690   48.7100 C   0  0  0  0  0  0  0  0  0  0  0  0
   58.8480   33.2000   48.6590 C   0  0  0  0  0  0  0  0  0  0  0  0
   58.5160   32.0740   50.1660 Br  0  0  0  0  0  0  0  0  0  0  0  0
   58.0890   33.0620   47.4940 C   0  0  0  0  0  0  0  0  0  0  0  0
   58.5980   30.1610   44.3680 S   0  0  0  0  0  0  0  0  0  0  0  0
   58.8500   28.5380   48.3060 N   0  0  0  0  0  0  0  0  0  0  0  0
   60.0500   28.7420   49.1040 C   0  0  0  0  0  0  0  0  0  0  0  0
   60.8240   29.9020   48.5480 C   0  0  0  0  0  0  0  0  0  0  0  0
   61.7700   30.5650   49.3470 C   0  0  0  0  0  0  0  0  0  0  0  0
   62.4650   31.6700   48.8440 C   0  0  0  0  0  0  0  0  0  0  0  0
   62.2150   32.1250   47.5470 C   0  0  0  0  0  0  0  0  0  0  0  0
   63.0860   33.5130   46.9190 Cl  0  0  0  0  0  0  0  0  0  0  0  0
   61.2620   31.4790   46.7510 C   0  0  0  0  0  0  0  0  0  0  0  0
   60.5650   30.3750   47.2510 C   0  0  0  0  0  0  0  0  0  0  0  0
   56.9815   26.2588   46.9708 H   0  0  0  0  0  0  0  0  0  0  0  0
   56.7166   28.0497   46.9723 H   0  0  0  0  0  0  0  0  0  0  0  0
   59.5725   35.5163   45.6391 H   0  0  0  0  0  0  0  0  0  0  0  0
   60.4550   34.2873   49.6217 H   0  0  0  0  0  0  0  0  0  0  0  0
   57.2960   32.3014   47.4428 H   0  0  0  0  0  0  0  0  0  0  0  0
   59.7670   28.9544   50.1455 H   0  0  0  0  0  0  0  0  0  0  0  0
   60.6719   27.8352   49.0730 H   0  0  0  0  0  0  0  0  0  0  0  0
   61.9649   30.2143   50.3712 H   0  0  0  0  0  0  0  0  0  0  0  0
   63.2099   32.1817   49.4711 H   0  0  0  0  0  0  0  0  0  0  0  0
   61.0613   31.8401   45.7315 H   0  0  0  0  0  0  0  0  0  0  0  0
   59.8106   29.8747   46.6261 H   0  0  0  0  0  0  0  0  0  0  0  0
  1  2  2  0
  2  3  1  0
  3  4  1  0
  4  5  1  0
  5  6  2  0
  6  7  1  0
  7  8  1  0
  8  9  2  3
  9 10  1  0
 10 11  2  0
 10 12  1  0
 12 13  2  0
 13 14  1  0
 14 15  2  0
 15 16  1  0
 16 17  1  0
 16 18  2  0
  8 19  1  0
  2 20  1  0
 20 21  1  0
 21 22  1  0
 22 23  2  0
 23 24  1  0
 24 25  2  0
 25 26  1  0
 25 27  1  0
 27 28  2  0
 19  5  1  0
 28 22  1  0
 18 12  1  0
  3 29  1  0
  3 30  1  0
 13 31  1  0
 15 32  1  0
 18 33  1  0
 21 34  1  0
 21 35  1  0
 23 36  1  0
 24 37  1  0
 27 38  1  0
 28 39  1  0
M  CHG  2   7  -1  20  -1
M  END
>  <UniqueID>  (59) 
54

>  <SMILES>  (59) 
O=C(CSc1n[n-]c(=NC(=O)c2cncc(Br)c2)s1)[N-]Cc1ccc(Cl)cc1

>  <Energy>  (59) 
71.52194202599378

>  <Genealogy>  (59) 
O=C(CSc1n[n-]c(=NC(=O)c2cncc(Br)c2)s1)[N-]Cc1ccc(Cl)cc1 (protonated)
O=C(CSc1n[n-]c(=NC(=O)c2cncc(Br)c2)s1)[N-]Cc1ccc(Cl)cc1 (3D coordinates assigned)
O=C(CSc1n[n-]c(=NC(=O)c2cncc(Br)c2)s1)[N-]Cc1ccc(Cl)cc1 (optimized conformer: 71.52194202599378 kcal/mol)

>  <smiles>  (59) 
O=C(CSc1n[nH]c(=NC(=O)c2cncc(Br)c2)s1)NCc1ccc(Cl)cc1

>  <score_type>  (59) 
oracle

>  <origin>  (59) 
adg

>  <m_score__min__energy>  (59) 
-13.15

>  <m_primary>  (59) 
energy

$$$$
59:0
     RDKit          3D

 39 41  0  0  0  0  0  0  0  0999 V2000
   59.6950   34.2110   51.4730 O   0  0  0  0  0  0  0  0  0  0  0  0
   59.9190   33.3750   50.5580 C   0  0  0  0  0  0  0  0  0  0  0  0
   61.2400   32.6470   50.5530 C   0  0  0  0  0  0  0  0  0  0  0  0
   61.0770   31.2410   50.3690 O   0  0  0  0  0  0  0  0  0  0  0  0
   60.6000   30.6220   49.2020 C   0  0  0  0  0  0  0  0  0  0  0  0
   59.4000   29.9070   49.2770 C   0  0  0  0  0  0  0  0  0  0  0  0
   58.8960   29.2450   48.1540 C   0  0  0  0  0  0  0  0  0  0  0  0
   59.5990   29.2750   46.9430 C   0  0  0  0  0  0  0  0  0  0  0  0
   59.0350   28.6040   45.7570 C   0  0  0  0  0  0  0  0  0  0  0  0
   58.0220   27.7070   45.7740 C   0  0  0  0  0  0  0  0  0  0  0  0
   58.3240   26.2610   45.9410 C   0  0  0  0  0  0  0  0  0  0  0  0
   59.5140   25.8490   45.9810 O   0  0  0  0  0  0  0  0  0  0  0  0
   57.2620   25.3150   46.0780 N   0  0  0  0  0  0  0  0  0  0  0  0
   55.8970   25.7230   46.0270 C   0  0  0  0  0  0  0  0  0  0  0  0
   54.9810   24.8770   46.1880 O   0  0  0  0  0  0  0  0  0  0  0  0
   55.5690   27.0900   45.7790 N   0  0  0  0  0  0  0  0  0  0  0  0
   56.5870   28.0770   45.6000 C   0  0  0  0  0  0  0  0  0  0  0  0
   56.2440   29.2350   45.2430 O   0  0  0  0  0  0  0  0  0  0  0  0
   60.7830   30.0260   46.8520 C   0  0  0  0  0  0  0  0  0  0  0  0
   61.2860   30.6880   47.9740 C   0  0  0  0  0  0  0  0  0  0  0  0
   58.8910   33.1280   49.5870 N   0  0  0  0  0  0  0  0  0  0  0  0
   58.9250   33.4770   48.1970 C   0  0  0  0  0  0  0  0  0  0  0  0
   59.6740   34.5900   47.7950 C   0  0  0  0  0  0  0  0  0  0  0  0
   59.7180   34.9600   46.4480 C   0  0  0  0  0  0  0  0  0  0  0  0
   59.0320   34.2080   45.4900 C   0  0  0  0  0  0  0  0  0  0  0  0
   59.0800   34.5770   44.1850 F   0  0  0  0  0  0  0  0  0  0  0  0
   58.3050   33.0760   45.8810 C   0  0  0  0  0  0  0  0  0  0  0  0
   57.4540   32.1120   44.6850 Cl  0  0  0  0  0  0  0  0  0  0  0  0
   58.2590   32.7060   47.2300 C   0  0  0  0  0  0  0  0  0  0  0  0
   61.8599   33.0424   49.7348 H   0  0  0  0  0  0  0  0  0  0  0  0
   61.7192   32.8077   51.5300 H   0  0  0  0  0  0  0  0  0  0  0  0
   58.8484   29.8654   50.2278 H   0  0  0  0  0  0  0  0  0  0  0  0
   57.9438   28.6985   48.2215 H   0  0  0  0  0  0  0  0  0  0  0  0
   59.4733   28.8529   44.7793 H   0  0  0  0  0  0  0  0  0  0  0  0
   61.3163   30.0928   45.8923 H   0  0  0  0  0  0  0  0  0  0  0  0
   62.2209   31.2627   47.8983 H   0  0  0  0  0  0  0  0  0  0  0  0
   60.2298   35.1753   48.5423 H   0  0  0  0  0  0  0  0  0  0  0  0
   60.2940   35.8454   46.1409 H   0  0  0  0  0  0  0  0  0  0  0  0
   57.6997   31.8089   47.5339 H   0  0  0  0  0  0  0  0  0  0  0  0
  1  2  2  0
  2  3  1  0
  3  4  1  0
  4  5  1  0
  5  6  2  0
  6  7  1  0
  7  8  2  0
  8  9  1  0
  9 10  2  3
 10 11  1  0
 11 12  2  0
 11 13  1  0
 13 14  1  0
 14 15  2  0
 14 16  1  0
 16 17  1  0
 17 18  2  0
  8 19  1  0
 19 20  2  0
  2 21  1  0
 21 22  1  0
 22 23  2  0
 23 24  1  0
 24 25  2  0
 25 26  1  0
 25 27  1  0
 27 28  1  0
 27 29  2  0
 20  5  1  0
 29 22  1  0
 17 10  1  0
  3 30  1  0
  3 31  1  0
  6 32  1  0
  7 33  1  0
  9 34  1  0
 19 35  1  0
 20 36  1  0
 23 37  1  0
 24 38  1  0
 29 39  1  0
M  CHG  3  13  -1  16  -1  21  -1
M  END
>  <UniqueID>  (60) 
55

>  <SMILES>  (60) 
O=C(COc1ccc(C=C2C(=O)[N-]C(=O)[N-]C2=O)cc1)[N-]c1ccc(F)c(Cl)c1

>  <Energy>  (60) 
53.53369901207575

>  <Genealogy>  (60) 
O=C(COc1ccc(C=C2C(=O)[N-]C(=O)[N-]C2=O)cc1)[N-]c1ccc(F)c(Cl)c1 (protonated)
O=C(COc1ccc(C=C2C(=O)[N-]C(=O)[N-]C2=O)cc1)[N-]c1ccc(F)c(Cl)c1 (3D coordinates assigned)
O=C(COc1ccc(C=C2C(=O)[N-]C(=O)[N-]C2=O)cc1)[N-]c1ccc(F)c(Cl)c1 (nonaromatic ring conformer: 53.53369901207575 kcal/mol)

>  <smiles>  (60) 
O=C(COc1ccc(C=C2C(=O)NC(=O)NC2=O)cc1)Nc1ccc(F)c(Cl)c1

>  <score_type>  (60) 
oracle

>  <origin>  (60) 
adg

>  <m_score__min__energy>  (60) 
-13.550000000000001

>  <m_primary>  (60) 
energy

$$$$
60:0
     RDKit          3D

 86 90  0  0  0  0  0  0  0  0999 V2000
   61.6830   32.8690   50.6120 O   0  0  0  0  0  0  0  0  0  0  0  0
   60.5320   33.0170   51.1060 C   0  0  0  0  0  0  0  0  0  0  0  0
   59.3160   32.5060   50.3700 C   0  0  0  0  0  0  0  0  0  0  0  0
   59.5470   31.1470   49.7620 C   0  0  0  0  0  0  0  0  0  0  0  0
   58.7500   30.6990   48.6950 C   0  0  0  0  0  0  0  0  0  0  0  0
   58.9320   29.4150   48.1710 C   0  0  0  0  0  0  0  0  0  0  0  0
   59.9070   28.5590   48.7130 C   0  0  0  0  0  0  0  0  0  0  0  0
   60.0800   27.2160   48.2420 N   0  0  0  0  0  0  0  0  0  0  0  0
   59.1640   26.4940   47.4060 C   0  0  0  0  0  0  0  0  0  0  0  0
   58.3960   25.6300   47.9080 O   0  0  0  0  0  0  0  0  0  0  0  0
   59.1480   26.7770   45.9170 C   0  0  0  0  0  0  0  0  0  0  0  0
   59.8940   28.1060   45.6030 C   0  0  0  0  0  0  0  0  0  0  0  0
   59.2230   28.9070   44.4860 C   0  0  0  0  0  0  0  0  0  0  0  0
   57.8240   29.1750   44.8550 N   0  0  0  0  0  0  0  0  0  0  0  0
   57.2160   30.4690   44.6540 C   0  0  0  0  0  0  0  0  0  0  0  0
   55.9680   30.5480   44.4890 O   0  0  0  0  0  0  0  0  0  0  0  0
   58.0480   31.7290   44.6140 C   0  0  0  0  0  0  0  0  0  0  0  0
   57.7090   32.6960   45.7580 C   0  0  0  0  0  0  0  0  0  0  0  0
   58.9620   33.1390   46.4670 C   0  0  0  0  0  0  0  0  0  0  0  0
   58.9570   34.2960   47.2640 C   0  0  0  0  0  0  0  0  0  0  0  0
   60.1160   34.6890   47.9400 C   0  0  0  0  0  0  0  0  0  0  0  0
   61.2850   33.9300   47.8300 C   0  0  0  0  0  0  0  0  0  0  0  0
   61.2950   32.7720   47.0460 C   0  0  0  0  0  0  0  0  0  0  0  0
   60.1370   32.3740   46.3710 C   0  0  0  0  0  0  0  0  0  0  0  0
   57.0030   28.0780   45.3960 C   0  0  0  0  0  0  0  0  0  0  0  0
   57.7260   26.7270   45.3030 C   0  0  0  0  0  0  0  0  0  0  0  0
   60.6800   28.9970   49.7950 C   0  0  0  0  0  0  0  0  0  0  0  0
   60.5120   30.2860   50.3090 C   0  0  0  0  0  0  0  0  0  0  0  0
   60.4070   33.7240   52.3430 N   0  0  0  0  0  0  0  0  0  0  0  0
   59.2910   33.5750   53.2680 C   0  0  0  0  0  0  0  0  0  0  0  0
   59.0670   32.1170   53.5590 C   0  0  0  0  0  0  0  0  0  0  0  0
   59.9390   31.5110   54.2400 O   0  0  0  0  0  0  0  0  0  0  0  0
   57.9030   31.3990   53.0770 N   0  0  0  0  0  0  0  0  0  0  0  0
   56.9350   32.0470   52.1730 C   0  0  0  0  0  0  0  0  0  0  0  0
   55.5490   31.4180   52.3130 C   0  0  0  0  0  0  0  0  0  0  0  0
   55.6470   29.9560   52.1690 N   0  0  0  0  0  0  0  0  0  0  0  0
   54.3240   29.3010   52.0520 C   0  0  0  0  0  0  0  0  0  0  0  0
   53.1560   30.2660   52.0640 C   0  0  0  0  0  0  0  0  0  0  0  0
   52.4910   30.5600   53.2660 C   0  0  0  0  0  0  0  0  0  0  0  0
   51.4060   31.4430   53.2750 C   0  0  0  0  0  0  0  0  0  0  0  0
   50.9820   32.0420   52.0860 C   0  0  0  0  0  0  0  0  0  0  0  0
   51.6440   31.7630   50.8880 C   0  0  0  0  0  0  0  0  0  0  0  0
   52.7290   30.8820   50.8750 C   0  0  0  0  0  0  0  0  0  0  0  0
   56.4690   29.3890   53.2520 C   0  0  0  0  0  0  0  0  0  0  0  0
   57.8980   29.9280   53.1490 C   0  0  0  0  0  0  0  0  0  0  0  0
   58.4761   32.4394   51.0772 H   0  0  0  0  0  0  0  0  0  0  0  0
   59.0967   33.2084   49.5524 H   0  0  0  0  0  0  0  0  0  0  0  0
   57.9803   31.3603   48.2704 H   0  0  0  0  0  0  0  0  0  0  0  0
   58.3095   29.0733   47.3310 H   0  0  0  0  0  0  0  0  0  0  0  0
   59.6971   25.9615   45.4235 H   0  0  0  0  0  0  0  0  0  0  0  0
   59.9155   28.7218   46.5142 H   0  0  0  0  0  0  0  0  0  0  0  0
   60.9081   27.8471   45.2646 H   0  0  0  0  0  0  0  0  0  0  0  0
   59.7552   29.8594   44.3456 H   0  0  0  0  0  0  0  0  0  0  0  0
   59.2540   28.3315   43.5491 H   0  0  0  0  0  0  0  0  0  0  0  0
   59.1101   31.4526   44.6891 H   0  0  0  0  0  0  0  0  0  0  0  0
   57.8292   32.2433   43.6666 H   0  0  0  0  0  0  0  0  0  0  0  0
   57.1959   33.5775   45.3461 H   0  0  0  0  0  0  0  0  0  0  0  0
   57.0582   32.1787   46.4783 H   0  0  0  0  0  0  0  0  0  0  0  0
   58.0386   34.8944   47.3564 H   0  0  0  0  0  0  0  0  0  0  0  0
   60.1081   35.5976   48.5599 H   0  0  0  0  0  0  0  0  0  0  0  0
   62.1965   34.2436   48.3599 H   0  0  0  0  0  0  0  0  0  0  0  0
   62.2143   32.1740   46.9603 H   0  0  0  0  0  0  0  0  0  0  0  0
   60.1457   31.4580   45.7621 H   0  0  0  0  0  0  0  0  0  0  0  0
   56.7771   28.2892   46.4516 H   0  0  0  0  0  0  0  0  0  0  0  0
   56.0807   28.0145   44.7999 H   0  0  0  0  0  0  0  0  0  0  0  0
   57.1347   25.9716   45.8413 H   0  0  0  0  0  0  0  0  0  0  0  0
   57.8284   26.4729   44.2377 H   0  0  0  0  0  0  0  0  0  0  0  0
   61.4243   28.3225   50.2435 H   0  0  0  0  0  0  0  0  0  0  0  0
   61.1388   30.6275   51.1460 H   0  0  0  0  0  0  0  0  0  0  0  0
   59.5192   34.1043   54.2049 H   0  0  0  0  0  0  0  0  0  0  0  0
   58.3830   34.0005   52.8158 H   0  0  0  0  0  0  0  0  0  0  0  0
   56.8713   33.1167   52.4212 H   0  0  0  0  0  0  0  0  0  0  0  0
   57.2783   31.9117   51.1367 H   0  0  0  0  0  0  0  0  0  0  0  0
   55.1365   31.6604   53.3035 H   0  0  0  0  0  0  0  0  0  0  0  0
   54.8888   31.8164   51.5285 H   0  0  0  0  0  0  0  0  0  0  0  0
   54.2986   28.7388   51.1069 H   0  0  0  0  0  0  0  0  0  0  0  0
   54.2105   28.6527   52.9333 H   0  0  0  0  0  0  0  0  0  0  0  0
   52.8250   30.0937   54.2046 H   0  0  0  0  0  0  0  0  0  0  0  0
   50.8864   31.6659   54.2186 H   0  0  0  0  0  0  0  0  0  0  0  0
   50.1266   32.7335   52.0933 H   0  0  0  0  0  0  0  0  0  0  0  0
   51.3108   32.2375   49.9532 H   0  0  0  0  0  0  0  0  0  0  0  0
   53.2509   30.6698   49.9302 H   0  0  0  0  0  0  0  0  0  0  0  0
   56.0399   29.6731   54.2242 H   0  0  0  0  0  0  0  0  0  0  0  0
   56.4850   28.2928   53.1624 H   0  0  0  0  0  0  0  0  0  0  0  0
   58.4675   29.6092   54.0345 H   0  0  0  0  0  0  0  0  0  0  0  0
   58.3574   29.5305   52.2319 H   0  0  0  0  0  0  0  0  0  0  0  0
  1  2  2  0
  2  3  1  0
  3  4  1  0
  4  5  2  0
  5  6  1  0
  6  7  2  0
  7  8  1  0
  8  9  1  0
  9 10  2  0
  9 11  1  0
 11 12  1  0
 12 13  1  0
 13 14  1  0
 14 15  1  0
 15 16  2  0
 15 17  1  0
 17 18  1  0
 18 19  1  0
 19 20  2  0
 20 21  1  0
 21 22  2  0
 22 23  1  0
 23 24  2  0
 14 25  1  0
 25 26  1  0
  7 27  1  0
 27 28  2  0
  2 29  1  0
 29 30  1  0
 30 31  1  0
 31 32  2  0
 31 33  1  0
 33 34  1  0
 34 35  1  0
 35 36  1  0
 36 37  1  0
 37 38  1  0
 38 39  2  0
 39 40  1  0
 40 41  2  0
 41 42  1  0
 42 43  2  0
 36 44  1  0
 44 45  1  0
 28  4  1  0
 45 33  1  0
 26 11  1  0
 43 38  1  0
 24 19  1  0
  3 46  1  0
  3 47  1  0
  5 48  1  0
  6 49  1  0
 11 50  1  0
 12 51  1  0
 12 52  1  0
 13 53  1  0
 13 54  1  0
 17 55  1  0
 17 56  1  0
 18 57  1  0
 18 58  1  0
 20 59  1  0
 21 60  1  0
 22 61  1  0
 23 62  1  0
 24 63  1  0
 25 64  1  0
 25 65  1  0
 26 66  1  0
 26 67  1  0
 27 68  1  0
 28 69  1  0
 30 70  1  0
 30 71  1  0
 34 72  1  0
 34 73  1  0
 35 74  1  0
 35 75  1  0
 37 76  1  0
 37 77  1  0
 39 78  1  0
 40 79  1  0
 41 80  1  0
 42 81  1  0
 43 82  1  0
 44 83  1  0
 44 84  1  0
 45 85  1  0
 45 86  1  0
M  CHG  2   8  -1  29  -1
M  END
>  <UniqueID>  (61) 
56

>  <SMILES>  (61) 
O=C(Cc1ccc([N-]C(=O)C2CCN(C(=O)CCc3ccccc3)CC2)cc1)[N-]CC(=O)N1CCN(Cc2ccccc2)CC1

>  <Energy>  (61) 
98.00668684473519

>  <Genealogy>  (61) 
O=C(Cc1ccc([N-]C(=O)C2CCN(C(=O)CCc3ccccc3)CC2)cc1)[N-]CC(=O)N1CCN(Cc2ccccc2)CC1 (protonated)
O=C(Cc1ccc([N-]C(=O)C2CCN(C(=O)CCc3ccccc3)CC2)cc1)[N-]CC(=O)N1CCN(Cc2ccccc2)CC1 (3D coordinates assigned)
O=C(Cc1ccc([N-]C(=O)C2CCN(C(=O)CCc3ccccc3)CC2)cc1)[N-]CC(=O)N1CCN(Cc2ccccc2)CC1 (nonaromatic ring conformer: 98.00668684473519 kcal/mol)

>  <smiles>  (61) 
O=C(Cc1ccc(NC(=O)C2CCN(C(=O)CCc3ccccc3)CC2)cc1)NCC(=O)N1CCN(Cc2ccccc2)CC1

>  <score_type>  (61) 
oracle

>  <origin>  (61) 
adg

>  <m_score__min__energy>  (61) 
-12.49

>  <m_primary>  (61) 
energy

$$$$
61:0
     RDKit          3D

 47 49  0  0  0  0  0  0  0  0999 V2000
   60.2345   30.7872   50.1818 H   0  0  0  0  0  0  0  0  0  0  0  0
   59.8970   30.5830   49.1550 C   0  0  0  0  0  0  0  0  0  0  0  0
   59.5220   31.6090   48.3570 N   0  0  0  0  0  0  0  0  0  0  0  0
   59.0270   31.4100   47.1110 C   0  0  0  0  0  0  0  0  0  0  0  0
   58.6060   32.5160   46.3670 C   0  0  0  0  0  0  0  0  0  0  0  0
   58.7720   33.5307   46.7579 H   0  0  0  0  0  0  0  0  0  0  0  0
   57.9730   32.3440   45.1250 C   0  0  0  0  0  0  0  0  0  0  0  0
   57.5590   33.4320   44.3410 O   0  0  0  0  0  0  0  0  0  0  0  0
   56.9730   34.6230   44.8570 C   0  0  0  0  0  0  0  0  0  0  0  0
   56.9880   34.5925   45.9565 H   0  0  0  0  0  0  0  0  0  0  0  0
   57.5451   35.4947   44.5065 H   0  0  0  0  0  0  0  0  0  0  0  0
   55.9333   34.7017   44.5065 H   0  0  0  0  0  0  0  0  0  0  0  0
   57.7210   31.0510   44.6540 C   0  0  0  0  0  0  0  0  0  0  0  0
   57.0470   30.9080   43.4300 O   0  0  0  0  0  0  0  0  0  0  0  0
   56.3640   29.7280   43.0150 C   0  0  0  0  0  0  0  0  0  0  0  0
   56.0370   29.1630   43.9004 H   0  0  0  0  0  0  0  0  0  0  0  0
   55.4866   30.0050   42.4122 H   0  0  0  0  0  0  0  0  0  0  0  0
   57.0412   29.1052   42.4122 H   0  0  0  0  0  0  0  0  0  0  0  0
   58.1390   29.9380   45.4100 C   0  0  0  0  0  0  0  0  0  0  0  0
   57.8764   28.9255   45.0696 H   0  0  0  0  0  0  0  0  0  0  0  0
   58.8890   30.0970   46.5970 C   0  0  0  0  0  0  0  0  0  0  0  0
   59.4160   29.0070   47.3660 C   0  0  0  0  0  0  0  0  0  0  0  0
   59.5360   27.7790   46.9200 N   0  0  0  0  0  0  0  0  0  0  0  0
   58.5300   26.8120   46.5910 C   0  0  0  0  0  0  0  0  0  0  0  0
   58.8530   25.4510   46.4700 C   0  0  0  0  0  0  0  0  0  0  0  0
   59.8887   25.1169   46.6300 H   0  0  0  0  0  0  0  0  0  0  0  0
   57.8630   24.5200   46.1470 C   0  0  0  0  0  0  0  0  0  0  0  0
   58.1266   23.4580   46.0344 H   0  0  0  0  0  0  0  0  0  0  0  0
   56.5310   24.9330   45.9650 C   0  0  0  0  0  0  0  0  0  0  0  0
   55.4910   24.0130   45.6050 N   0  0  0  0  0  0  0  0  0  0  0  0
   55.3820   23.1440   44.1100 S   0  0  0  0  0  0  0  0  0  0  0  0
   55.5270   21.6690   44.3590 O   0  0  0  0  0  0  0  0  0  0  0  0
   54.0330   23.4000   43.5010 O   0  0  0  0  0  0  0  0  0  0  0  0
   56.6340   23.7090   42.9770 C   0  0  0  0  0  0  0  0  0  0  0  0
   57.4933   24.0968   43.5437 H   0  0  0  0  0  0  0  0  0  0  0  0
   56.9605   22.8710   42.3437 H   0  0  0  0  0  0  0  0  0  0  0  0
   56.2216   24.5083   42.3437 H   0  0  0  0  0  0  0  0  0  0  0  0
   56.2050   26.2860   46.1470 C   0  0  0  0  0  0  0  0  0  0  0  0
   54.8890   26.7130   45.9990 O   0  0  0  0  0  0  0  0  0  0  0  0
   57.1980   27.2170   46.4690 C   0  0  0  0  0  0  0  0  0  0  0  0
   56.9295   28.2720   46.6268 H   0  0  0  0  0  0  0  0  0  0  0  0
   59.8600   29.2660   48.6880 C   0  0  0  0  0  0  0  0  0  0  0  0
   60.3480   28.1930   49.5880 C   0  0  0  0  0  0  0  0  0  0  0  0
   60.5800   28.4570   50.7990 O   0  0  0  0  0  0  0  0  0  0  0  0
   60.6100   26.8750   49.1010 N   0  0  0  0  0  0  0  0  0  0  0  0
   60.9070   26.1230   49.7610 H   0  0  0  0  0  0  0  0  0  0  0  0
   60.5960   26.6640   48.0790 H   0  0  0  0  0  0  0  0  0  0  0  0
  1  2  1  0
  2  3  1  0
  3  4  1  0
  4  5  2  0
  5  6  1  0
  5  7  1  0
  7  8  1  0
  8  9  1  0
  9 10  1  0
  9 11  1  0
  9 12  1  0
  7 13  2  0
 13 14  1  0
 14 15  1  0
 15 16  1  0
 15 17  1  0
 15 18  1  0
 13 19  1  0
 19 20  1  0
 19 21  2  0
 21 22  1  0
 22 23  2  0
 23 24  1  0
 24 25  2  0
 25 26  1  0
 25 27  1  0
 27 28  1  0
 27 29  2  0
 29 30  1  0
 30 31  1  0
 31 32  2  0
 31 33  2  0
 31 34  1  0
 34 35  1  0
 34 36  1  0
 34 37  1  0
 29 38  1  0
 38 39  1  0
 38 40  2  0
 40 41  1  0
 22 42  1  0
 42 43  1  0
 43 44  2  0
 43 45  1  0
 45 46  1  0
 45 47  1  0
 42  2  2  0
 21  4  1  0
 40 24  1  0
M  CHG  3   3  -1  30  -1  39  -1
M  END
>  <UniqueID>  (62) 
57

>  <SMILES>  (62) 
COc1cc2[n-]cc(C(N)=O)/c(=N/c3ccc([N-]S(C)(=O)=O)c([O-])c3)c2cc1OC

>  <Energy>  (62) 
75.02356875182737

>  <Genealogy>  (62) 
COc1cc2[n-]cc(C(N)=O)c(=Nc3ccc([N-]S(C)(=O)=O)c([O-])c3)c2cc1OC (protonated)
COc1cc2[n-]cc(C(N)=O)/c(=N/c3ccc([N-]S(C)(=O)=O)c([O-])c3)c2cc1OC (cis-trans isomerization)
COc1cc2[n-]cc(C(N)=O)/c(=N/c3ccc([N-]S(C)(=O)=O)c([O-])c3)c2cc1OC (3D coordinates assigned)
COc1cc2[n-]cc(C(N)=O)/c(=N/c3ccc([N-]S(C)(=O)=O)c([O-])c3)c2cc1OC (optimized conformer: 75.02356875182737 kcal/mol)

>  <smiles>  (62) 
COc1cc2[nH]cc(C(N)=O)c(=Nc3ccc(NS(C)(=O)=O)c(O)c3)c2cc1OC

>  <score_type>  (62) 
oracle

>  <origin>  (62) 
adg

>  <m_score__min__energy>  (62) 
-14.84

>  <m_primary>  (62) 
energy

$$$$
62:0
     RDKit          3D

 61 65  0  0  0  0  0  0  0  0999 V2000
   54.9117   31.1224   44.2064 H   0  0  0  0  0  0  0  0  0  0  0  0
   55.7890   30.4850   44.3910 C   0  0  0  0  0  0  0  0  0  0  0  0
   55.7510   29.2280   44.8800 N   0  0  0  0  0  0  0  0  0  0  0  0
   56.9920   28.7750   44.9710 N   0  0  0  0  0  0  0  0  0  0  0  0
   57.2670   27.4110   45.3180 C   0  0  0  0  0  0  0  0  0  0  0  0
   57.0940   26.9580   46.6350 C   0  0  0  0  0  0  0  0  0  0  0  0
   56.7383   27.6511   47.4116 H   0  0  0  0  0  0  0  0  0  0  0  0
   57.3730   25.6270   46.9620 C   0  0  0  0  0  0  0  0  0  0  0  0
   57.2209   25.2710   47.9916 H   0  0  0  0  0  0  0  0  0  0  0  0
   57.8450   24.7480   45.9820 C   0  0  0  0  0  0  0  0  0  0  0  0
   58.0534   23.6988   46.2385 H   0  0  0  0  0  0  0  0  0  0  0  0
   58.0520   25.2030   44.6760 C   0  0  0  0  0  0  0  0  0  0  0  0
   58.4328   24.5140   43.9077 H   0  0  0  0  0  0  0  0  0  0  0  0
   57.7750   26.5340   44.3460 C   0  0  0  0  0  0  0  0  0  0  0  0
   57.9556   26.8945   43.3226 H   0  0  0  0  0  0  0  0  0  0  0  0
   57.8400   29.7440   44.5410 C   0  0  0  0  0  0  0  0  0  0  0  0
   59.1450   29.7090   44.5360 N   0  0  0  0  0  0  0  0  0  0  0  0
   60.0240   29.2610   45.5740 C   0  0  0  0  0  0  0  0  0  0  0  0
   61.0880   28.6670   45.2510 O   0  0  0  0  0  0  0  0  0  0  0  0
   59.7550   29.5540   47.0020 C   0  0  0  0  0  0  0  0  0  0  0  0
   60.0730   28.5920   47.9990 C   0  0  0  0  0  0  0  0  0  0  0  0
   60.5530   27.6457   47.7090 H   0  0  0  0  0  0  0  0  0  0  0  0
   59.7800   28.8380   49.3530 C   0  0  0  0  0  0  0  0  0  0  0  0
   60.0174   28.0956   50.1292 H   0  0  0  0  0  0  0  0  0  0  0  0
   59.1810   30.0490   49.6780 C   0  0  0  0  0  0  0  0  0  0  0  0
   58.8870   30.9800   48.7370 C   0  0  0  0  0  0  0  0  0  0  0  0
   59.1610   30.7800   47.3880 C   0  0  0  0  0  0  0  0  0  0  0  0
   58.9229   31.5526   46.6420 H   0  0  0  0  0  0  0  0  0  0  0  0
   58.3020   32.0760   49.3420 O   0  0  0  0  0  0  0  0  0  0  0  0
   58.2220   31.8150   50.7500 C   0  0  0  0  0  0  0  0  0  0  0  0
   58.7937   32.5659   51.3152 H   0  0  0  0  0  0  0  0  0  0  0  0
   57.1872   31.8618   51.1200 H   0  0  0  0  0  0  0  0  0  0  0  0
   58.7960   30.5110   50.9210 O   0  0  0  0  0  0  0  0  0  0  0  0
   57.1040   30.8470   44.1580 C   0  0  0  0  0  0  0  0  0  0  0  0
   57.6220   32.1110   43.5910 C   0  0  0  0  0  0  0  0  0  0  0  0
   57.8590   32.1390   42.3520 O   0  0  0  0  0  0  0  0  0  0  0  0
   57.8880   33.2880   44.3940 N   0  0  0  0  0  0  0  0  0  0  0  0
   56.8870   33.8580   45.3090 C   0  0  0  0  0  0  0  0  0  0  0  0
   55.8806   33.6143   44.9378 H   0  0  0  0  0  0  0  0  0  0  0  0
   57.0301   34.9479   45.3492 H   0  0  0  0  0  0  0  0  0  0  0  0
   57.0490   33.2940   46.7200 C   0  0  0  0  0  0  0  0  0  0  0  0
   56.8235   34.0790   47.4568 H   0  0  0  0  0  0  0  0  0  0  0  0
   56.3568   32.4505   46.8594 H   0  0  0  0  0  0  0  0  0  0  0  0
   58.0833   32.9464   46.8594 H   0  0  0  0  0  0  0  0  0  0  0  0
   59.2490   33.8480   44.4180 C   0  0  0  0  0  0  0  0  0  0  0  0
   59.9701   33.0379   44.6020 H   0  0  0  0  0  0  0  0  0  0  0  0
   59.4529   34.3260   43.4485 H   0  0  0  0  0  0  0  0  0  0  0  0
   59.3800   34.9000   45.5250 C   0  0  0  0  0  0  0  0  0  0  0  0
   59.8646   35.7980   45.1143 H   0  0  0  0  0  0  0  0  0  0  0  0
   58.3755   35.1461   45.8998 H   0  0  0  0  0  0  0  0  0  0  0  0
   60.2060   34.3710   46.6660 C   0  0  0  0  0  0  0  0  0  0  0  0
   59.8000   34.5870   47.9940 C   0  0  0  0  0  0  0  0  0  0  0  0
   58.8876   35.1655   48.2011 H   0  0  0  0  0  0  0  0  0  0  0  0
   60.5520   34.0690   49.0530 C   0  0  0  0  0  0  0  0  0  0  0  0
   60.2336   34.2458   50.0910 H   0  0  0  0  0  0  0  0  0  0  0  0
   61.7090   33.3260   48.7940 C   0  0  0  0  0  0  0  0  0  0  0  0
   62.3019   32.9223   49.6279 H   0  0  0  0  0  0  0  0  0  0  0  0
   62.1110   33.0970   47.4750 C   0  0  0  0  0  0  0  0  0  0  0  0
   63.0192   32.5105   47.2722 H   0  0  0  0  0  0  0  0  0  0  0  0
   61.3610   33.6120   46.4120 C   0  0  0  0  0  0  0  0  0  0  0  0
   61.6762   33.4223   45.3753 H   0  0  0  0  0  0  0  0  0  0  0  0
  1  2  1  0
  2  3  1  0
  3  4  1  0
  4  5  1  0
  5  6  2  0
  6  7  1  0
  6  8  1  0
  8  9  1  0
  8 10  2  0
 10 11  1  0
 10 12  1  0
 12 13  1  0
 12 14  2  0
 14 15  1  0
  4 16  1  0
 16 17  2  0
 17 18  1  0
 18 19  2  0
 18 20  1  0
 20 21  2  0
 21 22  1  0
 21 23  1  0
 23 24  1  0
 23 25  2  0
 25 26  1  0
 26 27  2  0
 27 28  1  0
 26 29  1  0
 29 30  1  0
 30 31  1  0
 30 32  1  0
 30 33  1  0
 16 34  1  0
 34 35  1  0
 35 36  2  0
 35 37  1  0
 37 38  1  0
 38 39  1  0
 38 40  1  0
 38 41  1  0
 41 42  1  0
 41 43  1  0
 41 44  1  0
 37 45  1  0
 45 46  1  0
 45 47  1  0
 45 48  1  0
 48 49  1  0
 48 50  1  0
 48 51  1  0
 51 52  2  0
 52 53  1  0
 52 54  1  0
 54 55  1  0
 54 56  2  0
 56 57  1  0
 56 58  1  0
 58 59  1  0
 58 60  2  0
 60 61  1  0
 34  2  2  0
 60 51  1  0
 14  5  1  0
 27 20  1  0
 33 25  1  0
M  CHG  1   3  -1
M  END
>  <UniqueID>  (63) 
58

>  <SMILES>  (63) 
CCN(CCc1ccccc1)C(=O)c1c[n-]n(-c2ccccc2)/c1=N\C(=O)c1ccc2c(c1)OCO2

>  <Energy>  (63) 
141.7032834977027

>  <Genealogy>  (63) 
CCN(CCc1ccccc1)C(=O)c1c[n-]n(-c2ccccc2)c1=NC(=O)c1ccc2c(c1)OCO2 (protonated)
CCN(CCc1ccccc1)C(=O)c1c[n-]n(-c2ccccc2)/c1=N\C(=O)c1ccc2c(c1)OCO2 (cis-trans isomerization)
CCN(CCc1ccccc1)C(=O)c1c[n-]n(-c2ccccc2)/c1=N\C(=O)c1ccc2c(c1)OCO2 (3D coordinates assigned)
CCN(CCc1ccccc1)C(=O)c1c[n-]n(-c2ccccc2)/c1=N\C(=O)c1ccc2c(c1)OCO2 (nonaromatic ring conformer: 141.7032834977027 kcal/mol)

>  <smiles>  (63) 
CCN(CCc1ccccc1)C(=O)c1c[nH]n(-c2ccccc2)c1=NC(=O)c1ccc2c(c1)OCO2

>  <score_type>  (63) 
oracle

>  <origin>  (63) 
adg

>  <m_score__min__energy>  (63) 
-11.06

>  <m_primary>  (63) 
energy

$$$$
63:0
     RDKit          3D

 29 30  0  0  0  0  0  0  0  0999 V2000
   55.8460   21.5130   44.8480 C   0  0  0  0  0  0  0  0  0  0  0  0
   56.1160   22.9330   45.2480 C   0  0  0  0  0  0  0  0  0  0  0  0
   55.0660   23.7970   45.2900 N   0  0  0  0  0  0  0  0  0  0  0  0
   55.2020   25.0980   45.6530 C   0  0  0  0  0  0  0  0  0  0  0  0
   54.1900   25.8460   45.6760 O   0  0  0  0  0  0  0  0  0  0  0  0
   56.4590   25.6030   45.9950 C   0  0  0  0  0  0  0  0  0  0  0  0
   56.5770   26.9480   46.3810 O   0  0  0  0  0  0  0  0  0  0  0  0
   57.2370   27.9430   45.6460 C   0  0  0  0  0  0  0  0  0  0  0  0
   58.6370   27.9770   45.6700 C   0  0  0  0  0  0  0  0  0  0  0  0
   59.3320   28.9520   44.9490 C   0  0  0  0  0  0  0  0  0  0  0  0
   58.6330   29.9090   44.2110 C   0  0  0  0  0  0  0  0  0  0  0  0
   57.2350   29.9000   44.2020 C   0  0  0  0  0  0  0  0  0  0  0  0
   56.5330   28.9290   44.9250 C   0  0  0  0  0  0  0  0  0  0  0  0
   55.1440   28.9680   44.9440 O   0  0  0  0  0  0  0  0  0  0  0  0
   57.5620   24.7350   45.9770 C   0  0  0  0  0  0  0  0  0  0  0  0
   57.4110   23.3920   45.5930 C   0  0  0  0  0  0  0  0  0  0  0  0
   58.6050   22.5110   45.5560 C   0  0  0  0  0  0  0  0  0  0  0  0
   58.5030   21.1250   45.8920 N   0  0  0  0  0  0  0  0  0  0  0  0
   59.7310   22.9820   45.2430 O   0  0  0  0  0  0  0  0  0  0  0  0
   55.7283   20.8941   45.7497 H   0  0  0  0  0  0  0  0  0  0  0  0
   54.9235   21.4695   44.2504 H   0  0  0  0  0  0  0  0  0  0  0  0
   56.6882   21.1339   44.2504 H   0  0  0  0  0  0  0  0  0  0  0  0
   59.1924   27.2325   46.2593 H   0  0  0  0  0  0  0  0  0  0  0  0
   60.4318   28.9653   44.9631 H   0  0  0  0  0  0  0  0  0  0  0  0
   59.1820   30.6698   43.6368 H   0  0  0  0  0  0  0  0  0  0  0  0
   56.6853   30.6583   43.6250 H   0  0  0  0  0  0  0  0  0  0  0  0
   58.5547   25.1101   46.2665 H   0  0  0  0  0  0  0  0  0  0  0  0
   57.5770   20.6760   46.0640 H   0  0  0  0  0  0  0  0  0  0  0  0
   59.3580   20.5260   45.9080 H   0  0  0  0  0  0  0  0  0  0  0  0
  1  2  1  0
  2  3  1  0
  3  4  1  0
  4  5  2  0
  4  6  1  0
  6  7  1  0
  7  8  1  0
  8  9  2  0
  9 10  1  0
 10 11  2  0
 11 12  1  0
 12 13  2  0
 13 14  1  0
  6 15  2  0
 15 16  1  0
 16 17  1  0
 17 18  1  0
 17 19  2  0
 16  2  2  0
 13  8  1  0
  1 20  1  0
  1 21  1  0
  1 22  1  0
  9 23  1  0
 10 24  1  0
 11 25  1  0
 12 26  1  0
 15 27  1  0
 18 28  1  0
 18 29  1  0
M  CHG  2   3  -1  14  -1
M  END
>  <UniqueID>  (64) 
59

>  <SMILES>  (64) 
Cc1[n-]c(=O)c(Oc2ccccc2[O-])cc1C(N)=O

>  <Energy>  (64) 
41.64833066700902

>  <Genealogy>  (64) 
Cc1[n-]c(=O)c(Oc2ccccc2[O-])cc1C(N)=O (protonated)
Cc1[n-]c(=O)c(Oc2ccccc2[O-])cc1C(N)=O (3D coordinates assigned)
Cc1[n-]c(=O)c(Oc2ccccc2[O-])cc1C(N)=O (optimized conformer: 41.64833066700902 kcal/mol)

>  <smiles>  (64) 
Cc1[nH]c(=O)c(Oc2ccccc2O)cc1C(N)=O

>  <score_type>  (64) 
oracle

>  <origin>  (64) 
adg

>  <m_score__min__energy>  (64) 
-12.1

>  <m_primary>  (64) 
energy

$$$$
64:0
     RDKit          3D

 40 42  0  0  0  0  0  0  0  0999 V2000
   55.1430   29.1180   44.5890 O   0  0  0  0  0  0  0  0  0  0  0  0
   56.2090   29.7850   44.5430 C   0  0  0  0  0  0  0  0  0  0  0  0
   56.3840   30.7940   43.4430 C   0  0  0  0  0  0  0  0  0  0  0  0
   58.1350   31.2920   43.3020 S   0  0  0  0  0  0  0  0  0  0  0  0
   58.1380   32.2650   44.8050 C   0  0  0  0  0  0  0  0  0  0  0  0
   59.2100   32.2220   45.6390 N   0  0  0  0  0  0  0  0  0  0  0  0
   59.2440   32.9730   46.7710 C   0  0  0  0  0  0  0  0  0  0  0  0
   58.1650   33.7990   47.0880 C   0  0  0  0  0  0  0  0  0  0  0  0
   57.0720   33.8240   46.2250 C   0  0  0  0  0  0  0  0  0  0  0  0
   57.0760   33.0600   45.1010 N   0  0  0  0  0  0  0  0  0  0  0  0
   57.1930   29.5780   45.5660 N   0  0  0  0  0  0  0  0  0  0  0  0
   58.2290   28.5430   45.5710 C   0  0  0  0  0  0  0  0  0  0  0  0
   57.6350   27.1720   45.3290 C   0  0  0  0  0  0  0  0  0  0  0  0
   56.6710   26.6620   46.2170 C   0  0  0  0  0  0  0  0  0  0  0  0
   56.0920   25.4100   45.9900 C   0  0  0  0  0  0  0  0  0  0  0  0
   56.4610   24.6600   44.8710 C   0  0  0  0  0  0  0  0  0  0  0  0
   57.4060   25.1630   43.9730 C   0  0  0  0  0  0  0  0  0  0  0  0
   57.9870   26.4140   44.1950 C   0  0  0  0  0  0  0  0  0  0  0  0
   58.9780   28.5540   46.8850 C   0  0  0  0  0  0  0  0  0  0  0  0
   59.7240   27.4260   47.2730 C   0  0  0  0  0  0  0  0  0  0  0  0
   60.4000   27.4130   48.4970 C   0  0  0  0  0  0  0  0  0  0  0  0
   60.3270   28.5160   49.3500 C   0  0  0  0  0  0  0  0  0  0  0  0
   59.5740   29.6340   48.9840 C   0  0  0  0  0  0  0  0  0  0  0  0
   58.8980   29.6540   47.7600 C   0  0  0  0  0  0  0  0  0  0  0  0
   56.0560   30.3516   42.4908 H   0  0  0  0  0  0  0  0  0  0  0  0
   55.7798   31.6829   43.6771 H   0  0  0  0  0  0  0  0  0  0  0  0
   60.1196   32.9299   47.4355 H   0  0  0  0  0  0  0  0  0  0  0  0
   58.1773   34.4162   47.9985 H   0  0  0  0  0  0  0  0  0  0  0  0
   56.2056   34.4621   46.4532 H   0  0  0  0  0  0  0  0  0  0  0  0
   58.9301   28.7653   44.7531 H   0  0  0  0  0  0  0  0  0  0  0  0
   56.3708   27.2519   47.0956 H   0  0  0  0  0  0  0  0  0  0  0  0
   55.3446   25.0149   46.6938 H   0  0  0  0  0  0  0  0  0  0  0  0
   56.0076   23.6731   44.6966 H   0  0  0  0  0  0  0  0  0  0  0  0
   57.6929   24.5731   43.0900 H   0  0  0  0  0  0  0  0  0  0  0  0
   58.7236   26.8094   43.4801 H   0  0  0  0  0  0  0  0  0  0  0  0
   59.7757   26.5498   46.6100 H   0  0  0  0  0  0  0  0  0  0  0  0
   60.9906   26.5319   48.7885 H   0  0  0  0  0  0  0  0  0  0  0  0
   60.8627   28.5045   50.3107 H   0  0  0  0  0  0  0  0  0  0  0  0
   59.5126   30.5000   49.6595 H   0  0  0  0  0  0  0  0  0  0  0  0
   58.3005   30.5339   47.4794 H   0  0  0  0  0  0  0  0  0  0  0  0
  1  2  2  0
  2  3  1  0
  3  4  1  0
  4  5  1  0
  5  6  2  0
  6  7  1  0
  7  8  2  0
  8  9  1  0
  9 10  2  0
  2 11  1  0
 11 12  1  0
 12 13  1  0
 13 14  2  0
 14 15  1  0
 15 16  2  0
 16 17  1  0
 17 18  2  0
 12 19  1  0
 19 20  2  0
 20 21  1  0
 21 22  2  0
 22 23  1  0
 23 24  2  0
 10  5  1  0
 18 13  1  0
 24 19  1  0
  3 25  1  0
  3 26  1  0
  7 27  1  0
  8 28  1  0
  9 29  1  0
 12 30  1  0
 14 31  1  0
 15 32  1  0
 16 33  1  0
 17 34  1  0
 18 35  1  0
 20 36  1  0
 21 37  1  0
 22 38  1  0
 23 39  1  0
 24 40  1  0
M  CHG  1  11  -1
M  END
>  <UniqueID>  (65) 
60

>  <SMILES>  (65) 
O=C(CSc1ncccn1)[N-]C(c1ccccc1)c1ccccc1

>  <Energy>  (65) 
36.034530078664794

>  <Genealogy>  (65) 
O=C(CSc1ncccn1)[N-]C(c1ccccc1)c1ccccc1 (protonated)
O=C(CSc1ncccn1)[N-]C(c1ccccc1)c1ccccc1 (3D coordinates assigned)
O=C(CSc1ncccn1)[N-]C(c1ccccc1)c1ccccc1 (optimized conformer: 36.034530078664794 kcal/mol)

>  <smiles>  (65) 
O=C(CSc1ncccn1)NC(c1ccccc1)c1ccccc1

>  <score_type>  (65) 
oracle

>  <origin>  (65) 
adg

>  <m_score__min__energy>  (65) 
-9.6799999999999997

>  <m_primary>  (65) 
energy

$$$$
65:0
     RDKit          3D

 37 39  0  0  0  0  0  0  0  0999 V2000
   59.2510   34.6070   50.1330 H   0  0  0  0  0  0  0  0  0  0  0  0
   59.6540   34.5060   49.1750 N   0  0  0  0  0  0  0  0  0  0  0  0
   59.2270   32.9300   48.6110 S   0  0  0  0  0  0  0  0  0  0  0  0
   60.4300   32.0300   48.6700 O   0  0  0  0  0  0  0  0  0  0  0  0
   58.1520   32.3570   49.4920 O   0  0  0  0  0  0  0  0  0  0  0  0
   58.6540   33.0410   46.9500 C   0  0  0  0  0  0  0  0  0  0  0  0
   58.8830   34.1990   46.1950 C   0  0  0  0  0  0  0  0  0  0  0  0
   59.4276   35.0456   46.6385 H   0  0  0  0  0  0  0  0  0  0  0  0
   58.4200   34.2790   44.8790 C   0  0  0  0  0  0  0  0  0  0  0  0
   58.5901   35.1942   44.2929 H   0  0  0  0  0  0  0  0  0  0  0  0
   57.7420   33.2010   44.3050 C   0  0  0  0  0  0  0  0  0  0  0  0
   57.3655   33.2762   43.2742 H   0  0  0  0  0  0  0  0  0  0  0  0
   57.5390   32.0180   45.0420 C   0  0  0  0  0  0  0  0  0  0  0  0
   56.8250   30.8930   44.5020 N   0  0  0  0  0  0  0  0  0  0  0  0
   56.8650   29.6690   44.9370 C   0  0  0  0  0  0  0  0  0  0  0  0
   55.7720   28.9260   45.2280 N   0  0  0  0  0  0  0  0  0  0  0  0
   56.1200   27.6720   45.6190 C   0  0  0  0  0  0  0  0  0  0  0  0
   55.1660   26.7340   45.9900 O   0  0  0  0  0  0  0  0  0  0  0  0
   57.4870   27.4070   45.6190 C   0  0  0  0  0  0  0  0  0  0  0  0
   58.1480   26.1390   46.0620 C   0  0  0  0  0  0  0  0  0  0  0  0
   59.2303   26.2098   45.8784 H   0  0  0  0  0  0  0  0  0  0  0  0
   57.9587   25.9910   47.1354 H   0  0  0  0  0  0  0  0  0  0  0  0
   57.5900   24.9700   45.2990 C   0  0  0  0  0  0  0  0  0  0  0  0
   57.3860   25.0590   43.9120 C   0  0  0  0  0  0  0  0  0  0  0  0
   57.6597   25.9799   43.3762 H   0  0  0  0  0  0  0  0  0  0  0  0
   56.8370   23.9830   43.2100 C   0  0  0  0  0  0  0  0  0  0  0  0
   56.6876   24.0570   42.1227 H   0  0  0  0  0  0  0  0  0  0  0  0
   56.4760   22.8100   43.8860 C   0  0  0  0  0  0  0  0  0  0  0  0
   55.9270   21.7330   43.1920 O   0  0  0  0  0  0  0  0  0  0  0  0
   55.5210   20.9420   43.6760 H   0  0  0  0  0  0  0  0  0  0  0  0
   56.6670   22.7200   45.2710 C   0  0  0  0  0  0  0  0  0  0  0  0
   56.3080   21.5630   45.9520 O   0  0  0  0  0  0  0  0  0  0  0  0
   57.2170   23.7960   45.9750 C   0  0  0  0  0  0  0  0  0  0  0  0
   57.3583   23.7229   47.0634 H   0  0  0  0  0  0  0  0  0  0  0  0
   58.2930   28.8040   45.1330 S   0  0  0  0  0  0  0  0  0  0  0  0
   57.9780   31.9580   46.3720 C   0  0  0  0  0  0  0  0  0  0  0  0
   57.7901   31.0524   46.9675 H   0  0  0  0  0  0  0  0  0  0  0  0
  1  2  1  0
  2  3  1  0
  3  4  2  0
  3  5  2  0
  3  6  1  0
  6  7  2  0
  7  8  1  0
  7  9  1  0
  9 10  1  0
  9 11  2  0
 11 12  1  0
 11 13  1  0
 13 14  1  0
 14 15  2  0
 15 16  1  0
 16 17  1  0
 17 18  1  0
 17 19  2  0
 19 20  1  0
 20 21  1  0
 20 22  1  0
 20 23  1  0
 23 24  2  0
 24 25  1  0
 24 26  1  0
 26 27  1  0
 26 28  2  0
 28 29  1  0
 29 30  1  0
 28 31  1  0
 31 32  1  0
 31 33  2  0
 33 34  1  0
 19 35  1  0
 13 36  2  0
 36 37  1  0
 36  6  1  0
 35 15  1  0
 33 23  1  0
M  CHG  4   2  -1  16  -1  18  -1  32  -1
M  END
>  <UniqueID>  (66) 
61

>  <SMILES>  (66) 
[NH-]S(=O)(=O)c1cccc(/N=c2\[n-]c([O-])c(Cc3ccc(O)c([O-])c3)s2)c1

>  <Energy>  (66) 
73.84958306542462

>  <Genealogy>  (66) 
[NH-]S(=O)(=O)c1cccc(N=c2[n-]c([O-])c(Cc3ccc(O)c([O-])c3)s2)c1 (protonated)
[NH-]S(=O)(=O)c1cccc(/N=c2\[n-]c([O-])c(Cc3ccc(O)c([O-])c3)s2)c1 (cis-trans isomerization)
[NH-]S(=O)(=O)c1cccc(/N=c2\[n-]c([O-])c(Cc3ccc(O)c([O-])c3)s2)c1 (3D coordinates assigned)
[NH-]S(=O)(=O)c1cccc(/N=c2\[n-]c([O-])c(Cc3ccc(O)c([O-])c3)s2)c1 (optimized conformer: 73.84958306542462 kcal/mol)

>  <smiles>  (66) 
NS(=O)(=O)c1cccc(N=c2[nH]c(O)c(Cc3ccc(O)c(O)c3)s2)c1

>  <score_type>  (66) 
oracle

>  <origin>  (66) 
adg

>  <m_score__min__energy>  (66) 
-15.859999999999999

>  <m_primary>  (66) 
energy

$$$$
66:0
     RDKit          3D

 38 39  0  0  0  0  0  0  0  0999 V2000
   58.8935   28.6235   43.9600 H   0  0  0  0  0  0  0  0  0  0  0  0
   58.4710   28.4010   44.9510 C   0  0  0  0  0  0  0  0  0  0  0  0
   59.1990   28.8360   46.1530 C   0  0  0  0  0  0  0  0  0  0  0  0
   59.4110   28.0040   47.0760 O   0  0  0  0  0  0  0  0  0  0  0  0
   59.6540   30.1560   46.2680 O   0  0  0  0  0  0  0  0  0  0  0  0
   60.0280   30.7520   47.5070 C   0  0  0  0  0  0  0  0  0  0  0  0
   60.3716   29.9692   48.1992 H   0  0  0  0  0  0  0  0  0  0  0  0
   60.8383   31.4748   47.3311 H   0  0  0  0  0  0  0  0  0  0  0  0
   58.8550   31.4630   48.1050 C   0  0  0  0  0  0  0  0  0  0  0  0
   58.5890   31.3180   49.3300 O   0  0  0  0  0  0  0  0  0  0  0  0
   58.0030   32.2530   47.2700 N   0  0  0  0  0  0  0  0  0  0  0  0
   57.9670   32.3460   45.9680 C   0  0  0  0  0  0  0  0  0  0  0  0
   57.3330   31.3460   45.2960 N   0  0  0  0  0  0  0  0  0  0  0  0
   57.2220   31.3210   43.9440 C   0  0  0  0  0  0  0  0  0  0  0  0
   56.6925   30.4922   43.4514 H   0  0  0  0  0  0  0  0  0  0  0  0
   57.7780   32.3440   43.1790 C   0  0  0  0  0  0  0  0  0  0  0  0
   57.6510   32.3130   41.4310 Cl  0  0  0  0  0  0  0  0  0  0  0  0
   58.4570   33.3790   43.8200 C   0  0  0  0  0  0  0  0  0  0  0  0
   58.9044   34.1888   43.2250 H   0  0  0  0  0  0  0  0  0  0  0  0
   58.5740   33.3960   45.2150 C   0  0  0  0  0  0  0  0  0  0  0  0
   59.5990   34.6650   45.8820 Cl  0  0  0  0  0  0  0  0  0  0  0  0
   57.3070   27.7410   45.0300 C   0  0  0  0  0  0  0  0  0  0  0  0
   56.3888   28.2702   44.7353 H   0  0  0  0  0  0  0  0  0  0  0  0
   57.1880   26.3330   45.4940 C   0  0  0  0  0  0  0  0  0  0  0  0
   58.2780   25.4390   45.4450 C   0  0  0  0  0  0  0  0  0  0  0  0
   59.2527   25.7928   45.0778 H   0  0  0  0  0  0  0  0  0  0  0  0
   58.1380   24.1070   45.8570 C   0  0  0  0  0  0  0  0  0  0  0  0
   59.2570   23.2640   45.7830 O   0  0  0  0  0  0  0  0  0  0  0  0
   59.4450   22.2610   44.7920 C   0  0  0  0  0  0  0  0  0  0  0  0
   59.6266   21.2923   45.2806 H   0  0  0  0  0  0  0  0  0  0  0  0
   58.5441   22.1921   44.1646 H   0  0  0  0  0  0  0  0  0  0  0  0
   60.3097   22.5230   44.1646 H   0  0  0  0  0  0  0  0  0  0  0  0
   56.8900   23.6590   46.3230 C   0  0  0  0  0  0  0  0  0  0  0  0
   56.7704   22.6171   46.6548 H   0  0  0  0  0  0  0  0  0  0  0  0
   55.8020   24.5320   46.3660 C   0  0  0  0  0  0  0  0  0  0  0  0
   54.8280   24.1732   46.7301 H   0  0  0  0  0  0  0  0  0  0  0  0
   55.9410   25.8580   45.9500 C   0  0  0  0  0  0  0  0  0  0  0  0
   54.8340   26.6990   45.9990 O   0  0  0  0  0  0  0  0  0  0  0  0
  1  2  1  0
  2  3  1  0
  3  4  2  0
  3  5  1  0
  5  6  1  0
  6  7  1  0
  6  8  1  0
  6  9  1  0
  9 10  2  0
  9 11  1  0
 11 12  2  0
 12 13  1  0
 13 14  1  0
 14 15  1  0
 14 16  2  0
 16 17  1  0
 16 18  1  0
 18 19  1  0
 18 20  2  0
 20 21  1  0
  2 22  2  0
 22 23  1  0
 22 24  1  0
 24 25  2  0
 25 26  1  0
 25 27  1  0
 27 28  1  0
 28 29  1  0
 29 30  1  0
 29 31  1  0
 29 32  1  0
 27 33  2  0
 33 34  1  0
 33 35  1  0
 35 36  1  0
 35 37  2  0
 37 38  1  0
 20 12  1  0
 37 24  1  0
M  CHG  2  13  -1  38  -1
M  END
>  <UniqueID>  (67) 
62

>  <SMILES>  (67) 
COc1ccc([O-])c(/C=C/C(=O)OCC(=O)/N=c2/[n-]cc(Cl)cc2Cl)c1

>  <Energy>  (67) 
53.668967703738936

>  <Genealogy>  (67) 
COc1ccc([O-])c(C=CC(=O)OCC(=O)N=c2[n-]cc(Cl)cc2Cl)c1 (protonated)
COc1ccc([O-])c(/C=C/C(=O)OCC(=O)/N=c2/[n-]cc(Cl)cc2Cl)c1 (cis-trans isomerization)
COc1ccc([O-])c(/C=C/C(=O)OCC(=O)/N=c2/[n-]cc(Cl)cc2Cl)c1 (3D coordinates assigned)
COc1ccc([O-])c(/C=C/C(=O)OCC(=O)/N=c2/[n-]cc(Cl)cc2Cl)c1 (optimized conformer: 53.668967703738936 kcal/mol)

>  <smiles>  (67) 
COc1ccc(O)c(C=CC(=O)OCC(=O)N=c2[nH]cc(Cl)cc2Cl)c1

>  <score_type>  (67) 
oracle

>  <origin>  (67) 
adg

>  <m_score__min__energy>  (67) 
-13.84

>  <m_primary>  (67) 
energy

$$$$
67:0
     RDKit          3D

 37 39  0  0  0  0  0  0  0  0999 V2000
   57.8610   32.3220   49.7670 N   0  0  0  0  0  0  0  0  0  0  0  0
   58.9560   32.3220   48.8450 C   0  0  0  0  0  0  0  0  0  0  0  0
   60.0360   31.7690   49.1860 O   0  0  0  0  0  0  0  0  0  0  0  0
   58.8410   32.9430   47.5040 C   0  0  0  0  0  0  0  0  0  0  0  0
   59.1440   34.3010   47.3010 C   0  0  0  0  0  0  0  0  0  0  0  0
   59.0280   34.8700   46.0310 C   0  0  0  0  0  0  0  0  0  0  0  0
   58.6210   34.0920   44.9460 C   0  0  0  0  0  0  0  0  0  0  0  0
   58.3420   32.7270   45.1180 C   0  0  0  0  0  0  0  0  0  0  0  0
   57.8990   31.8850   43.9460 C   0  0  0  0  0  0  0  0  0  0  0  0
   57.3890   30.5390   44.3970 C   0  0  0  0  0  0  0  0  0  0  0  0
   56.0460   30.3800   44.5420 N   0  0  0  0  0  0  0  0  0  0  0  0
   55.5060   29.2320   44.9510 N   0  0  0  0  0  0  0  0  0  0  0  0
   56.2720   28.1550   45.2530 C   0  0  0  0  0  0  0  0  0  0  0  0
   55.7180   27.0840   45.6210 O   0  0  0  0  0  0  0  0  0  0  0  0
   57.6670   28.2490   45.1470 C   0  0  0  0  0  0  0  0  0  0  0  0
   58.2400   29.4550   44.7120 C   0  0  0  0  0  0  0  0  0  0  0  0
   59.7430   29.4940   44.5550 C   0  0  0  0  0  0  0  0  0  0  0  0
   60.4280   28.8660   45.7790 C   0  0  0  0  0  0  0  0  0  0  0  0
   59.8150   27.5160   46.2290 C   0  0  0  0  0  0  0  0  0  0  0  0
   58.5770   27.0760   45.4270 C   0  0  0  0  0  0  0  0  0  0  0  0
   58.4420   32.1630   46.4020 C   0  0  0  0  0  0  0  0  0  0  0  0
   56.9040   32.6220   49.4820 H   0  0  0  0  0  0  0  0  0  0  0  0
   57.9880   31.9300   50.7260 H   0  0  0  0  0  0  0  0  0  0  0  0
   59.4747   34.9194   48.1484 H   0  0  0  0  0  0  0  0  0  0  0  0
   59.2583   35.9357   45.8851 H   0  0  0  0  0  0  0  0  0  0  0  0
   58.5184   34.5506   43.9514 H   0  0  0  0  0  0  0  0  0  0  0  0
   57.0950   32.4114   43.4107 H   0  0  0  0  0  0  0  0  0  0  0  0
   58.7657   31.7241   43.2880 H   0  0  0  0  0  0  0  0  0  0  0  0
   60.0275   28.9324   43.6530 H   0  0  0  0  0  0  0  0  0  0  0  0
   60.0645   30.5422   44.4659 H   0  0  0  0  0  0  0  0  0  0  0  0
   61.4871   28.6987   45.5332 H   0  0  0  0  0  0  0  0  0  0  0  0
   60.2891   29.5692   46.6134 H   0  0  0  0  0  0  0  0  0  0  0  0
   60.5854   26.7377   46.1254 H   0  0  0  0  0  0  0  0  0  0  0  0
   59.4804   27.6560   47.2675 H   0  0  0  0  0  0  0  0  0  0  0  0
   58.9040   26.6387   44.4721 H   0  0  0  0  0  0  0  0  0  0  0  0
   58.0208   26.3353   46.0203 H   0  0  0  0  0  0  0  0  0  0  0  0
   58.2054   31.0986   46.5474 H   0  0  0  0  0  0  0  0  0  0  0  0
  1  2  1  0
  2  3  2  0
  2  4  1  0
  4  5  2  0
  5  6  1  0
  6  7  2  0
  7  8  1  0
  8  9  1  0
  9 10  1  0
 10 11  2  0
 11 12  1  0
 12 13  1  0
 13 14  2  0
 13 15  1  0
 15 16  2  0
 16 17  1  0
 17 18  1  0
 18 19  1  0
 19 20  1  0
  8 21  2  0
 21  4  1  0
 16 10  1  0
 20 15  1  0
  1 22  1  0
  1 23  1  0
  5 24  1  0
  6 25  1  0
  7 26  1  0
  9 27  1  0
  9 28  1  0
 17 29  1  0
 17 30  1  0
 18 31  1  0
 18 32  1  0
 19 33  1  0
 19 34  1  0
 20 35  1  0
 20 36  1  0
 21 37  1  0
M  CHG  1  12  -1
M  END
>  <UniqueID>  (68) 
63

>  <SMILES>  (68) 
NC(=O)c1cccc(Cc2n[n-]c(=O)c3c2CCCC3)c1

>  <Energy>  (68) 
47.290426937762994

>  <Genealogy>  (68) 
NC(=O)c1cccc(Cc2n[n-]c(=O)c3c2CCCC3)c1 (protonated)
NC(=O)c1cccc(Cc2n[n-]c(=O)c3c2CCCC3)c1 (3D coordinates assigned)
NC(=O)c1cccc(Cc2n[n-]c(=O)c3c2CCCC3)c1 (nonaromatic ring conformer: 47.290426937762994 kcal/mol)

>  <smiles>  (68) 
NC(=O)c1cccc(Cc2n[nH]c(=O)c3c2CCCC3)c1

>  <score_type>  (68) 
oracle

>  <origin>  (68) 
adg

>  <m_score__min__energy>  (68) 
-10.84

>  <m_primary>  (68) 
energy

$$$$
68:0
     RDKit          3D

 37 39  0  0  0  0  0  0  0  0999 V2000
   58.1250   28.6250   47.5900 O   0  0  0  0  0  0  0  0  0  0  0  0
   58.2040   28.8080   46.3460 C   0  0  0  0  0  0  0  0  0  0  0  0
   57.5440   27.8250   45.4210 C   0  0  0  0  0  0  0  0  0  0  0  0
   57.2070   26.5720   46.1700 C   0  0  0  0  0  0  0  0  0  0  0  0
   58.3360   25.4800   46.7830 S   0  0  0  0  0  0  0  0  0  0  0  0
   57.1440   24.4290   47.3300 C   0  0  0  0  0  0  0  0  0  0  0  0
   57.3740   23.3450   47.9290 O   0  0  0  0  0  0  0  0  0  0  0  0
   55.8960   24.8690   47.0590 N   0  0  0  0  0  0  0  0  0  0  0  0
   55.9320   26.0610   46.4070 C   0  0  0  0  0  0  0  0  0  0  0  0
   54.7710   26.7120   46.0120 O   0  0  0  0  0  0  0  0  0  0  0  0
   59.0390   29.8640   45.8540 N   0  0  0  0  0  0  0  0  0  0  0  0
   58.6010   31.1870   45.5140 C   0  0  0  0  0  0  0  0  0  0  0  0
   57.8740   31.4080   44.3310 C   0  0  0  0  0  0  0  0  0  0  0  0
   57.4060   32.6860   44.0180 C   0  0  0  0  0  0  0  0  0  0  0  0
   57.6400   33.7490   44.8900 C   0  0  0  0  0  0  0  0  0  0  0  0
   58.3430   33.5370   46.0790 C   0  0  0  0  0  0  0  0  0  0  0  0
   58.8300   32.2590   46.4030 C   0  0  0  0  0  0  0  0  0  0  0  0
   59.5700   32.0560   47.7030 C   0  0  0  0  0  0  0  0  0  0  0  0
   61.0320   32.3730   47.5340 C   0  0  0  0  0  0  0  0  0  0  0  0
   61.4370   33.5810   46.9420 C   0  0  0  0  0  0  0  0  0  0  0  0
   62.7950   33.8530   46.7550 C   0  0  0  0  0  0  0  0  0  0  0  0
   63.7580   32.9190   47.1510 C   0  0  0  0  0  0  0  0  0  0  0  0
   63.3630   31.7170   47.7420 C   0  0  0  0  0  0  0  0  0  0  0  0
   62.0050   31.4420   47.9310 C   0  0  0  0  0  0  0  0  0  0  0  0
   56.6221   28.2673   45.0154 H   0  0  0  0  0  0  0  0  0  0  0  0
   58.2318   27.5824   44.5975 H   0  0  0  0  0  0  0  0  0  0  0  0
   57.6727   30.5695   43.6481 H   0  0  0  0  0  0  0  0  0  0  0  0
   56.8522   32.8544   43.0826 H   0  0  0  0  0  0  0  0  0  0  0  0
   57.2709   34.7550   44.6417 H   0  0  0  0  0  0  0  0  0  0  0  0
   58.5167   34.3774   46.7671 H   0  0  0  0  0  0  0  0  0  0  0  0
   59.1425   32.7186   48.4699 H   0  0  0  0  0  0  0  0  0  0  0  0
   59.4676   31.0046   48.0096 H   0  0  0  0  0  0  0  0  0  0  0  0
   60.6823   34.3156   46.6244 H   0  0  0  0  0  0  0  0  0  0  0  0
   63.1069   34.8027   46.2959 H   0  0  0  0  0  0  0  0  0  0  0  0
   64.8263   33.1313   46.9969 H   0  0  0  0  0  0  0  0  0  0  0  0
   64.1210   30.9857   48.0592 H   0  0  0  0  0  0  0  0  0  0  0  0
   61.6978   30.4921   48.3928 H   0  0  0  0  0  0  0  0  0  0  0  0
  1  2  2  0
  2  3  1  0
  3  4  1  0
  4  5  1  0
  5  6  1  0
  6  7  2  0
  6  8  1  0
  8  9  1  0
  9 10  1  0
  2 11  1  0
 11 12  1  0
 12 13  2  0
 13 14  1  0
 14 15  2  0
 15 16  1  0
 16 17  2  0
 17 18  1  0
 18 19  1  0
 19 20  2  0
 20 21  1  0
 21 22  2  0
 22 23  1  0
 23 24  2  0
  9  4  2  0
 17 12  1  0
 24 19  1  0
  3 25  1  0
  3 26  1  0
 13 27  1  0
 14 28  1  0
 15 29  1  0
 16 30  1  0
 18 31  1  0
 18 32  1  0
 20 33  1  0
 21 34  1  0
 22 35  1  0
 23 36  1  0
 24 37  1  0
M  CHG  3   8  -1  10  -1  11  -1
M  END
>  <UniqueID>  (69) 
64

>  <SMILES>  (69) 
O=C(Cc1sc(=O)[n-]c1[O-])[N-]c1ccccc1Cc1ccccc1

>  <Energy>  (69) 
72.55556913338711

>  <Genealogy>  (69) 
O=C(Cc1sc(=O)[n-]c1[O-])[N-]c1ccccc1Cc1ccccc1 (protonated)
O=C(Cc1sc(=O)[n-]c1[O-])[N-]c1ccccc1Cc1ccccc1 (3D coordinates assigned)
O=C(Cc1sc(=O)[n-]c1[O-])[N-]c1ccccc1Cc1ccccc1 (optimized conformer: 72.55556913338711 kcal/mol)

>  <smiles>  (69) 
O=C(Cc1sc(=O)[nH]c1O)Nc1ccccc1Cc1ccccc1

>  <score_type>  (69) 
oracle

>  <origin>  (69) 
adg

>  <m_score__min__energy>  (69) 
-16.07

>  <m_primary>  (69) 
energy

$$$$
69:0
     RDKit          3D

 29 30  0  0  0  0  0  0  0  0999 V2000
   54.7060   26.3400   45.9280 O   0  0  0  0  0  0  0  0  0  0  0  0
   55.8490   25.8220   46.0380 C   0  0  0  0  0  0  0  0  0  0  0  0
   56.0150   24.6870   46.8240 O   0  0  0  0  0  0  0  0  0  0  0  0
   57.0220   26.4320   45.3370 C   0  0  0  0  0  0  0  0  0  0  0  0
   57.7810   27.3720   46.2580 C   0  0  0  0  0  0  0  0  0  0  0  0
   57.5840   28.7810   46.2460 C   0  0  0  0  0  0  0  0  0  0  0  0
   56.6750   29.4570   45.2920 C   0  0  0  0  0  0  0  0  0  0  0  0
   55.5180   28.9910   45.1130 O   0  0  0  0  0  0  0  0  0  0  0  0
   57.0970   30.6330   44.5870 N   0  0  0  0  0  0  0  0  0  0  0  0
   57.6880   31.8100   45.1560 C   0  0  0  0  0  0  0  0  0  0  0  0
   56.9210   32.9800   45.2190 C   0  0  0  0  0  0  0  0  0  0  0  0
   57.4640   34.1550   45.7480 C   0  0  0  0  0  0  0  0  0  0  0  0
   58.7850   34.1720   46.2040 C   0  0  0  0  0  0  0  0  0  0  0  0
   59.5660   33.0160   46.1220 C   0  0  0  0  0  0  0  0  0  0  0  0
   59.0250   31.8390   45.5950 C   0  0  0  0  0  0  0  0  0  0  0  0
   58.2310   29.5540   47.1660 N   0  0  0  0  0  0  0  0  0  0  0  0
   59.0800   29.0120   48.0790 C   0  0  0  0  0  0  0  0  0  0  0  0
   59.8570   29.9630   49.1580 S   0  0  0  0  0  0  0  0  0  0  0  0
   59.2870   27.6740   48.1000 N   0  0  0  0  0  0  0  0  0  0  0  0
   58.6630   26.8490   47.2260 C   0  0  0  0  0  0  0  0  0  0  0  0
   58.8790   25.6090   47.3020 O   0  0  0  0  0  0  0  0  0  0  0  0
   57.6984   25.6308   45.0046 H   0  0  0  0  0  0  0  0  0  0  0  0
   56.6534   27.0086   44.4758 H   0  0  0  0  0  0  0  0  0  0  0  0
   55.8848   32.9747   44.8500 H   0  0  0  0  0  0  0  0  0  0  0  0
   56.8510   35.0666   45.8053 H   0  0  0  0  0  0  0  0  0  0  0  0
   59.2096   35.0944   46.6270 H   0  0  0  0  0  0  0  0  0  0  0  0
   60.6085   33.0319   46.4727 H   0  0  0  0  0  0  0  0  0  0  0  0
   59.6458   30.9338   45.5234 H   0  0  0  0  0  0  0  0  0  0  0  0
   58.0870   30.5910   47.1630 H   0  0  0  0  0  0  0  0  0  0  0  0
  1  2  2  0
  2  3  1  0
  2  4  1  0
  4  5  1  0
  5  6  2  0
  6  7  1  0
  7  8  2  0
  7  9  1  0
  9 10  1  0
 10 11  2  0
 11 12  1  0
 12 13  2  0
 13 14  1  0
 14 15  2  0
  6 16  1  0
 16 17  1  0
 17 18  2  0
 17 19  1  0
 19 20  1  0
 20 21  2  0
 20  5  1  0
 15 10  1  0
  4 22  1  0
  4 23  1  0
 11 24  1  0
 12 25  1  0
 13 26  1  0
 14 27  1  0
 15 28  1  0
 16 29  1  0
M  CHG  3   3  -1   9  -1  19  -1
M  END
>  <UniqueID>  (70) 
65

>  <SMILES>  (70) 
O=C([O-])Cc1c(C(=O)[N-]c2ccccc2)[nH]c(=S)[n-]c1=O

>  <Energy>  (70) 
40.69560099985274

>  <Genealogy>  (70) 
O=C([O-])Cc1c(C(=O)[N-]c2ccccc2)[nH]c(=S)[n-]c1=O (protonated)
O=C([O-])Cc1c(C(=O)[N-]c2ccccc2)[nH]c(=S)[n-]c1=O (3D coordinates assigned)
O=C([O-])Cc1c(C(=O)[N-]c2ccccc2)[nH]c(=S)[n-]c1=O (optimized conformer: 40.69560099985274 kcal/mol)

>  <smiles>  (70) 
O=C(O)Cc1c(C(=O)Nc2ccccc2)[nH]c(=S)[nH]c1=O

>  <score_type>  (70) 
oracle

>  <origin>  (70) 
adg

>  <m_score__min__energy>  (70) 
-12.49

>  <m_primary>  (70) 
energy

$$$$
70:0
     RDKit          3D

 52 56  0  0  0  0  0  0  0  0999 V2000
   59.7540   29.1770   46.2560 C   0  0  0  0  0  0  0  0  0  0  0  0
   58.5930   29.0180   45.6010 C   0  0  0  0  0  0  0  0  0  0  0  0
   57.9020   27.8150   45.3750 C   0  0  0  0  0  0  0  0  0  0  0  0
   58.2680   26.5330   45.5710 C   0  0  0  0  0  0  0  0  0  0  0  0
   57.5200   25.5350   46.3470 C   0  0  0  0  0  0  0  0  0  0  0  0
   58.1080   24.5320   47.0230 N   0  0  0  0  0  0  0  0  0  0  0  0
   57.0760   23.9360   47.6570 C   0  0  0  0  0  0  0  0  0  0  0  0
   57.2260   22.9260   48.3940 O   0  0  0  0  0  0  0  0  0  0  0  0
   55.8730   24.5110   47.4500 N   0  0  0  0  0  0  0  0  0  0  0  0
   56.1690   25.5340   46.6300 C   0  0  0  0  0  0  0  0  0  0  0  0
   55.2230   26.4510   46.1800 O   0  0  0  0  0  0  0  0  0  0  0  0
   56.6660   28.1700   44.8580 C   0  0  0  0  0  0  0  0  0  0  0  0
   56.6670   29.5420   44.7240 C   0  0  0  0  0  0  0  0  0  0  0  0
   55.5210   30.3440   44.1830 C   0  0  0  0  0  0  0  0  0  0  0  0
   57.8320   30.0580   45.1730 N   0  0  0  0  0  0  0  0  0  0  0  0
   58.1730   31.4560   45.2080 C   0  0  0  0  0  0  0  0  0  0  0  0
   58.0710   32.2320   44.0450 C   0  0  0  0  0  0  0  0  0  0  0  0
   58.3870   33.5920   44.0780 C   0  0  0  0  0  0  0  0  0  0  0  0
   58.8100   34.1850   45.2710 C   0  0  0  0  0  0  0  0  0  0  0  0
   58.9320   33.4190   46.4410 C   0  0  0  0  0  0  0  0  0  0  0  0
   59.3710   34.0420   47.7080 C   0  0  0  0  0  0  0  0  0  0  0  0
   58.9350   35.1840   48.0200 O   0  0  0  0  0  0  0  0  0  0  0  0
   60.2610   33.3540   48.6030 N   0  0  0  0  0  0  0  0  0  0  0  0
   59.9130   33.0130   49.9870 C   0  0  0  0  0  0  0  0  0  0  0  0
   61.2470   32.7090   50.7090 C   0  0  0  0  0  0  0  0  0  0  0  0
   62.2690   32.9200   49.6470 C   0  0  0  0  0  0  0  0  0  0  0  0
   63.6550   32.7720   49.7420 C   0  0  0  0  0  0  0  0  0  0  0  0
   64.2350   32.4080   50.9120 F   0  0  0  0  0  0  0  0  0  0  0  0
   64.4350   33.0050   48.5990 C   0  0  0  0  0  0  0  0  0  0  0  0
   63.8210   33.3710   47.3860 C   0  0  0  0  0  0  0  0  0  0  0  0
   62.4250   33.5110   47.3130 C   0  0  0  0  0  0  0  0  0  0  0  0
   61.6730   33.2890   48.4730 C   0  0  0  0  0  0  0  0  0  0  0  0
   58.5980   32.0540   46.4040 C   0  0  0  0  0  0  0  0  0  0  0  0
   60.1919   30.1803   46.3636 H   0  0  0  0  0  0  0  0  0  0  0  0
   60.2674   28.3039   46.6851 H   0  0  0  0  0  0  0  0  0  0  0  0
   59.2107   26.2047   45.1088 H   0  0  0  0  0  0  0  0  0  0  0  0
   54.2370   26.3350   46.3780 H   0  0  0  0  0  0  0  0  0  0  0  0
   55.8418   27.4875   44.6033 H   0  0  0  0  0  0  0  0  0  0  0  0
   54.9343   30.7546   45.0180 H   0  0  0  0  0  0  0  0  0  0  0  0
   55.9090   31.1687   43.5671 H   0  0  0  0  0  0  0  0  0  0  0  0
   54.8791   29.6970   43.5671 H   0  0  0  0  0  0  0  0  0  0  0  0
   57.7411   31.7684   43.1036 H   0  0  0  0  0  0  0  0  0  0  0  0
   58.3029   34.1976   43.1635 H   0  0  0  0  0  0  0  0  0  0  0  0
   59.0488   35.2585   45.2931 H   0  0  0  0  0  0  0  0  0  0  0  0
   59.4025   33.8589   50.4706 H   0  0  0  0  0  0  0  0  0  0  0  0
   59.2318   32.1502   50.0265 H   0  0  0  0  0  0  0  0  0  0  0  0
   61.4054   33.3993   51.5507 H   0  0  0  0  0  0  0  0  0  0  0  0
   61.2803   31.6988   51.1429 H   0  0  0  0  0  0  0  0  0  0  0  0
   65.5289   32.9014   48.6508 H   0  0  0  0  0  0  0  0  0  0  0  0
   64.4368   33.5480   46.4919 H   0  0  0  0  0  0  0  0  0  0  0  0
   61.9349   33.7881   46.3680 H   0  0  0  0  0  0  0  0  0  0  0  0
   58.6704   31.4497   47.3203 H   0  0  0  0  0  0  0  0  0  0  0  0
  1  2  2  0
  2  3  1  0
  3  4  2  3
  4  5  1  0
  5  6  1  0
  6  7  1  0
  7  8  2  0
  7  9  1  0
  9 10  1  0
 10 11  1  0
  3 12  1  0
 12 13  2  0
 13 14  1  0
 13 15  1  0
 15 16  1  0
 16 17  2  0
 17 18  1  0
 18 19  2  0
 19 20  1  0
 20 21  1  0
 21 22  2  0
 21 23  1  0
 23 24  1  0
 24 25  1  0
 25 26  1  0
 26 27  2  0
 27 28  1  0
 27 29  1  0
 29 30  2  0
 30 31  1  0
 31 32  2  0
 20 33  2  0
 15  2  1  0
 33 16  1  0
 10  5  2  0
 32 23  1  0
 32 26  1  0
  1 34  1  0
  1 35  1  0
  4 36  1  0
 11 37  1  0
 12 38  1  0
 14 39  1  0
 14 40  1  0
 14 41  1  0
 17 42  1  0
 18 43  1  0
 19 44  1  0
 24 45  1  0
 24 46  1  0
 25 47  1  0
 25 48  1  0
 29 49  1  0
 30 50  1  0
 31 51  1  0
 33 52  1  0
M  CHG  2   6  -1   9  -1
M  END
>  <UniqueID>  (71) 
66

>  <SMILES>  (71) 
C=c1c(=Cc2[n-]c(=O)[n-]c2O)cc(C)n1-c1cccc(C(=O)N2CCc3c(F)cccc32)c1

>  <Energy>  (71) 
153.13968144466114

>  <Genealogy>  (71) 
C=c1c(=Cc2[n-]c(=O)[n-]c2O)cc(C)n1-c1cccc(C(=O)N2CCc3c(F)cccc32)c1 (protonated)
C=c1c(=Cc2[n-]c(=O)[n-]c2O)cc(C)n1-c1cccc(C(=O)N2CCc3c(F)cccc32)c1 (3D coordinates assigned)
C=c1c(=Cc2[n-]c(=O)[n-]c2O)cc(C)n1-c1cccc(C(=O)N2CCc3c(F)cccc32)c1 (nonaromatic ring conformer: 153.13968144466114 kcal/mol)

>  <smiles>  (71) 
C=c1c(=Cc2[nH]c(=O)[nH]c2O)cc(C)n1-c1cccc(C(=O)N2CCc3c(F)cccc32)c1

>  <score_type>  (71) 
oracle

>  <origin>  (71) 
adg

>  <m_score__min__energy>  (71) 
-15.390000000000001

>  <m_primary>  (71) 
energy

$$$$
71:0
     RDKit          3D

 40 42  0  0  0  0  0  0  0  0999 V2000
   57.7240   21.3070   43.0890 C   0  0  0  0  0  0  0  0  0  0  0  0
   57.5830   22.2190   44.2650 C   0  0  0  0  0  0  0  0  0  0  0  0
   57.5250   21.6990   45.5610 C   0  0  0  0  0  0  0  0  0  0  0  0
   57.3930   22.5880   46.6280 C   0  0  0  0  0  0  0  0  0  0  0  0
   57.3370   22.1570   47.8090 O   0  0  0  0  0  0  0  0  0  0  0  0
   57.3260   23.9240   46.3920 N   0  0  0  0  0  0  0  0  0  0  0  0
   57.3840   24.4220   45.1260 C   0  0  0  0  0  0  0  0  0  0  0  0
   57.3070   25.8870   44.8910 C   0  0  0  0  0  0  0  0  0  0  0  0
   56.7020   26.7330   45.8370 C   0  0  0  0  0  0  0  0  0  0  0  0
   56.6320   28.1110   45.6160 C   0  0  0  0  0  0  0  0  0  0  0  0
   57.1550   28.6750   44.4400 C   0  0  0  0  0  0  0  0  0  0  0  0
   57.0800   30.1390   44.2220 C   0  0  0  0  0  0  0  0  0  0  0  0
   56.0650   30.7730   44.6210 O   0  0  0  0  0  0  0  0  0  0  0  0
   58.1360   30.8450   43.5490 N   0  0  0  0  0  0  0  0  0  0  0  0
   58.2100   32.3030   43.5300 C   0  0  0  0  0  0  0  0  0  0  0  0
   58.5400   32.8240   44.9030 C   0  0  0  0  0  0  0  0  0  0  0  0
   58.8650   31.9380   45.9440 C   0  0  0  0  0  0  0  0  0  0  0  0
   59.1960   32.4320   47.2100 C   0  0  0  0  0  0  0  0  0  0  0  0
   59.2080   33.8110   47.4430 C   0  0  0  0  0  0  0  0  0  0  0  0
   58.8920   34.6970   46.4100 C   0  0  0  0  0  0  0  0  0  0  0  0
   58.5610   34.2070   45.1420 C   0  0  0  0  0  0  0  0  0  0  0  0
   57.7690   27.8320   43.4990 C   0  0  0  0  0  0  0  0  0  0  0  0
   57.8420   26.4530   43.7210 C   0  0  0  0  0  0  0  0  0  0  0  0
   57.5120   23.5640   44.0770 N   0  0  0  0  0  0  0  0  0  0  0  0
   57.8832   20.2770   43.4408 H   0  0  0  0  0  0  0  0  0  0  0  0
   56.8087   21.3492   42.4804 H   0  0  0  0  0  0  0  0  0  0  0  0
   58.5839   21.6237   42.4804 H   0  0  0  0  0  0  0  0  0  0  0  0
   57.5821   20.6144   45.7356 H   0  0  0  0  0  0  0  0  0  0  0  0
   56.2801   26.3065   46.7590 H   0  0  0  0  0  0  0  0  0  0  0  0
   56.1630   28.7605   46.3698 H   0  0  0  0  0  0  0  0  0  0  0  0
   58.8570   30.3120   43.0130 H   0  0  0  0  0  0  0  0  0  0  0  0
   58.9924   32.6181   42.8239 H   0  0  0  0  0  0  0  0  0  0  0  0
   57.2365   32.7080   43.2165 H   0  0  0  0  0  0  0  0  0  0  0  0
   58.8591   30.8530   45.7628 H   0  0  0  0  0  0  0  0  0  0  0  0
   59.4471   31.7352   48.0232 H   0  0  0  0  0  0  0  0  0  0  0  0
   59.4663   34.1981   48.4397 H   0  0  0  0  0  0  0  0  0  0  0  0
   58.9035   35.7815   46.5939 H   0  0  0  0  0  0  0  0  0  0  0  0
   58.3165   34.9076   44.3300 H   0  0  0  0  0  0  0  0  0  0  0  0
   58.1959   28.2599   42.5800 H   0  0  0  0  0  0  0  0  0  0  0  0
   58.3226   25.8054   42.9729 H   0  0  0  0  0  0  0  0  0  0  0  0
  1  2  1  0
  2  3  2  0
  3  4  1  0
  4  5  2  0
  4  6  1  0
  6  7  1  0
  7  8  1  0
  8  9  2  0
  9 10  1  0
 10 11  2  0
 11 12  1  0
 12 13  2  0
 12 14  1  0
 14 15  1  0
 15 16  1  0
 16 17  2  0
 17 18  1  0
 18 19  2  0
 19 20  1  0
 20 21  2  0
 11 22  1  0
 22 23  2  0
  7 24  2  0
 24  2  1  0
 23  8  1  0
 21 16  1  0
  1 25  1  0
  1 26  1  0
  1 27  1  0
  3 28  1  0
  9 29  1  0
 10 30  1  0
 14 31  1  0
 15 32  1  0
 15 33  1  0
 17 34  1  0
 18 35  1  0
 19 36  1  0
 20 37  1  0
 21 38  1  0
 22 39  1  0
 23 40  1  0
M  CHG  1   6  -1
M  END
>  <UniqueID>  (72) 
67

>  <SMILES>  (72) 
Cc1cc(=O)[n-]c(-c2ccc(C(=O)NCc3ccccc3)cc2)n1

>  <Energy>  (72) 
43.81349335969034

>  <Genealogy>  (72) 
Cc1cc(=O)[n-]c(-c2ccc(C(=O)NCc3ccccc3)cc2)n1 (protonated)
Cc1cc(=O)[n-]c(-c2ccc(C(=O)NCc3ccccc3)cc2)n1 (3D coordinates assigned)
Cc1cc(=O)[n-]c(-c2ccc(C(=O)NCc3ccccc3)cc2)n1 (optimized conformer: 43.81349335969034 kcal/mol)

>  <smiles>  (72) 
Cc1cc(=O)[nH]c(-c2ccc(C(=O)NCc3ccccc3)cc2)n1

>  <score_type>  (72) 
oracle

>  <origin>  (72) 
adg

>  <m_score__min__energy>  (72) 
-9.4299999999999997

>  <m_primary>  (72) 
energy

$$$$
72:0
     RDKit          3D

 52 54  0  0  0  0  0  0  0  0999 V2000
   57.0260   22.5650   43.6470 C   0  0  0  0  0  0  0  0  0  0  0  0
   56.5960   21.7600   44.8450 C   0  0  0  0  0  0  0  0  0  0  0  0
   57.4320   20.7270   45.3010 C   0  0  0  0  0  0  0  0  0  0  0  0
   57.0860   19.9730   46.4250 C   0  0  0  0  0  0  0  0  0  0  0  0
   55.9020   20.2440   47.1090 C   0  0  0  0  0  0  0  0  0  0  0  0
   55.0660   21.2730   46.6780 C   0  0  0  0  0  0  0  0  0  0  0  0
   55.4030   22.0490   45.5560 C   0  0  0  0  0  0  0  0  0  0  0  0
   54.3220   23.3690   45.0810 S   0  0  0  0  0  0  0  0  0  0  0  0
   52.8840   22.9650   45.2610 O   0  0  0  0  0  0  0  0  0  0  0  0
   54.5490   23.6840   43.6310 O   0  0  0  0  0  0  0  0  0  0  0  0
   54.6140   24.7920   46.0260 N   0  0  0  0  0  0  0  0  0  0  0  0
   55.7990   25.5870   45.9400 C   0  0  0  0  0  0  0  0  0  0  0  0
   56.9160   25.0080   45.8800 O   0  0  0  0  0  0  0  0  0  0  0  0
   55.7350   27.0200   45.9450 N   0  0  0  0  0  0  0  0  0  0  0  0
   56.8650   27.8580   45.5500 C   0  0  0  0  0  0  0  0  0  0  0  0
   56.3820   29.1620   44.9830 C   0  0  0  0  0  0  0  0  0  0  0  0
   55.1430   29.3610   44.8760 O   0  0  0  0  0  0  0  0  0  0  0  0
   57.2870   30.1640   44.5030 N   0  0  0  0  0  0  0  0  0  0  0  0
   57.7110   31.3230   45.2310 C   0  0  0  0  0  0  0  0  0  0  0  0
   57.1880   32.5900   44.9250 C   0  0  0  0  0  0  0  0  0  0  0  0
   57.6380   33.7220   45.6090 C   0  0  0  0  0  0  0  0  0  0  0  0
   58.6330   33.6030   46.5820 C   0  0  0  0  0  0  0  0  0  0  0  0
   59.1800   32.3510   46.8700 C   0  0  0  0  0  0  0  0  0  0  0  0
   58.7260   31.2090   46.1990 C   0  0  0  0  0  0  0  0  0  0  0  0
   59.2890   29.9320   46.5290 N   0  0  0  0  0  0  0  0  0  0  0  0
   60.2760   29.3190   45.6380 C   0  0  0  0  0  0  0  0  0  0  0  0
   60.2510   27.7990   45.8140 C   0  0  0  0  0  0  0  0  0  0  0  0
   60.3810   27.4520   47.1800 O   0  0  0  0  0  0  0  0  0  0  0  0
   59.2470   27.9010   47.8980 C   0  0  0  0  0  0  0  0  0  0  0  0
   59.1730   29.4310   47.8990 C   0  0  0  0  0  0  0  0  0  0  0  0
   57.5194   23.4887   43.9838 H   0  0  0  0  0  0  0  0  0  0  0  0
   57.7286   21.9740   43.0411 H   0  0  0  0  0  0  0  0  0  0  0  0
   56.1441   22.8203   43.0411 H   0  0  0  0  0  0  0  0  0  0  0  0
   58.3690   20.5096   44.7673 H   0  0  0  0  0  0  0  0  0  0  0  0
   57.7480   19.1653   46.7704 H   0  0  0  0  0  0  0  0  0  0  0  0
   55.6270   19.6452   47.9898 H   0  0  0  0  0  0  0  0  0  0  0  0
   54.1326   21.4797   47.2220 H   0  0  0  0  0  0  0  0  0  0  0  0
   54.8880   27.4960   46.3180 H   0  0  0  0  0  0  0  0  0  0  0  0
   57.4930   28.0571   46.4309 H   0  0  0  0  0  0  0  0  0  0  0  0
   57.4467   27.3298   44.7801 H   0  0  0  0  0  0  0  0  0  0  0  0
   56.4207   32.6915   44.1434 H   0  0  0  0  0  0  0  0  0  0  0  0
   57.2081   34.7085   45.3809 H   0  0  0  0  0  0  0  0  0  0  0  0
   58.9854   34.4948   47.1209 H   0  0  0  0  0  0  0  0  0  0  0  0
   59.9719   32.2614   47.6282 H   0  0  0  0  0  0  0  0  0  0  0  0
   60.0342   29.5710   44.5949 H   0  0  0  0  0  0  0  0  0  0  0  0
   61.2781   29.6994   45.8854 H   0  0  0  0  0  0  0  0  0  0  0  0
   59.2975   27.4066   45.4308 H   0  0  0  0  0  0  0  0  0  0  0  0
   61.0938   27.3642   45.2566 H   0  0  0  0  0  0  0  0  0  0  0  0
   58.3389   27.4966   47.4271 H   0  0  0  0  0  0  0  0  0  0  0  0
   59.3278   27.5518   48.9380 H   0  0  0  0  0  0  0  0  0  0  0  0
   58.2102   29.7501   48.3246 H   0  0  0  0  0  0  0  0  0  0  0  0
   59.9972   29.8349   48.5052 H   0  0  0  0  0  0  0  0  0  0  0  0
  1  2  1  0
  2  3  2  0
  3  4  1  0
  4  5  2  0
  5  6  1  0
  6  7  2  0
  7  8  1  0
  8  9  2  0
  8 10  2  0
  8 11  1  0
 11 12  1  0
 12 13  2  0
 12 14  1  0
 14 15  1  0
 15 16  1  0
 16 17  2  0
 16 18  1  0
 18 19  1  0
 19 20  2  0
 20 21  1  0
 21 22  2  0
 22 23  1  0
 23 24  2  0
 24 25  1  0
 25 26  1  0
 26 27  1  0
 27 28  1  0
 28 29  1  0
 29 30  1  0
  7  2  1  0
 24 19  1  0
 30 25  1  0
  1 31  1  0
  1 32  1  0
  1 33  1  0
  3 34  1  0
  4 35  1  0
  5 36  1  0
  6 37  1  0
 14 38  1  0
 15 39  1  0
 15 40  1  0
 20 41  1  0
 21 42  1  0
 22 43  1  0
 23 44  1  0
 26 45  1  0
 26 46  1  0
 27 47  1  0
 27 48  1  0
 29 49  1  0
 29 50  1  0
 30 51  1  0
 30 52  1  0
M  CHG  2  11  -1  18  -1
M  END
>  <UniqueID>  (73) 
68

>  <SMILES>  (73) 
Cc1ccccc1S(=O)(=O)[N-]C(=O)NCC(=O)[N-]c1ccccc1N1CCOCC1

>  <Energy>  (73) 
64.77079176286821

>  <Genealogy>  (73) 
Cc1ccccc1S(=O)(=O)[N-]C(=O)NCC(=O)[N-]c1ccccc1N1CCOCC1 (protonated)
Cc1ccccc1S(=O)(=O)[N-]C(=O)NCC(=O)[N-]c1ccccc1N1CCOCC1 (3D coordinates assigned)
Cc1ccccc1S(=O)(=O)[N-]C(=O)NCC(=O)[N-]c1ccccc1N1CCOCC1 (nonaromatic ring conformer: 64.77079176286821 kcal/mol)

>  <smiles>  (73) 
Cc1ccccc1S(=O)(=O)NC(=O)NCC(=O)Nc1ccccc1N1CCOCC1

>  <score_type>  (73) 
oracle

>  <origin>  (73) 
adg

>  <m_score__min__energy>  (73) 
-12.44

>  <m_primary>  (73) 
energy

$$$$
73:0
     RDKit          3D

 34 36  0  0  0  0  0  0  0  0999 V2000
   59.6440   35.3700   45.9380 C   0  0  0  0  0  0  0  0  0  0  0  0
   59.9960   34.0270   46.5240 C   0  0  0  0  0  0  0  0  0  0  0  0
   61.2920   33.8200   47.0290 C   0  0  0  0  0  0  0  0  0  0  0  0
   61.6520   32.5890   47.5810 C   0  0  0  0  0  0  0  0  0  0  0  0
   60.7240   31.5500   47.6380 C   0  0  0  0  0  0  0  0  0  0  0  0
   59.4300   31.7410   47.1510 C   0  0  0  0  0  0  0  0  0  0  0  0
   59.0430   32.9780   46.6060 C   0  0  0  0  0  0  0  0  0  0  0  0
   57.6410   33.1270   46.0720 C   0  0  0  0  0  0  0  0  0  0  0  0
   57.6050   32.6580   44.3110 S   0  0  0  0  0  0  0  0  0  0  0  0
   57.0350   30.9970   44.6520 C   0  0  0  0  0  0  0  0  0  0  0  0
   55.7620   30.5900   44.4960 N   0  0  0  0  0  0  0  0  0  0  0  0
   55.7420   29.3130   44.8410 N   0  0  0  0  0  0  0  0  0  0  0  0
   57.0030   28.9910   45.1960 C   0  0  0  0  0  0  0  0  0  0  0  0
   57.4400   27.6520   45.6540 C   0  0  0  0  0  0  0  0  0  0  0  0
   58.8170   27.3660   45.7200 C   0  0  0  0  0  0  0  0  0  0  0  0
   59.2620   26.1130   46.1470 C   0  0  0  0  0  0  0  0  0  0  0  0
   58.3430   25.1300   46.5130 C   0  0  0  0  0  0  0  0  0  0  0  0
   56.9730   25.3970   46.4510 C   0  0  0  0  0  0  0  0  0  0  0  0
   56.5170   26.6490   46.0250 C   0  0  0  0  0  0  0  0  0  0  0  0
   55.1450   26.8810   45.9770 O   0  0  0  0  0  0  0  0  0  0  0  0
   57.8010   30.0260   45.0800 O   0  0  0  0  0  0  0  0  0  0  0  0
   59.4561   36.0869   46.7509 H   0  0  0  0  0  0  0  0  0  0  0  0
   60.4783   35.7294   45.3177 H   0  0  0  0  0  0  0  0  0  0  0  0
   58.7407   35.2740   45.3177 H   0  0  0  0  0  0  0  0  0  0  0  0
   62.0291   34.6355   46.9888 H   0  0  0  0  0  0  0  0  0  0  0  0
   62.6693   32.4387   47.9715 H   0  0  0  0  0  0  0  0  0  0  0  0
   61.0119   30.5789   48.0671 H   0  0  0  0  0  0  0  0  0  0  0  0
   58.7051   30.9148   47.1940 H   0  0  0  0  0  0  0  0  0  0  0  0
   56.9618   32.4734   46.6390 H   0  0  0  0  0  0  0  0  0  0  0  0
   57.3187   34.1733   46.1782 H   0  0  0  0  0  0  0  0  0  0  0  0
   59.5484   28.1358   45.4329 H   0  0  0  0  0  0  0  0  0  0  0  0
   60.3403   25.9009   46.1948 H   0  0  0  0  0  0  0  0  0  0  0  0
   58.6967   24.1446   46.8504 H   0  0  0  0  0  0  0  0  0  0  0  0
   56.2499   24.6195   46.7384 H   0  0  0  0  0  0  0  0  0  0  0  0
  1  2  1  0
  2  3  2  0
  3  4  1  0
  4  5  2  0
  5  6  1  0
  6  7  2  0
  7  8  1  0
  8  9  1  0
  9 10  1  0
 10 11  2  0
 11 12  1  0
 12 13  2  0
 13 14  1  0
 14 15  2  0
 15 16  1  0
 16 17  2  0
 17 18  1  0
 18 19  2  0
 19 20  1  0
 13 21  1  0
  7  2  1  0
 21 10  1  0
 19 14  1  0
  1 22  1  0
  1 23  1  0
  1 24  1  0
  3 25  1  0
  4 26  1  0
  5 27  1  0
  6 28  1  0
  8 29  1  0
  8 30  1  0
 15 31  1  0
 16 32  1  0
 17 33  1  0
 18 34  1  0
M  CHG  1  20  -1
M  END
>  <UniqueID>  (74) 
69

>  <SMILES>  (74) 
Cc1ccccc1CSc1nnc(-c2ccccc2[O-])o1

>  <Energy>  (74) 
69.58420342804355

>  <Genealogy>  (74) 
Cc1ccccc1CSc1nnc(-c2ccccc2[O-])o1 (protonated)
Cc1ccccc1CSc1nnc(-c2ccccc2[O-])o1 (3D coordinates assigned)
Cc1ccccc1CSc1nnc(-c2ccccc2[O-])o1 (optimized conformer: 69.58420342804355 kcal/mol)

>  <smiles>  (74) 
Cc1ccccc1CSc1nnc(-c2ccccc2O)o1

>  <score_type>  (74) 
oracle

>  <origin>  (74) 
adg

>  <m_score__min__energy>  (74) 
-12.640000000000001

>  <m_primary>  (74) 
energy

$$$$
74:0
     RDKit          3D

 24 24  0  0  0  0  0  0  0  0999 V2000
   57.2450   34.3970   45.0400 O   0  0  0  0  0  0  0  0  0  0  0  0
   58.2190   34.0020   45.6600 C   0  0  0  0  0  0  0  0  0  0  0  0
   58.0790   32.8730   46.6300 C   0  0  0  0  0  0  0  0  0  0  0  0
   58.2970   31.6050   45.9460 N   0  0  0  0  0  0  0  0  0  0  0  0
   57.3850   31.0850   44.9740 C   0  0  0  0  0  0  0  0  0  0  0  0
   56.2330   31.5830   44.8480 O   0  0  0  0  0  0  0  0  0  0  0  0
   57.7870   29.9130   44.1380 C   0  0  0  0  0  0  0  0  0  0  0  0
   57.5650   28.6330   44.9000 C   0  0  0  0  0  0  0  0  0  0  0  0
   58.6670   27.8690   45.3150 C   0  0  0  0  0  0  0  0  0  0  0  0
   58.4800   26.6960   46.0490 C   0  0  0  0  0  0  0  0  0  0  0  0
   57.1910   26.2730   46.3880 C   0  0  0  0  0  0  0  0  0  0  0  0
   57.0330   25.0980   47.1210 O   0  0  0  0  0  0  0  0  0  0  0  0
   56.0810   27.0370   45.9900 C   0  0  0  0  0  0  0  0  0  0  0  0
   54.7940   26.6310   46.3260 O   0  0  0  0  0  0  0  0  0  0  0  0
   56.2660   28.2150   45.2520 C   0  0  0  0  0  0  0  0  0  0  0  0
   55.1570   28.9680   44.8770 O   0  0  0  0  0  0  0  0  0  0  0  0
   59.1994   34.4763   45.5053 H   0  0  0  0  0  0  0  0  0  0  0  0
   58.8220   32.9872   47.4331 H   0  0  0  0  0  0  0  0  0  0  0  0
   57.0658   32.8854   47.0581 H   0  0  0  0  0  0  0  0  0  0  0  0
   57.1837   29.8982   43.2183 H   0  0  0  0  0  0  0  0  0  0  0  0
   58.8538   30.0006   43.8846 H   0  0  0  0  0  0  0  0  0  0  0  0
   59.6856   28.1968   45.0600 H   0  0  0  0  0  0  0  0  0  0  0  0
   59.3510   26.1017   46.3621 H   0  0  0  0  0  0  0  0  0  0  0  0
   56.1200   24.7510   47.3900 H   0  0  0  0  0  0  0  0  0  0  0  0
  1  2  2  0
  2  3  1  0
  3  4  1  0
  4  5  1  0
  5  6  2  0
  5  7  1  0
  7  8  1  0
  8  9  2  0
  9 10  1  0
 10 11  2  0
 11 12  1  0
 11 13  1  0
 13 14  1  0
 13 15  2  0
 15 16  1  0
 15  8  1  0
  2 17  1  0
  3 18  1  0
  3 19  1  0
  7 20  1  0
  7 21  1  0
  9 22  1  0
 10 23  1  0
 12 24  1  0
M  CHG  3   4  -1  14  -1  16  -1
M  END
>  <UniqueID>  (75) 
70

>  <SMILES>  (75) 
O=CC[N-]C(=O)Cc1ccc(O)c([O-])c1[O-]

>  <Energy>  (75) 
17.498377846282423

>  <Genealogy>  (75) 
O=CC[N-]C(=O)Cc1ccc(O)c([O-])c1[O-] (protonated)
O=CC[N-]C(=O)Cc1ccc(O)c([O-])c1[O-] (3D coordinates assigned)
O=CC[N-]C(=O)Cc1ccc(O)c([O-])c1[O-] (optimized conformer: 17.498377846282423 kcal/mol)

>  <smiles>  (75) 
O=CCNC(=O)Cc1ccc(O)c(O)c1O

>  <score_type>  (75) 
oracle

>  <origin>  (75) 
adg

>  <m_score__min__energy>  (75) 
-13.91

>  <m_primary>  (75) 
energy

$$$$
75:0
     RDKit          3D

 54 57  0  0  0  0  0  0  0  0999 V2000
   54.8520   26.3640   46.0990 N   0  0  0  0  0  0  0  0  0  0  0  0
   56.2340   26.4100   45.7500 C   0  0  0  0  0  0  0  0  0  0  0  0
   56.7910   25.3680   45.3100 O   0  0  0  0  0  0  0  0  0  0  0  0
   57.0090   27.6660   45.9000 C   0  0  0  0  0  0  0  0  0  0  0  0
   56.6060   28.8370   45.2320 C   0  0  0  0  0  0  0  0  0  0  0  0
   57.3410   30.0220   45.3510 C   0  0  0  0  0  0  0  0  0  0  0  0
   56.8820   31.1860   44.6490 N   0  0  0  0  0  0  0  0  0  0  0  0
   57.4480   32.5030   44.6960 C   0  0  0  0  0  0  0  0  0  0  0  0
   57.9370   33.0310   43.6620 O   0  0  0  0  0  0  0  0  0  0  0  0
   57.3540   33.3070   45.9560 C   0  0  0  0  0  0  0  0  0  0  0  0
   58.6590   33.3930   46.6120 N   0  0  0  0  0  0  0  0  0  0  0  0
   58.9510   33.0370   47.8820 C   0  0  0  0  0  0  0  0  0  0  0  0
   58.0160   32.5690   48.8010 O   0  0  0  0  0  0  0  0  0  0  0  0
   60.3030   33.1850   48.1230 C   0  0  0  0  0  0  0  0  0  0  0  0
   60.8640   33.6340   46.9520 C   0  0  0  0  0  0  0  0  0  0  0  0
   59.8310   33.7440   46.0370 C   0  0  0  0  0  0  0  0  0  0  0  0
   59.9580   34.1380   44.7070 O   0  0  0  0  0  0  0  0  0  0  0  0
   62.3270   33.8840   46.7660 C   0  0  0  0  0  0  0  0  0  0  0  0
   63.1040   33.6540   48.0480 C   0  0  0  0  0  0  0  0  0  0  0  0
   62.5500   33.2120   49.2010 C   0  0  0  0  0  0  0  0  0  0  0  0
   61.0790   32.8860   49.3650 C   0  0  0  0  0  0  0  0  0  0  0  0
   58.4720   30.0520   46.1870 C   0  0  0  0  0  0  0  0  0  0  0  0
   58.8840   28.8940   46.8590 C   0  0  0  0  0  0  0  0  0  0  0  0
   60.3360   28.9080   47.8580 S   0  0  0  0  0  0  0  0  0  0  0  0
   61.0970   27.6220   47.6780 O   0  0  0  0  0  0  0  0  0  0  0  0
   61.2130   30.0490   47.4200 O   0  0  0  0  0  0  0  0  0  0  0  0
   59.8930   29.1160   49.5320 N   0  0  0  0  0  0  0  0  0  0  0  0
   61.0280   29.6700   50.2920 C   0  0  0  0  0  0  0  0  0  0  0  0
   60.5790   30.1390   51.6900 C   0  0  0  0  0  0  0  0  0  0  0  0
   59.2940   29.6380   52.0030 O   0  0  0  0  0  0  0  0  0  0  0  0
   58.3340   30.1900   51.1180 C   0  0  0  0  0  0  0  0  0  0  0  0
   58.7290   30.0060   49.6360 C   0  0  0  0  0  0  0  0  0  0  0  0
   58.1590   27.7050   46.7060 C   0  0  0  0  0  0  0  0  0  0  0  0
   54.4370   27.0730   46.7450 H   0  0  0  0  0  0  0  0  0  0  0  0
   55.7006   28.8208   44.6075 H   0  0  0  0  0  0  0  0  0  0  0  0
   57.0047   34.3212   45.7122 H   0  0  0  0  0  0  0  0  0  0  0  0
   56.6463   32.8139   46.6387 H   0  0  0  0  0  0  0  0  0  0  0  0
   59.3730   33.7380   43.9830 H   0  0  0  0  0  0  0  0  0  0  0  0
   62.7090   33.2034   45.9909 H   0  0  0  0  0  0  0  0  0  0  0  0
   62.4598   34.9348   46.4690 H   0  0  0  0  0  0  0  0  0  0  0  0
   64.1847   33.8591   48.0402 H   0  0  0  0  0  0  0  0  0  0  0  0
   63.2079   33.0813   50.0728 H   0  0  0  0  0  0  0  0  0  0  0  0
   60.9753   31.8166   49.6010 H   0  0  0  0  0  0  0  0  0  0  0  0
   60.6786   33.5104   50.1773 H   0  0  0  0  0  0  0  0  0  0  0  0
   59.0351   30.9885   46.3135 H   0  0  0  0  0  0  0  0  0  0  0  0
   61.7996   28.8940   50.4033 H   0  0  0  0  0  0  0  0  0  0  0  0
   61.4286   30.5352   49.7435 H   0  0  0  0  0  0  0  0  0  0  0  0
   61.2986   29.7774   52.4393 H   0  0  0  0  0  0  0  0  0  0  0  0
   60.5379   31.2382   51.6950 H   0  0  0  0  0  0  0  0  0  0  0  0
   57.3674   29.6942   51.2907 H   0  0  0  0  0  0  0  0  0  0  0  0
   58.2730   31.2699   51.3185 H   0  0  0  0  0  0  0  0  0  0  0  0
   57.8841   29.5661   49.0859 H   0  0  0  0  0  0  0  0  0  0  0  0
   58.9848   30.9859   49.2066 H   0  0  0  0  0  0  0  0  0  0  0  0
   58.4935   26.7930   47.2221 H   0  0  0  0  0  0  0  0  0  0  0  0
  1  2  1  0
  2  3  2  0
  2  4  1  0
  4  5  2  0
  5  6  1  0
  6  7  1  0
  7  8  1  0
  8  9  2  0
  8 10  1  0
 10 11  1  0
 11 12  1  0
 12 13  1  0
 12 14  2  0
 14 15  1  0
 15 16  2  0
 16 17  1  0
 15 18  1  0
 18 19  1  0
 19 20  2  0
 20 21  1  0
  6 22  2  0
 22 23  1  0
 23 24  1  0
 24 25  2  0
 24 26  2  0
 24 27  1  0
 27 28  1  0
 28 29  1  0
 29 30  1  0
 30 31  1  0
 31 32  1  0
 23 33  2  0
 33  4  1  0
 16 11  1  0
 32 27  1  0
 21 14  1  0
  1 34  1  0
  5 35  1  0
 10 36  1  0
 10 37  1  0
 17 38  1  0
 18 39  1  0
 18 40  1  0
 19 41  1  0
 20 42  1  0
 21 43  1  0
 21 44  1  0
 22 45  1  0
 28 46  1  0
 28 47  1  0
 29 48  1  0
 29 49  1  0
 31 50  1  0
 31 51  1  0
 32 52  1  0
 32 53  1  0
 33 54  1  0
M  CHG  3   1  -1   7  -1  13  -1
M  END
>  <UniqueID>  (76) 
71

>  <SMILES>  (76) 
[NH-]C(=O)c1cc([N-]C(=O)Cn2c([O-])c3c(c2O)CC=CC3)cc(S(=O)(=O)N2CCOCC2)c1

>  <Energy>  (76) 
97.1058374389571

>  <Genealogy>  (76) 
[NH-]C(=O)c1cc([N-]C(=O)Cn2c([O-])c3c(c2O)CC=CC3)cc(S(=O)(=O)N2CCOCC2)c1 (protonated)
[NH-]C(=O)c1cc([N-]C(=O)Cn2c([O-])c3c(c2O)CC=CC3)cc(S(=O)(=O)N2CCOCC2)c1 (3D coordinates assigned)
[NH-]C(=O)c1cc([N-]C(=O)Cn2c([O-])c3c(c2O)CC=CC3)cc(S(=O)(=O)N2CCOCC2)c1 (nonaromatic ring conformer: 97.1058374389571 kcal/mol)

>  <smiles>  (76) 
NC(=O)c1cc(NC(=O)Cn2c(O)c3c(c2O)CC=CC3)cc(S(=O)(=O)N2CCOCC2)c1

>  <score_type>  (76) 
oracle

>  <origin>  (76) 
adg

>  <m_score__min__energy>  (76) 
-15.1

>  <m_primary>  (76) 
energy

$$$$
76:0
     RDKit          3D

 43 45  0  0  0  0  0  0  0  0999 V2000
   56.0993   26.6505   46.9815 H   0  0  0  0  0  0  0  0  0  0  0  0
   56.4280   26.1280   46.0710 C   0  0  0  0  0  0  0  0  0  0  0  0
   57.1080   26.7740   45.1730 N   0  0  0  0  0  0  0  0  0  0  0  0
   57.4930   28.1540   45.2620 C   0  0  0  0  0  0  0  0  0  0  0  0
   58.8260   28.4500   45.5760 C   0  0  0  0  0  0  0  0  0  0  0  0
   59.5413   27.6311   45.7429 H   0  0  0  0  0  0  0  0  0  0  0  0
   59.2550   29.7750   45.6790 C   0  0  0  0  0  0  0  0  0  0  0  0
   60.3059   29.9923   45.9208 H   0  0  0  0  0  0  0  0  0  0  0  0
   58.3540   30.8300   45.4760 C   0  0  0  0  0  0  0  0  0  0  0  0
   58.8090   32.2340   45.5990 C   0  0  0  0  0  0  0  0  0  0  0  0
   59.3560   32.6720   46.8180 C   0  0  0  0  0  0  0  0  0  0  0  0
   59.4501   31.9680   47.6580 H   0  0  0  0  0  0  0  0  0  0  0  0
   59.7810   33.9940   46.9710 C   0  0  0  0  0  0  0  0  0  0  0  0
   60.2014   34.3281   47.9310 H   0  0  0  0  0  0  0  0  0  0  0  0
   59.6730   34.8910   45.9080 C   0  0  0  0  0  0  0  0  0  0  0  0
   60.0044   35.9326   46.0318 H   0  0  0  0  0  0  0  0  0  0  0  0
   59.1440   34.4670   44.6860 C   0  0  0  0  0  0  0  0  0  0  0  0
   59.0655   35.1761   43.8487 H   0  0  0  0  0  0  0  0  0  0  0  0
   58.7130   33.1440   44.5210 C   0  0  0  0  0  0  0  0  0  0  0  0
   58.1220   32.6530   42.9370 Cl  0  0  0  0  0  0  0  0  0  0  0  0
   57.0080   30.5400   45.2060 C   0  0  0  0  0  0  0  0  0  0  0  0
   56.2900   31.3621   45.0694 H   0  0  0  0  0  0  0  0  0  0  0  0
   56.5710   29.2140   45.1090 C   0  0  0  0  0  0  0  0  0  0  0  0
   55.2190   28.9660   44.9000 O   0  0  0  0  0  0  0  0  0  0  0  0
   56.0890   24.7010   45.8880 C   0  0  0  0  0  0  0  0  0  0  0  0
   55.6700   23.9070   46.9670 C   0  0  0  0  0  0  0  0  0  0  0  0
   55.5901   24.3476   47.9717 H   0  0  0  0  0  0  0  0  0  0  0  0
   55.3540   22.5610   46.7720 C   0  0  0  0  0  0  0  0  0  0  0  0
   55.0278   21.9474   47.6247 H   0  0  0  0  0  0  0  0  0  0  0  0
   55.4500   21.9840   45.4920 C   0  0  0  0  0  0  0  0  0  0  0  0
   55.1400   20.6350   45.2590 O   0  0  0  0  0  0  0  0  0  0  0  0
   56.0190   19.5470   45.5260 C   0  0  0  0  0  0  0  0  0  0  0  0
   56.1231   19.4181   46.6134 H   0  0  0  0  0  0  0  0  0  0  0  0
   55.6078   18.6268   45.0854 H   0  0  0  0  0  0  0  0  0  0  0  0
   57.0051   19.7556   45.0854 H   0  0  0  0  0  0  0  0  0  0  0  0
   55.8670   22.7700   44.4080 C   0  0  0  0  0  0  0  0  0  0  0  0
   55.9530   22.1670   43.1420 O   0  0  0  0  0  0  0  0  0  0  0  0
   57.0210   21.3250   42.7200 C   0  0  0  0  0  0  0  0  0  0  0  0
   57.5374   20.9179   43.6018 H   0  0  0  0  0  0  0  0  0  0  0  0
   56.6193   20.4980   42.1161 H   0  0  0  0  0  0  0  0  0  0  0  0
   57.7314   21.9086   42.1161 H   0  0  0  0  0  0  0  0  0  0  0  0
   56.1850   24.1270   44.6120 C   0  0  0  0  0  0  0  0  0  0  0  0
   56.5121   24.7430   43.7614 H   0  0  0  0  0  0  0  0  0  0  0  0
  1  2  1  0
  2  3  2  0
  3  4  1  0
  4  5  2  0
  5  6  1  0
  5  7  1  0
  7  8  1  0
  7  9  2  0
  9 10  1  0
 10 11  2  0
 11 12  1  0
 11 13  1  0
 13 14  1  0
 13 15  2  0
 15 16  1  0
 15 17  1  0
 17 18  1  0
 17 19  2  0
 19 20  1  0
  9 21  1  0
 21 22  1  0
 21 23  2  0
 23 24  1  0
  2 25  1  0
 25 26  2  0
 26 27  1  0
 26 28  1  0
 28 29  1  0
 28 30  2  0
 30 31  1  0
 31 32  1  0
 32 33  1  0
 32 34  1  0
 32 35  1  0
 30 36  1  0
 36 37  1  0
 37 38  1  0
 38 39  1  0
 38 40  1  0
 38 41  1  0
 36 42  2  0
 42 43  1  0
 23  4  1  0
 42 25  1  0
 19 10  1  0
M  CHG  1  24  -1
M  END
>  <UniqueID>  (77) 
72

>  <SMILES>  (77) 
COc1ccc(/C=N/c2ccc(-c3ccccc3Cl)cc2[O-])cc1OC

>  <Energy>  (77) 
57.57016337488223

>  <Genealogy>  (77) 
COc1ccc(C=Nc2ccc(-c3ccccc3Cl)cc2[O-])cc1OC (protonated)
COc1ccc(/C=N/c2ccc(-c3ccccc3Cl)cc2[O-])cc1OC (cis-trans isomerization)
COc1ccc(/C=N/c2ccc(-c3ccccc3Cl)cc2[O-])cc1OC (3D coordinates assigned)
COc1ccc(/C=N/c2ccc(-c3ccccc3Cl)cc2[O-])cc1OC (optimized conformer: 57.57016337488223 kcal/mol)

>  <smiles>  (77) 
COc1ccc(C=Nc2ccc(-c3ccccc3Cl)cc2O)cc1OC

>  <score_type>  (77) 
oracle

>  <origin>  (77) 
adg

>  <m_score__min__energy>  (77) 
-11.16

>  <m_primary>  (77) 
energy

$$$$
77:0
     RDKit          3D

 50 53  0  0  0  0  0  0  0  0999 V2000
   52.2806   28.8615   47.8706 H   0  0  0  0  0  0  0  0  0  0  0  0
   51.9930   29.6460   48.5860 C   0  0  0  0  0  0  0  0  0  0  0  0
   52.6150   29.7260   49.7920 N   0  0  0  0  0  0  0  0  0  0  0  0
   52.3000   30.6730   50.7180 C   0  0  0  0  0  0  0  0  0  0  0  0
   52.9330   30.6390   51.8590 N   0  0  0  0  0  0  0  0  0  0  0  0
   53.6970   29.5640   52.4220 C   0  0  0  0  0  0  0  0  0  0  0  0
   53.1050   28.5000   52.7480 O   0  0  0  0  0  0  0  0  0  0  0  0
   55.1320   29.7420   52.7340 C   0  0  0  0  0  0  0  0  0  0  0  0
   55.9750   30.1780   51.7590 N   0  0  0  0  0  0  0  0  0  0  0  0
   57.3070   30.3630   51.9650 C   0  0  0  0  0  0  0  0  0  0  0  0
   58.1480   30.8320   50.8480 C   0  0  0  0  0  0  0  0  0  0  0  0
   59.2250   30.2370   50.5740 O   0  0  0  0  0  0  0  0  0  0  0  0
   57.7340   31.9610   50.0650 N   0  0  0  0  0  0  0  0  0  0  0  0
   56.7130   32.1640   49.9760 H   0  0  0  0  0  0  0  0  0  0  0  0
   58.6480   32.7390   49.2780 C   0  0  0  0  0  0  0  0  0  0  0  0
   58.4680   32.7940   47.8890 C   0  0  0  0  0  0  0  0  0  0  0  0
   57.6266   32.2580   47.4256 H   0  0  0  0  0  0  0  0  0  0  0  0
   59.3500   33.5250   47.0890 C   0  0  0  0  0  0  0  0  0  0  0  0
   59.2079   33.5542   45.9986 H   0  0  0  0  0  0  0  0  0  0  0  0
   60.4110   34.2180   47.6730 C   0  0  0  0  0  0  0  0  0  0  0  0
   61.1117   34.7826   47.0403 H   0  0  0  0  0  0  0  0  0  0  0  0
   60.5860   34.1970   49.0580 C   0  0  0  0  0  0  0  0  0  0  0  0
   61.4200   34.7521   49.5122 H   0  0  0  0  0  0  0  0  0  0  0  0
   59.7030   33.4710   49.8750 C   0  0  0  0  0  0  0  0  0  0  0  0
   59.8460   33.5310   51.3060 N   0  0  0  0  0  0  0  0  0  0  0  0
   58.8160   34.2040   52.1100 C   0  0  0  0  0  0  0  0  0  0  0  0
   59.0539   35.2764   52.1687 H   0  0  0  0  0  0  0  0  0  0  0  0
   57.8422   34.0421   51.6247 H   0  0  0  0  0  0  0  0  0  0  0  0
   58.7420   33.6280   53.5430 C   0  0  0  0  0  0  0  0  0  0  0  0
   58.9303   34.4429   54.2575 H   0  0  0  0  0  0  0  0  0  0  0  0
   57.7401   33.1917   53.6685 H   0  0  0  0  0  0  0  0  0  0  0  0
   59.6830   32.5960   53.7790 O   0  0  0  0  0  0  0  0  0  0  0  0
   60.9770   33.0490   53.4430 C   0  0  0  0  0  0  0  0  0  0  0  0
   61.1394   34.0467   53.8768 H   0  0  0  0  0  0  0  0  0  0  0  0
   61.7241   32.3471   53.8420 H   0  0  0  0  0  0  0  0  0  0  0  0
   61.1160   33.1270   51.9220 C   0  0  0  0  0  0  0  0  0  0  0  0
   61.8917   33.8642   51.6674 H   0  0  0  0  0  0  0  0  0  0  0  0
   61.3945   32.1336   51.5404 H   0  0  0  0  0  0  0  0  0  0  0  0
   57.8440   30.1190   53.2380 C   0  0  0  0  0  0  0  0  0  0  0  0
   58.9162   30.2752   53.4280 H   0  0  0  0  0  0  0  0  0  0  0  0
   57.0040   29.6760   54.2610 C   0  0  0  0  0  0  0  0  0  0  0  0
   57.4145   29.4795   55.2624 H   0  0  0  0  0  0  0  0  0  0  0  0
   55.6440   29.4820   54.0150 C   0  0  0  0  0  0  0  0  0  0  0  0
   54.9795   29.1287   54.8173 H   0  0  0  0  0  0  0  0  0  0  0  0
   51.3220   31.6480   50.3890 C   0  0  0  0  0  0  0  0  0  0  0  0
   51.0230   32.7150   51.2290 O   0  0  0  0  0  0  0  0  0  0  0  0
   50.6620   31.5620   49.1610 C   0  0  0  0  0  0  0  0  0  0  0  0
   49.8785   32.2914   48.9080 H   0  0  0  0  0  0  0  0  0  0  0  0
   50.9920   30.5560   48.2550 C   0  0  0  0  0  0  0  0  0  0  0  0
   50.4684   30.4815   47.2905 H   0  0  0  0  0  0  0  0  0  0  0  0
  1  2  1  0
  2  3  1  0
  3  4  1  0
  4  5  2  0
  5  6  1  0
  6  7  2  0
  6  8  1  0
  8  9  2  0
  9 10  1  0
 10 11  1  0
 11 12  2  0
 11 13  1  0
 13 14  1  0
 13 15  1  0
 15 16  2  0
 16 17  1  0
 16 18  1  0
 18 19  1  0
 18 20  2  0
 20 21  1  0
 20 22  1  0
 22 23  1  0
 22 24  2  0
 24 25  1  0
 25 26  1  0
 26 27  1  0
 26 28  1  0
 26 29  1  0
 29 30  1  0
 29 31  1  0
 29 32  1  0
 32 33  1  0
 33 34  1  0
 33 35  1  0
 33 36  1  0
 36 37  1  0
 36 38  1  0
 10 39  2  0
 39 40  1  0
 39 41  1  0
 41 42  1  0
 41 43  2  0
 43 44  1  0
  4 45  1  0
 45 46  1  0
 45 47  2  0
 47 48  1  0
 47 49  1  0
 49 50  1  0
 49  2  2  0
 43  8  1  0
 24 15  1  0
 36 25  1  0
M  CHG  2   3  -1  46  -1
M  END
>  <UniqueID>  (78) 
73

>  <SMILES>  (78) 
O=C(/N=c1/[n-]cccc1[O-])c1cccc(C(=O)Nc2ccccc2N2CCOCC2)n1

>  <Energy>  (78) 
80.79950069488838

>  <Genealogy>  (78) 
O=C(N=c1[n-]cccc1[O-])c1cccc(C(=O)Nc2ccccc2N2CCOCC2)n1 (protonated)
O=C(/N=c1/[n-]cccc1[O-])c1cccc(C(=O)Nc2ccccc2N2CCOCC2)n1 (cis-trans isomerization)
O=C(/N=c1/[n-]cccc1[O-])c1cccc(C(=O)Nc2ccccc2N2CCOCC2)n1 (3D coordinates assigned)
O=C(/N=c1/[n-]cccc1[O-])c1cccc(C(=O)Nc2ccccc2N2CCOCC2)n1 (nonaromatic ring conformer: 80.79950069488838 kcal/mol)

>  <smiles>  (78) 
O=C(N=c1[nH]cccc1O)c1cccc(C(=O)Nc2ccccc2N2CCOCC2)n1

>  <score_type>  (78) 
oracle

>  <origin>  (78) 
adg

>  <m_score__min__energy>  (78) 
-14.789999999999999

>  <m_primary>  (78) 
energy

$$$$
78:0
     RDKit          3D

 35 37  0  0  0  0  0  0  0  0999 V2000
   55.1460   29.7220   44.8800 O   0  0  0  0  0  0  0  0  0  0  0  0
   56.4020   29.6370   44.8500 C   0  0  0  0  0  0  0  0  0  0  0  0
   57.1540   30.7620   44.3700 N   0  0  0  0  0  0  0  0  0  0  0  0
   57.7320   31.7940   45.1820 C   0  0  0  0  0  0  0  0  0  0  0  0
   57.0830   33.0330   45.2360 C   0  0  0  0  0  0  0  0  0  0  0  0
   57.6240   34.0890   45.9710 C   0  0  0  0  0  0  0  0  0  0  0  0
   58.8170   33.9160   46.6750 C   0  0  0  0  0  0  0  0  0  0  0  0
   59.4640   32.6730   46.6660 C   0  0  0  0  0  0  0  0  0  0  0  0
   60.6460   32.4800   47.3910 C   0  0  0  0  0  0  0  0  0  0  0  0
   61.2610   31.2310   47.3970 C   0  0  0  0  0  0  0  0  0  0  0  0
   60.6820   30.1770   46.6890 C   0  0  0  0  0  0  0  0  0  0  0  0
   59.5330   30.3680   45.9850 N   0  0  0  0  0  0  0  0  0  0  0  0
   58.9170   31.5890   45.9330 C   0  0  0  0  0  0  0  0  0  0  0  0
   57.0400   28.3800   45.2820 C   0  0  0  0  0  0  0  0  0  0  0  0
   58.2610   28.1680   45.0480 O   0  0  0  0  0  0  0  0  0  0  0  0
   56.2660   27.4140   45.9350 O   0  0  0  0  0  0  0  0  0  0  0  0
   56.7420   26.1040   46.2390 C   0  0  0  0  0  0  0  0  0  0  0  0
   55.8390   25.0610   45.6430 C   0  0  0  0  0  0  0  0  0  0  0  0
   54.4930   25.1980   45.7850 N   0  0  0  0  0  0  0  0  0  0  0  0
   53.6320   24.2760   45.2820 C   0  0  0  0  0  0  0  0  0  0  0  0
   52.3910   24.4300   45.4260 O   0  0  0  0  0  0  0  0  0  0  0  0
   54.1080   23.1900   44.6230 N   0  0  0  0  0  0  0  0  0  0  0  0
   55.4420   23.0020   44.4550 C   0  0  0  0  0  0  0  0  0  0  0  0
   55.8530   21.9820   43.8410 O   0  0  0  0  0  0  0  0  0  0  0  0
   56.3510   23.9380   44.9650 C   0  0  0  0  0  0  0  0  0  0  0  0
   58.0860   23.6960   44.7560 Cl  0  0  0  0  0  0  0  0  0  0  0  0
   56.1368   33.1759   44.6935 H   0  0  0  0  0  0  0  0  0  0  0  0
   57.1087   35.0606   45.9956 H   0  0  0  0  0  0  0  0  0  0  0  0
   59.2497   34.7564   47.2375 H   0  0  0  0  0  0  0  0  0  0  0  0
   61.0883   33.3143   47.9553 H   0  0  0  0  0  0  0  0  0  0  0  0
   62.1960   31.0762   47.9554 H   0  0  0  0  0  0  0  0  0  0  0  0
   61.1575   29.1851   46.7000 H   0  0  0  0  0  0  0  0  0  0  0  0
   59.1270   29.5390   45.5010 H   0  0  0  0  0  0  0  0  0  0  0  0
   57.7549   25.9830   45.8274 H   0  0  0  0  0  0  0  0  0  0  0  0
   56.7572   25.9771   47.3316 H   0  0  0  0  0  0  0  0  0  0  0  0
  1  2  2  0
  2  3  1  0
  3  4  1  0
  4  5  2  0
  5  6  1  0
  6  7  2  0
  7  8  1  0
  8  9  2  0
  9 10  1  0
 10 11  2  0
 11 12  1  0
 12 13  2  0
  2 14  1  0
 14 15  2  0
 14 16  1  0
 16 17  1  0
 17 18  1  0
 18 19  1  0
 19 20  1  0
 20 21  2  0
 20 22  1  0
 22 23  1  0
 23 24  2  0
 23 25  1  0
 25 26  1  0
 13  4  1  0
 25 18  2  0
 13  8  1  0
  5 27  1  0
  6 28  1  0
  7 29  1  0
  9 30  1  0
 10 31  1  0
 11 32  1  0
 12 33  1  0
 17 34  1  0
 17 35  1  0
M  CHG  4   3  -1  12   1  19  -1  22  -1
M  END
>  <UniqueID>  (79) 
74

>  <SMILES>  (79) 
O=C([N-]c1cccc2ccc[nH+]c12)C(=O)OCc1[n-]c(=O)[n-]c(=O)c1Cl

>  <Energy>  (79) 
49.496300353732835

>  <Genealogy>  (79) 
O=C([N-]c1cccc2ccc[nH+]c12)C(=O)OCc1[n-]c(=O)[n-]c(=O)c1Cl (protonated)
O=C([N-]c1cccc2ccc[nH+]c12)C(=O)OCc1[n-]c(=O)[n-]c(=O)c1Cl (3D coordinates assigned)
O=C([N-]c1cccc2ccc[nH+]c12)C(=O)OCc1[n-]c(=O)[n-]c(=O)c1Cl (optimized conformer: 49.496300353732835 kcal/mol)

>  <smiles>  (79) 
O=C(Nc1cccc2cccnc12)C(=O)OCc1[nH]c(=O)[nH]c(=O)c1Cl

>  <score_type>  (79) 
oracle

>  <origin>  (79) 
adg

>  <m_score__min__energy>  (79) 
-11.609999999999999

>  <m_primary>  (79) 
energy

$$$$
79:0
     RDKit          3D

 36 38  0  0  0  0  0  0  0  0999 V2000
   58.7100   29.3060   46.5480 O   0  0  0  0  0  0  0  0  0  0  0  0
   57.7190   29.6250   45.8350 C   0  0  0  0  0  0  0  0  0  0  0  0
   56.9400   28.5420   45.1950 C   0  0  0  0  0  0  0  0  0  0  0  0
   57.3900   27.3110   44.9060 C   0  0  0  0  0  0  0  0  0  0  0  0
   57.1470   26.1070   45.7280 C   0  0  0  0  0  0  0  0  0  0  0  0
   55.8710   25.8220   46.2460 C   0  0  0  0  0  0  0  0  0  0  0  0
   54.7950   26.6670   45.9910 O   0  0  0  0  0  0  0  0  0  0  0  0
   55.6800   24.7140   47.0070 N   0  0  0  0  0  0  0  0  0  0  0  0
   56.7090   23.8740   47.2890 C   0  0  0  0  0  0  0  0  0  0  0  0
   56.5090   22.8470   47.9890 O   0  0  0  0  0  0  0  0  0  0  0  0
   57.9560   24.1390   46.8170 N   0  0  0  0  0  0  0  0  0  0  0  0
   58.1990   25.2370   46.0560 C   0  0  0  0  0  0  0  0  0  0  0  0
   59.3660   25.4590   45.6440 O   0  0  0  0  0  0  0  0  0  0  0  0
   57.3870   31.0080   45.6150 N   0  0  0  0  0  0  0  0  0  0  0  0
   58.1880   32.0310   45.6770 C   0  0  0  0  0  0  0  0  0  0  0  0
   59.3750   31.9650   46.3420 N   0  0  0  0  0  0  0  0  0  0  0  0
   60.2200   33.0300   46.4080 C   0  0  0  0  0  0  0  0  0  0  0  0
   61.5100   32.9010   47.1350 C   0  0  0  0  0  0  0  0  0  0  0  0
   62.5340   33.8500   46.9370 C   0  0  0  0  0  0  0  0  0  0  0  0
   63.7660   33.7130   47.5830 C   0  0  0  0  0  0  0  0  0  0  0  0
   63.9930   32.6310   48.4350 C   0  0  0  0  0  0  0  0  0  0  0  0
   62.9890   31.6830   48.6430 C   0  0  0  0  0  0  0  0  0  0  0  0
   61.7480   31.8080   48.0000 C   0  0  0  0  0  0  0  0  0  0  0  0
   60.7520   30.8590   48.2330 O   0  0  0  0  0  0  0  0  0  0  0  0
   59.8530   34.2280   45.7780 C   0  0  0  0  0  0  0  0  0  0  0  0
   58.6350   34.2800   45.0980 C   0  0  0  0  0  0  0  0  0  0  0  0
   58.2780   35.3390   44.5190 O   0  0  0  0  0  0  0  0  0  0  0  0
   57.8320   33.1870   45.0600 N   0  0  0  0  0  0  0  0  0  0  0  0
   55.8958   28.7665   44.9318 H   0  0  0  0  0  0  0  0  0  0  0  0
   57.9843   27.1890   43.9884 H   0  0  0  0  0  0  0  0  0  0  0  0
   62.3617   34.7060   46.2680 H   0  0  0  0  0  0  0  0  0  0  0  0
   64.5577   34.4590   47.4197 H   0  0  0  0  0  0  0  0  0  0  0  0
   64.9630   32.5250   48.9427 H   0  0  0  0  0  0  0  0  0  0  0  0
   63.1722   30.8322   49.3157 H   0  0  0  0  0  0  0  0  0  0  0  0
   59.9790   30.7300   47.5900 H   0  0  0  0  0  0  0  0  0  0  0  0
   60.5112   35.1084   45.8188 H   0  0  0  0  0  0  0  0  0  0  0  0
  1  2  2  0
  2  3  1  0
  3  4  2  3
  4  5  1  0
  5  6  2  0
  6  7  1  0
  6  8  1  0
  8  9  1  0
  9 10  2  0
  9 11  1  0
 11 12  1  0
 12 13  2  0
  2 14  1  0
 14 15  2  3
 15 16  1  0
 16 17  1  0
 17 18  1  0
 18 19  2  0
 19 20  1  0
 20 21  2  0
 21 22  1  0
 22 23  2  0
 23 24  1  0
 17 25  2  0
 25 26  1  0
 26 27  2  0
 26 28  1  0
 12  5  1  0
 28 15  1  0
 23 18  1  0
  3 29  1  0
  4 30  1  0
 19 31  1  0
 20 32  1  0
 21 33  1  0
 22 34  1  0
 24 35  1  0
 25 36  1  0
M  CHG  5   7  -1   8  -1  11  -1  16  -1  28  -1
M  END
>  <UniqueID>  (80) 
75

>  <SMILES>  (80) 
O=C(C=Cc1c([O-])[n-]c(=O)[n-]c1=O)N=c1[n-]c(-c2ccccc2O)cc(=O)[n-]1

>  <Energy>  (80) 
57.756785038656105

>  <Genealogy>  (80) 
O=C(C=Cc1c([O-])[n-]c(=O)[n-]c1=O)N=c1[n-]c(-c2ccccc2O)cc(=O)[n-]1 (protonated)
O=C(C=Cc1c([O-])[n-]c(=O)[n-]c1=O)N=c1[n-]c(-c2ccccc2O)cc(=O)[n-]1 (3D coordinates assigned)
O=C(C=Cc1c([O-])[n-]c(=O)[n-]c1=O)N=c1[n-]c(-c2ccccc2O)cc(=O)[n-]1 (optimized conformer: 57.756785038656105 kcal/mol)

>  <smiles>  (80) 
O=C(C=Cc1c(O)[nH]c(=O)[nH]c1=O)N=c1[nH]c(-c2ccccc2O)cc(=O)[nH]1

>  <score_type>  (80) 
oracle

>  <origin>  (80) 
adg

>  <m_score__min__energy>  (80) 
-18.170000000000002

>  <m_primary>  (80) 
energy

$$$$
80:0
     RDKit          3D

 33 35  0  0  0  0  0  0  0  0999 V2000
   59.0630   27.7710   47.8280 O   0  0  0  0  0  0  0  0  0  0  0  0
   58.2490   27.3350   46.9700 C   0  0  0  0  0  0  0  0  0  0  0  0
   57.3300   26.3060   47.3580 N   0  0  0  0  0  0  0  0  0  0  0  0
   56.7580   25.3090   46.4990 C   0  0  0  0  0  0  0  0  0  0  0  0
   57.4820   24.1370   46.2520 C   0  0  0  0  0  0  0  0  0  0  0  0
   56.9630   23.1470   45.4130 C   0  0  0  0  0  0  0  0  0  0  0  0
   55.7230   23.3300   44.7990 C   0  0  0  0  0  0  0  0  0  0  0  0
   55.0060   24.5110   45.0120 C   0  0  0  0  0  0  0  0  0  0  0  0
   55.5220   25.5080   45.8470 C   0  0  0  0  0  0  0  0  0  0  0  0
   54.8170   26.6970   45.9980 O   0  0  0  0  0  0  0  0  0  0  0  0
   58.2020   27.9590   45.6280 C   0  0  0  0  0  0  0  0  0  0  0  0
   58.3410   27.2350   44.6060 O   0  0  0  0  0  0  0  0  0  0  0  0
   57.9370   29.4090   45.4550 C   0  0  0  0  0  0  0  0  0  0  0  0
   56.6950   29.8640   44.9670 C   0  0  0  0  0  0  0  0  0  0  0  0
   55.6810   28.9610   44.6580 O   0  0  0  0  0  0  0  0  0  0  0  0
   56.4660   31.1940   44.8150 N   0  0  0  0  0  0  0  0  0  0  0  0
   57.3970   32.1310   45.1280 C   0  0  0  0  0  0  0  0  0  0  0  0
   57.1070   33.4890   44.9510 C   0  0  0  0  0  0  0  0  0  0  0  0
   58.0590   34.4580   45.2760 C   0  0  0  0  0  0  0  0  0  0  0  0
   59.3050   34.0750   45.7800 C   0  0  0  0  0  0  0  0  0  0  0  0
   59.6060   32.7210   45.9620 C   0  0  0  0  0  0  0  0  0  0  0  0
   58.6540   31.7350   45.6370 C   0  0  0  0  0  0  0  0  0  0  0  0
   58.9190   30.3620   45.8010 C   0  0  0  0  0  0  0  0  0  0  0  0
   60.0400   29.9810   46.2420 O   0  0  0  0  0  0  0  0  0  0  0  0
   58.4664   23.9940   46.7215 H   0  0  0  0  0  0  0  0  0  0  0  0
   57.5324   22.2226   45.2364 H   0  0  0  0  0  0  0  0  0  0  0  0
   55.3102   22.5454   44.1479 H   0  0  0  0  0  0  0  0  0  0  0  0
   54.0324   24.6570   44.5213 H   0  0  0  0  0  0  0  0  0  0  0  0
   55.8740   27.9690   44.5760 H   0  0  0  0  0  0  0  0  0  0  0  0
   56.1270   33.7937   44.5550 H   0  0  0  0  0  0  0  0  0  0  0  0
   57.8277   35.5241   45.1351 H   0  0  0  0  0  0  0  0  0  0  0  0
   60.0520   34.8413   46.0346 H   0  0  0  0  0  0  0  0  0  0  0  0
   60.5881   32.4257   46.3597 H   0  0  0  0  0  0  0  0  0  0  0  0
  1  2  2  0
  2  3  1  0
  3  4  1  0
  4  5  2  0
  5  6  1  0
  6  7  2  0
  7  8  1  0
  8  9  2  0
  9 10  1  0
  2 11  1  0
 11 12  2  0
 11 13  1  0
 13 14  2  0
 14 15  1  0
 14 16  1  0
 16 17  1  0
 17 18  2  0
 18 19  1  0
 19 20  2  0
 20 21  1  0
 21 22  2  0
 22 23  1  0
 23 24  2  0
  9  4  1  0
 23 13  1  0
 22 17  1  0
  5 25  1  0
  6 26  1  0
  7 27  1  0
  8 28  1  0
 15 29  1  0
 18 30  1  0
 19 31  1  0
 20 32  1  0
 21 33  1  0
M  CHG  3   3  -1  10  -1  16  -1
M  END
>  <UniqueID>  (81) 
76

>  <SMILES>  (81) 
O=C([N-]c1ccccc1[O-])C(=O)c1c(O)[n-]c2ccccc2c1=O

>  <Energy>  (81) 
53.63392444262738

>  <Genealogy>  (81) 
O=C([N-]c1ccccc1[O-])C(=O)c1c(O)[n-]c2ccccc2c1=O (protonated)
O=C([N-]c1ccccc1[O-])C(=O)c1c(O)[n-]c2ccccc2c1=O (3D coordinates assigned)
O=C([N-]c1ccccc1[O-])C(=O)c1c(O)[n-]c2ccccc2c1=O (optimized conformer: 53.63392444262738 kcal/mol)

>  <smiles>  (81) 
O=C(Nc1ccccc1O)C(=O)c1c(O)[nH]c2ccccc2c1=O

>  <score_type>  (81) 
oracle

>  <origin>  (81) 
adg

>  <m_score__min__energy>  (81) 
-15.359999999999999

>  <m_primary>  (81) 
energy

$$$$
81:0
     RDKit          3D

 53 56  0  0  0  0  0  0  0  0999 V2000
   57.4199   30.3485   43.5526 H   0  0  0  0  0  0  0  0  0  0  0  0
   57.5970   29.3480   43.9740 C   0  0  0  0  0  0  0  0  0  0  0  0
   57.3931   28.4523   43.3688 H   0  0  0  0  0  0  0  0  0  0  0  0
   58.0620   29.2200   45.2270 C   0  0  0  0  0  0  0  0  0  0  0  0
   58.3340   28.0200   45.8940 C   0  0  0  0  0  0  0  0  0  0  0  0
   58.1660   26.7690   45.4230 C   0  0  0  0  0  0  0  0  0  0  0  0
   58.6425   26.5093   44.4662 H   0  0  0  0  0  0  0  0  0  0  0  0
   57.3830   25.7270   46.1110 C   0  0  0  0  0  0  0  0  0  0  0  0
   57.9390   24.6530   46.6980 N   0  0  0  0  0  0  0  0  0  0  0  0
   56.8870   24.0250   47.2650 C   0  0  0  0  0  0  0  0  0  0  0  0
   57.0070   22.9490   47.9080 O   0  0  0  0  0  0  0  0  0  0  0  0
   55.7000   24.6440   47.0990 N   0  0  0  0  0  0  0  0  0  0  0  0
   56.0310   25.7260   46.3770 C   0  0  0  0  0  0  0  0  0  0  0  0
   55.1230   26.7140   46.0140 O   0  0  0  0  0  0  0  0  0  0  0  0
   58.7540   28.3710   47.1710 C   0  0  0  0  0  0  0  0  0  0  0  0
   59.0399   27.6832   47.9804 H   0  0  0  0  0  0  0  0  0  0  0  0
   58.7430   29.7490   47.2270 C   0  0  0  0  0  0  0  0  0  0  0  0
   59.1060   30.5540   48.4380 C   0  0  0  0  0  0  0  0  0  0  0  0
   58.8503   29.9870   49.3453 H   0  0  0  0  0  0  0  0  0  0  0  0
   60.1858   30.7637   48.4287 H   0  0  0  0  0  0  0  0  0  0  0  0
   58.5483   31.5021   48.4287 H   0  0  0  0  0  0  0  0  0  0  0  0
   58.3180   30.2670   46.0520 N   0  0  0  0  0  0  0  0  0  0  0  0
   58.1810   31.6670   45.7520 C   0  0  0  0  0  0  0  0  0  0  0  0
   57.1650   32.1100   44.8950 C   0  0  0  0  0  0  0  0  0  0  0  0
   56.4743   31.3838   44.4417 H   0  0  0  0  0  0  0  0  0  0  0  0
   57.0270   33.4700   44.6150 C   0  0  0  0  0  0  0  0  0  0  0  0
   56.2309   33.8121   43.9374 H   0  0  0  0  0  0  0  0  0  0  0  0
   57.8960   34.3980   45.1920 C   0  0  0  0  0  0  0  0  0  0  0  0
   57.7868   35.4677   44.9601 H   0  0  0  0  0  0  0  0  0  0  0  0
   58.9100   33.9720   46.0680 C   0  0  0  0  0  0  0  0  0  0  0  0
   59.8350   34.9490   46.6890 C   0  0  0  0  0  0  0  0  0  0  0  0
   60.0400   36.0540   46.1210 O   0  0  0  0  0  0  0  0  0  0  0  0
   60.4710   34.6980   47.9500 N   0  0  0  0  0  0  0  0  0  0  0  0
   61.6590   33.9170   48.1580 C   0  0  0  0  0  0  0  0  0  0  0  0
   62.4730   33.5280   47.0780 C   0  0  0  0  0  0  0  0  0  0  0  0
   62.1956   33.8138   46.0526 H   0  0  0  0  0  0  0  0  0  0  0  0
   63.6310   32.7810   47.3020 C   0  0  0  0  0  0  0  0  0  0  0  0
   64.2565   32.4684   46.4529 H   0  0  0  0  0  0  0  0  0  0  0  0
   63.9950   32.4310   48.6020 C   0  0  0  0  0  0  0  0  0  0  0  0
   64.9052   31.8383   48.7759 H   0  0  0  0  0  0  0  0  0  0  0  0
   63.2070   32.8310   49.6840 C   0  0  0  0  0  0  0  0  0  0  0  0
   63.5029   32.5576   50.7076 H   0  0  0  0  0  0  0  0  0  0  0  0
   62.0350   33.5830   49.4700 C   0  0  0  0  0  0  0  0  0  0  0  0
   61.2140   34.0100   50.5260 O   0  0  0  0  0  0  0  0  0  0  0  0
   59.6710   33.3670   50.8870 S   0  0  0  0  0  0  0  0  0  0  0  0
   58.9290   34.2990   51.8040 O   0  0  0  0  0  0  0  0  0  0  0  0
   58.8860   33.1750   49.6200 O   0  0  0  0  0  0  0  0  0  0  0  0
   59.8750   31.7950   51.6920 C   0  0  0  0  0  0  0  0  0  0  0  0
   59.8566   31.9365   52.7827 H   0  0  0  0  0  0  0  0  0  0  0  0
   59.0566   31.1224   51.3957 H   0  0  0  0  0  0  0  0  0  0  0  0
   60.8380   31.3535   51.3957 H   0  0  0  0  0  0  0  0  0  0  0  0
   59.0520   32.6000   46.3340 C   0  0  0  0  0  0  0  0  0  0  0  0
   59.8528   32.2544   47.0042 H   0  0  0  0  0  0  0  0  0  0  0  0
  1  2  1  0
  2  3  1  0
  2  4  2  0
  4  5  1  0
  5  6  2  0
  6  7  1  0
  6  8  1  0
  8  9  1  0
  9 10  1  0
 10 11  2  0
 10 12  1  0
 12 13  1  0
 13 14  1  0
  5 15  1  0
 15 16  1  0
 15 17  2  0
 17 18  1  0
 18 19  1  0
 18 20  1  0
 18 21  1  0
 17 22  1  0
 22 23  1  0
 23 24  2  0
 24 25  1  0
 24 26  1  0
 26 27  1  0
 26 28  2  0
 28 29  1  0
 28 30  1  0
 30 31  1  0
 31 32  2  0
 31 33  1  0
 33 34  1  0
 34 35  2  0
 35 36  1  0
 35 37  1  0
 37 38  1  0
 37 39  2  0
 39 40  1  0
 39 41  1  0
 41 42  1  0
 41 43  2  0
 43 44  1  0
 44 45  1  0
 45 46  2  0
 45 47  2  0
 45 48  1  0
 48 49  1  0
 48 50  1  0
 48 51  1  0
 30 52  2  0
 52 53  1  0
 22  4  1  0
 52 23  1  0
 13  8  2  0
 43 34  1  0
M  CHG  4   9  -1  12  -1  14  -1  33  -1
M  END
>  <UniqueID>  (82) 
77

>  <SMILES>  (82) 
C=c1/c(=C/c2[n-]c(=O)[n-]c2[O-])cc(C)n1-c1cccc(C(=O)[N-]c2ccccc2OS(C)(=O)=O)c1

>  <Energy>  (82) 
130.90585295236414

>  <Genealogy>  (82) 
C=c1c(=Cc2[n-]c(=O)[n-]c2[O-])cc(C)n1-c1cccc(C(=O)[N-]c2ccccc2OS(C)(=O)=O)c1 (protonated)
C=c1/c(=C/c2[n-]c(=O)[n-]c2[O-])cc(C)n1-c1cccc(C(=O)[N-]c2ccccc2OS(C)(=O)=O)c1 (cis-trans isomerization)
C=c1/c(=C/c2[n-]c(=O)[n-]c2[O-])cc(C)n1-c1cccc(C(=O)[N-]c2ccccc2OS(C)(=O)=O)c1 (3D coordinates assigned)
C=c1/c(=C/c2[n-]c(=O)[n-]c2[O-])cc(C)n1-c1cccc(C(=O)[N-]c2ccccc2OS(C)(=O)=O)c1 (optimized conformer: 130.90585295236414 kcal/mol)

>  <smiles>  (82) 
C=c1c(=Cc2[nH]c(=O)[nH]c2O)cc(C)n1-c1cccc(C(=O)Nc2ccccc2OS(C)(=O)=O)c1

>  <score_type>  (82) 
oracle

>  <origin>  (82) 
adg

>  <m_score__min__energy>  (82) 
-18.140000000000001

>  <m_primary>  (82) 
energy

$$$$
82:0
     RDKit          3D

 47 49  0  0  0  0  0  0  0  0999 V2000
   61.3920   28.8260   50.6020 C   0  0  0  0  0  0  0  0  0  0  0  0
   60.5840   28.7710   49.5420 C   0  0  0  0  0  0  0  0  0  0  0  0
   59.6600   29.8500   49.2940 C   0  0  0  0  0  0  0  0  0  0  0  0
   58.9160   30.7140   49.0950 N   0  0  0  0  0  0  0  0  0  0  0  0
   60.6240   27.5980   48.5990 C   0  0  0  0  0  0  0  0  0  0  0  0
   59.7610   27.8560   47.3940 C   0  0  0  0  0  0  0  0  0  0  0  0
   60.2820   28.5490   46.2920 C   0  0  0  0  0  0  0  0  0  0  0  0
   59.4920   28.7680   45.1610 C   0  0  0  0  0  0  0  0  0  0  0  0
   58.1640   28.3110   45.1170 C   0  0  0  0  0  0  0  0  0  0  0  0
   57.3270   28.5700   43.9770 N   0  0  0  0  0  0  0  0  0  0  0  0
   56.5270   30.0910   43.7420 S   0  0  0  0  0  0  0  0  0  0  0  0
   55.2150   30.0890   44.4740 O   0  0  0  0  0  0  0  0  0  0  0  0
   56.2700   30.3070   42.2770 O   0  0  0  0  0  0  0  0  0  0  0  0
   57.5280   31.3820   44.3800 C   0  0  0  0  0  0  0  0  0  0  0  0
   57.9110   32.5150   43.6760 C   0  0  0  0  0  0  0  0  0  0  0  0
   58.5470   33.4680   44.4770 C   0  0  0  0  0  0  0  0  0  0  0  0
   58.6550   33.0810   45.8090 C   0  0  0  0  0  0  0  0  0  0  0  0
   59.1300   33.9450   46.9350 C   0  0  0  0  0  0  0  0  0  0  0  0
   60.1490   33.2370   47.7180 N   0  0  0  0  0  0  0  0  0  0  0  0
   61.2320   32.7250   46.8590 C   0  0  0  0  0  0  0  0  0  0  0  0
   62.4150   33.6870   46.7950 C   0  0  0  0  0  0  0  0  0  0  0  0
   63.2960   32.6460   47.4770 C   0  0  0  0  0  0  0  0  0  0  0  0
   62.1210   31.6790   47.5370 C   0  0  0  0  0  0  0  0  0  0  0  0
   57.9490   31.5650   45.9980 S   0  0  0  0  0  0  0  0  0  0  0  0
   57.6560   27.5840   46.2080 C   0  0  0  0  0  0  0  0  0  0  0  0
   56.3840   27.1130   46.1860 F   0  0  0  0  0  0  0  0  0  0  0  0
   58.4490   27.3610   47.3380 C   0  0  0  0  0  0  0  0  0  0  0  0
   62.0994   28.0066   50.7975 H   0  0  0  0  0  0  0  0  0  0  0  0
   61.3509   29.6908   51.2806 H   0  0  0  0  0  0  0  0  0  0  0  0
   61.6611   27.4327   48.2719 H   0  0  0  0  0  0  0  0  0  0  0  0
   60.2434   26.7091   49.1233 H   0  0  0  0  0  0  0  0  0  0  0  0
   61.3167   28.9216   46.3182 H   0  0  0  0  0  0  0  0  0  0  0  0
   59.9133   29.3030   44.2971 H   0  0  0  0  0  0  0  0  0  0  0  0
   57.0220   27.7740   43.3750 H   0  0  0  0  0  0  0  0  0  0  0  0
   57.7326   32.6493   42.5989 H   0  0  0  0  0  0  0  0  0  0  0  0
   58.9241   34.4273   44.0928 H   0  0  0  0  0  0  0  0  0  0  0  0
   59.5628   34.8700   46.5263 H   0  0  0  0  0  0  0  0  0  0  0  0
   58.2781   34.1870   47.5875 H   0  0  0  0  0  0  0  0  0  0  0  0
   59.6860   32.4440   48.2230 H   0  0  0  0  0  0  0  0  0  0  0  0
   60.6626   32.4550   45.9574 H   0  0  0  0  0  0  0  0  0  0  0  0
   62.7311   33.9431   45.7730 H   0  0  0  0  0  0  0  0  0  0  0  0
   62.3304   34.7028   47.2086 H   0  0  0  0  0  0  0  0  0  0  0  0
   64.1345   32.2941   46.8581 H   0  0  0  0  0  0  0  0  0  0  0  0
   63.8496   32.9026   48.3922 H   0  0  0  0  0  0  0  0  0  0  0  0
   62.2638   30.7606   46.9486 H   0  0  0  0  0  0  0  0  0  0  0  0
   61.8197   31.2250   48.4926 H   0  0  0  0  0  0  0  0  0  0  0  0
   58.0419   26.7941   48.1882 H   0  0  0  0  0  0  0  0  0  0  0  0
  1  2  2  0
  2  3  1  0
  3  4  3  0
  2  5  1  0
  5  6  1  0
  6  7  2  0
  7  8  1  0
  8  9  2  0
  9 10  1  0
 10 11  1  0
 11 12  2  0
 11 13  2  0
 11 14  1  0
 14 15  2  0
 15 16  1  0
 16 17  2  0
 17 18  1  0
 18 19  1  0
 19 20  1  0
 20 21  1  0
 21 22  1  0
 22 23  1  0
 17 24  1  0
  9 25  1  0
 25 26  1  0
 25 27  2  0
 27  6  1  0
 24 14  1  0
 23 20  1  0
  1 28  1  0
  1 29  1  0
  5 30  1  0
  5 31  1  0
  7 32  1  0
  8 33  1  0
 10 34  1  0
 15 35  1  0
 16 36  1  0
 18 37  1  0
 18 38  1  0
 19 39  1  0
 20 40  1  0
 21 41  1  0
 21 42  1  0
 22 43  1  0
 22 44  1  0
 23 45  1  0
 23 46  1  0
 27 47  1  0
M  END
>  <UniqueID>  (83) 
78

>  <SMILES>  (83) 
C=C(C#N)Cc1ccc(NS(=O)(=O)c2ccc(CNC3CCC3)s2)c(F)c1

>  <Energy>  (83) 
130.751909339704

>  <Genealogy>  (83) 
C=C(C#N)Cc1ccc(NS(=O)(=O)c2ccc(CNC3CCC3)s2)c(F)c1 (3D coordinates assigned)
C=C(C#N)Cc1ccc(NS(=O)(=O)c2ccc(CNC3CCC3)s2)c(F)c1 (nonaromatic ring conformer: 130.751909339704 kcal/mol)

>  <smiles>  (83) 
C=C(C#N)Cc1ccc(NS(=O)(=O)c2ccc(CNC3CCC3)s2)c(F)c1

>  <score_type>  (83) 
oracle

>  <origin>  (83) 
adg

>  <m_score__min__energy>  (83) 
-9.7100000000000009

>  <m_primary>  (83) 
energy

$$$$
83:0
     RDKit          3D

 58 60  0  0  0  0  0  0  0  0999 V2000
   57.7740   33.1860   44.8670 C   0  0  0  0  0  0  0  0  0  0  0  0
   57.9230   33.4900   46.3530 C   0  0  0  0  0  0  0  0  0  0  0  0
   58.9870   32.6660   46.9400 N   0  0  0  0  0  0  0  0  0  0  0  0
   58.7100   31.3910   47.3470 C   0  0  0  0  0  0  0  0  0  0  0  0
   59.6980   30.5870   47.9420 C   0  0  0  0  0  0  0  0  0  0  0  0
   59.3520   29.2060   48.3800 C   0  0  0  0  0  0  0  0  0  0  0  0
   58.3890   29.0200   49.1740 O   0  0  0  0  0  0  0  0  0  0  0  0
   60.1020   28.0820   47.9100 N   0  0  0  0  0  0  0  0  0  0  0  0
   59.7410   27.2940   46.7370 C   0  0  0  0  0  0  0  0  0  0  0  0
   58.4970   27.8660   46.0810 C   0  0  0  0  0  0  0  0  0  0  0  0
   58.6120   29.0340   45.2940 C   0  0  0  0  0  0  0  0  0  0  0  0
   59.8810   29.6140   45.1170 O   0  0  0  0  0  0  0  0  0  0  0  0
   61.0140   28.9410   44.5740 C   0  0  0  0  0  0  0  0  0  0  0  0
   57.4630   29.5870   44.7050 C   0  0  0  0  0  0  0  0  0  0  0  0
   56.2260   28.9680   44.8850 C   0  0  0  0  0  0  0  0  0  0  0  0
   55.1640   29.4690   44.3410 N   0  0  0  0  0  0  0  0  0  0  0  0
   56.1390   27.8310   45.6240 N   0  0  0  0  0  0  0  0  0  0  0  0
   57.2220   27.2620   46.2170 C   0  0  0  0  0  0  0  0  0  0  0  0
   57.0090   25.9990   47.0040 C   0  0  0  0  0  0  0  0  0  0  0  0
   60.9950   31.1250   48.0960 C   0  0  0  0  0  0  0  0  0  0  0  0
   61.9070   30.4450   48.6400 O   0  0  0  0  0  0  0  0  0  0  0  0
   61.2710   32.4340   47.6600 C   0  0  0  0  0  0  0  0  0  0  0  0
   62.6220   33.0280   47.7880 C   0  0  0  0  0  0  0  0  0  0  0  0
   63.0390   33.8220   46.9000 O   0  0  0  0  0  0  0  0  0  0  0  0
   63.4740   32.6780   48.8900 N   0  0  0  0  0  0  0  0  0  0  0  0
   64.6510   33.4650   49.2480 C   0  0  0  0  0  0  0  0  0  0  0  0
   65.5670   32.6490   50.1140 C   0  0  0  0  0  0  0  0  0  0  0  0
   65.0950   31.4730   50.7230 C   0  0  0  0  0  0  0  0  0  0  0  0
   65.9310   30.7290   51.5610 C   0  0  0  0  0  0  0  0  0  0  0  0
   67.2410   31.1530   51.8010 C   0  0  0  0  0  0  0  0  0  0  0  0
   68.0500   30.4300   52.6110 F   0  0  0  0  0  0  0  0  0  0  0  0
   67.7140   32.3290   51.2090 C   0  0  0  0  0  0  0  0  0  0  0  0
   66.8790   33.0780   50.3730 C   0  0  0  0  0  0  0  0  0  0  0  0
   60.2340   33.1950   47.1060 C   0  0  0  0  0  0  0  0  0  0  0  0
   57.2931   32.2049   44.7399 H   0  0  0  0  0  0  0  0  0  0  0  0
   57.1542   33.9621   44.3943 H   0  0  0  0  0  0  0  0  0  0  0  0
   58.7672   33.1716   44.3943 H   0  0  0  0  0  0  0  0  0  0  0  0
   58.1750   34.5530   46.4820 H   0  0  0  0  0  0  0  0  0  0  0  0
   56.9741   33.2621   46.8607 H   0  0  0  0  0  0  0  0  0  0  0  0
   57.6966   30.9869   47.2066 H   0  0  0  0  0  0  0  0  0  0  0  0
   60.5724   27.3131   46.0170 H   0  0  0  0  0  0  0  0  0  0  0  0
   59.5373   26.2592   47.0497 H   0  0  0  0  0  0  0  0  0  0  0  0
   61.6452   28.5661   45.3932 H   0  0  0  0  0  0  0  0  0  0  0  0
   60.6769   28.0966   43.9549 H   0  0  0  0  0  0  0  0  0  0  0  0
   61.5943   29.6409   43.9549 H   0  0  0  0  0  0  0  0  0  0  0  0
   57.5384   30.5051   44.1038 H   0  0  0  0  0  0  0  0  0  0  0  0
   54.5250   30.1020   44.8690 H   0  0  0  0  0  0  0  0  0  0  0  0
   57.0473   26.2263   48.0796 H   0  0  0  0  0  0  0  0  0  0  0  0
   56.0263   25.5726   46.7542 H   0  0  0  0  0  0  0  0  0  0  0  0
   57.7975   25.2739   46.7542 H   0  0  0  0  0  0  0  0  0  0  0  0
   63.2490   31.8380   49.4690 H   0  0  0  0  0  0  0  0  0  0  0  0
   65.1834   33.7622   48.3324 H   0  0  0  0  0  0  0  0  0  0  0  0
   64.3331   34.3613   49.8007 H   0  0  0  0  0  0  0  0  0  0  0  0
   64.0638   31.1369   50.5394 H   0  0  0  0  0  0  0  0  0  0  0  0
   65.5570   29.8081   52.0324 H   0  0  0  0  0  0  0  0  0  0  0  0
   68.7436   32.6651   51.4011 H   0  0  0  0  0  0  0  0  0  0  0  0
   67.2516   34.0069   49.9166 H   0  0  0  0  0  0  0  0  0  0  0  0
   60.4274   34.2338   46.8003 H   0  0  0  0  0  0  0  0  0  0  0  0
  1  2  1  0
  2  3  1  0
  3  4  1  0
  4  5  2  0
  5  6  1  0
  6  7  2  0
  6  8  1  0
  8  9  1  0
  9 10  1  0
 10 11  1  0
 11 12  1  0
 12 13  1  0
 11 14  2  0
 14 15  1  0
 15 16  2  3
 15 17  1  0
 17 18  1  0
 18 19  1  0
  5 20  1  0
 20 21  2  0
 20 22  1  0
 22 23  1  0
 23 24  2  0
 23 25  1  0
 25 26  1  0
 26 27  1  0
 27 28  2  0
 28 29  1  0
 29 30  2  0
 30 31  1  0
 30 32  1  0
 32 33  2  0
 22 34  2  0
 34  3  1  0
 18 10  2  0
 33 27  1  0
  1 35  1  0
  1 36  1  0
  1 37  1  0
  2 38  1  0
  2 39  1  0
  4 40  1  0
  9 41  1  0
  9 42  1  0
 13 43  1  0
 13 44  1  0
 13 45  1  0
 14 46  1  0
 16 47  1  0
 19 48  1  0
 19 49  1  0
 19 50  1  0
 25 51  1  0
 26 52  1  0
 26 53  1  0
 28 54  1  0
 29 55  1  0
 32 56  1  0
 33 57  1  0
 34 58  1  0
M  CHG  2   8  -1  17  -1
M  END
>  <UniqueID>  (84) 
79

>  <SMILES>  (84) 
CCn1cc(C(=O)[N-]Cc2c(OC)cc(=N)[n-]c2C)c(=O)c(C(=O)NCc2ccc(F)cc2)c1

>  <Energy>  (84) 
61.504288200360264

>  <Genealogy>  (84) 
CCn1cc(C(=O)[N-]Cc2c(OC)cc(=N)[n-]c2C)c(=O)c(C(=O)NCc2ccc(F)cc2)c1 (protonated)
CCn1cc(C(=O)[N-]Cc2c(OC)cc(=N)[n-]c2C)c(=O)c(C(=O)NCc2ccc(F)cc2)c1 (3D coordinates assigned)
CCn1cc(C(=O)[N-]Cc2c(OC)cc(=N)[n-]c2C)c(=O)c(C(=O)NCc2ccc(F)cc2)c1 (optimized conformer: 61.504288200360264 kcal/mol)

>  <smiles>  (84) 
CCn1cc(C(=O)NCc2ccc(F)cc2)c(=O)c(C(=O)NCc2c(OC)cc(=N)[nH]c2C)c1

>  <score_type>  (84) 
oracle

>  <origin>  (84) 
adg

>  <m_score__min__energy>  (84) 
-11.65

>  <m_primary>  (84) 
energy

$$$$
84:0
     RDKit          3D

 54 57  0  0  0  0  0  0  0  0999 V2000
   55.5740   30.7990   44.5370 O   0  0  0  0  0  0  0  0  0  0  0  0
   56.6100   30.0800   44.6260 C   0  0  0  0  0  0  0  0  0  0  0  0
   56.4780   28.6010   44.8680 C   0  0  0  0  0  0  0  0  0  0  0  0
   57.8090   27.8710   44.6830 C   0  0  0  0  0  0  0  0  0  0  0  0
   58.4860   27.7290   45.9750 N   0  0  0  0  0  0  0  0  0  0  0  0
   60.1370   28.2530   45.8350 S   0  0  0  0  0  0  0  0  0  0  0  0
   60.3900   28.7420   44.4320 O   0  0  0  0  0  0  0  0  0  0  0  0
   61.0570   27.0970   46.1150 O   0  0  0  0  0  0  0  0  0  0  0  0
   60.4540   29.5410   46.9980 C   0  0  0  0  0  0  0  0  0  0  0  0
   59.6240   29.6790   48.1320 C   0  0  0  0  0  0  0  0  0  0  0  0
   59.8100   30.7500   49.0210 C   0  0  0  0  0  0  0  0  0  0  0  0
   60.8480   31.6580   48.7690 C   0  0  0  0  0  0  0  0  0  0  0  0
   61.6330   31.5400   47.6540 C   0  0  0  0  0  0  0  0  0  0  0  0
   61.4650   30.4890   46.7510 C   0  0  0  0  0  0  0  0  0  0  0  0
   62.5690   32.6940   47.5410 C   0  0  0  0  0  0  0  0  0  0  0  0
   62.2030   33.5730   48.7620 C   0  0  0  0  0  0  0  0  0  0  0  0
   61.1570   32.8470   49.4860 N   0  0  0  0  0  0  0  0  0  0  0  0
   60.7010   33.2280   50.7960 C   0  0  0  0  0  0  0  0  0  0  0  0
   61.4800   33.1090   51.7820 O   0  0  0  0  0  0  0  0  0  0  0  0
   59.3090   33.7460   51.0290 C   0  0  0  0  0  0  0  0  0  0  0  0
   58.2890   32.6920   51.4410 C   0  0  0  0  0  0  0  0  0  0  0  0
   58.8430   33.6530   52.4750 C   0  0  0  0  0  0  0  0  0  0  0  0
   57.9110   30.6790   44.5380 N   0  0  0  0  0  0  0  0  0  0  0  0
   58.0990   32.0620   44.1030 C   0  0  0  0  0  0  0  0  0  0  0  0
   58.4800   32.9260   45.2810 C   0  0  0  0  0  0  0  0  0  0  0  0
   58.0190   32.6250   46.5750 C   0  0  0  0  0  0  0  0  0  0  0  0
   58.3750   33.4380   47.6560 C   0  0  0  0  0  0  0  0  0  0  0  0
   59.1860   34.5600   47.4520 C   0  0  0  0  0  0  0  0  0  0  0  0
   59.5360   35.3440   48.5010 F   0  0  0  0  0  0  0  0  0  0  0  0
   59.6380   34.8720   46.1640 C   0  0  0  0  0  0  0  0  0  0  0  0
   59.2840   34.0610   45.0820 C   0  0  0  0  0  0  0  0  0  0  0  0
   56.1239   28.4394   45.8968 H   0  0  0  0  0  0  0  0  0  0  0  0
   55.7639   28.1983   44.1345 H   0  0  0  0  0  0  0  0  0  0  0  0
   57.6217   26.8738   44.2583 H   0  0  0  0  0  0  0  0  0  0  0  0
   58.4482   28.4522   44.0021 H   0  0  0  0  0  0  0  0  0  0  0  0
   58.8277   28.9438   48.3200 H   0  0  0  0  0  0  0  0  0  0  0  0
   59.1553   30.8738   49.8963 H   0  0  0  0  0  0  0  0  0  0  0  0
   62.1098   30.4032   45.8639 H   0  0  0  0  0  0  0  0  0  0  0  0
   63.6153   32.3592   47.5964 H   0  0  0  0  0  0  0  0  0  0  0  0
   62.4783   33.2287   46.5840 H   0  0  0  0  0  0  0  0  0  0  0  0
   63.0830   33.7175   49.4059 H   0  0  0  0  0  0  0  0  0  0  0  0
   61.8582   34.5701   48.4506 H   0  0  0  0  0  0  0  0  0  0  0  0
   59.3448   34.5348   50.2632 H   0  0  0  0  0  0  0  0  0  0  0  0
   57.2430   32.7811   51.1123 H   0  0  0  0  0  0  0  0  0  0  0  0
   58.2237   31.5974   51.3533 H   0  0  0  0  0  0  0  0  0  0  0  0
   58.1984   34.4385   52.8962 H   0  0  0  0  0  0  0  0  0  0  0  0
   59.3453   33.5428   53.4474 H   0  0  0  0  0  0  0  0  0  0  0  0
   58.7590   30.1040   44.7400 H   0  0  0  0  0  0  0  0  0  0  0  0
   58.8986   32.1012   43.3486 H   0  0  0  0  0  0  0  0  0  0  0  0
   57.1593   32.4355   43.6700 H   0  0  0  0  0  0  0  0  0  0  0  0
   57.3763   31.7472   46.7376 H   0  0  0  0  0  0  0  0  0  0  0  0
   58.0172   33.1952   48.6674 H   0  0  0  0  0  0  0  0  0  0  0  0
   60.2723   35.7562   46.0035 H   0  0  0  0  0  0  0  0  0  0  0  0
   59.6362   34.3123   44.0707 H   0  0  0  0  0  0  0  0  0  0  0  0
  1  2  2  0
  2  3  1  0
  3  4  1  0
  4  5  1  0
  5  6  1  0
  6  7  2  0
  6  8  2  0
  6  9  1  0
  9 10  2  0
 10 11  1  0
 11 12  2  0
 12 13  1  0
 13 14  2  0
 13 15  1  0
 15 16  1  0
 16 17  1  0
 17 18  1  0
 18 19  2  0
 18 20  1  0
 20 21  1  0
 21 22  1  0
  2 23  1  0
 23 24  1  0
 24 25  1  0
 25 26  2  0
 26 27  1  0
 27 28  2  0
 28 29  1  0
 28 30  1  0
 30 31  2  0
 14  9  1  0
 22 20  1  0
 31 25  1  0
 17 12  1  0
  3 32  1  0
  3 33  1  0
  4 34  1  0
  4 35  1  0
 10 36  1  0
 11 37  1  0
 14 38  1  0
 15 39  1  0
 15 40  1  0
 16 41  1  0
 16 42  1  0
 20 43  1  0
 21 44  1  0
 21 45  1  0
 22 46  1  0
 22 47  1  0
 23 48  1  0
 24 49  1  0
 24 50  1  0
 26 51  1  0
 27 52  1  0
 30 53  1  0
 31 54  1  0
M  CHG  1   5  -1
M  END
>  <UniqueID>  (85) 
80

>  <SMILES>  (85) 
O=C(CC[N-]S(=O)(=O)c1ccc2c(c1)CCN2C(=O)C1CC1)NCc1ccc(F)cc1

>  <Energy>  (85) 
328.65174615941777

>  <Genealogy>  (85) 
O=C(CC[N-]S(=O)(=O)c1ccc2c(c1)CCN2C(=O)C1CC1)NCc1ccc(F)cc1 (protonated)
O=C(CC[N-]S(=O)(=O)c1ccc2c(c1)CCN2C(=O)C1CC1)NCc1ccc(F)cc1 (3D coordinates assigned)
O=C(CC[N-]S(=O)(=O)c1ccc2c(c1)CCN2C(=O)C1CC1)NCc1ccc(F)cc1 (nonaromatic ring conformer: 328.65174615941777 kcal/mol)

>  <smiles>  (85) 
O=C(CCNS(=O)(=O)c1ccc2c(c1)CCN2C(=O)C1CC1)NCc1ccc(F)cc1

>  <score_type>  (85) 
oracle

>  <origin>  (85) 
adg

>  <m_score__min__energy>  (85) 
-10.1

>  <m_primary>  (85) 
energy

$$$$
85:0
     RDKit          3D

 61 65  0  0  0  0  0  0  0  0999 V2000
   60.7130   29.5720   48.1050 O   0  0  0  0  0  0  0  0  0  0  0  0
   59.5120   29.4040   48.4380 C   0  0  0  0  0  0  0  0  0  0  0  0
   58.6420   30.6080   48.7130 C   0  0  0  0  0  0  0  0  0  0  0  0
   59.4260   31.8090   49.2650 C   0  0  0  0  0  0  0  0  0  0  0  0
   60.1730   32.5200   48.2160 N   0  0  0  0  0  0  0  0  0  0  0  0
   59.6870   33.2680   47.1810 C   0  0  0  0  0  0  0  0  0  0  0  0
   58.2180   33.4660   46.8640 C   0  0  1  0  0  0  0  0  0  0  0  0
   58.0190   34.6050   45.8210 C   0  0  0  0  0  0  0  0  0  0  0  0
   57.3790   34.1370   44.5040 C   0  0  0  0  0  0  0  0  0  0  0  0
   58.0300   32.8460   43.9960 C   0  0  0  0  0  0  0  0  0  0  0  0
   58.0390   31.8050   45.0360 N   0  0  0  0  0  0  0  0  0  0  0  0
   58.3800   30.4480   44.6860 C   0  0  0  0  0  0  0  0  0  0  0  0
   59.6440   29.9240   44.9940 C   0  0  0  0  0  0  0  0  0  0  0  0
   59.9550   28.6060   44.6570 C   0  0  0  0  0  0  0  0  0  0  0  0
   58.9990   27.8200   44.0140 C   0  0  0  0  0  0  0  0  0  0  0  0
   57.7810   28.3410   43.7040 N   0  0  0  0  0  0  0  0  0  0  0  0
   57.4550   29.6230   44.0210 C   0  0  0  0  0  0  0  0  0  0  0  0
   57.6060   32.1270   46.4040 C   0  0  0  0  0  0  0  0  0  0  0  0
   60.6650   33.8160   46.4110 N   0  0  0  0  0  0  0  0  0  0  0  0
   61.7950   33.4030   47.0050 C   0  0  0  0  0  0  0  0  0  0  0  0
   63.1020   33.6940   46.6260 C   0  0  0  0  0  0  0  0  0  0  0  0
   64.1450   33.1580   47.4030 C   0  0  0  0  0  0  0  0  0  0  0  0
   63.8570   32.3490   48.5240 C   0  0  0  0  0  0  0  0  0  0  0  0
   62.5250   32.0710   48.8820 C   0  0  0  0  0  0  0  0  0  0  0  0
   61.5110   32.6250   48.0910 C   0  0  0  0  0  0  0  0  0  0  0  0
   58.9860   28.0680   48.4450 N   0  0  0  0  0  0  0  0  0  0  0  0
   59.2840   27.0450   47.4510 C   0  0  0  0  0  0  0  0  0  0  0  0
   58.0130   26.3540   47.0510 C   0  0  0  0  0  0  0  0  0  0  0  0
   57.0320   27.0410   46.3140 C   0  0  0  0  0  0  0  0  0  0  0  0
   55.8410   26.3900   45.9800 C   0  0  0  0  0  0  0  0  0  0  0  0
   55.6330   25.1050   46.3770 N   0  0  0  0  0  0  0  0  0  0  0  0
   56.5590   24.4230   47.1030 C   0  0  0  0  0  0  0  0  0  0  0  0
   57.7650   25.0340   47.4580 C   0  0  0  0  0  0  0  0  0  0  0  0
   58.1560   30.9099   47.7735 H   0  0  0  0  0  0  0  0  0  0  0  0
   57.9112   30.3143   49.4809 H   0  0  0  0  0  0  0  0  0  0  0  0
   58.7174   32.5096   49.7309 H   0  0  0  0  0  0  0  0  0  0  0  0
   60.1542   31.4274   49.9958 H   0  0  0  0  0  0  0  0  0  0  0  0
   57.6860   33.7858   47.7721 H   0  0  0  0  0  0  0  0  0  0  0  0
   57.3713   35.3741   46.2670 H   0  0  0  0  0  0  0  0  0  0  0  0
   59.0193   34.9889   45.5718 H   0  0  0  0  0  0  0  0  0  0  0  0
   56.3070   33.9559   44.6712 H   0  0  0  0  0  0  0  0  0  0  0  0
   57.5280   34.9217   43.7477 H   0  0  0  0  0  0  0  0  0  0  0  0
   57.4655   32.4785   43.1264 H   0  0  0  0  0  0  0  0  0  0  0  0
   59.0711   33.0685   43.7193 H   0  0  0  0  0  0  0  0  0  0  0  0
   60.3907   30.5524   45.5015 H   0  0  0  0  0  0  0  0  0  0  0  0
   60.9451   28.1908   44.8963 H   0  0  0  0  0  0  0  0  0  0  0  0
   59.2304   26.7758   43.7568 H   0  0  0  0  0  0  0  0  0  0  0  0
   57.0760   27.7400   43.2240 H   0  0  0  0  0  0  0  0  0  0  0  0
   56.4627   30.0167   43.7559 H   0  0  0  0  0  0  0  0  0  0  0  0
   56.5089   32.2034   46.4278 H   0  0  0  0  0  0  0  0  0  0  0  0
   57.9457   31.3296   47.0813 H   0  0  0  0  0  0  0  0  0  0  0  0
   63.3126   34.3223   45.7480 H   0  0  0  0  0  0  0  0  0  0  0  0
   65.1907   33.3702   47.1359 H   0  0  0  0  0  0  0  0  0  0  0  0
   64.6808   31.9327   49.1223 H   0  0  0  0  0  0  0  0  0  0  0  0
   62.2886   31.4410   49.7522 H   0  0  0  0  0  0  0  0  0  0  0  0
   59.7407   27.5141   46.5670 H   0  0  0  0  0  0  0  0  0  0  0  0
   59.9832   26.3106   47.8774 H   0  0  0  0  0  0  0  0  0  0  0  0
   57.2006   28.0825   46.0028 H   0  0  0  0  0  0  0  0  0  0  0  0
   55.0717   26.9165   45.3961 H   0  0  0  0  0  0  0  0  0  0  0  0
   56.3581   23.3866   47.4120 H   0  0  0  0  0  0  0  0  0  0  0  0
   58.5122   24.4857   48.0505 H   0  0  0  0  0  0  0  0  0  0  0  0
  1  2  2  0
  2  3  1  0
  3  4  1  0
  4  5  1  0
  5  6  1  0
  6  7  1  0
  7  8  1  0
  8  9  1  0
  9 10  1  0
 10 11  1  0
 11 12  1  0
 12 13  2  0
 13 14  1  0
 14 15  2  0
 15 16  1  0
 16 17  2  0
 11 18  1  0
  6 19  2  0
 19 20  1  0
 20 21  2  0
 21 22  1  0
 22 23  2  0
 23 24  1  0
 24 25  2  0
  2 26  1  0
 26 27  1  0
 27 28  1  0
 28 29  2  0
 29 30  1  0
 30 31  2  0
 31 32  1  0
 32 33  2  0
 25  5  1  0
 33 28  1  0
 18  7  1  0
 25 20  1  0
 17 12  1  0
  3 34  1  0
  3 35  1  0
  4 36  1  0
  4 37  1  0
  7 38  1  1
  8 39  1  0
  8 40  1  0
  9 41  1  0
  9 42  1  0
 10 43  1  0
 10 44  1  0
 13 45  1  0
 14 46  1  0
 15 47  1  0
 16 48  1  0
 17 49  1  0
 18 50  1  0
 18 51  1  0
 21 52  1  0
 22 53  1  0
 23 54  1  0
 24 55  1  0
 27 56  1  0
 27 57  1  0
 29 58  1  0
 30 59  1  0
 32 60  1  0
 33 61  1  0
M  CHG  2  16   1  26  -1
M  END
>  <UniqueID>  (86) 
81

>  <SMILES>  (86) 
O=C(CCn1c([C@H]2CCCN(c3ccc[nH+]c3)C2)nc2ccccc21)[N-]Cc1ccncc1

>  <Energy>  (86) 
106.20854123852548

>  <Genealogy>  (86) 
O=C(CCn1c(C2CCCN(c3ccc[nH+]c3)C2)nc2ccccc21)[N-]Cc1ccncc1 (protonated)
O=C(CCn1c([C@H]2CCCN(c3ccc[nH+]c3)C2)nc2ccccc21)[N-]Cc1ccncc1 (chirality)
O=C(CCn1c([C@H]2CCCN(c3ccc[nH+]c3)C2)nc2ccccc21)[N-]Cc1ccncc1 (3D coordinates assigned)
O=C(CCn1c([C@H]2CCCN(c3ccc[nH+]c3)C2)nc2ccccc21)[N-]Cc1ccncc1 (nonaromatic ring conformer: 106.20854123852548 kcal/mol)

>  <smiles>  (86) 
O=C(CCn1c(C2CCCN(c3cccnc3)C2)nc2ccccc21)NCc1ccncc1

>  <score_type>  (86) 
oracle

>  <origin>  (86) 
adg

>  <m_score__min__energy>  (86) 
-10.41

>  <m_primary>  (86) 
energy

$$$$
86:0
     RDKit          3D

 50 51  0  0  0  0  0  0  0  0999 V2000
   63.3390   32.7440   47.4620 C   0  0  0  0  0  0  0  0  0  0  0  0
   62.5820   33.8460   46.7250 C   0  0  0  0  0  0  0  0  0  0  0  0
   61.1870   34.1010   47.3170 C   0  0  0  0  0  0  0  0  0  0  0  0
   60.0580   33.7500   46.3830 C   0  0  0  0  0  0  0  0  0  0  0  0
   59.5500   34.6350   45.6410 O   0  0  0  0  0  0  0  0  0  0  0  0
   59.5130   32.4240   46.4010 N   0  0  0  0  0  0  0  0  0  0  0  0
   58.3920   32.0120   45.5550 C   0  0  0  0  0  0  0  0  0  0  0  0
   58.8020   30.8740   44.6120 C   0  0  0  0  0  0  0  0  0  0  0  0
   57.9760   29.6180   44.8640 C   0  0  0  0  0  0  0  0  0  0  0  0
   58.5550   28.3660   45.2090 C   0  0  0  0  0  0  0  0  0  0  0  0
   60.0620   28.2060   45.1140 C   0  0  0  0  0  0  0  0  0  0  0  0
   57.7420   27.3320   45.6440 N   0  0  0  0  0  0  0  0  0  0  0  0
   58.3130   26.0780   46.1960 C   0  0  0  0  0  0  0  0  0  0  0  0
   57.7830   24.8660   45.4660 C   0  0  0  0  0  0  0  0  0  0  0  0
   57.4520   24.9420   44.1040 C   0  0  0  0  0  0  0  0  0  0  0  0
   56.9340   23.8270   43.4380 C   0  0  0  0  0  0  0  0  0  0  0  0
   56.7520   22.6120   44.1250 C   0  0  0  0  0  0  0  0  0  0  0  0
   56.2010   21.4770   43.5130 O   0  0  0  0  0  0  0  0  0  0  0  0
   56.2680   20.1620   44.0550 C   0  0  0  0  0  0  0  0  0  0  0  0
   57.1270   22.5270   45.4710 C   0  0  0  0  0  0  0  0  0  0  0  0
   57.6410   23.6420   46.1370 C   0  0  0  0  0  0  0  0  0  0  0  0
   56.3760   27.4860   45.6110 C   0  0  0  0  0  0  0  0  0  0  0  0
   55.6050   26.5520   45.9610 O   0  0  0  0  0  0  0  0  0  0  0  0
   55.8240   28.6530   45.2060 N   0  0  0  0  0  0  0  0  0  0  0  0
   56.5770   29.7130   44.8490 C   0  0  0  0  0  0  0  0  0  0  0  0
   56.0050   30.7840   44.5110 O   0  0  0  0  0  0  0  0  0  0  0  0
   63.2373   32.8920   48.5472 H   0  0  0  0  0  0  0  0  0  0  0  0
   62.9223   31.7644   47.1849 H   0  0  0  0  0  0  0  0  0  0  0  0
   64.4029   32.7815   47.1849 H   0  0  0  0  0  0  0  0  0  0  0  0
   63.1661   34.7761   46.7857 H   0  0  0  0  0  0  0  0  0  0  0  0
   62.4476   33.5192   45.6833 H   0  0  0  0  0  0  0  0  0  0  0  0
   61.0820   33.4974   48.2306 H   0  0  0  0  0  0  0  0  0  0  0  0
   61.1152   35.1805   47.5159 H   0  0  0  0  0  0  0  0  0  0  0  0
   59.9450   31.7060   47.0260 H   0  0  0  0  0  0  0  0  0  0  0  0
   57.5660   31.6684   46.1951 H   0  0  0  0  0  0  0  0  0  0  0  0
   58.0773   32.8733   44.9475 H   0  0  0  0  0  0  0  0  0  0  0  0
   58.6509   31.1990   43.5720 H   0  0  0  0  0  0  0  0  0  0  0  0
   59.8598   30.6355   44.7967 H   0  0  0  0  0  0  0  0  0  0  0  0
   60.4904   28.1605   46.1261 H   0  0  0  0  0  0  0  0  0  0  0  0
   60.2988   27.2777   44.5735 H   0  0  0  0  0  0  0  0  0  0  0  0
   60.4885   29.0639   44.5735 H   0  0  0  0  0  0  0  0  0  0  0  0
   59.4079   26.1074   46.0940 H   0  0  0  0  0  0  0  0  0  0  0  0
   58.0229   26.0005   47.2542 H   0  0  0  0  0  0  0  0  0  0  0  0
   57.6011   25.8847   43.5571 H   0  0  0  0  0  0  0  0  0  0  0  0
   56.6677   23.8996   42.3732 H   0  0  0  0  0  0  0  0  0  0  0  0
   56.2652   20.2176   45.1536 H   0  0  0  0  0  0  0  0  0  0  0  0
   55.3983   19.5805   43.7151 H   0  0  0  0  0  0  0  0  0  0  0  0
   57.1923   19.6719   43.7151 H   0  0  0  0  0  0  0  0  0  0  0  0
   57.0159   21.5739   46.0088 H   0  0  0  0  0  0  0  0  0  0  0  0
   57.9361   23.5600   47.1935 H   0  0  0  0  0  0  0  0  0  0  0  0
  1  2  1  0
  2  3  1  0
  3  4  1  0
  4  5  2  0
  4  6  1  0
  6  7  1  0
  7  8  1  0
  8  9  1  0
  9 10  2  0
 10 11  1  0
 10 12  1  0
 12 13  1  0
 13 14  1  0
 14 15  2  0
 15 16  1  0
 16 17  2  0
 17 18  1  0
 18 19  1  0
 17 20  1  0
 20 21  2  0
 12 22  1  0
 22 23  2  0
 22 24  1  0
 24 25  1  0
 25 26  2  0
 25  9  1  0
 21 14  1  0
  1 27  1  0
  1 28  1  0
  1 29  1  0
  2 30  1  0
  2 31  1  0
  3 32  1  0
  3 33  1  0
  6 34  1  0
  7 35  1  0
  7 36  1  0
  8 37  1  0
  8 38  1  0
 11 39  1  0
 11 40  1  0
 11 41  1  0
 13 42  1  0
 13 43  1  0
 15 44  1  0
 16 45  1  0
 19 46  1  0
 19 47  1  0
 19 48  1  0
 20 49  1  0
 21 50  1  0
M  CHG  1  24  -1
M  END
>  <UniqueID>  (87) 
82

>  <SMILES>  (87) 
CCCC(=O)NCCc1c(C)n(Cc2ccc(OC)cc2)c(=O)[n-]c1=O

>  <Energy>  (87) 
47.70813680304445

>  <Genealogy>  (87) 
CCCC(=O)NCCc1c(C)n(Cc2ccc(OC)cc2)c(=O)[n-]c1=O (protonated)
CCCC(=O)NCCc1c(C)n(Cc2ccc(OC)cc2)c(=O)[n-]c1=O (3D coordinates assigned)
CCCC(=O)NCCc1c(C)n(Cc2ccc(OC)cc2)c(=O)[n-]c1=O (optimized conformer: 47.70813680304445 kcal/mol)

>  <smiles>  (87) 
CCCC(=O)NCCc1c(C)n(Cc2ccc(OC)cc2)c(=O)[nH]c1=O

>  <score_type>  (87) 
oracle

>  <origin>  (87) 
adg

>  <m_score__min__energy>  (87) 
-9.6600000000000001

>  <m_primary>  (87) 
energy

$$$$
87:0
     RDKit          3D

 61 64  0  0  0  0  0  0  0  0999 V2000
   60.3040   29.4500   50.4290 C   0  0  0  0  0  0  0  0  0  0  0  0
   60.8160   29.2810   49.2050 C   0  0  0  0  0  0  0  0  0  0  0  0
   61.3580   30.4460   48.4330 C   0  0  0  0  0  0  0  0  0  0  0  0
   60.4820   30.7440   47.3060 N   0  0  0  0  0  0  0  0  0  0  0  0
   59.0660   30.9220   47.4310 C   0  0  0  0  0  0  0  0  0  0  0  0
   58.5800   31.2180   48.5530 O   0  0  0  0  0  0  0  0  0  0  0  0
   58.1750   30.8240   46.2620 C   0  0  0  0  0  0  0  0  0  0  0  0
   57.5940   31.8560   45.5430 C   0  0  0  0  0  0  0  0  0  0  0  0
   57.8420   33.3000   45.6870 C   0  0  0  0  0  0  0  0  0  0  0  0
   56.9950   34.1190   45.2380 O   0  0  0  0  0  0  0  0  0  0  0  0
   59.0280   33.7880   46.3250 N   0  0  0  0  0  0  0  0  0  0  0  0
   60.3350   33.4590   45.7330 C   0  0  0  0  0  0  0  0  0  0  0  0
   61.4590   34.2540   46.4000 C   0  0  0  0  0  0  0  0  0  0  0  0
   61.2790   34.2260   47.8560 N   0  0  0  0  0  0  0  0  0  0  0  0
   62.3000   33.6810   48.7160 C   0  0  0  0  0  0  0  0  0  0  0  0
   62.0710   33.5460   50.0950 C   0  0  0  0  0  0  0  0  0  0  0  0
   63.0640   33.0190   50.9290 C   0  0  0  0  0  0  0  0  0  0  0  0
   64.2890   32.6180   50.3940 C   0  0  0  0  0  0  0  0  0  0  0  0
   64.5220   32.7350   49.0210 C   0  0  0  0  0  0  0  0  0  0  0  0
   63.5330   33.2610   48.1850 C   0  0  0  0  0  0  0  0  0  0  0  0
   59.9900   34.6410   48.4310 C   0  0  0  0  0  0  0  0  0  0  0  0
   58.9190   34.8370   47.3470 C   0  0  0  0  0  0  0  0  0  0  0  0
   56.6810   31.3450   44.6940 N   0  0  0  0  0  0  0  0  0  0  0  0
   56.6790   30.0530   44.8660 O   0  0  0  0  0  0  0  0  0  0  0  0
   57.5370   29.6880   45.7910 C   0  0  0  0  0  0  0  0  0  0  0  0
   57.7140   28.2980   46.2480 C   0  0  0  0  0  0  0  0  0  0  0  0
   58.5430   28.0320   47.1590 O   0  0  0  0  0  0  0  0  0  0  0  0
   56.9350   27.2480   45.6560 N   0  0  0  0  0  0  0  0  0  0  0  0
   56.9800   25.8690   46.1400 C   0  0  0  0  0  0  0  0  0  0  0  0
   56.5120   24.9170   45.0730 C   0  0  0  0  0  0  0  0  0  0  0  0
   57.3390   24.6010   43.9820 C   0  0  0  0  0  0  0  0  0  0  0  0
   56.9000   23.7040   43.0050 C   0  0  0  0  0  0  0  0  0  0  0  0
   55.6380   23.1150   43.1070 C   0  0  0  0  0  0  0  0  0  0  0  0
   54.8070   23.4240   44.1890 C   0  0  0  0  0  0  0  0  0  0  0  0
   55.2430   24.3190   45.1720 C   0  0  0  0  0  0  0  0  0  0  0  0
   59.9097   28.5862   50.9843 H   0  0  0  0  0  0  0  0  0  0  0  0
   60.2772   30.4528   50.8803 H   0  0  0  0  0  0  0  0  0  0  0  0
   60.8396   28.2754   48.7597 H   0  0  0  0  0  0  0  0  0  0  0  0
   61.4167   31.3249   49.0919 H   0  0  0  0  0  0  0  0  0  0  0  0
   62.3610   30.1965   48.0565 H   0  0  0  0  0  0  0  0  0  0  0  0
   60.5284   32.3842   45.8647 H   0  0  0  0  0  0  0  0  0  0  0  0
   60.3097   33.7199   44.6647 H   0  0  0  0  0  0  0  0  0  0  0  0
   62.4293   33.8049   46.1416 H   0  0  0  0  0  0  0  0  0  0  0  0
   61.4318   35.2954   46.0467 H   0  0  0  0  0  0  0  0  0  0  0  0
   61.1059   33.8561   50.5221 H   0  0  0  0  0  0  0  0  0  0  0  0
   62.8783   32.9207   52.0088 H   0  0  0  0  0  0  0  0  0  0  0  0
   65.0703   32.2103   51.0523 H   0  0  0  0  0  0  0  0  0  0  0  0
   65.4848   32.4128   48.5977 H   0  0  0  0  0  0  0  0  0  0  0  0
   63.7202   33.3471   47.1045 H   0  0  0  0  0  0  0  0  0  0  0  0
   59.6479   33.8671   49.1339 H   0  0  0  0  0  0  0  0  0  0  0  0
   60.1379   35.6029   48.9438 H   0  0  0  0  0  0  0  0  0  0  0  0
   57.9221   34.7903   47.8096 H   0  0  0  0  0  0  0  0  0  0  0  0
   59.0686   35.8170   46.8703 H   0  0  0  0  0  0  0  0  0  0  0  0
   56.2780   27.4750   44.8750 H   0  0  0  0  0  0  0  0  0  0  0  0
   58.0136   25.6179   46.4202 H   0  0  0  0  0  0  0  0  0  0  0  0
   56.3160   25.7778   47.0123 H   0  0  0  0  0  0  0  0  0  0  0  0
   58.3346   25.0610   43.8969 H   0  0  0  0  0  0  0  0  0  0  0  0
   57.5509   23.4608   42.1522 H   0  0  0  0  0  0  0  0  0  0  0  0
   55.2973   22.4079   42.3363 H   0  0  0  0  0  0  0  0  0  0  0  0
   53.8111   22.9635   44.2669 H   0  0  0  0  0  0  0  0  0  0  0  0
   54.5908   24.5558   46.0255 H   0  0  0  0  0  0  0  0  0  0  0  0
  1  2  2  0
  2  3  1  0
  3  4  1  0
  4  5  1  0
  5  6  2  0
  5  7  1  0
  7  8  1  0
  8  9  1  0
  9 10  2  0
  9 11  1  0
 11 12  1  0
 12 13  1  0
 13 14  1  0
 14 15  1  0
 15 16  2  0
 16 17  1  0
 17 18  2  0
 18 19  1  0
 19 20  2  0
 14 21  1  0
 21 22  1  0
  8 23  2  0
 23 24  1  0
 24 25  1  0
 25 26  1  0
 26 27  2  0
 26 28  1  0
 28 29  1  0
 29 30  1  0
 30 31  2  0
 31 32  1  0
 32 33  2  0
 33 34  1  0
 34 35  2  0
 25  7  2  0
 35 30  1  0
 22 11  1  0
 20 15  1  0
  1 36  1  0
  1 37  1  0
  2 38  1  0
  3 39  1  0
  3 40  1  0
 12 41  1  0
 12 42  1  0
 13 43  1  0
 13 44  1  0
 16 45  1  0
 17 46  1  0
 18 47  1  0
 19 48  1  0
 20 49  1  0
 21 50  1  0
 21 51  1  0
 22 52  1  0
 22 53  1  0
 28 54  1  0
 29 55  1  0
 29 56  1  0
 31 57  1  0
 32 58  1  0
 33 59  1  0
 34 60  1  0
 35 61  1  0
M  CHG  1   4  -1
M  END
>  <UniqueID>  (88) 
83

>  <SMILES>  (88) 
C=CC[N-]C(=O)c1c(C(=O)N2CCN(c3ccccc3)CC2)noc1C(=O)NCc1ccccc1

>  <Energy>  (88) 
100.93096859648854

>  <Genealogy>  (88) 
C=CC[N-]C(=O)c1c(C(=O)N2CCN(c3ccccc3)CC2)noc1C(=O)NCc1ccccc1 (protonated)
C=CC[N-]C(=O)c1c(C(=O)N2CCN(c3ccccc3)CC2)noc1C(=O)NCc1ccccc1 (3D coordinates assigned)
C=CC[N-]C(=O)c1c(C(=O)N2CCN(c3ccccc3)CC2)noc1C(=O)NCc1ccccc1 (nonaromatic ring conformer: 100.93096859648854 kcal/mol)

>  <smiles>  (88) 
C=CCNC(=O)c1c(C(=O)N2CCN(c3ccccc3)CC2)noc1C(=O)NCc1ccccc1

>  <score_type>  (88) 
oracle

>  <origin>  (88) 
adg

>  <m_score__min__energy>  (88) 
-10.49

>  <m_primary>  (88) 
energy

$$$$
88:0
     RDKit          3D

 53 56  0  0  0  0  0  0  0  0999 V2000
   60.1870   27.9250   46.8180 C   0  0  0  0  0  0  0  0  0  0  0  0
   59.2650   28.8060   46.3990 C   0  0  0  0  0  0  0  0  0  0  0  0
   58.1600   28.5560   45.5690 C   0  0  0  0  0  0  0  0  0  0  0  0
   57.6210   27.3980   45.1380 C   0  0  0  0  0  0  0  0  0  0  0  0
   57.2000   26.2780   45.9940 C   0  0  0  0  0  0  0  0  0  0  0  0
   58.0390   25.4480   46.6410 N   0  0  0  0  0  0  0  0  0  0  0  0
   57.2130   24.6960   47.3980 C   0  0  0  0  0  0  0  0  0  0  0  0
   57.6300   23.7760   48.1480 O   0  0  0  0  0  0  0  0  0  0  0  0
   55.9050   25.0140   47.2970 N   0  0  0  0  0  0  0  0  0  0  0  0
   55.9160   26.0280   46.4160 C   0  0  0  0  0  0  0  0  0  0  0  0
   54.7790   26.7140   46.0110 O   0  0  0  0  0  0  0  0  0  0  0  0
   57.6340   29.7950   45.2390 C   0  0  0  0  0  0  0  0  0  0  0  0
   58.3760   30.7390   45.9200 C   0  0  0  0  0  0  0  0  0  0  0  0
   58.1480   32.2180   45.8640 C   0  0  0  0  0  0  0  0  0  0  0  0
   59.3570   30.1400   46.6270 N   0  0  0  0  0  0  0  0  0  0  0  0
   60.3540   30.8230   47.4030 C   0  0  0  0  0  0  0  0  0  0  0  0
   61.6200   31.0600   46.8550 C   0  0  0  0  0  0  0  0  0  0  0  0
   62.5960   31.7250   47.5960 C   0  0  0  0  0  0  0  0  0  0  0  0
   62.3180   32.1690   48.8980 C   0  0  0  0  0  0  0  0  0  0  0  0
   63.3330   32.8510   49.6600 N   0  0  0  0  0  0  0  0  0  0  0  0
   63.0070   34.0740   50.3990 C   0  0  0  0  0  0  0  0  0  0  0  0
   63.9450   34.2130   51.6010 C   0  0  0  0  0  0  0  0  0  0  0  0
   65.2980   34.1160   51.1970 O   0  0  0  0  0  0  0  0  0  0  0  0
   65.5550   32.8190   50.6910 C   0  0  0  0  0  0  0  0  0  0  0  0
   64.7490   32.5630   49.4130 C   0  0  0  0  0  0  0  0  0  0  0  0
   61.0480   31.9260   49.4490 C   0  0  0  0  0  0  0  0  0  0  0  0
   60.0600   31.2480   48.7090 C   0  0  0  0  0  0  0  0  0  0  0  0
   58.7800   30.9810   49.2240 O   0  0  0  0  0  0  0  0  0  0  0  0
   58.4940   30.2100   50.3900 C   0  0  0  0  0  0  0  0  0  0  0  0
   59.5920   29.1840   50.6430 C   0  0  0  0  0  0  0  0  0  0  0  0
   61.0077   28.2565   47.4711 H   0  0  0  0  0  0  0  0  0  0  0  0
   60.1218   26.8715   46.5083 H   0  0  0  0  0  0  0  0  0  0  0  0
   57.4842   27.2804   44.0529 H   0  0  0  0  0  0  0  0  0  0  0  0
   56.7875   29.9890   44.5638 H   0  0  0  0  0  0  0  0  0  0  0  0
   58.0863   32.6185   46.8867 H   0  0  0  0  0  0  0  0  0  0  0  0
   58.9828   32.6978   45.3321 H   0  0  0  0  0  0  0  0  0  0  0  0
   57.2075   32.4241   45.3321 H   0  0  0  0  0  0  0  0  0  0  0  0
   61.8462   30.7196   45.8337 H   0  0  0  0  0  0  0  0  0  0  0  0
   63.5892   31.9026   47.1578 H   0  0  0  0  0  0  0  0  0  0  0  0
   63.1279   34.9446   49.7376 H   0  0  0  0  0  0  0  0  0  0  0  0
   61.9664   34.0214   50.7517 H   0  0  0  0  0  0  0  0  0  0  0  0
   63.7798   35.1913   52.0760 H   0  0  0  0  0  0  0  0  0  0  0  0
   63.7302   33.4011   52.3114 H   0  0  0  0  0  0  0  0  0  0  0  0
   66.6276   32.7261   50.4654 H   0  0  0  0  0  0  0  0  0  0  0  0
   65.2573   32.0797   51.4492 H   0  0  0  0  0  0  0  0  0  0  0  0
   65.1206   33.2151   48.6088 H   0  0  0  0  0  0  0  0  0  0  0  0
   64.8615   31.5103   49.1143 H   0  0  0  0  0  0  0  0  0  0  0  0
   60.8232   32.2692   50.4696 H   0  0  0  0  0  0  0  0  0  0  0  0
   58.4214   30.8820   51.2579 H   0  0  0  0  0  0  0  0  0  0  0  0
   57.5432   29.6784   50.2368 H   0  0  0  0  0  0  0  0  0  0  0  0
   59.7304   29.0547   51.7266 H   0  0  0  0  0  0  0  0  0  0  0  0
   59.3059   28.2221   50.1925 H   0  0  0  0  0  0  0  0  0  0  0  0
   60.5323   29.5346   50.1925 H   0  0  0  0  0  0  0  0  0  0  0  0
  1  2  2  0
  2  3  1  0
  3  4  2  3
  4  5  1  0
  5  6  1  0
  6  7  1  0
  7  8  2  0
  7  9  1  0
  9 10  1  0
 10 11  1  0
  3 12  1  0
 12 13  2  0
 13 14  1  0
 13 15  1  0
 15 16  1  0
 16 17  2  0
 17 18  1  0
 18 19  2  0
 19 20  1  0
 20 21  1  0
 21 22  1  0
 22 23  1  0
 23 24  1  0
 24 25  1  0
 19 26  1  0
 26 27  2  0
 27 28  1  0
 28 29  1  0
 29 30  1  0
 15  2  1  0
 27 16  1  0
 10  5  2  0
 25 20  1  0
  1 31  1  0
  1 32  1  0
  4 33  1  0
 12 34  1  0
 14 35  1  0
 14 36  1  0
 14 37  1  0
 17 38  1  0
 18 39  1  0
 21 40  1  0
 21 41  1  0
 22 42  1  0
 22 43  1  0
 24 44  1  0
 24 45  1  0
 25 46  1  0
 25 47  1  0
 26 48  1  0
 29 49  1  0
 29 50  1  0
 30 51  1  0
 30 52  1  0
 30 53  1  0
M  CHG  3   6  -1   9  -1  11  -1
M  END
>  <UniqueID>  (89) 
84

>  <SMILES>  (89) 
C=c1c(=Cc2[n-]c(=O)[n-]c2[O-])cc(C)n1-c1ccc(N2CCOCC2)cc1OCC

>  <Energy>  (89) 
133.66923101871444

>  <Genealogy>  (89) 
C=c1c(=Cc2[n-]c(=O)[n-]c2[O-])cc(C)n1-c1ccc(N2CCOCC2)cc1OCC (protonated)
C=c1c(=Cc2[n-]c(=O)[n-]c2[O-])cc(C)n1-c1ccc(N2CCOCC2)cc1OCC (3D coordinates assigned)
C=c1c(=Cc2[n-]c(=O)[n-]c2[O-])cc(C)n1-c1ccc(N2CCOCC2)cc1OCC (nonaromatic ring conformer: 133.66923101871444 kcal/mol)

>  <smiles>  (89) 
C=c1c(=Cc2[nH]c(=O)[nH]c2O)cc(C)n1-c1ccc(N2CCOCC2)cc1OCC

>  <score_type>  (89) 
oracle

>  <origin>  (89) 
adg

>  <m_score__min__energy>  (89) 
-15.140000000000001

>  <m_primary>  (89) 
energy

$$$$
89:0
     RDKit          3D

 62 66  0  0  0  0  0  0  0  0999 V2000
   52.0050   32.1880   49.7370 H   0  0  0  0  0  0  0  0  0  0  0  0
   51.1350   32.3480   50.2260 O   0  0  0  0  0  0  0  0  0  0  0  0
   51.0390   32.2380   51.6100 C   0  0  0  0  0  0  0  0  0  0  0  0
   50.4250   33.2000   52.3460 N   0  0  0  0  0  0  0  0  0  0  0  0
   50.4420   32.8940   53.6590 C   0  0  0  0  0  0  0  0  0  0  0  0
   49.9320   33.6320   54.5410 O   0  0  0  0  0  0  0  0  0  0  0  0
   51.2150   31.4370   53.9740 S   0  0  0  0  0  0  0  0  0  0  0  0
   51.5460   31.1620   52.3450 C   0  0  0  0  0  0  0  0  0  0  0  0
   52.2840   29.9680   51.8150 C   0  0  0  0  0  0  0  0  0  0  0  0
   52.1321   29.9061   50.7273 H   0  0  0  0  0  0  0  0  0  0  0  0
   51.8938   29.0681   52.3129 H   0  0  0  0  0  0  0  0  0  0  0  0
   53.7590   30.0690   52.1000 C   0  0  0  0  0  0  0  0  0  0  0  0
   54.4290   31.2900   51.9250 C   0  0  0  0  0  0  0  0  0  0  0  0
   53.8752   32.1721   51.5713 H   0  0  0  0  0  0  0  0  0  0  0  0
   55.7970   31.3910   52.1980 C   0  0  0  0  0  0  0  0  0  0  0  0
   56.3166   32.3469   52.0356 H   0  0  0  0  0  0  0  0  0  0  0  0
   56.5100   30.2860   52.6760 C   0  0  0  0  0  0  0  0  0  0  0  0
   57.9180   30.4310   52.9270 N   0  0  0  0  0  0  0  0  0  0  0  0
   58.7250   31.3040   52.3970 C   0  0  0  0  0  0  0  0  0  0  0  0
   58.5440   31.6680   51.1000 N   0  0  0  0  0  0  0  0  0  0  0  0
   59.3240   32.6110   50.5040 C   0  0  0  0  0  0  0  0  0  0  0  0
   59.0670   32.9740   49.0870 C   0  0  0  0  0  0  0  0  0  0  0  0
   60.0710   33.6110   48.3370 C   0  0  0  0  0  0  0  0  0  0  0  0
   61.0310   33.8613   48.8121 H   0  0  0  0  0  0  0  0  0  0  0  0
   59.8590   33.9290   46.9920 C   0  0  0  0  0  0  0  0  0  0  0  0
   60.6482   34.4370   46.4184 H   0  0  0  0  0  0  0  0  0  0  0  0
   58.6480   33.6040   46.3730 C   0  0  0  0  0  0  0  0  0  0  0  0
   58.4040   34.0060   44.6760 S   0  0  0  0  0  0  0  0  0  0  0  0
   57.2490   34.9610   44.5670 O   0  0  0  0  0  0  0  0  0  0  0  0
   59.6290   34.6530   44.0920 O   0  0  0  0  0  0  0  0  0  0  0  0
   58.0410   32.5650   43.7850 N   0  0  0  0  0  0  0  0  0  0  0  0
   57.7000   31.3130   44.3900 C   0  0  0  0  0  0  0  0  0  0  0  0
   56.6770   31.2550   45.1220 O   0  0  0  0  0  0  0  0  0  0  0  0
   58.4940   30.1370   44.1680 N   0  0  0  0  0  0  0  0  0  0  0  0
   59.2190   30.1320   43.4180 H   0  0  0  0  0  0  0  0  0  0  0  0
   58.4460   28.9790   45.0560 C   0  0  0  0  0  0  0  0  0  0  0  0
   57.3970   28.7122   45.2518 H   0  0  0  0  0  0  0  0  0  0  0  0
   58.9605   28.1326   44.5774 H   0  0  0  0  0  0  0  0  0  0  0  0
   59.1290   29.3050   46.3550 C   0  0  0  0  0  0  0  0  0  0  0  0
   58.6090   28.8320   47.5710 C   0  0  0  0  0  0  0  0  0  0  0  0
   57.6976   28.2162   47.5754 H   0  0  0  0  0  0  0  0  0  0  0  0
   59.2470   29.1420   48.7760 C   0  0  0  0  0  0  0  0  0  0  0  0
   58.8268   28.7829   49.7270 H   0  0  0  0  0  0  0  0  0  0  0  0
   60.4160   29.9060   48.7760 C   0  0  0  0  0  0  0  0  0  0  0  0
   60.9154   30.1491   49.7255 H   0  0  0  0  0  0  0  0  0  0  0  0
   60.9500   30.3610   47.5680 C   0  0  0  0  0  0  0  0  0  0  0  0
   61.8749   30.9564   47.5665 H   0  0  0  0  0  0  0  0  0  0  0  0
   60.3110   30.0610   46.3600 C   0  0  0  0  0  0  0  0  0  0  0  0
   60.7367   30.4190   45.4110 H   0  0  0  0  0  0  0  0  0  0  0  0
   57.6410   32.9730   47.1130 C   0  0  0  0  0  0  0  0  0  0  0  0
   56.6838   32.7225   46.6324 H   0  0  0  0  0  0  0  0  0  0  0  0
   57.8460   32.6600   48.4590 C   0  0  0  0  0  0  0  0  0  0  0  0
   57.0484   32.1649   49.0323 H   0  0  0  0  0  0  0  0  0  0  0  0
   60.3490   33.2140   51.2490 C   0  0  0  0  0  0  0  0  0  0  0  0
   61.0035   33.9712   50.7926 H   0  0  0  0  0  0  0  0  0  0  0  0
   60.5210   32.8340   52.5790 C   0  0  0  0  0  0  0  0  0  0  0  0
   61.3179   33.2924   53.1830 H   0  0  0  0  0  0  0  0  0  0  0  0
   59.7060   31.8990   53.1290 N   0  0  0  0  0  0  0  0  0  0  0  0
   55.8460   29.0540   52.8260 C   0  0  0  0  0  0  0  0  0  0  0  0
   56.4047   28.1679   53.1618 H   0  0  0  0  0  0  0  0  0  0  0  0
   54.4800   28.9520   52.5500 C   0  0  0  0  0  0  0  0  0  0  0  0
   53.9659   27.9891   52.6864 H   0  0  0  0  0  0  0  0  0  0  0  0
  1  2  1  0
  2  3  1  0
  3  4  1  0
  4  5  1  0
  5  6  2  0
  5  7  1  0
  7  8  1  0
  8  9  1  0
  9 10  1  0
  9 11  1  0
  9 12  1  0
 12 13  2  0
 13 14  1  0
 13 15  1  0
 15 16  1  0
 15 17  2  0
 17 18  1  0
 18 19  2  0
 19 20  1  0
 20 21  2  0
 21 22  1  0
 22 23  2  0
 23 24  1  0
 23 25  1  0
 25 26  1  0
 25 27  2  0
 27 28  1  0
 28 29  2  0
 28 30  2  0
 28 31  1  0
 31 32  1  0
 32 33  2  0
 32 34  1  0
 34 35  1  0
 34 36  1  0
 36 37  1  0
 36 38  1  0
 36 39  1  0
 39 40  2  0
 40 41  1  0
 40 42  1  0
 42 43  1  0
 42 44  2  0
 44 45  1  0
 44 46  1  0
 46 47  1  0
 46 48  2  0
 48 49  1  0
 27 50  1  0
 50 51  1  0
 50 52  2  0
 52 53  1  0
 21 54  1  0
 54 55  1  0
 54 56  2  0
 56 57  1  0
 56 58  1  0
 17 59  1  0
 59 60  1  0
 59 61  2  0
 61 62  1  0
  8  3  2  0
 61 12  1  0
 58 19  1  0
 52 22  1  0
 48 39  1  0
M  CHG  3   4  -1  31  -1  58  -1
M  END
>  <UniqueID>  (90) 
85

>  <SMILES>  (90) 
O=C([N-]S(=O)(=O)c1ccc(-c2cc[n-]/c(=N\c3ccc(Cc4sc(=O)[n-]c4O)cc3)n2)cc1)NCc1ccccc1

>  <Energy>  (90) 
103.94581463761205

>  <Genealogy>  (90) 
O=C([N-]S(=O)(=O)c1ccc(-c2cc[n-]c(=Nc3ccc(Cc4sc(=O)[n-]c4O)cc3)n2)cc1)NCc1ccccc1 (protonated)
O=C([N-]S(=O)(=O)c1ccc(-c2cc[n-]/c(=N\c3ccc(Cc4sc(=O)[n-]c4O)cc3)n2)cc1)NCc1ccccc1 (cis-trans isomerization)
O=C([N-]S(=O)(=O)c1ccc(-c2cc[n-]/c(=N\c3ccc(Cc4sc(=O)[n-]c4O)cc3)n2)cc1)NCc1ccccc1 (3D coordinates assigned)
O=C([N-]S(=O)(=O)c1ccc(-c2cc[n-]/c(=N\c3ccc(Cc4sc(=O)[n-]c4O)cc3)n2)cc1)NCc1ccccc1 (optimized conformer: 103.94581463761205 kcal/mol)

>  <smiles>  (90) 
O=C(NCc1ccccc1)NS(=O)(=O)c1ccc(-c2cc[nH]c(=Nc3ccc(Cc4sc(=O)[nH]c4O)cc3)n2)cc1

>  <score_type>  (90) 
oracle

>  <origin>  (90) 
adg

>  <m_score__min__energy>  (90) 
-16.739999999999998

>  <m_primary>  (90) 
energy

$$$$
90:0
     RDKit          3D

 39 41  0  0  0  0  0  0  0  0999 V2000
   57.6438   34.5876   47.2345 H   0  0  0  0  0  0  0  0  0  0  0  0
   58.4530   34.1890   46.6050 C   0  0  0  0  0  0  0  0  0  0  0  0
   59.7230   34.4910   46.9120 C   0  0  0  0  0  0  0  0  0  0  0  0
   59.9936   35.5522   47.0147 H   0  0  0  0  0  0  0  0  0  0  0  0
   60.7840   33.4750   47.1210 C   0  0  0  0  0  0  0  0  0  0  0  0
   62.1240   33.8520   46.9250 C   0  0  0  0  0  0  0  0  0  0  0  0
   62.3612   34.8810   46.6170 H   0  0  0  0  0  0  0  0  0  0  0  0
   63.1580   32.9310   47.1180 C   0  0  0  0  0  0  0  0  0  0  0  0
   64.2022   33.2347   46.9522 H   0  0  0  0  0  0  0  0  0  0  0  0
   62.8670   31.6260   47.5210 C   0  0  0  0  0  0  0  0  0  0  0  0
   63.6810   30.9011   47.6690 H   0  0  0  0  0  0  0  0  0  0  0  0
   61.5410   31.2420   47.7360 C   0  0  0  0  0  0  0  0  0  0  0  0
   61.3128   30.2153   48.0581 H   0  0  0  0  0  0  0  0  0  0  0  0
   60.5030   32.1590   47.5430 C   0  0  0  0  0  0  0  0  0  0  0  0
   59.4618   31.8522   47.7213 H   0  0  0  0  0  0  0  0  0  0  0  0
   58.1070   33.3400   45.4510 C   0  0  0  0  0  0  0  0  0  0  0  0
   57.4000   32.1830   45.5740 N   0  0  0  0  0  0  0  0  0  0  0  0
   57.2100   31.5780   44.3820 C   0  0  0  0  0  0  0  0  0  0  0  0
   56.4010   30.3360   44.2070 C   0  0  0  0  0  0  0  0  0  0  0  0
   56.2204   30.1651   43.1355 H   0  0  0  0  0  0  0  0  0  0  0  0
   55.4399   30.4503   44.7296 H   0  0  0  0  0  0  0  0  0  0  0  0
   57.1390   29.1710   44.7780 C   0  0  0  0  0  0  0  0  0  0  0  0
   56.5160   28.0910   45.2980 N   0  0  0  0  0  0  0  0  0  0  0  0
   57.5290   27.3370   45.7570 C   0  0  0  0  0  0  0  0  0  0  0  0
   57.3450   26.0450   46.4950 C   0  0  0  0  0  0  0  0  0  0  0  0
   56.8152   26.2443   47.4382 H   0  0  0  0  0  0  0  0  0  0  0  0
   58.3380   25.6128   46.6878 H   0  0  0  0  0  0  0  0  0  0  0  0
   56.5340   25.0390   45.6710 C   0  0  0  0  0  0  0  0  0  0  0  0
   56.8979   24.0240   45.8884 H   0  0  0  0  0  0  0  0  0  0  0  0
   56.6631   25.2834   44.6063 H   0  0  0  0  0  0  0  0  0  0  0  0
   55.0730   25.1110   45.9940 C   0  0  0  0  0  0  0  0  0  0  0  0
   54.4260   24.0590   46.2430 O   0  0  0  0  0  0  0  0  0  0  0  0
   54.4170   26.3350   45.9770 O   0  0  0  0  0  0  0  0  0  0  0  0
   58.7260   27.9780   45.5320 C   0  0  0  0  0  0  0  0  0  0  0  0
   59.7190   27.5965   45.8122 H   0  0  0  0  0  0  0  0  0  0  0  0
   58.4830   29.1460   44.9140 N   0  0  0  0  0  0  0  0  0  0  0  0
   57.8850   32.4710   43.1270 S   0  0  0  0  0  0  0  0  0  0  0  0
   58.4730   33.6700   44.1490 C   0  0  0  0  0  0  0  0  0  0  0  0
   59.0455   34.5580   43.8429 H   0  0  0  0  0  0  0  0  0  0  0  0
  1  2  1  0
  2  3  2  0
  3  4  1  0
  3  5  1  0
  5  6  2  0
  6  7  1  0
  6  8  1  0
  8  9  1  0
  8 10  2  0
 10 11  1  0
 10 12  1  0
 12 13  1  0
 12 14  2  0
 14 15  1  0
  2 16  1  0
 16 17  1  0
 17 18  2  0
 18 19  1  0
 19 20  1  0
 19 21  1  0
 19 22  1  0
 22 23  2  0
 23 24  1  0
 24 25  1  0
 25 26  1  0
 25 27  1  0
 25 28  1  0
 28 29  1  0
 28 30  1  0
 28 31  1  0
 31 32  2  0
 31 33  1  0
 24 34  2  0
 34 35  1  0
 34 36  1  0
 18 37  1  0
 37 38  1  0
 38 39  1  0
 14  5  1  0
 38 16  2  0
 36 22  1  0
M  CHG  2  33  -1  36  -1
M  END
>  <UniqueID>  (91) 
86

>  <SMILES>  (91) 
O=C([O-])CCc1c[n-]c(Cc2nc(/C=C/c3ccccc3)cs2)n1

>  <Energy>  (91) 
92.35454833904392

>  <Genealogy>  (91) 
O=C([O-])CCc1c[n-]c(Cc2nc(C=Cc3ccccc3)cs2)n1 (protonated)
O=C([O-])CCc1c[n-]c(Cc2nc(/C=C/c3ccccc3)cs2)n1 (cis-trans isomerization)
O=C([O-])CCc1c[n-]c(Cc2nc(/C=C/c3ccccc3)cs2)n1 (3D coordinates assigned)
O=C([O-])CCc1c[n-]c(Cc2nc(/C=C/c3ccccc3)cs2)n1 (optimized conformer: 92.35454833904392 kcal/mol)

>  <smiles>  (91) 
O=C(O)CCc1c[nH]c(Cc2nc(C=Cc3ccccc3)cs2)n1

>  <score_type>  (91) 
oracle

>  <origin>  (91) 
adg

>  <m_score__min__energy>  (91) 
-13.039999999999999

>  <m_primary>  (91) 
energy

$$$$
91:0
     RDKit          3D

 49 51  0  0  0  0  0  0  0  0999 V2000
   55.1590   30.3910   44.5670 O   0  0  0  0  0  0  0  0  0  0  0  0
   56.0810   29.5380   44.4790 C   0  0  0  0  0  0  0  0  0  0  0  0
   57.2760   29.8270   43.6060 C   0  0  0  0  0  0  0  0  0  0  0  0
   58.3840   30.5500   44.3750 C   0  0  0  0  0  0  0  0  0  0  0  0
   57.8030   31.0470   46.0350 S   0  0  0  0  0  0  0  0  0  0  0  0
   59.0990   32.2730   46.2560 C   0  0  0  0  0  0  0  0  0  0  0  0
   60.3150   31.8790   46.8310 C   0  0  0  0  0  0  0  0  0  0  0  0
   61.3450   32.8070   47.0090 C   0  0  0  0  0  0  0  0  0  0  0  0
   61.1650   34.1350   46.6130 C   0  0  0  0  0  0  0  0  0  0  0  0
   59.9570   34.5360   46.0370 C   0  0  0  0  0  0  0  0  0  0  0  0
   58.9210   33.6110   45.8520 C   0  0  0  0  0  0  0  0  0  0  0  0
   57.2890   34.2140   45.0470 Br  0  0  0  0  0  0  0  0  0  0  0  0
   55.9830   28.3340   45.2510 N   0  0  0  0  0  0  0  0  0  0  0  0
   57.0770   27.5640   45.7660 C   0  0  0  0  0  0  0  0  0  0  0  0
   57.2780   26.2250   45.3880 C   0  0  0  0  0  0  0  0  0  0  0  0
   58.3310   25.4890   45.9400 C   0  0  0  0  0  0  0  0  0  0  0  0
   59.1790   26.0770   46.8820 C   0  0  0  0  0  0  0  0  0  0  0  0
   58.9750   27.4050   47.2800 C   0  0  0  0  0  0  0  0  0  0  0  0
   60.0080   28.1490   48.4980 S   0  0  0  0  0  0  0  0  0  0  0  0
   60.8120   27.0920   49.2060 O   0  0  0  0  0  0  0  0  0  0  0  0
   60.9570   29.0940   47.8140 O   0  0  0  0  0  0  0  0  0  0  0  0
   59.0250   29.0220   49.6450 N   0  0  0  0  0  0  0  0  0  0  0  0
   58.8780   30.4290   49.2240 C   0  0  0  0  0  0  0  0  0  0  0  0
   58.2960   31.2990   50.3580 C   0  0  0  0  0  0  0  0  0  0  0  0
   57.7510   30.4970   51.3870 O   0  0  0  0  0  0  0  0  0  0  0  0
   58.7840   29.7520   52.0090 C   0  0  0  0  0  0  0  0  0  0  0  0
   59.6170   28.9380   50.9910 C   0  0  0  0  0  0  0  0  0  0  0  0
   57.9180   28.1400   46.7270 C   0  0  0  0  0  0  0  0  0  0  0  0
   57.6729   28.8763   43.2206 H   0  0  0  0  0  0  0  0  0  0  0  0
   56.9478   30.4819   42.7854 H   0  0  0  0  0  0  0  0  0  0  0  0
   59.2475   29.8769   44.4816 H   0  0  0  0  0  0  0  0  0  0  0  0
   58.6697   31.4533   43.8161 H   0  0  0  0  0  0  0  0  0  0  0  0
   60.4595   30.8343   47.1437 H   0  0  0  0  0  0  0  0  0  0  0  0
   62.2972   32.4920   47.4608 H   0  0  0  0  0  0  0  0  0  0  0  0
   61.9752   34.8653   46.7549 H   0  0  0  0  0  0  0  0  0  0  0  0
   59.8186   35.5824   45.7274 H   0  0  0  0  0  0  0  0  0  0  0  0
   56.6050   25.7549   44.6559 H   0  0  0  0  0  0  0  0  0  0  0  0
   58.4920   24.4453   45.6321 H   0  0  0  0  0  0  0  0  0  0  0  0
   60.0084   25.4963   47.3120 H   0  0  0  0  0  0  0  0  0  0  0  0
   58.0810   28.5680   49.6590 H   0  0  0  0  0  0  0  0  0  0  0  0
   59.8655   30.8230   48.9417 H   0  0  0  0  0  0  0  0  0  0  0  0
   58.1848   30.4641   48.3707 H   0  0  0  0  0  0  0  0  0  0  0  0
   59.0971   31.9256   50.7772 H   0  0  0  0  0  0  0  0  0  0  0  0
   57.4933   31.9249   49.9410 H   0  0  0  0  0  0  0  0  0  0  0  0
   59.4527   30.4476   52.5372 H   0  0  0  0  0  0  0  0  0  0  0  0
   58.3137   29.0405   52.7036 H   0  0  0  0  0  0  0  0  0  0  0  0
   60.6409   29.3388   50.9603 H   0  0  0  0  0  0  0  0  0  0  0  0
   59.6277   27.8843   51.3064 H   0  0  0  0  0  0  0  0  0  0  0  0
   57.7472   29.1775   47.0500 H   0  0  0  0  0  0  0  0  0  0  0  0
  1  2  2  0
  2  3  1  0
  3  4  1  0
  4  5  1  0
  5  6  1  0
  6  7  2  0
  7  8  1  0
  8  9  2  0
  9 10  1  0
 10 11  2  0
 11 12  1  0
  2 13  1  0
 13 14  1  0
 14 15  2  0
 15 16  1  0
 16 17  2  0
 17 18  1  0
 18 19  1  0
 19 20  2  0
 19 21  2  0
 19 22  1  0
 22 23  1  0
 23 24  1  0
 24 25  1  0
 25 26  1  0
 26 27  1  0
 18 28  2  0
 11  6  1  0
 28 14  1  0
 27 22  1  0
  3 29  1  0
  3 30  1  0
  4 31  1  0
  4 32  1  0
  7 33  1  0
  8 34  1  0
  9 35  1  0
 10 36  1  0
 15 37  1  0
 16 38  1  0
 17 39  1  0
 22 40  1  0
 23 41  1  0
 23 42  1  0
 24 43  1  0
 24 44  1  0
 26 45  1  0
 26 46  1  0
 27 47  1  0
 27 48  1  0
 28 49  1  0
M  CHG  2  13  -1  22   1
M  END
>  <UniqueID>  (92) 
87

>  <SMILES>  (92) 
O=C(CCSc1ccccc1Br)[N-]c1cccc(S(=O)(=O)[NH+]2CCOCC2)c1

>  <Energy>  (92) 
56.85939090581301

>  <Genealogy>  (92) 
O=C(CCSc1ccccc1Br)[N-]c1cccc(S(=O)(=O)[NH+]2CCOCC2)c1 (protonated)
O=C(CCSc1ccccc1Br)[N-]c1cccc(S(=O)(=O)[NH+]2CCOCC2)c1 (3D coordinates assigned)
O=C(CCSc1ccccc1Br)[N-]c1cccc(S(=O)(=O)[NH+]2CCOCC2)c1 (nonaromatic ring conformer: 56.85939090581301 kcal/mol)

>  <smiles>  (92) 
O=C(CCSc1ccccc1Br)Nc1cccc(S(=O)(=O)N2CCOCC2)c1

>  <score_type>  (92) 
oracle

>  <origin>  (92) 
adg

>  <m_score__min__energy>  (92) 
-10.699999999999999

>  <m_primary>  (92) 
energy

$$$$
92:0
     RDKit          3D

 48 50  0  0  0  0  0  0  0  0999 V2000
   59.2630   34.9660   47.0680 C   0  0  0  0  0  0  0  0  0  0  0  0
   59.6670   34.3130   48.3240 N   0  0  0  0  0  0  0  0  0  0  0  0
   61.1420   34.3430   48.4990 C   0  0  0  0  0  0  0  0  0  0  0  0
   61.7940   32.9960   48.1490 C   0  0  0  0  0  0  0  0  0  0  0  0
   61.2830   31.9110   49.0260 N   0  0  0  0  0  0  0  0  0  0  0  0
   61.5990   30.5560   48.4980 C   0  0  0  0  0  0  0  0  0  0  0  0
   60.5460   29.9780   47.5670 C   0  0  0  0  0  0  0  0  0  0  0  0
   60.1420   30.6890   46.4310 C   0  0  0  0  0  0  0  0  0  0  0  0
   59.1670   30.1760   45.5770 C   0  0  0  0  0  0  0  0  0  0  0  0
   58.5730   28.9160   45.8200 C   0  0  0  0  0  0  0  0  0  0  0  0
   59.0030   28.1800   46.9560 C   0  0  0  0  0  0  0  0  0  0  0  0
   59.9960   28.7110   47.8040 C   0  0  0  0  0  0  0  0  0  0  0  0
   58.4280   26.9250   47.2270 C   0  0  0  0  0  0  0  0  0  0  0  0
   58.8070   26.2630   48.2320 O   0  0  0  0  0  0  0  0  0  0  0  0
   57.4260   26.4160   46.3830 C   0  0  0  0  0  0  0  0  0  0  0  0
   56.7730   25.1000   46.6310 C   0  0  0  0  0  0  0  0  0  0  0  0
   55.5260   24.9620   46.5240 O   0  0  0  0  0  0  0  0  0  0  0  0
   57.5370   23.9940   46.9870 O   0  0  0  0  0  0  0  0  0  0  0  0
   57.0320   27.1770   45.2750 C   0  0  0  0  0  0  0  0  0  0  0  0
   57.6020   28.3890   44.9900 N   0  0  0  0  0  0  0  0  0  0  0  0
   57.1040   29.1000   43.7930 C   0  0  0  0  0  0  0  0  0  0  0  0
   55.9500   30.0390   44.1500 C   0  0  0  0  0  0  0  0  0  0  0  0
   55.1430   29.4510   45.1310 O   0  0  0  0  0  0  0  0  0  0  0  0
   59.8530   32.0790   49.4070 C   0  0  0  0  0  0  0  0  0  0  0  0
   59.0850   32.9530   48.4050 C   0  0  0  0  0  0  0  0  0  0  0  0
   58.6968   35.8811   47.2961 H   0  0  0  0  0  0  0  0  0  0  0  0
   60.1589   35.2250   46.4847 H   0  0  0  0  0  0  0  0  0  0  0  0
   58.6314   34.2799   46.4847 H   0  0  0  0  0  0  0  0  0  0  0  0
   61.5611   35.1207   47.8436 H   0  0  0  0  0  0  0  0  0  0  0  0
   61.3529   34.5562   49.5573 H   0  0  0  0  0  0  0  0  0  0  0  0
   61.5670   32.7483   47.1016 H   0  0  0  0  0  0  0  0  0  0  0  0
   62.8802   33.0840   48.2986 H   0  0  0  0  0  0  0  0  0  0  0  0
   61.8290   31.9860   49.9180 H   0  0  0  0  0  0  0  0  0  0  0  0
   62.5489   30.6157   47.9465 H   0  0  0  0  0  0  0  0  0  0  0  0
   61.6468   29.8856   49.3688 H   0  0  0  0  0  0  0  0  0  0  0  0
   60.5995   31.6645   46.2095 H   0  0  0  0  0  0  0  0  0  0  0  0
   58.8545   30.7611   44.6995 H   0  0  0  0  0  0  0  0  0  0  0  0
   60.3445   28.1218   48.6650 H   0  0  0  0  0  0  0  0  0  0  0  0
   56.2419   26.7898   44.6148 H   0  0  0  0  0  0  0  0  0  0  0  0
   57.9248   29.6889   43.3577 H   0  0  0  0  0  0  0  0  0  0  0  0
   56.7375   28.3549   43.0715 H   0  0  0  0  0  0  0  0  0  0  0  0
   56.3562   30.9871   44.5321 H   0  0  0  0  0  0  0  0  0  0  0  0
   55.3461   30.2287   43.2504 H   0  0  0  0  0  0  0  0  0  0  0  0
   55.5330   29.7190   46.0040 H   0  0  0  0  0  0  0  0  0  0  0  0
   59.3786   31.0874   49.4487 H   0  0  0  0  0  0  0  0  0  0  0  0
   59.8208   32.5795   50.3860 H   0  0  0  0  0  0  0  0  0  0  0  0
   59.1302   32.4836   47.4112 H   0  0  0  0  0  0  0  0  0  0  0  0
   58.0428   33.0399   48.7460 H   0  0  0  0  0  0  0  0  0  0  0  0
  1  2  1  0
  2  3  1  0
  3  4  1  0
  4  5  1  0
  5  6  1  0
  6  7  1  0
  7  8  2  0
  8  9  1  0
  9 10  2  0
 10 11  1  0
 11 12  2  0
 11 13  1  0
 13 14  2  0
 13 15  1  0
 15 16  1  0
 16 17  2  0
 16 18  1  0
 15 19  2  0
 19 20  1  0
 20 21  1  0
 21 22  1  0
 22 23  1  0
  5 24  1  0
 24 25  1  0
 25  2  1  0
 12  7  1  0
 20 10  1  0
  1 26  1  0
  1 27  1  0
  1 28  1  0
  3 29  1  0
  3 30  1  0
  4 31  1  0
  4 32  1  0
  5 33  1  0
  6 34  1  0
  6 35  1  0
  8 36  1  0
  9 37  1  0
 12 38  1  0
 19 39  1  0
 21 40  1  0
 21 41  1  0
 22 42  1  0
 22 43  1  0
 23 44  1  0
 24 45  1  0
 24 46  1  0
 25 47  1  0
 25 48  1  0
M  CHG  2   5   1  18  -1
M  END
>  <UniqueID>  (93) 
88

>  <SMILES>  (93) 
CN1CC[NH+](Cc2ccc3c(c2)c(=O)c(C(=O)[O-])cn3CCO)CC1

>  <Energy>  (93) 
73.95751560856691

>  <Genealogy>  (93) 
CN1CC[NH+](Cc2ccc3c(c2)c(=O)c(C(=O)[O-])cn3CCO)CC1 (protonated)
CN1CC[NH+](Cc2ccc3c(c2)c(=O)c(C(=O)[O-])cn3CCO)CC1 (3D coordinates assigned)
CN1CC[NH+](Cc2ccc3c(c2)c(=O)c(C(=O)[O-])cn3CCO)CC1 (nonaromatic ring conformer: 73.95751560856691 kcal/mol)

>  <smiles>  (93) 
CN1CCN(Cc2ccc3c(c2)c(=O)c(C(=O)O)cn3CCO)CC1

>  <score_type>  (93) 
oracle

>  <origin>  (93) 
adg

>  <m_score__min__energy>  (93) 
-8.1699999999999999

>  <m_primary>  (93) 
energy

$$$$
93:0
     RDKit          3D

 42 44  0  0  0  0  0  0  0  0999 V2000
   54.7700   27.4610   46.2870 H   0  0  0  0  0  0  0  0  0  0  0  0
   54.7740   26.4810   46.0320 O   0  0  0  0  0  0  0  0  0  0  0  0
   55.9630   25.7990   45.7680 C   0  0  0  0  0  0  0  0  0  0  0  0
   55.9240   24.4590   45.3560 C   0  0  0  0  0  0  0  0  0  0  0  0
   54.9556   23.9521   45.2323 H   0  0  0  0  0  0  0  0  0  0  0  0
   57.1100   23.7650   45.1020 C   0  0  0  0  0  0  0  0  0  0  0  0
   57.0737   22.7151   44.7759 H   0  0  0  0  0  0  0  0  0  0  0  0
   58.3410   24.4040   45.2620 C   0  0  0  0  0  0  0  0  0  0  0  0
   59.2742   23.8557   45.0658 H   0  0  0  0  0  0  0  0  0  0  0  0
   58.3890   25.7390   45.6710 C   0  0  0  0  0  0  0  0  0  0  0  0
   59.3620   26.2353   45.8016 H   0  0  0  0  0  0  0  0  0  0  0  0
   57.2030   26.4530   45.9170 C   0  0  0  0  0  0  0  0  0  0  0  0
   57.2660   27.8930   46.3630 C   0  0  0  0  0  0  0  0  0  0  0  0
   58.2957   28.2615   46.2454 H   0  0  0  0  0  0  0  0  0  0  0  0
   56.9558   27.9480   47.4169 H   0  0  0  0  0  0  0  0  0  0  0  0
   56.3640   28.7280   45.5660 N   0  0  0  0  0  0  0  0  0  0  0  0
   56.6930   29.6840   44.7420 C   0  0  0  0  0  0  0  0  0  0  0  0
   57.3830   30.7500   45.2250 N   0  0  0  0  0  0  0  0  0  0  0  0
   57.7630   31.7940   44.4370 C   0  0  0  0  0  0  0  0  0  0  0  0
   58.5160   32.9250   45.0360 C   0  0  0  0  0  0  0  0  0  0  0  0
   58.3250   34.2490   44.5940 C   0  0  0  0  0  0  0  0  0  0  0  0
   57.6106   34.4573   43.7839 H   0  0  0  0  0  0  0  0  0  0  0  0
   59.0370   35.2980   45.1780 C   0  0  0  0  0  0  0  0  0  0  0  0
   58.8845   36.3279   44.8229 H   0  0  0  0  0  0  0  0  0  0  0  0
   59.9410   35.0460   46.2100 C   0  0  0  0  0  0  0  0  0  0  0  0
   60.5016   35.8781   46.6609 H   0  0  0  0  0  0  0  0  0  0  0  0
   60.1390   33.7420   46.6750 C   0  0  0  0  0  0  0  0  0  0  0  0
   61.0720   33.5340   47.7450 N   0  0  0  0  0  0  0  0  0  0  0  0
   62.7980   33.4670   47.5910 S   0  0  0  0  0  0  0  0  0  0  0  0
   63.2350   34.2110   46.3600 O   0  0  0  0  0  0  0  0  0  0  0  0
   63.4150   34.1210   48.7940 O   0  0  0  0  0  0  0  0  0  0  0  0
   63.3440   31.7730   47.5200 C   0  0  0  0  0  0  0  0  0  0  0  0
   63.4691   31.3850   48.5417 H   0  0  0  0  0  0  0  0  0  0  0  0
   62.5952   31.1684   46.9873 H   0  0  0  0  0  0  0  0  0  0  0  0
   64.3049   31.7195   46.9873 H   0  0  0  0  0  0  0  0  0  0  0  0
   59.4240   32.6840   46.0840 C   0  0  0  0  0  0  0  0  0  0  0  0
   59.5765   31.6563   46.4454 H   0  0  0  0  0  0  0  0  0  0  0  0
   57.4370   31.7520   43.0710 C   0  0  0  0  0  0  0  0  0  0  0  0
   57.7340   32.5758   42.4054 H   0  0  0  0  0  0  0  0  0  0  0  0
   56.7530   30.6880   42.5780 N   0  0  0  0  0  0  0  0  0  0  0  0
   56.3690   29.6580   43.3740 C   0  0  0  0  0  0  0  0  0  0  0  0
   55.8091   28.8101   42.9526 H   0  0  0  0  0  0  0  0  0  0  0  0
  1  2  1  0
  2  3  1  0
  3  4  2  0
  4  5  1  0
  4  6  1  0
  6  7  1  0
  6  8  2  0
  8  9  1  0
  8 10  1  0
 10 11  1  0
 10 12  2  0
 12 13  1  0
 13 14  1  0
 13 15  1  0
 13 16  1  0
 16 17  2  0
 17 18  1  0
 18 19  1  0
 19 20  1  0
 20 21  2  0
 21 22  1  0
 21 23  1  0
 23 24  1  0
 23 25  2  0
 25 26  1  0
 25 27  1  0
 27 28  1  0
 28 29  1  0
 29 30  2  0
 29 31  2  0
 29 32  1  0
 32 33  1  0
 32 34  1  0
 32 35  1  0
 27 36  2  0
 36 37  1  0
 19 38  2  0
 38 39  1  0
 38 40  1  0
 40 41  2  0
 41 42  1  0
 12  3  1  0
 41 17  1  0
 36 20  1  0
M  CHG  2  18  -1  28  -1
M  END
>  <UniqueID>  (94) 
89

>  <SMILES>  (94) 
CS(=O)(=O)[N-]c1cccc(-c2cnc/c(=N\Cc3ccccc3O)[n-]2)c1

>  <Energy>  (94) 
51.01760643373085

>  <Genealogy>  (94) 
CS(=O)(=O)[N-]c1cccc(-c2cncc(=NCc3ccccc3O)[n-]2)c1 (protonated)
CS(=O)(=O)[N-]c1cccc(-c2cnc/c(=N\Cc3ccccc3O)[n-]2)c1 (cis-trans isomerization)
CS(=O)(=O)[N-]c1cccc(-c2cnc/c(=N\Cc3ccccc3O)[n-]2)c1 (3D coordinates assigned)
CS(=O)(=O)[N-]c1cccc(-c2cnc/c(=N\Cc3ccccc3O)[n-]2)c1 (optimized conformer: 51.01760643373085 kcal/mol)

>  <smiles>  (94) 
CS(=O)(=O)Nc1cccc(-c2cncc(=NCc3ccccc3O)[nH]2)c1

>  <score_type>  (94) 
oracle

>  <origin>  (94) 
adg

>  <m_score__min__energy>  (94) 
-12.5

>  <m_primary>  (94) 
energy

$$$$
94:0
     RDKit          3D

 63 66  0  0  0  0  0  0  0  0999 V2000
   67.8360   33.1430   50.5010 C   0  0  0  0  0  0  0  0  0  0  0  0
   67.0330   32.0140   50.8270 O   0  0  0  0  0  0  0  0  0  0  0  0
   65.6540   31.9160   50.5770 C   0  0  0  0  0  0  0  0  0  0  0  0
   64.9810   32.8220   49.7350 C   0  0  0  0  0  0  0  0  0  0  0  0
   63.6030   32.6960   49.5080 C   0  0  0  0  0  0  0  0  0  0  0  0
   62.7660   33.8540   48.4680 S   0  0  0  0  0  0  0  0  0  0  0  0
   63.7670   34.5310   47.5740 O   0  0  0  0  0  0  0  0  0  0  0  0
   62.1190   34.9090   49.3230 O   0  0  0  0  0  0  0  0  0  0  0  0
   61.5440   33.0760   47.4930 N   0  0  0  0  0  0  0  0  0  0  0  0
   60.3610   32.7490   48.3180 C   0  0  0  0  0  0  0  0  0  0  0  0
   59.1300   32.4820   47.4510 C   0  0  0  0  0  0  0  0  0  0  0  0
   58.7300   33.7500   46.6650 C   0  0  0  0  0  0  0  0  0  0  0  0
   57.9770   33.3650   45.4180 C   0  0  0  0  0  0  0  0  0  0  0  0
   57.0920   34.1350   44.9580 O   0  0  0  0  0  0  0  0  0  0  0  0
   58.3680   32.1870   44.7010 N   0  0  0  0  0  0  0  0  0  0  0  0
   57.9550   30.8370   44.9620 C   0  0  0  0  0  0  0  0  0  0  0  0
   58.8040   29.8960   45.5790 C   0  0  0  0  0  0  0  0  0  0  0  0
   58.3550   28.5970   45.8290 C   0  0  0  0  0  0  0  0  0  0  0  0
   57.0580   28.2110   45.4570 C   0  0  0  0  0  0  0  0  0  0  0  0
   56.5630   26.8490   45.7520 C   0  0  0  0  0  0  0  0  0  0  0  0
   55.3340   26.6750   45.9760 O   0  0  0  0  0  0  0  0  0  0  0  0
   57.4580   25.7210   45.7880 N   0  0  0  0  0  0  0  0  0  0  0  0
   58.7060   25.8050   46.5530 C   0  0  0  0  0  0  0  0  0  0  0  0
   59.7270   24.8240   45.9740 C   0  0  0  0  0  0  0  0  0  0  0  0
   59.1840   23.5190   45.9170 O   0  0  0  0  0  0  0  0  0  0  0  0
   58.1010   23.4880   45.0040 C   0  0  0  0  0  0  0  0  0  0  0  0
   56.9490   24.3780   45.4870 C   0  0  0  0  0  0  0  0  0  0  0  0
   56.2330   29.1340   44.7910 C   0  0  0  0  0  0  0  0  0  0  0  0
   56.6800   30.4360   44.5520 C   0  0  0  0  0  0  0  0  0  0  0  0
   59.9460   34.6560   46.3480 C   0  0  0  0  0  0  0  0  0  0  0  0
   61.2510   33.8470   46.2580 C   0  0  0  0  0  0  0  0  0  0  0  0
   62.8950   31.6530   50.1170 C   0  0  0  0  0  0  0  0  0  0  0  0
   63.5530   30.7500   50.9520 C   0  0  0  0  0  0  0  0  0  0  0  0
   64.9260   30.8790   51.1880 C   0  0  0  0  0  0  0  0  0  0  0  0
   65.5520   29.9660   52.0360 O   0  0  0  0  0  0  0  0  0  0  0  0
   68.1805   33.6274   51.4265 H   0  0  0  0  0  0  0  0  0  0  0  0
   68.7059   32.8165   49.9123 H   0  0  0  0  0  0  0  0  0  0  0  0
   67.2421   33.8576   49.9123 H   0  0  0  0  0  0  0  0  0  0  0  0
   65.5411   33.6357   49.2511 H   0  0  0  0  0  0  0  0  0  0  0  0
   60.5789   31.8515   48.9155 H   0  0  0  0  0  0  0  0  0  0  0  0
   60.1452   33.6094   48.9684 H   0  0  0  0  0  0  0  0  0  0  0  0
   59.3572   31.6735   46.7406 H   0  0  0  0  0  0  0  0  0  0  0  0
   58.2936   32.1924   48.1042 H   0  0  0  0  0  0  0  0  0  0  0  0
   58.0656   34.3503   47.3040 H   0  0  0  0  0  0  0  0  0  0  0  0
   59.8257   30.1861   45.8652 H   0  0  0  0  0  0  0  0  0  0  0  0
   59.0216   27.8728   46.3201 H   0  0  0  0  0  0  0  0  0  0  0  0
   59.1052   26.8282   46.4918 H   0  0  0  0  0  0  0  0  0  0  0  0
   58.5088   25.5502   47.6048 H   0  0  0  0  0  0  0  0  0  0  0  0
   60.0028   25.1459   44.9589 H   0  0  0  0  0  0  0  0  0  0  0  0
   60.6153   24.8114   46.6226 H   0  0  0  0  0  0  0  0  0  0  0  0
   58.4467   23.8476   44.0236 H   0  0  0  0  0  0  0  0  0  0  0  0
   57.7361   22.4530   44.9282 H   0  0  0  0  0  0  0  0  0  0  0  0
   56.1830   24.4445   44.7003 H   0  0  0  0  0  0  0  0  0  0  0  0
   56.5068   23.9426   46.3953 H   0  0  0  0  0  0  0  0  0  0  0  0
   55.2303   28.8296   44.4563 H   0  0  0  0  0  0  0  0  0  0  0  0
   56.0229   31.1519   44.0366 H   0  0  0  0  0  0  0  0  0  0  0  0
   59.7729   35.1612   45.3863 H   0  0  0  0  0  0  0  0  0  0  0  0
   60.0512   35.3861   47.1640 H   0  0  0  0  0  0  0  0  0  0  0  0
   61.1693   33.1430   45.4167 H   0  0  0  0  0  0  0  0  0  0  0  0
   62.0728   34.5643   46.1160 H   0  0  0  0  0  0  0  0  0  0  0  0
   61.8153   31.5452   49.9363 H   0  0  0  0  0  0  0  0  0  0  0  0
   62.9900   29.9330   51.4270 H   0  0  0  0  0  0  0  0  0  0  0  0
   66.5440   30.0120   52.2450 H   0  0  0  0  0  0  0  0  0  0  0  0
  1  2  1  0
  2  3  1  0
  3  4  2  0
  4  5  1  0
  5  6  1  0
  6  7  2  0
  6  8  2  0
  6  9  1  0
  9 10  1  0
 10 11  1  0
 11 12  1  0
 12 13  1  0
 13 14  2  0
 13 15  1  0
 15 16  1  0
 16 17  2  0
 17 18  1  0
 18 19  2  0
 19 20  1  0
 20 21  2  0
 20 22  1  0
 22 23  1  0
 23 24  1  0
 24 25  1  0
 25 26  1  0
 26 27  1  0
 19 28  1  0
 28 29  2  0
 12 30  1  0
 30 31  1  0
  5 32  2  0
 32 33  1  0
 33 34  2  0
 34 35  1  0
 34  3  1  0
 31  9  1  0
 29 16  1  0
 27 22  1  0
  1 36  1  0
  1 37  1  0
  1 38  1  0
  4 39  1  0
 10 40  1  0
 10 41  1  0
 11 42  1  0
 11 43  1  0
 12 44  1  0
 17 45  1  0
 18 46  1  0
 23 47  1  0
 23 48  1  0
 24 49  1  0
 24 50  1  0
 26 51  1  0
 26 52  1  0
 27 53  1  0
 27 54  1  0
 28 55  1  0
 29 56  1  0
 30 57  1  0
 30 58  1  0
 31 59  1  0
 31 60  1  0
 32 61  1  0
 33 62  1  0
 35 63  1  0
M  CHG  1  15  -1
M  END
>  <UniqueID>  (95) 
90

>  <SMILES>  (95) 
COc1cc(S(=O)(=O)N2CCC(C(=O)[N-]c3ccc(C(=O)N4CCOCC4)cc3)CC2)ccc1O

>  <Energy>  (95) 
79.54908883670043

>  <Genealogy>  (95) 
COc1cc(S(=O)(=O)N2CCC(C(=O)[N-]c3ccc(C(=O)N4CCOCC4)cc3)CC2)ccc1O (protonated)
COc1cc(S(=O)(=O)N2CCC(C(=O)[N-]c3ccc(C(=O)N4CCOCC4)cc3)CC2)ccc1O (3D coordinates assigned)
COc1cc(S(=O)(=O)N2CCC(C(=O)[N-]c3ccc(C(=O)N4CCOCC4)cc3)CC2)ccc1O (nonaromatic ring conformer: 79.54908883670043 kcal/mol)

>  <smiles>  (95) 
COc1cc(S(=O)(=O)N2CCC(C(=O)Nc3ccc(C(=O)N4CCOCC4)cc3)CC2)ccc1O

>  <score_type>  (95) 
oracle

>  <origin>  (95) 
adg

>  <m_score__min__energy>  (95) 
-11.41

>  <m_primary>  (95) 
energy

$$$$
95:0
     RDKit          3D

 39 42  0  0  0  0  0  0  0  0999 V2000
   53.3429   24.4910   46.1250 H   0  0  0  0  0  0  0  0  0  0  0  0
   54.3190   24.5030   45.6180 C   0  0  0  0  0  0  0  0  0  0  0  0
   55.2690   25.3990   45.9950 N   0  0  0  0  0  0  0  0  0  0  0  0
   56.4920   25.4520   45.3970 C   0  0  0  0  0  0  0  0  0  0  0  0
   57.4790   26.4490   45.8520 C   0  0  0  0  0  0  0  0  0  0  0  0
   58.7040   26.1460   45.8560 O   0  0  0  0  0  0  0  0  0  0  0  0
   57.0440   27.7500   46.2840 N   0  0  0  0  0  0  0  0  0  0  0  0
   56.9570   28.8150   45.5460 C   0  0  0  0  0  0  0  0  0  0  0  0
   55.8380   29.2010   44.8900 N   0  0  0  0  0  0  0  0  0  0  0  0
   56.0400   30.3510   44.1950 C   0  0  0  0  0  0  0  0  0  0  0  0
   55.2514   30.8320   43.5977 H   0  0  0  0  0  0  0  0  0  0  0  0
   57.3240   30.8690   44.3010 C   0  0  0  0  0  0  0  0  0  0  0  0
   57.9180   32.3600   43.5030 S   0  0  0  0  0  0  0  0  0  0  0  0
   57.4080   33.4760   44.8560 C   0  0  0  0  0  0  0  0  0  0  0  0
   57.3426   34.5041   44.4703 H   0  0  0  0  0  0  0  0  0  0  0  0
   56.4294   33.1466   45.2351 H   0  0  0  0  0  0  0  0  0  0  0  0
   58.3990   33.4350   45.9820 C   0  0  0  0  0  0  0  0  0  0  0  0
   59.7120   33.6530   45.7250 N   0  0  0  0  0  0  0  0  0  0  0  0
   60.6470   33.5920   46.7080 C   0  0  0  0  0  0  0  0  0  0  0  0
   61.9890   33.8280   46.3880 C   0  0  0  0  0  0  0  0  0  0  0  0
   62.2781   34.0626   45.3529 H   0  0  0  0  0  0  0  0  0  0  0  0
   62.9550   33.7640   47.3870 C   0  0  0  0  0  0  0  0  0  0  0  0
   64.0122   33.9482   47.1452 H   0  0  0  0  0  0  0  0  0  0  0  0
   62.5790   33.4660   48.6940 C   0  0  0  0  0  0  0  0  0  0  0  0
   63.3368   33.4143   49.4896 H   0  0  0  0  0  0  0  0  0  0  0  0
   61.2330   33.2330   48.9890 C   0  0  0  0  0  0  0  0  0  0  0  0
   60.9350   32.9967   50.0211 H   0  0  0  0  0  0  0  0  0  0  0  0
   60.2790   33.2960   48.0040 N   0  0  0  0  0  0  0  0  0  0  0  0
   58.9560   33.0650   48.2920 C   0  0  0  0  0  0  0  0  0  0  0  0
   58.5850   32.7870   49.4660 O   0  0  0  0  0  0  0  0  0  0  0  0
   57.9950   33.1320   47.2830 C   0  0  0  0  0  0  0  0  0  0  0  0
   56.9343   32.9487   47.5095 H   0  0  0  0  0  0  0  0  0  0  0  0
   58.2410   29.8730   45.2970 S   0  0  0  0  0  0  0  0  0  0  0  0
   56.7880   24.5550   44.3550 C   0  0  0  0  0  0  0  0  0  0  0  0
   57.7697   24.5841   43.8596 H   0  0  0  0  0  0  0  0  0  0  0  0
   55.8240   23.6270   43.9550 C   0  0  0  0  0  0  0  0  0  0  0  0
   56.0445   22.9198   43.1418 H   0  0  0  0  0  0  0  0  0  0  0  0
   54.5810   23.5980   44.5880 C   0  0  0  0  0  0  0  0  0  0  0  0
   53.8162   22.8703   44.2789 H   0  0  0  0  0  0  0  0  0  0  0  0
  1  2  1  0
  2  3  2  0
  3  4  1  0
  4  5  1  0
  5  6  2  0
  5  7  1  0
  7  8  2  0
  8  9  1  0
  9 10  1  0
 10 11  1  0
 10 12  2  0
 12 13  1  0
 13 14  1  0
 14 15  1  0
 14 16  1  0
 14 17  1  0
 17 18  1  0
 18 19  2  0
 19 20  1  0
 20 21  1  0
 20 22  2  0
 22 23  1  0
 22 24  1  0
 24 25  1  0
 24 26  2  0
 26 27  1  0
 26 28  1  0
 28 29  1  0
 29 30  2  0
 29 31  1  0
 31 32  1  0
 12 33  1  0
  4 34  2  0
 34 35  1  0
 34 36  1  0
 36 37  1  0
 36 38  2  0
 38 39  1  0
 38  2  1  0
 33  8  1  0
 31 17  2  0
 28 19  1  0
M  CHG  1   9  -1
M  END
>  <UniqueID>  (96) 
91

>  <SMILES>  (96) 
O=C(/N=c1\[n-]cc(SCc2cc(=O)n3ccccc3n2)s1)c1ccccn1

>  <Energy>  (96) 
77.22449299491507

>  <Genealogy>  (96) 
O=C(N=c1[n-]cc(SCc2cc(=O)n3ccccc3n2)s1)c1ccccn1 (protonated)
O=C(/N=c1\[n-]cc(SCc2cc(=O)n3ccccc3n2)s1)c1ccccn1 (cis-trans isomerization)
O=C(/N=c1\[n-]cc(SCc2cc(=O)n3ccccc3n2)s1)c1ccccn1 (3D coordinates assigned)
O=C(/N=c1\[n-]cc(SCc2cc(=O)n3ccccc3n2)s1)c1ccccn1 (optimized conformer: 77.22449299491507 kcal/mol)

>  <smiles>  (96) 
O=C(N=c1[nH]cc(SCc2cc(=O)n3ccccc3n2)s1)c1ccccn1

>  <score_type>  (96) 
oracle

>  <origin>  (96) 
adg

>  <m_score__min__energy>  (96) 
-10.890000000000001

>  <m_primary>  (96) 
energy

$$$$
