0:0
     RDKit          3D

 24 25  0  0  0  0  0  0  0  0999 V2000
   57.6800   25.5950   44.6850 C   0  0  0  0  0  0  0  0  0  0  0  0
   57.5360   27.0460   44.6990 N   0  0  0  0  0  0  0  0  0  0  0  0
   58.6170   27.9070   45.0810 C   0  0  0  0  0  0  0  0  0  0  0  0
   59.7710   27.4300   45.2510 O   0  0  0  0  0  0  0  0  0  0  0  0
   58.4180   29.3600   45.2100 C   0  0  0  0  0  0  0  0  0  0  0  0
   59.3230   30.1610   45.8180 N   0  0  0  0  0  0  0  0  0  0  0  0
   58.8710   31.3980   45.7180 N   0  0  0  0  0  0  0  0  0  0  0  0
   59.4760   32.5100   46.2090 C   0  0  0  0  0  0  0  0  0  0  0  0
   58.8380   33.7460   46.0360 C   0  0  0  0  0  0  0  0  0  0  0  0
   59.6400   35.3440   46.7070 Br  0  0  0  0  0  0  0  0  0  0  0  0
   57.5990   33.7990   45.3690 C   0  0  0  0  0  0  0  0  0  0  0  0
   57.0080   32.6250   44.8780 C   0  0  0  0  0  0  0  0  0  0  0  0
   57.6960   31.4220   45.0680 C   0  0  0  0  0  0  0  0  0  0  0  0
   57.3520   30.1260   44.7210 C   0  0  0  0  0  0  0  0  0  0  0  0
   56.0910   29.6600   44.1090 C   0  0  0  0  0  0  0  0  0  0  0  0
   55.8450   29.8990   42.8980 O   0  0  0  0  0  0  0  0  0  0  0  0
   55.1490   28.9800   44.8690 O   0  0  0  0  0  0  0  0  0  0  0  0
   57.7172   25.2202   45.7185 H   0  0  0  0  0  0  0  0  0  0  0  0
   56.8220   25.1464   44.1630 H   0  0  0  0  0  0  0  0  0  0  0  0
   58.6095   25.3238   44.1630 H   0  0  0  0  0  0  0  0  0  0  0  0
   56.6300   27.4600   44.3830 H   0  0  0  0  0  0  0  0  0  0  0  0
   60.4427   32.4426   46.7295 H   0  0  0  0  0  0  0  0  0  0  0  0
   57.0920   34.7655   45.2322 H   0  0  0  0  0  0  0  0  0  0  0  0
   56.0371   32.6498   44.3615 H   0  0  0  0  0  0  0  0  0  0  0  0
  1  2  1  0
  2  3  1  0
  3  4  2  0
  3  5  1  0
  5  6  2  0
  6  7  1  0
  7  8  1  0
  8  9  2  0
  9 10  1  0
  9 11  1  0
 11 12  2  0
 12 13  1  0
 13 14  2  0
 14 15  1  0
 15 16  2  0
 15 17  1  0
 14  5  1  0
 13  7  1  0
  1 18  1  0
  1 19  1  0
  1 20  1  0
  2 21  1  0
  8 22  1  0
 11 23  1  0
 12 24  1  0
M  CHG  1  17  -1
M  END
>  <UniqueID>  (1) 
1

>  <SMILES>  (1) 
CNC(=O)c1nn2cc(Br)ccc2c1C(=O)[O-]

>  <Energy>  (1) 
62.373328309866295

>  <Genealogy>  (1) 
CNC(=O)c1nn2cc(Br)ccc2c1C(=O)[O-] (protonated)
CNC(=O)c1nn2cc(Br)ccc2c1C(=O)[O-] (3D coordinates assigned)
CNC(=O)c1nn2cc(Br)ccc2c1C(=O)[O-] (optimized conformer: 62.373328309866295 kcal/mol)

>  <smiles>  (1) 
CNC(=O)c1nn2cc(Br)ccc2c1C(=O)O

>  <score_type>  (1) 
oracle

>  <origin>  (1) 
adg

>  <m_score__min__energy>  (1) 
-8.8200000000000003

>  <m_primary>  (1) 
energy

$$$$
1:0
     RDKit          3D

 25 25  0  0  0  0  0  0  0  0999 V2000
   59.6760   28.9630   48.5900 C   0  0  0  0  0  0  0  0  0  0  0  0
   60.3860   29.0790   47.4650 C   0  0  0  0  0  0  0  0  0  0  0  0
   60.2540   28.0880   46.3400 C   0  0  0  0  0  0  0  0  0  0  0  0
   58.8570   27.6220   46.2170 N   0  0  0  0  0  0  0  0  0  0  0  0
   58.5200   26.3650   46.6360 C   0  0  0  0  0  0  0  0  0  0  0  0
   59.3890   25.5870   47.1150 O   0  0  0  0  0  0  0  0  0  0  0  0
   57.2420   25.9380   46.5420 N   0  0  0  0  0  0  0  0  0  0  0  0
   56.2780   26.7420   46.0410 C   0  0  0  0  0  0  0  0  0  0  0  0
   55.0960   26.3120   45.9660 O   0  0  0  0  0  0  0  0  0  0  0  0
   56.5780   28.0040   45.6250 N   0  0  0  0  0  0  0  0  0  0  0  0
   55.5220   28.7640   45.1300 O   0  0  0  0  0  0  0  0  0  0  0  0
   55.6330   29.8550   44.2170 C   0  0  0  0  0  0  0  0  0  0  0  0
   56.2770   29.3680   42.9280 C   0  0  0  0  0  0  0  0  0  0  0  0
   57.8780   28.4460   45.7160 C   0  0  0  0  0  0  0  0  0  0  0  0
   58.1820   29.6110   45.3420 O   0  0  0  0  0  0  0  0  0  0  0  0
   59.7950   29.7039   49.3943 H   0  0  0  0  0  0  0  0  0  0  0  0
   58.9722   28.1266   48.7124 H   0  0  0  0  0  0  0  0  0  0  0  0
   61.0857   29.9210   47.3577 H   0  0  0  0  0  0  0  0  0  0  0  0
   60.5591   28.5677   45.3983 H   0  0  0  0  0  0  0  0  0  0  0  0
   60.8985   27.2225   46.5531 H   0  0  0  0  0  0  0  0  0  0  0  0
   54.6318   30.2552   43.9992 H   0  0  0  0  0  0  0  0  0  0  0  0
   56.2531   30.6468   44.6625 H   0  0  0  0  0  0  0  0  0  0  0  0
   57.1333   28.7205   43.1678 H   0  0  0  0  0  0  0  0  0  0  0  0
   55.5400   28.7993   42.3420 H   0  0  0  0  0  0  0  0  0  0  0  0
   56.6235   30.2320   42.3420 H   0  0  0  0  0  0  0  0  0  0  0  0
  1  2  2  0
  2  3  1  0
  3  4  1  0
  4  5  1  0
  5  6  2  0
  5  7  1  0
  7  8  1  0
  8  9  2  0
  8 10  1  0
 10 11  1  0
 11 12  1  0
 12 13  1  0
 10 14  1  0
 14 15  2  0
 14  4  1  0
  1 16  1  0
  1 17  1  0
  2 18  1  0
  3 19  1  0
  3 20  1  0
 12 21  1  0
 12 22  1  0
 13 23  1  0
 13 24  1  0
 13 25  1  0
M  CHG  1   7  -1
M  END
>  <UniqueID>  (2) 
2

>  <SMILES>  (2) 
C=CCn1c(=O)[n-]c(=O)n(OCC)c1=O

>  <Energy>  (2) 
25.802964970173665

>  <Genealogy>  (2) 
C=CCn1c(=O)[n-]c(=O)n(OCC)c1=O (protonated)
C=CCn1c(=O)[n-]c(=O)n(OCC)c1=O (3D coordinates assigned)
C=CCn1c(=O)[n-]c(=O)n(OCC)c1=O (optimized conformer: 25.802964970173665 kcal/mol)

>  <smiles>  (2) 
C=CCn1c(=O)[nH]c(=O)n(OCC)c1=O

>  <score_type>  (2) 
oracle

>  <origin>  (2) 
adg

>  <m_score__min__energy>  (2) 
-6.6900000000000004

>  <m_primary>  (2) 
energy

$$$$
2:0
     RDKit          3D

 54 57  0  0  0  0  0  0  0  0999 V2000
   59.4380   29.1130   50.5990 O   0  0  0  0  0  0  0  0  0  0  0  0
   59.2820   29.5540   49.4290 C   0  0  0  0  0  0  0  0  0  0  0  0
   59.0230   30.9570   49.2190 N   0  0  0  0  0  0  0  0  0  0  0  0
   58.8310   31.8990   50.2870 C   0  0  0  0  0  0  0  0  0  0  0  0
   57.7700   31.7680   51.2000 C   0  0  0  0  0  0  0  0  0  0  0  0
   57.6250   32.6830   52.2480 C   0  0  0  0  0  0  0  0  0  0  0  0
   58.5440   33.7260   52.4000 C   0  0  0  0  0  0  0  0  0  0  0  0
   58.4040   34.6090   53.4200 F   0  0  0  0  0  0  0  0  0  0  0  0
   59.6140   33.8490   51.5090 C   0  0  0  0  0  0  0  0  0  0  0  0
   59.7620   32.9350   50.4610 C   0  0  0  0  0  0  0  0  0  0  0  0
   59.3480   28.6020   48.2900 C   0  0  0  0  0  0  0  0  0  0  0  0
   60.5740   28.0040   47.9500 C   0  0  0  0  0  0  0  0  0  0  0  0
   60.6440   27.0700   46.9140 C   0  0  0  0  0  0  0  0  0  0  0  0
   59.4930   26.7150   46.2090 C   0  0  0  0  0  0  0  0  0  0  0  0
   58.2630   27.3000   46.5320 C   0  0  0  0  0  0  0  0  0  0  0  0
   56.7890   26.8080   45.6960 S   0  0  0  0  0  0  0  0  0  0  0  0
   57.1230   25.9880   44.4830 O   0  0  0  0  0  0  0  0  0  0  0  0
   55.9450   25.9700   46.6150 O   0  0  0  0  0  0  0  0  0  0  0  0
   55.8900   28.2220   45.2510 N   0  0  0  0  0  0  0  0  0  0  0  0
   56.4980   29.3890   44.6880 C   0  0  0  0  0  0  0  0  0  0  0  0
   56.4280   29.6640   43.3130 C   0  0  0  0  0  0  0  0  0  0  0  0
   57.0960   30.7690   42.7820 C   0  0  0  0  0  0  0  0  0  0  0  0
   57.8360   31.6080   43.6190 C   0  0  0  0  0  0  0  0  0  0  0  0
   57.8910   31.3560   44.9960 C   0  0  0  0  0  0  0  0  0  0  0  0
   58.9080   32.3650   46.0180 S   0  0  0  0  0  0  0  0  0  0  0  0
   59.4040   33.5320   45.2130 O   0  0  0  0  0  0  0  0  0  0  0  0
   58.1410   32.8870   47.2010 O   0  0  0  0  0  0  0  0  0  0  0  0
   60.2620   31.4330   46.5700 N   0  0  0  0  0  0  0  0  0  0  0  0
   61.4230   31.9700   47.2210 C   0  0  0  0  0  0  0  0  0  0  0  0
   61.9780   33.2110   46.8580 C   0  0  0  0  0  0  0  0  0  0  0  0
   63.1080   33.6990   47.5210 C   0  0  0  0  0  0  0  0  0  0  0  0
   63.6950   32.9530   48.5470 C   0  0  0  0  0  0  0  0  0  0  0  0
   64.8210   33.4360   49.2030 O   0  0  0  0  0  0  0  0  0  0  0  0
   63.1490   31.7180   48.9110 C   0  0  0  0  0  0  0  0  0  0  0  0
   62.0200   31.2280   48.2480 C   0  0  0  0  0  0  0  0  0  0  0  0
   57.2000   30.2600   45.5300 C   0  0  0  0  0  0  0  0  0  0  0  0
   58.1950   28.2410   47.5700 C   0  0  0  0  0  0  0  0  0  0  0  0
   58.8820   31.3130   48.2490 H   0  0  0  0  0  0  0  0  0  0  0  0
   57.0511   30.9428   51.0898 H   0  0  0  0  0  0  0  0  0  0  0  0
   56.7871   32.5820   52.9534 H   0  0  0  0  0  0  0  0  0  0  0  0
   60.3405   34.6657   51.6323 H   0  0  0  0  0  0  0  0  0  0  0  0
   60.6123   33.0284   49.7695 H   0  0  0  0  0  0  0  0  0  0  0  0
   61.4851   28.2738   48.5042 H   0  0  0  0  0  0  0  0  0  0  0  0
   61.6097   26.6126   46.6528 H   0  0  0  0  0  0  0  0  0  0  0  0
   59.5525   25.9742   45.3981 H   0  0  0  0  0  0  0  0  0  0  0  0
   55.8447   29.0064   42.6516 H   0  0  0  0  0  0  0  0  0  0  0  0
   57.0397   30.9792   41.7038 H   0  0  0  0  0  0  0  0  0  0  0  0
   58.3763   32.4678   43.1961 H   0  0  0  0  0  0  0  0  0  0  0  0
   61.5208   33.7998   46.0491 H   0  0  0  0  0  0  0  0  0  0  0  0
   63.5357   34.6712   47.2349 H   0  0  0  0  0  0  0  0  0  0  0  0
   63.6085   31.1314   49.7201 H   0  0  0  0  0  0  0  0  0  0  0  0
   61.5978   30.2535   48.5347 H   0  0  0  0  0  0  0  0  0  0  0  0
   57.2092   30.0832   46.6157 H   0  0  0  0  0  0  0  0  0  0  0  0
   57.2290   28.7018   47.8238 H   0  0  0  0  0  0  0  0  0  0  0  0
  1  2  2  0
  2  3  1  0
  3  4  1  0
  4  5  2  0
  5  6  1  0
  6  7  2  0
  7  8  1  0
  7  9  1  0
  9 10  2  0
  2 11  1  0
 11 12  2  0
 12 13  1  0
 13 14  2  0
 14 15  1  0
 15 16  1  0
 16 17  2  0
 16 18  2  0
 16 19  1  0
 19 20  1  0
 20 21  2  0
 21 22  1  0
 22 23  2  0
 23 24  1  0
 24 25  1  0
 25 26  2  0
 25 27  2  0
 25 28  1  0
 28 29  1  0
 29 30  2  0
 30 31  1  0
 31 32  2  0
 32 33  1  0
 32 34  1  0
 34 35  2  0
 24 36  2  0
 15 37  2  0
 10  4  1  0
 37 11  1  0
 36 20  1  0
 35 29  1  0
  3 38  1  0
  5 39  1  0
  6 40  1  0
  9 41  1  0
 10 42  1  0
 12 43  1  0
 13 44  1  0
 14 45  1  0
 21 46  1  0
 22 47  1  0
 23 48  1  0
 30 49  1  0
 31 50  1  0
 34 51  1  0
 35 52  1  0
 36 53  1  0
 37 54  1  0
M  CHG  3  19  -1  28  -1  33  -1
M  END
>  <UniqueID>  (3) 
3

>  <SMILES>  (3) 
O=C(Nc1ccc(F)cc1)c1cccc(S(=O)(=O)[N-]c2cccc(S(=O)(=O)[N-]c3ccc([O-])cc3)c2)c1

>  <Energy>  (3) 
71.47623822725595

>  <Genealogy>  (3) 
O=C(Nc1ccc(F)cc1)c1cccc(S(=O)(=O)[N-]c2cccc(S(=O)(=O)[N-]c3ccc([O-])cc3)c2)c1 (protonated)
O=C(Nc1ccc(F)cc1)c1cccc(S(=O)(=O)[N-]c2cccc(S(=O)(=O)[N-]c3ccc([O-])cc3)c2)c1 (3D coordinates assigned)
O=C(Nc1ccc(F)cc1)c1cccc(S(=O)(=O)[N-]c2cccc(S(=O)(=O)[N-]c3ccc([O-])cc3)c2)c1 (optimized conformer: 71.47623822725595 kcal/mol)

>  <smiles>  (3) 
O=C(Nc1ccc(F)cc1)c1cccc(S(=O)(=O)Nc2cccc(S(=O)(=O)Nc3ccc(O)cc3)c2)c1

>  <score_type>  (3) 
oracle

>  <origin>  (3) 
adg

>  <m_score__min__energy>  (3) 
-14.300000000000001

>  <m_primary>  (3) 
energy

$$$$
3:0
     RDKit          3D

 63 67  0  0  0  0  0  0  0  0999 V2000
   59.3680   35.2890   46.9790 C   0  0  0  0  0  0  0  0  0  0  0  0
   59.4570   35.0500   45.4760 C   0  0  0  0  0  0  0  0  0  0  0  0
   58.7240   33.7940   45.0900 C   0  0  0  0  0  0  0  0  0  0  0  0
   58.5430   33.4650   43.7370 C   0  0  0  0  0  0  0  0  0  0  0  0
   57.8880   32.2840   43.3800 C   0  0  0  0  0  0  0  0  0  0  0  0
   57.4210   31.4090   44.3690 C   0  0  0  0  0  0  0  0  0  0  0  0
   56.6040   29.9200   43.9060 S   0  0  0  0  0  0  0  0  0  0  0  0
   56.0190   30.0940   42.5320 O   0  0  0  0  0  0  0  0  0  0  0  0
   55.4950   29.5940   44.8680 O   0  0  0  0  0  0  0  0  0  0  0  0
   57.7430   28.6090   43.8810 N   0  0  0  0  0  0  0  0  0  0  0  0
   58.0300   27.7760   45.0220 C   0  0  0  0  0  0  0  0  0  0  0  0
   57.3960   26.5270   45.2250 C   0  0  0  0  0  0  0  0  0  0  0  0
   57.7160   25.7300   46.3450 C   0  0  0  0  0  0  0  0  0  0  0  0
   58.6640   26.1640   47.2860 C   0  0  0  0  0  0  0  0  0  0  0  0
   59.2700   27.4040   47.0820 C   0  0  0  0  0  0  0  0  0  0  0  0
   58.9650   28.1810   45.9880 C   0  0  0  0  0  0  0  0  0  0  0  0
   59.7090   29.3410   46.0960 C   0  0  0  0  0  0  0  0  0  0  0  0
   60.4360   29.2120   47.2720 C   0  0  0  0  0  0  0  0  0  0  0  0
   60.1730   28.0260   47.8690 N   0  0  0  0  0  0  0  0  0  0  0  0
   60.6900   27.5880   49.1660 C   0  0  0  0  0  0  0  0  0  0  0  0
   60.8660   28.7680   50.0840 C   0  0  0  0  0  0  0  0  0  0  0  0
   61.9390   28.7980   50.9850 C   0  0  0  0  0  0  0  0  0  0  0  0
   62.1270   29.9020   51.8190 C   0  0  0  0  0  0  0  0  0  0  0  0
   61.2510   30.9890   51.7550 C   0  0  0  0  0  0  0  0  0  0  0  0
   60.1640   30.9790   50.8590 C   0  0  0  0  0  0  0  0  0  0  0  0
   59.2190   32.1230   50.7810 C   0  0  0  0  0  0  0  0  0  0  0  0
   58.5270   32.4370   51.7860 O   0  0  0  0  0  0  0  0  0  0  0  0
   58.9840   33.0710   49.2740 S   0  0  0  0  0  0  0  0  0  0  0  0
   60.7280   33.0500   48.8470 C   0  0  0  0  0  0  0  0  0  0  0  0
   61.6360   33.8270   49.5770 C   0  0  0  0  0  0  0  0  0  0  0  0
   62.9880   33.8530   49.2130 C   0  0  0  0  0  0  0  0  0  0  0  0
   63.4350   33.1040   48.1180 C   0  0  0  0  0  0  0  0  0  0  0  0
   62.5290   32.3270   47.3870 C   0  0  0  0  0  0  0  0  0  0  0  0
   61.1780   32.2980   47.7510 C   0  0  0  0  0  0  0  0  0  0  0  0
   59.9810   29.8580   50.0280 C   0  0  0  0  0  0  0  0  0  0  0  0
   57.6070   31.7290   45.7210 C   0  0  0  0  0  0  0  0  0  0  0  0
   58.2600   32.9110   46.0800 C   0  0  0  0  0  0  0  0  0  0  0  0
   59.7034   34.3883   47.5140 H   0  0  0  0  0  0  0  0  0  0  0  0
   60.0099   36.1390   47.2538 H   0  0  0  0  0  0  0  0  0  0  0  0
   58.3265   35.5122   47.2538 H   0  0  0  0  0  0  0  0  0  0  0  0
   59.0100   35.9051   44.9478 H   0  0  0  0  0  0  0  0  0  0  0  0
   60.5158   34.9395   45.1988 H   0  0  0  0  0  0  0  0  0  0  0  0
   58.9188   34.1405   42.9544 H   0  0  0  0  0  0  0  0  0  0  0  0
   57.7384   32.0402   42.3179 H   0  0  0  0  0  0  0  0  0  0  0  0
   58.2770   28.4710   42.9930 H   0  0  0  0  0  0  0  0  0  0  0  0
   56.6459   26.1737   44.5022 H   0  0  0  0  0  0  0  0  0  0  0  0
   57.2178   24.7589   46.4823 H   0  0  0  0  0  0  0  0  0  0  0  0
   58.9211   25.5446   48.1580 H   0  0  0  0  0  0  0  0  0  0  0  0
   59.7224   30.1895   45.3961 H   0  0  0  0  0  0  0  0  0  0  0  0
   61.1303   29.9696   47.6645 H   0  0  0  0  0  0  0  0  0  0  0  0
   59.9812   26.8789   49.6184 H   0  0  0  0  0  0  0  0  0  0  0  0
   61.6656   27.1023   49.0167 H   0  0  0  0  0  0  0  0  0  0  0  0
   62.6359   27.9484   51.0354 H   0  0  0  0  0  0  0  0  0  0  0  0
   62.9673   29.9162   52.5287 H   0  0  0  0  0  0  0  0  0  0  0  0
   61.4114   31.8588   52.4091 H   0  0  0  0  0  0  0  0  0  0  0  0
   61.2870   34.4174   50.4370 H   0  0  0  0  0  0  0  0  0  0  0  0
   63.6999   34.4630   49.7884 H   0  0  0  0  0  0  0  0  0  0  0  0
   64.4971   33.1261   47.8324 H   0  0  0  0  0  0  0  0  0  0  0  0
   62.8790   31.7388   46.5259 H   0  0  0  0  0  0  0  0  0  0  0  0
   60.4677   31.6848   47.1771 H   0  0  0  0  0  0  0  0  0  0  0  0
   59.1346   29.8348   49.3259 H   0  0  0  0  0  0  0  0  0  0  0  0
   57.2378   31.0476   46.5016 H   0  0  0  0  0  0  0  0  0  0  0  0
   58.4116   33.1515   47.1426 H   0  0  0  0  0  0  0  0  0  0  0  0
  1  2  1  0
  2  3  1  0
  3  4  2  0
  4  5  1  0
  5  6  2  0
  6  7  1  0
  7  8  2  0
  7  9  2  0
  7 10  1  0
 10 11  1  0
 11 12  2  0
 12 13  1  0
 13 14  2  0
 14 15  1  0
 15 16  2  0
 16 17  1  0
 17 18  2  0
 18 19  1  0
 19 20  1  0
 20 21  1  0
 21 22  2  0
 22 23  1  0
 23 24  2  0
 24 25  1  0
 25 26  1  0
 26 27  2  0
 26 28  1  0
 28 29  1  0
 29 30  2  0
 30 31  1  0
 31 32  2  0
 32 33  1  0
 33 34  2  0
 25 35  2  0
  6 36  1  0
 36 37  2  0
 37  3  1  0
 16 11  1  0
 35 21  1  0
 19 15  1  0
 34 29  1  0
  1 38  1  0
  1 39  1  0
  1 40  1  0
  2 41  1  0
  2 42  1  0
  4 43  1  0
  5 44  1  0
 10 45  1  0
 12 46  1  0
 13 47  1  0
 14 48  1  0
 17 49  1  0
 18 50  1  0
 20 51  1  0
 20 52  1  0
 22 53  1  0
 23 54  1  0
 24 55  1  0
 30 56  1  0
 31 57  1  0
 32 58  1  0
 33 59  1  0
 34 60  1  0
 35 61  1  0
 36 62  1  0
 37 63  1  0
M  END
>  <UniqueID>  (4) 
4

>  <SMILES>  (4) 
CCc1ccc(S(=O)(=O)Nc2cccc3c2ccn3Cc2cccc(C(=O)Sc3ccccc3)c2)cc1

>  <Energy>  (4) 
97.74567735110642

>  <Genealogy>  (4) 
CCc1ccc(S(=O)(=O)Nc2cccc3c2ccn3Cc2cccc(C(=O)Sc3ccccc3)c2)cc1 (3D coordinates assigned)
CCc1ccc(S(=O)(=O)Nc2cccc3c2ccn3Cc2cccc(C(=O)Sc3ccccc3)c2)cc1 (optimized conformer: 97.74567735110642 kcal/mol)

>  <smiles>  (4) 
CCc1ccc(S(=O)(=O)Nc2cccc3c2ccn3Cc2cccc(C(=O)Sc3ccccc3)c2)cc1

>  <score_type>  (4) 
oracle

>  <origin>  (4) 
adg

>  <m_score__min__energy>  (4) 
-10.800000000000001

>  <m_primary>  (4) 
energy

$$$$
4:0
     RDKit          3D

 38 40  0  0  0  0  0  0  0  0999 V2000
   59.3860   24.4180   45.9390 O   0  0  0  0  0  0  0  0  0  0  0  0
   58.1820   24.6990   46.1820 C   0  0  0  0  0  0  0  0  0  0  0  0
   57.4160   23.8090   46.8650 N   0  0  0  0  0  0  0  0  0  0  0  0
   56.1190   24.0780   47.1530 C   0  0  0  0  0  0  0  0  0  0  0  0
   55.2270   22.9940   47.9830 S   0  0  0  0  0  0  0  0  0  0  0  0
   55.5570   25.2420   46.7380 N   0  0  0  0  0  0  0  0  0  0  0  0
   56.2720   26.1650   46.0440 C   0  0  0  0  0  0  0  0  0  0  0  0
   55.6180   27.3150   45.6010 O   0  0  0  0  0  0  0  0  0  0  0  0
   57.6360   25.9260   45.7710 C   0  0  0  0  0  0  0  0  0  0  0  0
   58.4840   26.9090   45.0580 C   0  0  0  0  0  0  0  0  0  0  0  0
   58.0130   27.8800   44.3270 N   0  0  0  0  0  0  0  0  0  0  0  0
   57.9980   29.2800   44.6500 C   0  0  0  0  0  0  0  0  0  0  0  0
   57.1130   30.1770   44.0220 C   0  0  0  0  0  0  0  0  0  0  0  0
   57.1090   31.5280   44.3790 C   0  0  0  0  0  0  0  0  0  0  0  0
   57.9670   31.9950   45.3840 C   0  0  0  0  0  0  0  0  0  0  0  0
   57.9580   33.6950   45.8430 S   0  0  0  0  0  0  0  0  0  0  0  0
   57.3940   33.8680   47.2260 O   0  0  0  0  0  0  0  0  0  0  0  0
   57.1070   34.4580   44.8680 O   0  0  0  0  0  0  0  0  0  0  0  0
   59.5720   34.3290   45.8080 N   0  0  0  0  0  0  0  0  0  0  0  0
   60.5820   34.0750   46.7930 C   0  0  0  0  0  0  0  0  0  0  0  0
   61.8870   33.8030   46.3610 C   0  0  0  0  0  0  0  0  0  0  0  0
   62.9000   33.5420   47.2880 C   0  0  0  0  0  0  0  0  0  0  0  0
   62.6180   33.5530   48.6570 C   0  0  0  0  0  0  0  0  0  0  0  0
   64.0010   33.1950   49.9230 Br  0  0  0  0  0  0  0  0  0  0  0  0
   61.3190   33.8260   49.0980 C   0  0  0  0  0  0  0  0  0  0  0  0
   60.3030   34.0880   48.1720 C   0  0  0  0  0  0  0  0  0  0  0  0
   58.8260   31.0980   46.0300 C   0  0  0  0  0  0  0  0  0  0  0  0
   58.8310   29.7470   45.6740 C   0  0  0  0  0  0  0  0  0  0  0  0
   55.9050   27.8280   44.7780 H   0  0  0  0  0  0  0  0  0  0  0  0
   59.5759   26.8140   45.1509 H   0  0  0  0  0  0  0  0  0  0  0  0
   56.4221   29.8129   43.2474 H   0  0  0  0  0  0  0  0  0  0  0  0
   56.4300   32.2275   43.8694 H   0  0  0  0  0  0  0  0  0  0  0  0
   62.1157   33.7948   45.2851 H   0  0  0  0  0  0  0  0  0  0  0  0
   63.9211   33.3275   46.9395 H   0  0  0  0  0  0  0  0  0  0  0  0
   61.0956   33.8348   50.1750 H   0  0  0  0  0  0  0  0  0  0  0  0
   59.2834   34.3047   48.5232 H   0  0  0  0  0  0  0  0  0  0  0  0
   59.4999   31.4584   46.8212 H   0  0  0  0  0  0  0  0  0  0  0  0
   59.4938   29.0455   46.2017 H   0  0  0  0  0  0  0  0  0  0  0  0
  1  2  2  0
  2  3  1  0
  3  4  1  0
  4  5  2  0
  4  6  1  0
  6  7  1  0
  7  8  1  0
  7  9  2  0
  9 10  1  0
 10 11  2  3
 11 12  1  0
 12 13  2  0
 13 14  1  0
 14 15  2  0
 15 16  1  0
 16 17  2  0
 16 18  2  0
 16 19  1  0
 19 20  1  0
 20 21  2  0
 21 22  1  0
 22 23  2  0
 23 24  1  0
 23 25  1  0
 25 26  2  0
 15 27  1  0
 27 28  2  0
  9  2  1  0
 28 12  1  0
 26 20  1  0
  8 29  1  0
 10 30  1  0
 13 31  1  0
 14 32  1  0
 21 33  1  0
 22 34  1  0
 25 35  1  0
 26 36  1  0
 27 37  1  0
 28 38  1  0
M  CHG  3   3  -1   6  -1  19  -1
M  END
>  <UniqueID>  (5) 
5

>  <SMILES>  (5) 
O=c1[n-]c(=S)[n-]c(O)c1C=Nc1ccc(S(=O)(=O)[N-]c2ccc(Br)cc2)cc1

>  <Energy>  (5) 
58.6588971173628

>  <Genealogy>  (5) 
O=c1[n-]c(=S)[n-]c(O)c1C=Nc1ccc(S(=O)(=O)[N-]c2ccc(Br)cc2)cc1 (protonated)
O=c1[n-]c(=S)[n-]c(O)c1C=Nc1ccc(S(=O)(=O)[N-]c2ccc(Br)cc2)cc1 (3D coordinates assigned)
O=c1[n-]c(=S)[n-]c(O)c1C=Nc1ccc(S(=O)(=O)[N-]c2ccc(Br)cc2)cc1 (optimized conformer: 58.6588971173628 kcal/mol)

>  <smiles>  (5) 
O=c1[nH]c(=S)[nH]c(O)c1C=Nc1ccc(S(=O)(=O)Nc2ccc(Br)cc2)cc1

>  <score_type>  (5) 
oracle

>  <origin>  (5) 
adg

>  <m_score__min__energy>  (5) 
-14.640000000000001

>  <m_primary>  (5) 
energy

$$$$
5:0
     RDKit          3D

 29 30  0  0  0  0  0  0  0  0999 V2000
   57.4867   21.1753   42.9637 H   0  0  0  0  0  0  0  0  0  0  0  0
   57.0260   22.0180   43.5000 C   0  0  0  0  0  0  0  0  0  0  0  0
   55.6940   22.2580   43.3730 N   0  0  0  0  0  0  0  0  0  0  0  0
   55.0820   23.2810   44.0270 C   0  0  0  0  0  0  0  0  0  0  0  0
   53.8490   23.4720   43.8500 O   0  0  0  0  0  0  0  0  0  0  0  0
   55.8290   24.1230   44.8770 C   0  0  0  0  0  0  0  0  0  0  0  0
   55.2040   25.2450   45.6180 C   0  0  0  0  0  0  0  0  0  0  0  0
   53.9490   25.3350   45.6420 O   0  0  0  0  0  0  0  0  0  0  0  0
   55.9770   26.2180   46.3420 N   0  0  0  0  0  0  0  0  0  0  0  0
   56.6430   27.2120   45.8290 C   0  0  0  0  0  0  0  0  0  0  0  0
   56.0030   28.2480   45.2170 N   0  0  0  0  0  0  0  0  0  0  0  0
   56.6760   29.2980   44.6740 C   0  0  0  0  0  0  0  0  0  0  0  0
   55.9190   30.3980   44.0030 C   0  0  0  0  0  0  0  0  0  0  0  0
   55.4693   31.0515   44.7650 H   0  0  0  0  0  0  0  0  0  0  0  0
   56.6051   30.9853   43.3750 H   0  0  0  0  0  0  0  0  0  0  0  0
   55.1254   29.9669   43.3750 H   0  0  0  0  0  0  0  0  0  0  0  0
   58.0740   29.3420   44.7530 C   0  0  0  0  0  0  0  0  0  0  0  0
   58.6284   30.1820   44.3092 H   0  0  0  0  0  0  0  0  0  0  0  0
   58.7600   28.3070   45.4020 C   0  0  0  0  0  0  0  0  0  0  0  0
   60.2600   28.3190   45.4650 C   0  0  0  0  0  0  0  0  0  0  0  0
   60.5828   28.3216   46.5166 H   0  0  0  0  0  0  0  0  0  0  0  0
   60.6553   27.4240   44.9623 H   0  0  0  0  0  0  0  0  0  0  0  0
   60.6409   29.2202   44.9623 H   0  0  0  0  0  0  0  0  0  0  0  0
   58.0390   27.2290   45.9320 C   0  0  0  0  0  0  0  0  0  0  0  0
   58.5671   26.4003   46.4265 H   0  0  0  0  0  0  0  0  0  0  0  0
   57.2100   23.8970   44.9940 C   0  0  0  0  0  0  0  0  0  0  0  0
   57.8217   24.5562   45.6274 H   0  0  0  0  0  0  0  0  0  0  0  0
   57.8080   22.8400   44.3100 C   0  0  0  0  0  0  0  0  0  0  0  0
   58.8880   22.6560   44.4085 H   0  0  0  0  0  0  0  0  0  0  0  0
  1  2  1  0
  2  3  1  0
  3  4  1  0
  4  5  2  0
  4  6  1  0
  6  7  1  0
  7  8  2  0
  7  9  1  0
  9 10  2  0
 10 11  1  0
 11 12  1  0
 12 13  1  0
 13 14  1  0
 13 15  1  0
 13 16  1  0
 12 17  2  0
 17 18  1  0
 17 19  1  0
 19 20  1  0
 20 21  1  0
 20 22  1  0
 20 23  1  0
 19 24  2  0
 24 25  1  0
  6 26  2  0
 26 27  1  0
 26 28  1  0
 28 29  1  0
 28  2  2  0
 24 10  1  0
M  CHG  2   3  -1  11  -1
M  END
>  <UniqueID>  (6) 
6

>  <SMILES>  (6) 
Cc1cc(C)[n-]/c(=N\C(=O)c2ccc[n-]c2=O)c1

>  <Energy>  (6) 
38.046256364254475

>  <Genealogy>  (6) 
Cc1cc(C)[n-]c(=NC(=O)c2ccc[n-]c2=O)c1 (protonated)
Cc1cc(C)[n-]/c(=N\C(=O)c2ccc[n-]c2=O)c1 (cis-trans isomerization)
Cc1cc(C)[n-]/c(=N\C(=O)c2ccc[n-]c2=O)c1 (3D coordinates assigned)
Cc1cc(C)[n-]/c(=N\C(=O)c2ccc[n-]c2=O)c1 (optimized conformer: 38.046256364254475 kcal/mol)

>  <smiles>  (6) 
Cc1cc(C)[nH]c(=NC(=O)c2ccc[nH]c2=O)c1

>  <score_type>  (6) 
oracle

>  <origin>  (6) 
adg

>  <m_score__min__energy>  (6) 
-10.41

>  <m_primary>  (6) 
energy

$$$$
6:0
     RDKit          3D

 68 71  0  0  0  0  0  0  0  0999 V2000
   60.4960   30.8480   47.6130 C   0  0  0  0  0  0  0  0  0  0  0  0
   59.3980   31.6880   47.0160 C   0  0  0  0  0  0  0  0  0  0  0  0
   59.1550   31.6260   45.6340 C   0  0  0  0  0  0  0  0  0  0  0  0
   58.1360   32.4030   45.0460 C   0  0  0  0  0  0  0  0  0  0  0  0
   57.8690   32.3870   43.6660 O   0  0  0  0  0  0  0  0  0  0  0  0
   57.4430   31.2480   42.9170 C   0  0  0  0  0  0  0  0  0  0  0  0
   56.6870   30.2650   43.8180 C   0  0  0  0  0  0  0  0  0  0  0  0
   57.4380   28.9350   43.9450 C   0  0  0  0  0  0  0  0  0  0  0  0
   57.1200   28.2930   45.2400 N   0  0  0  0  0  0  0  0  0  0  0  0
   57.7780   28.9620   46.3970 C   0  0  0  0  0  0  0  0  0  0  0  0
   58.8450   28.1010   47.1040 C   0  0  0  0  0  0  0  0  0  0  0  0
   59.6950   27.3290   46.0900 C   0  0  0  0  0  0  0  0  0  0  0  0
   60.4260   28.2300   45.3320 F   0  0  0  0  0  0  0  0  0  0  0  0
   60.5870   26.5220   46.7750 F   0  0  0  0  0  0  0  0  0  0  0  0
   58.8220   26.4550   45.1600 C   0  0  0  0  0  0  0  0  0  0  0  0
   57.3290   26.8300   45.2080 C   0  0  0  0  0  0  0  0  0  0  0  0
   57.3510   33.2240   45.8580 C   0  0  0  0  0  0  0  0  0  0  0  0
   57.5750   33.2860   47.2340 C   0  0  0  0  0  0  0  0  0  0  0  0
   58.5890   32.5210   47.8250 C   0  0  0  0  0  0  0  0  0  0  0  0
   58.7930   32.6100   49.2850 C   0  0  0  0  0  0  0  0  0  0  0  0
   58.1090   31.7340   50.1370 C   0  0  0  0  0  0  0  0  0  0  0  0
   58.3150   31.8130   51.5180 C   0  0  0  0  0  0  0  0  0  0  0  0
   57.4740   30.7310   52.6180 S   0  0  0  0  0  0  0  0  0  0  0  0
   58.4840   30.4390   54.0540 C   0  0  0  0  0  0  0  0  0  0  0  0
   57.2050   29.4140   51.9450 O   0  0  0  0  0  0  0  0  0  0  0  0
   56.1700   31.3540   53.0310 O   0  0  0  0  0  0  0  0  0  0  0  0
   59.1730   32.7410   52.0210 N   0  0  0  0  0  0  0  0  0  0  0  0
   59.8470   33.6070   51.2190 C   0  0  0  0  0  0  0  0  0  0  0  0
   59.6670   33.5680   49.8250 C   0  0  0  0  0  0  0  0  0  0  0  0
   60.3640   34.4280   48.9610 O   0  0  0  0  0  0  0  0  0  0  0  0
   61.4880   34.0620   48.2110 C   0  0  0  0  0  0  0  0  0  0  0  0
   62.5880   33.5070   48.8700 C   0  0  0  0  0  0  0  0  0  0  0  0
   63.7250   33.1420   48.1490 C   0  0  0  0  0  0  0  0  0  0  0  0
   63.7450   33.3270   46.7670 C   0  0  0  0  0  0  0  0  0  0  0  0
   62.6590   33.8440   46.1330 N   0  0  0  0  0  0  0  0  0  0  0  0
   61.5310   34.2020   46.8060 C   0  0  0  0  0  0  0  0  0  0  0  0
   60.3670   34.7390   46.0300 C   0  0  0  0  0  0  0  0  0  0  0  0
   60.4368   30.8933   48.7105 H   0  0  0  0  0  0  0  0  0  0  0  0
   60.3809   29.8052   47.2823 H   0  0  0  0  0  0  0  0  0  0  0  0
   61.4724   31.2319   47.2823 H   0  0  0  0  0  0  0  0  0  0  0  0
   59.7665   30.9639   45.0034 H   0  0  0  0  0  0  0  0  0  0  0  0
   56.7796   31.5771   42.1036 H   0  0  0  0  0  0  0  0  0  0  0  0
   58.3283   30.7428   42.5034 H   0  0  0  0  0  0  0  0  0  0  0  0
   56.5741   30.7096   44.8178 H   0  0  0  0  0  0  0  0  0  0  0  0
   55.7036   30.0666   43.3668 H   0  0  0  0  0  0  0  0  0  0  0  0
   57.1369   28.2673   43.1243 H   0  0  0  0  0  0  0  0  0  0  0  0
   58.5200   29.1263   43.8941 H   0  0  0  0  0  0  0  0  0  0  0  0
   58.2615   29.8811   46.0344 H   0  0  0  0  0  0  0  0  0  0  0  0
   56.9893   29.1584   47.1382 H   0  0  0  0  0  0  0  0  0  0  0  0
   59.5003   28.7566   47.6962 H   0  0  0  0  0  0  0  0  0  0  0  0
   58.3329   27.3755   47.7532 H   0  0  0  0  0  0  0  0  0  0  0  0
   59.1807   26.5758   44.1271 H   0  0  0  0  0  0  0  0  0  0  0  0
   58.9112   25.4149   45.5069 H   0  0  0  0  0  0  0  0  0  0  0  0
   56.8324   26.4209   44.3158 H   0  0  0  0  0  0  0  0  0  0  0  0
   56.9052   26.4087   46.1315 H   0  0  0  0  0  0  0  0  0  0  0  0
   56.5485   33.8276   45.4089 H   0  0  0  0  0  0  0  0  0  0  0  0
   56.9505   33.9407   47.8595 H   0  0  0  0  0  0  0  0  0  0  0  0
   57.4142   30.9886   49.7227 H   0  0  0  0  0  0  0  0  0  0  0  0
   57.8882   30.6112   54.9625 H   0  0  0  0  0  0  0  0  0  0  0  0
   58.8446   29.3998   54.0435 H   0  0  0  0  0  0  0  0  0  0  0  0
   59.3435   31.1254   54.0435 H   0  0  0  0  0  0  0  0  0  0  0  0
   60.5359   34.3412   51.6622 H   0  0  0  0  0  0  0  0  0  0  0  0
   62.5573   33.3576   49.9594 H   0  0  0  0  0  0  0  0  0  0  0  0
   64.5965   32.7128   48.6651 H   0  0  0  0  0  0  0  0  0  0  0  0
   64.6404   33.0544   46.1891 H   0  0  0  0  0  0  0  0  0  0  0  0
   59.5945   35.0954   46.7273 H   0  0  0  0  0  0  0  0  0  0  0  0
   60.7023   35.5734   45.3965 H   0  0  0  0  0  0  0  0  0  0  0  0
   59.9498   33.9424   45.3965 H   0  0  0  0  0  0  0  0  0  0  0  0
  1  2  1  0
  2  3  2  0
  3  4  1  0
  4  5  1  0
  5  6  1  0
  6  7  1  0
  7  8  1  0
  8  9  1  0
  9 10  1  0
 10 11  1  0
 11 12  1  0
 12 13  1  0
 12 14  1  0
 12 15  1  0
 15 16  1  0
  4 17  2  0
 17 18  1  0
 18 19  2  0
 19 20  1  0
 20 21  2  0
 21 22  1  0
 22 23  1  0
 23 24  1  0
 23 25  2  0
 23 26  2  0
 22 27  2  0
 27 28  1  0
 28 29  2  0
 29 30  1  0
 30 31  1  0
 31 32  2  0
 32 33  1  0
 33 34  2  0
 34 35  1  0
 35 36  2  0
 36 37  1  0
 19  2  1  0
 29 20  1  0
 36 31  1  0
 16  9  1  0
  1 38  1  0
  1 39  1  0
  1 40  1  0
  3 41  1  0
  6 42  1  0
  6 43  1  0
  7 44  1  0
  7 45  1  0
  8 46  1  0
  8 47  1  0
 10 48  1  0
 10 49  1  0
 11 50  1  0
 11 51  1  0
 15 52  1  0
 15 53  1  0
 16 54  1  0
 16 55  1  0
 17 56  1  0
 18 57  1  0
 21 58  1  0
 24 59  1  0
 24 60  1  0
 24 61  1  0
 28 62  1  0
 32 63  1  0
 33 64  1  0
 34 65  1  0
 37 66  1  0
 37 67  1  0
 37 68  1  0
M  END
>  <UniqueID>  (7) 
7

>  <SMILES>  (7) 
Cc1cc(OCCCN2CCC(F)(F)CC2)ccc1-c1cc(S(C)(=O)=O)ncc1Oc1cccnc1C

>  <Energy>  (7) 
90.22813671226082

>  <Genealogy>  (7) 
Cc1cc(OCCCN2CCC(F)(F)CC2)ccc1-c1cc(S(C)(=O)=O)ncc1Oc1cccnc1C (3D coordinates assigned)
Cc1cc(OCCCN2CCC(F)(F)CC2)ccc1-c1cc(S(C)(=O)=O)ncc1Oc1cccnc1C (nonaromatic ring conformer: 90.22813671226082 kcal/mol)

>  <smiles>  (7) 
Cc1cc(OCCCN2CCC(F)(F)CC2)ccc1-c1cc(S(C)(=O)=O)ncc1Oc1cccnc1C

>  <score_type>  (7) 
oracle

>  <origin>  (7) 
adg

>  <m_score__min__energy>  (7) 
-9.4700000000000006

>  <m_primary>  (7) 
energy

$$$$
7:0
     RDKit          3D

 31 32  0  0  0  0  0  0  0  0999 V2000
   58.3070   30.3450   47.1410 O   0  0  0  0  0  0  0  0  0  0  0  0
   58.6550   31.5580   47.1570 C   0  0  0  0  0  0  0  0  0  0  0  0
   59.4980   32.0650   48.2900 C   0  0  0  0  0  0  0  0  0  0  0  0
   60.8630   32.4830   47.7890 C   0  0  0  0  0  0  0  0  0  0  0  0
   61.9650   31.6500   48.0590 C   0  0  0  0  0  0  0  0  0  0  0  0
   63.2300   31.9530   47.5530 C   0  0  0  0  0  0  0  0  0  0  0  0
   63.4120   33.0860   46.7610 C   0  0  0  0  0  0  0  0  0  0  0  0
   62.3330   33.9230   46.4800 C   0  0  0  0  0  0  0  0  0  0  0  0
   61.0540   33.6450   46.9940 C   0  0  0  0  0  0  0  0  0  0  0  0
   59.9700   34.5350   46.6840 N   0  0  0  0  0  0  0  0  0  0  0  0
   59.2050   34.9250   47.5900 O   0  0  0  0  0  0  0  0  0  0  0  0
   59.6320   34.7900   45.3750 O   0  0  0  0  0  0  0  0  0  0  0  0
   58.2260   32.4510   46.1180 N   0  0  0  0  0  0  0  0  0  0  0  0
   57.7910   32.0180   44.8200 C   0  0  0  0  0  0  0  0  0  0  0  0
   58.1760   32.7470   43.6840 C   0  0  0  0  0  0  0  0  0  0  0  0
   57.7870   32.3290   42.4070 C   0  0  0  0  0  0  0  0  0  0  0  0
   57.0230   31.1700   42.2530 C   0  0  0  0  0  0  0  0  0  0  0  0
   56.6530   30.4230   43.3760 C   0  0  0  0  0  0  0  0  0  0  0  0
   57.0400   30.8390   44.6530 C   0  0  0  0  0  0  0  0  0  0  0  0
   59.0010   32.9310   48.7517 H   0  0  0  0  0  0  0  0  0  0  0  0
   59.6216   31.2600   49.0294 H   0  0  0  0  0  0  0  0  0  0  0  0
   61.8276   30.7497   48.6760 H   0  0  0  0  0  0  0  0  0  0  0  0
   64.0839   31.2975   47.7792 H   0  0  0  0  0  0  0  0  0  0  0  0
   64.4082   33.3198   46.3574 H   0  0  0  0  0  0  0  0  0  0  0  0
   62.4840   34.8112   45.8489 H   0  0  0  0  0  0  0  0  0  0  0  0
   58.1900   33.4730   46.3350 H   0  0  0  0  0  0  0  0  0  0  0  0
   58.7881   33.6537   43.7988 H   0  0  0  0  0  0  0  0  0  0  0  0
   58.0830   32.9135   41.5234 H   0  0  0  0  0  0  0  0  0  0  0  0
   56.7125   30.8449   41.2491 H   0  0  0  0  0  0  0  0  0  0  0  0
   56.0566   29.5068   43.2541 H   0  0  0  0  0  0  0  0  0  0  0  0
   56.7563   30.2420   45.5322 H   0  0  0  0  0  0  0  0  0  0  0  0
  1  2  2  0
  2  3  1  0
  3  4  1  0
  4  5  2  0
  5  6  1  0
  6  7  2  0
  7  8  1  0
  8  9  2  0
  9 10  1  0
 10 11  2  0
 10 12  1  0
  2 13  1  0
 13 14  1  0
 14 15  2  0
 15 16  1  0
 16 17  2  0
 17 18  1  0
 18 19  2  0
  9  4  1  0
 19 14  1  0
  3 20  1  0
  3 21  1  0
  5 22  1  0
  6 23  1  0
  7 24  1  0
  8 25  1  0
 13 26  1  0
 15 27  1  0
 16 28  1  0
 17 29  1  0
 18 30  1  0
 19 31  1  0
M  CHG  2  10   1  12  -1
M  END
>  <UniqueID>  (8) 
8

>  <SMILES>  (8) 
O=C(Cc1ccccc1[N+](=O)[O-])Nc1ccccc1

>  <Energy>  (8) 
39.53093647174193

>  <Genealogy>  (8) 
O=C(Cc1ccccc1[N+](=O)[O-])Nc1ccccc1 (3D coordinates assigned)
O=C(Cc1ccccc1[N+](=O)[O-])Nc1ccccc1 (optimized conformer: 39.53093647174193 kcal/mol)

>  <smiles>  (8) 
O=C(Cc1ccccc1[N+](=O)[O-])Nc1ccccc1

>  <score_type>  (8) 
oracle

>  <origin>  (8) 
adg

>  <m_score__min__energy>  (8) 
-7.1299999999999999

>  <m_primary>  (8) 
energy

$$$$
8:0
     RDKit          3D

 40 42  0  0  0  0  0  0  0  0999 V2000
   53.6670   22.9970   44.5110 N   0  0  0  0  0  0  0  0  0  0  0  0
   55.3490   23.0040   44.1200 S   0  0  0  0  0  0  0  0  0  0  0  0
   55.5190   23.0120   42.6270 O   0  0  0  0  0  0  0  0  0  0  0  0
   55.9930   21.7630   44.6720 O   0  0  0  0  0  0  0  0  0  0  0  0
   56.1100   24.4340   44.8100 C   0  0  0  0  0  0  0  0  0  0  0  0
   55.5030   25.1210   45.8700 C   0  0  0  0  0  0  0  0  0  0  0  0
   56.1100   26.2570   46.4130 C   0  0  0  0  0  0  0  0  0  0  0  0
   57.3350   26.7180   45.9090 C   0  0  0  0  0  0  0  0  0  0  0  0
   57.9320   27.8990   46.4720 N   0  0  0  0  0  0  0  0  0  0  0  0
   59.2160   28.4170   46.0890 C   0  0  0  0  0  0  0  0  0  0  0  0
   60.4790   27.3900   45.8830 S   0  0  0  0  0  0  0  0  0  0  0  0
   59.4800   29.8260   46.1670 N   0  0  0  0  0  0  0  0  0  0  0  0
   58.4610   30.8320   46.0430 C   0  0  0  0  0  0  0  0  0  0  0  0
   57.2880   30.5120   45.7060 O   0  0  0  0  0  0  0  0  0  0  0  0
   58.7800   32.2480   46.3340 C   0  0  0  0  0  0  0  0  0  0  0  0
   58.8060   33.1510   45.2610 C   0  0  0  0  0  0  0  0  0  0  0  0
   59.1620   34.4830   45.4710 C   0  0  0  0  0  0  0  0  0  0  0  0
   59.1930   35.2840   44.4980 O   0  0  0  0  0  0  0  0  0  0  0  0
   59.4820   34.9180   46.7190 N   0  0  0  0  0  0  0  0  0  0  0  0
   59.4550   34.0830   47.7970 C   0  0  0  0  0  0  0  0  0  0  0  0
   59.7760   34.5750   49.0730 C   0  0  0  0  0  0  0  0  0  0  0  0
   59.7230   33.7370   50.1860 C   0  0  0  0  0  0  0  0  0  0  0  0
   59.3400   32.4050   50.0420 C   0  0  0  0  0  0  0  0  0  0  0  0
   59.0170   31.8960   48.7800 C   0  0  0  0  0  0  0  0  0  0  0  0
   59.0900   32.7190   47.6360 C   0  0  0  0  0  0  0  0  0  0  0  0
   57.9260   26.0440   44.8230 C   0  0  0  0  0  0  0  0  0  0  0  0
   57.3190   24.9070   44.2830 C   0  0  0  0  0  0  0  0  0  0  0  0
   53.5590   23.5310   45.4040 H   0  0  0  0  0  0  0  0  0  0  0  0
   54.5449   24.7648   46.2764 H   0  0  0  0  0  0  0  0  0  0  0  0
   55.6236   26.7931   47.2413 H   0  0  0  0  0  0  0  0  0  0  0  0
   57.4220   28.3910   47.2410 H   0  0  0  0  0  0  0  0  0  0  0  0
   60.4740   30.1410   46.2380 H   0  0  0  0  0  0  0  0  0  0  0  0
   58.5444   32.8071   44.2494 H   0  0  0  0  0  0  0  0  0  0  0  0
   59.7480   35.9230   46.8460 H   0  0  0  0  0  0  0  0  0  0  0  0
   60.0709   35.6277   49.1948 H   0  0  0  0  0  0  0  0  0  0  0  0
   59.9842   34.1283   51.1803 H   0  0  0  0  0  0  0  0  0  0  0  0
   59.2915   31.7508   50.9250 H   0  0  0  0  0  0  0  0  0  0  0  0
   58.7038   30.8464   48.6784 H   0  0  0  0  0  0  0  0  0  0  0  0
   58.8703   26.4144   44.3975 H   0  0  0  0  0  0  0  0  0  0  0  0
   57.7923   24.3812   43.4407 H   0  0  0  0  0  0  0  0  0  0  0  0
  1  2  1  0
  2  3  2  0
  2  4  2  0
  2  5  1  0
  5  6  2  0
  6  7  1  0
  7  8  2  0
  8  9  1  0
  9 10  1  0
 10 11  2  0
 10 12  1  0
 12 13  1  0
 13 14  2  0
 13 15  1  0
 15 16  2  0
 16 17  1  0
 17 18  2  0
 17 19  1  0
 19 20  1  0
 20 21  2  0
 21 22  1  0
 22 23  2  0
 23 24  1  0
 24 25  2  0
  8 26  1  0
 26 27  2  0
 27  5  1  0
 25 15  1  0
 25 20  1  0
  1 28  1  0
  6 29  1  0
  7 30  1  0
  9 31  1  0
 12 32  1  0
 16 33  1  0
 19 34  1  0
 21 35  1  0
 22 36  1  0
 23 37  1  0
 24 38  1  0
 26 39  1  0
 27 40  1  0
M  CHG  1   1  -1
M  END
>  <UniqueID>  (9) 
9

>  <SMILES>  (9) 
[NH-]S(=O)(=O)c1ccc(NC(=S)NC(=O)c2cc(=O)[nH]c3ccccc23)cc1

>  <Energy>  (9) 
59.063348654760574

>  <Genealogy>  (9) 
[NH-]S(=O)(=O)c1ccc(NC(=S)NC(=O)c2cc(=O)[nH]c3ccccc23)cc1 (protonated)
[NH-]S(=O)(=O)c1ccc(NC(=S)NC(=O)c2cc(=O)[nH]c3ccccc23)cc1 (3D coordinates assigned)
[NH-]S(=O)(=O)c1ccc(NC(=S)NC(=O)c2cc(=O)[nH]c3ccccc23)cc1 (optimized conformer: 59.063348654760574 kcal/mol)

>  <smiles>  (9) 
NS(=O)(=O)c1ccc(NC(=S)NC(=O)c2cc(=O)[nH]c3ccccc23)cc1

>  <score_type>  (9) 
oracle

>  <origin>  (9) 
adg

>  <m_score__min__energy>  (9) 
-9.75

>  <m_primary>  (9) 
energy

$$$$
9:0
     RDKit          3D

 35 36  0  0  0  0  0  0  0  0999 V2000
   65.7840   32.1290   50.1550 N   0  0  0  0  0  0  0  0  0  0  0  0
   64.7420   33.0500   49.8230 C   0  0  0  0  0  0  0  0  0  0  0  0
   64.3000   33.8780   50.7220 N   0  0  0  0  0  0  0  0  0  0  0  0
   64.2560   33.0990   48.4710 N   0  0  0  0  0  0  0  0  0  0  0  0
   62.9160   33.4670   48.0990 C   0  0  0  0  0  0  0  0  0  0  0  0
   61.8590   33.4150   49.0250 C   0  0  0  0  0  0  0  0  0  0  0  0
   60.5600   33.7480   48.6320 C   0  0  0  0  0  0  0  0  0  0  0  0
   60.2920   34.1150   47.3000 C   0  0  0  0  0  0  0  0  0  0  0  0
   59.0060   34.4710   46.8630 O   0  0  0  0  0  0  0  0  0  0  0  0
   58.1410   33.6450   46.1360 C   0  0  0  0  0  0  0  0  0  0  0  0
   56.8930   33.8330   46.1690 O   0  0  0  0  0  0  0  0  0  0  0  0
   58.6840   32.5210   45.4310 N   0  0  0  0  0  0  0  0  0  0  0  0
   57.9390   31.7060   44.5100 C   0  0  0  0  0  0  0  0  0  0  0  0
   57.7820   32.0840   43.1630 C   0  0  0  0  0  0  0  0  0  0  0  0
   57.0750   31.2650   42.2780 C   0  0  0  0  0  0  0  0  0  0  0  0
   56.5270   30.0600   42.7240 C   0  0  0  0  0  0  0  0  0  0  0  0
   56.6940   29.6660   44.0530 C   0  0  0  0  0  0  0  0  0  0  0  0
   57.4030   30.4800   44.9430 C   0  0  0  0  0  0  0  0  0  0  0  0
   57.5520   30.0820   46.2320 F   0  0  0  0  0  0  0  0  0  0  0  0
   61.3460   34.1650   46.3810 C   0  0  0  0  0  0  0  0  0  0  0  0
   62.6450   33.8290   46.7720 C   0  0  0  0  0  0  0  0  0  0  0  0
   66.1800   32.0900   51.1210 H   0  0  0  0  0  0  0  0  0  0  0  0
   66.1590   31.4760   49.4340 H   0  0  0  0  0  0  0  0  0  0  0  0
   64.8000   34.7750   50.9140 H   0  0  0  0  0  0  0  0  0  0  0  0
   63.4200   33.6900   51.2520 H   0  0  0  0  0  0  0  0  0  0  0  0
   64.9210   32.8340   47.7100 H   0  0  0  0  0  0  0  0  0  0  0  0
   62.0556   33.1108   50.0636 H   0  0  0  0  0  0  0  0  0  0  0  0
   59.7426   33.7232   49.3676 H   0  0  0  0  0  0  0  0  0  0  0  0
   59.6670   32.2460   45.6570 H   0  0  0  0  0  0  0  0  0  0  0  0
   58.2178   33.0285   42.8052 H   0  0  0  0  0  0  0  0  0  0  0  0
   56.9499   31.5699   41.2285 H   0  0  0  0  0  0  0  0  0  0  0  0
   55.9637   29.4212   42.0279 H   0  0  0  0  0  0  0  0  0  0  0  0
   56.2673   28.7137   44.4010 H   0  0  0  0  0  0  0  0  0  0  0  0
   61.1506   34.4712   45.3427 H   0  0  0  0  0  0  0  0  0  0  0  0
   63.4602   33.8487   46.0337 H   0  0  0  0  0  0  0  0  0  0  0  0
  1  2  1  0
  2  3  2  0
  2  4  1  0
  4  5  1  0
  5  6  2  0
  6  7  1  0
  7  8  2  0
  8  9  1  0
  9 10  1  0
 10 11  2  0
 10 12  1  0
 12 13  1  0
 13 14  2  0
 14 15  1  0
 15 16  2  0
 16 17  1  0
 17 18  2  0
 18 19  1  0
  8 20  1  0
 20 21  2  0
 21  5  1  0
 18 13  1  0
  1 22  1  0
  1 23  1  0
  3 24  1  0
  3 25  1  0
  4 26  1  0
  6 27  1  0
  7 28  1  0
 12 29  1  0
 14 30  1  0
 15 31  1  0
 16 32  1  0
 17 33  1  0
 20 34  1  0
 21 35  1  0
M  CHG  1   3   1
M  END
>  <UniqueID>  (10) 
10

>  <SMILES>  (10) 
NC(=[NH2+])Nc1ccc(OC(=O)Nc2ccccc2F)cc1

>  <Energy>  (10) 
46.017138336689825

>  <Genealogy>  (10) 
NC(=[NH2+])Nc1ccc(OC(=O)Nc2ccccc2F)cc1 (protonated)
NC(=[NH2+])Nc1ccc(OC(=O)Nc2ccccc2F)cc1 (3D coordinates assigned)
NC(=[NH2+])Nc1ccc(OC(=O)Nc2ccccc2F)cc1 (optimized conformer: 46.017138336689825 kcal/mol)

>  <smiles>  (10) 
N=C(N)Nc1ccc(OC(=O)Nc2ccccc2F)cc1

>  <score_type>  (10) 
oracle

>  <origin>  (10) 
adg

>  <m_score__min__energy>  (10) 
-5.8499999999999996

>  <m_primary>  (10) 
energy

$$$$
10:0
     RDKit          3D

 43 45  0  0  0  0  0  0  0  0999 V2000
   63.0580   31.1290   50.3520 C   0  0  0  0  0  0  0  0  0  0  0  0
   62.4910   31.9310   48.8700 S   0  0  0  0  0  0  0  0  0  0  0  0
   63.6360   32.0910   47.9100 O   0  0  0  0  0  0  0  0  0  0  0  0
   61.9600   33.2910   49.2250 O   0  0  0  0  0  0  0  0  0  0  0  0
   61.2330   30.9580   48.1170 C   0  0  0  0  0  0  0  0  0  0  0  0
   61.2060   30.8190   46.7230 C   0  0  0  0  0  0  0  0  0  0  0  0
   60.2040   30.0620   46.1100 C   0  0  0  0  0  0  0  0  0  0  0  0
   59.2180   29.4330   46.8850 C   0  0  0  0  0  0  0  0  0  0  0  0
   58.1880   28.5590   46.2240 C   0  0  0  0  0  0  0  0  0  0  0  0
   57.8460   29.1160   44.9220 N   0  0  0  0  0  0  0  0  0  0  0  0
   56.5370   29.5970   44.6010 C   0  0  0  0  0  0  0  0  0  0  0  0
   55.5160   28.9310   44.9200 O   0  0  0  0  0  0  0  0  0  0  0  0
   56.3940   30.8420   43.7900 C   0  0  0  0  0  0  0  0  0  0  0  0
   57.2880   31.9090   44.3610 C   0  0  0  0  0  0  0  0  0  0  0  0
   58.0470   32.7290   43.5140 C   0  0  0  0  0  0  0  0  0  0  0  0
   58.9150   33.6880   44.0430 C   0  0  0  0  0  0  0  0  0  0  0  0
   59.0460   33.8300   45.4320 C   0  0  0  0  0  0  0  0  0  0  0  0
   59.9000   34.8020   45.9750 C   0  0  0  0  0  0  0  0  0  0  0  0
   60.0210   34.9340   47.3600 C   0  0  0  0  0  0  0  0  0  0  0  0
   59.3030   34.0910   48.2130 C   0  0  0  0  0  0  0  0  0  0  0  0
   58.4460   33.1210   47.6840 C   0  0  0  0  0  0  0  0  0  0  0  0
   58.3040   32.9890   46.2940 C   0  0  0  0  0  0  0  0  0  0  0  0
   57.4300   32.0350   45.7530 C   0  0  0  0  0  0  0  0  0  0  0  0
   59.2510   29.5650   48.2830 C   0  0  0  0  0  0  0  0  0  0  0  0
   60.2520   30.3250   48.8950 C   0  0  0  0  0  0  0  0  0  0  0  0
   62.6759   31.6695   51.2306 H   0  0  0  0  0  0  0  0  0  0  0  0
   62.6911   30.0922   50.3712 H   0  0  0  0  0  0  0  0  0  0  0  0
   64.1578   31.1291   50.3712 H   0  0  0  0  0  0  0  0  0  0  0  0
   61.9766   31.3077   46.1087 H   0  0  0  0  0  0  0  0  0  0  0  0
   60.1882   29.9588   45.0150 H   0  0  0  0  0  0  0  0  0  0  0  0
   58.5952   27.5454   46.0943 H   0  0  0  0  0  0  0  0  0  0  0  0
   57.2866   28.5128   46.8527 H   0  0  0  0  0  0  0  0  0  0  0  0
   56.6833   30.6380   42.7485 H   0  0  0  0  0  0  0  0  0  0  0  0
   55.3484   31.1825   43.8163 H   0  0  0  0  0  0  0  0  0  0  0  0
   57.9584   32.6165   42.4234 H   0  0  0  0  0  0  0  0  0  0  0  0
   59.4969   34.3330   43.3682 H   0  0  0  0  0  0  0  0  0  0  0  0
   60.4753   35.4613   45.3084 H   0  0  0  0  0  0  0  0  0  0  0  0
   60.6838   35.7042   47.7812 H   0  0  0  0  0  0  0  0  0  0  0  0
   59.4124   34.1909   49.3030 H   0  0  0  0  0  0  0  0  0  0  0  0
   57.8820   32.4601   48.3586 H   0  0  0  0  0  0  0  0  0  0  0  0
   56.8520   31.3813   46.4228 H   0  0  0  0  0  0  0  0  0  0  0  0
   58.4864   29.0685   48.8985 H   0  0  0  0  0  0  0  0  0  0  0  0
   60.2706   30.4271   49.9901 H   0  0  0  0  0  0  0  0  0  0  0  0
  1  2  1  0
  2  3  2  0
  2  4  2  0
  2  5  1  0
  5  6  2  0
  6  7  1  0
  7  8  2  0
  8  9  1  0
  9 10  1  0
 10 11  1  0
 11 12  2  0
 11 13  1  0
 13 14  1  0
 14 15  2  0
 15 16  1  0
 16 17  2  0
 17 18  1  0
 18 19  2  0
 19 20  1  0
 20 21  2  0
 21 22  1  0
 22 23  2  0
  8 24  1  0
 24 25  2  0
 25  5  1  0
 23 14  1  0
 22 17  1  0
  1 26  1  0
  1 27  1  0
  1 28  1  0
  6 29  1  0
  7 30  1  0
  9 31  1  0
  9 32  1  0
 13 33  1  0
 13 34  1  0
 15 35  1  0
 16 36  1  0
 18 37  1  0
 19 38  1  0
 20 39  1  0
 21 40  1  0
 23 41  1  0
 24 42  1  0
 25 43  1  0
M  CHG  1  10  -1
M  END
>  <UniqueID>  (11) 
11

>  <SMILES>  (11) 
CS(=O)(=O)c1ccc(C[N-]C(=O)Cc2ccc3ccccc3c2)cc1

>  <Energy>  (11) 
37.079148985599986

>  <Genealogy>  (11) 
CS(=O)(=O)c1ccc(C[N-]C(=O)Cc2ccc3ccccc3c2)cc1 (protonated)
CS(=O)(=O)c1ccc(C[N-]C(=O)Cc2ccc3ccccc3c2)cc1 (3D coordinates assigned)
CS(=O)(=O)c1ccc(C[N-]C(=O)Cc2ccc3ccccc3c2)cc1 (optimized conformer: 37.079148985599986 kcal/mol)

>  <smiles>  (11) 
CS(=O)(=O)c1ccc(CNC(=O)Cc2ccc3ccccc3c2)cc1

>  <score_type>  (11) 
oracle

>  <origin>  (11) 
adg

>  <m_score__min__energy>  (11) 
-11.300000000000001

>  <m_primary>  (11) 
energy

$$$$
11:0
     RDKit          3D

 50 52  0  0  0  0  0  0  0  0999 V2000
   58.5586   34.8013   46.3403 H   0  0  0  0  0  0  0  0  0  0  0  0
   58.2440   33.8730   45.8410 C   0  0  0  0  0  0  0  0  0  0  0  0
   58.2210   32.6620   46.5460 C   0  0  0  0  0  0  0  0  0  0  0  0
   58.5050   32.6290   48.0210 C   0  0  0  0  0  0  0  0  0  0  0  0
   59.0932   31.7287   48.2521 H   0  0  0  0  0  0  0  0  0  0  0  0
   57.5451   32.6168   48.5581 H   0  0  0  0  0  0  0  0  0  0  0  0
   59.2930   33.8690   48.4680 C   0  0  0  0  0  0  0  0  0  0  0  0
   59.1288   34.0261   49.5443 H   0  0  0  0  0  0  0  0  0  0  0  0
   58.9359   34.7295   47.8832 H   0  0  0  0  0  0  0  0  0  0  0  0
   60.7760   33.7140   48.2170 C   0  0  0  0  0  0  0  0  0  0  0  0
   61.2650   33.8290   46.9040 C   0  0  0  0  0  0  0  0  0  0  0  0
   60.5731   34.0683   46.0830 H   0  0  0  0  0  0  0  0  0  0  0  0
   62.6210   33.6420   46.6340 C   0  0  0  0  0  0  0  0  0  0  0  0
   62.9949   33.7399   45.6041 H   0  0  0  0  0  0  0  0  0  0  0  0
   63.5030   33.3310   47.6690 C   0  0  0  0  0  0  0  0  0  0  0  0
   64.5723   33.1878   47.4542 H   0  0  0  0  0  0  0  0  0  0  0  0
   63.0320   33.2010   48.9770 C   0  0  0  0  0  0  0  0  0  0  0  0
   63.7328   32.9524   49.7876 H   0  0  0  0  0  0  0  0  0  0  0  0
   61.6650   33.3860   49.2660 C   0  0  0  0  0  0  0  0  0  0  0  0
   61.1610   33.2410   50.5680 O   0  0  0  0  0  0  0  0  0  0  0  0
   61.4030   32.1180   51.4080 C   0  0  0  0  0  0  0  0  0  0  0  0
   61.3364   32.4271   52.4616 H   0  0  0  0  0  0  0  0  0  0  0  0
   60.6518   31.3403   51.2058 H   0  0  0  0  0  0  0  0  0  0  0  0
   62.4078   31.7187   51.2058 H   0  0  0  0  0  0  0  0  0  0  0  0
   57.8290   31.5220   45.9130 N   0  0  0  0  0  0  0  0  0  0  0  0
   57.4670   31.5000   44.6010 C   0  0  0  0  0  0  0  0  0  0  0  0
   57.0820   30.3670   44.0860 N   0  0  0  0  0  0  0  0  0  0  0  0
   56.4070   29.2860   44.7470 C   0  0  0  0  0  0  0  0  0  0  0  0
   55.1600   29.3630   44.9070 O   0  0  0  0  0  0  0  0  0  0  0  0
   57.1840   28.2010   45.4520 C   0  0  0  0  0  0  0  0  0  0  0  0
   57.0262   28.3063   46.5355 H   0  0  0  0  0  0  0  0  0  0  0  0
   56.8160   27.2368   45.0715 H   0  0  0  0  0  0  0  0  0  0  0  0
   58.6960   28.2550   45.1710 C   0  0  0  0  0  0  0  0  0  0  0  0
   59.0659   27.2300   45.0210 H   0  0  0  0  0  0  0  0  0  0  0  0
   58.8522   28.8707   44.2729 H   0  0  0  0  0  0  0  0  0  0  0  0
   59.4600   28.8860   46.3050 C   0  0  0  0  0  0  0  0  0  0  0  0
   60.5110   29.7820   46.0450 C   0  0  0  0  0  0  0  0  0  0  0  0
   60.8061   29.9940   45.0067 H   0  0  0  0  0  0  0  0  0  0  0  0
   61.1830   30.4050   47.1010 C   0  0  0  0  0  0  0  0  0  0  0  0
   62.0067   31.1035   46.8923 H   0  0  0  0  0  0  0  0  0  0  0  0
   60.8090   30.1410   48.4220 C   0  0  0  0  0  0  0  0  0  0  0  0
   61.3386   30.6320   49.2517 H   0  0  0  0  0  0  0  0  0  0  0  0
   59.7630   29.2540   48.6890 C   0  0  0  0  0  0  0  0  0  0  0  0
   59.4699   29.0477   49.7290 H   0  0  0  0  0  0  0  0  0  0  0  0
   59.0880   28.6280   47.6360 C   0  0  0  0  0  0  0  0  0  0  0  0
   58.2637   27.9318   47.8499 H   0  0  0  0  0  0  0  0  0  0  0  0
   57.4650   32.7060   43.8750 C   0  0  0  0  0  0  0  0  0  0  0  0
   57.1509   32.7168   42.8208 H   0  0  0  0  0  0  0  0  0  0  0  0
   57.8640   33.8880   44.5010 C   0  0  0  0  0  0  0  0  0  0  0  0
   57.8784   34.8317   43.9360 H   0  0  0  0  0  0  0  0  0  0  0  0
  1  2  1  0
  2  3  2  0
  3  4  1  0
  4  5  1  0
  4  6  1  0
  4  7  1  0
  7  8  1  0
  7  9  1  0
  7 10  1  0
 10 11  2  0
 11 12  1  0
 11 13  1  0
 13 14  1  0
 13 15  2  0
 15 16  1  0
 15 17  1  0
 17 18  1  0
 17 19  2  0
 19 20  1  0
 20 21  1  0
 21 22  1  0
 21 23  1  0
 21 24  1  0
  3 25  1  0
 25 26  1  0
 26 27  2  0
 27 28  1  0
 28 29  2  0
 28 30  1  0
 30 31  1  0
 30 32  1  0
 30 33  1  0
 33 34  1  0
 33 35  1  0
 33 36  1  0
 36 37  2  0
 37 38  1  0
 37 39  1  0
 39 40  1  0
 39 41  2  0
 41 42  1  0
 41 43  1  0
 43 44  1  0
 43 45  2  0
 45 46  1  0
 26 47  1  0
 47 48  1  0
 47 49  2  0
 49 50  1  0
 49  2  1  0
 19 10  1  0
 45 36  1  0
M  CHG  1  25  -1
M  END
>  <UniqueID>  (12) 
12

>  <SMILES>  (12) 
COc1ccccc1CCc1ccc/c(=N\C(=O)CCc2ccccc2)[n-]1

>  <Energy>  (12) 
53.139072143668216

>  <Genealogy>  (12) 
COc1ccccc1CCc1cccc(=NC(=O)CCc2ccccc2)[n-]1 (protonated)
COc1ccccc1CCc1ccc/c(=N\C(=O)CCc2ccccc2)[n-]1 (cis-trans isomerization)
COc1ccccc1CCc1ccc/c(=N\C(=O)CCc2ccccc2)[n-]1 (3D coordinates assigned)
COc1ccccc1CCc1ccc/c(=N\C(=O)CCc2ccccc2)[n-]1 (optimized conformer: 53.139072143668216 kcal/mol)

>  <smiles>  (12) 
COc1ccccc1CCc1cccc(=NC(=O)CCc2ccccc2)[nH]1

>  <score_type>  (12) 
oracle

>  <origin>  (12) 
adg

>  <m_score__min__energy>  (12) 
-10.15

>  <m_primary>  (12) 
energy

$$$$
12:0
     RDKit          3D

 33 35  0  0  0  0  0  0  0  0999 V2000
   64.2480   32.6970   49.1510 C   0  0  0  0  0  0  0  0  0  0  0  0
   63.3940   31.6030   49.4700 O   0  0  0  0  0  0  0  0  0  0  0  0
   62.3040   31.1970   48.6850 C   0  0  0  0  0  0  0  0  0  0  0  0
   62.3470   31.1860   47.2780 C   0  0  0  0  0  0  0  0  0  0  0  0
   61.2350   30.7700   46.5410 C   0  0  0  0  0  0  0  0  0  0  0  0
   60.0680   30.3520   47.1970 C   0  0  0  0  0  0  0  0  0  0  0  0
   58.8830   29.9280   46.4200 C   0  0  0  0  0  0  0  0  0  0  0  0
   58.3160   30.8480   45.6210 C   0  0  0  0  0  0  0  0  0  0  0  0
   57.0540   30.5870   44.9240 C   0  0  0  0  0  0  0  0  0  0  0  0
   56.5590   31.4650   44.1680 O   0  0  0  0  0  0  0  0  0  0  0  0
   56.3660   29.3130   45.1350 C   0  0  0  0  0  0  0  0  0  0  0  0
   55.2460   29.1150   44.5890 O   0  0  0  0  0  0  0  0  0  0  0  0
   57.0120   28.2760   45.9780 C   0  0  0  0  0  0  0  0  0  0  0  0
   56.4110   27.0110   46.1670 C   0  0  0  0  0  0  0  0  0  0  0  0
   55.1670   26.7130   45.6190 O   0  0  0  0  0  0  0  0  0  0  0  0
   57.0610   26.0290   46.9090 C   0  0  0  0  0  0  0  0  0  0  0  0
   58.3190   26.2720   47.4480 C   0  0  0  0  0  0  0  0  0  0  0  0
   58.9410   27.5140   47.2750 C   0  0  0  0  0  0  0  0  0  0  0  0
   60.2280   27.6900   47.7820 O   0  0  0  0  0  0  0  0  0  0  0  0
   58.2760   28.5560   46.5750 C   0  0  0  0  0  0  0  0  0  0  0  0
   60.0190   30.3750   48.5990 C   0  0  0  0  0  0  0  0  0  0  0  0
   61.1320   30.7900   49.3350 C   0  0  0  0  0  0  0  0  0  0  0  0
   64.6108   33.1618   50.0796 H   0  0  0  0  0  0  0  0  0  0  0  0
   65.1044   32.3345   48.5635 H   0  0  0  0  0  0  0  0  0  0  0  0
   63.6884   33.4398   48.5635 H   0  0  0  0  0  0  0  0  0  0  0  0
   63.2607   31.5065   46.7560 H   0  0  0  0  0  0  0  0  0  0  0  0
   61.2751   30.7704   45.4417 H   0  0  0  0  0  0  0  0  0  0  0  0
   58.8116   31.8208   45.4871 H   0  0  0  0  0  0  0  0  0  0  0  0
   56.5762   25.0548   47.0698 H   0  0  0  0  0  0  0  0  0  0  0  0
   58.8305   25.4809   48.0158 H   0  0  0  0  0  0  0  0  0  0  0  0
   60.4140   27.7040   48.7790 H   0  0  0  0  0  0  0  0  0  0  0  0
   59.1014   30.0653   49.1206 H   0  0  0  0  0  0  0  0  0  0  0  0
   61.0873   30.7971   50.4341 H   0  0  0  0  0  0  0  0  0  0  0  0
  1  2  1  0
  2  3  1  0
  3  4  2  0
  4  5  1  0
  5  6  2  0
  6  7  1  0
  7  8  2  0
  8  9  1  0
  9 10  2  0
  9 11  1  0
 11 12  2  0
 11 13  1  0
 13 14  2  0
 14 15  1  0
 14 16  1  0
 16 17  2  0
 17 18  1  0
 18 19  1  0
 18 20  2  0
  6 21  1  0
 21 22  2  0
 22  3  1  0
 20  7  1  0
 20 13  1  0
  1 23  1  0
  1 24  1  0
  1 25  1  0
  4 26  1  0
  5 27  1  0
  8 28  1  0
 16 29  1  0
 17 30  1  0
 19 31  1  0
 21 32  1  0
 22 33  1  0
M  CHG  1  15  -1
M  END
>  <UniqueID>  (13) 
13

>  <SMILES>  (13) 
COc1ccc(C2=CC(=O)C(=O)c3c([O-])ccc(O)c32)cc1

>  <Energy>  (13) 
49.07947029640717

>  <Genealogy>  (13) 
COc1ccc(C2=CC(=O)C(=O)c3c([O-])ccc(O)c32)cc1 (protonated)
COc1ccc(C2=CC(=O)C(=O)c3c([O-])ccc(O)c32)cc1 (3D coordinates assigned)
COc1ccc(C2=CC(=O)C(=O)c3c([O-])ccc(O)c32)cc1 (nonaromatic ring conformer: 49.07947029640717 kcal/mol)

>  <smiles>  (13) 
COc1ccc(C2=CC(=O)C(=O)c3c(O)ccc(O)c32)cc1

>  <score_type>  (13) 
oracle

>  <origin>  (13) 
adg

>  <m_score__min__energy>  (13) 
-9.5700000000000003

>  <m_primary>  (13) 
energy

$$$$
13:0
     RDKit          3D

 34 36  0  0  0  0  0  0  0  0999 V2000
   63.4240   33.4760   48.5770 N   0  0  0  0  0  0  0  0  0  0  0  0
   62.6100   32.5100   47.8430 C   0  0  0  0  0  0  0  0  0  0  0  0
   61.2530   33.0840   47.5110 C   0  0  0  0  0  0  0  0  0  0  0  0
   60.5710   32.6400   46.3660 C   0  0  0  0  0  0  0  0  0  0  0  0
   59.3240   33.1860   46.0200 C   0  0  0  0  0  0  0  0  0  0  0  0
   58.5780   32.6710   44.8210 C   0  0  0  0  0  0  0  0  0  0  0  0
   58.0830   31.2860   45.0870 C   0  0  0  0  0  0  0  0  0  0  0  0
   56.8090   30.9460   44.7630 N   0  0  0  0  0  0  0  0  0  0  0  0
   56.3320   29.7010   45.0190 C   0  0  0  0  0  0  0  0  0  0  0  0
   55.1450   29.4230   44.7000 O   0  0  0  0  0  0  0  0  0  0  0  0
   57.1690   28.7520   45.6320 C   0  0  0  0  0  0  0  0  0  0  0  0
   56.7650   27.4320   45.9400 C   0  0  0  0  0  0  0  0  0  0  0  0
   55.4830   26.9810   45.6450 O   0  0  0  0  0  0  0  0  0  0  0  0
   57.6650   26.5550   46.5540 C   0  0  0  0  0  0  0  0  0  0  0  0
   58.9620   26.9750   46.8660 C   0  0  0  0  0  0  0  0  0  0  0  0
   59.3700   28.2760   46.5660 C   0  0  0  0  0  0  0  0  0  0  0  0
   58.4830   29.1660   45.9510 C   0  0  0  0  0  0  0  0  0  0  0  0
   58.8830   30.4000   45.6720 O   0  0  0  0  0  0  0  0  0  0  0  0
   58.7540   34.1740   46.8370 C   0  0  0  0  0  0  0  0  0  0  0  0
   59.4350   34.6310   47.9670 C   0  0  0  0  0  0  0  0  0  0  0  0
   60.6830   34.0980   48.3040 C   0  0  0  0  0  0  0  0  0  0  0  0
   61.3470   34.5800   49.4260 O   0  0  0  0  0  0  0  0  0  0  0  0
   63.1890   34.4380   48.2410 H   0  0  0  0  0  0  0  0  0  0  0  0
   63.1740   33.4250   49.5920 H   0  0  0  0  0  0  0  0  0  0  0  0
   63.1252   32.2422   46.9087 H   0  0  0  0  0  0  0  0  0  0  0  0
   62.4683   31.6207   48.4747 H   0  0  0  0  0  0  0  0  0  0  0  0
   61.0176   31.8577   45.7347 H   0  0  0  0  0  0  0  0  0  0  0  0
   57.7226   33.3304   44.6126 H   0  0  0  0  0  0  0  0  0  0  0  0
   59.2540   32.6539   43.9534 H   0  0  0  0  0  0  0  0  0  0  0  0
   57.3507   25.5283   46.7930 H   0  0  0  0  0  0  0  0  0  0  0  0
   59.6627   26.2782   47.3492 H   0  0  0  0  0  0  0  0  0  0  0  0
   60.3910   28.6019   46.8137 H   0  0  0  0  0  0  0  0  0  0  0  0
   57.7670   34.5901   46.5864 H   0  0  0  0  0  0  0  0  0  0  0  0
   58.9872   35.4148   48.5957 H   0  0  0  0  0  0  0  0  0  0  0  0
  1  2  1  0
  2  3  1  0
  3  4  2  0
  4  5  1  0
  5  6  1  0
  6  7  1  0
  7  8  2  0
  8  9  1  0
  9 10  2  0
  9 11  1  0
 11 12  2  0
 12 13  1  0
 12 14  1  0
 14 15  2  0
 15 16  1  0
 16 17  2  0
 17 18  1  0
  5 19  2  0
 19 20  1  0
 20 21  2  0
 21 22  1  0
 21  3  1  0
 18  7  1  0
 17 11  1  0
  1 23  1  0
  1 24  1  0
  2 25  1  0
  2 26  1  0
  4 27  1  0
  6 28  1  0
  6 29  1  0
 14 30  1  0
 15 31  1  0
 16 32  1  0
 19 33  1  0
 20 34  1  0
M  CHG  2  13  -1  22  -1
M  END
>  <UniqueID>  (14) 
14

>  <SMILES>  (14) 
NCc1cc(Cc2nc(=O)c3c([O-])cccc3o2)ccc1[O-]

>  <Energy>  (14) 
40.49174462919024

>  <Genealogy>  (14) 
NCc1cc(Cc2nc(=O)c3c([O-])cccc3o2)ccc1[O-] (protonated)
NCc1cc(Cc2nc(=O)c3c([O-])cccc3o2)ccc1[O-] (3D coordinates assigned)
NCc1cc(Cc2nc(=O)c3c([O-])cccc3o2)ccc1[O-] (optimized conformer: 40.49174462919024 kcal/mol)

>  <smiles>  (14) 
NCc1cc(Cc2nc(=O)c3c(O)cccc3o2)ccc1O

>  <score_type>  (14) 
oracle

>  <origin>  (14) 
adg

>  <m_score__min__energy>  (14) 
-11.300000000000001

>  <m_primary>  (14) 
energy

$$$$
14:0
     RDKit          3D

 52 54  0  0  0  0  0  0  0  0999 V2000
   63.7470   33.0950   47.1040 C   0  0  0  0  0  0  0  0  0  0  0  0
   62.3310   33.4270   47.4760 C   0  0  0  0  0  0  0  0  0  0  0  0
   61.9700   33.5780   48.8240 C   0  0  0  0  0  0  0  0  0  0  0  0
   60.6630   33.9350   49.1660 C   0  0  0  0  0  0  0  0  0  0  0  0
   59.7120   34.1560   48.1670 C   0  0  0  0  0  0  0  0  0  0  0  0
   60.0630   34.0230   46.8180 C   0  0  0  0  0  0  0  0  0  0  0  0
   58.8640   34.3530   45.5680 S   0  0  0  0  0  0  0  0  0  0  0  0
   59.2380   35.6310   44.8670 O   0  0  0  0  0  0  0  0  0  0  0  0
   57.4910   34.5060   46.1630 O   0  0  0  0  0  0  0  0  0  0  0  0
   58.8480   33.0580   44.4150 N   0  0  0  0  0  0  0  0  0  0  0  0
   58.4180   31.7170   44.6840 C   0  0  0  0  0  0  0  0  0  0  0  0
   58.9780   31.0400   45.7710 C   0  0  0  0  0  0  0  0  0  0  0  0
   58.5580   29.7460   46.0950 C   0  0  0  0  0  0  0  0  0  0  0  0
   57.5630   29.1070   45.3350 C   0  0  0  0  0  0  0  0  0  0  0  0
   57.0750   27.7520   45.6920 C   0  0  0  0  0  0  0  0  0  0  0  0
   55.8390   27.5010   45.6190 O   0  0  0  0  0  0  0  0  0  0  0  0
   57.9810   26.7490   46.1870 N   0  0  0  0  0  0  0  0  0  0  0  0
   57.6050   25.3780   46.4030 C   0  0  0  0  0  0  0  0  0  0  0  0
   57.3780   24.8780   47.6940 C   0  0  0  0  0  0  0  0  0  0  0  0
   57.0270   23.5410   47.8790 C   0  0  0  0  0  0  0  0  0  0  0  0
   56.8740   22.6780   46.7800 C   0  0  0  0  0  0  0  0  0  0  0  0
   56.5580   21.2280   47.0430 C   0  0  0  0  0  0  0  0  0  0  0  0
   57.0730   23.1830   45.4670 C   0  0  0  0  0  0  0  0  0  0  0  0
   56.9070   22.1650   44.0210 S   0  0  0  0  0  0  0  0  0  0  0  0
   56.3390   23.1330   42.6370 C   0  0  0  0  0  0  0  0  0  0  0  0
   55.8980   21.0790   44.2760 O   0  0  0  0  0  0  0  0  0  0  0  0
   58.2210   21.5180   43.6910 O   0  0  0  0  0  0  0  0  0  0  0  0
   57.4280   24.5320   45.2990 C   0  0  0  0  0  0  0  0  0  0  0  0
   57.0280   29.7750   44.2190 C   0  0  0  0  0  0  0  0  0  0  0  0
   57.4520   31.0660   43.8940 C   0  0  0  0  0  0  0  0  0  0  0  0
   61.3760   33.6630   46.4750 C   0  0  0  0  0  0  0  0  0  0  0  0
   64.3431   32.9552   48.0179 H   0  0  0  0  0  0  0  0  0  0  0  0
   63.7627   32.1688   46.5108 H   0  0  0  0  0  0  0  0  0  0  0  0
   64.1728   33.9177   46.5108 H   0  0  0  0  0  0  0  0  0  0  0  0
   62.7183   33.4148   49.6136 H   0  0  0  0  0  0  0  0  0  0  0  0
   60.3824   34.0422   50.2242 H   0  0  0  0  0  0  0  0  0  0  0  0
   58.6840   34.4354   48.4410 H   0  0  0  0  0  0  0  0  0  0  0  0
   59.7554   31.5289   46.3765 H   0  0  0  0  0  0  0  0  0  0  0  0
   59.0099   29.2241   46.9514 H   0  0  0  0  0  0  0  0  0  0  0  0
   58.8940   27.0670   46.5860 H   0  0  0  0  0  0  0  0  0  0  0  0
   57.4773   25.5435   48.5642 H   0  0  0  0  0  0  0  0  0  0  0  0
   56.8679   23.1570   48.8975 H   0  0  0  0  0  0  0  0  0  0  0  0
   56.5197   21.0521   48.1282 H   0  0  0  0  0  0  0  0  0  0  0  0
   55.5843   20.9781   46.5964 H   0  0  0  0  0  0  0  0  0  0  0  0
   57.3394   20.5956   46.5964 H   0  0  0  0  0  0  0  0  0  0  0  0
   55.8145   24.0269   43.0054 H   0  0  0  0  0  0  0  0  0  0  0  0
   57.2006   23.4394   42.0256 H   0  0  0  0  0  0  0  0  0  0  0  0
   55.6513   22.5303   42.0256 H   0  0  0  0  0  0  0  0  0  0  0  0
   57.5695   24.9313   44.2838 H   0  0  0  0  0  0  0  0  0  0  0  0
   56.2696   29.2771   43.5970 H   0  0  0  0  0  0  0  0  0  0  0  0
   57.0287   31.5762   43.0162 H   0  0  0  0  0  0  0  0  0  0  0  0
   61.6577   33.5654   45.4162 H   0  0  0  0  0  0  0  0  0  0  0  0
  1  2  1  0
  2  3  2  0
  3  4  1  0
  4  5  2  0
  5  6  1  0
  6  7  1  0
  7  8  2  0
  7  9  2  0
  7 10  1  0
 10 11  1  0
 11 12  2  0
 12 13  1  0
 13 14  2  0
 14 15  1  0
 15 16  2  0
 15 17  1  0
 17 18  1  0
 18 19  2  0
 19 20  1  0
 20 21  2  0
 21 22  1  0
 21 23  1  0
 23 24  1  0
 24 25  1  0
 24 26  2  0
 24 27  2  0
 23 28  2  0
 14 29  1  0
 29 30  2  0
  6 31  2  0
 31  2  1  0
 30 11  1  0
 28 18  1  0
  1 32  1  0
  1 33  1  0
  1 34  1  0
  3 35  1  0
  4 36  1  0
  5 37  1  0
 12 38  1  0
 13 39  1  0
 17 40  1  0
 19 41  1  0
 20 42  1  0
 22 43  1  0
 22 44  1  0
 22 45  1  0
 25 46  1  0
 25 47  1  0
 25 48  1  0
 28 49  1  0
 29 50  1  0
 30 51  1  0
 31 52  1  0
M  CHG  1  10  -1
M  END
>  <UniqueID>  (15) 
15

>  <SMILES>  (15) 
Cc1cccc(S(=O)(=O)[N-]c2ccc(C(=O)Nc3ccc(C)c(S(C)(=O)=O)c3)cc2)c1

>  <Energy>  (15) 
62.34886815466403

>  <Genealogy>  (15) 
Cc1cccc(S(=O)(=O)[N-]c2ccc(C(=O)Nc3ccc(C)c(S(C)(=O)=O)c3)cc2)c1 (protonated)
Cc1cccc(S(=O)(=O)[N-]c2ccc(C(=O)Nc3ccc(C)c(S(C)(=O)=O)c3)cc2)c1 (3D coordinates assigned)
Cc1cccc(S(=O)(=O)[N-]c2ccc(C(=O)Nc3ccc(C)c(S(C)(=O)=O)c3)cc2)c1 (optimized conformer: 62.34886815466403 kcal/mol)

>  <smiles>  (15) 
Cc1cccc(S(=O)(=O)Nc2ccc(C(=O)Nc3ccc(C)c(S(C)(=O)=O)c3)cc2)c1

>  <score_type>  (15) 
oracle

>  <origin>  (15) 
adg

>  <m_score__min__energy>  (15) 
-10.94

>  <m_primary>  (15) 
energy

$$$$
15:0
     RDKit          3D

 32 33  0  0  0  0  0  0  0  0999 V2000
   54.0290   28.9430   50.7420 H   0  0  0  0  0  0  0  0  0  0  0  0
   53.4210   29.7350   50.5690 O   0  0  0  0  0  0  0  0  0  0  0  0
   52.7300   30.3700   51.6020 C   0  0  0  0  0  0  0  0  0  0  0  0
   51.8420   31.4130   51.2950 C   0  0  0  0  0  0  0  0  0  0  0  0
   51.6980   31.7173   50.2478 H   0  0  0  0  0  0  0  0  0  0  0  0
   51.1400   32.0670   52.3100 C   0  0  0  0  0  0  0  0  0  0  0  0
   50.2620   33.0970   51.9960 O   0  0  0  0  0  0  0  0  0  0  0  0
   51.3200   31.6840   53.6400 C   0  0  0  0  0  0  0  0  0  0  0  0
   50.7669   32.1991   54.4393 H   0  0  0  0  0  0  0  0  0  0  0  0
   52.2010   30.6480   53.9580 C   0  0  0  0  0  0  0  0  0  0  0  0
   52.3374   30.3534   55.0090 H   0  0  0  0  0  0  0  0  0  0  0  0
   52.9160   29.9770   52.9490 C   0  0  0  0  0  0  0  0  0  0  0  0
   53.8360   28.8870   53.3490 C   0  0  0  0  0  0  0  0  0  0  0  0
   53.4535   28.0586   53.9634 H   0  0  0  0  0  0  0  0  0  0  0  0
   55.0850   28.8880   52.9900 N   0  0  0  0  0  0  0  0  0  0  0  0
   55.9760   30.0170   52.9940 C   0  0  0  0  0  0  0  0  0  0  0  0
   56.1060   30.7560   51.8150 C   0  0  0  0  0  0  0  0  0  0  0  0
   55.5377   30.4593   50.9211 H   0  0  0  0  0  0  0  0  0  0  0  0
   56.9490   31.8660   51.7600 C   0  0  0  0  0  0  0  0  0  0  0  0
   57.0432   32.4325   50.8218 H   0  0  0  0  0  0  0  0  0  0  0  0
   57.6780   32.2670   52.8900 C   0  0  0  0  0  0  0  0  0  0  0  0
   58.5760   33.4730   52.8010 C   0  0  0  0  0  0  0  0  0  0  0  0
   58.8312   33.8157   53.8146 H   0  0  0  0  0  0  0  0  0  0  0  0
   59.4967   33.2056   52.2617 H   0  0  0  0  0  0  0  0  0  0  0  0
   58.0559   34.2784   52.2617 H   0  0  0  0  0  0  0  0  0  0  0  0
   57.5350   31.5460   54.1000 C   0  0  0  0  0  0  0  0  0  0  0  0
   58.2820   31.9530   55.3430 C   0  0  0  0  0  0  0  0  0  0  0  0
   57.7123   31.6426   56.2313 H   0  0  0  0  0  0  0  0  0  0  0  0
   59.2693   31.4681   55.3527 H   0  0  0  0  0  0  0  0  0  0  0  0
   58.4099   33.0455   55.3527 H   0  0  0  0  0  0  0  0  0  0  0  0
   56.6850   30.4260   54.1410 C   0  0  0  0  0  0  0  0  0  0  0  0
   56.5725   29.8629   55.0792 H   0  0  0  0  0  0  0  0  0  0  0  0
  1  2  1  0
  2  3  1  0
  3  4  2  0
  4  5  1  0
  4  6  1  0
  6  7  1  0
  6  8  2  0
  8  9  1  0
  8 10  1  0
 10 11  1  0
 10 12  2  0
 12 13  1  0
 13 14  1  0
 13 15  2  0
 15 16  1  0
 16 17  2  0
 17 18  1  0
 17 19  1  0
 19 20  1  0
 19 21  2  0
 21 22  1  0
 22 23  1  0
 22 24  1  0
 22 25  1  0
 21 26  1  0
 26 27  1  0
 27 28  1  0
 27 29  1  0
 27 30  1  0
 26 31  2  0
 31 32  1  0
 12  3  1  0
 31 16  1  0
M  CHG  1   7  -1
M  END
>  <UniqueID>  (16) 
16

>  <SMILES>  (16) 
Cc1ccc(/N=C/c2ccc([O-])cc2O)cc1C

>  <Energy>  (16) 
36.90788746408348

>  <Genealogy>  (16) 
Cc1ccc(N=Cc2ccc([O-])cc2O)cc1C (protonated)
Cc1ccc(/N=C/c2ccc([O-])cc2O)cc1C (cis-trans isomerization)
Cc1ccc(/N=C/c2ccc([O-])cc2O)cc1C (3D coordinates assigned)
Cc1ccc(/N=C/c2ccc([O-])cc2O)cc1C (optimized conformer: 36.90788746408348 kcal/mol)

>  <smiles>  (16) 
Cc1ccc(N=Cc2ccc(O)cc2O)cc1C

>  <score_type>  (16) 
oracle

>  <origin>  (16) 
adg

>  <m_score__min__energy>  (16) 
-9.7699999999999996

>  <m_primary>  (16) 
energy

$$$$
16:0
     RDKit          3D

 51 53  0  0  1  0  0  0  0  0999 V2000
   66.3110   32.7280   49.7630 C   0  0  0  0  0  0  0  0  0  0  0  0
   64.8180   32.8820   49.6870 C   0  0  0  0  0  0  0  0  0  0  0  0
   64.1330   33.1630   50.7080 O   0  0  0  0  0  0  0  0  0  0  0  0
   64.1460   32.7180   48.4670 N   0  0  0  0  0  0  0  0  0  0  0  0
   62.7380   32.8460   48.3030 C   0  0  0  0  0  0  0  0  0  0  0  0
   62.0260   31.7250   47.9060 C   0  0  0  0  0  0  0  0  0  0  0  0
   60.6440   31.8160   47.7340 C   0  0  0  0  0  0  0  0  0  0  0  0
   59.9680   33.0140   47.9560 C   0  0  0  0  0  0  0  0  0  0  0  0
   58.5220   33.0720   47.7670 C   0  0  0  0  0  0  0  0  0  0  0  0
   57.7960   32.6960   48.7170 O   0  0  0  0  0  0  0  0  0  0  0  0
   57.9950   33.5430   46.5420 N   0  0  0  0  0  0  0  0  0  0  0  0
   58.0260   32.7430   45.5260 C   0  0  0  0  0  0  0  0  0  0  0  0
   57.8300   33.2280   44.2450 C   0  0  0  0  0  0  0  0  0  0  0  0
   57.8580   32.3930   43.1410 C   0  0  0  0  0  0  0  0  0  0  0  0
   58.0860   31.0850   43.3590 N   0  0  0  0  0  0  0  0  0  0  0  0
   58.2800   30.6010   44.6190 C   0  0  0  0  0  0  0  0  0  0  0  0
   58.5110   29.2040   44.7120 N   0  0  0  0  0  0  0  0  0  0  0  0
   59.4560   28.6070   45.6390 C   0  0  0  0  0  0  0  0  0  0  0  0
   58.6140   27.6750   46.5120 C   0  0  0  0  0  0  0  0  0  0  0  0
   58.0210   26.5860   45.6830 C   0  0  0  0  0  0  0  0  0  0  0  0
   56.5540   26.3480   46.0460 C   0  0  0  0  0  0  0  0  0  0  0  0
   58.7660   25.2960   45.9730 C   0  0  0  0  0  0  0  0  0  0  0  0
   58.0780   26.8230   44.1940 C   0  0  0  0  0  0  0  0  0  0  0  0
   57.8000   28.2650   43.8730 C   0  0  0  0  0  0  0  0  0  0  0  0
   57.0360   28.6400   42.9780 O   0  0  0  0  0  0  0  0  0  0  0  0
   58.2520   31.4180   45.6940 N   0  0  0  0  0  0  0  0  0  0  0  0
   60.7060   34.1180   48.3540 C   0  0  0  0  0  0  0  0  0  0  0  0
   62.0770   34.0420   48.5280 C   0  0  0  0  0  0  0  0  0  0  0  0
   66.6231   32.6958   50.8173 H   0  0  0  0  0  0  0  0  0  0  0  0
   66.6092   31.7943   49.2637 H   0  0  0  0  0  0  0  0  0  0  0  0
   66.7935   33.5811   49.2637 H   0  0  0  0  0  0  0  0  0  0  0  0
   64.7100   32.4830   47.6040 H   0  0  0  0  0  0  0  0  0  0  0  0
   62.5457   30.7720   47.7281 H   0  0  0  0  0  0  0  0  0  0  0  0
   60.0788   30.9268   47.4178 H   0  0  0  0  0  0  0  0  0  0  0  0
   57.6475   34.3031   44.1003 H   0  0  0  0  0  0  0  0  0  0  0  0
   57.7000   32.7838   42.1250 H   0  0  0  0  0  0  0  0  0  0  0  0
   58.1060   30.4620   42.5210 H   0  0  0  0  0  0  0  0  0  0  0  0
   60.2251   28.0386   45.0955 H   0  0  0  0  0  0  0  0  0  0  0  0
   59.9877   29.3642   46.2339 H   0  0  0  0  0  0  0  0  0  0  0  0
   59.2523   27.2319   47.2907 H   0  0  0  0  0  0  0  0  0  0  0  0
   57.8022   28.2548   46.9756 H   0  0  0  0  0  0  0  0  0  0  0  0
   56.4453   26.3304   47.1405 H   0  0  0  0  0  0  0  0  0  0  0  0
   55.9371   27.1578   45.6293 H   0  0  0  0  0  0  0  0  0  0  0  0
   56.2248   25.3847   45.6293 H   0  0  0  0  0  0  0  0  0  0  0  0
   58.8469   25.1559   47.0610 H   0  0  0  0  0  0  0  0  0  0  0  0
   58.2178   24.4494   45.5341 H   0  0  0  0  0  0  0  0  0  0  0  0
   59.7733   25.3477   45.5341 H   0  0  0  0  0  0  0  0  0  0  0  0
   59.0795   26.5577   43.8245 H   0  0  0  0  0  0  0  0  0  0  0  0
   57.3134   26.1993   43.7077 H   0  0  0  0  0  0  0  0  0  0  0  0
   60.1918   35.0734   48.5351 H   0  0  0  0  0  0  0  0  0  0  0  0
   62.6415   34.9314   48.8449 H   0  0  0  0  0  0  0  0  0  0  0  0
  1  2  1  0
  2  3  2  0
  2  4  1  0
  4  5  1  0
  5  6  2  0
  6  7  1  0
  7  8  2  0
  8  9  1  0
  9 10  2  0
  9 11  1  0
 11 12  2  0
 12 13  1  0
 13 14  2  0
 14 15  1  0
 15 16  1  0
 16 17  1  0
 17 18  1  0
 18 19  1  0
 19 20  1  0
 20 21  1  0
 20 22  1  0
 20 23  1  0
 23 24  1  0
 24 25  2  0
 16 26  2  0
  8 27  1  0
 27 28  2  0
 28  5  1  0
 26 12  1  0
 24 17  1  0
  1 29  1  0
  1 30  1  0
  1 31  1  0
  4 32  1  0
  6 33  1  0
  7 34  1  0
 13 35  1  0
 14 36  1  0
 15 37  1  0
 18 38  1  0
 18 39  1  0
 19 40  1  0
 19 41  1  0
 21 42  1  0
 21 43  1  0
 21 44  1  0
 22 45  1  0
 22 46  1  0
 22 47  1  0
 23 48  1  0
 23 49  1  0
 27 50  1  0
 28 51  1  0
M  END
>  <smiles>  (17) 
CC(=O)Nc1ccc(C(=O)N=c2cc[nH]c(N3CCC(C)(C)CC3=O)n2)cc1

>  <score_type>  (17) 
oracle

>  <origin>  (17) 
adg

>  <m_score__min__energy>  (17) 
-9.0700000000000003

>  <m_primary>  (17) 
energy

$$$$
17:0
     RDKit          3D

 55 57  0  0  0  0  0  0  0  0999 V2000
   54.6150   26.3370   45.9390 O   0  0  0  0  0  0  0  0  0  0  0  0
   55.3940   25.3480   45.9970 C   0  0  0  0  0  0  0  0  0  0  0  0
   54.9070   24.1100   46.3990 O   0  0  0  0  0  0  0  0  0  0  0  0
   56.8270   25.4950   45.5930 C   0  0  0  0  0  0  0  0  0  0  0  0
   57.1870   26.9090   45.4600 N   0  0  0  0  0  0  0  0  0  0  0  0
   58.2940   27.5120   46.1690 C   0  0  0  0  0  0  0  0  0  0  0  0
   58.6050   27.1000   47.4820 C   0  0  0  0  0  0  0  0  0  0  0  0
   59.6650   27.6780   48.1810 C   0  0  0  0  0  0  0  0  0  0  0  0
   60.4310   28.6770   47.5890 C   0  0  0  0  0  0  0  0  0  0  0  0
   60.1410   29.1050   46.2940 C   0  0  0  0  0  0  0  0  0  0  0  0
   59.0840   28.5310   45.5660 C   0  0  0  0  0  0  0  0  0  0  0  0
   58.7880   29.0700   44.1880 C   0  0  0  0  0  0  0  0  0  0  0  0
   57.1430   29.7640   44.1510 S   0  0  0  0  0  0  0  0  0  0  0  0
   56.3280   29.4440   45.5880 O   0  0  0  0  0  0  0  0  0  0  0  0
   57.0960   31.5020   43.7470 C   0  0  0  0  0  0  0  0  0  0  0  0
   57.7050   32.3310   44.8450 C   0  0  0  0  0  0  0  0  0  0  0  0
   56.9810   33.3870   45.4170 C   0  0  0  0  0  0  0  0  0  0  0  0
   57.5580   34.1740   46.4140 C   0  0  0  0  0  0  0  0  0  0  0  0
   58.8580   33.9140   46.8520 C   0  0  0  0  0  0  0  0  0  0  0  0
   59.5990   32.8540   46.2970 C   0  0  0  0  0  0  0  0  0  0  0  0
   60.9830   32.5970   46.7670 C   0  0  0  0  0  0  0  0  0  0  0  0
   61.2080   31.5980   47.5030 O   0  0  0  0  0  0  0  0  0  0  0  0
   62.0710   33.4560   46.3880 N   0  0  0  0  0  0  0  0  0  0  0  0
   63.4350   33.2460   46.8650 C   0  0  0  0  0  0  0  0  0  0  0  0
   63.4870   33.4130   48.3580 C   0  0  0  0  0  0  0  0  0  0  0  0
   62.4760   34.1170   49.0330 C   0  0  0  0  0  0  0  0  0  0  0  0
   62.5140   34.2390   50.4270 C   0  0  0  0  0  0  0  0  0  0  0  0
   63.5550   33.6540   51.1540 C   0  0  0  0  0  0  0  0  0  0  0  0
   64.5580   32.9430   50.4890 C   0  0  0  0  0  0  0  0  0  0  0  0
   64.5240   32.8190   49.0970 C   0  0  0  0  0  0  0  0  0  0  0  0
   59.0140   32.0730   45.2830 C   0  0  0  0  0  0  0  0  0  0  0  0
   57.4669   25.0302   46.3576 H   0  0  0  0  0  0  0  0  0  0  0  0
   56.9720   25.0010   44.6209 H   0  0  0  0  0  0  0  0  0  0  0  0
   56.5990   27.4960   44.8300 H   0  0  0  0  0  0  0  0  0  0  0  0
   58.0040   26.3129   47.9607 H   0  0  0  0  0  0  0  0  0  0  0  0
   59.8957   27.3429   49.2030 H   0  0  0  0  0  0  0  0  0  0  0  0
   61.2664   29.1298   48.1431 H   0  0  0  0  0  0  0  0  0  0  0  0
   60.7465   29.9013   45.8365 H   0  0  0  0  0  0  0  0  0  0  0  0
   59.5200   29.8517   43.9365 H   0  0  0  0  0  0  0  0  0  0  0  0
   58.8537   28.2517   43.4559 H   0  0  0  0  0  0  0  0  0  0  0  0
   55.5890   30.1030   45.6180 H   0  0  0  0  0  0  0  0  0  0  0  0
   57.6582   31.6697   42.8165 H   0  0  0  0  0  0  0  0  0  0  0  0
   56.0453   31.8034   43.6241 H   0  0  0  0  0  0  0  0  0  0  0  0
   55.9553   33.5954   45.0786 H   0  0  0  0  0  0  0  0  0  0  0  0
   56.9863   35.0029   46.8569 H   0  0  0  0  0  0  0  0  0  0  0  0
   59.3061   34.5419   47.6362 H   0  0  0  0  0  0  0  0  0  0  0  0
   61.9360   34.1570   45.6240 H   0  0  0  0  0  0  0  0  0  0  0  0
   63.7614   32.2295   46.6002 H   0  0  0  0  0  0  0  0  0  0  0  0
   64.1006   33.9849   46.3948 H   0  0  0  0  0  0  0  0  0  0  0  0
   61.6523   34.5736   48.4646 H   0  0  0  0  0  0  0  0  0  0  0  0
   61.7235   34.7961   50.9512 H   0  0  0  0  0  0  0  0  0  0  0  0
   63.5848   33.7532   52.2491 H   0  0  0  0  0  0  0  0  0  0  0  0
   65.3752   32.4804   51.0618 H   0  0  0  0  0  0  0  0  0  0  0  0
   65.3124   32.2541   48.5780 H   0  0  0  0  0  0  0  0  0  0  0  0
   59.5881   31.2519   44.8288 H   0  0  0  0  0  0  0  0  0  0  0  0
  1  2  2  0
  2  3  1  0
  2  4  1  0
  4  5  1  0
  5  6  1  0
  6  7  2  0
  7  8  1  0
  8  9  2  0
  9 10  1  0
 10 11  2  0
 11 12  1  0
 12 13  1  0
 13 14  1  1
 13 15  1  0
 15 16  1  0
 16 17  2  0
 17 18  1  0
 18 19  2  0
 19 20  1  0
 20 21  1  0
 21 22  2  0
 21 23  1  0
 23 24  1  0
 24 25  1  0
 25 26  2  0
 26 27  1  0
 27 28  2  0
 28 29  1  0
 29 30  2  0
 20 31  2  0
 11  6  1  0
 31 16  1  0
 30 25  1  0
  4 32  1  0
  4 33  1  0
  5 34  1  0
  7 35  1  0
  8 36  1  0
  9 37  1  0
 10 38  1  0
 12 39  1  0
 12 40  1  0
 14 41  1  0
 15 42  1  0
 15 43  1  0
 17 44  1  0
 18 45  1  0
 19 46  1  0
 23 47  1  0
 24 48  1  0
 24 49  1  0
 26 50  1  0
 27 51  1  0
 28 52  1  0
 29 53  1  0
 30 54  1  0
 31 55  1  0
M  CHG  2   3  -1  13   1
M  END
>  <UniqueID>  (18) 
17

>  <SMILES>  (18) 
O=C([O-])CNc1ccccc1C[S@@+](O)Cc1cccc(C(=O)NCc2ccccc2)c1

>  <Energy>  (18) 
51.361820381921355

>  <Genealogy>  (18) 
O=C([O-])CNc1ccccc1C[S+](O)Cc1cccc(C(=O)NCc2ccccc2)c1 (protonated)
O=C([O-])CNc1ccccc1C[S@@+](O)Cc1cccc(C(=O)NCc2ccccc2)c1 (chirality)
O=C([O-])CNc1ccccc1C[S@@+](O)Cc1cccc(C(=O)NCc2ccccc2)c1 (3D coordinates assigned)
O=C([O-])CNc1ccccc1C[S@@+](O)Cc1cccc(C(=O)NCc2ccccc2)c1 (optimized conformer: 51.361820381921355 kcal/mol)

>  <smiles>  (18) 
O=C(O)CNc1ccccc1C[S+]([O-])Cc1cccc(C(=O)NCc2ccccc2)c1

>  <score_type>  (18) 
oracle

>  <origin>  (18) 
adg

>  <m_score__min__energy>  (18) 
-11.75

>  <m_primary>  (18) 
energy

$$$$
18:0
     RDKit          3D

 62 67  0  0  0  0  0  0  0  0999 V2000
   58.8970   34.1990   52.1570 C   0  0  0  0  0  0  0  0  0  0  0  0
   57.6730   33.5850   52.4370 C   0  0  0  0  0  0  0  0  0  0  0  0
   57.4110   32.2950   51.9650 C   0  0  0  0  0  0  0  0  0  0  0  0
   58.3800   31.6050   51.2160 C   0  0  0  0  0  0  0  0  0  0  0  0
   58.1200   30.2040   50.7240 C   0  0  0  0  0  0  0  0  0  0  0  0
   58.3440   30.1180   49.3160 O   0  0  0  0  0  0  0  0  0  0  0  0
   58.9320   29.0250   48.6580 C   0  0  0  0  0  0  0  0  0  0  0  0
   58.1830   28.1370   47.8630 C   0  0  0  0  0  0  0  0  0  0  0  0
   58.7880   27.0200   47.2660 C   0  0  0  0  0  0  0  0  0  0  0  0
   57.9750   26.0570   46.4810 C   0  0  0  0  0  0  0  0  0  0  0  0
   56.5910   26.2460   46.3310 C   0  0  0  0  0  0  0  0  0  0  0  0
   55.8240   25.3400   45.5930 C   0  0  0  0  0  0  0  0  0  0  0  0
   56.4300   24.2300   44.9890 C   0  0  0  0  0  0  0  0  0  0  0  0
   55.6700   23.3160   44.2450 C   0  0  0  0  0  0  0  0  0  0  0  0
   56.2870   22.2140   43.6440 C   0  0  0  0  0  0  0  0  0  0  0  0
   57.6640   22.0190   43.7810 C   0  0  0  0  0  0  0  0  0  0  0  0
   58.4320   22.9210   44.5210 C   0  0  0  0  0  0  0  0  0  0  0  0
   57.8250   24.0310   45.1300 C   0  0  0  0  0  0  0  0  0  0  0  0
   58.5860   24.9440   45.8730 C   0  0  0  0  0  0  0  0  0  0  0  0
   60.1670   26.8190   47.4380 C   0  0  0  0  0  0  0  0  0  0  0  0
   60.9220   27.7070   48.2070 C   0  0  0  0  0  0  0  0  0  0  0  0
   60.3070   28.8100   48.8290 C   0  0  0  0  0  0  0  0  0  0  0  0
   61.0210   29.7040   49.6430 O   0  0  0  0  0  0  0  0  0  0  0  0
   62.0420   30.5920   49.1860 C   0  0  0  0  0  0  0  0  0  0  0  0
   61.4550   31.6490   48.2860 C   0  0  0  0  0  0  0  0  0  0  0  0
   62.3040   32.5280   47.5980 C   0  0  0  0  0  0  0  0  0  0  0  0
   61.7620   33.4860   46.7430 C   0  0  0  0  0  0  0  0  0  0  0  0
   60.3760   33.5720   46.5820 C   0  0  0  0  0  0  0  0  0  0  0  0
   59.8040   34.5250   45.7250 C   0  0  0  0  0  0  0  0  0  0  0  0
   58.4150   34.5920   45.5820 C   0  0  0  0  0  0  0  0  0  0  0  0
   57.5910   33.7130   46.2910 C   0  0  0  0  0  0  0  0  0  0  0  0
   58.1510   32.7590   47.1460 C   0  0  0  0  0  0  0  0  0  0  0  0
   59.5450   32.6800   47.2990 C   0  0  0  0  0  0  0  0  0  0  0  0
   60.1020   31.7500   48.1290 N   0  0  0  0  0  0  0  0  0  0  0  0
   59.6060   32.2320   50.9350 C   0  0  0  0  0  0  0  0  0  0  0  0
   59.8630   33.5240   51.4070 C   0  0  0  0  0  0  0  0  0  0  0  0
   59.0998   35.2147   52.5276 H   0  0  0  0  0  0  0  0  0  0  0  0
   56.9145   34.1174   53.0296 H   0  0  0  0  0  0  0  0  0  0  0  0
   56.4433   31.8185   52.1806 H   0  0  0  0  0  0  0  0  0  0  0  0
   58.7963   29.5075   51.2412 H   0  0  0  0  0  0  0  0  0  0  0  0
   57.0724   29.9422   50.9339 H   0  0  0  0  0  0  0  0  0  0  0  0
   57.1097   28.3209   47.7076 H   0  0  0  0  0  0  0  0  0  0  0  0
   56.1062   27.1155   46.7989 H   0  0  0  0  0  0  0  0  0  0  0  0
   54.7408   25.4988   45.4859 H   0  0  0  0  0  0  0  0  0  0  0  0
   54.5860   23.4661   44.1338 H   0  0  0  0  0  0  0  0  0  0  0  0
   55.6869   21.4990   43.0621 H   0  0  0  0  0  0  0  0  0  0  0  0
   58.1448   21.1520   43.3043 H   0  0  0  0  0  0  0  0  0  0  0  0
   59.5152   22.7613   44.6269 H   0  0  0  0  0  0  0  0  0  0  0  0
   59.6696   24.7895   45.9819 H   0  0  0  0  0  0  0  0  0  0  0  0
   60.6562   25.9556   46.9634 H   0  0  0  0  0  0  0  0  0  0  0  0
   62.0031   27.5438   48.3274 H   0  0  0  0  0  0  0  0  0  0  0  0
   62.5158   31.0762   50.0527 H   0  0  0  0  0  0  0  0  0  0  0  0
   62.7887   30.0159   48.6199 H   0  0  0  0  0  0  0  0  0  0  0  0
   63.3937   32.4616   47.7327 H   0  0  0  0  0  0  0  0  0  0  0  0
   62.4238   34.1734   46.1957 H   0  0  0  0  0  0  0  0  0  0  0  0
   60.4486   35.2192   45.1659 H   0  0  0  0  0  0  0  0  0  0  0  0
   57.9688   35.3391   44.9091 H   0  0  0  0  0  0  0  0  0  0  0  0
   56.4986   33.7721   46.1758 H   0  0  0  0  0  0  0  0  0  0  0  0
   57.4983   32.0686   47.7003 H   0  0  0  0  0  0  0  0  0  0  0  0
   59.4780   31.0930   48.6530 H   0  0  0  0  0  0  0  0  0  0  0  0
   60.3671   31.7046   50.3412 H   0  0  0  0  0  0  0  0  0  0  0  0
   60.8260   34.0082   51.1874 H   0  0  0  0  0  0  0  0  0  0  0  0
  1  2  2  0
  2  3  1  0
  3  4  2  0
  4  5  1  0
  5  6  1  0
  6  7  1  0
  7  8  2  0
  8  9  1  0
  9 10  1  0
 10 11  2  0
 11 12  1  0
 12 13  2  0
 13 14  1  0
 14 15  2  0
 15 16  1  0
 16 17  2  0
 17 18  1  0
 18 19  2  0
  9 20  2  0
 20 21  1  0
 21 22  2  0
 22 23  1  0
 23 24  1  0
 24 25  1  0
 25 26  2  0
 26 27  1  0
 27 28  2  0
 28 29  1  0
 29 30  2  0
 30 31  1  0
 31 32  2  0
 32 33  1  0
 33 34  2  0
  4 35  1  0
 35 36  2  0
 36  1  1  0
 22  7  1  0
 34 25  1  0
 19 10  1  0
 33 28  1  0
 18 13  1  0
  1 37  1  0
  2 38  1  0
  3 39  1  0
  5 40  1  0
  5 41  1  0
  8 42  1  0
 11 43  1  0
 12 44  1  0
 14 45  1  0
 15 46  1  0
 16 47  1  0
 17 48  1  0
 19 49  1  0
 20 50  1  0
 21 51  1  0
 24 52  1  0
 24 53  1  0
 26 54  1  0
 27 55  1  0
 29 56  1  0
 30 57  1  0
 31 58  1  0
 32 59  1  0
 34 60  1  0
 35 61  1  0
 36 62  1  0
M  CHG  1  34   1
M  END
>  <UniqueID>  (19) 
18

>  <SMILES>  (19) 
c1ccc(COc2cc(-c3ccc4ccccc4c3)ccc2OCc2ccc3ccccc3[nH+]2)cc1

>  <Energy>  (19) 
80.19070444859926

>  <Genealogy>  (19) 
c1ccc(COc2cc(-c3ccc4ccccc4c3)ccc2OCc2ccc3ccccc3[nH+]2)cc1 (protonated)
c1ccc(COc2cc(-c3ccc4ccccc4c3)ccc2OCc2ccc3ccccc3[nH+]2)cc1 (3D coordinates assigned)
c1ccc(COc2cc(-c3ccc4ccccc4c3)ccc2OCc2ccc3ccccc3[nH+]2)cc1 (optimized conformer: 80.19070444859926 kcal/mol)

>  <smiles>  (19) 
c1ccc(COc2cc(-c3ccc4ccccc4c3)ccc2OCc2ccc3ccccc3n2)cc1

>  <score_type>  (19) 
oracle

>  <origin>  (19) 
adg

>  <m_score__min__energy>  (19) 
-8.3800000000000008

>  <m_primary>  (19) 
energy

$$$$
19:0
     RDKit          3D

 88 91  0  0  0  0  0  0  0  0999 V2000
   59.5870   28.7460   52.9240 C   0  0  0  0  0  0  0  0  0  0  0  0
   61.0750   29.0720   53.0360 C   0  0  0  0  0  0  0  0  0  0  0  0
   61.8020   28.5930   51.8590 N   0  0  0  0  0  0  0  0  0  0  0  0
   61.4170   28.8500   50.4940 C   0  0  0  0  0  0  0  0  0  0  0  0
   60.6340   27.9420   49.7590 C   0  0  0  0  0  0  0  0  0  0  0  0
   60.3140   28.2040   48.4210 C   0  0  0  0  0  0  0  0  0  0  0  0
   59.5540   27.2150   47.6340 C   0  0  0  0  0  0  0  0  0  0  0  0
   60.1090   26.1390   47.2910 O   0  0  0  0  0  0  0  0  0  0  0  0
   58.1920   27.4490   47.2460 N   0  0  0  0  0  0  0  0  0  0  0  0
   57.6550   27.2260   45.9020 C   0  0  1  0  0  0  0  0  0  0  0  0
   56.3020   26.5150   45.9850 C   0  0  0  0  0  0  0  0  0  0  0  0
   57.4940   28.5440   45.1790 C   0  0  0  0  0  0  0  0  0  0  0  0
   56.2330   28.9660   44.7110 C   0  0  0  0  0  0  0  0  0  0  0  0
   56.1100   30.1570   43.9900 C   0  0  0  0  0  0  0  0  0  0  0  0
   57.2420   30.9220   43.7010 C   0  0  0  0  0  0  0  0  0  0  0  0
   58.4990   30.5000   44.1380 C   0  0  0  0  0  0  0  0  0  0  0  0
   58.6300   29.3180   44.8720 C   0  0  0  0  0  0  0  0  0  0  0  0
   60.7170   29.4100   47.8320 C   0  0  0  0  0  0  0  0  0  0  0  0
   61.4750   30.3400   48.5570 C   0  0  0  0  0  0  0  0  0  0  0  0
   61.9140   31.6110   47.9420 C   0  0  0  0  0  0  0  0  0  0  0  0
   63.0920   31.7190   47.5160 O   0  0  0  0  0  0  0  0  0  0  0  0
   61.0690   32.7680   47.9460 N   0  0  0  0  0  0  0  0  0  0  0  0
   60.6410   33.5120   49.1340 C   0  0  1  0  0  0  0  0  0  0  0  0
   59.6360   34.5960   48.6760 C   0  0  0  0  0  0  0  0  0  0  0  0
   59.0610   34.3540   47.3020 C   0  0  0  0  0  0  0  0  0  0  0  0
   57.9240   33.5440   47.1370 C   0  0  0  0  0  0  0  0  0  0  0  0
   57.3970   33.3210   45.8600 C   0  0  0  0  0  0  0  0  0  0  0  0
   57.9920   33.9090   44.7410 C   0  0  0  0  0  0  0  0  0  0  0  0
   59.1150   34.7250   44.8970 C   0  0  0  0  0  0  0  0  0  0  0  0
   59.6450   34.9540   46.1710 C   0  0  0  0  0  0  0  0  0  0  0  0
   60.1070   32.5500   50.2340 C   0  0  1  0  0  0  0  0  0  0  0  0
   59.9570   33.2420   51.4480 O   0  0  0  0  0  0  0  0  0  0  0  0
   58.8240   31.7830   49.8230 C   0  0  0  0  0  0  0  0  0  0  0  0
   58.2550   31.0400   50.9620 N   0  0  0  0  0  0  0  0  0  0  0  0
   57.1800   31.7670   51.6630 C   0  0  0  0  0  0  0  0  0  0  0  0
   56.1290   30.8110   52.1620 C   0  0  0  0  0  0  0  0  0  0  0  0
   56.4560   29.8480   53.1260 C   0  0  0  0  0  0  0  0  0  0  0  0
   55.4850   28.9640   53.5980 C   0  0  0  0  0  0  0  0  0  0  0  0
   54.1750   29.0380   53.1170 C   0  0  0  0  0  0  0  0  0  0  0  0
   53.8180   29.9980   52.1480 C   0  0  0  0  0  0  0  0  0  0  0  0
   52.4460   30.1150   51.6890 N   0  0  0  0  0  0  0  0  0  0  0  0
   51.3510   30.3280   52.6440 C   0  0  0  0  0  0  0  0  0  0  0  0
   52.1370   30.0700   50.2530 C   0  0  0  0  0  0  0  0  0  0  0  0
   54.8200   30.8590   51.6540 C   0  0  0  0  0  0  0  0  0  0  0  0
   61.8370   30.0420   49.8800 C   0  0  0  0  0  0  0  0  0  0  0  0
   59.1555   28.6515   53.9314 H   0  0  0  0  0  0  0  0  0  0  0  0
   59.0747   29.5532   52.3800 H   0  0  0  0  0  0  0  0  0  0  0  0
   59.4591   27.7985   52.3800 H   0  0  0  0  0  0  0  0  0  0  0  0
   61.2003   30.1617   53.1185 H   0  0  0  0  0  0  0  0  0  0  0  0
   61.4795   28.5716   53.9282 H   0  0  0  0  0  0  0  0  0  0  0  0
   62.6570   28.0150   52.0330 H   0  0  0  0  0  0  0  0  0  0  0  0
   60.2708   27.0207   50.2378 H   0  0  0  0  0  0  0  0  0  0  0  0
   58.3604   26.5931   45.3435 H   0  0  0  0  0  0  0  0  0  0  0  0
   56.0277   26.3708   47.0404 H   0  0  0  0  0  0  0  0  0  0  0  0
   55.5352   27.1267   45.4871 H   0  0  0  0  0  0  0  0  0  0  0  0
   56.3708   25.5366   45.4871 H   0  0  0  0  0  0  0  0  0  0  0  0
   55.3413   28.3548   44.9143 H   0  0  0  0  0  0  0  0  0  0  0  0
   55.1193   30.4925   43.6494 H   0  0  0  0  0  0  0  0  0  0  0  0
   57.1433   31.8566   43.1293 H   0  0  0  0  0  0  0  0  0  0  0  0
   59.3903   31.1006   43.9035 H   0  0  0  0  0  0  0  0  0  0  0  0
   59.6240   28.9909   45.2112 H   0  0  0  0  0  0  0  0  0  0  0  0
   60.4360   29.6289   46.7913 H   0  0  0  0  0  0  0  0  0  0  0  0
   61.4862   34.0253   49.6159 H   0  0  0  0  0  0  0  0  0  0  0  0
   58.8068   34.6270   49.3981 H   0  0  0  0  0  0  0  0  0  0  0  0
   60.1895   35.5454   48.6282 H   0  0  0  0  0  0  0  0  0  0  0  0
   57.4469   33.0838   48.0148 H   0  0  0  0  0  0  0  0  0  0  0  0
   56.5112   32.6805   45.7368 H   0  0  0  0  0  0  0  0  0  0  0  0
   57.5767   33.7296   43.7384 H   0  0  0  0  0  0  0  0  0  0  0  0
   59.5834   35.1884   44.0162 H   0  0  0  0  0  0  0  0  0  0  0  0
   60.5227   35.6064   46.2894 H   0  0  0  0  0  0  0  0  0  0  0  0
   60.8626   31.7627   50.3725 H   0  0  0  0  0  0  0  0  0  0  0  0
   59.2950   32.7650   52.0070 H   0  0  0  0  0  0  0  0  0  0  0  0
   58.0779   32.5035   49.4567 H   0  0  0  0  0  0  0  0  0  0  0  0
   59.0884   31.0617   49.0357 H   0  0  0  0  0  0  0  0  0  0  0  0
   57.8400   30.1580   50.5780 H   0  0  0  0  0  0  0  0  0  0  0  0
   57.6092   32.3102   52.5178 H   0  0  0  0  0  0  0  0  0  0  0  0
   56.7122   32.4714   50.9594 H   0  0  0  0  0  0  0  0  0  0  0  0
   57.4840   29.7886   53.5129 H   0  0  0  0  0  0  0  0  0  0  0  0
   55.7513   28.2071   54.3505 H   0  0  0  0  0  0  0  0  0  0  0  0
   53.4148   28.3403   53.4982 H   0  0  0  0  0  0  0  0  0  0  0  0
   51.7396   30.2524   53.6703 H   0  0  0  0  0  0  0  0  0  0  0  0
   50.9181   31.3272   52.4885 H   0  0  0  0  0  0  0  0  0  0  0  0
   50.5751   29.5640   52.4885 H   0  0  0  0  0  0  0  0  0  0  0  0
   51.0571   29.9127   50.1151 H   0  0  0  0  0  0  0  0  0  0  0  0
   52.4319   31.0206   49.7845 H   0  0  0  0  0  0  0  0  0  0  0  0
   52.6908   29.2430   49.7845 H   0  0  0  0  0  0  0  0  0  0  0  0
   54.5730   31.5785   50.8595 H   0  0  0  0  0  0  0  0  0  0  0  0
   62.4588   30.7523   50.4446 H   0  0  0  0  0  0  0  0  0  0  0  0
  1  2  1  0
  2  3  1  0
  3  4  1  0
  4  5  2  0
  5  6  1  0
  6  7  1  0
  7  8  2  0
  7  9  1  0
  9 10  1  0
 10 11  1  0
 10 12  1  0
 12 13  2  0
 13 14  1  0
 14 15  2  0
 15 16  1  0
 16 17  2  0
  6 18  2  0
 18 19  1  0
 19 20  1  0
 20 21  2  0
 20 22  1  0
 22 23  1  0
 23 24  1  0
 24 25  1  0
 25 26  2  0
 26 27  1  0
 27 28  2  0
 28 29  1  0
 29 30  2  0
 23 31  1  0
 31 32  1  0
 31 33  1  0
 33 34  1  0
 34 35  1  0
 35 36  1  0
 36 37  2  0
 37 38  1  0
 38 39  2  0
 39 40  1  0
 40 41  1  0
 41 42  1  0
 41 43  1  0
 40 44  2  0
 19 45  2  0
 45  4  1  0
 17 12  1  0
 30 25  1  0
 44 36  1  0
  1 46  1  0
  1 47  1  0
  1 48  1  0
  2 49  1  0
  2 50  1  0
  3 51  1  0
  5 52  1  0
 10 53  1  6
 11 54  1  0
 11 55  1  0
 11 56  1  0
 13 57  1  0
 14 58  1  0
 15 59  1  0
 16 60  1  0
 17 61  1  0
 18 62  1  0
 23 63  1  1
 24 64  1  0
 24 65  1  0
 26 66  1  0
 27 67  1  0
 28 68  1  0
 29 69  1  0
 30 70  1  0
 31 71  1  1
 32 72  1  0
 33 73  1  0
 33 74  1  0
 34 75  1  0
 35 76  1  0
 35 77  1  0
 37 78  1  0
 38 79  1  0
 39 80  1  0
 42 81  1  0
 42 82  1  0
 42 83  1  0
 43 84  1  0
 43 85  1  0
 43 86  1  0
 44 87  1  0
 45 88  1  0
M  CHG  2   9  -1  22  -1
M  END
>  <UniqueID>  (20) 
19

>  <SMILES>  (20) 
CCNc1cc(C(=O)[N-][C@@H](C)c2ccccc2)cc(C(=O)[N-][C@@H](Cc2ccccc2)C(O)CNCc2cccc(N(C)C)c2)c1

>  <Energy>  (20) 
102.55346187473803

>  <Genealogy>  (20) 
CCNc1cc(C(=O)[N-]C(C)c2ccccc2)cc(C(=O)[N-]C(Cc2ccccc2)C(O)CNCc2cccc(N(C)C)c2)c1 (protonated)
CCNc1cc(C(=O)[N-][C@@H](C)c2ccccc2)cc(C(=O)[N-][C@@H](Cc2ccccc2)C(O)CNCc2cccc(N(C)C)c2)c1 (chirality)
CCNc1cc(C(=O)[N-][C@@H](C)c2ccccc2)cc(C(=O)[N-][C@@H](Cc2ccccc2)C(O)CNCc2cccc(N(C)C)c2)c1 (3D coordinates assigned)
CCNc1cc(C(=O)[N-][C@@H](C)c2ccccc2)cc(C(=O)[N-][C@@H](Cc2ccccc2)C(O)CNCc2cccc(N(C)C)c2)c1 (optimized conformer: 102.55346187473803 kcal/mol)

>  <smiles>  (20) 
CCNc1cc(C(=O)NC(C)c2ccccc2)cc(C(=O)NC(Cc2ccccc2)C(O)CNCc2cccc(N(C)C)c2)c1

>  <score_type>  (20) 
oracle

>  <origin>  (20) 
adg

>  <m_score__min__energy>  (20) 
-12.960000000000001

>  <m_primary>  (20) 
energy

$$$$
20:0
     RDKit          3D

 40 44  0  0  0  0  0  0  0  0999 V2000
   58.9831   26.6007   44.9260 H   0  0  0  0  0  0  0  0  0  0  0  0
   58.1000   26.9180   45.5000 C   0  0  0  0  0  0  0  0  0  0  0  0
   57.3900   25.8890   46.2830 C   0  0  0  0  0  0  0  0  0  0  0  0
   57.9590   24.7940   46.8190 N   0  0  0  0  0  0  0  0  0  0  0  0
   56.9090   24.1050   47.3120 C   0  0  0  0  0  0  0  0  0  0  0  0
   57.0400   23.0030   47.9080 O   0  0  0  0  0  0  0  0  0  0  0  0
   55.7050   24.6810   47.1080 N   0  0  0  0  0  0  0  0  0  0  0  0
   56.0280   25.8040   46.4460 C   0  0  0  0  0  0  0  0  0  0  0  0
   55.0960   26.7280   45.9920 O   0  0  0  0  0  0  0  0  0  0  0  0
   57.7500   28.2120   45.4350 C   0  0  0  0  0  0  0  0  0  0  0  0
   56.6190   28.7190   44.7930 C   0  0  0  0  0  0  0  0  0  0  0  0
   55.8780   28.1131   44.2511 H   0  0  0  0  0  0  0  0  0  0  0  0
   56.5660   30.0660   44.9340 N   0  0  0  0  0  0  0  0  0  0  0  0
   57.6200   30.4150   45.6530 N   0  0  0  0  0  0  0  0  0  0  0  0
   57.9590   31.6560   46.0780 C   0  0  0  0  0  0  0  0  0  0  0  0
   57.2330   32.6850   45.7280 N   0  0  0  0  0  0  0  0  0  0  0  0
   57.5530   34.1130   45.5370 C   0  0  0  0  0  0  0  0  0  0  0  0
   56.5025   34.3930   45.3696 H   0  0  0  0  0  0  0  0  0  0  0  0
   58.6970   34.6830   46.3590 C   0  0  0  0  0  0  0  0  0  0  0  0
   58.6359   35.7092   46.7503 H   0  0  0  0  0  0  0  0  0  0  0  0
   59.2363   34.3704   47.2654 H   0  0  0  0  0  0  0  0  0  0  0  0
   58.8720   34.4450   44.8580 C   0  0  0  0  0  0  0  0  0  0  0  0
   58.9367   35.2999   44.1688 H   0  0  0  0  0  0  0  0  0  0  0  0
   59.5893   33.8900   44.2355 H   0  0  0  0  0  0  0  0  0  0  0  0
   59.0600   31.7730   46.8740 N   0  0  0  0  0  0  0  0  0  0  0  0
   59.7820   30.6730   47.2450 C   0  0  0  0  0  0  0  0  0  0  0  0
   60.8230   30.8280   48.0090 N   0  0  0  0  0  0  0  0  0  0  0  0
   61.8540   31.8160   47.8520 C   0  0  0  0  0  0  0  0  0  0  0  0
   61.6780   32.8350   46.9050 C   0  0  0  0  0  0  0  0  0  0  0  0
   60.7748   32.8479   46.2772 H   0  0  0  0  0  0  0  0  0  0  0  0
   62.6430   33.8340   46.7540 C   0  0  0  0  0  0  0  0  0  0  0  0
   62.5057   34.6198   45.9966 H   0  0  0  0  0  0  0  0  0  0  0  0
   63.7820   33.8370   47.5630 C   0  0  0  0  0  0  0  0  0  0  0  0
   64.5446   34.6196   47.4367 H   0  0  0  0  0  0  0  0  0  0  0  0
   63.9520   32.8450   48.5330 C   0  0  0  0  0  0  0  0  0  0  0  0
   64.8433   32.8539   49.1776 H   0  0  0  0  0  0  0  0  0  0  0  0
   62.9900   31.8410   48.6850 C   0  0  0  0  0  0  0  0  0  0  0  0
   63.1208   31.0686   49.4572 H   0  0  0  0  0  0  0  0  0  0  0  0
   59.4210   29.4380   46.7870 N   0  0  0  0  0  0  0  0  0  0  0  0
   58.3430   29.3390   45.9750 C   0  0  0  0  0  0  0  0  0  0  0  0
  1  2  1  0
  2  3  1  0
  3  4  1  0
  4  5  1  0
  5  6  2  0
  5  7  1  0
  7  8  1  0
  8  9  1  0
  2 10  2  0
 10 11  1  0
 11 12  1  0
 11 13  2  0
 13 14  1  0
 14 15  1  0
 15 16  2  3
 16 17  1  0
 17 18  1  0
 17 19  1  0
 19 20  1  0
 19 21  1  0
 19 22  1  0
 22 23  1  0
 22 24  1  0
 15 25  1  0
 25 26  1  0
 26 27  2  3
 27 28  1  0
 28 29  2  0
 29 30  1  0
 29 31  1  0
 31 32  1  0
 31 33  2  0
 33 34  1  0
 33 35  1  0
 35 36  1  0
 35 37  2  0
 37 38  1  0
 26 39  1  0
 39 40  2  0
  8  3  2  0
 40 10  1  0
 40 14  1  0
 22 17  1  0
 37 28  1  0
M  CHG  4   4  -1   7  -1   9  -1  25  -1
M  END
>  <UniqueID>  (21) 
20

>  <SMILES>  (21) 
O=c1[n-]c([O-])c(/C=c2/cnn3c(=NC4CC4)[n-]c(=Nc4ccccc4)nc23)[n-]1

>  <Energy>  (21) 
397.3499168683582

>  <Genealogy>  (21) 
O=c1[n-]c([O-])c(C=c2cnn3c(=NC4CC4)[n-]c(=Nc4ccccc4)nc23)[n-]1 (protonated)
O=c1[n-]c([O-])c(/C=c2/cnn3c(=NC4CC4)[n-]c(=Nc4ccccc4)nc23)[n-]1 (cis-trans isomerization)
O=c1[n-]c([O-])c(/C=c2/cnn3c(=NC4CC4)[n-]c(=Nc4ccccc4)nc23)[n-]1 (3D coordinates assigned)
O=c1[n-]c([O-])c(/C=c2/cnn3c(=NC4CC4)[n-]c(=Nc4ccccc4)nc23)[n-]1 (nonaromatic ring conformer: 397.3499168683582 kcal/mol)

>  <smiles>  (21) 
O=c1[nH]c(O)c(C=c2cnn3c(=NC4CC4)[nH]c(=Nc4ccccc4)nc23)[nH]1

>  <score_type>  (21) 
oracle

>  <origin>  (21) 
adg

>  <m_score__min__energy>  (21) 
-17.59

>  <m_primary>  (21) 
energy

$$$$
21:0
     RDKit          3D

 32 31  0  0  0  0  0  0  0  0999 V2000
   59.9980   28.6740   45.7740 N   0  0  0  0  0  0  0  0  0  0  0  0
   59.3380   27.4800   46.1870 C   0  0  0  0  0  0  0  0  0  0  0  0
   59.9370   26.3730   46.1110 O   0  0  0  0  0  0  0  0  0  0  0  0
   57.9220   27.5340   46.6740 C   0  0  0  0  0  0  0  0  0  0  0  0
   56.9270   27.6200   45.5040 C   0  0  1  0  0  0  0  0  0  0  0  0
   55.7410   26.8240   45.8160 N   0  0  0  0  0  0  0  0  0  0  0  0
   55.6540   25.3990   45.9880 C   0  0  0  0  0  0  0  0  0  0  0  0
   55.9990   24.9150   47.0990 O   0  0  0  0  0  0  0  0  0  0  0  0
   55.1340   24.4570   44.9250 C   0  0  2  0  0  0  0  0  0  0  0  0
   54.4020   23.2410   45.5240 C   0  0  0  0  0  0  0  0  0  0  0  0
   52.9160   23.3620   45.3710 C   0  0  0  0  0  0  0  0  0  0  0  0
   52.1990   22.3280   45.3200 O   0  0  0  0  0  0  0  0  0  0  0  0
   52.3280   24.6140   45.2440 O   0  0  0  0  0  0  0  0  0  0  0  0
   56.2370   24.0310   44.0670 N   0  0  0  0  0  0  0  0  0  0  0  0
   56.5880   22.6660   43.8230 C   0  0  0  0  0  0  0  0  0  0  0  0
   55.9720   21.9890   42.9540 O   0  0  0  0  0  0  0  0  0  0  0  0
   57.6660   22.0290   44.6350 C   0  0  0  0  0  0  0  0  0  0  0  0
   58.6520   23.3130   45.4630 S   0  0  0  0  0  0  0  0  0  0  0  0
   56.5070   29.0430   45.2660 C   0  0  0  0  0  0  0  0  0  0  0  0
   55.1670   29.3400   44.8750 N   0  0  0  0  0  0  0  0  0  0  0  0
   57.3330   29.9800   45.4290 O   0  0  0  0  0  0  0  0  0  0  0  0
   59.4550   29.5430   45.5740 H   0  0  0  0  0  0  0  0  0  0  0  0
   57.7098   26.6262   47.2578 H   0  0  0  0  0  0  0  0  0  0  0  0
   57.8042   28.4346   47.2945 H   0  0  0  0  0  0  0  0  0  0  0  0
   57.4196   27.2353   44.5988 H   0  0  0  0  0  0  0  0  0  0  0  0
   54.3913   25.0026   44.3244 H   0  0  0  0  0  0  0  0  0  0  0  0
   54.7411   22.3305   45.0083 H   0  0  0  0  0  0  0  0  0  0  0  0
   54.6348   23.1937   46.5980 H   0  0  0  0  0  0  0  0  0  0  0  0
   57.2133   21.3713   45.3916 H   0  0  0  0  0  0  0  0  0  0  0  0
   58.3184   21.4390   43.9744 H   0  0  0  0  0  0  0  0  0  0  0  0
   57.5210   24.0830   45.7950 H   0  0  0  0  0  0  0  0  0  0  0  0
   54.3980   29.3710   45.5800 H   0  0  0  0  0  0  0  0  0  0  0  0
  1  2  1  0
  2  3  2  0
  2  4  1  0
  4  5  1  0
  5  6  1  0
  6  7  1  0
  7  8  2  0
  7  9  1  0
  9 10  1  0
 10 11  1  0
 11 12  2  0
 11 13  1  0
  9 14  1  0
 14 15  1  0
 15 16  2  0
 15 17  1  0
 17 18  1  0
  5 19  1  0
 19 20  1  0
 19 21  2  0
  1 22  1  0
  4 23  1  0
  4 24  1  0
  5 25  1  6
  9 26  1  6
 10 27  1  0
 10 28  1  0
 17 29  1  0
 17 30  1  0
 18 31  1  0
 20 32  1  0
M  CHG  5   1  -1   6  -1  13  -1  14  -1  20  -1
M  END
>  <UniqueID>  (22) 
21

>  <SMILES>  (22) 
[NH-]C(=O)C[C@@H]([N-]C(=O)[C@H](CC(=O)[O-])[N-]C(=O)CS)C([NH-])=O

>  <Energy>  (22) 
17.407533289925688

>  <Genealogy>  (22) 
[NH-]C(=O)CC([N-]C(=O)C(CC(=O)[O-])[N-]C(=O)CS)C([NH-])=O (protonated)
[NH-]C(=O)C[C@@H]([N-]C(=O)[C@H](CC(=O)[O-])[N-]C(=O)CS)C([NH-])=O (chirality)
[NH-]C(=O)C[C@@H]([N-]C(=O)[C@H](CC(=O)[O-])[N-]C(=O)CS)C([NH-])=O (3D coordinates assigned)
[NH-]C(=O)C[C@@H]([N-]C(=O)[C@H](CC(=O)[O-])[N-]C(=O)CS)C([NH-])=O (optimized conformer: 17.407533289925688 kcal/mol)

>  <smiles>  (22) 
NC(=O)CC(NC(=O)C(CC(=O)O)NC(=O)CS)C(N)=O

>  <score_type>  (22) 
oracle

>  <origin>  (22) 
adg

>  <m_score__min__energy>  (22) 
-14.869999999999999

>  <m_primary>  (22) 
energy

$$$$
22:0
     RDKit          3D

 54 56  0  0  0  0  0  0  0  0999 V2000
   57.2920   30.4610   43.3410 C   0  0  0  0  0  0  0  0  0  0  0  0
   57.8380   30.4920   44.7410 C   0  0  0  0  0  0  0  0  0  0  0  0
   58.3840   29.4290   45.4410 C   0  0  0  0  0  0  0  0  0  0  0  0
   58.4820   28.0270   45.0080 C   0  0  0  0  0  0  0  0  0  0  0  0
   59.5580   27.6060   44.5010 O   0  0  0  0  0  0  0  0  0  0  0  0
   57.3470   27.1630   45.1490 N   0  0  0  0  0  0  0  0  0  0  0  0
   57.4380   25.7270   45.1790 C   0  0  0  0  0  0  0  0  0  0  0  0
   58.5700   25.1730   45.1020 O   0  0  0  0  0  0  0  0  0  0  0  0
   56.2250   24.8690   45.2450 C   0  0  0  0  0  0  0  0  0  0  0  0
   56.3540   23.4950   44.9530 C   0  0  0  0  0  0  0  0  0  0  0  0
   55.2450   22.6480   44.9990 C   0  0  0  0  0  0  0  0  0  0  0  0
   53.9910   23.1540   45.3400 C   0  0  0  0  0  0  0  0  0  0  0  0
   53.8440   24.5070   45.6450 C   0  0  0  0  0  0  0  0  0  0  0  0
   54.9520   25.3650   45.6160 C   0  0  0  0  0  0  0  0  0  0  0  0
   54.7690   26.6890   46.0010 O   0  0  0  0  0  0  0  0  0  0  0  0
   58.6870   29.9480   46.6930 C   0  0  0  0  0  0  0  0  0  0  0  0
   59.3740   29.2720   47.8100 C   0  0  0  0  0  0  0  0  0  0  0  0
   59.6530   28.0470   47.7000 O   0  0  0  0  0  0  0  0  0  0  0  0
   59.6330   29.9610   49.0450 N   0  0  0  0  0  0  0  0  0  0  0  0
   60.1330   29.2790   50.2370 C   0  0  0  0  0  0  0  0  0  0  0  0
   61.5170   29.7570   50.5740 C   0  0  0  0  0  0  0  0  0  0  0  0
   62.0620   30.8690   49.9100 C   0  0  0  0  0  0  0  0  0  0  0  0
   63.3440   31.3250   50.2340 C   0  0  0  0  0  0  0  0  0  0  0  0
   64.0970   30.6600   51.2080 C   0  0  0  0  0  0  0  0  0  0  0  0
   63.5700   29.5400   51.8570 C   0  0  0  0  0  0  0  0  0  0  0  0
   62.2850   29.0870   51.5430 C   0  0  0  0  0  0  0  0  0  0  0  0
   58.3350   31.2480   46.7330 N   0  0  0  0  0  0  0  0  0  0  0  0
   57.8220   31.5730   45.5560 N   0  0  0  0  0  0  0  0  0  0  0  0
   57.3400   32.9220   45.2330 C   0  0  0  0  0  0  0  0  0  0  0  0
   58.1890   33.5250   44.1100 C   0  0  0  0  0  0  0  0  0  0  0  0
   57.3740   33.8070   46.4810 C   0  0  0  0  0  0  0  0  0  0  0  0
   56.1944   30.3987   43.3768 H   0  0  0  0  0  0  0  0  0  0  0  0
   57.5901   31.3775   42.8108 H   0  0  0  0  0  0  0  0  0  0  0  0
   57.6919   29.5841   42.8108 H   0  0  0  0  0  0  0  0  0  0  0  0
   56.4130   27.6240   45.1710 H   0  0  0  0  0  0  0  0  0  0  0  0
   57.3397   23.0861   44.6860 H   0  0  0  0  0  0  0  0  0  0  0  0
   55.3606   21.5793   44.7658 H   0  0  0  0  0  0  0  0  0  0  0  0
   53.1176   22.4859   45.3684 H   0  0  0  0  0  0  0  0  0  0  0  0
   52.8526   24.9031   45.9099 H   0  0  0  0  0  0  0  0  0  0  0  0
   59.3080   30.9480   49.1620 H   0  0  0  0  0  0  0  0  0  0  0  0
   59.4615   29.4886   51.0827 H   0  0  0  0  0  0  0  0  0  0  0  0
   60.1679   28.1973   50.0402 H   0  0  0  0  0  0  0  0  0  0  0  0
   61.4781   31.3830   49.1323 H   0  0  0  0  0  0  0  0  0  0  0  0
   63.7601   32.2060   49.7233 H   0  0  0  0  0  0  0  0  0  0  0  0
   65.1049   31.0191   51.4632 H   0  0  0  0  0  0  0  0  0  0  0  0
   64.1673   29.0139   52.6163 H   0  0  0  0  0  0  0  0  0  0  0  0
   61.8739   28.2045   52.0551 H   0  0  0  0  0  0  0  0  0  0  0  0
   56.2983   32.8605   44.8851 H   0  0  0  0  0  0  0  0  0  0  0  0
   59.0123   34.1097   44.5463 H   0  0  0  0  0  0  0  0  0  0  0  0
   58.6023   32.7169   43.4886 H   0  0  0  0  0  0  0  0  0  0  0  0
   57.5622   34.1814   43.4886 H   0  0  0  0  0  0  0  0  0  0  0  0
   57.3497   33.1739   47.3802 H   0  0  0  0  0  0  0  0  0  0  0  0
   58.2959   34.4071   46.4799 H   0  0  0  0  0  0  0  0  0  0  0  0
   56.5009   34.4761   46.4799 H   0  0  0  0  0  0  0  0  0  0  0  0
  1  2  1  0
  2  3  2  0
  3  4  1  0
  4  5  2  0
  4  6  1  0
  6  7  1  0
  7  8  2  0
  7  9  1  0
  9 10  2  0
 10 11  1  0
 11 12  2  0
 12 13  1  0
 13 14  2  0
 14 15  1  0
  3 16  1  0
 16 17  1  0
 17 18  2  0
 17 19  1  0
 19 20  1  0
 20 21  1  0
 21 22  2  0
 22 23  1  0
 23 24  2  0
 24 25  1  0
 25 26  2  0
 16 27  2  0
 27 28  1  0
 28 29  1  0
 29 30  1  0
 29 31  1  0
 28  2  1  0
 14  9  1  0
 26 21  1  0
  1 32  1  0
  1 33  1  0
  1 34  1  0
  6 35  1  0
 10 36  1  0
 11 37  1  0
 12 38  1  0
 13 39  1  0
 19 40  1  0
 20 41  1  0
 20 42  1  0
 22 43  1  0
 23 44  1  0
 24 45  1  0
 25 46  1  0
 26 47  1  0
 29 48  1  0
 30 49  1  0
 30 50  1  0
 30 51  1  0
 31 52  1  0
 31 53  1  0
 31 54  1  0
M  CHG  1  15  -1
M  END
>  <UniqueID>  (23) 
22

>  <SMILES>  (23) 
Cc1c(C(=O)NC(=O)c2ccccc2[O-])c(C(=O)NCc2ccccc2)nn1C(C)C

>  <Energy>  (23) 
87.99162894964302

>  <Genealogy>  (23) 
Cc1c(C(=O)NC(=O)c2ccccc2[O-])c(C(=O)NCc2ccccc2)nn1C(C)C (protonated)
Cc1c(C(=O)NC(=O)c2ccccc2[O-])c(C(=O)NCc2ccccc2)nn1C(C)C (3D coordinates assigned)
Cc1c(C(=O)NC(=O)c2ccccc2[O-])c(C(=O)NCc2ccccc2)nn1C(C)C (optimized conformer: 87.99162894964302 kcal/mol)

>  <smiles>  (23) 
Cc1c(C(=O)NC(=O)c2ccccc2O)c(C(=O)NCc2ccccc2)nn1C(C)C

>  <score_type>  (23) 
oracle

>  <origin>  (23) 
adg

>  <m_score__min__energy>  (23) 
-11.859999999999999

>  <m_primary>  (23) 
energy

$$$$
23:0
     RDKit          3D

 55 57  0  0  0  0  0  0  0  0999 V2000
   57.0610   31.1450   42.2650 C   0  0  0  0  0  0  0  0  0  0  0  0
   56.3530   30.1730   43.2030 C   0  0  0  0  0  0  0  0  0  0  0  0
   56.2600   30.7130   44.5200 O   0  0  0  0  0  0  0  0  0  0  0  0
   57.1300   31.6650   45.0830 C   0  0  0  0  0  0  0  0  0  0  0  0
   56.8070   33.0360   45.1350 C   0  0  0  0  0  0  0  0  0  0  0  0
   57.7170   33.9600   45.6530 C   0  0  0  0  0  0  0  0  0  0  0  0
   58.9660   33.5330   46.1190 C   0  0  0  0  0  0  0  0  0  0  0  0
   60.1380   34.6960   46.7340 S   0  0  0  0  0  0  0  0  0  0  0  0
   59.9620   36.0000   46.0070 O   0  0  0  0  0  0  0  0  0  0  0  0
   61.5380   34.2020   46.4940 O   0  0  0  0  0  0  0  0  0  0  0  0
   59.8900   34.9550   48.4340 N   0  0  0  0  0  0  0  0  0  0  0  0
   60.5670   33.9100   49.1970 C   0  0  0  0  0  0  0  0  0  0  0  0
   59.5800   33.2570   50.1200 C   0  0  0  0  0  0  0  0  0  0  0  0
   59.4480   33.6870   51.4470 C   0  0  0  0  0  0  0  0  0  0  0  0
   58.5030   33.0900   52.2840 C   0  0  0  0  0  0  0  0  0  0  0  0
   57.6890   32.0730   51.7800 C   0  0  0  0  0  0  0  0  0  0  0  0
   57.8150   31.6780   50.4860 N   0  0  0  0  0  0  0  0  0  0  0  0
   58.7290   32.2440   49.6520 C   0  0  0  0  0  0  0  0  0  0  0  0
   59.2960   32.1750   46.0660 C   0  0  0  0  0  0  0  0  0  0  0  0
   58.3780   31.2360   45.5830 C   0  0  0  0  0  0  0  0  0  0  0  0
   58.7680   29.8570   45.5460 N   0  0  0  0  0  0  0  0  0  0  0  0
   58.5520   28.8890   46.5820 C   0  0  0  0  0  0  0  0  0  0  0  0
   57.6460   28.0280   46.4300 O   0  0  0  0  0  0  0  0  0  0  0  0
   59.4260   28.8200   47.8060 C   0  0  0  0  0  0  0  0  0  0  0  0
   60.4130   29.8990   47.7990 N   0  0  0  0  0  0  0  0  0  0  0  0
   61.1760   30.2130   48.9750 C   0  0  0  0  0  0  0  0  0  0  0  0
   60.8930   29.6510   50.0690 O   0  0  0  0  0  0  0  0  0  0  0  0
   62.2810   31.2010   48.9300 C   0  0  0  0  0  0  0  0  0  0  0  0
   62.8960   31.6590   50.1110 C   0  0  0  0  0  0  0  0  0  0  0  0
   63.9330   32.5950   50.0510 C   0  0  0  0  0  0  0  0  0  0  0  0
   64.3630   33.0890   48.8170 C   0  0  0  0  0  0  0  0  0  0  0  0
   63.7520   32.6520   47.6410 C   0  0  0  0  0  0  0  0  0  0  0  0
   62.7140   31.7160   47.6940 C   0  0  0  0  0  0  0  0  0  0  0  0
   57.6068   31.8943   42.8572 H   0  0  0  0  0  0  0  0  0  0  0  0
   57.7694   30.5921   41.6306 H   0  0  0  0  0  0  0  0  0  0  0  0
   56.3175   31.6497   41.6306 H   0  0  0  0  0  0  0  0  0  0  0  0
   55.3399   29.9777   42.8215 H   0  0  0  0  0  0  0  0  0  0  0  0
   56.9339   29.2399   43.2460 H   0  0  0  0  0  0  0  0  0  0  0  0
   55.8303   33.3809   44.7646 H   0  0  0  0  0  0  0  0  0  0  0  0
   57.4515   35.0266   45.6950 H   0  0  0  0  0  0  0  0  0  0  0  0
   60.9789   33.1587   48.5072 H   0  0  0  0  0  0  0  0  0  0  0  0
   61.3862   34.3516   49.7834 H   0  0  0  0  0  0  0  0  0  0  0  0
   60.0889   34.4950   51.8295 H   0  0  0  0  0  0  0  0  0  0  0  0
   58.4007   33.4172   53.3292 H   0  0  0  0  0  0  0  0  0  0  0  0
   56.9450   31.5912   52.4314 H   0  0  0  0  0  0  0  0  0  0  0  0
   58.8011   31.9065   48.6076 H   0  0  0  0  0  0  0  0  0  0  0  0
   60.2871   31.8418   46.4074 H   0  0  0  0  0  0  0  0  0  0  0  0
   58.7974   28.9117   48.7040 H   0  0  0  0  0  0  0  0  0  0  0  0
   59.9562   27.8562   47.8075 H   0  0  0  0  0  0  0  0  0  0  0  0
   60.5120   30.4980   46.9490 H   0  0  0  0  0  0  0  0  0  0  0  0
   62.5587   31.2783   51.0863 H   0  0  0  0  0  0  0  0  0  0  0  0
   64.4116   32.9434   50.9781 H   0  0  0  0  0  0  0  0  0  0  0  0
   65.1823   33.8216   48.7724 H   0  0  0  0  0  0  0  0  0  0  0  0
   64.0876   33.0446   46.6698 H   0  0  0  0  0  0  0  0  0  0  0  0
   62.2330   31.3802   46.7635 H   0  0  0  0  0  0  0  0  0  0  0  0
  1  2  1  0
  2  3  1  0
  3  4  1  0
  4  5  2  0
  5  6  1  0
  6  7  2  0
  7  8  1  0
  8  9  2  0
  8 10  2  0
  8 11  1  0
 11 12  1  0
 12 13  1  0
 13 14  2  0
 14 15  1  0
 15 16  2  0
 16 17  1  0
 17 18  2  0
  7 19  1  0
 19 20  2  0
 20 21  1  0
 21 22  1  0
 22 23  2  0
 22 24  1  0
 24 25  1  0
 25 26  1  0
 26 27  2  0
 26 28  1  0
 28 29  2  0
 29 30  1  0
 30 31  2  0
 31 32  1  0
 32 33  2  0
 20  4  1  0
 33 28  1  0
 18 13  1  0
  1 34  1  0
  1 35  1  0
  1 36  1  0
  2 37  1  0
  2 38  1  0
  5 39  1  0
  6 40  1  0
 12 41  1  0
 12 42  1  0
 14 43  1  0
 15 44  1  0
 16 45  1  0
 18 46  1  0
 19 47  1  0
 24 48  1  0
 24 49  1  0
 25 50  1  0
 29 51  1  0
 30 52  1  0
 31 53  1  0
 32 54  1  0
 33 55  1  0
M  CHG  2  11  -1  21  -1
M  END
>  <UniqueID>  (24) 
23

>  <SMILES>  (24) 
CCOc1ccc(S(=O)(=O)[N-]Cc2cccnc2)cc1[N-]C(=O)CNC(=O)c1ccccc1

>  <Energy>  (24) 
59.55343346027118

>  <Genealogy>  (24) 
CCOc1ccc(S(=O)(=O)[N-]Cc2cccnc2)cc1[N-]C(=O)CNC(=O)c1ccccc1 (protonated)
CCOc1ccc(S(=O)(=O)[N-]Cc2cccnc2)cc1[N-]C(=O)CNC(=O)c1ccccc1 (3D coordinates assigned)
CCOc1ccc(S(=O)(=O)[N-]Cc2cccnc2)cc1[N-]C(=O)CNC(=O)c1ccccc1 (optimized conformer: 59.55343346027118 kcal/mol)

>  <smiles>  (24) 
CCOc1ccc(S(=O)(=O)NCc2cccnc2)cc1NC(=O)CNC(=O)c1ccccc1

>  <score_type>  (24) 
oracle

>  <origin>  (24) 
adg

>  <m_score__min__energy>  (24) 
-11.800000000000001

>  <m_primary>  (24) 
energy

$$$$
24:0
     RDKit          3D

 70 75  0  0  0  0  0  0  0  0999 V2000
   57.0710   29.3000   53.1170 C   0  0  0  0  0  0  0  0  0  0  0  0
   56.7980   30.4500   52.2510 N   0  0  0  0  0  0  0  0  0  0  0  0
   55.4180   30.8940   52.0630 C   0  0  0  0  0  0  0  0  0  0  0  0
   57.8650   31.1650   51.6010 C   0  0  0  0  0  0  0  0  0  0  0  0
   57.7660   32.4090   51.4270 O   0  0  0  0  0  0  0  0  0  0  0  0
   59.0660   30.5060   51.1790 N   0  0  0  0  0  0  0  0  0  0  0  0
   59.4630   30.2730   49.8220 C   0  0  0  0  0  0  0  0  0  0  0  0
   60.8250   30.1660   49.5240 C   0  0  0  0  0  0  0  0  0  0  0  0
   61.2460   29.9440   48.2110 C   0  0  0  0  0  0  0  0  0  0  0  0
   60.3100   29.8320   47.1730 C   0  0  0  0  0  0  0  0  0  0  0  0
   58.9380   29.9860   47.4580 C   0  0  0  0  0  0  0  0  0  0  0  0
   58.5220   30.1990   48.7810 C   0  0  0  0  0  0  0  0  0  0  0  0
   57.9060   29.8160   46.3710 C   0  0  0  0  0  0  0  0  0  0  0  0
   58.4410   30.1370   45.0330 N   0  0  0  0  0  0  0  0  0  0  0  0
   58.6070   31.5950   44.8280 C   0  0  0  0  0  0  0  0  0  0  0  0
   57.3370   32.2050   44.2280 C   0  0  0  0  0  0  0  0  0  0  0  0
   57.0400   33.8880   44.8800 S   0  0  0  0  0  0  0  0  0  0  0  0
   58.1940   33.7390   46.2450 C   0  0  0  0  0  0  0  0  0  0  0  0
   57.7960   33.1990   47.4650 C   0  0  0  0  0  0  0  0  0  0  0  0
   58.6940   33.1010   48.4780 N   0  0  0  0  0  0  0  0  0  0  0  0
   59.9750   33.5350   48.3080 C   0  0  0  0  0  0  0  0  0  0  0  0
   60.9690   33.4340   49.3990 C   0  0  0  0  0  0  0  0  0  0  0  0
   60.5540   33.5170   50.7450 C   0  0  0  0  0  0  0  0  0  0  0  0
   61.4940   33.4590   51.7940 C   0  0  0  0  0  0  0  0  0  0  0  0
   62.8610   33.2920   51.5190 C   0  0  0  0  0  0  0  0  0  0  0  0
   63.2540   33.1610   50.1840 C   0  0  0  0  0  0  0  0  0  0  0  0
   62.3420   33.2470   49.1580 C   0  0  0  0  0  0  0  0  0  0  0  0
   63.0460   33.0960   47.9760 C   0  0  0  0  0  0  0  0  0  0  0  0
   64.3750   32.9500   48.3470 C   0  0  0  0  0  0  0  0  0  0  0  0
   64.4990   32.9760   49.6940 N   0  0  0  0  0  0  0  0  0  0  0  0
   65.7350   32.8260   50.4100 C   0  0  0  0  0  0  0  0  0  0  0  0
   66.1190   31.5840   50.9390 C   0  0  0  0  0  0  0  0  0  0  0  0
   67.3390   31.4700   51.6080 C   0  0  0  0  0  0  0  0  0  0  0  0
   68.1690   32.5850   51.7330 C   0  0  0  0  0  0  0  0  0  0  0  0
   67.7680   33.7990   51.1750 C   0  0  0  0  0  0  0  0  0  0  0  0
   66.5750   33.8920   50.5280 N   0  0  0  0  0  0  0  0  0  0  0  0
   60.3530   34.0310   47.1000 N   0  0  0  0  0  0  0  0  0  0  0  0
   59.4840   34.1300   46.0940 N   0  0  0  0  0  0  0  0  0  0  0  0
   59.6650   29.3500   44.7620 C   0  0  0  0  0  0  0  0  0  0  0  0
   60.8000   29.6380   45.7610 C   0  0  0  0  0  0  0  0  0  0  0  0
   56.9977   29.6086   54.1703 H   0  0  0  0  0  0  0  0  0  0  0  0
   56.3362   28.5066   52.9154 H   0  0  0  0  0  0  0  0  0  0  0  0
   58.0840   28.9215   52.9154 H   0  0  0  0  0  0  0  0  0  0  0  0
   54.9449   31.0462   53.0443 H   0  0  0  0  0  0  0  0  0  0  0  0
   55.4104   31.8399   51.5016 H   0  0  0  0  0  0  0  0  0  0  0  0
   54.8603   30.1300   51.5016 H   0  0  0  0  0  0  0  0  0  0  0  0
   61.5694   30.2572   50.3287 H   0  0  0  0  0  0  0  0  0  0  0  0
   62.3199   29.8564   47.9895 H   0  0  0  0  0  0  0  0  0  0  0  0
   57.4507   30.3089   49.0051 H   0  0  0  0  0  0  0  0  0  0  0  0
   57.5602   28.7718   46.3722 H   0  0  0  0  0  0  0  0  0  0  0  0
   57.0812   30.5135   46.5790 H   0  0  0  0  0  0  0  0  0  0  0  0
   58.8154   32.0744   45.7959 H   0  0  0  0  0  0  0  0  0  0  0  0
   59.4424   31.7615   44.1320 H   0  0  0  0  0  0  0  0  0  0  0  0
   57.4462   32.2578   43.1347 H   0  0  0  0  0  0  0  0  0  0  0  0
   56.4821   31.5693   44.5020 H   0  0  0  0  0  0  0  0  0  0  0  0
   56.7611   32.8542   47.6069 H   0  0  0  0  0  0  0  0  0  0  0  0
   58.3940   32.6580   49.3740 H   0  0  0  0  0  0  0  0  0  0  0  0
   59.4848   33.6282   50.9785 H   0  0  0  0  0  0  0  0  0  0  0  0
   61.1539   33.5453   52.8365 H   0  0  0  0  0  0  0  0  0  0  0  0
   63.6019   33.2650   52.3316 H   0  0  0  0  0  0  0  0  0  0  0  0
   62.6370   33.0925   46.9549 H   0  0  0  0  0  0  0  0  0  0  0  0
   65.2119   32.8298   47.6434 H   0  0  0  0  0  0  0  0  0  0  0  0
   65.4639   30.7074   50.8274 H   0  0  0  0  0  0  0  0  0  0  0  0
   67.6453   30.5039   52.0355 H   0  0  0  0  0  0  0  0  0  0  0  0
   69.1284   32.5074   52.2654 H   0  0  0  0  0  0  0  0  0  0  0  0
   68.4177   34.6827   51.2583 H   0  0  0  0  0  0  0  0  0  0  0  0
   59.4132   28.2806   44.8167 H   0  0  0  0  0  0  0  0  0  0  0  0
   60.0257   29.6370   43.7632 H   0  0  0  0  0  0  0  0  0  0  0  0
   61.5017   28.7910   45.7473 H   0  0  0  0  0  0  0  0  0  0  0  0
   61.2811   30.5767   45.4490 H   0  0  0  0  0  0  0  0  0  0  0  0
  1  2  1  0
  2  3  1  0
  2  4  1  0
  4  5  2  0
  4  6  1  0
  6  7  1  0
  7  8  2  0
  8  9  1  0
  9 10  2  0
 10 11  1  0
 11 12  2  0
 11 13  1  0
 13 14  1  0
 14 15  1  0
 15 16  1  0
 16 17  1  0
 17 18  1  0
 18 19  2  0
 19 20  1  0
 20 21  2  0
 21 22  1  0
 22 23  2  0
 23 24  1  0
 24 25  2  0
 25 26  1  0
 26 27  2  0
 27 28  1  0
 28 29  2  0
 29 30  1  0
 30 31  1  0
 31 32  2  0
 32 33  1  0
 33 34  2  0
 34 35  1  0
 35 36  2  0
 21 37  1  0
 37 38  2  0
 14 39  1  0
 39 40  1  0
 12  7  1  0
 38 18  1  0
 40 10  1  0
 27 22  1  0
 36 31  1  0
 30 26  1  0
  1 41  1  0
  1 42  1  0
  1 43  1  0
  3 44  1  0
  3 45  1  0
  3 46  1  0
  8 47  1  0
  9 48  1  0
 12 49  1  0
 13 50  1  0
 13 51  1  0
 15 52  1  0
 15 53  1  0
 16 54  1  0
 16 55  1  0
 19 56  1  0
 20 57  1  0
 23 58  1  0
 24 59  1  0
 25 60  1  0
 28 61  1  0
 29 62  1  0
 32 63  1  0
 33 64  1  0
 34 65  1  0
 35 66  1  0
 39 67  1  0
 39 68  1  0
 40 69  1  0
 40 70  1  0
M  CHG  2   6  -1  20   1
M  END
>  <UniqueID>  (25) 
24

>  <SMILES>  (25) 
CN(C)C(=O)[N-]c1ccc2c(c1)CN(CCSc1c[nH+]c(-c3cccc4c3ccn4-c3ccccn3)nn1)CC2

>  <Energy>  (25) 
128.66354941625565

>  <Genealogy>  (25) 
CN(C)C(=O)[N-]c1ccc2c(c1)CN(CCSc1c[nH+]c(-c3cccc4c3ccn4-c3ccccn3)nn1)CC2 (protonated)
CN(C)C(=O)[N-]c1ccc2c(c1)CN(CCSc1c[nH+]c(-c3cccc4c3ccn4-c3ccccn3)nn1)CC2 (3D coordinates assigned)
CN(C)C(=O)[N-]c1ccc2c(c1)CN(CCSc1c[nH+]c(-c3cccc4c3ccn4-c3ccccn3)nn1)CC2 (nonaromatic ring conformer: 128.66354941625565 kcal/mol)

>  <smiles>  (25) 
CN(C)C(=O)Nc1ccc2c(c1)CN(CCSc1cnc(-c3cccc4c3ccn4-c3ccccn3)nn1)CC2

>  <score_type>  (25) 
oracle

>  <origin>  (25) 
adg

>  <m_score__min__energy>  (25) 
-10.68

>  <m_primary>  (25) 
energy

$$$$
25:0
     RDKit          3D

 48 50  0  0  0  0  0  0  0  0999 V2000
   54.9170   29.6390   52.7780 C   0  0  0  0  0  0  0  0  0  0  0  0
   55.3790   30.5080   51.7500 O   0  0  0  0  0  0  0  0  0  0  0  0
   56.7030   30.9440   51.6730 C   0  0  0  0  0  0  0  0  0  0  0  0
   56.9950   32.1550   51.8820 O   0  0  0  0  0  0  0  0  0  0  0  0
   57.7270   30.0000   51.3500 N   0  0  0  0  0  0  0  0  0  0  0  0
   59.1120   30.1110   51.8050 C   0  0  0  0  0  0  0  0  0  0  0  0
   59.9050   28.8360   51.4960 C   0  0  0  0  0  0  0  0  0  0  0  0
   60.2490   28.7710   50.0770 N   0  0  0  0  0  0  0  0  0  0  0  0
   60.2990   29.8190   49.2290 C   0  0  0  0  0  0  0  0  0  0  0  0
   60.5180   29.3520   47.9480 C   0  0  0  0  0  0  0  0  0  0  0  0
   60.5600   30.1340   46.7490 N   0  0  0  0  0  0  0  0  0  0  0  0
   59.5950   31.1530   46.4430 C   0  0  0  0  0  0  0  0  0  0  0  0
   59.4940   32.3160   47.2280 C   0  0  0  0  0  0  0  0  0  0  0  0
   58.5210   33.2790   46.9390 C   0  0  0  0  0  0  0  0  0  0  0  0
   57.6370   33.0910   45.8690 C   0  0  0  0  0  0  0  0  0  0  0  0
   56.6460   34.0800   45.5720 N   0  0  0  0  0  0  0  0  0  0  0  0
   57.7270   31.9250   45.0950 C   0  0  0  0  0  0  0  0  0  0  0  0
   58.6930   30.9580   45.3870 C   0  0  0  0  0  0  0  0  0  0  0  0
   60.6040   27.9770   48.0250 C   0  0  0  0  0  0  0  0  0  0  0  0
   60.7150   26.8310   46.6540 S   0  0  0  0  0  0  0  0  0  0  0  0
   58.9330   26.7600   46.4780 C   0  0  0  0  0  0  0  0  0  0  0  0
   58.2180   25.6830   47.0200 C   0  0  0  0  0  0  0  0  0  0  0  0
   56.8310   25.6090   46.8560 C   0  0  0  0  0  0  0  0  0  0  0  0
   56.1550   26.6140   46.1550 C   0  0  0  0  0  0  0  0  0  0  0  0
   54.7780   26.5400   45.9900 O   0  0  0  0  0  0  0  0  0  0  0  0
   56.8670   27.6940   45.6190 C   0  0  0  0  0  0  0  0  0  0  0  0
   58.2540   27.7680   45.7820 C   0  0  0  0  0  0  0  0  0  0  0  0
   60.4240   27.6450   49.3530 C   0  0  0  0  0  0  0  0  0  0  0  0
   55.1496   30.0766   53.7600 H   0  0  0  0  0  0  0  0  0  0  0  0
   53.8291   29.5060   52.6843 H   0  0  0  0  0  0  0  0  0  0  0  0
   55.4152   28.6628   52.6843 H   0  0  0  0  0  0  0  0  0  0  0  0
   59.5890   30.9616   51.2961 H   0  0  0  0  0  0  0  0  0  0  0  0
   59.1079   30.2612   52.8947 H   0  0  0  0  0  0  0  0  0  0  0  0
   60.8296   28.8328   52.0919 H   0  0  0  0  0  0  0  0  0  0  0  0
   59.2840   27.9640   51.7490 H   0  0  0  0  0  0  0  0  0  0  0  0
   60.1838   30.8756   49.5124 H   0  0  0  0  0  0  0  0  0  0  0  0
   61.3060   29.9230   46.0500 H   0  0  0  0  0  0  0  0  0  0  0  0
   60.1825   32.4689   48.0721 H   0  0  0  0  0  0  0  0  0  0  0  0
   58.4500   34.1877   47.5548 H   0  0  0  0  0  0  0  0  0  0  0  0
   56.5950   34.5160   44.6240 H   0  0  0  0  0  0  0  0  0  0  0  0
   55.9700   34.3960   46.3030 H   0  0  0  0  0  0  0  0  0  0  0  0
   57.0344   31.7708   44.2545 H   0  0  0  0  0  0  0  0  0  0  0  0
   58.7461   30.0388   44.7851 H   0  0  0  0  0  0  0  0  0  0  0  0
   58.7484   24.8951   47.5749 H   0  0  0  0  0  0  0  0  0  0  0  0
   56.2716   24.7610   47.2779 H   0  0  0  0  0  0  0  0  0  0  0  0
   56.3351   28.4846   45.0694 H   0  0  0  0  0  0  0  0  0  0  0  0
   58.8120   28.6185   45.3633 H   0  0  0  0  0  0  0  0  0  0  0  0
   60.4233   26.6223   49.7581 H   0  0  0  0  0  0  0  0  0  0  0  0
  1  2  1  0
  2  3  1  0
  3  4  2  0
  3  5  1  0
  5  6  1  0
  6  7  1  0
  7  8  1  0
  8  9  1  0
  9 10  2  0
 10 11  1  0
 11 12  1  0
 12 13  2  0
 13 14  1  0
 14 15  2  0
 15 16  1  0
 15 17  1  0
 17 18  2  0
 10 19  1  0
 19 20  1  0
 20 21  1  0
 21 22  2  0
 22 23  1  0
 23 24  2  0
 24 25  1  0
 24 26  1  0
 26 27  2  0
 19 28  2  0
 28  8  1  0
 18 12  1  0
 27 21  1  0
  1 29  1  0
  1 30  1  0
  1 31  1  0
  6 32  1  0
  6 33  1  0
  7 34  1  0
  7 35  1  0
  9 36  1  0
 11 37  1  0
 13 38  1  0
 14 39  1  0
 16 40  1  0
 16 41  1  0
 17 42  1  0
 18 43  1  0
 22 44  1  0
 23 45  1  0
 26 46  1  0
 27 47  1  0
 28 48  1  0
M  CHG  2   5  -1  25  -1
M  END
>  <UniqueID>  (26) 
25

>  <SMILES>  (26) 
COC(=O)[N-]CCn1cc(Nc2ccc(N)cc2)c(Sc2ccc([O-])cc2)c1

>  <Energy>  (26) 
66.04351247451002

>  <Genealogy>  (26) 
COC(=O)[N-]CCn1cc(Nc2ccc(N)cc2)c(Sc2ccc([O-])cc2)c1 (protonated)
COC(=O)[N-]CCn1cc(Nc2ccc(N)cc2)c(Sc2ccc([O-])cc2)c1 (3D coordinates assigned)
COC(=O)[N-]CCn1cc(Nc2ccc(N)cc2)c(Sc2ccc([O-])cc2)c1 (optimized conformer: 66.04351247451002 kcal/mol)

>  <smiles>  (26) 
COC(=O)NCCn1cc(Nc2ccc(N)cc2)c(Sc2ccc(O)cc2)c1

>  <score_type>  (26) 
oracle

>  <origin>  (26) 
adg

>  <m_score__min__energy>  (26) 
-11.19

>  <m_primary>  (26) 
energy

$$$$
26:0
     RDKit          3D

 46 48  0  0  0  0  0  0  0  0999 V2000
   51.4650   23.4850   44.6020 C   0  0  0  0  0  0  0  0  0  0  0  0
   52.8030   22.9700   44.8640 N   0  0  0  0  0  0  0  0  0  0  0  0
   53.9480   23.7740   45.1760 C   0  0  0  0  0  0  0  0  0  0  0  0
   53.7670   24.9380   45.6170 O   0  0  0  0  0  0  0  0  0  0  0  0
   55.3290   23.3080   44.9510 C   0  0  0  0  0  0  0  0  0  0  0  0
   56.4280   24.1530   45.1670 C   0  0  0  0  0  0  0  0  0  0  0  0
   57.7210   23.6880   44.9090 C   0  0  0  0  0  0  0  0  0  0  0  0
   58.8060   24.5430   45.1550 O   0  0  0  0  0  0  0  0  0  0  0  0
   58.7290   25.9370   45.2850 C   0  0  0  0  0  0  0  0  0  0  0  0
   58.4020   26.7690   44.2000 C   0  0  0  0  0  0  0  0  0  0  0  0
   58.3200   28.1540   44.3720 C   0  0  0  0  0  0  0  0  0  0  0  0
   58.5660   28.7300   45.6270 C   0  0  0  0  0  0  0  0  0  0  0  0
   58.4540   30.1560   45.7820 N   0  0  0  0  0  0  0  0  0  0  0  0
   57.4000   30.9480   45.2180 C   0  0  0  0  0  0  0  0  0  0  0  0
   56.3640   30.3960   44.7570 O   0  0  0  0  0  0  0  0  0  0  0  0
   57.4970   32.3760   45.2720 N   0  0  0  0  0  0  0  0  0  0  0  0
   58.2970   33.1410   46.1870 C   0  0  0  0  0  0  0  0  0  0  0  0
   58.4790   32.7430   47.5250 C   0  0  0  0  0  0  0  0  0  0  0  0
   59.2640   33.5160   48.4010 C   0  0  0  0  0  0  0  0  0  0  0  0
   59.4200   33.1070   49.8440 C   0  0  0  0  0  0  0  0  0  0  0  0
   58.4230   32.2210   50.2130 F   0  0  0  0  0  0  0  0  0  0  0  0
   60.6490   32.4980   50.0150 F   0  0  0  0  0  0  0  0  0  0  0  0
   59.3440   34.2120   50.6740 F   0  0  0  0  0  0  0  0  0  0  0  0
   59.8130   34.7250   47.9400 C   0  0  0  0  0  0  0  0  0  0  0  0
   59.6120   35.1340   46.6200 C   0  0  0  0  0  0  0  0  0  0  0  0
   58.8540   34.3490   45.7470 C   0  0  0  0  0  0  0  0  0  0  0  0
   58.6640   34.7630   44.4700 F   0  0  0  0  0  0  0  0  0  0  0  0
   58.8530   27.8920   46.7200 C   0  0  0  0  0  0  0  0  0  0  0  0
   58.9320   26.5070   46.5460 C   0  0  0  0  0  0  0  0  0  0  0  0
   57.8990   22.3720   44.4530 C   0  0  0  0  0  0  0  0  0  0  0  0
   56.7790   21.5690   44.2240 C   0  0  0  0  0  0  0  0  0  0  0  0
   55.5320   22.0520   44.4680 N   0  0  0  0  0  0  0  0  0  0  0  0
   50.9544   23.6815   45.5563 H   0  0  0  0  0  0  0  0  0  0  0  0
   51.5380   24.4193   44.0260 H   0  0  0  0  0  0  0  0  0  0  0  0
   50.8927   22.7429   44.0260 H   0  0  0  0  0  0  0  0  0  0  0  0
   56.2730   25.1770   45.5378 H   0  0  0  0  0  0  0  0  0  0  0  0
   58.2097   26.3281   43.2108 H   0  0  0  0  0  0  0  0  0  0  0  0
   58.0608   28.7963   43.5174 H   0  0  0  0  0  0  0  0  0  0  0  0
   59.1390   30.6410   46.4050 H   0  0  0  0  0  0  0  0  0  0  0  0
   58.0037   31.8201   47.8889 H   0  0  0  0  0  0  0  0  0  0  0  0
   60.4044   35.3526   48.6229 H   0  0  0  0  0  0  0  0  0  0  0  0
   60.0521   36.0779   46.2660 H   0  0  0  0  0  0  0  0  0  0  0  0
   59.0160   28.3286   47.7164 H   0  0  0  0  0  0  0  0  0  0  0  0
   59.1555   25.8606   47.4075 H   0  0  0  0  0  0  0  0  0  0  0  0
   58.9106   21.9771   44.2778 H   0  0  0  0  0  0  0  0  0  0  0  0
   56.9064   20.5440   43.8456 H   0  0  0  0  0  0  0  0  0  0  0  0
  1  2  1  0
  2  3  1  0
  3  4  2  0
  3  5  1  0
  5  6  2  0
  6  7  1  0
  7  8  1  0
  8  9  1  0
  9 10  2  0
 10 11  1  0
 11 12  2  0
 12 13  1  0
 13 14  1  0
 14 15  2  0
 14 16  1  0
 16 17  1  0
 17 18  2  0
 18 19  1  0
 19 20  1  0
 20 21  1  0
 20 22  1  0
 20 23  1  0
 19 24  2  0
 24 25  1  0
 25 26  2  0
 26 27  1  0
 12 28  1  0
 28 29  2  0
  7 30  2  0
 30 31  1  0
 31 32  2  0
 32  5  1  0
 29  9  1  0
 26 17  1  0
  1 33  1  0
  1 34  1  0
  1 35  1  0
  6 36  1  0
 10 37  1  0
 11 38  1  0
 13 39  1  0
 18 40  1  0
 24 41  1  0
 25 42  1  0
 28 43  1  0
 29 44  1  0
 30 45  1  0
 31 46  1  0
M  CHG  2   2  -1  16  -1
M  END
>  <UniqueID>  (27) 
26

>  <SMILES>  (27) 
C[N-]C(=O)c1cc(Oc2ccc(NC(=O)[N-]c3cc(C(F)(F)F)ccc3F)cc2)ccn1

>  <Energy>  (27) 
66.28066259932294

>  <Genealogy>  (27) 
C[N-]C(=O)c1cc(Oc2ccc(NC(=O)[N-]c3cc(C(F)(F)F)ccc3F)cc2)ccn1 (protonated)
C[N-]C(=O)c1cc(Oc2ccc(NC(=O)[N-]c3cc(C(F)(F)F)ccc3F)cc2)ccn1 (3D coordinates assigned)
C[N-]C(=O)c1cc(Oc2ccc(NC(=O)[N-]c3cc(C(F)(F)F)ccc3F)cc2)ccn1 (optimized conformer: 66.28066259932294 kcal/mol)

>  <smiles>  (27) 
CNC(=O)c1cc(Oc2ccc(NC(=O)Nc3cc(C(F)(F)F)ccc3F)cc2)ccn1

>  <score_type>  (27) 
oracle

>  <origin>  (27) 
adg

>  <m_score__min__energy>  (27) 
-11.24

>  <m_primary>  (27) 
energy

$$$$
27:0
     RDKit          3D

 51 54  0  0  0  0  0  0  0  0999 V2000
   55.9030   26.7480   46.0440 N   0  0  0  0  0  0  0  0  0  0  0  0
   57.4070   27.6030   45.9760 S   0  0  0  0  0  0  0  0  0  0  0  0
   57.8070   28.0360   47.3600 O   0  0  0  0  0  0  0  0  0  0  0  0
   58.4740   26.6920   45.4300 O   0  0  0  0  0  0  0  0  0  0  0  0
   57.2340   29.0190   44.9440 C   0  0  0  0  0  0  0  0  0  0  0  0
   56.9390   28.8760   43.5780 C   0  0  0  0  0  0  0  0  0  0  0  0
   56.8220   30.0050   42.7640 C   0  0  0  0  0  0  0  0  0  0  0  0
   56.9980   31.2820   43.3060 C   0  0  0  0  0  0  0  0  0  0  0  0
   57.2890   31.4390   44.6740 C   0  0  0  0  0  0  0  0  0  0  0  0
   57.5450   32.8060   45.2540 C   0  0  0  0  0  0  0  0  0  0  0  0
   58.6410   32.7440   46.2210 N   0  0  0  0  0  0  0  0  0  0  0  0
   59.3150   33.9270   46.6900 C   0  0  0  0  0  0  0  0  0  0  0  0
   58.8380   35.0670   46.4300 O   0  0  0  0  0  0  0  0  0  0  0  0
   60.5830   33.8380   47.4350 C   0  0  0  0  0  0  0  0  0  0  0  0
   60.7500   34.0380   48.8080 C   0  0  0  0  0  0  0  0  0  0  0  0
   62.0880   33.7930   49.0400 C   0  0  0  0  0  0  0  0  0  0  0  0
   62.8220   33.8180   50.2260 C   0  0  0  0  0  0  0  0  0  0  0  0
   64.1840   33.4450   50.1710 C   0  0  0  0  0  0  0  0  0  0  0  0
   64.9350   33.4290   51.3930 N   0  0  0  0  0  0  0  0  0  0  0  0
   66.4680   32.6460   51.5940 S   0  0  0  0  0  0  0  0  0  0  0  0
   67.3750   33.0440   50.4640 O   0  0  0  0  0  0  0  0  0  0  0  0
   67.0820   33.1160   52.8810 O   0  0  0  0  0  0  0  0  0  0  0  0
   66.2940   30.8910   51.5900 C   0  0  0  0  0  0  0  0  0  0  0  0
   65.0580   30.3090   51.9090 C   0  0  0  0  0  0  0  0  0  0  0  0
   64.9080   28.9140   51.8850 C   0  0  0  0  0  0  0  0  0  0  0  0
   65.9940   28.0960   51.5470 C   0  0  0  0  0  0  0  0  0  0  0  0
   65.8450   26.7440   51.5200 F   0  0  0  0  0  0  0  0  0  0  0  0
   67.2330   28.6720   51.2360 C   0  0  0  0  0  0  0  0  0  0  0  0
   67.3820   30.0640   51.2530 C   0  0  0  0  0  0  0  0  0  0  0  0
   64.7700   33.0820   48.9260 C   0  0  0  0  0  0  0  0  0  0  0  0
   64.0070   33.1000   47.7460 C   0  0  0  0  0  0  0  0  0  0  0  0
   62.6630   33.4580   47.8420 C   0  0  0  0  0  0  0  0  0  0  0  0
   61.7590   33.4950   46.8510 N   0  0  0  0  0  0  0  0  0  0  0  0
   57.4010   30.3010   45.4900 C   0  0  0  0  0  0  0  0  0  0  0  0
   55.1470   27.4630   46.0060 H   0  0  0  0  0  0  0  0  0  0  0  0
   56.7999   27.8729   43.1486 H   0  0  0  0  0  0  0  0  0  0  0  0
   56.5910   29.8894   41.6948 H   0  0  0  0  0  0  0  0  0  0  0  0
   56.9086   32.1679   42.6601 H   0  0  0  0  0  0  0  0  0  0  0  0
   57.8130   33.5006   44.4442 H   0  0  0  0  0  0  0  0  0  0  0  0
   56.6353   33.1577   45.7626 H   0  0  0  0  0  0  0  0  0  0  0  0
   58.9810   31.7990   46.5100 H   0  0  0  0  0  0  0  0  0  0  0  0
   59.9836   34.3271   49.5422 H   0  0  0  0  0  0  0  0  0  0  0  0
   62.3548   34.1189   51.1753 H   0  0  0  0  0  0  0  0  0  0  0  0
   64.2042   30.9479   52.1787 H   0  0  0  0  0  0  0  0  0  0  0  0
   63.9361   28.4620   52.1320 H   0  0  0  0  0  0  0  0  0  0  0  0
   68.0886   28.0304   50.9785 H   0  0  0  0  0  0  0  0  0  0  0  0
   68.3540   30.5135   51.0018 H   0  0  0  0  0  0  0  0  0  0  0  0
   65.8284   32.7850   48.8870 H   0  0  0  0  0  0  0  0  0  0  0  0
   64.4564   32.8396   46.7763 H   0  0  0  0  0  0  0  0  0  0  0  0
   61.9240   33.2720   45.8430 H   0  0  0  0  0  0  0  0  0  0  0  0
   57.6206   30.4153   46.5618 H   0  0  0  0  0  0  0  0  0  0  0  0
  1  2  1  0
  2  3  2  0
  2  4  2  0
  2  5  1  0
  5  6  2  0
  6  7  1  0
  7  8  2  0
  8  9  1  0
  9 10  1  0
 10 11  1  0
 11 12  1  0
 12 13  2  0
 12 14  1  0
 14 15  2  0
 15 16  1  0
 16 17  2  0
 17 18  1  0
 18 19  1  0
 19 20  1  0
 20 21  2  0
 20 22  2  0
 20 23  1  0
 23 24  2  0
 24 25  1  0
 25 26  2  0
 26 27  1  0
 26 28  1  0
 28 29  2  0
 18 30  2  0
 30 31  1  0
 31 32  2  0
 32 33  1  0
  9 34  2  0
 34  5  1  0
 33 14  1  0
 32 16  1  0
 29 23  1  0
  1 35  1  0
  6 36  1  0
  7 37  1  0
  8 38  1  0
 10 39  1  0
 10 40  1  0
 11 41  1  0
 15 42  1  0
 17 43  1  0
 24 44  1  0
 25 45  1  0
 28 46  1  0
 29 47  1  0
 30 48  1  0
 31 49  1  0
 33 50  1  0
 34 51  1  0
M  CHG  2   1  -1  19  -1
M  END
>  <UniqueID>  (28) 
27

>  <SMILES>  (28) 
[NH-]S(=O)(=O)c1cccc(CNC(=O)c2cc3cc([N-]S(=O)(=O)c4ccc(F)cc4)ccc3[nH]2)c1

>  <Energy>  (28) 
90.81082605531606

>  <Genealogy>  (28) 
[NH-]S(=O)(=O)c1cccc(CNC(=O)c2cc3cc([N-]S(=O)(=O)c4ccc(F)cc4)ccc3[nH]2)c1 (protonated)
[NH-]S(=O)(=O)c1cccc(CNC(=O)c2cc3cc([N-]S(=O)(=O)c4ccc(F)cc4)ccc3[nH]2)c1 (3D coordinates assigned)
[NH-]S(=O)(=O)c1cccc(CNC(=O)c2cc3cc([N-]S(=O)(=O)c4ccc(F)cc4)ccc3[nH]2)c1 (optimized conformer: 90.81082605531606 kcal/mol)

>  <smiles>  (28) 
NS(=O)(=O)c1cccc(CNC(=O)c2cc3cc(NS(=O)(=O)c4ccc(F)cc4)ccc3[nH]2)c1

>  <score_type>  (28) 
oracle

>  <origin>  (28) 
adg

>  <m_score__min__energy>  (28) 
-13.43

>  <m_primary>  (28) 
energy

$$$$
28:0
     RDKit          3D

 54 56  0  0  0  0  0  0  0  0999 V2000
   56.6490   32.7170   45.2190 C   0  0  0  0  0  0  0  0  0  0  0  0
   57.5700   31.6060   45.5040 N   0  0  0  0  0  0  0  0  0  0  0  0
   57.4320   30.5260   44.4970 C   0  0  0  0  0  0  0  0  0  0  0  0
   56.1060   29.8420   44.6790 C   0  0  0  0  0  0  0  0  0  0  0  0
   55.0570   30.4260   44.2920 O   0  0  0  0  0  0  0  0  0  0  0  0
   55.9950   28.5280   45.2450 N   0  0  0  0  0  0  0  0  0  0  0  0
   57.0220   27.7910   45.9230 C   0  0  0  0  0  0  0  0  0  0  0  0
   57.2030   26.4130   45.7190 C   0  0  0  0  0  0  0  0  0  0  0  0
   58.2340   25.7360   46.3760 C   0  0  0  0  0  0  0  0  0  0  0  0
   59.1030   26.4300   47.2220 C   0  0  0  0  0  0  0  0  0  0  0  0
   58.9480   27.8090   47.4080 C   0  0  0  0  0  0  0  0  0  0  0  0
   60.0630   28.7120   48.4330 S   0  0  0  0  0  0  0  0  0  0  0  0
   59.2520   29.4880   49.4340 O   0  0  0  0  0  0  0  0  0  0  0  0
   60.9800   27.7760   49.1700 O   0  0  0  0  0  0  0  0  0  0  0  0
   61.0080   29.7990   47.4540 N   0  0  0  0  0  0  0  0  0  0  0  0
   60.9340   29.6830   45.9960 C   0  0  0  0  0  0  0  0  0  0  0  0
   61.8180   30.8220   48.0660 C   0  0  0  0  0  0  0  0  0  0  0  0
   61.8710   30.9480   49.4680 C   0  0  0  0  0  0  0  0  0  0  0  0
   62.6660   31.9340   50.0620 C   0  0  0  0  0  0  0  0  0  0  0  0
   63.4200   32.8000   49.2660 C   0  0  0  0  0  0  0  0  0  0  0  0
   63.3800   32.6820   47.8730 C   0  0  0  0  0  0  0  0  0  0  0  0
   62.5860   31.6980   47.2750 C   0  0  0  0  0  0  0  0  0  0  0  0
   57.9150   28.4870   46.7480 C   0  0  0  0  0  0  0  0  0  0  0  0
   58.9600   32.0980   45.6070 C   0  0  0  0  0  0  0  0  0  0  0  0
   59.2190   32.6210   46.9970 C   0  0  0  0  0  0  0  0  0  0  0  0
   58.6420   32.0000   48.1190 C   0  0  0  0  0  0  0  0  0  0  0  0
   58.8400   32.5310   49.3990 C   0  0  0  0  0  0  0  0  0  0  0  0
   59.6130   33.6830   49.5680 C   0  0  0  0  0  0  0  0  0  0  0  0
   59.7920   34.2050   50.8080 F   0  0  0  0  0  0  0  0  0  0  0  0
   60.1940   34.3030   48.4580 C   0  0  0  0  0  0  0  0  0  0  0  0
   60.0000   33.7740   47.1770 C   0  0  0  0  0  0  0  0  0  0  0  0
   56.2912   33.1486   46.1654 H   0  0  0  0  0  0  0  0  0  0  0  0
   57.1750   33.4898   44.6392 H   0  0  0  0  0  0  0  0  0  0  0  0
   55.7921   32.3434   44.6392 H   0  0  0  0  0  0  0  0  0  0  0  0
   57.4873   30.9569   43.4864 H   0  0  0  0  0  0  0  0  0  0  0  0
   58.2439   29.7954   44.6274 H   0  0  0  0  0  0  0  0  0  0  0  0
   56.5318   25.8657   45.0407 H   0  0  0  0  0  0  0  0  0  0  0  0
   58.3618   24.6537   46.2267 H   0  0  0  0  0  0  0  0  0  0  0  0
   59.9095   25.8925   47.7423 H   0  0  0  0  0  0  0  0  0  0  0  0
   60.3602   28.7835   45.7284 H   0  0  0  0  0  0  0  0  0  0  0  0
   60.4359   30.5722   45.5822 H   0  0  0  0  0  0  0  0  0  0  0  0
   61.9503   29.6061   45.5822 H   0  0  0  0  0  0  0  0  0  0  0  0
   61.2831   30.2663   50.1002 H   0  0  0  0  0  0  0  0  0  0  0  0
   62.6975   32.0276   51.1576 H   0  0  0  0  0  0  0  0  0  0  0  0
   64.0449   33.5744   49.7348 H   0  0  0  0  0  0  0  0  0  0  0  0
   63.9738   33.3640   47.2468 H   0  0  0  0  0  0  0  0  0  0  0  0
   62.5613   31.6078   46.1790 H   0  0  0  0  0  0  0  0  0  0  0  0
   57.8043   29.5736   46.8785 H   0  0  0  0  0  0  0  0  0  0  0  0
   59.6554   31.2732   45.3925 H   0  0  0  0  0  0  0  0  0  0  0  0
   59.1106   32.9106   44.8811 H   0  0  0  0  0  0  0  0  0  0  0  0
   58.0326   31.0933   47.9903 H   0  0  0  0  0  0  0  0  0  0  0  0
   58.3865   32.0408   50.2731 H   0  0  0  0  0  0  0  0  0  0  0  0
   60.8046   35.2081   48.5916 H   0  0  0  0  0  0  0  0  0  0  0  0
   60.4616   34.2638   46.3069 H   0  0  0  0  0  0  0  0  0  0  0  0
  1  2  1  0
  2  3  1  0
  3  4  1  0
  4  5  2  0
  4  6  1  0
  6  7  1  0
  7  8  2  0
  8  9  1  0
  9 10  2  0
 10 11  1  0
 11 12  1  0
 12 13  2  0
 12 14  2  0
 12 15  1  0
 15 16  1  0
 15 17  1  0
 17 18  2  0
 18 19  1  0
 19 20  2  0
 20 21  1  0
 21 22  2  0
 11 23  2  0
  2 24  1  0
 24 25  1  0
 25 26  2  0
 26 27  1  0
 27 28  2  0
 28 29  1  0
 28 30  1  0
 30 31  2  0
 23  7  1  0
 31 25  1  0
 22 17  1  0
  1 32  1  0
  1 33  1  0
  1 34  1  0
  3 35  1  0
  3 36  1  0
  8 37  1  0
  9 38  1  0
 10 39  1  0
 16 40  1  0
 16 41  1  0
 16 42  1  0
 18 43  1  0
 19 44  1  0
 20 45  1  0
 21 46  1  0
 22 47  1  0
 23 48  1  0
 24 49  1  0
 24 50  1  0
 26 51  1  0
 27 52  1  0
 30 53  1  0
 31 54  1  0
M  CHG  1   6  -1
M  END
>  <UniqueID>  (29) 
28

>  <SMILES>  (29) 
CN(CC(=O)[N-]c1cccc(S(=O)(=O)N(C)c2ccccc2)c1)Cc1ccc(F)cc1

>  <Energy>  (29) 
67.43876330780722

>  <Genealogy>  (29) 
CN(CC(=O)[N-]c1cccc(S(=O)(=O)N(C)c2ccccc2)c1)Cc1ccc(F)cc1 (protonated)
CN(CC(=O)[N-]c1cccc(S(=O)(=O)N(C)c2ccccc2)c1)Cc1ccc(F)cc1 (3D coordinates assigned)
CN(CC(=O)[N-]c1cccc(S(=O)(=O)N(C)c2ccccc2)c1)Cc1ccc(F)cc1 (optimized conformer: 67.43876330780722 kcal/mol)

>  <smiles>  (29) 
CN(CC(=O)Nc1cccc(S(=O)(=O)N(C)c2ccccc2)c1)Cc1ccc(F)cc1

>  <score_type>  (29) 
oracle

>  <origin>  (29) 
adg

>  <m_score__min__energy>  (29) 
-11.390000000000001

>  <m_primary>  (29) 
energy

$$$$
29:0
     RDKit          3D

 61 65  0  0  0  0  0  0  0  0999 V2000
   57.6750   25.5610   43.4290 C   0  0  0  0  0  0  0  0  0  0  0  0
   57.6860   25.3920   44.9240 C   0  0  0  0  0  0  0  0  0  0  0  0
   57.4970   24.1150   45.4790 C   0  0  0  0  0  0  0  0  0  0  0  0
   57.5090   23.9340   46.8640 C   0  0  0  0  0  0  0  0  0  0  0  0
   57.3120   22.6680   47.4020 O   0  0  0  0  0  0  0  0  0  0  0  0
   57.7240   25.0240   47.7080 C   0  0  0  0  0  0  0  0  0  0  0  0
   57.9250   26.2980   47.1710 C   0  0  0  0  0  0  0  0  0  0  0  0
   57.8970   26.4980   45.7790 C   0  0  0  0  0  0  0  0  0  0  0  0
   58.1360   27.8080   45.2310 N   0  0  0  0  0  0  0  0  0  0  0  0
   57.0890   28.7630   44.9820 C   0  0  0  0  0  0  0  0  0  0  0  0
   55.8870   28.4520   45.2100 O   0  0  0  0  0  0  0  0  0  0  0  0
   57.3940   30.1140   44.4580 C   0  0  0  0  0  0  0  0  0  0  0  0
   57.0840   30.4710   43.1330 C   0  0  0  0  0  0  0  0  0  0  0  0
   57.3850   31.7490   42.6580 C   0  0  0  0  0  0  0  0  0  0  0  0
   57.9900   32.6880   43.4960 C   0  0  0  0  0  0  0  0  0  0  0  0
   58.2910   32.3580   44.8270 C   0  0  0  0  0  0  0  0  0  0  0  0
   58.9280   33.3210   45.6890 N   0  0  0  0  0  0  0  0  0  0  0  0
   58.1550   34.1100   46.6520 C   0  0  0  0  0  0  0  0  0  0  0  0
   58.6560   33.8080   48.0610 C   0  0  0  0  0  0  0  0  0  0  0  0
   60.1580   33.8760   48.1420 C   0  0  0  0  0  0  0  0  0  0  0  0
   60.7390   34.0070   49.3640 N   0  0  0  0  0  0  0  0  0  0  0  0
   62.0880   34.0010   49.5390 C   0  0  0  0  0  0  0  0  0  0  0  0
   62.6470   34.1280   50.9040 C   0  0  0  0  0  0  0  0  0  0  0  0
   63.7310   34.7450   51.0820 O   0  0  0  0  0  0  0  0  0  0  0  0
   61.9320   33.6480   52.0530 N   0  0  0  0  0  0  0  0  0  0  0  0
   60.6650   33.3480   52.1330 C   0  0  0  0  0  0  0  0  0  0  0  0
   60.1160   32.1930   51.5340 C   0  0  0  0  0  0  0  0  0  0  0  0
   58.7410   31.9340   51.6410 C   0  0  0  0  0  0  0  0  0  0  0  0
   58.1480   30.7430   50.9950 C   0  0  0  0  0  0  0  0  0  0  0  0
   57.2950   30.0420   51.6010 O   0  0  0  0  0  0  0  0  0  0  0  0
   58.5220   30.3820   49.7040 O   0  0  0  0  0  0  0  0  0  0  0  0
   57.9380   32.8230   52.3740 C   0  0  0  0  0  0  0  0  0  0  0  0
   58.5190   33.9370   52.9800 C   0  0  0  0  0  0  0  0  0  0  0  0
   59.8510   34.1690   52.8480 N   0  0  0  0  0  0  0  0  0  0  0  0
   62.9250   33.8650   48.4230 C   0  0  0  0  0  0  0  0  0  0  0  0
   62.3620   33.7180   47.1550 C   0  0  0  0  0  0  0  0  0  0  0  0
   60.9690   33.7010   46.9990 C   0  0  0  0  0  0  0  0  0  0  0  0
   60.3750   33.5510   45.6190 C   0  0  0  0  0  0  0  0  0  0  0  0
   57.9870   31.0720   45.3010 C   0  0  0  0  0  0  0  0  0  0  0  0
   57.6054   26.6305   43.1814 H   0  0  0  0  0  0  0  0  0  0  0  0
   58.6020   25.1464   43.0063 H   0  0  0  0  0  0  0  0  0  0  0  0
   56.8095   25.0297   43.0063 H   0  0  0  0  0  0  0  0  0  0  0  0
   57.3383   23.2507   44.8173 H   0  0  0  0  0  0  0  0  0  0  0  0
   57.7353   24.8800   48.7985 H   0  0  0  0  0  0  0  0  0  0  0  0
   58.1065   27.1508   47.8416 H   0  0  0  0  0  0  0  0  0  0  0  0
   59.1200   28.0550   44.9850 H   0  0  0  0  0  0  0  0  0  0  0  0
   56.6020   29.7395   42.4677 H   0  0  0  0  0  0  0  0  0  0  0  0
   57.1444   32.0174   41.6187 H   0  0  0  0  0  0  0  0  0  0  0  0
   58.2317   33.6900   43.1118 H   0  0  0  0  0  0  0  0  0  0  0  0
   58.2827   35.1813   46.4373 H   0  0  0  0  0  0  0  0  0  0  0  0
   57.0891   33.8495   46.5738 H   0  0  0  0  0  0  0  0  0  0  0  0
   58.2273   34.5436   48.7575 H   0  0  0  0  0  0  0  0  0  0  0  0
   58.3432   32.7872   48.3258 H   0  0  0  0  0  0  0  0  0  0  0  0
   60.7659   31.4967   50.9838 H   0  0  0  0  0  0  0  0  0  0  0  0
   56.8572   32.6419   52.4697 H   0  0  0  0  0  0  0  0  0  0  0  0
   57.8970   34.6294   53.5663 H   0  0  0  0  0  0  0  0  0  0  0  0
   64.0181   33.8741   48.5460 H   0  0  0  0  0  0  0  0  0  0  0  0
   63.0134   33.6151   46.2746 H   0  0  0  0  0  0  0  0  0  0  0  0
   60.5654   34.4693   45.0442 H   0  0  0  0  0  0  0  0  0  0  0  0
   60.8432   32.6843   45.1294 H   0  0  0  0  0  0  0  0  0  0  0  0
   58.2153   30.8099   46.3447 H   0  0  0  0  0  0  0  0  0  0  0  0
  1  2  1  0
  2  3  2  0
  3  4  1  0
  4  5  1  0
  4  6  2  0
  6  7  1  0
  7  8  2  0
  8  9  1  0
  9 10  1  0
 10 11  2  0
 10 12  1  0
 12 13  2  0
 13 14  1  0
 14 15  2  0
 15 16  1  0
 16 17  1  0
 17 18  1  0
 18 19  1  0
 19 20  1  0
 20 21  2  0
 21 22  1  0
 22 23  1  0
 23 24  2  0
 23 25  1  0
 25 26  2  3
 26 27  1  0
 27 28  2  0
 28 29  1  0
 29 30  2  0
 29 31  1  0
 28 32  1  0
 32 33  2  0
 33 34  1  0
 22 35  2  0
 35 36  1  0
 36 37  2  0
 37 38  1  0
 16 39  2  0
  8  2  1  0
 39 12  1  0
 38 17  1  0
 37 20  1  0
 34 26  1  0
  1 40  1  0
  1 41  1  0
  1 42  1  0
  3 43  1  0
  6 44  1  0
  7 45  1  0
  9 46  1  0
 13 47  1  0
 14 48  1  0
 15 49  1  0
 18 50  1  0
 18 51  1  0
 19 52  1  0
 19 53  1  0
 27 54  1  0
 32 55  1  0
 33 56  1  0
 35 57  1  0
 36 58  1  0
 38 59  1  0
 38 60  1  0
 39 61  1  0
M  CHG  3   5  -1  31  -1  34  -1
M  END
>  <UniqueID>  (30) 
29

>  <SMILES>  (30) 
Cc1cc([O-])ccc1NC(=O)c1cccc(N2CCc3nc(C(=O)N=c4cc(C(=O)[O-])cc[n-]4)ccc3C2)c1

>  <Energy>  (30) 
90.79155863208825

>  <Genealogy>  (30) 
Cc1cc([O-])ccc1NC(=O)c1cccc(N2CCc3nc(C(=O)N=c4cc(C(=O)[O-])cc[n-]4)ccc3C2)c1 (protonated)
Cc1cc([O-])ccc1NC(=O)c1cccc(N2CCc3nc(C(=O)N=c4cc(C(=O)[O-])cc[n-]4)ccc3C2)c1 (3D coordinates assigned)
Cc1cc([O-])ccc1NC(=O)c1cccc(N2CCc3nc(C(=O)N=c4cc(C(=O)[O-])cc[n-]4)ccc3C2)c1 (nonaromatic ring conformer: 90.79155863208825 kcal/mol)

>  <smiles>  (30) 
Cc1cc(O)ccc1NC(=O)c1cccc(N2CCc3nc(C(=O)N=c4cc(C(=O)O)cc[nH]4)ccc3C2)c1

>  <score_type>  (30) 
oracle

>  <origin>  (30) 
adg

>  <m_score__min__energy>  (30) 
-16.120000000000001

>  <m_primary>  (30) 
energy

$$$$
30:0
     RDKit          3D

 61 64  0  0  0  0  0  0  0  0999 V2000
   55.8830   23.0810   48.1370 C   0  0  0  0  0  0  0  0  0  0  0  0
   56.6620   23.5830   46.9640 C   0  0  0  0  0  0  0  0  0  0  0  0
   57.7390   24.3800   47.0800 N   0  0  0  0  0  0  0  0  0  0  0  0
   58.1170   24.7370   45.8610 N   0  0  0  0  0  0  0  0  0  0  0  0
   59.2080   25.6800   45.6200 C   0  0  0  0  0  0  0  0  0  0  0  0
   58.6670   27.0750   45.4520 C   0  0  0  0  0  0  0  0  0  0  0  0
   58.5200   27.9270   46.5580 C   0  0  0  0  0  0  0  0  0  0  0  0
   58.0060   29.2160   46.3950 C   0  0  0  0  0  0  0  0  0  0  0  0
   57.6220   29.6670   45.1210 C   0  0  0  0  0  0  0  0  0  0  0  0
   57.0290   30.9220   44.9290 O   0  0  0  0  0  0  0  0  0  0  0  0
   57.6110   32.1380   45.2970 C   0  0  0  0  0  0  0  0  0  0  0  0
   57.4830   33.2740   44.4870 C   0  0  0  0  0  0  0  0  0  0  0  0
   58.0660   34.4840   44.8760 C   0  0  0  0  0  0  0  0  0  0  0  0
   58.7910   34.5600   46.0690 C   0  0  0  0  0  0  0  0  0  0  0  0
   58.9260   33.4270   46.8840 C   0  0  0  0  0  0  0  0  0  0  0  0
   59.9340   33.5040   48.3330 S   0  0  0  0  0  0  0  0  0  0  0  0
   59.2370   32.8190   49.4780 O   0  0  0  0  0  0  0  0  0  0  0  0
   60.1570   34.9460   48.7000 O   0  0  0  0  0  0  0  0  0  0  0  0
   61.4710   32.7270   48.0200 N   0  0  0  0  0  0  0  0  0  0  0  0
   62.2560   32.5690   49.2700 C   0  0  0  0  0  0  0  0  0  0  0  0
   63.4180   33.5730   49.3550 C   0  0  0  0  0  0  0  0  0  0  0  0
   64.3290   33.4580   48.2740 O   0  0  0  0  0  0  0  0  0  0  0  0
   63.7100   33.1380   47.0320 C   0  0  0  0  0  0  0  0  0  0  0  0
   62.2070   33.4670   46.9670 C   0  0  0  0  0  0  0  0  0  0  0  0
   58.3150   32.2230   46.5030 C   0  0  0  0  0  0  0  0  0  0  0  0
   57.7830   28.8230   44.0170 C   0  0  0  0  0  0  0  0  0  0  0  0
   58.3110   27.5390   44.1770 C   0  0  0  0  0  0  0  0  0  0  0  0
   57.2750   24.1960   44.9480 C   0  0  0  0  0  0  0  0  0  0  0  0
   57.2830   24.5000   43.4770 C   0  0  0  0  0  0  0  0  0  0  0  0
   56.3200   23.4520   45.6250 C   0  0  0  0  0  0  0  0  0  0  0  0
   55.0780   22.8140   45.0660 C   0  0  0  0  0  0  0  0  0  0  0  0
   53.9140   23.7440   45.1890 C   0  0  0  0  0  0  0  0  0  0  0  0
   52.7540   23.3680   44.8650 O   0  0  0  0  0  0  0  0  0  0  0  0
   54.1130   25.0410   45.6470 O   0  0  0  0  0  0  0  0  0  0  0  0
   56.3760   23.3987   49.0676 H   0  0  0  0  0  0  0  0  0  0  0  0
   54.8634   23.4924   48.1033 H   0  0  0  0  0  0  0  0  0  0  0  0
   55.8364   21.9825   48.1033 H   0  0  0  0  0  0  0  0  0  0  0  0
   59.9001   25.6599   46.4747 H   0  0  0  0  0  0  0  0  0  0  0  0
   59.7358   25.3883   44.7000 H   0  0  0  0  0  0  0  0  0  0  0  0
   58.8114   27.5775   47.5595 H   0  0  0  0  0  0  0  0  0  0  0  0
   57.9017   29.8793   47.2663 H   0  0  0  0  0  0  0  0  0  0  0  0
   56.9224   33.2139   43.5425 H   0  0  0  0  0  0  0  0  0  0  0  0
   57.9541   35.3766   44.2430 H   0  0  0  0  0  0  0  0  0  0  0  0
   59.2564   35.5105   46.3689 H   0  0  0  0  0  0  0  0  0  0  0  0
   61.2540   31.7690   47.6490 H   0  0  0  0  0  0  0  0  0  0  0  0
   61.5884   32.7256   50.1301 H   0  0  0  0  0  0  0  0  0  0  0  0
   62.6834   31.5554   49.2755 H   0  0  0  0  0  0  0  0  0  0  0  0
   63.0022   34.5914   49.3563 H   0  0  0  0  0  0  0  0  0  0  0  0
   63.9741   33.3558   50.2789 H   0  0  0  0  0  0  0  0  0  0  0  0
   64.2204   33.7024   46.2377 H   0  0  0  0  0  0  0  0  0  0  0  0
   63.7986   32.0485   46.9086 H   0  0  0  0  0  0  0  0  0  0  0  0
   62.0655   34.5475   47.1168 H   0  0  0  0  0  0  0  0  0  0  0  0
   61.8182   33.1683   45.9823 H   0  0  0  0  0  0  0  0  0  0  0  0
   58.3898   31.3410   47.1560 H   0  0  0  0  0  0  0  0  0  0  0  0
   57.4918   29.1726   43.0155 H   0  0  0  0  0  0  0  0  0  0  0  0
   58.4480   26.8897   43.2997 H   0  0  0  0  0  0  0  0  0  0  0  0
   57.3117   25.5895   43.3279 H   0  0  0  0  0  0  0  0  0  0  0  0
   58.1694   24.0430   43.0129 H   0  0  0  0  0  0  0  0  0  0  0  0
   56.3738   24.0902   43.0129 H   0  0  0  0  0  0  0  0  0  0  0  0
   55.2399   22.5743   44.0047 H   0  0  0  0  0  0  0  0  0  0  0  0
   54.8626   21.8959   45.6322 H   0  0  0  0  0  0  0  0  0  0  0  0
  1  2  1  0
  2  3  2  0
  3  4  1  0
  4  5  1  0
  5  6  1  0
  6  7  2  0
  7  8  1  0
  8  9  2  0
  9 10  1  0
 10 11  1  0
 11 12  2  0
 12 13  1  0
 13 14  2  0
 14 15  1  0
 15 16  1  0
 16 17  2  0
 16 18  2  0
 16 19  1  0
 19 20  1  0
 20 21  1  0
 21 22  1  0
 22 23  1  0
 23 24  1  0
 15 25  2  0
  9 26  1  0
 26 27  2  0
  4 28  1  0
 28 29  1  0
 28 30  2  0
 30 31  1  0
 31 32  1  0
 32 33  2  0
 32 34  1  0
 30  2  1  0
 27  6  1  0
 25 11  1  0
 24 19  1  0
  1 35  1  0
  1 36  1  0
  1 37  1  0
  5 38  1  0
  5 39  1  0
  7 40  1  0
  8 41  1  0
 12 42  1  0
 13 43  1  0
 14 44  1  0
 19 45  1  0
 20 46  1  0
 20 47  1  0
 21 48  1  0
 21 49  1  0
 23 50  1  0
 23 51  1  0
 24 52  1  0
 24 53  1  0
 25 54  1  0
 26 55  1  0
 27 56  1  0
 29 57  1  0
 29 58  1  0
 29 59  1  0
 31 60  1  0
 31 61  1  0
M  CHG  2  19   1  34  -1
M  END
>  <UniqueID>  (31) 
30

>  <SMILES>  (31) 
Cc1nn(Cc2ccc(Oc3cccc(S(=O)(=O)[NH+]4CCOCC4)c3)cc2)c(C)c1CC(=O)[O-]

>  <Energy>  (31) 
108.86791841992826

>  <Genealogy>  (31) 
Cc1nn(Cc2ccc(Oc3cccc(S(=O)(=O)[NH+]4CCOCC4)c3)cc2)c(C)c1CC(=O)[O-] (protonated)
Cc1nn(Cc2ccc(Oc3cccc(S(=O)(=O)[NH+]4CCOCC4)c3)cc2)c(C)c1CC(=O)[O-] (3D coordinates assigned)
Cc1nn(Cc2ccc(Oc3cccc(S(=O)(=O)[NH+]4CCOCC4)c3)cc2)c(C)c1CC(=O)[O-] (nonaromatic ring conformer: 108.86791841992826 kcal/mol)

>  <smiles>  (31) 
Cc1nn(Cc2ccc(Oc3cccc(S(=O)(=O)N4CCOCC4)c3)cc2)c(C)c1CC(=O)O

>  <score_type>  (31) 
oracle

>  <origin>  (31) 
adg

>  <m_score__min__energy>  (31) 
-10.630000000000001

>  <m_primary>  (31) 
energy

$$$$
31:0
     RDKit          3D

 40 42  0  0  0  0  0  0  0  0999 V2000
   58.4840   32.1850   49.1970 C   0  0  0  0  0  0  0  0  0  0  0  0
   58.7440   32.9680   47.9390 C   0  0  0  0  0  0  0  0  0  0  0  0
   57.6550   33.4180   47.1720 C   0  0  0  0  0  0  0  0  0  0  0  0
   57.8660   34.1650   46.0110 C   0  0  0  0  0  0  0  0  0  0  0  0
   59.1630   34.4630   45.5980 C   0  0  0  0  0  0  0  0  0  0  0  0
   59.3640   35.1840   44.4680 F   0  0  0  0  0  0  0  0  0  0  0  0
   60.2550   34.0160   46.3430 C   0  0  0  0  0  0  0  0  0  0  0  0
   60.0640   33.2690   47.5210 C   0  0  0  0  0  0  0  0  0  0  0  0
   61.1970   32.8220   48.2880 N   0  0  0  0  0  0  0  0  0  0  0  0
   61.8570   31.2240   48.1360 S   0  0  0  0  0  0  0  0  0  0  0  0
   63.0750   31.2690   47.2570 O   0  0  0  0  0  0  0  0  0  0  0  0
   62.2490   30.7220   49.4970 O   0  0  0  0  0  0  0  0  0  0  0  0
   60.6660   30.1580   47.3960 C   0  0  0  0  0  0  0  0  0  0  0  0
   59.7800   29.4390   48.2070 C   0  0  0  0  0  0  0  0  0  0  0  0
   58.8650   28.5500   47.6370 C   0  0  0  0  0  0  0  0  0  0  0  0
   58.8320   28.3670   46.2440 C   0  0  0  0  0  0  0  0  0  0  0  0
   57.9070   27.4640   45.6230 N   0  0  0  0  0  0  0  0  0  0  0  0
   56.4820   27.6000   45.6250 C   0  0  0  0  0  0  0  0  0  0  0  0
   55.7790   26.6370   46.0340 O   0  0  0  0  0  0  0  0  0  0  0  0
   55.8720   28.8380   45.2230 N   0  0  0  0  0  0  0  0  0  0  0  0
   56.4280   29.7750   44.5150 C   0  0  0  0  0  0  0  0  0  0  0  0
   56.9850   30.8940   45.0300 N   0  0  0  0  0  0  0  0  0  0  0  0
   57.4830   31.6950   44.0510 C   0  0  0  0  0  0  0  0  0  0  0  0
   57.3230   31.2140   42.7550 C   0  0  0  0  0  0  0  0  0  0  0  0
   56.5270   29.7330   42.8410 S   0  0  0  0  0  0  0  0  0  0  0  0
   59.6890   29.1220   45.4320 C   0  0  0  0  0  0  0  0  0  0  0  0
   60.6090   30.0060   46.0050 C   0  0  0  0  0  0  0  0  0  0  0  0
   58.6939   32.8172   50.0724 H   0  0  0  0  0  0  0  0  0  0  0  0
   57.4316   31.8657   49.2192 H   0  0  0  0  0  0  0  0  0  0  0  0
   59.1364   31.2996   49.2192 H   0  0  0  0  0  0  0  0  0  0  0  0
   56.6289   33.1799   47.4888 H   0  0  0  0  0  0  0  0  0  0  0  0
   57.0071   34.5186   45.4218 H   0  0  0  0  0  0  0  0  0  0  0  0
   61.2758   34.2497   46.0063 H   0  0  0  0  0  0  0  0  0  0  0  0
   61.7400   33.5000   48.8670 H   0  0  0  0  0  0  0  0  0  0  0  0
   59.8042   29.5745   49.2983 H   0  0  0  0  0  0  0  0  0  0  0  0
   58.1687   27.9920   48.2803 H   0  0  0  0  0  0  0  0  0  0  0  0
   57.9767   32.6539   44.2676 H   0  0  0  0  0  0  0  0  0  0  0  0
   57.6583   31.7144   41.8346 H   0  0  0  0  0  0  0  0  0  0  0  0
   59.6379   29.0188   44.3380 H   0  0  0  0  0  0  0  0  0  0  0  0
   61.2894   30.5832   45.3616 H   0  0  0  0  0  0  0  0  0  0  0  0
  1  2  1  0
  2  3  2  0
  3  4  1  0
  4  5  2  0
  5  6  1  0
  5  7  1  0
  7  8  2  0
  8  9  1  0
  9 10  1  0
 10 11  2  0
 10 12  2  0
 10 13  1  0
 13 14  2  0
 14 15  1  0
 15 16  2  0
 16 17  1  0
 17 18  1  0
 18 19  2  0
 18 20  1  0
 20 21  2  3
 21 22  1  0
 22 23  1  0
 23 24  2  0
 24 25  1  0
 16 26  1  0
 26 27  2  0
  8  2  1  0
 27 13  1  0
 25 21  1  0
  1 28  1  0
  1 29  1  0
  1 30  1  0
  3 31  1  0
  4 32  1  0
  7 33  1  0
  9 34  1  0
 14 35  1  0
 15 36  1  0
 23 37  1  0
 24 38  1  0
 26 39  1  0
 27 40  1  0
M  CHG  2  17  -1  22  -1
M  END
>  <UniqueID>  (32) 
31

>  <SMILES>  (32) 
Cc1ccc(F)cc1NS(=O)(=O)c1ccc([N-]C(=O)N=c2[n-]ccs2)cc1

>  <Energy>  (32) 
81.17314111643627

>  <Genealogy>  (32) 
Cc1ccc(F)cc1NS(=O)(=O)c1ccc([N-]C(=O)N=c2[n-]ccs2)cc1 (protonated)
Cc1ccc(F)cc1NS(=O)(=O)c1ccc([N-]C(=O)N=c2[n-]ccs2)cc1 (3D coordinates assigned)
Cc1ccc(F)cc1NS(=O)(=O)c1ccc([N-]C(=O)N=c2[n-]ccs2)cc1 (optimized conformer: 81.17314111643627 kcal/mol)

>  <smiles>  (32) 
Cc1ccc(F)cc1NS(=O)(=O)c1ccc(NC(=O)N=c2[nH]ccs2)cc1

>  <score_type>  (32) 
oracle

>  <origin>  (32) 
adg

>  <m_score__min__energy>  (32) 
-11.029999999999999

>  <m_primary>  (32) 
energy

$$$$
32:0
     RDKit          3D

 54 56  0  0  0  0  0  0  0  0999 V2000
   55.4630   30.9560   51.9390 C   0  0  0  0  0  0  0  0  0  0  0  0
   56.9120   30.8770   51.5970 C   0  0  0  0  0  0  0  0  0  0  0  0
   57.7930   31.9400   51.5600 C   0  0  0  0  0  0  0  0  0  0  0  0
   59.0010   31.4100   51.1570 C   0  0  0  0  0  0  0  0  0  0  0  0
   58.7730   30.0580   50.9690 C   0  0  0  0  0  0  0  0  0  0  0  0
   59.7790   29.0580   50.4890 C   0  0  0  0  0  0  0  0  0  0  0  0
   59.9170   29.1270   49.0270 N   0  0  0  0  0  0  0  0  0  0  0  0
   59.7500   27.9580   48.2050 C   0  0  0  0  0  0  0  0  0  0  0  0
   60.6840   27.1130   48.1310 O   0  0  0  0  0  0  0  0  0  0  0  0
   58.5280   27.7520   47.4110 C   0  0  0  0  0  0  0  0  0  0  0  0
   57.8470   28.8600   46.3750 S   0  0  0  0  0  0  0  0  0  0  0  0
   56.6270   27.9530   45.7150 N   0  0  0  0  0  0  0  0  0  0  0  0
   56.7210   26.7280   46.2960 C   0  0  0  0  0  0  0  0  0  0  0  0
   55.7250   25.6910   45.9610 C   0  0  0  0  0  0  0  0  0  0  0  0
   54.3710   26.0680   45.7260 N   0  0  0  0  0  0  0  0  0  0  0  0
   56.0400   24.4730   45.9150 O   0  0  0  0  0  0  0  0  0  0  0  0
   57.7900   26.5790   47.2310 C   0  0  0  0  0  0  0  0  0  0  0  0
   58.1000   25.3610   47.9210 N   0  0  0  0  0  0  0  0  0  0  0  0
   60.3560   30.3460   48.4120 C   0  0  0  0  0  0  0  0  0  0  0  0
   61.7180   30.6170   48.2630 C   0  0  0  0  0  0  0  0  0  0  0  0
   62.1330   31.8040   47.6590 C   0  0  0  0  0  0  0  0  0  0  0  0
   61.1940   32.7440   47.1960 C   0  0  0  0  0  0  0  0  0  0  0  0
   61.7090   34.0170   46.5800 C   0  0  0  0  0  0  0  0  0  0  0  0
   59.8090   32.4820   47.3690 C   0  0  0  0  0  0  0  0  0  0  0  0
   58.5210   33.6100   46.8820 S   0  0  0  0  0  0  0  0  0  0  0  0
   58.8540   35.0200   47.2810 O   0  0  0  0  0  0  0  0  0  0  0  0
   57.2620   33.2280   47.6090 O   0  0  0  0  0  0  0  0  0  0  0  0
   58.2210   33.5540   45.1620 N   0  0  0  0  0  0  0  0  0  0  0  0
   58.0540   32.1660   44.7230 C   0  0  0  0  0  0  0  0  0  0  0  0
   57.0250   34.3390   44.8300 C   0  0  0  0  0  0  0  0  0  0  0  0
   59.4130   31.2770   47.9720 C   0  0  0  0  0  0  0  0  0  0  0  0
   57.5200   29.7710   51.2360 O   0  0  0  0  0  0  0  0  0  0  0  0
   55.3442   30.9625   53.0325 H   0  0  0  0  0  0  0  0  0  0  0  0
   55.0368   31.8787   51.5184 H   0  0  0  0  0  0  0  0  0  0  0  0
   54.9390   30.0851   51.5184 H   0  0  0  0  0  0  0  0  0  0  0  0
   57.5763   32.9910   51.8017 H   0  0  0  0  0  0  0  0  0  0  0  0
   59.9488   31.9499   51.0146 H   0  0  0  0  0  0  0  0  0  0  0  0
   60.7523   29.2716   50.9549 H   0  0  0  0  0  0  0  0  0  0  0  0
   59.4385   28.0496   50.7668 H   0  0  0  0  0  0  0  0  0  0  0  0
   53.8730   26.7160   46.3750 H   0  0  0  0  0  0  0  0  0  0  0  0
   57.5810   24.4820   47.7090 H   0  0  0  0  0  0  0  0  0  0  0  0
   58.8070   25.3230   48.6840 H   0  0  0  0  0  0  0  0  0  0  0  0
   62.4645   29.8934   48.6224 H   0  0  0  0  0  0  0  0  0  0  0  0
   63.2078   32.0076   47.5433 H   0  0  0  0  0  0  0  0  0  0  0  0
   61.9937   34.7206   47.3762 H   0  0  0  0  0  0  0  0  0  0  0  0
   62.5875   33.7936   45.9568 H   0  0  0  0  0  0  0  0  0  0  0  0
   60.9223   34.4672   45.9568 H   0  0  0  0  0  0  0  0  0  0  0  0
   57.9751   31.5102   45.6026 H   0  0  0  0  0  0  0  0  0  0  0  0
   57.1391   32.0802   44.1184 H   0  0  0  0  0  0  0  0  0  0  0  0
   58.9225   31.8656   44.1184 H   0  0  0  0  0  0  0  0  0  0  0  0
   56.5304   34.6636   45.7574 H   0  0  0  0  0  0  0  0  0  0  0  0
   57.3172   35.2215   44.2420 H   0  0  0  0  0  0  0  0  0  0  0  0
   56.3316   33.7198   44.2420 H   0  0  0  0  0  0  0  0  0  0  0  0
   58.3416   31.0630   48.0998 H   0  0  0  0  0  0  0  0  0  0  0  0
  1  2  1  0
  2  3  2  0
  3  4  1  0
  4  5  2  0
  5  6  1  0
  6  7  1  0
  7  8  1  0
  8  9  2  0
  8 10  1  0
 10 11  1  0
 11 12  1  0
 12 13  2  0
 13 14  1  0
 14 15  1  0
 14 16  2  0
 13 17  1  0
 17 18  1  0
  7 19  1  0
 19 20  2  0
 20 21  1  0
 21 22  2  0
 22 23  1  0
 22 24  1  0
 24 25  1  0
 25 26  2  0
 25 27  2  0
 25 28  1  0
 28 29  1  0
 28 30  1  0
 24 31  2  0
  5 32  1  0
 32  2  1  0
 17 10  2  0
 31 19  1  0
  1 33  1  0
  1 34  1  0
  1 35  1  0
  3 36  1  0
  4 37  1  0
  6 38  1  0
  6 39  1  0
 15 40  1  0
 18 41  1  0
 18 42  1  0
 20 43  1  0
 21 44  1  0
 23 45  1  0
 23 46  1  0
 23 47  1  0
 29 48  1  0
 29 49  1  0
 29 50  1  0
 30 51  1  0
 30 52  1  0
 30 53  1  0
 31 54  1  0
M  CHG  1  15  -1
M  END
>  <UniqueID>  (33) 
32

>  <SMILES>  (33) 
Cc1ccc(CN(C(=O)c2snc(C([NH-])=O)c2N)c2ccc(C)c(S(=O)(=O)N(C)C)c2)o1

>  <Energy>  (33) 
123.14340074640702

>  <Genealogy>  (33) 
Cc1ccc(CN(C(=O)c2snc(C([NH-])=O)c2N)c2ccc(C)c(S(=O)(=O)N(C)C)c2)o1 (protonated)
Cc1ccc(CN(C(=O)c2snc(C([NH-])=O)c2N)c2ccc(C)c(S(=O)(=O)N(C)C)c2)o1 (3D coordinates assigned)
Cc1ccc(CN(C(=O)c2snc(C([NH-])=O)c2N)c2ccc(C)c(S(=O)(=O)N(C)C)c2)o1 (optimized conformer: 123.14340074640702 kcal/mol)

>  <smiles>  (33) 
Cc1ccc(CN(C(=O)c2snc(C(N)=O)c2N)c2ccc(C)c(S(=O)(=O)N(C)C)c2)o1

>  <score_type>  (33) 
oracle

>  <origin>  (33) 
adg

>  <m_score__min__energy>  (33) 
-11.869999999999999

>  <m_primary>  (33) 
energy

$$$$
33:0
     RDKit          3D

 42 44  0  0  0  0  0  0  0  0999 V2000
   54.4180   26.2590   45.9810 N   0  0  0  0  0  0  0  0  0  0  0  0
   55.5910   24.9930   45.8760 S   0  0  0  0  0  0  0  0  0  0  0  0
   55.0820   23.9390   44.9340 O   0  0  0  0  0  0  0  0  0  0  0  0
   55.8060   24.3700   47.2270 O   0  0  0  0  0  0  0  0  0  0  0  0
   57.0870   25.6170   45.2600 N   0  0  0  0  0  0  0  0  0  0  0  0
   57.6360   26.9130   45.5350 C   0  0  0  0  0  0  0  0  0  0  0  0
   57.7770   27.8170   44.4770 C   0  0  0  0  0  0  0  0  0  0  0  0
   58.3060   29.0920   44.6970 C   0  0  0  0  0  0  0  0  0  0  0  0
   58.6920   29.4900   45.9850 C   0  0  0  0  0  0  0  0  0  0  0  0
   59.2540   30.7980   46.1790 N   0  0  0  0  0  0  0  0  0  0  0  0
   58.5190   32.0220   46.0440 C   0  0  0  0  0  0  0  0  0  0  0  0
   57.3490   32.0180   45.5720 O   0  0  0  0  0  0  0  0  0  0  0  0
   59.1280   33.2500   46.4610 N   0  0  0  0  0  0  0  0  0  0  0  0
   60.2860   33.3920   47.2970 C   0  0  0  0  0  0  0  0  0  0  0  0
   60.1030   33.6640   48.6570 C   0  0  0  0  0  0  0  0  0  0  0  0
   61.2020   33.7920   49.5110 C   0  0  0  0  0  0  0  0  0  0  0  0
   62.5090   33.6300   49.0200 C   0  0  0  0  0  0  0  0  0  0  0  0
   63.6770   33.7630   49.9280 C   0  0  0  0  0  0  0  0  0  0  0  0
   63.5990   34.5630   51.0840 C   0  0  0  0  0  0  0  0  0  0  0  0
   64.7010   34.6860   51.9360 C   0  0  0  0  0  0  0  0  0  0  0  0
   65.8920   34.0150   51.6450 C   0  0  0  0  0  0  0  0  0  0  0  0
   65.9810   33.2190   50.5010 C   0  0  0  0  0  0  0  0  0  0  0  0
   64.8830   33.0920   49.6460 C   0  0  0  0  0  0  0  0  0  0  0  0
   62.6900   33.3300   47.6590 C   0  0  0  0  0  0  0  0  0  0  0  0
   61.5900   33.2050   46.8060 C   0  0  0  0  0  0  0  0  0  0  0  0
   58.5750   28.5740   47.0450 C   0  0  0  0  0  0  0  0  0  0  0  0
   58.0460   27.2980   46.8250 C   0  0  0  0  0  0  0  0  0  0  0  0
   54.8920   27.0950   46.3880 H   0  0  0  0  0  0  0  0  0  0  0  0
   57.4689   27.5220   43.4631 H   0  0  0  0  0  0  0  0  0  0  0  0
   58.4204   29.7885   43.8533 H   0  0  0  0  0  0  0  0  0  0  0  0
   60.2840   30.8740   46.3410 H   0  0  0  0  0  0  0  0  0  0  0  0
   59.0850   33.7782   49.0579 H   0  0  0  0  0  0  0  0  0  0  0  0
   61.0429   34.0212   50.5750 H   0  0  0  0  0  0  0  0  0  0  0  0
   62.6650   35.0948   51.3185 H   0  0  0  0  0  0  0  0  0  0  0  0
   64.6303   35.3124   52.8375 H   0  0  0  0  0  0  0  0  0  0  0  0
   66.7580   34.1137   52.3161 H   0  0  0  0  0  0  0  0  0  0  0  0
   66.9182   32.6904   50.2723 H   0  0  0  0  0  0  0  0  0  0  0  0
   64.9610   32.4637   48.7465 H   0  0  0  0  0  0  0  0  0  0  0  0
   63.7064   33.1924   47.2616 H   0  0  0  0  0  0  0  0  0  0  0  0
   61.7453   32.9591   45.7451 H   0  0  0  0  0  0  0  0  0  0  0  0
   58.9019   28.8629   48.0548 H   0  0  0  0  0  0  0  0  0  0  0  0
   57.9501   26.5927   47.6636 H   0  0  0  0  0  0  0  0  0  0  0  0
  1  2  1  0
  2  3  2  0
  2  4  2  0
  2  5  1  0
  5  6  1  0
  6  7  2  0
  7  8  1  0
  8  9  2  0
  9 10  1  0
 10 11  1  0
 11 12  2  0
 11 13  1  0
 13 14  1  0
 14 15  2  0
 15 16  1  0
 16 17  2  0
 17 18  1  0
 18 19  2  0
 19 20  1  0
 20 21  2  0
 21 22  1  0
 22 23  2  0
 17 24  1  0
 24 25  2  0
  9 26  1  0
 26 27  2  0
 27  6  1  0
 25 14  1  0
 23 18  1  0
  1 28  1  0
  7 29  1  0
  8 30  1  0
 10 31  1  0
 15 32  1  0
 16 33  1  0
 19 34  1  0
 20 35  1  0
 21 36  1  0
 22 37  1  0
 23 38  1  0
 24 39  1  0
 25 40  1  0
 26 41  1  0
 27 42  1  0
M  CHG  3   1  -1   5  -1  13  -1
M  END
>  <UniqueID>  (34) 
33

>  <SMILES>  (34) 
[NH-]S(=O)(=O)[N-]c1ccc(NC(=O)[N-]c2ccc(-c3ccccc3)cc2)cc1

>  <Energy>  (34) 
58.30794735701201

>  <Genealogy>  (34) 
[NH-]S(=O)(=O)[N-]c1ccc(NC(=O)[N-]c2ccc(-c3ccccc3)cc2)cc1 (protonated)
[NH-]S(=O)(=O)[N-]c1ccc(NC(=O)[N-]c2ccc(-c3ccccc3)cc2)cc1 (3D coordinates assigned)
[NH-]S(=O)(=O)[N-]c1ccc(NC(=O)[N-]c2ccc(-c3ccccc3)cc2)cc1 (optimized conformer: 58.30794735701201 kcal/mol)

>  <smiles>  (34) 
NS(=O)(=O)Nc1ccc(NC(=O)Nc2ccc(-c3ccccc3)cc2)cc1

>  <score_type>  (34) 
oracle

>  <origin>  (34) 
adg

>  <m_score__min__energy>  (34) 
-13.76

>  <m_primary>  (34) 
energy

$$$$
34:0
     RDKit          3D

 51 54  0  0  0  0  0  0  0  0999 V2000
   54.3080   25.1560   45.7800 N   0  0  0  0  0  0  0  0  0  0  0  0
   55.3220   24.6620   45.5120 C   0  0  0  0  0  0  0  0  0  0  0  0
   56.5880   24.0590   45.1730 C   0  0  0  0  0  0  0  0  0  0  0  0
   56.6030   23.0040   44.2500 C   0  0  0  0  0  0  0  0  0  0  0  0
   57.7730   22.2730   44.0320 C   0  0  0  0  0  0  0  0  0  0  0  0
   58.9310   22.5860   44.7440 C   0  0  0  0  0  0  0  0  0  0  0  0
   58.9320   23.6470   45.6520 C   0  0  0  0  0  0  0  0  0  0  0  0
   57.7750   24.4210   45.8470 C   0  0  0  0  0  0  0  0  0  0  0  0
   57.7640   25.7710   47.0560 S   0  0  0  0  0  0  0  0  0  0  0  0
   58.7040   26.9710   46.0840 C   0  0  0  0  0  0  0  0  0  0  0  0
   60.0980   26.9380   46.2640 C   0  0  0  0  0  0  0  0  0  0  0  0
   60.9270   27.8690   45.6440 C   0  0  0  0  0  0  0  0  0  0  0  0
   60.3740   28.8660   44.8480 C   0  0  0  0  0  0  0  0  0  0  0  0
   58.9920   28.9320   44.6680 C   0  0  0  0  0  0  0  0  0  0  0  0
   58.1290   27.9970   45.2790 C   0  0  0  0  0  0  0  0  0  0  0  0
   56.6660   28.1570   45.0400 C   0  0  0  0  0  0  0  0  0  0  0  0
   55.8490   27.4680   45.7170 O   0  0  0  0  0  0  0  0  0  0  0  0
   56.1540   29.0810   44.0800 N   0  0  0  0  0  0  0  0  0  0  0  0
   55.6370   30.3960   44.4580 C   0  0  0  0  0  0  0  0  0  0  0  0
   56.7470   31.3980   44.4250 C   0  0  0  0  0  0  0  0  0  0  0  0
   57.4210   31.8270   43.2970 C   0  0  0  0  0  0  0  0  0  0  0  0
   58.3590   32.7350   43.7450 C   0  0  0  0  0  0  0  0  0  0  0  0
   58.1950   32.7920   45.1140 C   0  0  0  0  0  0  0  0  0  0  0  0
   59.0940   33.8180   46.2120 S   0  0  0  0  0  0  0  0  0  0  0  0
   59.8990   34.8040   45.4150 O   0  0  0  0  0  0  0  0  0  0  0  0
   58.1540   34.5660   47.1180 O   0  0  0  0  0  0  0  0  0  0  0  0
   60.1660   32.8510   47.1740 N   0  0  0  0  0  0  0  0  0  0  0  0
   59.7650   31.9330   48.2010 C   0  0  0  0  0  0  0  0  0  0  0  0
   58.8750   32.3790   49.1880 C   0  0  0  0  0  0  0  0  0  0  0  0
   58.4440   31.5140   50.1980 C   0  0  0  0  0  0  0  0  0  0  0  0
   58.8990   30.1940   50.2290 C   0  0  0  0  0  0  0  0  0  0  0  0
   59.8040   29.7430   49.2610 C   0  0  0  0  0  0  0  0  0  0  0  0
   60.4080   28.0960   49.3220 Cl  0  0  0  0  0  0  0  0  0  0  0  0
   60.2260   30.6040   48.2430 C   0  0  0  0  0  0  0  0  0  0  0  0
   57.2370   31.9810   45.4950 O   0  0  0  0  0  0  0  0  0  0  0  0
   55.6882   22.7505   43.6943 H   0  0  0  0  0  0  0  0  0  0  0  0
   57.7813   21.4519   43.3001 H   0  0  0  0  0  0  0  0  0  0  0  0
   59.8461   21.9953   44.5898 H   0  0  0  0  0  0  0  0  0  0  0  0
   59.8455   23.8789   46.2192 H   0  0  0  0  0  0  0  0  0  0  0  0
   60.5416   26.1628   46.9061 H   0  0  0  0  0  0  0  0  0  0  0  0
   62.0168   27.8160   45.7835 H   0  0  0  0  0  0  0  0  0  0  0  0
   61.0272   29.6039   44.3594 H   0  0  0  0  0  0  0  0  0  0  0  0
   58.5671   29.7275   44.0382 H   0  0  0  0  0  0  0  0  0  0  0  0
   54.8501   30.6974   43.7509 H   0  0  0  0  0  0  0  0  0  0  0  0
   55.2185   30.3466   45.4741 H   0  0  0  0  0  0  0  0  0  0  0  0
   57.2461   31.5105   42.2581 H   0  0  0  0  0  0  0  0  0  0  0  0
   59.0851   33.2957   43.1380 H   0  0  0  0  0  0  0  0  0  0  0  0
   58.5130   33.4175   49.1675 H   0  0  0  0  0  0  0  0  0  0  0  0
   57.7462   31.8732   50.9687 H   0  0  0  0  0  0  0  0  0  0  0  0
   58.5463   29.5088   51.0139 H   0  0  0  0  0  0  0  0  0  0  0  0
   60.9213   30.2409   47.4718 H   0  0  0  0  0  0  0  0  0  0  0  0
  1  2  3  0
  2  3  1  0
  3  4  2  0
  4  5  1  0
  5  6  2  0
  6  7  1  0
  7  8  2  0
  8  9  1  0
  9 10  1  0
 10 11  2  0
 11 12  1  0
 12 13  2  0
 13 14  1  0
 14 15  2  0
 15 16  1  0
 16 17  2  0
 16 18  1  0
 18 19  1  0
 19 20  1  0
 20 21  2  0
 21 22  1  0
 22 23  2  0
 23 24  1  0
 24 25  2  0
 24 26  2  0
 24 27  1  0
 27 28  1  0
 28 29  2  0
 29 30  1  0
 30 31  2  0
 31 32  1  0
 32 33  1  0
 32 34  2  0
 23 35  1  0
  8  3  1  0
 15 10  1  0
 35 20  1  0
 34 28  1  0
  4 36  1  0
  5 37  1  0
  6 38  1  0
  7 39  1  0
 11 40  1  0
 12 41  1  0
 13 42  1  0
 14 43  1  0
 19 44  1  0
 19 45  1  0
 21 46  1  0
 22 47  1  0
 29 48  1  0
 30 49  1  0
 31 50  1  0
 34 51  1  0
M  CHG  2  18  -1  27  -1
M  END
>  <UniqueID>  (35) 
34

>  <SMILES>  (35) 
N#Cc1ccccc1Sc1ccccc1C(=O)[N-]Cc1ccc(S(=O)(=O)[N-]c2cccc(Cl)c2)o1

>  <Energy>  (35) 
81.41956029415822

>  <Genealogy>  (35) 
N#Cc1ccccc1Sc1ccccc1C(=O)[N-]Cc1ccc(S(=O)(=O)[N-]c2cccc(Cl)c2)o1 (protonated)
N#Cc1ccccc1Sc1ccccc1C(=O)[N-]Cc1ccc(S(=O)(=O)[N-]c2cccc(Cl)c2)o1 (3D coordinates assigned)
N#Cc1ccccc1Sc1ccccc1C(=O)[N-]Cc1ccc(S(=O)(=O)[N-]c2cccc(Cl)c2)o1 (optimized conformer: 81.41956029415822 kcal/mol)

>  <smiles>  (35) 
N#Cc1ccccc1Sc1ccccc1C(=O)NCc1ccc(S(=O)(=O)Nc2cccc(Cl)c2)o1

>  <score_type>  (35) 
oracle

>  <origin>  (35) 
adg

>  <m_score__min__energy>  (35) 
-12.27

>  <m_primary>  (35) 
energy

$$$$
35:0
     RDKit          3D

 30 32  0  0  0  0  0  0  0  0999 V2000
   59.2830   34.9280   47.1070 C   0  0  0  0  0  0  0  0  0  0  0  0
   58.5710   34.5440   45.9260 N   0  0  0  0  0  0  0  0  0  0  0  0
   59.2680   33.6110   45.0980 C   0  0  0  0  0  0  0  0  0  0  0  0
   58.7280   32.2450   45.2750 C   0  0  0  0  0  0  0  0  0  0  0  0
   57.5460   31.7270   44.8400 C   0  0  0  0  0  0  0  0  0  0  0  0
   57.2590   30.4550   45.1160 C   0  0  0  0  0  0  0  0  0  0  0  0
   56.1160   29.7030   44.7800 C   0  0  0  0  0  0  0  0  0  0  0  0
   55.1420   30.2080   44.1110 N   0  0  0  0  0  0  0  0  0  0  0  0
   56.0130   28.4250   45.1530 N   0  0  0  0  0  0  0  0  0  0  0  0
   56.9370   27.7490   45.8510 C   0  0  0  0  0  0  0  0  0  0  0  0
   56.8000   26.3570   46.2440 C   0  0  0  0  0  0  0  0  0  0  0  0
   57.8590   25.5340   46.5670 C   0  0  0  0  0  0  0  0  0  0  0  0
   57.2680   24.3110   46.8750 C   0  0  0  0  0  0  0  0  0  0  0  0
   55.8980   24.4610   46.7220 C   0  0  0  0  0  0  0  0  0  0  0  0
   55.6700   25.7060   46.3430 O   0  0  0  0  0  0  0  0  0  0  0  0
   58.0520   28.4510   46.1900 N   0  0  0  0  0  0  0  0  0  0  0  0
   58.2010   29.7390   45.8380 C   0  0  0  0  0  0  0  0  0  0  0  0
   59.5200   30.9210   46.1220 S   0  0  0  0  0  0  0  0  0  0  0  0
   58.7123   34.6202   47.9956 H   0  0  0  0  0  0  0  0  0  0  0  0
   60.2683   34.4389   47.1165 H   0  0  0  0  0  0  0  0  0  0  0  0
   59.4156   36.0199   47.1165 H   0  0  0  0  0  0  0  0  0  0  0  0
   57.6840   34.0920   46.2390 H   0  0  0  0  0  0  0  0  0  0  0  0
   59.1559   33.9094   44.0452 H   0  0  0  0  0  0  0  0  0  0  0  0
   60.3299   33.6100   45.3850 H   0  0  0  0  0  0  0  0  0  0  0  0
   56.8395   32.3483   44.2701 H   0  0  0  0  0  0  0  0  0  0  0  0
   54.3990   30.8060   44.4790 H   0  0  0  0  0  0  0  0  0  0  0  0
   55.1510   27.8860   44.8900 H   0  0  0  0  0  0  0  0  0  0  0  0
   58.9295   25.7868   46.5787 H   0  0  0  0  0  0  0  0  0  0  0  0
   57.7920   23.3942   47.1831 H   0  0  0  0  0  0  0  0  0  0  0  0
   55.1377   23.6833   46.8866 H   0  0  0  0  0  0  0  0  0  0  0  0
  1  2  1  0
  2  3  1  0
  3  4  1  0
  4  5  2  0
  5  6  1  0
  6  7  1  0
  7  8  2  3
  7  9  1  0
  9 10  1  0
 10 11  1  0
 11 12  2  0
 12 13  1  0
 13 14  2  0
 14 15  1  0
 10 16  2  0
 16 17  1  0
 17 18  1  0
 18  4  1  0
 17  6  2  0
 15 11  1  0
  1 19  1  0
  1 20  1  0
  1 21  1  0
  2 22  1  0
  3 23  1  0
  3 24  1  0
  5 25  1  0
  8 26  1  0
  9 27  1  0
 12 28  1  0
 13 29  1  0
 14 30  1  0
M  END
>  <smiles>  (36) 
CNCc1cc2c(=N)[nH]c(-c3ccco3)nc2s1

>  <score_type>  (36) 
oracle

>  <origin>  (36) 
adg

>  <m_score__min__energy>  (36) 
-6.79

>  <m_primary>  (36) 
energy

$$$$
36:0
     RDKit          3D

 58 61  0  0  0  0  0  0  0  0999 V2000
   62.9980   31.6750   48.9080 C   0  0  0  0  0  0  0  0  0  0  0  0
   63.7590   33.2470   48.5760 S   0  0  0  0  0  0  0  0  0  0  0  0
   64.0620   33.3480   47.1090 O   0  0  0  0  0  0  0  0  0  0  0  0
   65.0410   33.3550   49.3540 O   0  0  0  0  0  0  0  0  0  0  0  0
   62.6630   34.5800   49.0330 C   0  0  0  0  0  0  0  0  0  0  0  0
   61.2810   34.1080   49.1010 N   0  0  0  0  0  0  0  0  0  0  0  0
   60.5030   34.0580   50.2070 C   0  0  0  0  0  0  0  0  0  0  0  0
   59.2800   33.5280   49.9700 N   0  0  0  0  0  0  0  0  0  0  0  0
   59.3140   33.2320   48.6550 C   0  0  0  0  0  0  0  0  0  0  0  0
   60.5190   33.5980   48.1180 C   0  0  0  0  0  0  0  0  0  0  0  0
   60.9040   33.3420   46.6900 C   0  0  0  0  0  0  0  0  0  0  0  0
   59.6390   33.1620   45.8350 C   0  0  0  0  0  0  0  0  0  0  0  0
   58.6730   32.2750   46.5110 N   0  0  0  0  0  0  0  0  0  0  0  0
   58.0200   31.2240   45.7740 C   0  0  0  0  0  0  0  0  0  0  0  0
   57.3840   31.4970   44.5520 C   0  0  0  0  0  0  0  0  0  0  0  0
   56.7680   30.4720   43.8350 C   0  0  0  0  0  0  0  0  0  0  0  0
   56.7720   29.1670   44.3290 C   0  0  0  0  0  0  0  0  0  0  0  0
   57.3930   28.8700   45.5560 C   0  0  0  0  0  0  0  0  0  0  0  0
   57.4020   27.4830   46.0800 C   0  0  0  0  0  0  0  0  0  0  0  0
   58.2440   27.1430   46.9540 O   0  0  0  0  0  0  0  0  0  0  0  0
   56.4250   26.5390   45.6240 N   0  0  0  0  0  0  0  0  0  0  0  0
   56.6340   25.1310   45.4400 C   0  0  0  0  0  0  0  0  0  0  0  0
   56.6230   24.6270   44.1340 C   0  0  0  0  0  0  0  0  0  0  0  0
   56.8310   23.2680   43.8980 C   0  0  0  0  0  0  0  0  0  0  0  0
   57.0750   22.4020   44.9640 C   0  0  0  0  0  0  0  0  0  0  0  0
   57.1440   22.8930   46.2770 C   0  0  0  0  0  0  0  0  0  0  0  0
   57.3810   22.0120   47.3820 N   0  0  0  0  0  0  0  0  0  0  0  0
   56.5060   22.0350   48.8830 S   0  0  0  0  0  0  0  0  0  0  0  0
   56.0130   20.3760   49.2920 C   0  0  0  0  0  0  0  0  0  0  0  0
   55.2890   22.9130   48.7950 O   0  0  0  0  0  0  0  0  0  0  0  0
   57.4060   22.5640   49.9640 O   0  0  0  0  0  0  0  0  0  0  0  0
   56.9250   24.2670   46.5180 C   0  0  0  0  0  0  0  0  0  0  0  0
   57.0390   24.7830   47.8100 O   0  0  0  0  0  0  0  0  0  0  0  0
   58.0130   29.9100   46.2730 C   0  0  0  0  0  0  0  0  0  0  0  0
   58.1990   32.6270   47.8630 C   0  0  0  0  0  0  0  0  0  0  0  0
   62.9254   31.5251   49.9953 H   0  0  0  0  0  0  0  0  0  0  0  0
   61.9904   31.6550   48.4671 H   0  0  0  0  0  0  0  0  0  0  0  0
   63.6073   30.8723   48.4671 H   0  0  0  0  0  0  0  0  0  0  0  0
   62.9603   34.9716   50.0170 H   0  0  0  0  0  0  0  0  0  0  0  0
   62.7308   35.3720   48.2726 H   0  0  0  0  0  0  0  0  0  0  0  0
   60.8303   34.4113   51.1960 H   0  0  0  0  0  0  0  0  0  0  0  0
   61.4839   34.1957   46.3093 H   0  0  0  0  0  0  0  0  0  0  0  0
   61.5127   32.4274   46.6358 H   0  0  0  0  0  0  0  0  0  0  0  0
   59.1724   34.1443   45.6696 H   0  0  0  0  0  0  0  0  0  0  0  0
   59.9236   32.7074   44.8746 H   0  0  0  0  0  0  0  0  0  0  0  0
   57.3718   32.5242   44.1587 H   0  0  0  0  0  0  0  0  0  0  0  0
   56.2768   30.6931   42.8759 H   0  0  0  0  0  0  0  0  0  0  0  0
   56.2860   28.3645   43.7548 H   0  0  0  0  0  0  0  0  0  0  0  0
   56.4490   25.3077   43.2876 H   0  0  0  0  0  0  0  0  0  0  0  0
   56.8026   22.8786   42.8696 H   0  0  0  0  0  0  0  0  0  0  0  0
   57.2142   21.3275   44.7743 H   0  0  0  0  0  0  0  0  0  0  0  0
   55.9793   20.2626   50.3856 H   0  0  0  0  0  0  0  0  0  0  0  0
   55.0164   20.1755   48.8717 H   0  0  0  0  0  0  0  0  0  0  0  0
   56.7383   19.6638   48.8717 H   0  0  0  0  0  0  0  0  0  0  0  0
   57.0160   24.1960   48.6360 H   0  0  0  0  0  0  0  0  0  0  0  0
   58.4982   29.6920   47.2359 H   0  0  0  0  0  0  0  0  0  0  0  0
   57.3746   33.3509   47.7829 H   0  0  0  0  0  0  0  0  0  0  0  0
   57.8482   31.7165   48.3709 H   0  0  0  0  0  0  0  0  0  0  0  0
  1  2  1  0
  2  3  2  0
  2  4  2  0
  2  5  1  0
  5  6  1  0
  6  7  1  0
  7  8  2  0
  8  9  1  0
  9 10  2  0
 10 11  1  0
 11 12  1  0
 12 13  1  0
 13 14  1  0
 14 15  2  0
 15 16  1  0
 16 17  2  0
 17 18  1  0
 18 19  1  0
 19 20  2  0
 19 21  1  0
 21 22  1  0
 22 23  2  0
 23 24  1  0
 24 25  2  0
 25 26  1  0
 26 27  1  0
 27 28  1  0
 28 29  1  0
 28 30  2  0
 28 31  2  0
 26 32  2  0
 32 33  1  0
 18 34  2  0
 13 35  1  0
 10  6  1  0
 34 14  1  0
 35  9  1  0
 32 22  1  0
  1 36  1  0
  1 37  1  0
  1 38  1  0
  5 39  1  0
  5 40  1  0
  7 41  1  0
 11 42  1  0
 11 43  1  0
 12 44  1  0
 12 45  1  0
 15 46  1  0
 16 47  1  0
 17 48  1  0
 23 49  1  0
 24 50  1  0
 25 51  1  0
 29 52  1  0
 29 53  1  0
 29 54  1  0
 33 55  1  0
 34 56  1  0
 35 57  1  0
 35 58  1  0
M  CHG  2  21  -1  27  -1
M  END
>  <UniqueID>  (37) 
35

>  <SMILES>  (37) 
CS(=O)(=O)Cn1cnc2c1CCN(c1cccc(C(=O)[N-]c3cccc([N-]S(C)(=O)=O)c3O)c1)C2

>  <Energy>  (37) 
99.2176704437289

>  <Genealogy>  (37) 
CS(=O)(=O)Cn1cnc2c1CCN(c1cccc(C(=O)[N-]c3cccc([N-]S(C)(=O)=O)c3O)c1)C2 (protonated)
CS(=O)(=O)Cn1cnc2c1CCN(c1cccc(C(=O)[N-]c3cccc([N-]S(C)(=O)=O)c3O)c1)C2 (3D coordinates assigned)
CS(=O)(=O)Cn1cnc2c1CCN(c1cccc(C(=O)[N-]c3cccc([N-]S(C)(=O)=O)c3O)c1)C2 (nonaromatic ring conformer: 99.2176704437289 kcal/mol)

>  <smiles>  (37) 
CS(=O)(=O)Cn1cnc2c1CCN(c1cccc(C(=O)Nc3cccc(NS(C)(=O)=O)c3O)c1)C2

>  <score_type>  (37) 
oracle

>  <origin>  (37) 
adg

>  <m_score__min__energy>  (37) 
-15.15

>  <m_primary>  (37) 
energy

$$$$
37:0
     RDKit          3D

 62 65  0  0  0  0  0  0  0  0999 V2000
   59.5560   27.9540   46.4800 O   0  0  0  0  0  0  0  0  0  0  0  0
   58.3210   27.8170   46.2780 C   0  0  0  0  0  0  0  0  0  0  0  0
   57.6200   26.6990   46.8460 N   0  0  0  0  0  0  0  0  0  0  0  0
   58.2660   25.7150   47.7140 C   0  0  0  0  0  0  0  0  0  0  0  0
   57.4900   24.3920   47.6990 C   0  0  0  0  0  0  0  0  0  0  0  0
   56.8320   24.1700   46.3610 C   0  0  0  0  0  0  0  0  0  0  0  0
   57.6130   23.9910   45.2050 C   0  0  0  0  0  0  0  0  0  0  0  0
   57.0000   23.7590   43.9720 C   0  0  0  0  0  0  0  0  0  0  0  0
   55.6060   23.7010   43.8810 C   0  0  0  0  0  0  0  0  0  0  0  0
   54.8210   23.8680   45.0280 C   0  0  0  0  0  0  0  0  0  0  0  0
   53.0720   23.7820   44.9180 Cl  0  0  0  0  0  0  0  0  0  0  0  0
   55.4320   24.1000   46.2640 C   0  0  0  0  0  0  0  0  0  0  0  0
   57.6010   28.8420   45.4990 C   0  0  0  0  0  0  0  0  0  0  0  0
   58.2910   29.9770   45.0430 C   0  0  0  0  0  0  0  0  0  0  0  0
   57.6120   30.9920   44.3460 C   0  0  0  0  0  0  0  0  0  0  0  0
   58.2730   32.1800   43.8990 N   0  0  0  0  0  0  0  0  0  0  0  0
   58.5220   33.6040   44.8590 S   0  0  0  0  0  0  0  0  0  0  0  0
   57.2360   34.3670   44.9950 O   0  0  0  0  0  0  0  0  0  0  0  0
   59.5580   34.4770   44.2060 O   0  0  0  0  0  0  0  0  0  0  0  0
   59.0840   33.1150   46.4540 C   0  0  0  0  0  0  0  0  0  0  0  0
   58.1760   32.7190   47.4440 C   0  0  0  0  0  0  0  0  0  0  0  0
   58.6360   32.3450   48.7090 C   0  0  0  0  0  0  0  0  0  0  0  0
   60.0030   32.3690   48.9940 C   0  0  0  0  0  0  0  0  0  0  0  0
   60.9180   32.7690   48.0110 C   0  0  0  0  0  0  0  0  0  0  0  0
   62.6360   32.8290   48.3920 S   0  0  0  0  0  0  0  0  0  0  0  0
   63.3450   31.8010   47.5600 O   0  0  0  0  0  0  0  0  0  0  0  0
   63.1810   34.1850   48.0430 O   0  0  0  0  0  0  0  0  0  0  0  0
   62.8460   32.4930   50.0990 N   0  0  0  0  0  0  0  0  0  0  0  0
   63.0910   33.7270   50.8760 C   0  0  0  0  0  0  0  0  0  0  0  0
   64.5940   33.9990   51.1100 C   0  0  0  0  0  0  0  0  0  0  0  0
   65.3670   33.4510   50.0630 O   0  0  0  0  0  0  0  0  0  0  0  0
   65.3150   32.0310   50.1070 C   0  0  0  0  0  0  0  0  0  0  0  0
   63.8880   31.4760   50.3360 C   0  0  0  0  0  0  0  0  0  0  0  0
   60.4540   33.1440   46.7430 C   0  0  0  0  0  0  0  0  0  0  0  0
   56.2470   30.8500   44.0820 C   0  0  0  0  0  0  0  0  0  0  0  0
   55.5600   29.7150   44.5100 C   0  0  0  0  0  0  0  0  0  0  0  0
   56.2270   28.7110   45.2160 C   0  0  0  0  0  0  0  0  0  0  0  0
   55.5210   27.5800   45.6120 O   0  0  0  0  0  0  0  0  0  0  0  0
   56.6020   26.5770   46.6410 H   0  0  0  0  0  0  0  0  0  0  0  0
   59.2916   25.5369   47.3584 H   0  0  0  0  0  0  0  0  0  0  0  0
   58.2829   26.1052   48.7423 H   0  0  0  0  0  0  0  0  0  0  0  0
   58.1857   23.5640   47.9001 H   0  0  0  0  0  0  0  0  0  0  0  0
   56.7089   24.4337   48.4724 H   0  0  0  0  0  0  0  0  0  0  0  0
   58.7101   24.0339   45.2724 H   0  0  0  0  0  0  0  0  0  0  0  0
   57.6151   23.6216   43.0705 H   0  0  0  0  0  0  0  0  0  0  0  0
   55.1257   23.5240   42.9073 H   0  0  0  0  0  0  0  0  0  0  0  0
   54.8138   24.2283   47.1647 H   0  0  0  0  0  0  0  0  0  0  0  0
   59.3703   30.0726   45.2324 H   0  0  0  0  0  0  0  0  0  0  0  0
   57.0981   32.7024   47.2250 H   0  0  0  0  0  0  0  0  0  0  0  0
   57.9197   32.0308   49.4825 H   0  0  0  0  0  0  0  0  0  0  0  0
   60.3617   32.0736   49.9910 H   0  0  0  0  0  0  0  0  0  0  0  0
   62.6609   34.5784   50.3282 H   0  0  0  0  0  0  0  0  0  0  0  0
   62.6207   33.5964   51.8618 H   0  0  0  0  0  0  0  0  0  0  0  0
   64.7624   35.0852   51.1534 H   0  0  0  0  0  0  0  0  0  0  0  0
   64.8962   33.5290   52.0575 H   0  0  0  0  0  0  0  0  0  0  0  0
   65.6929   31.6383   49.1515 H   0  0  0  0  0  0  0  0  0  0  0  0
   65.9299   31.7093   50.9604 H   0  0  0  0  0  0  0  0  0  0  0  0
   63.7220   30.6330   49.6491 H   0  0  0  0  0  0  0  0  0  0  0  0
   63.8153   31.1589   51.3868 H   0  0  0  0  0  0  0  0  0  0  0  0
   61.1695   33.4628   45.9707 H   0  0  0  0  0  0  0  0  0  0  0  0
   55.7114   31.6386   43.5331 H   0  0  0  0  0  0  0  0  0  0  0  0
   54.4873   29.6095   44.2907 H   0  0  0  0  0  0  0  0  0  0  0  0
  1  2  2  0
  2  3  1  0
  3  4  1  0
  4  5  1  0
  5  6  1  0
  6  7  2  0
  7  8  1  0
  8  9  2  0
  9 10  1  0
 10 11  1  0
 10 12  2  0
  2 13  1  0
 13 14  2  0
 14 15  1  0
 15 16  1  0
 16 17  1  0
 17 18  2  0
 17 19  2  0
 17 20  1  0
 20 21  2  0
 21 22  1  0
 22 23  2  0
 23 24  1  0
 24 25  1  0
 25 26  2  0
 25 27  2  0
 25 28  1  0
 28 29  1  0
 29 30  1  0
 30 31  1  0
 31 32  1  0
 32 33  1  0
 24 34  2  0
 15 35  2  0
 35 36  1  0
 36 37  2  0
 37 38  1  0
 12  6  1  0
 37 13  1  0
 34 20  1  0
 33 28  1  0
  3 39  1  0
  4 40  1  0
  4 41  1  0
  5 42  1  0
  5 43  1  0
  7 44  1  0
  8 45  1  0
  9 46  1  0
 12 47  1  0
 14 48  1  0
 21 49  1  0
 22 50  1  0
 23 51  1  0
 29 52  1  0
 29 53  1  0
 30 54  1  0
 30 55  1  0
 32 56  1  0
 32 57  1  0
 33 58  1  0
 33 59  1  0
 34 60  1  0
 35 61  1  0
 36 62  1  0
M  CHG  2  16  -1  38  -1
M  END
>  <UniqueID>  (38) 
36

>  <SMILES>  (38) 
O=C(NCCc1cccc(Cl)c1)c1cc([N-]S(=O)(=O)c2cccc(S(=O)(=O)N3CCOCC3)c2)ccc1[O-]

>  <Energy>  (38) 
81.26369639773519

>  <Genealogy>  (38) 
O=C(NCCc1cccc(Cl)c1)c1cc([N-]S(=O)(=O)c2cccc(S(=O)(=O)N3CCOCC3)c2)ccc1[O-] (protonated)
O=C(NCCc1cccc(Cl)c1)c1cc([N-]S(=O)(=O)c2cccc(S(=O)(=O)N3CCOCC3)c2)ccc1[O-] (3D coordinates assigned)
O=C(NCCc1cccc(Cl)c1)c1cc([N-]S(=O)(=O)c2cccc(S(=O)(=O)N3CCOCC3)c2)ccc1[O-] (nonaromatic ring conformer: 81.26369639773519 kcal/mol)

>  <smiles>  (38) 
O=C(NCCc1cccc(Cl)c1)c1cc(NS(=O)(=O)c2cccc(S(=O)(=O)N3CCOCC3)c2)ccc1O

>  <score_type>  (38) 
oracle

>  <origin>  (38) 
adg

>  <m_score__min__energy>  (38) 
-13.960000000000001

>  <m_primary>  (38) 
energy

$$$$
38:0
     RDKit          3D

 56 59  0  0  0  0  0  0  0  0999 V2000
   58.8960   35.0900   53.8100 C   0  0  0  0  0  0  0  0  0  0  0  0
   59.4450   33.7360   53.8590 N   0  0  0  0  0  0  0  0  0  0  0  0
   60.8990   33.5750   53.8660 C   0  0  0  0  0  0  0  0  0  0  0  0
   58.6080   32.6210   53.5070 C   0  0  0  0  0  0  0  0  0  0  0  0
   57.7880   32.0200   54.4680 C   0  0  0  0  0  0  0  0  0  0  0  0
   56.9950   30.9700   54.1370 N   0  0  0  0  0  0  0  0  0  0  0  0
   56.9450   30.4540   52.8770 C   0  0  0  0  0  0  0  0  0  0  0  0
   56.0740   29.3290   52.6270 N   0  0  0  0  0  0  0  0  0  0  0  0
   54.6860   29.6990   52.7790 C   0  0  0  0  0  0  0  0  0  0  0  0
   54.1470   29.9560   54.0520 C   0  0  0  0  0  0  0  0  0  0  0  0
   52.8160   30.3570   54.1930 C   0  0  0  0  0  0  0  0  0  0  0  0
   52.0030   30.5320   53.0670 C   0  0  0  0  0  0  0  0  0  0  0  0
   50.6800   30.9550   53.2600 O   0  0  0  0  0  0  0  0  0  0  0  0
   50.2600   31.8420   54.2960 C   0  0  0  0  0  0  0  0  0  0  0  0
   50.1460   33.2370   53.7730 C   0  0  0  0  0  0  0  0  0  0  0  0
   50.2000   33.4700   52.3660 N   0  0  0  0  0  0  0  0  0  0  0  0
   50.0410   34.2130   54.5640 O   0  0  0  0  0  0  0  0  0  0  0  0
   52.5410   30.2940   51.7890 C   0  0  0  0  0  0  0  0  0  0  0  0
   53.8710   29.8910   51.6480 C   0  0  0  0  0  0  0  0  0  0  0  0
   57.7540   31.0300   51.8660 C   0  0  0  0  0  0  0  0  0  0  0  0
   57.7660   30.5800   50.5360 C   0  0  0  0  0  0  0  0  0  0  0  0
   58.5610   31.1880   49.6200 N   0  0  0  0  0  0  0  0  0  0  0  0
   59.3610   32.2370   49.9570 C   0  0  0  0  0  0  0  0  0  0  0  0
   60.1090   32.8240   49.0690 N   0  0  0  0  0  0  0  0  0  0  0  0
   59.6420   33.7200   48.0490 C   0  0  0  0  0  0  0  0  0  0  0  0
   59.9300   34.9430   48.1440 O   0  0  0  0  0  0  0  0  0  0  0  0
   58.8770   33.2420   46.8700 C   0  0  0  0  0  0  0  0  0  0  0  0
   58.1640   34.1540   46.0680 C   0  0  0  0  0  0  0  0  0  0  0  0
   57.4420   33.7060   44.9550 C   0  0  0  0  0  0  0  0  0  0  0  0
   57.4370   32.3500   44.6250 C   0  0  0  0  0  0  0  0  0  0  0  0
   58.1570   31.4390   45.4030 C   0  0  0  0  0  0  0  0  0  0  0  0
   58.8740   31.8810   46.5200 C   0  0  0  0  0  0  0  0  0  0  0  0
   59.3560   32.6990   51.2330 N   0  0  0  0  0  0  0  0  0  0  0  0
   58.5870   32.1220   52.1950 C   0  0  0  0  0  0  0  0  0  0  0  0
   58.7452   35.4618   54.8342 H   0  0  0  0  0  0  0  0  0  0  0  0
   59.5972   35.7510   53.2795 H   0  0  0  0  0  0  0  0  0  0  0  0
   57.9325   35.0760   53.2795 H   0  0  0  0  0  0  0  0  0  0  0  0
   61.2585   33.5352   54.9048 H   0  0  0  0  0  0  0  0  0  0  0  0
   61.1671   32.6417   53.3492 H   0  0  0  0  0  0  0  0  0  0  0  0
   61.3647   34.4271   53.3492 H   0  0  0  0  0  0  0  0  0  0  0  0
   57.7861   32.4016   55.4997 H   0  0  0  0  0  0  0  0  0  0  0  0
   56.2130   28.9920   51.6460 H   0  0  0  0  0  0  0  0  0  0  0  0
   56.3370   28.5350   53.2550 H   0  0  0  0  0  0  0  0  0  0  0  0
   54.7789   29.8403   54.9449 H   0  0  0  0  0  0  0  0  0  0  0  0
   52.4037   30.5366   55.1969 H   0  0  0  0  0  0  0  0  0  0  0  0
   49.2807   31.5166   54.6769 H   0  0  0  0  0  0  0  0  0  0  0  0
   51.0052   31.8240   55.1049 H   0  0  0  0  0  0  0  0  0  0  0  0
   50.0860   32.6860   51.6890 H   0  0  0  0  0  0  0  0  0  0  0  0
   51.9114   30.4259   50.8967 H   0  0  0  0  0  0  0  0  0  0  0  0
   54.2853   29.7221   50.6431 H   0  0  0  0  0  0  0  0  0  0  0  0
   57.1303   29.7338   50.2365 H   0  0  0  0  0  0  0  0  0  0  0  0
   58.1743   35.2253   46.3175 H   0  0  0  0  0  0  0  0  0  0  0  0
   56.8784   34.4233   44.3404 H   0  0  0  0  0  0  0  0  0  0  0  0
   56.8665   31.9982   43.7528 H   0  0  0  0  0  0  0  0  0  0  0  0
   58.1599   30.3718   45.1363 H   0  0  0  0  0  0  0  0  0  0  0  0
   59.4388   31.1589   47.1279 H   0  0  0  0  0  0  0  0  0  0  0  0
  1  2  1  0
  2  3  1  0
  2  4  1  0
  4  5  2  0
  5  6  1  0
  6  7  2  0
  7  8  1  0
  8  9  1  0
  9 10  2  0
 10 11  1  0
 11 12  2  0
 12 13  1  0
 13 14  1  0
 14 15  1  0
 15 16  1  0
 15 17  2  0
 12 18  1  0
 18 19  2  0
  7 20  1  0
 20 21  2  0
 21 22  1  0
 22 23  1  0
 23 24  2  3
 24 25  1  0
 25 26  2  0
 25 27  1  0
 27 28  2  0
 28 29  1  0
 29 30  2  0
 30 31  1  0
 31 32  2  0
 23 33  1  0
 33 34  2  0
 34  4  1  0
 19  9  1  0
 34 20  1  0
 32 27  1  0
  1 35  1  0
  1 36  1  0
  1 37  1  0
  3 38  1  0
  3 39  1  0
  3 40  1  0
  5 41  1  0
  8 42  1  0
  8 43  1  0
 10 44  1  0
 11 45  1  0
 14 46  1  0
 14 47  1  0
 16 48  1  0
 18 49  1  0
 19 50  1  0
 21 51  1  0
 28 52  1  0
 29 53  1  0
 30 54  1  0
 31 55  1  0
 32 56  1  0
M  CHG  3   8   1  16  -1  22  -1
M  END
>  <UniqueID>  (39) 
37

>  <SMILES>  (39) 
CN(C)c1cnc([NH2+]c2ccc(OCC([NH-])=O)cc2)c2c[n-]c(=NC(=O)c3ccccc3)nc12

>  <Energy>  (39) 
78.85365595705903

>  <Genealogy>  (39) 
CN(C)c1cnc([NH2+]c2ccc(OCC([NH-])=O)cc2)c2c[n-]c(=NC(=O)c3ccccc3)nc12 (protonated)
CN(C)c1cnc([NH2+]c2ccc(OCC([NH-])=O)cc2)c2c[n-]c(=NC(=O)c3ccccc3)nc12 (3D coordinates assigned)
CN(C)c1cnc([NH2+]c2ccc(OCC([NH-])=O)cc2)c2c[n-]c(=NC(=O)c3ccccc3)nc12 (optimized conformer: 78.85365595705903 kcal/mol)

>  <smiles>  (39) 
CN(C)c1cnc(Nc2ccc(OCC(N)=O)cc2)c2c[nH]c(=NC(=O)c3ccccc3)nc12

>  <score_type>  (39) 
oracle

>  <origin>  (39) 
adg

>  <m_score__min__energy>  (39) 
-11.460000000000001

>  <m_primary>  (39) 
energy

$$$$
39:0
     RDKit          3D

 33 35  0  0  0  0  0  0  0  0999 V2000
   61.5000   33.4170   48.2740 C   0  0  0  0  0  0  0  0  0  0  0  0
   60.4200   32.9100   47.4130 N   0  0  0  0  0  0  0  0  0  0  0  0
   60.5160   31.6600   46.8300 C   0  0  0  0  0  0  0  0  0  0  0  0
   61.5180   30.9260   47.0490 O   0  0  0  0  0  0  0  0  0  0  0  0
   59.5330   31.1990   46.0020 N   0  0  0  0  0  0  0  0  0  0  0  0
   58.4740   32.0010   45.7620 C   0  0  0  0  0  0  0  0  0  0  0  0
   57.4290   31.7420   44.9600 N   0  0  0  0  0  0  0  0  0  0  0  0
   57.2100   30.5630   44.1300 C   0  0  0  0  0  0  0  0  0  0  0  0
   56.3450   29.5860   44.8600 C   0  0  0  0  0  0  0  0  0  0  0  0
   55.1580   29.3990   44.4810 O   0  0  0  0  0  0  0  0  0  0  0  0
   56.8810   28.8770   45.9830 N   0  0  0  0  0  0  0  0  0  0  0  0
   57.4140   27.5430   45.9770 C   0  0  0  0  0  0  0  0  0  0  0  0
   58.7990   27.2960   46.0190 C   0  0  0  0  0  0  0  0  0  0  0  0
   59.2800   25.9820   46.0370 C   0  0  0  0  0  0  0  0  0  0  0  0
   60.6140   25.7490   46.0760 F   0  0  0  0  0  0  0  0  0  0  0  0
   58.3840   24.9090   46.0280 C   0  0  0  0  0  0  0  0  0  0  0  0
   57.0080   25.1480   46.0120 C   0  0  0  0  0  0  0  0  0  0  0  0
   56.5240   26.4600   45.9950 C   0  0  0  0  0  0  0  0  0  0  0  0
   55.1850   26.6780   45.9870 F   0  0  0  0  0  0  0  0  0  0  0  0
   56.6540   32.8230   44.9610 N   0  0  0  0  0  0  0  0  0  0  0  0
   57.2440   33.7200   45.7890 C   0  0  0  0  0  0  0  0  0  0  0  0
   58.3860   33.2140   46.2930 N   0  0  0  0  0  0  0  0  0  0  0  0
   59.3400   33.7070   47.1140 C   0  0  0  0  0  0  0  0  0  0  0  0
   59.2350   34.8750   47.5810 O   0  0  0  0  0  0  0  0  0  0  0  0
   61.2198   33.2854   49.3295 H   0  0  0  0  0  0  0  0  0  0  0  0
   62.4255   32.8593   48.0681 H   0  0  0  0  0  0  0  0  0  0  0  0
   61.6622   34.4853   48.0681 H   0  0  0  0  0  0  0  0  0  0  0  0
   56.7149   30.8616   43.1942 H   0  0  0  0  0  0  0  0  0  0  0  0
   58.1781   30.0930   43.9023 H   0  0  0  0  0  0  0  0  0  0  0  0
   59.5057   28.1387   46.0377 H   0  0  0  0  0  0  0  0  0  0  0  0
   58.7627   23.8763   46.0335 H   0  0  0  0  0  0  0  0  0  0  0  0
   56.3038   24.3029   46.0128 H   0  0  0  0  0  0  0  0  0  0  0  0
   56.8462   34.7199   46.0170 H   0  0  0  0  0  0  0  0  0  0  0  0
  1  2  1  0
  2  3  1  0
  3  4  2  0
  3  5  1  0
  5  6  2  0
  6  7  1  0
  7  8  1  0
  8  9  1  0
  9 10  2  0
  9 11  1  0
 11 12  1  0
 12 13  2  0
 13 14  1  0
 14 15  1  0
 14 16  2  0
 16 17  1  0
 17 18  2  0
 18 19  1  0
  7 20  1  0
 20 21  2  0
 21 22  1  0
 22 23  1  0
 23 24  2  0
 23  2  1  0
 22  6  1  0
 18 12  1  0
  1 25  1  0
  1 26  1  0
  1 27  1  0
  8 28  1  0
  8 29  1  0
 13 30  1  0
 16 31  1  0
 17 32  1  0
 21 33  1  0
M  CHG  1  11  -1
M  END
>  <UniqueID>  (40) 
38

>  <SMILES>  (40) 
Cn1c(=O)nc2n(CC(=O)[N-]c3cc(F)ccc3F)ncn2c1=O

>  <Energy>  (40) 
84.59394868265392

>  <Genealogy>  (40) 
Cn1c(=O)nc2n(CC(=O)[N-]c3cc(F)ccc3F)ncn2c1=O (protonated)
Cn1c(=O)nc2n(CC(=O)[N-]c3cc(F)ccc3F)ncn2c1=O (3D coordinates assigned)
Cn1c(=O)nc2n(CC(=O)[N-]c3cc(F)ccc3F)ncn2c1=O (optimized conformer: 84.59394868265392 kcal/mol)

>  <smiles>  (40) 
Cn1c(=O)nc2n(CC(=O)Nc3cc(F)ccc3F)ncn2c1=O

>  <score_type>  (40) 
oracle

>  <origin>  (40) 
adg

>  <m_score__min__energy>  (40) 
-9.0500000000000007

>  <m_primary>  (40) 
energy

$$$$
40:0
     RDKit          3D

 28 30  0  0  0  0  0  0  0  0999 V2000
   54.7730   27.0890   45.9940 H   0  0  0  0  0  0  0  0  0  0  0  0
   55.7120   26.6420   46.0630 N   0  0  0  0  0  0  0  0  0  0  0  0
   56.8100   27.2960   45.8510 C   0  0  0  0  0  0  0  0  0  0  0  0
   56.9420   28.5600   45.3160 C   0  0  0  0  0  0  0  0  0  0  0  0
   56.0580   29.5310   44.8490 C   0  0  0  0  0  0  0  0  0  0  0  0
   54.8120   29.3500   44.8530 O   0  0  0  0  0  0  0  0  0  0  0  0
   56.5800   30.7050   44.3830 N   0  0  0  0  0  0  0  0  0  0  0  0
   57.9310   30.9450   44.3560 C   0  0  0  0  0  0  0  0  0  0  0  0
   58.4340   32.2720   43.8670 C   0  0  0  0  0  0  0  0  0  0  0  0
   59.3724   32.1237   43.3125 H   0  0  0  0  0  0  0  0  0  0  0  0
   57.6778   32.7236   43.2080 H   0  0  0  0  0  0  0  0  0  0  0  0
   58.6840   33.1900   45.0320 C   0  0  0  0  0  0  0  0  0  0  0  0
   58.1640   32.8840   46.3020 C   0  0  0  0  0  0  0  0  0  0  0  0
   57.5954   31.9544   46.4519 H   0  0  0  0  0  0  0  0  0  0  0  0
   58.3670   33.7570   47.3750 C   0  0  0  0  0  0  0  0  0  0  0  0
   57.9644   33.5095   48.3683 H   0  0  0  0  0  0  0  0  0  0  0  0
   59.0810   34.9440   47.1870 C   0  0  0  0  0  0  0  0  0  0  0  0
   59.2436   35.6278   48.0332 H   0  0  0  0  0  0  0  0  0  0  0  0
   59.5880   35.2620   45.9250 C   0  0  0  0  0  0  0  0  0  0  0  0
   60.1460   36.1984   45.7771 H   0  0  0  0  0  0  0  0  0  0  0  0
   59.3870   34.3910   44.8490 C   0  0  0  0  0  0  0  0  0  0  0  0
   59.7816   34.6485   43.8550 H   0  0  0  0  0  0  0  0  0  0  0  0
   58.8340   29.9710   44.8370 C   0  0  0  0  0  0  0  0  0  0  0  0
   59.9198   30.1470   44.8379 H   0  0  0  0  0  0  0  0  0  0  0  0
   58.2930   28.7810   45.3090 C   0  0  0  0  0  0  0  0  0  0  0  0
   58.9560   27.7190   45.8100 N   0  0  0  0  0  0  0  0  0  0  0  0
   58.0380   26.8140   46.1380 N   0  0  0  0  0  0  0  0  0  0  0  0
   58.2570   25.8820   46.5530 H   0  0  0  0  0  0  0  0  0  0  0  0
  1  2  1  0
  2  3  2  0
  3  4  1  0
  4  5  1  0
  5  6  2  0
  5  7  1  0
  7  8  1  0
  8  9  1  0
  9 10  1  0
  9 11  1  0
  9 12  1  0
 12 13  2  0
 13 14  1  0
 13 15  1  0
 15 16  1  0
 15 17  2  0
 17 18  1  0
 17 19  1  0
 19 20  1  0
 19 21  2  0
 21 22  1  0
  8 23  2  0
 23 24  1  0
 23 25  1  0
 25 26  1  0
 26 27  1  0
 27 28  1  0
 27  3  1  0
 25  4  2  0
 21 12  1  0
M  CHG  2   7  -1  26  -1
M  END
>  <UniqueID>  (41) 
39

>  <SMILES>  (41) 
[H]/N=c1/[nH][n-]c2cc(Cc3ccccc3)[n-]c(=O)c12

>  <Energy>  (41) 
71.717338293744

>  <Genealogy>  (41) 
N=c1[nH][n-]c2cc(Cc3ccccc3)[n-]c(=O)c12 (protonated)
[H]/N=c1/[nH][n-]c2cc(Cc3ccccc3)[n-]c(=O)c12 (cis-trans isomerization)
[H]/N=c1/[nH][n-]c2cc(Cc3ccccc3)[n-]c(=O)c12 (3D coordinates assigned)
[H]/N=c1/[nH][n-]c2cc(Cc3ccccc3)[n-]c(=O)c12 (optimized conformer: 71.717338293744 kcal/mol)

>  <smiles>  (41) 
N=c1[nH][nH]c2cc(Cc3ccccc3)[nH]c(=O)c12

>  <score_type>  (41) 
oracle

>  <origin>  (41) 
adg

>  <m_score__min__energy>  (41) 
-9.7599999999999998

>  <m_primary>  (41) 
energy

$$$$
41:0
     RDKit          3D

 39 41  0  0  0  0  0  0  0  0999 V2000
   54.4530   26.3300   45.9700 O   0  0  0  0  0  0  0  0  0  0  0  0
   55.6500   26.0450   46.2360 C   0  0  0  0  0  0  0  0  0  0  0  0
   55.9750   24.7310   46.5530 O   0  0  0  0  0  0  0  0  0  0  0  0
   56.6950   27.0910   46.2150 C   0  0  0  0  0  0  0  0  0  0  0  0
   56.6300   28.1430   45.2850 C   0  0  0  0  0  0  0  0  0  0  0  0
   57.6150   29.1340   45.2650 C   0  0  0  0  0  0  0  0  0  0  0  0
   58.6790   29.0900   46.1740 C   0  0  0  0  0  0  0  0  0  0  0  0
   59.9190   30.3400   46.1610 S   0  0  0  0  0  0  0  0  0  0  0  0
   61.1980   29.7530   45.6370 O   0  0  0  0  0  0  0  0  0  0  0  0
   59.5080   31.4840   45.2770 O   0  0  0  0  0  0  0  0  0  0  0  0
   60.1820   30.9330   47.7690 N   0  0  0  0  0  0  0  0  0  0  0  0
   61.1500   31.7310   48.1120 C   0  0  0  0  0  0  0  0  0  0  0  0
   62.7920   31.3450   48.0760 S   0  0  0  0  0  0  0  0  0  0  0  0
   63.2710   32.8490   48.6490 C   0  0  0  0  0  0  0  0  0  0  0  0
   62.1320   33.6180   48.8580 C   0  0  0  0  0  0  0  0  0  0  0  0
   62.2330   34.9240   49.3420 O   0  0  0  0  0  0  0  0  0  0  0  0
   60.9450   32.9990   48.5540 N   0  0  0  0  0  0  0  0  0  0  0  0
   59.6060   33.5820   48.7350 C   0  0  0  0  0  0  0  0  0  0  0  0
   58.9560   33.8240   47.3970 C   0  0  0  0  0  0  0  0  0  0  0  0
   57.7030   33.2620   47.1040 C   0  0  0  0  0  0  0  0  0  0  0  0
   57.1180   33.4580   45.8480 C   0  0  0  0  0  0  0  0  0  0  0  0
   57.7820   34.2120   44.8770 C   0  0  0  0  0  0  0  0  0  0  0  0
   59.0320   34.7690   45.1580 C   0  0  0  0  0  0  0  0  0  0  0  0
   59.6200   34.5750   46.4120 C   0  0  0  0  0  0  0  0  0  0  0  0
   58.7540   28.0420   47.0990 C   0  0  0  0  0  0  0  0  0  0  0  0
   57.7700   27.0500   47.1220 C   0  0  0  0  0  0  0  0  0  0  0  0
   55.7974   28.1865   44.5675 H   0  0  0  0  0  0  0  0  0  0  0  0
   57.5542   29.9520   44.5321 H   0  0  0  0  0  0  0  0  0  0  0  0
   64.3076   33.1704   48.8281 H   0  0  0  0  0  0  0  0  0  0  0  0
   62.6790   35.1630   50.2160 H   0  0  0  0  0  0  0  0  0  0  0  0
   58.9843   32.8886   49.3204 H   0  0  0  0  0  0  0  0  0  0  0  0
   59.7018   34.5411   49.2651 H   0  0  0  0  0  0  0  0  0  0  0  0
   57.1790   32.6651   47.8650 H   0  0  0  0  0  0  0  0  0  0  0  0
   56.1347   33.0182   45.6250 H   0  0  0  0  0  0  0  0  0  0  0  0
   57.3203   34.3671   43.8907 H   0  0  0  0  0  0  0  0  0  0  0  0
   59.5544   35.3609   44.3920 H   0  0  0  0  0  0  0  0  0  0  0  0
   60.6061   35.0119   46.6282 H   0  0  0  0  0  0  0  0  0  0  0  0
   59.5914   27.9991   47.8110 H   0  0  0  0  0  0  0  0  0  0  0  0
   57.8363   26.2316   47.8540 H   0  0  0  0  0  0  0  0  0  0  0  0
  1  2  2  0
  2  3  1  0
  2  4  1  0
  4  5  2  0
  5  6  1  0
  6  7  2  0
  7  8  1  0
  8  9  2  0
  8 10  2  0
  8 11  1  0
 11 12  2  3
 12 13  1  0
 13 14  1  0
 14 15  2  0
 15 16  1  0
 15 17  1  0
 17 18  1  0
 18 19  1  0
 19 20  2  0
 20 21  1  0
 21 22  2  0
 22 23  1  0
 23 24  2  0
  7 25  1  0
 25 26  2  0
 26  4  1  0
 17 12  1  0
 24 19  1  0
  5 27  1  0
  6 28  1  0
 14 29  1  0
 16 30  1  0
 18 31  1  0
 18 32  1  0
 20 33  1  0
 21 34  1  0
 22 35  1  0
 23 36  1  0
 24 37  1  0
 25 38  1  0
 26 39  1  0
M  CHG  1   3  -1
M  END
>  <UniqueID>  (42) 
40

>  <SMILES>  (42) 
O=C([O-])c1ccc(S(=O)(=O)N=c2scc(O)n2Cc2ccccc2)cc1

>  <Energy>  (42) 
76.37377630452686

>  <Genealogy>  (42) 
O=C([O-])c1ccc(S(=O)(=O)N=c2scc(O)n2Cc2ccccc2)cc1 (protonated)
O=C([O-])c1ccc(S(=O)(=O)N=c2scc(O)n2Cc2ccccc2)cc1 (3D coordinates assigned)
O=C([O-])c1ccc(S(=O)(=O)N=c2scc(O)n2Cc2ccccc2)cc1 (optimized conformer: 76.37377630452686 kcal/mol)

>  <smiles>  (42) 
O=C(O)c1ccc(S(=O)(=O)N=c2scc(O)n2Cc2ccccc2)cc1

>  <score_type>  (42) 
oracle

>  <origin>  (42) 
adg

>  <m_score__min__energy>  (42) 
-10.08

>  <m_primary>  (42) 
energy

$$$$
42:0
     RDKit          3D

 55 58  0  0  0  0  0  0  0  0999 V2000
   55.9620   24.4270   47.8520 O   0  0  0  0  0  0  0  0  0  0  0  0
   55.8180   24.8100   46.6590 C   0  0  0  0  0  0  0  0  0  0  0  0
   55.3100   23.8880   45.6890 N   0  0  0  0  0  0  0  0  0  0  0  0
   56.0980   23.0350   44.8440 C   0  0  0  0  0  0  0  0  0  0  0  0
   55.8890   22.9870   43.4520 C   0  0  0  0  0  0  0  0  0  0  0  0
   56.6760   22.1600   42.6470 C   0  0  0  0  0  0  0  0  0  0  0  0
   57.6900   21.3880   43.2170 C   0  0  0  0  0  0  0  0  0  0  0  0
   57.9260   21.4500   44.5920 C   0  0  0  0  0  0  0  0  0  0  0  0
   57.1420   22.2720   45.4090 C   0  0  0  0  0  0  0  0  0  0  0  0
   57.4090   22.3110   46.7770 O   0  0  0  0  0  0  0  0  0  0  0  0
   56.1010   26.1310   46.3020 O   0  0  0  0  0  0  0  0  0  0  0  0
   57.0790   26.4770   45.3280 C   0  0  0  0  0  0  0  0  0  0  0  0
   57.4870   27.9070   45.5320 C   0  0  0  0  0  0  0  0  0  0  0  0
   56.7470   28.9360   44.9330 C   0  0  0  0  0  0  0  0  0  0  0  0
   57.1390   30.2690   45.0840 C   0  0  0  0  0  0  0  0  0  0  0  0
   58.2850   30.5990   45.8300 C   0  0  0  0  0  0  0  0  0  0  0  0
   58.6850   32.0230   45.9760 C   0  0  0  0  0  0  0  0  0  0  0  0
   58.8540   32.8650   44.8680 C   0  0  0  0  0  0  0  0  0  0  0  0
   59.2130   34.1930   45.0710 C   0  0  0  0  0  0  0  0  0  0  0  0
   59.3900   34.6660   46.3700 C   0  0  0  0  0  0  0  0  0  0  0  0
   59.7000   35.8760   46.5500 O   0  0  0  0  0  0  0  0  0  0  0  0
   59.2130   33.8150   47.4310 N   0  0  0  0  0  0  0  0  0  0  0  0
   59.3330   34.2750   48.8200 C   0  0  0  0  0  0  0  0  0  0  0  0
   60.4650   33.5360   49.5470 C   0  0  0  0  0  0  0  0  0  0  0  0
   61.5880   33.1830   48.6080 C   0  0  0  0  0  0  0  0  0  0  0  0
   61.7760   31.8530   48.1950 C   0  0  0  0  0  0  0  0  0  0  0  0
   62.8480   31.5180   47.3610 C   0  0  0  0  0  0  0  0  0  0  0  0
   63.7430   32.5060   46.9400 C   0  0  0  0  0  0  0  0  0  0  0  0
   63.5670   33.8310   47.3530 C   0  0  0  0  0  0  0  0  0  0  0  0
   62.4960   34.1690   48.1870 C   0  0  0  0  0  0  0  0  0  0  0  0
   58.8660   32.5420   47.2220 N   0  0  0  0  0  0  0  0  0  0  0  0
   59.0190   29.5620   46.4380 C   0  0  0  0  0  0  0  0  0  0  0  0
   58.6280   28.2280   46.2820 C   0  0  0  0  0  0  0  0  0  0  0  0
   55.1012   23.6045   42.9959 H   0  0  0  0  0  0  0  0  0  0  0  0
   56.4966   22.1170   41.5626 H   0  0  0  0  0  0  0  0  0  0  0  0
   58.3032   20.7308   42.5829 H   0  0  0  0  0  0  0  0  0  0  0  0
   58.7333   20.8488   45.0356 H   0  0  0  0  0  0  0  0  0  0  0  0
   56.8440   22.8440   47.4270 H   0  0  0  0  0  0  0  0  0  0  0  0
   57.9570   25.8236   45.4386 H   0  0  0  0  0  0  0  0  0  0  0  0
   56.6597   26.3504   44.3190 H   0  0  0  0  0  0  0  0  0  0  0  0
   55.8526   28.6929   44.3407 H   0  0  0  0  0  0  0  0  0  0  0  0
   56.5457   31.0677   44.6150 H   0  0  0  0  0  0  0  0  0  0  0  0
   58.7042   32.4793   43.8488 H   0  0  0  0  0  0  0  0  0  0  0  0
   59.3563   34.8655   44.2124 H   0  0  0  0  0  0  0  0  0  0  0  0
   59.5464   35.3541   48.8246 H   0  0  0  0  0  0  0  0  0  0  0  0
   58.3869   34.0677   49.3414 H   0  0  0  0  0  0  0  0  0  0  0  0
   60.8575   34.1818   50.3464 H   0  0  0  0  0  0  0  0  0  0  0  0
   60.0564   32.6026   49.9616 H   0  0  0  0  0  0  0  0  0  0  0  0
   61.0772   31.0719   48.5290 H   0  0  0  0  0  0  0  0  0  0  0  0
   62.9868   30.4763   47.0362 H   0  0  0  0  0  0  0  0  0  0  0  0
   64.5855   32.2416   46.2841 H   0  0  0  0  0  0  0  0  0  0  0  0
   64.2716   34.6079   47.0215 H   0  0  0  0  0  0  0  0  0  0  0  0
   62.3642   35.2108   48.5145 H   0  0  0  0  0  0  0  0  0  0  0  0
   59.9071   29.8031   47.0405 H   0  0  0  0  0  0  0  0  0  0  0  0
   59.2184   27.4265   46.7500 H   0  0  0  0  0  0  0  0  0  0  0  0
  1  2  2  0
  2  3  1  0
  3  4  1  0
  4  5  2  0
  5  6  1  0
  6  7  2  0
  7  8  1  0
  8  9  2  0
  9 10  1  0
  2 11  1  0
 11 12  1  0
 12 13  1  0
 13 14  2  0
 14 15  1  0
 15 16  2  0
 16 17  1  0
 17 18  1  0
 18 19  2  0
 19 20  1  0
 20 21  2  0
 20 22  1  0
 22 23  1  0
 23 24  1  0
 24 25  1  0
 25 26  2  0
 26 27  1  0
 27 28  2  0
 28 29  1  0
 29 30  2  0
 22 31  1  0
 16 32  1  0
 32 33  2  0
  9  4  1  0
 33 13  1  0
 31 17  2  0
 30 25  1  0
  5 34  1  0
  6 35  1  0
  7 36  1  0
  8 37  1  0
 10 38  1  0
 12 39  1  0
 12 40  1  0
 14 41  1  0
 15 42  1  0
 18 43  1  0
 19 44  1  0
 23 45  1  0
 23 46  1  0
 24 47  1  0
 24 48  1  0
 26 49  1  0
 27 50  1  0
 28 51  1  0
 29 52  1  0
 30 53  1  0
 32 54  1  0
 33 55  1  0
M  CHG  1   3  -1
M  END
>  <UniqueID>  (43) 
41

>  <SMILES>  (43) 
O=C([N-]c1ccccc1O)OCc1ccc(-c2ccc(=O)n(CCc3ccccc3)n2)cc1

>  <Energy>  (43) 
62.02022205698782

>  <Genealogy>  (43) 
O=C([N-]c1ccccc1O)OCc1ccc(-c2ccc(=O)n(CCc3ccccc3)n2)cc1 (protonated)
O=C([N-]c1ccccc1O)OCc1ccc(-c2ccc(=O)n(CCc3ccccc3)n2)cc1 (3D coordinates assigned)
O=C([N-]c1ccccc1O)OCc1ccc(-c2ccc(=O)n(CCc3ccccc3)n2)cc1 (optimized conformer: 62.02022205698782 kcal/mol)

>  <smiles>  (43) 
O=C(Nc1ccccc1O)OCc1ccc(-c2ccc(=O)n(CCc3ccccc3)n2)cc1

>  <score_type>  (43) 
oracle

>  <origin>  (43) 
adg

>  <m_score__min__energy>  (43) 
-10.74

>  <m_primary>  (43) 
energy

$$$$
43:0
     RDKit          3D

 78 81  0  0  0  0  0  0  0  0999 V2000
   59.6470   35.6920   46.0310 C   0  0  0  0  0  0  0  0  0  0  0  0
   58.8850   34.9600   47.1430 C   0  0  0  0  0  0  0  0  0  0  0  0
   57.7190   34.1490   46.5760 C   0  0  0  0  0  0  0  0  0  0  0  0
   57.8510   34.0570   45.1730 O   0  0  0  0  0  0  0  0  0  0  0  0
   57.3750   32.8040   44.7220 C   0  0  0  0  0  0  0  0  0  0  0  0
   58.5670   31.8980   44.4010 C   0  0  0  0  0  0  0  0  0  0  0  0
   59.0570   31.2060   45.6170 N   0  0  0  0  0  0  0  0  0  0  0  0
   59.9850   31.8390   46.4150 C   0  0  0  0  0  0  0  0  0  0  0  0
   60.4310   32.9770   46.1020 O   0  0  0  0  0  0  0  0  0  0  0  0
   60.4310   31.2320   47.6000 C   0  0  0  0  0  0  0  0  0  0  0  0
   61.4070   31.8640   48.4430 N   0  0  0  0  0  0  0  0  0  0  0  0
   61.1830   31.9620   49.8910 C   0  0  0  0  0  0  0  0  0  0  0  0
   62.5190   31.8170   50.6220 C   0  0  0  0  0  0  0  0  0  0  0  0
   63.5590   32.8710   50.1620 C   0  0  0  0  0  0  0  0  0  0  0  0
   64.9450   32.2680   50.1470 C   0  0  0  0  0  0  0  0  0  0  0  0
   65.8230   32.7280   49.3690 O   0  0  0  0  0  0  0  0  0  0  0  0
   65.2350   31.1220   50.9630 N   0  0  0  0  0  0  0  0  0  0  0  0
   66.5950   30.6220   51.1460 C   0  0  0  0  0  0  0  0  0  0  0  0
   66.5760   29.1220   51.2410 C   0  0  0  0  0  0  0  0  0  0  0  0
   65.5520   28.4630   51.9420 C   0  0  0  0  0  0  0  0  0  0  0  0
   65.5210   27.0650   51.9950 C   0  0  0  0  0  0  0  0  0  0  0  0
   66.5050   26.3160   51.3390 C   0  0  0  0  0  0  0  0  0  0  0  0
   67.5220   26.9660   50.6270 C   0  0  0  0  0  0  0  0  0  0  0  0
   68.7530   26.0290   49.7990 Cl  0  0  0  0  0  0  0  0  0  0  0  0
   67.5540   28.3630   50.5730 C   0  0  0  0  0  0  0  0  0  0  0  0
   63.2100   33.5370   48.8060 C   0  0  0  0  0  0  0  0  0  0  0  0
   62.5360   32.5710   47.8210 C   0  0  0  0  0  0  0  0  0  0  0  0
   59.9120   30.0370   47.9710 N   0  0  0  0  0  0  0  0  0  0  0  0
   59.0140   29.3840   47.2020 C   0  0  0  0  0  0  0  0  0  0  0  0
   58.5140   28.1490   47.6280 C   0  0  0  0  0  0  0  0  0  0  0  0
   57.6030   27.4490   46.8350 C   0  0  0  0  0  0  0  0  0  0  0  0
   57.0820   26.2280   47.2710 O   0  0  0  0  0  0  0  0  0  0  0  0
   56.9150   25.0840   46.4200 C   0  0  0  0  0  0  0  0  0  0  0  0
   56.9610   23.8310   47.3050 C   0  0  0  0  0  0  0  0  0  0  0  0
   58.0710   25.0110   45.4000 C   0  0  0  0  0  0  0  0  0  0  0  0
   55.5650   25.1500   45.7280 C   0  0  0  0  0  0  0  0  0  0  0  0
   54.7010   26.2610   45.9730 N   0  0  0  0  0  0  0  0  0  0  0  0
   55.2040   24.2520   44.9170 O   0  0  0  0  0  0  0  0  0  0  0  0
   57.2340   27.9610   45.5900 C   0  0  0  0  0  0  0  0  0  0  0  0
   57.7200   29.1950   45.1570 C   0  0  0  0  0  0  0  0  0  0  0  0
   58.5970   29.9510   45.9710 C   0  0  0  0  0  0  0  0  0  0  0  0
   60.3713   36.3878   46.4796 H   0  0  0  0  0  0  0  0  0  0  0  0
   60.1803   34.9589   45.4080 H   0  0  0  0  0  0  0  0  0  0  0  0
   58.9358   36.2543   45.4080 H   0  0  0  0  0  0  0  0  0  0  0  0
   59.5756   34.2796   47.6627 H   0  0  0  0  0  0  0  0  0  0  0  0
   58.4807   35.7099   47.8388 H   0  0  0  0  0  0  0  0  0  0  0  0
   57.7274   33.1394   47.0125 H   0  0  0  0  0  0  0  0  0  0  0  0
   56.7699   34.6465   46.8242 H   0  0  0  0  0  0  0  0  0  0  0  0
   56.7609   32.3394   45.5075 H   0  0  0  0  0  0  0  0  0  0  0  0
   56.7639   32.9445   43.8182 H   0  0  0  0  0  0  0  0  0  0  0  0
   58.2569   31.1460   43.6605 H   0  0  0  0  0  0  0  0  0  0  0  0
   59.3812   32.5214   44.0030 H   0  0  0  0  0  0  0  0  0  0  0  0
   60.7388   32.9399   50.1284 H   0  0  0  0  0  0  0  0  0  0  0  0
   60.4993   31.1624   50.2123 H   0  0  0  0  0  0  0  0  0  0  0  0
   62.3465   31.9381   51.7016 H   0  0  0  0  0  0  0  0  0  0  0  0
   62.9237   30.8210   50.3890 H   0  0  0  0  0  0  0  0  0  0  0  0
   63.5325   33.6862   50.9001 H   0  0  0  0  0  0  0  0  0  0  0  0
   64.4660   30.6850   51.5180 H   0  0  0  0  0  0  0  0  0  0  0  0
   67.2145   30.9261   50.2894 H   0  0  0  0  0  0  0  0  0  0  0  0
   67.0146   31.0400   52.0729 H   0  0  0  0  0  0  0  0  0  0  0  0
   64.7719   29.0481   52.4510 H   0  0  0  0  0  0  0  0  0  0  0  0
   64.7224   26.5540   52.5528 H   0  0  0  0  0  0  0  0  0  0  0  0
   66.4799   25.2171   51.3824 H   0  0  0  0  0  0  0  0  0  0  0  0
   68.3477   28.8708   50.0055 H   0  0  0  0  0  0  0  0  0  0  0  0
   62.5277   34.3791   48.9940 H   0  0  0  0  0  0  0  0  0  0  0  0
   64.1539   33.8687   48.3489 H   0  0  0  0  0  0  0  0  0  0  0  0
   62.1667   33.1426   46.9567 H   0  0  0  0  0  0  0  0  0  0  0  0
   63.2801   31.8234   47.5088 H   0  0  0  0  0  0  0  0  0  0  0  0
   58.8396   27.7282   48.5907 H   0  0  0  0  0  0  0  0  0  0  0  0
   56.9500   24.1293   48.3637 H   0  0  0  0  0  0  0  0  0  0  0  0
   56.0854   23.1999   47.0928 H   0  0  0  0  0  0  0  0  0  0  0  0
   57.8805   23.2658   47.0928 H   0  0  0  0  0  0  0  0  0  0  0  0
   59.0297   24.9505   45.9360 H   0  0  0  0  0  0  0  0  0  0  0  0
   57.9470   24.1189   44.7685 H   0  0  0  0  0  0  0  0  0  0  0  0
   58.0602   25.9116   44.7685 H   0  0  0  0  0  0  0  0  0  0  0  0
   55.0130   27.0550   46.5750 H   0  0  0  0  0  0  0  0  0  0  0  0
   56.5538   27.3862   44.9443 H   0  0  0  0  0  0  0  0  0  0  0  0
   57.4186   29.5842   44.1733 H   0  0  0  0  0  0  0  0  0  0  0  0
  1  2  1  0
  2  3  1  0
  3  4  1  0
  4  5  1  0
  5  6  1  0
  6  7  1  0
  7  8  1  0
  8  9  2  0
  8 10  1  0
 10 11  1  0
 11 12  1  0
 12 13  1  0
 13 14  1  0
 14 15  1  0
 15 16  2  0
 15 17  1  0
 17 18  1  0
 18 19  1  0
 19 20  2  0
 20 21  1  0
 21 22  2  0
 22 23  1  0
 23 24  1  0
 23 25  2  0
 14 26  1  0
 26 27  1  0
 10 28  2  0
 28 29  1  0
 29 30  2  0
 30 31  1  0
 31 32  1  0
 32 33  1  0
 33 34  1  0
 33 35  1  0
 33 36  1  0
 36 37  1  0
 36 38  2  0
 31 39  2  0
 39 40  1  0
 40 41  2  0
 41  7  1  0
 27 11  1  0
 41 29  1  0
 25 19  1  0
  1 42  1  0
  1 43  1  0
  1 44  1  0
  2 45  1  0
  2 46  1  0
  3 47  1  0
  3 48  1  0
  5 49  1  0
  5 50  1  0
  6 51  1  0
  6 52  1  0
 12 53  1  0
 12 54  1  0
 13 55  1  0
 13 56  1  0
 14 57  1  0
 17 58  1  0
 18 59  1  0
 18 60  1  0
 20 61  1  0
 21 62  1  0
 22 63  1  0
 25 64  1  0
 26 65  1  0
 26 66  1  0
 27 67  1  0
 27 68  1  0
 30 69  1  0
 34 70  1  0
 34 71  1  0
 34 72  1  0
 35 73  1  0
 35 74  1  0
 35 75  1  0
 37 76  1  0
 39 77  1  0
 40 78  1  0
M  CHG  1  37  -1
M  END
>  <UniqueID>  (44) 
42

>  <SMILES>  (44) 
CCCOCCn1c(=O)c(N2CCC(C(=O)NCc3cccc(Cl)c3)CC2)nc2cc(OC(C)(C)C([NH-])=O)ccc21

>  <Energy>  (44) 
94.9170926672467

>  <Genealogy>  (44) 
CCCOCCn1c(=O)c(N2CCC(C(=O)NCc3cccc(Cl)c3)CC2)nc2cc(OC(C)(C)C([NH-])=O)ccc21 (protonated)
CCCOCCn1c(=O)c(N2CCC(C(=O)NCc3cccc(Cl)c3)CC2)nc2cc(OC(C)(C)C([NH-])=O)ccc21 (3D coordinates assigned)
CCCOCCn1c(=O)c(N2CCC(C(=O)NCc3cccc(Cl)c3)CC2)nc2cc(OC(C)(C)C([NH-])=O)ccc21 (nonaromatic ring conformer: 94.9170926672467 kcal/mol)

>  <smiles>  (44) 
CCCOCCn1c(=O)c(N2CCC(C(=O)NCc3cccc(Cl)c3)CC2)nc2cc(OC(C)(C)C(N)=O)ccc21

>  <score_type>  (44) 
oracle

>  <origin>  (44) 
adg

>  <m_score__min__energy>  (44) 
-12.44

>  <m_primary>  (44) 
energy

$$$$
44:0
     RDKit          3D

 45 47  0  0  0  0  0  0  0  0999 V2000
   52.1230   21.3630   45.5880 N   0  0  0  0  0  0  0  0  0  0  0  0
   53.3160   21.4500   46.3650 C   0  0  0  0  0  0  0  0  0  0  0  0
   53.6080   20.5070   47.1490 O   0  0  0  0  0  0  0  0  0  0  0  0
   54.1990   22.6330   46.2600 C   0  0  0  0  0  0  0  0  0  0  0  0
   53.7450   23.8130   45.6430 C   0  0  0  0  0  0  0  0  0  0  0  0
   54.5770   24.9330   45.5560 C   0  0  0  0  0  0  0  0  0  0  0  0
   55.8790   24.8860   46.0710 C   0  0  0  0  0  0  0  0  0  0  0  0
   56.9580   26.2700   45.9150 S   0  0  0  0  0  0  0  0  0  0  0  0
   57.7150   26.5080   47.1920 O   0  0  0  0  0  0  0  0  0  0  0  0
   57.9380   25.9970   44.8090 O   0  0  0  0  0  0  0  0  0  0  0  0
   56.0380   27.6890   45.5280 N   0  0  0  0  0  0  0  0  0  0  0  0
   56.6030   28.9750   45.2410 C   0  0  0  0  0  0  0  0  0  0  0  0
   56.1820   29.7450   44.1440 C   0  0  0  0  0  0  0  0  0  0  0  0
   56.8030   30.9620   43.8570 C   0  0  0  0  0  0  0  0  0  0  0  0
   57.8470   31.4360   44.6690 C   0  0  0  0  0  0  0  0  0  0  0  0
   58.5400   32.6560   44.3770 N   0  0  0  0  0  0  0  0  0  0  0  0
   58.4600   34.0870   45.3530 S   0  0  0  0  0  0  0  0  0  0  0  0
   57.0940   34.1880   45.9710 O   0  0  0  0  0  0  0  0  0  0  0  0
   58.6910   35.2990   44.4950 O   0  0  0  0  0  0  0  0  0  0  0  0
   59.6610   33.9770   46.6390 C   0  0  0  0  0  0  0  0  0  0  0  0
   59.3080   34.3430   47.9410 C   0  0  0  0  0  0  0  0  0  0  0  0
   60.2320   34.2270   48.9780 C   0  0  0  0  0  0  0  0  0  0  0  0
   61.5220   33.7430   48.7300 C   0  0  0  0  0  0  0  0  0  0  0  0
   62.6040   33.5670   50.1080 Cl  0  0  0  0  0  0  0  0  0  0  0  0
   61.8960   33.3720   47.4160 C   0  0  0  0  0  0  0  0  0  0  0  0
   63.2090   32.8640   47.1120 N   0  0  0  0  0  0  0  0  0  0  0  0
   63.9810   33.4940   46.3630 O   0  0  0  0  0  0  0  0  0  0  0  0
   63.5690   31.6000   47.5200 O   0  0  0  0  0  0  0  0  0  0  0  0
   60.9500   33.4940   46.3800 C   0  0  0  0  0  0  0  0  0  0  0  0
   58.2300   30.6920   45.7910 C   0  0  0  0  0  0  0  0  0  0  0  0
   57.6140   29.4690   46.0730 C   0  0  0  0  0  0  0  0  0  0  0  0
   56.3390   23.7130   46.6810 C   0  0  0  0  0  0  0  0  0  0  0  0
   55.5060   22.5950   46.7780 C   0  0  0  0  0  0  0  0  0  0  0  0
   51.9750   20.5780   44.9140 H   0  0  0  0  0  0  0  0  0  0  0  0
   52.7280   23.8546   45.2260 H   0  0  0  0  0  0  0  0  0  0  0  0
   54.2081   25.8543   45.0816 H   0  0  0  0  0  0  0  0  0  0  0  0
   55.3589   29.3872   43.5080 H   0  0  0  0  0  0  0  0  0  0  0  0
   56.4730   31.5532   42.9901 H   0  0  0  0  0  0  0  0  0  0  0  0
   58.2971   34.7240   48.1480 H   0  0  0  0  0  0  0  0  0  0  0  0
   59.9454   34.5180   49.9993 H   0  0  0  0  0  0  0  0  0  0  0  0
   61.2267   33.2065   45.3549 H   0  0  0  0  0  0  0  0  0  0  0  0
   59.0205   31.0718   46.4550 H   0  0  0  0  0  0  0  0  0  0  0  0
   57.9263   28.8909   46.9552 H   0  0  0  0  0  0  0  0  0  0  0  0
   57.3609   23.6710   47.0859 H   0  0  0  0  0  0  0  0  0  0  0  0
   55.8751   21.6792   47.2628 H   0  0  0  0  0  0  0  0  0  0  0  0
  1  2  1  0
  2  3  2  0
  2  4  1  0
  4  5  2  0
  5  6  1  0
  6  7  2  0
  7  8  1  0
  8  9  2  0
  8 10  2  0
  8 11  1  0
 11 12  1  0
 12 13  2  0
 13 14  1  0
 14 15  2  0
 15 16  1  0
 16 17  1  0
 17 18  2  0
 17 19  2  0
 17 20  1  0
 20 21  2  0
 21 22  1  0
 22 23  2  0
 23 24  1  0
 23 25  1  0
 25 26  1  0
 26 27  2  0
 26 28  1  0
 25 29  2  0
 15 30  1  0
 30 31  2  0
  7 32  1  0
 32 33  2  0
 33  4  1  0
 31 12  1  0
 29 20  1  0
  1 34  1  0
  5 35  1  0
  6 36  1  0
 13 37  1  0
 14 38  1  0
 21 39  1  0
 22 40  1  0
 29 41  1  0
 30 42  1  0
 31 43  1  0
 32 44  1  0
 33 45  1  0
M  CHG  5   1  -1  11  -1  16  -1  26   1  28  -1
M  END
>  <UniqueID>  (45) 
43

>  <SMILES>  (45) 
[NH-]C(=O)c1ccc(S(=O)(=O)[N-]c2ccc([N-]S(=O)(=O)c3ccc(Cl)c([N+](=O)[O-])c3)cc2)cc1

>  <Energy>  (45) 
56.73203396113525

>  <Genealogy>  (45) 
[NH-]C(=O)c1ccc(S(=O)(=O)[N-]c2ccc([N-]S(=O)(=O)c3ccc(Cl)c([N+](=O)[O-])c3)cc2)cc1 (protonated)
[NH-]C(=O)c1ccc(S(=O)(=O)[N-]c2ccc([N-]S(=O)(=O)c3ccc(Cl)c([N+](=O)[O-])c3)cc2)cc1 (3D coordinates assigned)
[NH-]C(=O)c1ccc(S(=O)(=O)[N-]c2ccc([N-]S(=O)(=O)c3ccc(Cl)c([N+](=O)[O-])c3)cc2)cc1 (optimized conformer: 56.73203396113525 kcal/mol)

>  <smiles>  (45) 
NC(=O)c1ccc(S(=O)(=O)Nc2ccc(NS(=O)(=O)c3ccc(Cl)c([N+](=O)[O-])c3)cc2)cc1

>  <score_type>  (45) 
oracle

>  <origin>  (45) 
adg

>  <m_score__min__energy>  (45) 
-15.42

>  <m_primary>  (45) 
energy

$$$$
45:0
     RDKit          3D

 42 44  0  0  0  0  0  0  0  0999 V2000
   60.6528   26.0119   47.7820 H   0  0  0  0  0  0  0  0  0  0  0  0
   59.7670   26.3820   47.2450 C   0  0  0  0  0  0  0  0  0  0  0  0
   58.5660   25.7730   47.4200 N   0  0  0  0  0  0  0  0  0  0  0  0
   57.4430   26.1950   46.7800 C   0  0  0  0  0  0  0  0  0  0  0  0
   56.2150   25.4870   47.0020 N   0  0  0  0  0  0  0  0  0  0  0  0
   55.2890   25.0720   45.9910 C   0  0  0  0  0  0  0  0  0  0  0  0
   54.3510   25.8340   45.6300 O   0  0  0  0  0  0  0  0  0  0  0  0
   55.4070   23.6880   45.4020 C   0  0  0  0  0  0  0  0  0  0  0  0
   54.6288   23.0919   45.9011 H   0  0  0  0  0  0  0  0  0  0  0  0
   56.8000   23.1040   45.6220 C   0  0  0  0  0  0  0  0  0  0  0  0
   57.2588   23.5414   46.5210 H   0  0  0  0  0  0  0  0  0  0  0  0
   56.7581   22.0148   45.7702 H   0  0  0  0  0  0  0  0  0  0  0  0
   57.6150   23.4640   44.3850 C   0  0  0  0  0  0  0  0  0  0  0  0
   58.2785   24.3137   44.6038 H   0  0  0  0  0  0  0  0  0  0  0  0
   58.2432   22.6182   44.0687 H   0  0  0  0  0  0  0  0  0  0  0  0
   56.6190   23.8440   43.2890 C   0  0  0  0  0  0  0  0  0  0  0  0
   56.7910   24.8811   42.9652 H   0  0  0  0  0  0  0  0  0  0  0  0
   56.7347   23.1926   42.4102 H   0  0  0  0  0  0  0  0  0  0  0  0
   55.2240   23.7070   43.8880 C   0  0  0  0  0  0  0  0  0  0  0  0
   54.5967   24.5604   43.5911 H   0  0  0  0  0  0  0  0  0  0  0  0
   54.7256   22.7923   43.5345 H   0  0  0  0  0  0  0  0  0  0  0  0
   57.5240   27.2700   45.8810 C   0  0  0  0  0  0  0  0  0  0  0  0
   56.6320   27.5922   45.3238 H   0  0  0  0  0  0  0  0  0  0  0  0
   58.7530   27.9350   45.6950 C   0  0  0  0  0  0  0  0  0  0  0  0
   58.8870   28.9510   44.8860 N   0  0  0  0  0  0  0  0  0  0  0  0
   58.5240   30.3130   45.1640 C   0  0  0  0  0  0  0  0  0  0  0  0
   59.4190   31.1020   45.9000 C   0  0  0  0  0  0  0  0  0  0  0  0
   60.3558   30.6617   46.2722 H   0  0  0  0  0  0  0  0  0  0  0  0
   59.1310   32.4410   46.1640 C   0  0  0  0  0  0  0  0  0  0  0  0
   59.8453   33.0552   46.7319 H   0  0  0  0  0  0  0  0  0  0  0  0
   57.9370   33.0020   45.7080 C   0  0  0  0  0  0  0  0  0  0  0  0
   57.7164   34.0609   45.9084 H   0  0  0  0  0  0  0  0  0  0  0  0
   57.0220   32.2220   44.9980 C   0  0  0  0  0  0  0  0  0  0  0  0
   56.0799   32.6697   44.6487 H   0  0  0  0  0  0  0  0  0  0  0  0
   57.2940   30.8680   44.7250 C   0  0  0  0  0  0  0  0  0  0  0  0
   56.2740   30.0470   44.0280 C   0  0  0  0  0  0  0  0  0  0  0  0
   55.1900   29.7650   44.6070 O   0  0  0  0  0  0  0  0  0  0  0  0
   56.4960   29.5730   42.6990 N   0  0  0  0  0  0  0  0  0  0  0  0
   55.7540   29.0280   42.2060 H   0  0  0  0  0  0  0  0  0  0  0  0
   57.4170   29.7000   42.2240 H   0  0  0  0  0  0  0  0  0  0  0  0
   59.8810   27.4760   46.3860 C   0  0  0  0  0  0  0  0  0  0  0  0
   60.8521   27.9752   46.2525 H   0  0  0  0  0  0  0  0  0  0  0  0
  1  2  1  0
  2  3  1  0
  3  4  1  0
  4  5  1  0
  5  6  1  0
  6  7  2  0
  6  8  1  0
  8  9  1  0
  8 10  1  0
 10 11  1  0
 10 12  1  0
 10 13  1  0
 13 14  1  0
 13 15  1  0
 13 16  1  0
 16 17  1  0
 16 18  1  0
 16 19  1  0
 19 20  1  0
 19 21  1  0
  4 22  2  0
 22 23  1  0
 22 24  1  0
 24 25  2  0
 25 26  1  0
 26 27  2  0
 27 28  1  0
 27 29  1  0
 29 30  1  0
 29 31  2  0
 31 32  1  0
 31 33  1  0
 33 34  1  0
 33 35  2  0
 35 36  1  0
 36 37  2  0
 36 38  1  0
 38 39  1  0
 38 40  1  0
 24 41  1  0
 41 42  1  0
 41  2  2  0
 19  8  1  0
 35 26  1  0
M  CHG  2   3  -1   5  -1
M  END
>  <UniqueID>  (46) 
44

>  <SMILES>  (46) 
NC(=O)c1ccccc1/N=c1/cc[n-]c([N-]C(=O)C2CCCC2)c1

>  <Energy>  (46) 
60.03355481435441

>  <Genealogy>  (46) 
NC(=O)c1ccccc1N=c1cc[n-]c([N-]C(=O)C2CCCC2)c1 (protonated)
NC(=O)c1ccccc1/N=c1/cc[n-]c([N-]C(=O)C2CCCC2)c1 (cis-trans isomerization)
NC(=O)c1ccccc1/N=c1/cc[n-]c([N-]C(=O)C2CCCC2)c1 (3D coordinates assigned)
NC(=O)c1ccccc1/N=c1/cc[n-]c([N-]C(=O)C2CCCC2)c1 (nonaromatic ring conformer: 60.03355481435441 kcal/mol)

>  <smiles>  (46) 
NC(=O)c1ccccc1N=c1cc[nH]c(NC(=O)C2CCCC2)c1

>  <score_type>  (46) 
oracle

>  <origin>  (46) 
adg

>  <m_score__min__energy>  (46) 
-12.470000000000001

>  <m_primary>  (46) 
energy

$$$$
46:0
     RDKit          3D

 41 45  0  0  0  0  0  0  0  0999 V2000
   59.0875   26.3733   47.0753 H   0  0  0  0  0  0  0  0  0  0  0  0
   58.1960   26.5740   46.4630 C   0  0  0  0  0  0  0  0  0  0  0  0
   57.0830   25.6120   46.5250 C   0  0  0  0  0  0  0  0  0  0  0  0
   57.2610   24.2900   46.7010 N   0  0  0  0  0  0  0  0  0  0  0  0
   56.0080   23.7900   46.6150 C   0  0  0  0  0  0  0  0  0  0  0  0
   55.7580   22.5640   46.7440 O   0  0  0  0  0  0  0  0  0  0  0  0
   55.0480   24.7060   46.3710 N   0  0  0  0  0  0  0  0  0  0  0  0
   55.7440   25.8530   46.3040 C   0  0  0  0  0  0  0  0  0  0  0  0
   55.1710   27.0800   45.9960 O   0  0  0  0  0  0  0  0  0  0  0  0
   58.1880   27.6800   45.7050 C   0  0  0  0  0  0  0  0  0  0  0  0
   57.9000   27.8170   44.3430 C   0  0  0  0  0  0  0  0  0  0  0  0
   57.6567   26.9934   43.6557 H   0  0  0  0  0  0  0  0  0  0  0  0
   57.9690   29.1270   44.0070 N   0  0  0  0  0  0  0  0  0  0  0  0
   57.7920   29.5360   43.0610 H   0  0  0  0  0  0  0  0  0  0  0  0
   58.2780   29.8110   45.0960 N   0  0  0  0  0  0  0  0  0  0  0  0
   58.4410   31.1510   45.2370 C   0  0  0  0  0  0  0  0  0  0  0  0
   58.3020   31.9400   44.2050 N   0  0  0  0  0  0  0  0  0  0  0  0
   57.9660   33.3710   44.0840 C   0  0  0  0  0  0  0  0  0  0  0  0
   57.6639   33.2777   43.0304 H   0  0  0  0  0  0  0  0  0  0  0  0
   57.3820   34.0540   45.3110 C   0  0  0  0  0  0  0  0  0  0  0  0
   56.6002   34.8191   45.1953 H   0  0  0  0  0  0  0  0  0  0  0  0
   56.9069   33.7101   46.2416 H   0  0  0  0  0  0  0  0  0  0  0  0
   58.8180   34.3540   44.8740 C   0  0  0  0  0  0  0  0  0  0  0  0
   59.0691   35.3347   44.4437 H   0  0  0  0  0  0  0  0  0  0  0  0
   59.8044   34.3154   45.3594 H   0  0  0  0  0  0  0  0  0  0  0  0
   58.7480   31.6200   46.4790 N   0  0  0  0  0  0  0  0  0  0  0  0
   58.8860   30.7660   47.5430 C   0  0  0  0  0  0  0  0  0  0  0  0
   59.1790   31.2210   48.7230 N   0  0  0  0  0  0  0  0  0  0  0  0
   59.6890   32.5660   48.9730 C   0  0  0  0  0  0  0  0  0  0  0  0
   58.9298   33.3066   48.6813 H   0  0  0  0  0  0  0  0  0  0  0  0
   59.9181   32.6795   50.0429 H   0  0  0  0  0  0  0  0  0  0  0  0
   60.9300   32.7820   48.1710 C   0  0  0  0  0  0  0  0  0  0  0  0
   62.3220   31.8440   48.2670 S   0  0  0  0  0  0  0  0  0  0  0  0
   63.2310   32.7600   47.1880 C   0  0  0  0  0  0  0  0  0  0  0  0
   64.2661   32.5517   46.8794 H   0  0  0  0  0  0  0  0  0  0  0  0
   62.4510   33.8250   46.7530 C   0  0  0  0  0  0  0  0  0  0  0  0
   62.8092   34.5814   46.0392 H   0  0  0  0  0  0  0  0  0  0  0  0
   61.1670   33.8440   47.3090 C   0  0  0  0  0  0  0  0  0  0  0  0
   60.4214   34.6213   47.0857 H   0  0  0  0  0  0  0  0  0  0  0  0
   58.7140   29.4240   47.3690 N   0  0  0  0  0  0  0  0  0  0  0  0
   58.4100   28.9760   46.1270 C   0  0  0  0  0  0  0  0  0  0  0  0
  1  2  1  0
  2  3  1  0
  3  4  1  0
  4  5  1  0
  5  6  2  0
  5  7  1  0
  7  8  1  0
  8  9  1  0
  2 10  2  3
 10 11  1  0
 11 12  1  0
 11 13  2  0
 13 14  1  0
 13 15  1  0
 15 16  1  0
 16 17  2  0
 17 18  1  0
 18 19  1  0
 18 20  1  0
 20 21  1  0
 20 22  1  0
 20 23  1  0
 23 24  1  0
 23 25  1  0
 16 26  1  0
 26 27  1  0
 27 28  2  3
 28 29  1  0
 29 30  1  0
 29 31  1  0
 29 32  1  0
 32 33  1  0
 33 34  1  0
 34 35  1  0
 34 36  2  0
 36 37  1  0
 36 38  1  0
 38 39  1  0
 27 40  1  0
 40 41  2  0
  8  3  2  0
 41 10  1  0
 41 15  1  0
 23 18  1  0
 38 32  2  0
M  CHG  5   4  -1   7  -1   9  -1  13   1  26  -1
M  END
>  <UniqueID>  (47) 
45

>  <SMILES>  (47) 
O=c1[n-]c([O-])c(C=c2c[nH+]n3/c(=N/C4CC4)[n-]c(=NCc4cccs4)nc23)[n-]1

>  <Energy>  (47) 
418.6755464528692

>  <Genealogy>  (47) 
O=c1[n-]c([O-])c(C=c2c[nH+]n3c(=NC4CC4)[n-]c(=NCc4cccs4)nc23)[n-]1 (protonated)
O=c1[n-]c([O-])c(C=c2c[nH+]n3/c(=N/C4CC4)[n-]c(=NCc4cccs4)nc23)[n-]1 (cis-trans isomerization)
O=c1[n-]c([O-])c(C=c2c[nH+]n3/c(=N/C4CC4)[n-]c(=NCc4cccs4)nc23)[n-]1 (3D coordinates assigned)
O=c1[n-]c([O-])c(C=c2c[nH+]n3/c(=N/C4CC4)[n-]c(=NCc4cccs4)nc23)[n-]1 (nonaromatic ring conformer: 418.6755464528692 kcal/mol)

>  <smiles>  (47) 
O=c1[nH]c(O)c(C=c2cnn3c(=NC4CC4)[nH]c(=NCc4cccs4)nc23)[nH]1

>  <score_type>  (47) 
oracle

>  <origin>  (47) 
adg

>  <m_score__min__energy>  (47) 
-15.9

>  <m_primary>  (47) 
energy

$$$$
47:0
     RDKit          3D

 35 37  0  0  0  0  0  0  0  0999 V2000
   57.4830   28.5820   44.8590 C   0  0  0  0  0  0  0  0  0  0  0  0
   58.0510   29.8380   45.3650 N   0  0  0  0  0  0  0  0  0  0  0  0
   59.2200   29.8100   46.0730 C   0  0  0  0  0  0  0  0  0  0  0  0
   59.7810   30.9860   46.5690 C   0  0  0  0  0  0  0  0  0  0  0  0
   59.1430   32.2090   46.3450 C   0  0  0  0  0  0  0  0  0  0  0  0
   59.7300   33.4240   46.8440 N   0  0  0  0  0  0  0  0  0  0  0  0
   60.7440   34.1190   46.0530 C   0  0  0  0  0  0  0  0  0  0  0  0
   62.1290   33.7540   46.5890 C   0  0  0  0  0  0  0  0  0  0  0  0
   62.1930   33.8180   48.1000 C   0  0  0  0  0  0  0  0  0  0  0  0
   63.4480   33.8480   48.7260 C   0  0  0  0  0  0  0  0  0  0  0  0
   63.5450   33.8470   50.1200 C   0  0  0  0  0  0  0  0  0  0  0  0
   62.3890   33.8060   50.9020 C   0  0  0  0  0  0  0  0  0  0  0  0
   61.1320   33.7640   50.2940 C   0  0  0  0  0  0  0  0  0  0  0  0
   61.0210   33.7520   48.8950 C   0  0  0  0  0  0  0  0  0  0  0  0
   59.6490   33.7610   48.2670 C   0  0  0  0  0  0  0  0  0  0  0  0
   57.9370   32.2330   45.6240 C   0  0  0  0  0  0  0  0  0  0  0  0
   57.2380   33.4790   45.4060 C   0  0  0  0  0  0  0  0  0  0  0  0
   56.6810   34.4780   45.2310 N   0  0  0  0  0  0  0  0  0  0  0  0
   57.4010   31.0250   45.1390 C   0  0  0  0  0  0  0  0  0  0  0  0
   56.3140   31.0390   44.4940 O   0  0  0  0  0  0  0  0  0  0  0  0
   57.1939   27.9427   45.7062 H   0  0  0  0  0  0  0  0  0  0  0  0
   56.5964   28.8013   44.2459 H   0  0  0  0  0  0  0  0  0  0  0  0
   58.2332   28.0611   44.2459 H   0  0  0  0  0  0  0  0  0  0  0  0
   59.7237   28.8489   46.2534 H   0  0  0  0  0  0  0  0  0  0  0  0
   60.7234   30.9513   47.1352 H   0  0  0  0  0  0  0  0  0  0  0  0
   60.6637   33.8130   44.9995 H   0  0  0  0  0  0  0  0  0  0  0  0
   60.5917   35.2060   46.1255 H   0  0  0  0  0  0  0  0  0  0  0  0
   62.3751   32.7314   46.2671 H   0  0  0  0  0  0  0  0  0  0  0  0
   62.8486   34.4838   46.1895 H   0  0  0  0  0  0  0  0  0  0  0  0
   64.3624   33.8725   48.1151 H   0  0  0  0  0  0  0  0  0  0  0  0
   64.5333   33.8786   50.6019 H   0  0  0  0  0  0  0  0  0  0  0  0
   62.4682   33.8068   51.9991 H   0  0  0  0  0  0  0  0  0  0  0  0
   60.2244   33.7402   50.9150 H   0  0  0  0  0  0  0  0  0  0  0  0
   59.0131   33.0227   48.7775 H   0  0  0  0  0  0  0  0  0  0  0  0
   59.2197   34.7687   48.3684 H   0  0  0  0  0  0  0  0  0  0  0  0
  1  2  1  0
  2  3  1  0
  3  4  2  0
  4  5  1  0
  5  6  1  0
  6  7  1  0
  7  8  1  0
  8  9  1  0
  9 10  2  0
 10 11  1  0
 11 12  2  0
 12 13  1  0
 13 14  2  0
 14 15  1  0
  5 16  2  0
 16 17  1  0
 17 18  3  0
 16 19  1  0
 19 20  2  0
 19  2  1  0
 15  6  1  0
 14  9  1  0
  1 21  1  0
  1 22  1  0
  1 23  1  0
  3 24  1  0
  4 25  1  0
  7 26  1  0
  7 27  1  0
  8 28  1  0
  8 29  1  0
 10 30  1  0
 11 31  1  0
 12 32  1  0
 13 33  1  0
 15 34  1  0
 15 35  1  0
M  END
>  <UniqueID>  (48) 
46

>  <SMILES>  (48) 
Cn1ccc(N2CCc3ccccc3C2)c(C#N)c1=O

>  <Energy>  (48) 
46.863317908379415

>  <Genealogy>  (48) 
Cn1ccc(N2CCc3ccccc3C2)c(C#N)c1=O (3D coordinates assigned)
Cn1ccc(N2CCc3ccccc3C2)c(C#N)c1=O (nonaromatic ring conformer: 46.863317908379415 kcal/mol)

>  <smiles>  (48) 
Cn1ccc(N2CCc3ccccc3C2)c(C#N)c1=O

>  <score_type>  (48) 
oracle

>  <origin>  (48) 
adg

>  <m_score__min__energy>  (48) 
-7.0800000000000001

>  <m_primary>  (48) 
energy

$$$$
48:0
     RDKit          3D

 75 79  0  0  0  0  0  0  0  0999 V2000
   53.9020   24.9240   45.5900 C   0  0  0  0  0  0  0  0  0  0  0  0
   54.6010   26.1130   45.9540 O   0  0  0  0  0  0  0  0  0  0  0  0
   55.9840   26.1900   46.1700 C   0  0  0  0  0  0  0  0  0  0  0  0
   56.7810   27.1820   45.5650 C   0  0  0  0  0  0  0  0  0  0  0  0
   58.1600   27.2440   45.8260 C   0  0  0  0  0  0  0  0  0  0  0  0
   59.0100   28.2410   45.1500 C   0  0  0  0  0  0  0  0  0  0  0  0
   59.2440   29.4280   45.7170 C   0  0  0  0  0  0  0  0  0  0  0  0
   58.3270   30.5710   45.5650 C   0  0  0  0  0  0  0  0  0  0  0  0
   57.0760   30.4100   45.5820 O   0  0  0  0  0  0  0  0  0  0  0  0
   58.8740   31.8810   45.3890 N   0  0  0  0  0  0  0  0  0  0  0  0
   59.7320   32.4380   46.3980 C   0  0  0  0  0  0  0  0  0  0  0  0
   60.9140   31.7710   46.7550 C   0  0  0  0  0  0  0  0  0  0  0  0
   61.6880   32.2340   47.8280 C   0  0  0  0  0  0  0  0  0  0  0  0
   61.2920   33.3780   48.5410 C   0  0  0  0  0  0  0  0  0  0  0  0
   62.1660   33.8760   49.9890 S   0  0  0  0  0  0  0  0  0  0  0  0
   62.6800   35.2760   49.7950 O   0  0  0  0  0  0  0  0  0  0  0  0
   63.3260   32.9540   50.2510 O   0  0  0  0  0  0  0  0  0  0  0  0
   61.1070   33.8410   51.3650 N   0  0  0  0  0  0  0  0  0  0  0  0
   59.9670   33.2190   51.3960 C   0  0  0  0  0  0  0  0  0  0  0  0
   58.9030   33.7270   52.0790 N   0  0  0  0  0  0  0  0  0  0  0  0
   57.7190   33.0640   52.1350 C   0  0  0  0  0  0  0  0  0  0  0  0
   57.5820   31.8360   51.4930 C   0  0  0  0  0  0  0  0  0  0  0  0
   58.6750   31.3310   50.7960 C   0  0  0  0  0  0  0  0  0  0  0  0
   59.8400   32.0240   50.7620 N   0  0  0  0  0  0  0  0  0  0  0  0
   60.1500   34.0850   48.1400 C   0  0  0  0  0  0  0  0  0  0  0  0
   59.3720   33.6170   47.0790 C   0  0  0  0  0  0  0  0  0  0  0  0
   58.7380   26.3250   46.7090 C   0  0  0  0  0  0  0  0  0  0  0  0
   57.9600   25.3170   47.2860 C   0  0  0  0  0  0  0  0  0  0  0  0
   56.5820   25.2330   47.0080 C   0  0  0  0  0  0  0  0  0  0  0  0
   55.7750   24.2110   47.5320 O   0  0  0  0  0  0  0  0  0  0  0  0
   55.7910   22.8550   47.0850 C   0  0  0  0  0  0  0  0  0  0  0  0
   56.8990   22.0730   47.7260 C   0  0  0  0  0  0  0  0  0  0  0  0
   57.4440   21.1420   47.0820 O   0  0  0  0  0  0  0  0  0  0  0  0
   57.3820   22.3820   49.0360 N   0  0  0  0  0  0  0  0  0  0  0  0
   56.8950   21.7960   50.2500 C   0  0  0  0  0  0  0  0  0  0  0  0
   55.5160   21.8370   50.5000 C   0  0  0  0  0  0  0  0  0  0  0  0
   54.9930   21.3010   51.6760 C   0  0  0  0  0  0  0  0  0  0  0  0
   55.8420   20.7170   52.6200 C   0  0  0  0  0  0  0  0  0  0  0  0
   55.1820   20.0690   54.1130 Cl  0  0  0  0  0  0  0  0  0  0  0  0
   57.2160   20.6390   52.3730 C   0  0  0  0  0  0  0  0  0  0  0  0
   57.7640   21.1770   51.1920 C   0  0  0  0  0  0  0  0  0  0  0  0
   59.2100   20.9980   50.9100 C   0  0  0  0  0  0  0  0  0  0  0  0
   59.5620   20.0860   50.1110 O   0  0  0  0  0  0  0  0  0  0  0  0
   60.2440   21.7200   51.6020 N   0  0  0  0  0  0  0  0  0  0  0  0
   60.2460   22.9250   52.1050 C   0  0  0  0  0  0  0  0  0  0  0  0
   59.1040   23.5290   52.6650 C   0  0  0  0  0  0  0  0  0  0  0  0
   59.1740   24.8480   53.1210 C   0  0  0  0  0  0  0  0  0  0  0  0
   60.3700   25.5630   53.0100 C   0  0  0  0  0  0  0  0  0  0  0  0
   60.4570   27.2300   53.5460 Cl  0  0  0  0  0  0  0  0  0  0  0  0
   61.4840   24.9400   52.4460 C   0  0  0  0  0  0  0  0  0  0  0  0
   61.3930   23.6530   52.0100 N   0  0  0  0  0  0  0  0  0  0  0  0
   53.5882   24.3902   46.4992 H   0  0  0  0  0  0  0  0  0  0  0  0
   53.0151   25.1876   44.9951 H   0  0  0  0  0  0  0  0  0  0  0  0
   54.5636   24.2773   44.9951 H   0  0  0  0  0  0  0  0  0  0  0  0
   56.3204   27.9127   44.8838 H   0  0  0  0  0  0  0  0  0  0  0  0
   59.4548   28.0060   44.1718 H   0  0  0  0  0  0  0  0  0  0  0  0
   60.1552   29.5566   46.3197 H   0  0  0  0  0  0  0  0  0  0  0  0
   58.9900   32.2030   44.4000 H   0  0  0  0  0  0  0  0  0  0  0  0
   61.2340   30.8823   46.1912 H   0  0  0  0  0  0  0  0  0  0  0  0
   62.6071   31.7007   48.1123 H   0  0  0  0  0  0  0  0  0  0  0  0
   56.8706   33.4959   52.6860 H   0  0  0  0  0  0  0  0  0  0  0  0
   56.6341   31.2796   51.5358 H   0  0  0  0  0  0  0  0  0  0  0  0
   58.5940   30.3676   50.2714 H   0  0  0  0  0  0  0  0  0  0  0  0
   59.8660   35.0105   48.6622 H   0  0  0  0  0  0  0  0  0  0  0  0
   58.4730   34.1723   46.7734 H   0  0  0  0  0  0  0  0  0  0  0  0
   59.8089   26.3961   46.9500 H   0  0  0  0  0  0  0  0  0  0  0  0
   58.4270   24.5850   47.9613 H   0  0  0  0  0  0  0  0  0  0  0  0
   54.8296   22.3846   47.3386 H   0  0  0  0  0  0  0  0  0  0  0  0
   55.9552   22.8542   45.9973 H   0  0  0  0  0  0  0  0  0  0  0  0
   54.8412   22.2958   49.7623 H   0  0  0  0  0  0  0  0  0  0  0  0
   53.9093   21.3379   51.8613 H   0  0  0  0  0  0  0  0  0  0  0  0
   57.8751   20.1531   53.1076 H   0  0  0  0  0  0  0  0  0  0  0  0
   58.1623   22.9659   52.7431 H   0  0  0  0  0  0  0  0  0  0  0  0
   58.2881   25.3236   53.5672 H   0  0  0  0  0  0  0  0  0  0  0  0
   62.4337   25.4873   52.3538 H   0  0  0  0  0  0  0  0  0  0  0  0
  1  2  1  0
  2  3  1  0
  3  4  2  0
  4  5  1  0
  5  6  1  0
  6  7  2  3
  7  8  1  0
  8  9  2  0
  8 10  1  0
 10 11  1  0
 11 12  2  0
 12 13  1  0
 13 14  2  0
 14 15  1  0
 15 16  2  0
 15 17  2  0
 15 18  1  0
 18 19  2  3
 19 20  1  0
 20 21  2  0
 21 22  1  0
 22 23  2  0
 23 24  1  0
 14 25  1  0
 25 26  2  0
  5 27  2  0
 27 28  1  0
 28 29  2  0
 29 30  1  0
 30 31  1  0
 31 32  1  0
 32 33  2  0
 32 34  1  0
 34 35  1  0
 35 36  2  0
 36 37  1  0
 37 38  2  0
 38 39  1  0
 38 40  1  0
 40 41  2  0
 41 42  1  0
 42 43  2  0
 42 44  1  0
 44 45  2  3
 45 46  1  0
 46 47  2  0
 47 48  1  0
 48 49  1  0
 48 50  2  0
 50 51  1  0
 29  3  1  0
 41 35  1  0
 51 45  1  0
 26 11  1  0
 24 19  1  0
  1 52  1  0
  1 53  1  0
  1 54  1  0
  4 55  1  0
  6 56  1  0
  7 57  1  0
 10 58  1  0
 12 59  1  0
 13 60  1  0
 21 61  1  0
 22 62  1  0
 23 63  1  0
 25 64  1  0
 26 65  1  0
 27 66  1  0
 28 67  1  0
 31 68  1  0
 31 69  1  0
 36 70  1  0
 37 71  1  0
 40 72  1  0
 46 73  1  0
 47 74  1  0
 50 75  1  0
M  CHG  3  24  -1  34  -1  51  -1
M  END
>  <UniqueID>  (49) 
47

>  <SMILES>  (49) 
COc1cc(C=CC(=O)Nc2ccc(S(=O)(=O)N=c3nccc[n-]3)cc2)ccc1OCC(=O)[N-]c1ccc(Cl)cc1C(=O)N=c1ccc(Cl)c[n-]1

>  <Energy>  (49) 
114.55804039291534

>  <Genealogy>  (49) 
COc1cc(C=CC(=O)Nc2ccc(S(=O)(=O)N=c3nccc[n-]3)cc2)ccc1OCC(=O)[N-]c1ccc(Cl)cc1C(=O)N=c1ccc(Cl)c[n-]1 (protonated)
COc1cc(C=CC(=O)Nc2ccc(S(=O)(=O)N=c3nccc[n-]3)cc2)ccc1OCC(=O)[N-]c1ccc(Cl)cc1C(=O)N=c1ccc(Cl)c[n-]1 (3D coordinates assigned)
COc1cc(C=CC(=O)Nc2ccc(S(=O)(=O)N=c3nccc[n-]3)cc2)ccc1OCC(=O)[N-]c1ccc(Cl)cc1C(=O)N=c1ccc(Cl)c[n-]1 (optimized conformer: 114.55804039291534 kcal/mol)

>  <smiles>  (49) 
COc1cc(C=CC(=O)Nc2ccc(S(=O)(=O)N=c3nccc[nH]3)cc2)ccc1OCC(=O)Nc1ccc(Cl)cc1C(=O)N=c1ccc(Cl)c[nH]1

>  <score_type>  (49) 
oracle

>  <origin>  (49) 
adg

>  <m_score__min__energy>  (49) 
-13.41

>  <m_primary>  (49) 
energy

$$$$
49:0
     RDKit          3D

 64 68  0  0  0  0  0  0  0  0999 V2000
   56.8060   30.8680   43.4630 O   0  0  0  0  0  0  0  0  0  0  0  0
   57.1660   30.9740   44.6540 N   0  0  0  0  0  0  0  0  0  0  0  0
   56.6880   30.0730   45.5760 O   0  0  0  0  0  0  0  0  0  0  0  0
   57.8000   32.1780   45.1050 C   0  0  0  0  0  0  0  0  0  0  0  0
   57.3950   33.3930   44.5290 C   0  0  0  0  0  0  0  0  0  0  0  0
   58.0180   34.5890   44.8760 C   0  0  0  0  0  0  0  0  0  0  0  0
   59.0580   34.5890   45.7990 C   0  0  0  0  0  0  0  0  0  0  0  0
   59.4620   33.3970   46.4010 C   0  0  0  0  0  0  0  0  0  0  0  0
   58.8270   32.1660   46.0960 C   0  0  0  0  0  0  0  0  0  0  0  0
   59.1810   30.9330   46.8140 N   0  0  1  0  0  0  0  0  0  0  0  0
   60.0200   30.0260   45.9840 C   0  0  0  0  0  0  0  0  0  0  0  0
   59.2730   28.7770   45.5570 C   0  0  0  0  0  0  0  0  0  0  0  0
   59.0900   28.4950   44.1920 C   0  0  0  0  0  0  0  0  0  0  0  0
   58.4660   27.3120   43.7880 C   0  0  0  0  0  0  0  0  0  0  0  0
   58.0050   26.3960   44.7420 C   0  0  0  0  0  0  0  0  0  0  0  0
   57.3870   25.2010   44.3430 C   0  0  0  0  0  0  0  0  0  0  0  0
   56.9330   24.2910   45.3020 C   0  0  0  0  0  0  0  0  0  0  0  0
   57.0900   24.5690   46.6650 C   0  0  0  0  0  0  0  0  0  0  0  0
   57.7020   25.7590   47.0750 C   0  0  0  0  0  0  0  0  0  0  0  0
   58.1650   26.6800   46.1210 C   0  0  0  0  0  0  0  0  0  0  0  0
   58.7930   27.8710   46.5190 C   0  0  0  0  0  0  0  0  0  0  0  0
   59.7380   31.1670   48.1860 C   0  0  0  0  0  0  0  0  0  0  0  0
   58.6810   31.2560   49.3200 C   0  0  0  0  0  0  0  0  0  0  0  0
   59.2880   31.0760   50.7310 C   0  0  0  0  0  0  0  0  0  0  0  0
   60.7300   31.3880   50.7830 N   0  0  0  0  0  0  0  0  0  0  0  0
   61.0180   32.8370   50.6730 C   0  0  0  0  0  0  0  0  0  0  0  0
   62.1150   33.0550   49.6700 C   0  0  0  0  0  0  0  0  0  0  0  0
   61.8010   33.4760   48.3670 C   0  0  0  0  0  0  0  0  0  0  0  0
   62.8190   33.6750   47.4280 C   0  0  0  0  0  0  0  0  0  0  0  0
   64.1540   33.4510   47.7800 C   0  0  0  0  0  0  0  0  0  0  0  0
   64.4720   33.0200   49.0710 C   0  0  0  0  0  0  0  0  0  0  0  0
   63.4570   32.8170   50.0140 C   0  0  0  0  0  0  0  0  0  0  0  0
   61.5360   30.5230   49.8850 C   0  0  0  0  0  0  0  0  0  0  0  0
   60.8250   30.1450   48.5680 C   0  0  0  0  0  0  0  0  0  0  0  0
   56.5758   33.4000   43.7949 H   0  0  0  0  0  0  0  0  0  0  0  0
   57.6874   35.5338   44.4199 H   0  0  0  0  0  0  0  0  0  0  0  0
   59.5637   35.5316   46.0553 H   0  0  0  0  0  0  0  0  0  0  0  0
   60.2890   33.4122   47.1262 H   0  0  0  0  0  0  0  0  0  0  0  0
   58.3000   30.3950   46.9670 H   0  0  0  0  0  0  0  0  0  0  0  0
   60.3435   30.5692   45.0839 H   0  0  0  0  0  0  0  0  0  0  0  0
   60.8787   29.7108   46.5950 H   0  0  0  0  0  0  0  0  0  0  0  0
   59.4412   29.2120   43.4353 H   0  0  0  0  0  0  0  0  0  0  0  0
   58.3363   27.0992   42.7166 H   0  0  0  0  0  0  0  0  0  0  0  0
   57.2595   24.9798   43.2730 H   0  0  0  0  0  0  0  0  0  0  0  0
   56.4513   23.3543   44.9849 H   0  0  0  0  0  0  0  0  0  0  0  0
   56.7312   23.8499   47.4161 H   0  0  0  0  0  0  0  0  0  0  0  0
   57.8207   25.9736   48.1473 H   0  0  0  0  0  0  0  0  0  0  0  0
   58.9101   28.0965   47.5893 H   0  0  0  0  0  0  0  0  0  0  0  0
   60.1918   32.1656   48.1033 H   0  0  0  0  0  0  0  0  0  0  0  0
   58.1967   32.2424   49.2705 H   0  0  0  0  0  0  0  0  0  0  0  0
   57.9637   30.4366   49.1647 H   0  0  0  0  0  0  0  0  0  0  0  0
   58.7596   31.7435   51.4276 H   0  0  0  0  0  0  0  0  0  0  0  0
   59.1703   30.0178   51.0071 H   0  0  0  0  0  0  0  0  0  0  0  0
   60.1114   33.3672   50.3459 H   0  0  0  0  0  0  0  0  0  0  0  0
   61.3352   33.2231   51.6529 H   0  0  0  0  0  0  0  0  0  0  0  0
   60.7522   33.6496   48.0843 H   0  0  0  0  0  0  0  0  0  0  0  0
   62.5687   34.0085   46.4101 H   0  0  0  0  0  0  0  0  0  0  0  0
   64.9528   33.6139   47.0415 H   0  0  0  0  0  0  0  0  0  0  0  0
   65.5215   32.8399   49.3467 H   0  0  0  0  0  0  0  0  0  0  0  0
   63.7105   32.4704   51.0267 H   0  0  0  0  0  0  0  0  0  0  0  0
   62.4654   31.0557   49.6351 H   0  0  0  0  0  0  0  0  0  0  0  0
   61.7172   29.5838   50.4283 H   0  0  0  0  0  0  0  0  0  0  0  0
   61.5713   30.1018   47.7611 H   0  0  0  0  0  0  0  0  0  0  0  0
   60.3385   29.1690   48.7122 H   0  0  0  0  0  0  0  0  0  0  0  0
  1  2  2  0
  2  3  1  0
  2  4  1  0
  4  5  2  0
  5  6  1  0
  6  7  2  0
  7  8  1  0
  8  9  2  0
  9 10  1  0
 10 11  1  0
 11 12  1  0
 12 13  2  0
 13 14  1  0
 14 15  2  0
 15 16  1  0
 16 17  2  0
 17 18  1  0
 18 19  2  0
 19 20  1  0
 20 21  2  0
 10 22  1  0
 22 23  1  0
 23 24  1  0
 24 25  1  0
 25 26  1  0
 26 27  1  0
 27 28  2  0
 28 29  1  0
 29 30  2  0
 30 31  1  0
 31 32  2  0
 25 33  1  0
 33 34  1  0
  9  4  1  0
 21 12  1  0
 34 22  1  0
 20 15  1  0
 32 27  1  0
  5 35  1  0
  6 36  1  0
  7 37  1  0
  8 38  1  0
 10 39  1  1
 11 40  1  0
 11 41  1  0
 13 42  1  0
 14 43  1  0
 16 44  1  0
 17 45  1  0
 18 46  1  0
 19 47  1  0
 21 48  1  0
 22 49  1  0
 23 50  1  0
 23 51  1  0
 24 52  1  0
 24 53  1  0
 26 54  1  0
 26 55  1  0
 28 56  1  0
 29 57  1  0
 30 58  1  0
 31 59  1  0
 32 60  1  0
 33 61  1  0
 33 62  1  0
 34 63  1  0
 34 64  1  0
M  CHG  3   2   1   3  -1  10   1
M  END
>  <UniqueID>  (50) 
48

>  <SMILES>  (50) 
O=[N+]([O-])c1ccccc1[N@@H+](Cc1ccc2ccccc2c1)C1CCN(Cc2ccccc2)CC1

>  <Energy>  (50) 
103.3048686523139

>  <Genealogy>  (50) 
O=[N+]([O-])c1ccccc1[NH+](Cc1ccc2ccccc2c1)C1CCN(Cc2ccccc2)CC1 (protonated)
O=[N+]([O-])c1ccccc1[N@@H+](Cc1ccc2ccccc2c1)C1CCN(Cc2ccccc2)CC1 (chirality)
O=[N+]([O-])c1ccccc1[N@@H+](Cc1ccc2ccccc2c1)C1CCN(Cc2ccccc2)CC1 (3D coordinates assigned)
O=[N+]([O-])c1ccccc1[N@@H+](Cc1ccc2ccccc2c1)C1CCN(Cc2ccccc2)CC1 (nonaromatic ring conformer: 103.3048686523139 kcal/mol)

>  <smiles>  (50) 
O=[N+]([O-])c1ccccc1N(Cc1ccc2ccccc2c1)C1CCN(Cc2ccccc2)CC1

>  <score_type>  (50) 
oracle

>  <origin>  (50) 
adg

>  <m_score__min__energy>  (50) 
-8.5500000000000007

>  <m_primary>  (50) 
energy

$$$$
50:0
     RDKit          3D

 40 42  0  0  0  0  0  0  0  0999 V2000
   55.1840   29.2890   44.8430 N   0  0  0  0  0  0  0  0  0  0  0  0
   56.5080   30.2280   44.2500 S   0  0  0  0  0  0  0  0  0  0  0  0
   56.5580   30.1290   42.7510 O   0  0  0  0  0  0  0  0  0  0  0  0
   56.3130   31.6690   44.6320 O   0  0  0  0  0  0  0  0  0  0  0  0
   58.0120   29.6260   44.9390 C   0  0  0  0  0  0  0  0  0  0  0  0
   58.9630   30.5220   45.4450 C   0  0  0  0  0  0  0  0  0  0  0  0
   60.1440   30.0430   46.0170 C   0  0  0  0  0  0  0  0  0  0  0  0
   60.3850   28.6680   46.0800 C   0  0  0  0  0  0  0  0  0  0  0  0
   59.4490   27.7630   45.5540 C   0  0  0  0  0  0  0  0  0  0  0  0
   59.6520   26.3470   45.6460 N   0  0  0  0  0  0  0  0  0  0  0  0
   58.6470   25.3670   45.9350 C   0  0  0  0  0  0  0  0  0  0  0  0
   58.7390   24.2330   45.3930 O   0  0  0  0  0  0  0  0  0  0  0  0
   57.6080   25.5930   47.0020 C   0  0  0  0  0  0  0  0  0  0  0  0
   56.4510   24.7190   46.8010 N   0  0  0  0  0  0  0  0  0  0  0  0
   56.3610   23.4090   47.1240 C   0  0  0  0  0  0  0  0  0  0  0  0
   57.3630   22.6920   47.7670 O   0  0  0  0  0  0  0  0  0  0  0  0
   55.1450   22.8970   46.7200 C   0  0  0  0  0  0  0  0  0  0  0  0
   54.4490   23.9400   46.1540 C   0  0  0  0  0  0  0  0  0  0  0  0
   55.2870   25.0360   46.1910 C   0  0  0  0  0  0  0  0  0  0  0  0
   54.9880   26.2930   45.6780 O   0  0  0  0  0  0  0  0  0  0  0  0
   53.1010   23.7990   45.5140 C   0  0  0  0  0  0  0  0  0  0  0  0
   52.4070   22.5140   46.0090 C   0  0  0  0  0  0  0  0  0  0  0  0
   53.3660   21.3030   45.9990 C   0  0  0  0  0  0  0  0  0  0  0  0
   54.5790   21.5250   46.9240 C   0  0  0  0  0  0  0  0  0  0  0  0
   58.2520   28.2460   45.0120 C   0  0  0  0  0  0  0  0  0  0  0  0
   55.5170   28.3010   44.9090 H   0  0  0  0  0  0  0  0  0  0  0  0
   58.7792   31.6052   45.3917 H   0  0  0  0  0  0  0  0  0  0  0  0
   60.8855   30.7494   46.4185 H   0  0  0  0  0  0  0  0  0  0  0  0
   61.3101   28.2937   46.5427 H   0  0  0  0  0  0  0  0  0  0  0  0
   58.0514   25.3821   47.9863 H   0  0  0  0  0  0  0  0  0  0  0  0
   57.2710   26.6387   46.9472 H   0  0  0  0  0  0  0  0  0  0  0  0
   52.4820   24.6699   45.7755 H   0  0  0  0  0  0  0  0  0  0  0  0
   53.2266   23.7409   44.4227 H   0  0  0  0  0  0  0  0  0  0  0  0
   52.0490   22.6760   47.0364 H   0  0  0  0  0  0  0  0  0  0  0  0
   51.5711   22.2935   45.3288 H   0  0  0  0  0  0  0  0  0  0  0  0
   52.8177   20.4119   46.3387 H   0  0  0  0  0  0  0  0  0  0  0  0
   53.7387   21.1708   44.9726 H   0  0  0  0  0  0  0  0  0  0  0  0
   54.2613   21.4157   47.9714 H   0  0  0  0  0  0  0  0  0  0  0  0
   55.3522   20.7800   46.6847 H   0  0  0  0  0  0  0  0  0  0  0  0
   57.4952   27.5391   44.6412 H   0  0  0  0  0  0  0  0  0  0  0  0
  1  2  1  0
  2  3  2  0
  2  4  2  0
  2  5  1  0
  5  6  2  0
  6  7  1  0
  7  8  2  0
  8  9  1  0
  9 10  1  0
 10 11  1  0
 11 12  2  0
 11 13  1  0
 13 14  1  0
 14 15  1  0
 15 16  1  0
 15 17  2  0
 17 18  1  0
 18 19  2  0
 19 20  1  0
 18 21  1  0
 21 22  1  0
 22 23  1  0
 23 24  1  0
  9 25  2  0
 25  5  1  0
 19 14  1  0
 24 17  1  0
  1 26  1  0
  6 27  1  0
  7 28  1  0
  8 29  1  0
 13 30  1  0
 13 31  1  0
 21 32  1  0
 21 33  1  0
 22 34  1  0
 22 35  1  0
 23 36  1  0
 23 37  1  0
 24 38  1  0
 24 39  1  0
 25 40  1  0
M  CHG  4   1  -1  10  -1  16  -1  20  -1
M  END
>  <UniqueID>  (51) 
49

>  <SMILES>  (51) 
[NH-]S(=O)(=O)c1cccc([N-]C(=O)Cn2c([O-])c3c(c2[O-])CCCC3)c1

>  <Energy>  (51) 
74.8621981890104

>  <Genealogy>  (51) 
[NH-]S(=O)(=O)c1cccc([N-]C(=O)Cn2c([O-])c3c(c2[O-])CCCC3)c1 (protonated)
[NH-]S(=O)(=O)c1cccc([N-]C(=O)Cn2c([O-])c3c(c2[O-])CCCC3)c1 (3D coordinates assigned)
[NH-]S(=O)(=O)c1cccc([N-]C(=O)Cn2c([O-])c3c(c2[O-])CCCC3)c1 (nonaromatic ring conformer: 74.8621981890104 kcal/mol)

>  <smiles>  (51) 
NS(=O)(=O)c1cccc(NC(=O)Cn2c(O)c3c(c2O)CCCC3)c1

>  <score_type>  (51) 
oracle

>  <origin>  (51) 
adg

>  <m_score__min__energy>  (51) 
-15.880000000000001

>  <m_primary>  (51) 
energy

$$$$
51:0
     RDKit          3D

 47 49  0  0  0  0  0  0  0  0999 V2000
   56.6389   26.0546   46.8447 H   0  0  0  0  0  0  0  0  0  0  0  0
   57.0110   27.0420   46.5340 C   0  0  0  0  0  0  0  0  0  0  0  0
   56.3740   27.7280   45.5590 N   0  0  0  0  0  0  0  0  0  0  0  0
   56.7580   28.9730   45.1790 C   0  0  0  0  0  0  0  0  0  0  0  0
   56.0760   29.5800   44.1260 C   0  0  0  0  0  0  0  0  0  0  0  0
   55.2400   29.0531   43.6427 H   0  0  0  0  0  0  0  0  0  0  0  0
   56.4410   30.8410   43.6820 C   0  0  0  0  0  0  0  0  0  0  0  0
   55.9357   31.2802   42.8092 H   0  0  0  0  0  0  0  0  0  0  0  0
   57.4460   31.5580   44.3350 C   0  0  0  0  0  0  0  0  0  0  0  0
   57.7480   32.8550   43.9020 C   0  0  0  0  0  0  0  0  0  0  0  0
   57.2483   33.2726   43.0154 H   0  0  0  0  0  0  0  0  0  0  0  0
   58.6830   33.6120   44.5990 C   0  0  0  0  0  0  0  0  0  0  0  0
   58.9442   34.6213   44.2482 H   0  0  0  0  0  0  0  0  0  0  0  0
   59.2730   33.1080   45.7100 N   0  0  0  0  0  0  0  0  0  0  0  0
   59.9350   33.7110   46.2480 H   0  0  0  0  0  0  0  0  0  0  0  0
   59.0120   31.8490   46.1560 C   0  0  0  0  0  0  0  0  0  0  0  0
   59.4913   31.4908   47.0790 H   0  0  0  0  0  0  0  0  0  0  0  0
   58.1310   30.9920   45.4480 C   0  0  0  0  0  0  0  0  0  0  0  0
   57.8470   29.6310   45.8250 C   0  0  0  0  0  0  0  0  0  0  0  0
   58.5980   28.8620   46.7710 C   0  0  0  0  0  0  0  0  0  0  0  0
   59.7380   29.3040   47.2280 N   0  0  0  0  0  0  0  0  0  0  0  0
   59.9860   29.9450   48.5170 C   0  0  0  0  0  0  0  0  0  0  0  0
   59.8677   29.2064   49.3235 H   0  0  0  0  0  0  0  0  0  0  0  0
   59.2676   30.7648   48.6651 H   0  0  0  0  0  0  0  0  0  0  0  0
   61.4110   30.5020   48.5390 C   0  0  0  0  0  0  0  0  0  0  0  0
   62.1158   29.6686   48.6758 H   0  0  0  0  0  0  0  0  0  0  0  0
   61.4810   31.2228   49.3670 H   0  0  0  0  0  0  0  0  0  0  0  0
   61.7610   31.2380   47.2400 C   0  0  0  0  0  0  0  0  0  0  0  0
   61.1541   30.8317   46.4175 H   0  0  0  0  0  0  0  0  0  0  0  0
   62.8302   31.0957   47.0242 H   0  0  0  0  0  0  0  0  0  0  0  0
   61.4850   32.6900   47.3820 N   0  0  0  0  0  0  0  0  0  0  0  0
   61.1200   33.0900   48.7580 C   0  0  0  0  0  0  0  0  0  0  0  0
   62.0218   33.4397   49.2818 H   0  0  0  0  0  0  0  0  0  0  0  0
   60.6879   32.2190   49.2724 H   0  0  0  0  0  0  0  0  0  0  0  0
   60.0840   34.2100   48.7470 C   0  0  0  0  0  0  0  0  0  0  0  0
   59.8300   34.4846   49.7814 H   0  0  0  0  0  0  0  0  0  0  0  0
   60.4969   35.0863   48.2258 H   0  0  0  0  0  0  0  0  0  0  0  0
   59.1782   33.8665   48.2258 H   0  0  0  0  0  0  0  0  0  0  0  0
   62.5570   33.5380   46.8100 C   0  0  0  0  0  0  0  0  0  0  0  0
   62.7404   33.2150   45.7746 H   0  0  0  0  0  0  0  0  0  0  0  0
   62.2092   34.5799   46.8686 H   0  0  0  0  0  0  0  0  0  0  0  0
   63.8820   33.4620   47.5840 C   0  0  0  0  0  0  0  0  0  0  0  0
   63.6766   33.4738   48.6646 H   0  0  0  0  0  0  0  0  0  0  0  0
   64.4076   32.5322   47.3208 H   0  0  0  0  0  0  0  0  0  0  0  0
   64.5105   34.3256   47.3208 H   0  0  0  0  0  0  0  0  0  0  0  0
   58.1340   27.5830   47.1430 C   0  0  0  0  0  0  0  0  0  0  0  0
   58.6647   27.0122   47.9192 H   0  0  0  0  0  0  0  0  0  0  0  0
  1  2  1  0
  2  3  1  0
  3  4  1  0
  4  5  2  0
  5  6  1  0
  5  7  1  0
  7  8  1  0
  7  9  2  0
  9 10  1  0
 10 11  1  0
 10 12  2  0
 12 13  1  0
 12 14  1  0
 14 15  1  0
 14 16  2  0
 16 17  1  0
 16 18  1  0
 18 19  2  0
 19 20  1  0
 20 21  2  0
 21 22  1  0
 22 23  1  0
 22 24  1  0
 22 25  1  0
 25 26  1  0
 25 27  1  0
 25 28  1  0
 28 29  1  0
 28 30  1  0
 28 31  1  0
 31 32  1  0
 32 33  1  0
 32 34  1  0
 32 35  1  0
 35 36  1  0
 35 37  1  0
 35 38  1  0
 31 39  1  0
 39 40  1  0
 39 41  1  0
 39 42  1  0
 42 43  1  0
 42 44  1  0
 42 45  1  0
 20 46  1  0
 46 47  1  0
 46  2  2  0
 19  4  1  0
 18  9  1  0
M  CHG  2   3  -1  14   1
M  END
>  <UniqueID>  (52) 
50

>  <SMILES>  (52) 
CCN(CC)CCC/N=c1\cc[n-]c2ccc3cc[nH+]cc3c12

>  <Energy>  (52) 
66.30237764666508

>  <Genealogy>  (52) 
CCN(CC)CCCN=c1cc[n-]c2ccc3cc[nH+]cc3c12 (protonated)
CCN(CC)CCC/N=c1\cc[n-]c2ccc3cc[nH+]cc3c12 (cis-trans isomerization)
CCN(CC)CCC/N=c1\cc[n-]c2ccc3cc[nH+]cc3c12 (3D coordinates assigned)
CCN(CC)CCC/N=c1\cc[n-]c2ccc3cc[nH+]cc3c12 (optimized conformer: 66.30237764666508 kcal/mol)

>  <smiles>  (52) 
CCN(CC)CCCN=c1cc[nH]c2ccc3ccncc3c12

>  <score_type>  (52) 
oracle

>  <origin>  (52) 
adg

>  <m_score__min__energy>  (52) 
-6.71

>  <m_primary>  (52) 
energy

$$$$
52:0
     RDKit          3D

 28 29  0  0  0  0  0  0  0  0999 V2000
   55.8970   26.3410   46.1570 C   0  0  0  0  0  0  0  0  0  0  0  0
   56.4940   27.5560   45.6140 N   0  0  0  0  0  0  0  0  0  0  0  0
   55.7990   28.6200   45.2450 N   0  0  0  0  0  0  0  0  0  0  0  0
   56.6740   29.5120   44.7320 C   0  0  0  0  0  0  0  0  0  0  0  0
   56.2710   30.8240   44.1300 C   0  0  0  0  0  0  0  0  0  0  0  0
   57.4900   31.6290   43.6610 C   0  0  0  0  0  0  0  0  0  0  0  0
   57.8930   32.6740   44.6710 C   0  0  0  0  0  0  0  0  0  0  0  0
   58.7980   33.6900   44.3200 C   0  0  0  0  0  0  0  0  0  0  0  0
   59.2020   34.6320   45.2700 C   0  0  0  0  0  0  0  0  0  0  0  0
   58.7100   34.5650   46.5770 C   0  0  0  0  0  0  0  0  0  0  0  0
   57.8150   33.5530   46.9350 C   0  0  0  0  0  0  0  0  0  0  0  0
   57.4100   32.6070   45.9880 C   0  0  0  0  0  0  0  0  0  0  0  0
   57.9590   28.9910   44.7470 C   0  0  0  0  0  0  0  0  0  0  0  0
   57.7900   27.7490   45.3110 C   0  0  0  0  0  0  0  0  0  0  0  0
   58.7020   26.9030   45.5040 O   0  0  0  0  0  0  0  0  0  0  0  0
   55.9172   26.3821   47.2560 H   0  0  0  0  0  0  0  0  0  0  0  0
   54.8557   26.2584   45.8122 H   0  0  0  0  0  0  0  0  0  0  0  0
   56.4679   25.4662   45.8122 H   0  0  0  0  0  0  0  0  0  0  0  0
   55.6152   30.6345   43.2675 H   0  0  0  0  0  0  0  0  0  0  0  0
   55.7479   31.4096   44.9004 H   0  0  0  0  0  0  0  0  0  0  0  0
   58.3333   30.9401   43.5055 H   0  0  0  0  0  0  0  0  0  0  0  0
   57.2217   32.1425   42.7260 H   0  0  0  0  0  0  0  0  0  0  0  0
   59.1899   33.7441   43.2936 H   0  0  0  0  0  0  0  0  0  0  0  0
   59.9081   35.4273   44.9891 H   0  0  0  0  0  0  0  0  0  0  0  0
   59.0272   35.3084   47.3232 H   0  0  0  0  0  0  0  0  0  0  0  0
   57.4284   33.5005   47.9635 H   0  0  0  0  0  0  0  0  0  0  0  0
   56.7109   31.8079   46.2756 H   0  0  0  0  0  0  0  0  0  0  0  0
   58.8894   29.4589   44.3929 H   0  0  0  0  0  0  0  0  0  0  0  0
  1  2  1  0
  2  3  1  0
  3  4  1  0
  4  5  1  0
  5  6  1  0
  6  7  1  0
  7  8  2  0
  8  9  1  0
  9 10  2  0
 10 11  1  0
 11 12  2  0
  4 13  2  0
 13 14  1  0
 14 15  2  0
 14  2  1  0
 12  7  1  0
  1 16  1  0
  1 17  1  0
  1 18  1  0
  5 19  1  0
  5 20  1  0
  6 21  1  0
  6 22  1  0
  8 23  1  0
  9 24  1  0
 10 25  1  0
 11 26  1  0
 12 27  1  0
 13 28  1  0
M  CHG  1   3  -1
M  END
>  <UniqueID>  (53) 
51

>  <SMILES>  (53) 
Cn1[n-]c(CCc2ccccc2)cc1=O

>  <Energy>  (53) 
54.55108883151196

>  <Genealogy>  (53) 
Cn1[n-]c(CCc2ccccc2)cc1=O (protonated)
Cn1[n-]c(CCc2ccccc2)cc1=O (3D coordinates assigned)
Cn1[n-]c(CCc2ccccc2)cc1=O (optimized conformer: 54.55108883151196 kcal/mol)

>  <smiles>  (53) 
Cn1[nH]c(CCc2ccccc2)cc1=O

>  <score_type>  (53) 
oracle

>  <origin>  (53) 
adg

>  <m_score__min__energy>  (53) 
-7.79

>  <m_primary>  (53) 
energy

$$$$
53:0
     RDKit          3D

 37 38  0  0  0  0  0  0  0  0999 V2000
   59.0000   29.8980   47.0120 C   0  0  0  0  0  0  0  0  0  0  0  0
   59.1930   30.3410   45.5650 C   0  0  0  0  0  0  0  0  0  0  0  0
   58.0390   31.1310   45.1120 N   0  0  0  0  0  0  0  0  0  0  0  0
   57.2490   30.6720   43.9540 C   0  0  0  0  0  0  0  0  0  0  0  0
   56.1680   29.7290   44.3830 C   0  0  0  0  0  0  0  0  0  0  0  0
   55.0670   29.7230   43.7700 O   0  0  0  0  0  0  0  0  0  0  0  0
   56.3690   28.8950   45.5320 N   0  0  0  0  0  0  0  0  0  0  0  0
   56.9310   27.5750   45.5280 C   0  0  0  0  0  0  0  0  0  0  0  0
   58.2880   27.3500   45.2280 C   0  0  0  0  0  0  0  0  0  0  0  0
   58.8120   26.0550   45.2660 C   0  0  0  0  0  0  0  0  0  0  0  0
   57.9960   24.9780   45.6140 C   0  0  0  0  0  0  0  0  0  0  0  0
   56.6510   25.1920   45.9360 C   0  0  0  0  0  0  0  0  0  0  0  0
   55.6430   23.8260   46.3880 Cl  0  0  0  0  0  0  0  0  0  0  0  0
   56.1200   26.4910   45.9000 C   0  0  0  0  0  0  0  0  0  0  0  0
   54.7860   26.7040   46.2280 O   0  0  0  0  0  0  0  0  0  0  0  0
   57.7710   32.4090   45.7360 C   0  0  0  0  0  0  0  0  0  0  0  0
   56.6640   32.9790   45.5410 O   0  0  0  0  0  0  0  0  0  0  0  0
   58.7500   33.0580   46.6300 C   0  0  0  0  0  0  0  0  0  0  0  0
   58.6010   32.9750   48.0210 C   0  0  0  0  0  0  0  0  0  0  0  0
   59.5300   33.5890   48.8630 C   0  0  0  0  0  0  0  0  0  0  0  0
   60.5950   34.2990   48.3020 C   0  0  0  0  0  0  0  0  0  0  0  0
   61.4430   34.8590   49.0450 O   0  0  0  0  0  0  0  0  0  0  0  0
   60.7150   34.3910   46.9510 N   0  0  0  0  0  0  0  0  0  0  0  0
   59.8250   33.7960   46.1110 C   0  0  0  0  0  0  0  0  0  0  0  0
   59.3465   30.6933   47.6883 H   0  0  0  0  0  0  0  0  0  0  0  0
   57.9338   29.6993   47.1955 H   0  0  0  0  0  0  0  0  0  0  0  0
   59.5806   28.9819   47.1955 H   0  0  0  0  0  0  0  0  0  0  0  0
   60.1031   30.9545   45.4922 H   0  0  0  0  0  0  0  0  0  0  0  0
   59.2863   29.4488   44.9284 H   0  0  0  0  0  0  0  0  0  0  0  0
   56.7922   31.5433   43.4619 H   0  0  0  0  0  0  0  0  0  0  0  0
   57.9190   30.1448   43.2589 H   0  0  0  0  0  0  0  0  0  0  0  0
   58.9382   28.1967   44.9627 H   0  0  0  0  0  0  0  0  0  0  0  0
   59.8707   25.8843   45.0209 H   0  0  0  0  0  0  0  0  0  0  0  0
   58.4105   23.9593   45.6353 H   0  0  0  0  0  0  0  0  0  0  0  0
   57.7505   32.4250   48.4502 H   0  0  0  0  0  0  0  0  0  0  0  0
   59.4249   33.5148   49.9555 H   0  0  0  0  0  0  0  0  0  0  0  0
   59.9485   33.8937   45.0223 H   0  0  0  0  0  0  0  0  0  0  0  0
  1  2  1  0
  2  3  1  0
  3  4  1  0
  4  5  1  0
  5  6  2  0
  5  7  1  0
  7  8  1  0
  8  9  2  0
  9 10  1  0
 10 11  2  0
 11 12  1  0
 12 13  1  0
 12 14  2  0
 14 15  1  0
  3 16  1  0
 16 17  2  0
 16 18  1  0
 18 19  1  0
 19 20  2  0
 20 21  1  0
 21 22  2  0
 21 23  1  0
 23 24  1  0
 14  8  1  0
 24 18  2  0
  1 25  1  0
  1 26  1  0
  1 27  1  0
  2 28  1  0
  2 29  1  0
  4 30  1  0
  4 31  1  0
  9 32  1  0
 10 33  1  0
 11 34  1  0
 19 35  1  0
 20 36  1  0
 24 37  1  0
M  CHG  3   7  -1  15  -1  23  -1
M  END
>  <UniqueID>  (54) 
52

>  <SMILES>  (54) 
CCN(CC(=O)[N-]c1cccc(Cl)c1[O-])C(=O)c1ccc(=O)[n-]c1

>  <Energy>  (54) 
41.881993388467784

>  <Genealogy>  (54) 
CCN(CC(=O)[N-]c1cccc(Cl)c1[O-])C(=O)c1ccc(=O)[n-]c1 (protonated)
CCN(CC(=O)[N-]c1cccc(Cl)c1[O-])C(=O)c1ccc(=O)[n-]c1 (3D coordinates assigned)
CCN(CC(=O)[N-]c1cccc(Cl)c1[O-])C(=O)c1ccc(=O)[n-]c1 (optimized conformer: 41.881993388467784 kcal/mol)

>  <smiles>  (54) 
CCN(CC(=O)Nc1cccc(Cl)c1O)C(=O)c1ccc(=O)[nH]c1

>  <score_type>  (54) 
oracle

>  <origin>  (54) 
adg

>  <m_score__min__energy>  (54) 
-14.59

>  <m_primary>  (54) 
energy

$$$$
54:0
     RDKit          3D

 30 32  0  0  0  0  0  0  0  0999 V2000
   57.9310   28.1330   45.1220 O   0  0  0  0  0  0  0  0  0  0  0  0
   58.3340   29.3140   45.3020 C   0  0  0  0  0  0  0  0  0  0  0  0
   59.7900   29.5720   45.5750 C   0  0  0  0  0  0  0  0  0  0  0  0
   59.9540   30.8190   46.3960 C   0  0  0  0  0  0  0  0  0  0  0  0
   60.7630   30.7850   47.4210 N   0  0  0  0  0  0  0  0  0  0  0  0
   61.6970   31.7920   47.8410 C   0  0  0  0  0  0  0  0  0  0  0  0
   61.3600   32.6290   48.9130 C   0  0  0  0  0  0  0  0  0  0  0  0
   62.2340   33.6450   49.3160 C   0  0  0  0  0  0  0  0  0  0  0  0
   63.4370   33.8440   48.6340 C   0  0  0  0  0  0  0  0  0  0  0  0
   63.7640   33.0370   47.5420 C   0  0  0  0  0  0  0  0  0  0  0  0
   62.8930   32.0210   47.1360 C   0  0  0  0  0  0  0  0  0  0  0  0
   59.1570   32.0170   46.0000 C   0  0  0  0  0  0  0  0  0  0  0  0
   59.6700   33.3230   46.1060 C   0  0  0  0  0  0  0  0  0  0  0  0
   58.8880   34.4210   45.7400 C   0  0  0  0  0  0  0  0  0  0  0  0
   57.6010   34.2280   45.2350 C   0  0  0  0  0  0  0  0  0  0  0  0
   57.1010   32.9350   45.0690 C   0  0  0  0  0  0  0  0  0  0  0  0
   57.8800   31.8210   45.4260 C   0  0  0  0  0  0  0  0  0  0  0  0
   57.3950   30.4430   45.1780 C   0  0  0  0  0  0  0  0  0  0  0  0
   56.1960   30.2320   44.8500 O   0  0  0  0  0  0  0  0  0  0  0  0
   60.2130   28.7179   46.1241 H   0  0  0  0  0  0  0  0  0  0  0  0
   60.3157   29.7025   44.6176 H   0  0  0  0  0  0  0  0  0  0  0  0
   60.4049   32.4870   49.4398 H   0  0  0  0  0  0  0  0  0  0  0  0
   61.9737   34.2873   50.1702 H   0  0  0  0  0  0  0  0  0  0  0  0
   64.1273   34.6370   48.9574 H   0  0  0  0  0  0  0  0  0  0  0  0
   64.7075   33.2007   47.0008 H   0  0  0  0  0  0  0  0  0  0  0  0
   63.1434   31.3995   46.2636 H   0  0  0  0  0  0  0  0  0  0  0  0
   60.6927   33.4802   46.4792 H   0  0  0  0  0  0  0  0  0  0  0  0
   59.2872   35.4401   45.8500 H   0  0  0  0  0  0  0  0  0  0  0  0
   56.9800   35.0957   44.9675 H   0  0  0  0  0  0  0  0  0  0  0  0
   56.0920   32.7874   44.6566 H   0  0  0  0  0  0  0  0  0  0  0  0
  1  2  2  0
  2  3  1  0
  3  4  1  0
  4  5  2  3
  5  6  1  0
  6  7  2  0
  7  8  1  0
  8  9  2  0
  9 10  1  0
 10 11  2  0
  4 12  1  0
 12 13  2  0
 13 14  1  0
 14 15  2  0
 15 16  1  0
 16 17  2  0
 17 18  1  0
 18 19  2  0
 18  2  1  0
 11  6  1  0
 17 12  1  0
  3 20  1  0
  3 21  1  0
  7 22  1  0
  8 23  1  0
  9 24  1  0
 10 25  1  0
 11 26  1  0
 13 27  1  0
 14 28  1  0
 15 29  1  0
 16 30  1  0
M  END
>  <UniqueID>  (55) 
53

>  <SMILES>  (55) 
O=C1CC(=Nc2ccccc2)c2ccccc2C1=O

>  <Energy>  (55) 
46.61290338647372

>  <Genealogy>  (55) 
O=C1CC(=Nc2ccccc2)c2ccccc2C1=O (3D coordinates assigned)
O=C1CC(=Nc2ccccc2)c2ccccc2C1=O (nonaromatic ring conformer: 46.61290338647372 kcal/mol)

>  <smiles>  (55) 
O=C1CC(=Nc2ccccc2)c2ccccc2C1=O

>  <score_type>  (55) 
oracle

>  <origin>  (55) 
adg

>  <m_score__min__energy>  (55) 
-7.3600000000000003

>  <m_primary>  (55) 
energy

$$$$
55:0
     RDKit          3D

 48 51  0  0  0  0  0  0  0  0999 V2000
   58.7659   31.3922   45.8919 H   0  0  0  0  0  0  0  0  0  0  0  0
   57.9920   30.9320   45.2600 C   0  0  0  0  0  0  0  0  0  0  0  0
   57.4130   29.7650   45.6430 N   0  0  0  0  0  0  0  0  0  0  0  0
   56.4840   29.1300   44.8740 C   0  0  0  0  0  0  0  0  0  0  0  0
   55.9040   28.0370   45.2760 N   0  0  0  0  0  0  0  0  0  0  0  0
   56.5420   26.8370   45.7480 C   0  0  0  0  0  0  0  0  0  0  0  0
   55.7460   25.7090   45.9910 C   0  0  0  0  0  0  0  0  0  0  0  0
   54.6590   25.7615   45.8309 H   0  0  0  0  0  0  0  0  0  0  0  0
   56.3270   24.5170   46.4360 C   0  0  0  0  0  0  0  0  0  0  0  0
   55.6942   23.6415   46.6436 H   0  0  0  0  0  0  0  0  0  0  0  0
   57.7090   24.4370   46.6170 C   0  0  0  0  0  0  0  0  0  0  0  0
   58.1629   23.5017   46.9764 H   0  0  0  0  0  0  0  0  0  0  0  0
   58.5160   25.5440   46.3420 C   0  0  0  0  0  0  0  0  0  0  0  0
   59.6059   25.4761   46.4741 H   0  0  0  0  0  0  0  0  0  0  0  0
   57.9390   26.7380   45.8990 C   0  0  0  0  0  0  0  0  0  0  0  0
   58.5781   27.6029   45.6676 H   0  0  0  0  0  0  0  0  0  0  0  0
   56.1070   29.6930   43.6510 C   0  0  0  0  0  0  0  0  0  0  0  0
   55.3666   29.1870   43.0140 H   0  0  0  0  0  0  0  0  0  0  0  0
   56.6750   30.9000   43.2430 C   0  0  0  0  0  0  0  0  0  0  0  0
   56.3906   31.3405   42.2760 H   0  0  0  0  0  0  0  0  0  0  0  0
   57.6080   31.5540   44.0620 C   0  0  0  0  0  0  0  0  0  0  0  0
   58.2090   32.8810   43.6570 C   0  0  0  0  0  0  0  0  0  0  0  0
   57.7863   33.1710   42.6837 H   0  0  0  0  0  0  0  0  0  0  0  0
   59.2993   32.7409   43.6164 H   0  0  0  0  0  0  0  0  0  0  0  0
   57.9490   33.9720   44.6230 N   0  0  0  0  0  0  0  0  0  0  0  0
   59.0400   34.9560   44.7990 C   0  0  0  0  0  0  0  0  0  0  0  0
   58.5954   35.9313   45.0462 H   0  0  0  0  0  0  0  0  0  0  0  0
   59.6073   34.9892   43.8572 H   0  0  0  0  0  0  0  0  0  0  0  0
   60.0280   34.5690   45.9180 C   0  0  0  0  0  0  0  0  0  0  0  0
   60.4453   35.4863   46.3589 H   0  0  0  0  0  0  0  0  0  0  0  0
   60.8224   33.9491   45.4768 H   0  0  0  0  0  0  0  0  0  0  0  0
   59.3700   33.7900   46.9730 N   0  0  0  0  0  0  0  0  0  0  0  0
   60.0500   32.7070   47.6460 C   0  0  0  0  0  0  0  0  0  0  0  0
   59.3840   31.7230   48.0670 O   0  0  0  0  0  0  0  0  0  0  0  0
   61.5140   32.7010   47.8520 C   0  0  0  0  0  0  0  0  0  0  0  0
   62.6700   33.4620   46.8930 S   0  0  0  0  0  0  0  0  0  0  0  0
   64.0040   33.0340   47.8200 C   0  0  0  0  0  0  0  0  0  0  0  0
   65.0508   33.2920   47.6019 H   0  0  0  0  0  0  0  0  0  0  0  0
   63.5570   32.2990   48.9080 C   0  0  0  0  0  0  0  0  0  0  0  0
   64.2299   31.8967   49.6796 H   0  0  0  0  0  0  0  0  0  0  0  0
   62.1680   32.1170   48.9320 C   0  0  0  0  0  0  0  0  0  0  0  0
   61.6453   31.5658   49.7276 H   0  0  0  0  0  0  0  0  0  0  0  0
   57.9300   33.9800   47.1410 C   0  0  0  0  0  0  0  0  0  0  0  0
   57.7234   35.0367   47.3659 H   0  0  0  0  0  0  0  0  0  0  0  0
   57.5715   33.3518   47.9698 H   0  0  0  0  0  0  0  0  0  0  0  0
   57.2080   33.5820   45.8490 C   0  0  0  0  0  0  0  0  0  0  0  0
   56.2232   34.0718   45.8333 H   0  0  0  0  0  0  0  0  0  0  0  0
   57.1231   32.4853   45.8456 H   0  0  0  0  0  0  0  0  0  0  0  0
  1  2  1  0
  2  3  1  0
  3  4  1  0
  4  5  2  0
  5  6  1  0
  6  7  2  0
  7  8  1  0
  7  9  1  0
  9 10  1  0
  9 11  2  0
 11 12  1  0
 11 13  1  0
 13 14  1  0
 13 15  2  0
 15 16  1  0
  4 17  1  0
 17 18  1  0
 17 19  2  0
 19 20  1  0
 19 21  1  0
 21 22  1  0
 22 23  1  0
 22 24  1  0
 22 25  1  0
 25 26  1  0
 26 27  1  0
 26 28  1  0
 26 29  1  0
 29 30  1  0
 29 31  1  0
 29 32  1  0
 32 33  1  0
 33 34  2  0
 33 35  1  0
 35 36  1  0
 36 37  1  0
 37 38  1  0
 37 39  2  0
 39 40  1  0
 39 41  1  0
 41 42  1  0
 32 43  1  0
 43 44  1  0
 43 45  1  0
 43 46  1  0
 46 47  1  0
 46 48  1  0
 21  2  2  0
 46 25  1  0
 15  6  1  0
 41 35  2  0
M  CHG  1   3  -1
M  END
>  <UniqueID>  (56) 
54

>  <SMILES>  (56) 
O=C(c1cccs1)N1CCN(Cc2cc/c(=N/c3ccccc3)[n-]c2)CC1

>  <Energy>  (56) 
96.11258899449773

>  <Genealogy>  (56) 
O=C(c1cccs1)N1CCN(Cc2ccc(=Nc3ccccc3)[n-]c2)CC1 (protonated)
O=C(c1cccs1)N1CCN(Cc2cc/c(=N/c3ccccc3)[n-]c2)CC1 (cis-trans isomerization)
O=C(c1cccs1)N1CCN(Cc2cc/c(=N/c3ccccc3)[n-]c2)CC1 (3D coordinates assigned)
O=C(c1cccs1)N1CCN(Cc2cc/c(=N/c3ccccc3)[n-]c2)CC1 (nonaromatic ring conformer: 96.11258899449773 kcal/mol)

>  <smiles>  (56) 
O=C(c1cccs1)N1CCN(Cc2ccc(=Nc3ccccc3)[nH]c2)CC1

>  <score_type>  (56) 
oracle

>  <origin>  (56) 
adg

>  <m_score__min__energy>  (56) 
-10.74

>  <m_primary>  (56) 
energy

$$$$
56:0
     RDKit          3D

 37 39  0  0  0  0  0  0  0  0999 V2000
   61.1060   28.7880   44.8500 C   0  0  0  0  0  0  0  0  0  0  0  0
   60.0930   29.2370   45.8560 C   0  0  0  0  0  0  0  0  0  0  0  0
   60.4480   30.0360   46.7630 O   0  0  0  0  0  0  0  0  0  0  0  0
   58.6750   28.8280   45.7240 C   0  0  0  0  0  0  0  0  0  0  0  0
   58.3580   27.5370   46.0090 N   0  0  0  0  0  0  0  0  0  0  0  0
   57.0970   27.0510   45.8550 C   0  0  0  0  0  0  0  0  0  0  0  0
   56.8230   25.8120   46.1440 N   0  0  0  0  0  0  0  0  0  0  0  0
   57.7700   24.7020   46.0580 C   0  0  0  0  0  0  0  0  0  0  0  0
   57.3790   23.7480   44.9590 C   0  0  0  0  0  0  0  0  0  0  0  0
   58.0370   22.5140   44.8290 C   0  0  0  0  0  0  0  0  0  0  0  0
   57.6870   21.6350   43.7990 C   0  0  0  0  0  0  0  0  0  0  0  0
   56.6790   21.9800   42.8940 C   0  0  0  0  0  0  0  0  0  0  0  0
   56.0160   23.2040   43.0210 C   0  0  0  0  0  0  0  0  0  0  0  0
   56.3610   24.0860   44.0500 C   0  0  0  0  0  0  0  0  0  0  0  0
   56.1150   27.8670   45.3930 N   0  0  0  0  0  0  0  0  0  0  0  0
   56.3640   29.1720   45.1030 C   0  0  0  0  0  0  0  0  0  0  0  0
   55.4170   29.9060   44.7070 O   0  0  0  0  0  0  0  0  0  0  0  0
   57.6570   29.7020   45.2690 C   0  0  0  0  0  0  0  0  0  0  0  0
   57.8990   31.1460   45.0410 C   0  0  0  0  0  0  0  0  0  0  0  0
   58.1160   32.1020   46.0270 C   0  0  0  0  0  0  0  0  0  0  0  0
   58.2780   33.3950   45.5160 C   0  0  0  0  0  0  0  0  0  0  0  0
   58.1820   33.4650   44.1320 C   0  0  0  0  0  0  0  0  0  0  0  0
   57.8910   31.9160   43.5440 S   0  0  0  0  0  0  0  0  0  0  0  0
   61.9915   28.3955   45.3714 H   0  0  0  0  0  0  0  0  0  0  0  0
   60.6716   27.9981   44.2196 H   0  0  0  0  0  0  0  0  0  0  0  0
   61.3995   29.6403   44.2196 H   0  0  0  0  0  0  0  0  0  0  0  0
   58.7740   25.1001   45.8495 H   0  0  0  0  0  0  0  0  0  0  0  0
   57.7640   24.1589   47.0146 H   0  0  0  0  0  0  0  0  0  0  0  0
   58.8301   22.2380   45.5395 H   0  0  0  0  0  0  0  0  0  0  0  0
   58.2060   20.6701   43.7008 H   0  0  0  0  0  0  0  0  0  0  0  0
   56.4077   21.2887   42.0825 H   0  0  0  0  0  0  0  0  0  0  0  0
   55.2212   23.4740   42.3101 H   0  0  0  0  0  0  0  0  0  0  0  0
   55.8345   25.0468   44.1485 H   0  0  0  0  0  0  0  0  0  0  0  0
   55.1460   27.4910   45.2720 H   0  0  0  0  0  0  0  0  0  0  0  0
   58.1563   31.8659   47.1006 H   0  0  0  0  0  0  0  0  0  0  0  0
   58.4640   34.2737   46.1511 H   0  0  0  0  0  0  0  0  0  0  0  0
   58.2795   34.3769   43.5247 H   0  0  0  0  0  0  0  0  0  0  0  0
  1  2  1  0
  2  3  2  0
  2  4  1  0
  4  5  1  0
  5  6  1  0
  6  7  2  3
  7  8  1  0
  8  9  1  0
  9 10  2  0
 10 11  1  0
 11 12  2  0
 12 13  1  0
 13 14  2  0
  6 15  1  0
 15 16  1  0
 16 17  2  0
 16 18  1  0
 18 19  1  0
 19 20  2  0
 20 21  1  0
 21 22  2  0
 22 23  1  0
 18  4  2  0
 23 19  1  0
 14  9  1  0
  1 24  1  0
  1 25  1  0
  1 26  1  0
  8 27  1  0
  8 28  1  0
 10 29  1  0
 11 30  1  0
 12 31  1  0
 13 32  1  0
 14 33  1  0
 15 34  1  0
 20 35  1  0
 21 36  1  0
 22 37  1  0
M  CHG  1   5  -1
M  END
>  <UniqueID>  (57) 
55

>  <SMILES>  (57) 
CC(=O)c1[n-]c(=NCc2ccccc2)[nH]c(=O)c1-c1cccs1

>  <Energy>  (57) 
73.28586931431846

>  <Genealogy>  (57) 
CC(=O)c1[n-]c(=NCc2ccccc2)[nH]c(=O)c1-c1cccs1 (protonated)
CC(=O)c1[n-]c(=NCc2ccccc2)[nH]c(=O)c1-c1cccs1 (3D coordinates assigned)
CC(=O)c1[n-]c(=NCc2ccccc2)[nH]c(=O)c1-c1cccs1 (optimized conformer: 73.28586931431846 kcal/mol)

>  <smiles>  (57) 
CC(=O)c1[nH]c(=NCc2ccccc2)[nH]c(=O)c1-c1cccs1

>  <score_type>  (57) 
oracle

>  <origin>  (57) 
adg

>  <m_score__min__energy>  (57) 
-9.5299999999999994

>  <m_primary>  (57) 
energy

$$$$
57:0
     RDKit          3D

 39 40  0  0  0  0  0  0  0  0999 V2000
   55.1250   29.3610   44.8640 N   0  0  0  0  0  0  0  0  0  0  0  0
   56.5880   29.6770   44.0000 S   0  0  0  0  0  0  0  0  0  0  0  0
   56.2490   29.9460   42.5600 O   0  0  0  0  0  0  0  0  0  0  0  0
   57.4940   28.4810   44.0860 O   0  0  0  0  0  0  0  0  0  0  0  0
   57.3990   31.0760   44.6950 C   0  0  0  0  0  0  0  0  0  0  0  0
   57.6800   32.1980   43.9040 C   0  0  0  0  0  0  0  0  0  0  0  0
   58.3330   33.3030   44.4560 C   0  0  0  0  0  0  0  0  0  0  0  0
   58.7100   33.3020   45.8080 C   0  0  0  0  0  0  0  0  0  0  0  0
   59.4450   34.4780   46.3930 C   0  0  0  0  0  0  0  0  0  0  0  0
   60.9570   34.2270   46.3850 C   0  0  0  0  0  0  0  0  0  0  0  0
   61.3960   33.6580   47.6580 N   0  0  0  0  0  0  0  0  0  0  0  0
   62.5900   32.8690   47.7520 C   0  0  0  0  0  0  0  0  0  0  0  0
   63.2800   32.6340   46.7230 O   0  0  0  0  0  0  0  0  0  0  0  0
   63.0030   32.2920   49.0670 C   0  0  0  0  0  0  0  0  0  0  0  0
   61.8330   32.1550   49.9230 N   0  0  0  0  0  0  0  0  0  0  0  0
   60.5500   31.7670   49.4250 C   0  0  0  0  0  0  0  0  0  0  0  0
   59.5370   32.4830   49.6470 O   0  0  0  0  0  0  0  0  0  0  0  0
   60.4080   30.5290   48.6500 C   0  0  0  0  0  0  0  0  0  0  0  0
   60.0550   29.2910   49.1530 C   0  0  0  0  0  0  0  0  0  0  0  0
   60.0510   28.4370   48.0700 C   0  0  0  0  0  0  0  0  0  0  0  0
   60.3990   29.2080   46.9820 C   0  0  0  0  0  0  0  0  0  0  0  0
   60.5650   28.5840   45.1870 Br  0  0  0  0  0  0  0  0  0  0  0  0
   60.6070   30.4500   47.3540 O   0  0  0  0  0  0  0  0  0  0  0  0
   58.4470   32.1690   46.5930 C   0  0  0  0  0  0  0  0  0  0  0  0
   57.7930   31.0630   46.0400 C   0  0  0  0  0  0  0  0  0  0  0  0
   55.3530   28.6620   45.6070 H   0  0  0  0  0  0  0  0  0  0  0  0
   57.3853   32.2089   42.8443 H   0  0  0  0  0  0  0  0  0  0  0  0
   58.5529   34.1786   43.8275 H   0  0  0  0  0  0  0  0  0  0  0  0
   59.2243   35.3755   45.7965 H   0  0  0  0  0  0  0  0  0  0  0  0
   59.1147   34.6215   47.4324 H   0  0  0  0  0  0  0  0  0  0  0  0
   61.2018   33.5262   45.5733 H   0  0  0  0  0  0  0  0  0  0  0  0
   61.4726   35.1864   46.2314 H   0  0  0  0  0  0  0  0  0  0  0  0
   60.8350   33.8190   48.5260 H   0  0  0  0  0  0  0  0  0  0  0  0
   63.4589   31.3037   48.9074 H   0  0  0  0  0  0  0  0  0  0  0  0
   63.7343   32.9584   49.5476 H   0  0  0  0  0  0  0  0  0  0  0  0
   59.8252   29.0393   50.1989 H   0  0  0  0  0  0  0  0  0  0  0  0
   59.8180   27.3620   48.0739 H   0  0  0  0  0  0  0  0  0  0  0  0
   58.7566   32.1505   47.6484 H   0  0  0  0  0  0  0  0  0  0  0  0
   57.5872   30.1800   46.6629 H   0  0  0  0  0  0  0  0  0  0  0  0
  1  2  1  0
  2  3  2  0
  2  4  2  0
  2  5  1  0
  5  6  2  0
  6  7  1  0
  7  8  2  0
  8  9  1  0
  9 10  1  0
 10 11  1  0
 11 12  1  0
 12 13  2  0
 12 14  1  0
 14 15  1  0
 15 16  1  0
 16 17  2  0
 16 18  1  0
 18 19  2  0
 19 20  1  0
 20 21  2  0
 21 22  1  0
 21 23  1  0
  8 24  1  0
 24 25  2  0
 25  5  1  0
 23 18  1  0
  1 26  1  0
  6 27  1  0
  7 28  1  0
  9 29  1  0
  9 30  1  0
 10 31  1  0
 10 32  1  0
 11 33  1  0
 14 34  1  0
 14 35  1  0
 19 36  1  0
 20 37  1  0
 24 38  1  0
 25 39  1  0
M  CHG  2   1  -1  15  -1
M  END
>  <UniqueID>  (58) 
56

>  <SMILES>  (58) 
[NH-]S(=O)(=O)c1ccc(CCNC(=O)C[N-]C(=O)c2ccc(Br)o2)cc1

>  <Energy>  (58) 
54.9375129796506

>  <Genealogy>  (58) 
[NH-]S(=O)(=O)c1ccc(CCNC(=O)C[N-]C(=O)c2ccc(Br)o2)cc1 (protonated)
[NH-]S(=O)(=O)c1ccc(CCNC(=O)C[N-]C(=O)c2ccc(Br)o2)cc1 (3D coordinates assigned)
[NH-]S(=O)(=O)c1ccc(CCNC(=O)C[N-]C(=O)c2ccc(Br)o2)cc1 (optimized conformer: 54.9375129796506 kcal/mol)

>  <smiles>  (58) 
NS(=O)(=O)c1ccc(CCNC(=O)CNC(=O)c2ccc(Br)o2)cc1

>  <score_type>  (58) 
oracle

>  <origin>  (58) 
adg

>  <m_score__min__energy>  (58) 
-11.220000000000001

>  <m_primary>  (58) 
energy

$$$$
58:0
     RDKit          3D

 51 53  0  0  0  0  0  0  0  0999 V2000
   57.3490   31.9640   41.9940 C   0  0  0  0  0  0  0  0  0  0  0  0
   57.3840   30.9680   43.1160 C   0  0  0  0  0  0  0  0  0  0  0  0
   56.2190   30.2940   43.4920 C   0  0  0  0  0  0  0  0  0  0  0  0
   56.2590   29.3340   44.5030 C   0  0  0  0  0  0  0  0  0  0  0  0
   57.4630   29.0080   45.1470 C   0  0  0  0  0  0  0  0  0  0  0  0
   57.4360   27.9510   46.1890 C   0  0  0  0  0  0  0  0  0  0  0  0
   56.9390   26.8180   45.9450 O   0  0  0  0  0  0  0  0  0  0  0  0
   57.9960   28.2130   47.4830 N   0  0  0  0  0  0  0  0  0  0  0  0
   59.3550   27.8410   47.8590 C   0  0  0  0  0  0  0  0  0  0  0  0
   59.8630   28.7160   49.0130 C   0  0  0  0  0  0  0  0  0  0  0  0
   59.4160   30.1520   48.8810 C   0  0  0  0  0  0  0  0  0  0  0  0
   58.6420   30.6210   49.7570 O   0  0  0  0  0  0  0  0  0  0  0  0
   59.9200   31.0440   47.8740 N   0  0  0  0  0  0  0  0  0  0  0  0
   61.1620   31.7620   47.8590 C   0  0  0  0  0  0  0  0  0  0  0  0
   62.3080   31.2270   47.2480 C   0  0  0  0  0  0  0  0  0  0  0  0
   63.4950   31.9650   47.2020 C   0  0  0  0  0  0  0  0  0  0  0  0
   63.5420   33.2490   47.7480 C   0  0  0  0  0  0  0  0  0  0  0  0
   62.3950   33.8120   48.3080 C   0  0  0  0  0  0  0  0  0  0  0  0
   61.1990   33.0830   48.3500 C   0  0  0  0  0  0  0  0  0  0  0  0
   59.7040   33.8940   48.9340 S   0  0  0  0  0  0  0  0  0  0  0  0
   58.9380   33.9590   47.3150 C   0  0  0  0  0  0  0  0  0  0  0  0
   59.5880   34.6090   46.2580 C   0  0  0  0  0  0  0  0  0  0  0  0
   59.0130   34.6170   44.9820 C   0  0  0  0  0  0  0  0  0  0  0  0
   57.7890   33.9780   44.7630 C   0  0  0  0  0  0  0  0  0  0  0  0
   57.1410   33.3260   45.8170 C   0  0  0  0  0  0  0  0  0  0  0  0
   57.7180   33.3090   47.0900 C   0  0  0  0  0  0  0  0  0  0  0  0
   58.6550   29.6750   44.7520 C   0  0  0  0  0  0  0  0  0  0  0  0
   59.9960   29.3520   45.3610 C   0  0  0  0  0  0  0  0  0  0  0  0
   58.5960   30.6510   43.7400 C   0  0  0  0  0  0  0  0  0  0  0  0
   57.3132   32.9823   42.4086 H   0  0  0  0  0  0  0  0  0  0  0  0
   58.2517   31.8514   41.3755 H   0  0  0  0  0  0  0  0  0  0  0  0
   56.4565   31.7884   41.3755 H   0  0  0  0  0  0  0  0  0  0  0  0
   55.2675   30.5213   42.9891 H   0  0  0  0  0  0  0  0  0  0  0  0
   55.3312   28.8236   44.8008 H   0  0  0  0  0  0  0  0  0  0  0  0
   59.3657   26.7872   48.1743 H   0  0  0  0  0  0  0  0  0  0  0  0
   60.0130   27.9888   46.9900 H   0  0  0  0  0  0  0  0  0  0  0  0
   59.4779   28.3110   49.9604 H   0  0  0  0  0  0  0  0  0  0  0  0
   60.9626   28.7015   48.9883 H   0  0  0  0  0  0  0  0  0  0  0  0
   62.2716   30.2217   46.8031 H   0  0  0  0  0  0  0  0  0  0  0  0
   64.3926   31.5333   46.7351 H   0  0  0  0  0  0  0  0  0  0  0  0
   64.4839   33.8171   47.7366 H   0  0  0  0  0  0  0  0  0  0  0  0
   62.4296   34.8321   48.7182 H   0  0  0  0  0  0  0  0  0  0  0  0
   60.5503   35.1131   46.4308 H   0  0  0  0  0  0  0  0  0  0  0  0
   59.5241   35.1260   44.1515 H   0  0  0  0  0  0  0  0  0  0  0  0
   57.3353   33.9880   43.7610 H   0  0  0  0  0  0  0  0  0  0  0  0
   56.1765   32.8262   45.6441 H   0  0  0  0  0  0  0  0  0  0  0  0
   57.2138   32.7850   47.9153 H   0  0  0  0  0  0  0  0  0  0  0  0
   59.9149   29.3715   46.4578 H   0  0  0  0  0  0  0  0  0  0  0  0
   60.3154   28.3512   45.0347 H   0  0  0  0  0  0  0  0  0  0  0  0
   60.7360   30.0976   45.0347 H   0  0  0  0  0  0  0  0  0  0  0  0
   59.5155   31.1722   43.4350 H   0  0  0  0  0  0  0  0  0  0  0  0
  1  2  1  0
  2  3  2  0
  3  4  1  0
  4  5  2  0
  5  6  1  0
  6  7  2  0
  6  8  1  0
  8  9  1  0
  9 10  1  0
 10 11  1  0
 11 12  2  0
 11 13  1  0
 13 14  1  0
 14 15  2  0
 15 16  1  0
 16 17  2  0
 17 18  1  0
 18 19  2  0
 19 20  1  0
 20 21  1  0
 21 22  2  0
 22 23  1  0
 23 24  2  0
 24 25  1  0
 25 26  2  0
  5 27  1  0
 27 28  1  0
 27 29  2  0
 29  2  1  0
 19 14  1  0
 26 21  1  0
  1 30  1  0
  1 31  1  0
  1 32  1  0
  3 33  1  0
  4 34  1  0
  9 35  1  0
  9 36  1  0
 10 37  1  0
 10 38  1  0
 15 39  1  0
 16 40  1  0
 17 41  1  0
 18 42  1  0
 22 43  1  0
 23 44  1  0
 24 45  1  0
 25 46  1  0
 26 47  1  0
 28 48  1  0
 28 49  1  0
 28 50  1  0
 29 51  1  0
M  CHG  2   8  -1  13  -1
M  END
>  <UniqueID>  (59) 
57

>  <SMILES>  (59) 
Cc1ccc(C(=O)[N-]CCC(=O)[N-]c2ccccc2Sc2ccccc2)c(C)c1

>  <Energy>  (59) 
45.92811660803941

>  <Genealogy>  (59) 
Cc1ccc(C(=O)[N-]CCC(=O)[N-]c2ccccc2Sc2ccccc2)c(C)c1 (protonated)
Cc1ccc(C(=O)[N-]CCC(=O)[N-]c2ccccc2Sc2ccccc2)c(C)c1 (3D coordinates assigned)
Cc1ccc(C(=O)[N-]CCC(=O)[N-]c2ccccc2Sc2ccccc2)c(C)c1 (optimized conformer: 45.92811660803941 kcal/mol)

>  <smiles>  (59) 
Cc1ccc(C(=O)NCCC(=O)Nc2ccccc2Sc2ccccc2)c(C)c1

>  <score_type>  (59) 
oracle

>  <origin>  (59) 
adg

>  <m_score__min__energy>  (59) 
-12.359999999999999

>  <m_primary>  (59) 
energy

$$$$
59:0
     RDKit          3D

 39 40  0  0  0  0  0  0  0  0999 V2000
   58.1180   32.7140   43.2530 C   0  0  0  0  0  0  0  0  0  0  0  0
   57.8900   33.5880   44.3550 O   0  0  0  0  0  0  0  0  0  0  0  0
   58.6190   33.5590   45.5540 C   0  0  0  0  0  0  0  0  0  0  0  0
   60.0010   33.8180   45.6040 C   0  0  0  0  0  0  0  0  0  0  0  0
   60.6800   33.7890   46.8270 C   0  0  0  0  0  0  0  0  0  0  0  0
   59.9970   33.4830   48.0130 C   0  0  0  0  0  0  0  0  0  0  0  0
   60.7250   33.4690   49.2950 C   0  0  0  0  0  0  0  0  0  0  0  0
   61.3400   34.5060   49.6580 O   0  0  0  0  0  0  0  0  0  0  0  0
   60.8080   32.2940   50.1190 N   0  0  0  0  0  0  0  0  0  0  0  0
   61.6060   31.0980   49.8450 C   0  0  0  0  0  0  0  0  0  0  0  0
   60.7460   29.9010   49.5660 C   0  0  0  0  0  0  0  0  0  0  0  0
   61.0520   28.7950   50.0850 O   0  0  0  0  0  0  0  0  0  0  0  0
   59.5830   30.0230   48.7360 N   0  0  0  0  0  0  0  0  0  0  0  0
   59.5150   29.7610   47.3270 C   0  0  0  0  0  0  0  0  0  0  0  0
   60.6260   29.2910   46.6030 C   0  0  0  0  0  0  0  0  0  0  0  0
   60.5180   29.0470   45.2300 C   0  0  0  0  0  0  0  0  0  0  0  0
   59.3080   29.2750   44.5720 C   0  0  0  0  0  0  0  0  0  0  0  0
   58.2020   29.7720   45.2800 C   0  0  0  0  0  0  0  0  0  0  0  0
   56.6720   30.0480   44.4540 S   0  0  0  0  0  0  0  0  0  0  0  0
   55.5220   28.8590   44.9570 N   0  0  0  0  0  0  0  0  0  0  0  0
   56.1500   31.4200   44.7890 O   0  0  0  0  0  0  0  0  0  0  0  0
   56.8750   29.9580   42.9670 O   0  0  0  0  0  0  0  0  0  0  0  0
   58.3140   30.0200   46.6550 C   0  0  0  0  0  0  0  0  0  0  0  0
   58.6170   33.2340   47.9640 C   0  0  0  0  0  0  0  0  0  0  0  0
   57.9370   33.2680   46.7420 C   0  0  0  0  0  0  0  0  0  0  0  0
   58.3791   31.7130   43.6268 H   0  0  0  0  0  0  0  0  0  0  0  0
   57.2064   32.6504   42.6407 H   0  0  0  0  0  0  0  0  0  0  0  0
   58.9445   33.1039   42.6407 H   0  0  0  0  0  0  0  0  0  0  0  0
   60.5498   34.0442   44.6779 H   0  0  0  0  0  0  0  0  0  0  0  0
   61.7576   34.0078   46.8585 H   0  0  0  0  0  0  0  0  0  0  0  0
   62.2435   31.2893   48.9692 H   0  0  0  0  0  0  0  0  0  0  0  0
   62.2112   30.8812   50.7376 H   0  0  0  0  0  0  0  0  0  0  0  0
   61.5819   29.1150   47.1180 H   0  0  0  0  0  0  0  0  0  0  0  0
   61.3874   28.6751   44.6680 H   0  0  0  0  0  0  0  0  0  0  0  0
   59.2208   29.0647   43.4958 H   0  0  0  0  0  0  0  0  0  0  0  0
   54.6430   29.3690   45.2110 H   0  0  0  0  0  0  0  0  0  0  0  0
   57.4529   30.4207   47.2099 H   0  0  0  0  0  0  0  0  0  0  0  0
   58.0675   33.0111   48.8905 H   0  0  0  0  0  0  0  0  0  0  0  0
   56.8564   33.0642   46.7140 H   0  0  0  0  0  0  0  0  0  0  0  0
  1  2  1  0
  2  3  1  0
  3  4  2  0
  4  5  1  0
  5  6  2  0
  6  7  1  0
  7  8  2  0
  7  9  1  0
  9 10  1  0
 10 11  1  0
 11 12  2  0
 11 13  1  0
 13 14  1  0
 14 15  2  0
 15 16  1  0
 16 17  2  0
 17 18  1  0
 18 19  1  0
 19 20  1  0
 19 21  2  0
 19 22  2  0
 18 23  2  0
  6 24  1  0
 24 25  2  0
 25  3  1  0
 23 14  1  0
  1 26  1  0
  1 27  1  0
  1 28  1  0
  4 29  1  0
  5 30  1  0
 10 31  1  0
 10 32  1  0
 15 33  1  0
 16 34  1  0
 17 35  1  0
 20 36  1  0
 23 37  1  0
 24 38  1  0
 25 39  1  0
M  CHG  3   9  -1  13  -1  20  -1
M  END
>  <UniqueID>  (60) 
58

>  <SMILES>  (60) 
COc1ccc(C(=O)[N-]CC(=O)[N-]c2cccc(S([NH-])(=O)=O)c2)cc1

>  <Energy>  (60) 
44.42465046746594

>  <Genealogy>  (60) 
COc1ccc(C(=O)[N-]CC(=O)[N-]c2cccc(S([NH-])(=O)=O)c2)cc1 (protonated)
COc1ccc(C(=O)[N-]CC(=O)[N-]c2cccc(S([NH-])(=O)=O)c2)cc1 (3D coordinates assigned)
COc1ccc(C(=O)[N-]CC(=O)[N-]c2cccc(S([NH-])(=O)=O)c2)cc1 (optimized conformer: 44.42465046746594 kcal/mol)

>  <smiles>  (60) 
COc1ccc(C(=O)NCC(=O)Nc2cccc(S(N)(=O)=O)c2)cc1

>  <score_type>  (60) 
oracle

>  <origin>  (60) 
adg

>  <m_score__min__energy>  (60) 
-13.35

>  <m_primary>  (60) 
energy

$$$$
60:0
     RDKit          3D

 57 60  0  0  0  0  0  0  0  0999 V2000
   63.6750   34.2030   51.6650 C   0  0  0  0  0  0  0  0  0  0  0  0
   62.4940   34.2150   50.8700 O   0  0  0  0  0  0  0  0  0  0  0  0
   62.4590   33.9290   49.4970 C   0  0  0  0  0  0  0  0  0  0  0  0
   63.6720   33.7880   48.8170 C   0  0  0  0  0  0  0  0  0  0  0  0
   63.6880   33.5100   47.4490 C   0  0  0  0  0  0  0  0  0  0  0  0
   62.4900   33.3650   46.7480 C   0  0  0  0  0  0  0  0  0  0  0  0
   61.2590   33.4900   47.4130 C   0  0  0  0  0  0  0  0  0  0  0  0
   59.9910   33.3360   46.6670 C   0  0  0  0  0  0  0  0  0  0  0  0
   59.0850   34.3440   46.3020 C   0  0  0  0  0  0  0  0  0  0  0  0
   58.0720   33.7910   45.5770 N   0  0  0  0  0  0  0  0  0  0  0  0
   56.9960   34.4850   44.8820 C   0  0  0  0  0  0  0  0  0  0  0  0
   58.4000   32.4900   45.5050 C   0  0  0  0  0  0  0  0  0  0  0  0
   57.8800   31.4110   44.8280 C   0  0  0  0  0  0  0  0  0  0  0  0
   58.8080   30.3940   45.1000 C   0  0  0  0  0  0  0  0  0  0  0  0
   58.6970   29.0480   44.6140 N   0  0  0  0  0  0  0  0  0  0  0  0
   59.0530   27.8840   45.3780 C   0  0  0  0  0  0  0  0  0  0  0  0
   59.8660   27.9880   46.3370 O   0  0  0  0  0  0  0  0  0  0  0  0
   58.5180   26.5480   45.0200 C   0  0  0  0  0  0  0  0  0  0  0  0
   57.9050   26.3240   43.7780 C   0  0  0  0  0  0  0  0  0  0  0  0
   57.3990   25.0630   43.4480 C   0  0  0  0  0  0  0  0  0  0  0  0
   57.4870   23.9830   44.3550 C   0  0  0  0  0  0  0  0  0  0  0  0
   56.9440   22.5750   44.0310 C   0  0  0  0  0  0  0  0  0  0  0  0
   58.0480   21.4920   43.9900 C   0  0  0  0  0  0  0  0  0  0  0  0
   55.9190   22.1590   45.1080 C   0  0  0  0  0  0  0  0  0  0  0  0
   56.2540   22.5950   42.6490 C   0  0  0  0  0  0  0  0  0  0  0  0
   58.0970   24.2250   45.6060 C   0  0  0  0  0  0  0  0  0  0  0  0
   58.6000   25.4860   45.9320 C   0  0  0  0  0  0  0  0  0  0  0  0
   59.8230   30.9110   45.9200 C   0  0  0  0  0  0  0  0  0  0  0  0
   59.5120   32.1960   46.1360 N   0  0  0  0  0  0  0  0  0  0  0  0
   61.2500   33.7830   48.7870 C   0  0  0  0  0  0  0  0  0  0  0  0
   63.4001   34.2058   52.7301 H   0  0  0  0  0  0  0  0  0  0  0  0
   64.2596   33.2989   51.4396 H   0  0  0  0  0  0  0  0  0  0  0  0
   64.2778   35.0951   51.4396 H   0  0  0  0  0  0  0  0  0  0  0  0
   64.6204   33.8968   49.3635 H   0  0  0  0  0  0  0  0  0  0  0  0
   64.6478   33.4049   46.9220 H   0  0  0  0  0  0  0  0  0  0  0  0
   62.5098   33.1517   45.6691 H   0  0  0  0  0  0  0  0  0  0  0  0
   59.1777   35.4094   46.5597 H   0  0  0  0  0  0  0  0  0  0  0  0
   56.3094   34.9278   45.6186 H   0  0  0  0  0  0  0  0  0  0  0  0
   57.4199   35.2804   44.2513 H   0  0  0  0  0  0  0  0  0  0  0  0
   56.4463   33.7708   44.2513 H   0  0  0  0  0  0  0  0  0  0  0  0
   56.9630   31.3584   44.2228 H   0  0  0  0  0  0  0  0  0  0  0  0
   58.3870   28.9200   43.6250 H   0  0  0  0  0  0  0  0  0  0  0  0
   57.8215   27.1496   43.0559 H   0  0  0  0  0  0  0  0  0  0  0  0
   56.9251   24.9093   42.4673 H   0  0  0  0  0  0  0  0  0  0  0  0
   58.3293   21.2161   45.0170 H   0  0  0  0  0  0  0  0  0  0  0  0
   57.6709   20.6038   43.4619 H   0  0  0  0  0  0  0  0  0  0  0  0
   58.9288   21.8861   43.4619 H   0  0  0  0  0  0  0  0  0  0  0  0
   56.3459   22.3323   46.1069 H   0  0  0  0  0  0  0  0  0  0  0  0
   55.0026   22.7564   44.9922 H   0  0  0  0  0  0  0  0  0  0  0  0
   55.6781   21.0920   44.9922 H   0  0  0  0  0  0  0  0  0  0  0  0
   55.1628   22.6266   42.7844 H   0  0  0  0  0  0  0  0  0  0  0  0
   56.5799   23.4841   42.0893 H   0  0  0  0  0  0  0  0  0  0  0  0
   56.5279   21.6885   42.0893 H   0  0  0  0  0  0  0  0  0  0  0  0
   58.1771   23.4059   46.3358 H   0  0  0  0  0  0  0  0  0  0  0  0
   59.0658   25.6482   46.9152 H   0  0  0  0  0  0  0  0  0  0  0  0
   60.6985   30.3695   46.3077 H   0  0  0  0  0  0  0  0  0  0  0  0
   60.2912   33.8995   49.3133 H   0  0  0  0  0  0  0  0  0  0  0  0
  1  2  1  0
  2  3  1  0
  3  4  2  0
  4  5  1  0
  5  6  2  0
  6  7  1  0
  7  8  1  0
  8  9  2  0
  9 10  1  0
 10 11  1  0
 10 12  1  0
 12 13  2  0
 13 14  1  0
 14 15  1  0
 15 16  1  0
 16 17  2  0
 16 18  1  0
 18 19  2  0
 19 20  1  0
 20 21  2  0
 21 22  1  0
 22 23  1  0
 22 24  1  0
 22 25  1  0
 21 26  1  0
 26 27  2  0
 14 28  2  0
 28 29  1  0
  7 30  2  0
 30  3  1  0
 29  8  1  0
 29 12  1  0
 27 18  1  0
  1 31  1  0
  1 32  1  0
  1 33  1  0
  4 34  1  0
  5 35  1  0
  6 36  1  0
  9 37  1  0
 11 38  1  0
 11 39  1  0
 11 40  1  0
 13 41  1  0
 15 42  1  0
 19 43  1  0
 20 44  1  0
 23 45  1  0
 23 46  1  0
 23 47  1  0
 24 48  1  0
 24 49  1  0
 24 50  1  0
 25 51  1  0
 25 52  1  0
 25 53  1  0
 26 54  1  0
 27 55  1  0
 28 56  1  0
 30 57  1  0
M  END
>  <UniqueID>  (61) 
59

>  <SMILES>  (61) 
COc1cccc(-c2cn(C)c3cc(NC(=O)c4ccc(C(C)(C)C)cc4)cn23)c1

>  <Energy>  (61) 
151.40093043394901

>  <Genealogy>  (61) 
COc1cccc(-c2cn(C)c3cc(NC(=O)c4ccc(C(C)(C)C)cc4)cn23)c1 (3D coordinates assigned)
COc1cccc(-c2cn(C)c3cc(NC(=O)c4ccc(C(C)(C)C)cc4)cn23)c1 (optimized conformer: 151.40093043394901 kcal/mol)

>  <smiles>  (61) 
COc1cccc(-c2cn(C)c3cc(NC(=O)c4ccc(C(C)(C)C)cc4)cn23)c1

>  <score_type>  (61) 
oracle

>  <origin>  (61) 
adg

>  <m_score__min__energy>  (61) 
-8.3699999999999992

>  <m_primary>  (61) 
energy

$$$$
61:0
     RDKit          3D

 43 45  0  0  0  0  0  0  0  0999 V2000
   60.3170   34.5800   49.2390 N   0  0  0  0  0  0  0  0  0  0  0  0
   61.5570   34.1460   48.6670 C   0  0  0  0  0  0  0  0  0  0  0  0
   62.6020   33.7520   49.5180 C   0  0  0  0  0  0  0  0  0  0  0  0
   63.7870   33.2320   48.9930 C   0  0  0  0  0  0  0  0  0  0  0  0
   63.9370   33.0910   47.6130 C   0  0  0  0  0  0  0  0  0  0  0  0
   62.9110   33.4900   46.7540 C   0  0  0  0  0  0  0  0  0  0  0  0
   61.7300   34.0440   47.2660 C   0  0  0  0  0  0  0  0  0  0  0  0
   60.7240   34.4760   46.3400 N   0  0  0  0  0  0  0  0  0  0  0  0
   59.3310   34.1570   46.4540 C   0  0  0  0  0  0  0  0  0  0  0  0
   58.5050   35.0630   46.7470 O   0  0  0  0  0  0  0  0  0  0  0  0
   58.8600   32.7740   46.2050 C   0  0  0  0  0  0  0  0  0  0  0  0
   58.6040   32.3290   44.8970 C   0  0  0  0  0  0  0  0  0  0  0  0
   58.1630   31.0230   44.6640 C   0  0  0  0  0  0  0  0  0  0  0  0
   57.9710   30.1310   45.7330 C   0  0  0  0  0  0  0  0  0  0  0  0
   57.4950   28.7470   45.4980 C   0  0  0  0  0  0  0  0  0  0  0  0
   56.6850   28.5200   44.5560 O   0  0  0  0  0  0  0  0  0  0  0  0
   57.9240   27.6650   46.3410 N   0  0  0  0  0  0  0  0  0  0  0  0
   57.6270   26.2940   46.0360 C   0  0  0  0  0  0  0  0  0  0  0  0
   58.6900   25.4050   45.8130 C   0  0  0  0  0  0  0  0  0  0  0  0
   58.4430   24.0560   45.5490 C   0  0  0  0  0  0  0  0  0  0  0  0
   57.1310   23.5840   45.4950 C   0  0  0  0  0  0  0  0  0  0  0  0
   56.0620   24.4630   45.6870 C   0  0  0  0  0  0  0  0  0  0  0  0
   56.2950   25.8230   45.9440 C   0  0  0  0  0  0  0  0  0  0  0  0
   55.1790   26.7150   46.0530 N   0  0  0  0  0  0  0  0  0  0  0  0
   58.2160   30.5810   47.0430 C   0  0  0  0  0  0  0  0  0  0  0  0
   58.6600   31.8860   47.2760 C   0  0  0  0  0  0  0  0  0  0  0  0
   60.1640   34.5960   50.2700 H   0  0  0  0  0  0  0  0  0  0  0  0
   59.5680   34.9850   48.6340 H   0  0  0  0  0  0  0  0  0  0  0  0
   62.4863   33.8538   50.6072 H   0  0  0  0  0  0  0  0  0  0  0  0
   64.6027   32.9334   49.6679 H   0  0  0  0  0  0  0  0  0  0  0  0
   64.8641   32.6653   47.2015 H   0  0  0  0  0  0  0  0  0  0  0  0
   63.0307   33.3686   45.6673 H   0  0  0  0  0  0  0  0  0  0  0  0
   58.7518   33.0141   44.0492 H   0  0  0  0  0  0  0  0  0  0  0  0
   57.9644   30.6904   43.6344 H   0  0  0  0  0  0  0  0  0  0  0  0
   58.2350   27.8860   47.3130 H   0  0  0  0  0  0  0  0  0  0  0  0
   59.7258   25.7737   45.8464 H   0  0  0  0  0  0  0  0  0  0  0  0
   59.2830   23.3654   45.3836 H   0  0  0  0  0  0  0  0  0  0  0  0
   56.9381   22.5186   45.3010 H   0  0  0  0  0  0  0  0  0  0  0  0
   55.0298   24.0862   45.6363 H   0  0  0  0  0  0  0  0  0  0  0  0
   55.1440   27.5920   45.4870 H   0  0  0  0  0  0  0  0  0  0  0  0
   54.4170   26.5600   46.7500 H   0  0  0  0  0  0  0  0  0  0  0  0
   58.0568   29.8998   47.8919 H   0  0  0  0  0  0  0  0  0  0  0  0
   58.8544   32.2205   48.3057 H   0  0  0  0  0  0  0  0  0  0  0  0
  1  2  1  0
  2  3  2  0
  3  4  1  0
  4  5  2  0
  5  6  1  0
  6  7  2  0
  7  8  1  0
  8  9  1  0
  9 10  2  0
  9 11  1  0
 11 12  2  0
 12 13  1  0
 13 14  2  0
 14 15  1  0
 15 16  2  0
 15 17  1  0
 17 18  1  0
 18 19  2  0
 19 20  1  0
 20 21  2  0
 21 22  1  0
 22 23  2  0
 23 24  1  0
 14 25  1  0
 25 26  2  0
  7  2  1  0
 26 11  1  0
 23 18  1  0
  1 27  1  0
  1 28  1  0
  3 29  1  0
  4 30  1  0
  5 31  1  0
  6 32  1  0
 12 33  1  0
 13 34  1  0
 17 35  1  0
 19 36  1  0
 20 37  1  0
 21 38  1  0
 22 39  1  0
 24 40  1  0
 24 41  1  0
 25 42  1  0
 26 43  1  0
M  CHG  1   8  -1
M  END
>  <UniqueID>  (62) 
60

>  <SMILES>  (62) 
Nc1ccccc1[N-]C(=O)c1ccc(C(=O)Nc2ccccc2N)cc1

>  <Energy>  (62) 
60.90017028838481

>  <Genealogy>  (62) 
Nc1ccccc1[N-]C(=O)c1ccc(C(=O)Nc2ccccc2N)cc1 (protonated)
Nc1ccccc1[N-]C(=O)c1ccc(C(=O)Nc2ccccc2N)cc1 (3D coordinates assigned)
Nc1ccccc1[N-]C(=O)c1ccc(C(=O)Nc2ccccc2N)cc1 (optimized conformer: 60.90017028838481 kcal/mol)

>  <smiles>  (62) 
Nc1ccccc1NC(=O)c1ccc(C(=O)Nc2ccccc2N)cc1

>  <score_type>  (62) 
oracle

>  <origin>  (62) 
adg

>  <m_score__min__energy>  (62) 
-9.1999999999999993

>  <m_primary>  (62) 
energy

$$$$
62:0
     RDKit          3D

 51 54  0  0  0  0  0  0  0  0999 V2000
   59.1670   35.0370   45.8390 C   0  0  0  0  0  0  0  0  0  0  0  0
   58.9220   33.6240   45.4540 C   0  0  0  0  0  0  0  0  0  0  0  0
   58.0290   33.3130   44.4540 C   0  0  0  0  0  0  0  0  0  0  0  0
   57.7650   32.0280   44.0590 C   0  0  0  0  0  0  0  0  0  0  0  0
   58.3960   30.9500   44.6590 C   0  0  0  0  0  0  0  0  0  0  0  0
   58.0750   29.6580   44.2010 N   0  0  0  0  0  0  0  0  0  0  0  0
   57.8080   28.5280   45.0040 C   0  0  0  0  0  0  0  0  0  0  0  0
   57.8280   28.5450   46.2350 O   0  0  0  0  0  0  0  0  0  0  0  0
   57.4920   27.2660   44.3790 N   0  0  0  0  0  0  0  0  0  0  0  0
   57.2340   26.1670   45.2540 C   0  0  0  0  0  0  0  0  0  0  0  0
   58.2790   25.2990   45.5040 C   0  0  0  0  0  0  0  0  0  0  0  0
   58.1500   24.2030   46.3300 C   0  0  0  0  0  0  0  0  0  0  0  0
   56.9050   24.0020   46.9140 C   0  0  0  0  0  0  0  0  0  0  0  0
   56.7360   22.6120   47.9650 S   0  0  0  0  0  0  0  0  0  0  0  0
   55.0470   22.4000   48.2750 N   0  0  0  0  0  0  0  0  0  0  0  0
   57.3450   21.4210   47.3270 O   0  0  0  0  0  0  0  0  0  0  0  0
   57.4090   22.9480   49.2690 O   0  0  0  0  0  0  0  0  0  0  0  0
   55.8620   24.8710   46.6630 C   0  0  0  0  0  0  0  0  0  0  0  0
   55.9940   25.9640   45.8360 C   0  0  0  0  0  0  0  0  0  0  0  0
   59.2890   31.2450   45.6580 C   0  0  0  0  0  0  0  0  0  0  0  0
   59.5610   32.5570   46.0640 C   0  0  0  0  0  0  0  0  0  0  0  0
   60.5150   32.8260   47.1340 C   0  0  0  0  0  0  0  0  0  0  0  0
   61.8600   32.9460   46.8000 C   0  0  0  0  0  0  0  0  0  0  0  0
   62.8280   33.2010   47.7550 C   0  0  0  0  0  0  0  0  0  0  0  0
   62.4400   33.3400   49.0810 C   0  0  0  0  0  0  0  0  0  0  0  0
   61.1060   33.2220   49.4140 C   0  0  0  0  0  0  0  0  0  0  0  0
   60.4180   33.3000   50.5680 N   0  0  0  0  0  0  0  0  0  0  0  0
   59.1280   33.1110   50.3640 N   0  0  0  0  0  0  0  0  0  0  0  0
   58.9230   32.8990   49.0330 C   0  0  0  0  0  0  0  0  0  0  0  0
   57.7650   32.6880   48.5510 N   0  0  0  0  0  0  0  0  0  0  0  0
   60.1640   32.9690   48.4450 C   0  0  0  0  0  0  0  0  0  0  0  0
   59.1816   35.1210   46.9357 H   0  0  0  0  0  0  0  0  0  0  0  0
   60.1354   35.3650   45.4333 H   0  0  0  0  0  0  0  0  0  0  0  0
   58.3655   35.6718   45.4333 H   0  0  0  0  0  0  0  0  0  0  0  0
   57.5022   34.1353   43.9478 H   0  0  0  0  0  0  0  0  0  0  0  0
   57.0397   31.8489   43.2517 H   0  0  0  0  0  0  0  0  0  0  0  0
   58.0220   29.4920   43.1530 H   0  0  0  0  0  0  0  0  0  0  0  0
   57.4560   27.1670   43.3420 H   0  0  0  0  0  0  0  0  0  0  0  0
   59.2511   25.4896   45.0258 H   0  0  0  0  0  0  0  0  0  0  0  0
   58.9919   23.5204   46.5179 H   0  0  0  0  0  0  0  0  0  0  0  0
   54.8070   22.3600   49.2710 H   0  0  0  0  0  0  0  0  0  0  0  0
   54.6260   21.6900   47.6600 H   0  0  0  0  0  0  0  0  0  0  0  0
   54.8894   24.6833   47.1414 H   0  0  0  0  0  0  0  0  0  0  0  0
   55.1518   26.6457   45.6461 H   0  0  0  0  0  0  0  0  0  0  0  0
   59.8121   30.4177   46.1600 H   0  0  0  0  0  0  0  0  0  0  0  0
   62.1621   32.8351   45.7481 H   0  0  0  0  0  0  0  0  0  0  0  0
   63.8862   33.2920   47.4689 H   0  0  0  0  0  0  0  0  0  0  0  0
   63.1900   33.5426   49.8598 H   0  0  0  0  0  0  0  0  0  0  0  0
   60.8140   33.4850   51.5240 H   0  0  0  0  0  0  0  0  0  0  0  0
   58.3770   33.1260   51.1150 H   0  0  0  0  0  0  0  0  0  0  0  0
   56.8500   32.7350   48.9900 H   0  0  0  0  0  0  0  0  0  0  0  0
  1  2  1  0
  2  3  2  0
  3  4  1  0
  4  5  2  0
  5  6  1  0
  6  7  1  0
  7  8  2  0
  7  9  1  0
  9 10  1  0
 10 11  2  0
 11 12  1  0
 12 13  2  0
 13 14  1  0
 14 15  1  0
 14 16  2  0
 14 17  2  0
 13 18  1  0
 18 19  2  0
  5 20  1  0
 20 21  2  0
 21 22  1  0
 22 23  2  0
 23 24  1  0
 24 25  2  0
 25 26  1  0
 26 27  1  0
 27 28  1  0
 28 29  1  0
 29 30  2  3
 29 31  1  0
 21  2  1  0
 31 22  1  0
 19 10  1  0
 31 26  2  0
  1 32  1  0
  1 33  1  0
  1 34  1  0
  3 35  1  0
  4 36  1  0
  6 37  1  0
  9 38  1  0
 11 39  1  0
 12 40  1  0
 15 41  1  0
 15 42  1  0
 18 43  1  0
 19 44  1  0
 20 45  1  0
 23 46  1  0
 24 47  1  0
 25 48  1  0
 27 49  1  0
 28 50  1  0
 30 51  1  0
M  END
>  <smiles>  (63) 
Cc1ccc(NC(=O)Nc2ccc(S(N)(=O)=O)cc2)cc1-c1cccc2[nH][nH]c(=N)c12

>  <score_type>  (63) 
oracle

>  <origin>  (63) 
adg

>  <m_score__min__energy>  (63) 
-8.8399999999999999

>  <m_primary>  (63) 
energy

$$$$
63:0
     RDKit          3D

 32 34  0  0  1  0  0  0  0  0999 V2000
   55.6500   30.7490   44.4960 O   0  0  0  0  0  0  0  0  0  0  0  0
   56.7420   30.2710   44.0960 C   0  0  0  0  0  0  0  0  0  0  0  0
   56.8640   28.8470   44.1400 N   0  0  0  0  0  0  0  0  0  0  0  0
   57.4180   28.1910   45.0780 C   0  0  0  0  0  0  0  0  0  0  0  0
   56.8250   27.1070   45.6120 N   0  0  0  0  0  0  0  0  0  0  0  0
   57.4140   26.4150   46.6060 C   0  0  0  0  0  0  0  0  0  0  0  0
   58.6150   26.7940   47.0890 N   0  0  0  0  0  0  0  0  0  0  0  0
   59.2130   27.8760   46.5590 C   0  0  0  0  0  0  0  0  0  0  0  0
   60.3900   28.4800   46.8330 N   0  0  0  0  0  0  0  0  0  0  0  0
   60.5290   29.5510   46.0030 C   0  0  0  0  0  0  0  0  0  0  0  0
   59.4510   29.6400   45.2010 N   0  0  0  0  0  0  0  0  0  0  0  0
   58.6550   28.6240   45.5390 C   0  0  0  0  0  0  0  0  0  0  0  0
   57.8160   31.0790   43.6210 N   0  0  0  0  0  0  0  0  0  0  0  0
   57.7980   32.5000   43.5350 C   0  0  0  0  0  0  0  0  0  0  0  0
   58.2550   33.1810   44.7850 C   0  0  0  0  0  0  0  0  0  0  0  0
   59.1780   34.2190   44.7620 C   0  0  0  0  0  0  0  0  0  0  0  0
   59.6010   34.8390   45.9300 C   0  0  0  0  0  0  0  0  0  0  0  0
   59.0700   34.3890   47.1340 C   0  0  0  0  0  0  0  0  0  0  0  0
   58.1550   33.3610   47.1480 C   0  0  0  0  0  0  0  0  0  0  0  0
   57.7280   32.7360   45.9920 C   0  0  0  0  0  0  0  0  0  0  0  0
   55.8940   26.7980   45.2490 H   0  0  0  0  0  0  0  0  0  0  0  0
   56.9109   25.5325   47.0279 H   0  0  0  0  0  0  0  0  0  0  0  0
   61.0820   28.1630   47.5730 H   0  0  0  0  0  0  0  0  0  0  0  0
   61.3888   30.2370   45.9899 H   0  0  0  0  0  0  0  0  0  0  0  0
   58.6790   30.5380   43.3170 H   0  0  0  0  0  0  0  0  0  0  0  0
   58.4583   32.8069   42.7105 H   0  0  0  0  0  0  0  0  0  0  0  0
   56.7530   32.7999   43.3678 H   0  0  0  0  0  0  0  0  0  0  0  0
   59.5828   34.5573   43.7967 H   0  0  0  0  0  0  0  0  0  0  0  0
   60.3327   35.6599   45.9039 H   0  0  0  0  0  0  0  0  0  0  0  0
   59.3827   34.8567   48.0792 H   0  0  0  0  0  0  0  0  0  0  0  0
   57.7492   33.0250   48.1137 H   0  0  0  0  0  0  0  0  0  0  0  0
   56.9966   31.9150   46.0256 H   0  0  0  0  0  0  0  0  0  0  0  0
  1  2  2  0
  2  3  1  0
  3  4  2  0
  4  5  1  0
  5  6  1  0
  6  7  2  0
  7  8  1  0
  8  9  1  0
  9 10  1  0
 10 11  2  0
 11 12  1  0
  2 13  1  0
 13 14  1  0
 14 15  1  0
 15 16  2  0
 16 17  1  0
 17 18  2  0
 18 19  1  0
 19 20  2  0
 12  4  1  0
 20 15  1  0
 12  8  2  0
  5 21  1  0
  6 22  1  0
  9 23  1  0
 10 24  1  0
 13 25  1  0
 14 26  1  0
 14 27  1  0
 16 28  1  0
 17 29  1  0
 18 30  1  0
 19 31  1  0
 20 32  1  0
M  END
>  <smiles>  (64) 
O=C(N=c1[nH]cnc2[nH]cnc12)NCc1ccccc1

>  <score_type>  (64) 
oracle

>  <origin>  (64) 
adg

>  <m_score__min__energy>  (64) 
-7.3200000000000003

>  <m_primary>  (64) 
energy

$$$$
64:0
     RDKit          3D

 53 57  0  0  0  0  0  0  0  0999 V2000
   59.6470   35.2710   45.4560 O   0  0  0  0  0  0  0  0  0  0  0  0
   59.1740   34.1280   45.2300 C   0  0  0  0  0  0  0  0  0  0  0  0
   58.7220   33.8110   43.9870 N   0  0  0  0  0  0  0  0  0  0  0  0
   58.1650   32.5950   43.6980 C   0  0  0  0  0  0  0  0  0  0  0  0
   57.6750   32.3380   42.1510 S   0  0  0  0  0  0  0  0  0  0  0  0
   58.0220   31.6370   44.6910 N   0  0  0  0  0  0  0  0  0  0  0  0
   57.4360   30.3030   44.4530 C   0  0  0  0  0  0  0  0  0  0  0  0
   58.3270   29.2180   45.0090 C   0  0  0  0  0  0  0  0  0  0  0  0
   59.7080   29.2270   44.7460 C   0  0  0  0  0  0  0  0  0  0  0  0
   60.5300   28.2210   45.2610 C   0  0  0  0  0  0  0  0  0  0  0  0
   59.9840   27.2040   46.0490 C   0  0  0  0  0  0  0  0  0  0  0  0
   58.6150   27.1940   46.3260 C   0  0  0  0  0  0  0  0  0  0  0  0
   57.7890   28.1980   45.8110 C   0  0  0  0  0  0  0  0  0  0  0  0
   58.4880   31.9610   45.9370 C   0  0  0  0  0  0  0  0  0  0  0  0
   58.4020   31.2200   47.0570 N   0  0  0  0  0  0  0  0  0  0  0  0
   58.9650   31.9980   48.0100 C   0  0  0  0  0  0  0  0  0  0  0  0
   58.9670   31.6360   49.3970 N   0  0  0  0  0  0  0  0  0  0  0  0
   59.4560   30.3560   49.8750 C   0  0  0  0  0  0  0  0  0  0  0  0
   59.1220   30.3230   51.3590 C   0  0  0  0  0  0  0  0  0  0  0  0
   58.0510   31.3910   51.5690 C   0  0  0  0  0  0  0  0  0  0  0  0
   58.1610   32.3350   50.3790 C   0  0  0  0  0  0  0  0  0  0  0  0
   59.4150   33.1910   47.5330 N   0  0  0  0  0  0  0  0  0  0  0  0
   59.9600   34.3070   48.3180 C   0  0  0  0  0  0  0  0  0  0  0  0
   61.3000   33.9850   48.9520 C   0  0  0  0  0  0  0  0  0  0  0  0
   61.3550   33.8400   50.3530 C   0  0  0  0  0  0  0  0  0  0  0  0
   62.5540   33.5200   50.9920 C   0  0  0  0  0  0  0  0  0  0  0  0
   63.7140   33.3220   50.2460 C   0  0  0  0  0  0  0  0  0  0  0  0
   63.6750   33.4340   48.8550 C   0  0  0  0  0  0  0  0  0  0  0  0
   62.4800   33.7530   48.1990 C   0  0  0  0  0  0  0  0  0  0  0  0
   62.5250   33.8360   46.4440 Cl  0  0  0  0  0  0  0  0  0  0  0  0
   59.0750   33.1580   46.2220 C   0  0  0  0  0  0  0  0  0  0  0  0
   56.4528   30.2485   44.9432 H   0  0  0  0  0  0  0  0  0  0  0  0
   57.3324   30.1523   43.3683 H   0  0  0  0  0  0  0  0  0  0  0  0
   60.1434   30.0293   44.1322 H   0  0  0  0  0  0  0  0  0  0  0  0
   61.6087   28.2296   45.0458 H   0  0  0  0  0  0  0  0  0  0  0  0
   60.6323   26.4115   46.4510 H   0  0  0  0  0  0  0  0  0  0  0  0
   58.1863   26.3958   46.9497 H   0  0  0  0  0  0  0  0  0  0  0  0
   56.7121   28.1889   46.0352 H   0  0  0  0  0  0  0  0  0  0  0  0
   57.9700   30.2800   47.1880 H   0  0  0  0  0  0  0  0  0  0  0  0
   58.9528   29.5313   49.3491 H   0  0  0  0  0  0  0  0  0  0  0  0
   60.5350   30.2383   49.6964 H   0  0  0  0  0  0  0  0  0  0  0  0
   58.7361   29.3327   51.6427 H   0  0  0  0  0  0  0  0  0  0  0  0
   60.0109   30.5142   51.9781 H   0  0  0  0  0  0  0  0  0  0  0  0
   57.0526   30.9302   51.6004 H   0  0  0  0  0  0  0  0  0  0  0  0
   58.1942   31.9238   52.5207 H   0  0  0  0  0  0  0  0  0  0  0  0
   57.1637   32.5548   49.9703 H   0  0  0  0  0  0  0  0  0  0  0  0
   58.6121   33.2969   50.6641 H   0  0  0  0  0  0  0  0  0  0  0  0
   60.0856   35.1747   47.6537 H   0  0  0  0  0  0  0  0  0  0  0  0
   59.2509   34.5141   49.1330 H   0  0  0  0  0  0  0  0  0  0  0  0
   60.4419   33.9807   50.9500 H   0  0  0  0  0  0  0  0  0  0  0  0
   62.5832   33.4239   52.0874 H   0  0  0  0  0  0  0  0  0  0  0  0
   64.6594   33.0777   50.7525 H   0  0  0  0  0  0  0  0  0  0  0  0
   64.5914   33.2701   48.2691 H   0  0  0  0  0  0  0  0  0  0  0  0
  1  2  2  0
  2  3  1  0
  3  4  1  0
  4  5  2  0
  4  6  1  0
  6  7  1  0
  7  8  1  0
  8  9  2  0
  9 10  1  0
 10 11  2  0
 11 12  1  0
 12 13  2  0
  6 14  1  0
 14 15  1  0
 15 16  2  0
 16 17  1  0
 17 18  1  0
 18 19  1  0
 19 20  1  0
 20 21  1  0
 16 22  1  0
 22 23  1  0
 23 24  1  0
 24 25  2  0
 25 26  1  0
 26 27  2  0
 27 28  1  0
 28 29  2  0
 29 30  1  0
 22 31  1  0
 31  2  1  0
 13  8  1  0
 31 14  2  0
 21 17  1  0
 29 24  1  0
  7 32  1  0
  7 33  1  0
  9 34  1  0
 10 35  1  0
 11 36  1  0
 12 37  1  0
 13 38  1  0
 15 39  1  0
 18 40  1  0
 18 41  1  0
 19 42  1  0
 19 43  1  0
 20 44  1  0
 20 45  1  0
 21 46  1  0
 21 47  1  0
 23 48  1  0
 23 49  1  0
 25 50  1  0
 26 51  1  0
 27 52  1  0
 28 53  1  0
M  CHG  2   3  -1  15   1
M  END
>  <UniqueID>  (65) 
61

>  <SMILES>  (65) 
O=c1[n-]c(=S)n(Cc2ccccc2)c2[nH+]c(N3CCCC3)n(Cc3ccccc3Cl)c12

>  <Energy>  (65) 
112.85830572962156

>  <Genealogy>  (65) 
O=c1[n-]c(=S)n(Cc2ccccc2)c2[nH+]c(N3CCCC3)n(Cc3ccccc3Cl)c12 (protonated)
O=c1[n-]c(=S)n(Cc2ccccc2)c2[nH+]c(N3CCCC3)n(Cc3ccccc3Cl)c12 (3D coordinates assigned)
O=c1[n-]c(=S)n(Cc2ccccc2)c2[nH+]c(N3CCCC3)n(Cc3ccccc3Cl)c12 (nonaromatic ring conformer: 112.85830572962156 kcal/mol)

>  <smiles>  (65) 
O=c1[nH]c(=S)n(Cc2ccccc2)c2nc(N3CCCC3)n(Cc3ccccc3Cl)c12

>  <score_type>  (65) 
oracle

>  <origin>  (65) 
adg

>  <m_score__min__energy>  (65) 
-7.9400000000000004

>  <m_primary>  (65) 
energy

$$$$
65:0
     RDKit          3D

 43 45  0  0  0  0  0  0  0  0999 V2000
   61.9510   34.1010   46.7280 C   0  0  0  0  0  0  0  0  0  0  0  0
   60.2250   34.5400   46.7270 S   0  0  0  0  0  0  0  0  0  0  0  0
   59.8260   34.9340   48.1250 O   0  0  0  0  0  0  0  0  0  0  0  0
   60.0020   35.7110   45.8100 O   0  0  0  0  0  0  0  0  0  0  0  0
   59.2480   33.1810   46.1730 C   0  0  0  0  0  0  0  0  0  0  0  0
   58.8990   32.1680   47.0720 C   0  0  0  0  0  0  0  0  0  0  0  0
   58.1640   31.0630   46.6390 C   0  0  0  0  0  0  0  0  0  0  0  0
   57.7680   30.9450   45.2960 C   0  0  0  0  0  0  0  0  0  0  0  0
   57.0310   29.7290   44.8650 C   0  0  0  0  0  0  0  0  0  0  0  0
   55.8220   29.8170   44.5250 O   0  0  0  0  0  0  0  0  0  0  0  0
   57.7000   28.4700   44.7080 N   0  0  0  0  0  0  0  0  0  0  0  0
   57.6780   27.4690   45.5430 C   0  0  0  0  0  0  0  0  0  0  0  0
   58.6550   27.3860   46.4830 N   0  0  0  0  0  0  0  0  0  0  0  0
   58.6860   26.3740   47.3850 C   0  0  0  0  0  0  0  0  0  0  0  0
   59.6050   26.3330   48.2460 O   0  0  0  0  0  0  0  0  0  0  0  0
   57.7010   25.3870   47.3560 C   0  0  0  0  0  0  0  0  0  0  0  0
   57.7210   24.3490   48.2840 O   0  0  0  0  0  0  0  0  0  0  0  0
   56.6990   25.4580   46.3740 C   0  0  0  0  0  0  0  0  0  0  0  0
   55.6410   24.3680   46.3260 C   0  0  0  0  0  0  0  0  0  0  0  0
   56.1740   22.9950   45.9590 C   0  0  0  0  0  0  0  0  0  0  0  0
   56.6440   22.7300   44.6500 C   0  0  0  0  0  0  0  0  0  0  0  0
   56.6450   23.9620   43.3900 Cl  0  0  0  0  0  0  0  0  0  0  0  0
   57.0990   21.4510   44.3130 C   0  0  0  0  0  0  0  0  0  0  0  0
   57.0810   20.4240   45.2550 C   0  0  0  0  0  0  0  0  0  0  0  0
   56.5970   20.6640   46.5390 C   0  0  0  0  0  0  0  0  0  0  0  0
   56.1290   21.9330   46.8950 C   0  0  0  0  0  0  0  0  0  0  0  0
   55.4630   22.1460   48.5120 Cl  0  0  0  0  0  0  0  0  0  0  0  0
   56.7190   26.4940   45.4790 N   0  0  0  0  0  0  0  0  0  0  0  0
   58.0980   31.9830   44.3940 C   0  0  0  0  0  0  0  0  0  0  0  0
   57.5560   31.9760   42.7190 Cl  0  0  0  0  0  0  0  0  0  0  0  0
   58.8390   33.0860   44.8370 C   0  0  0  0  0  0  0  0  0  0  0  0
   62.3058   34.0108   47.7653 H   0  0  0  0  0  0  0  0  0  0  0  0
   62.0852   33.1401   46.2097 H   0  0  0  0  0  0  0  0  0  0  0  0
   62.5280   34.8810   46.2097 H   0  0  0  0  0  0  0  0  0  0  0  0
   59.2053   32.2424   48.1259 H   0  0  0  0  0  0  0  0  0  0  0  0
   57.8917   30.2757   47.3573 H   0  0  0  0  0  0  0  0  0  0  0  0
   55.1705   24.3009   47.3180 H   0  0  0  0  0  0  0  0  0  0  0  0
   54.9320   24.6522   45.5345 H   0  0  0  0  0  0  0  0  0  0  0  0
   57.4736   21.2544   43.2976 H   0  0  0  0  0  0  0  0  0  0  0  0
   57.4492   19.4234   44.9844 H   0  0  0  0  0  0  0  0  0  0  0  0
   56.5828   19.8496   47.2783 H   0  0  0  0  0  0  0  0  0  0  0  0
   56.0160   26.5190   44.7120 H   0  0  0  0  0  0  0  0  0  0  0  0
   59.1022   33.8853   44.1286 H   0  0  0  0  0  0  0  0  0  0  0  0
  1  2  1  0
  2  3  2  0
  2  4  2  0
  2  5  1  0
  5  6  2  0
  6  7  1  0
  7  8  2  0
  8  9  1  0
  9 10  2  0
  9 11  1  0
 11 12  2  3
 12 13  1  0
 13 14  1  0
 14 15  2  0
 14 16  1  0
 16 17  1  0
 16 18  2  0
 18 19  1  0
 19 20  1  0
 20 21  2  0
 21 22  1  0
 21 23  1  0
 23 24  2  0
 24 25  1  0
 25 26  2  0
 26 27  1  0
 18 28  1  0
  8 29  1  0
 29 30  1  0
 29 31  2  0
 31  5  1  0
 28 12  1  0
 26 20  1  0
  1 32  1  0
  1 33  1  0
  1 34  1  0
  6 35  1  0
  7 36  1  0
 19 37  1  0
 19 38  1  0
 23 39  1  0
 24 40  1  0
 25 41  1  0
 28 42  1  0
 31 43  1  0
M  CHG  2  13  -1  17  -1
M  END
>  <UniqueID>  (66) 
62

>  <SMILES>  (66) 
CS(=O)(=O)c1ccc(C(=O)N=c2[n-]c(=O)c([O-])c(Cc3c(Cl)cccc3Cl)[nH]2)c(Cl)c1

>  <Energy>  (66) 
55.868111892937804

>  <Genealogy>  (66) 
CS(=O)(=O)c1ccc(C(=O)N=c2[n-]c(=O)c([O-])c(Cc3c(Cl)cccc3Cl)[nH]2)c(Cl)c1 (protonated)
CS(=O)(=O)c1ccc(C(=O)N=c2[n-]c(=O)c([O-])c(Cc3c(Cl)cccc3Cl)[nH]2)c(Cl)c1 (3D coordinates assigned)
CS(=O)(=O)c1ccc(C(=O)N=c2[n-]c(=O)c([O-])c(Cc3c(Cl)cccc3Cl)[nH]2)c(Cl)c1 (optimized conformer: 55.868111892937804 kcal/mol)

>  <smiles>  (66) 
CS(=O)(=O)c1ccc(C(=O)N=c2[nH]c(Cc3c(Cl)cccc3Cl)c(O)c(=O)[nH]2)c(Cl)c1

>  <score_type>  (66) 
oracle

>  <origin>  (66) 
adg

>  <m_score__min__energy>  (66) 
-12.85

>  <m_primary>  (66) 
energy

$$$$
66:0
     RDKit          3D

 39 41  0  0  0  0  0  0  0  0999 V2000
   55.5070   29.9080   42.9630 O   0  0  0  0  0  0  0  0  0  0  0  0
   56.3170   29.8240   44.2270 S   0  0  0  0  0  0  0  0  0  0  0  0
   55.5920   28.9880   45.2440 O   0  0  0  0  0  0  0  0  0  0  0  0
   57.8910   29.0710   43.8580 C   0  0  0  0  0  0  0  0  0  0  0  0
   58.3170   28.1740   44.9850 C   0  0  0  0  0  0  0  0  0  0  0  0
   57.5310   27.0660   45.3450 C   0  0  0  0  0  0  0  0  0  0  0  0
   57.9460   26.2110   46.3700 C   0  0  0  0  0  0  0  0  0  0  0  0
   59.1500   26.4510   47.0370 C   0  0  0  0  0  0  0  0  0  0  0  0
   59.9430   27.5450   46.6790 C   0  0  0  0  0  0  0  0  0  0  0  0
   59.5310   28.4020   45.6530 C   0  0  0  0  0  0  0  0  0  0  0  0
   56.5840   31.4170   44.8570 N   0  0  0  0  0  0  0  0  0  0  0  0
   57.7760   31.8550   45.5220 C   0  0  0  0  0  0  0  0  0  0  0  0
   58.4640   33.0170   45.1350 C   0  0  0  0  0  0  0  0  0  0  0  0
   59.6220   33.4090   45.8110 C   0  0  0  0  0  0  0  0  0  0  0  0
   60.1150   32.6480   46.8860 C   0  0  0  0  0  0  0  0  0  0  0  0
   61.3470   33.0640   47.6060 C   0  0  0  0  0  0  0  0  0  0  0  0
   62.6170   32.6960   47.1230 C   0  0  0  0  0  0  0  0  0  0  0  0
   63.7740   33.0880   47.8030 C   0  0  0  0  0  0  0  0  0  0  0  0
   63.6770   33.8500   48.9690 C   0  0  0  0  0  0  0  0  0  0  0  0
   62.4240   34.2210   49.4590 C   0  0  0  0  0  0  0  0  0  0  0  0
   61.2630   33.8320   48.7840 C   0  0  0  0  0  0  0  0  0  0  0  0
   59.4210   31.4860   47.2680 C   0  0  0  0  0  0  0  0  0  0  0  0
   58.2630   31.0950   46.5900 C   0  0  0  0  0  0  0  0  0  0  0  0
   57.8022   28.4778   42.9359 H   0  0  0  0  0  0  0  0  0  0  0  0
   58.6439   29.8621   43.7263 H   0  0  0  0  0  0  0  0  0  0  0  0
   56.5854   26.8708   44.8180 H   0  0  0  0  0  0  0  0  0  0  0  0
   57.3241   25.3485   46.6517 H   0  0  0  0  0  0  0  0  0  0  0  0
   59.4742   25.7783   47.8447 H   0  0  0  0  0  0  0  0  0  0  0  0
   60.8913   27.7321   47.2042 H   0  0  0  0  0  0  0  0  0  0  0  0
   60.1605   29.2580   45.3683 H   0  0  0  0  0  0  0  0  0  0  0  0
   58.0891   33.6211   44.2957 H   0  0  0  0  0  0  0  0  0  0  0  0
   60.1528   34.3208   45.4998 H   0  0  0  0  0  0  0  0  0  0  0  0
   62.6996   32.0962   46.2047 H   0  0  0  0  0  0  0  0  0  0  0  0
   64.7624   32.7956   47.4188 H   0  0  0  0  0  0  0  0  0  0  0  0
   64.5888   34.1581   49.5017 H   0  0  0  0  0  0  0  0  0  0  0  0
   62.3497   34.8207   50.3782 H   0  0  0  0  0  0  0  0  0  0  0  0
   60.2782   34.1274   49.1751 H   0  0  0  0  0  0  0  0  0  0  0  0
   59.7926   30.8798   48.1073 H   0  0  0  0  0  0  0  0  0  0  0  0
   57.7310   30.1830   46.8987 H   0  0  0  0  0  0  0  0  0  0  0  0
  1  2  2  0
  2  3  2  0
  2  4  1  0
  4  5  1  0
  5  6  2  0
  6  7  1  0
  7  8  2  0
  8  9  1  0
  9 10  2  0
  2 11  1  0
 11 12  1  0
 12 13  2  0
 13 14  1  0
 14 15  2  0
 15 16  1  0
 16 17  2  0
 17 18  1  0
 18 19  2  0
 19 20  1  0
 20 21  2  0
 15 22  1  0
 22 23  2  0
 10  5  1  0
 23 12  1  0
 21 16  1  0
  4 24  1  0
  4 25  1  0
  6 26  1  0
  7 27  1  0
  8 28  1  0
  9 29  1  0
 10 30  1  0
 13 31  1  0
 14 32  1  0
 17 33  1  0
 18 34  1  0
 19 35  1  0
 20 36  1  0
 21 37  1  0
 22 38  1  0
 23 39  1  0
M  CHG  1  11  -1
M  END
>  <UniqueID>  (67) 
63

>  <SMILES>  (67) 
O=S(=O)(Cc1ccccc1)[N-]c1ccc(-c2ccccc2)cc1

>  <Energy>  (67) 
45.15075143570149

>  <Genealogy>  (67) 
O=S(=O)(Cc1ccccc1)[N-]c1ccc(-c2ccccc2)cc1 (protonated)
O=S(=O)(Cc1ccccc1)[N-]c1ccc(-c2ccccc2)cc1 (3D coordinates assigned)
O=S(=O)(Cc1ccccc1)[N-]c1ccc(-c2ccccc2)cc1 (optimized conformer: 45.15075143570149 kcal/mol)

>  <smiles>  (67) 
O=S(=O)(Cc1ccccc1)Nc1ccc(-c2ccccc2)cc1

>  <score_type>  (67) 
oracle

>  <origin>  (67) 
adg

>  <m_score__min__energy>  (67) 
-10.17

>  <m_primary>  (67) 
energy

$$$$
67:0
     RDKit          3D

 55 56  0  0  0  0  0  0  0  0999 V2000
   59.7870   35.0910   54.8930 C   0  0  0  0  0  0  0  0  0  0  0  0
   59.3900   34.0160   53.9230 C   0  0  0  0  0  0  0  0  0  0  0  0
   59.6440   32.6640   54.2040 C   0  0  0  0  0  0  0  0  0  0  0  0
   59.3100   31.6760   53.2710 C   0  0  0  0  0  0  0  0  0  0  0  0
   58.7250   32.0300   52.0460 C   0  0  0  0  0  0  0  0  0  0  0  0
   58.3380   30.7960   50.8490 S   0  0  0  0  0  0  0  0  0  0  0  0
   57.0540   30.1190   51.2400 O   0  0  0  0  0  0  0  0  0  0  0  0
   58.1470   31.4270   49.4970 O   0  0  0  0  0  0  0  0  0  0  0  0
   59.6020   29.6050   50.7640 N   0  0  0  0  0  0  0  0  0  0  0  0
   60.7290   30.0830   49.9570 C   0  0  0  0  0  0  0  0  0  0  0  0
   60.3470   30.1310   48.5100 C   0  0  0  0  0  0  0  0  0  0  0  0
   60.5320   31.1940   47.8590 O   0  0  0  0  0  0  0  0  0  0  0  0
   59.8250   28.9900   47.8850 O   0  0  0  0  0  0  0  0  0  0  0  0
   59.8890   28.7550   46.4790 C   0  0  0  0  0  0  0  0  0  0  0  0
   58.7560   29.4460   45.7830 C   0  0  0  0  0  0  0  0  0  0  0  0
   57.9620   28.7640   45.0820 O   0  0  0  0  0  0  0  0  0  0  0  0
   58.5780   30.8660   45.9180 N   0  0  0  0  0  0  0  0  0  0  0  0
   57.5390   31.6100   45.2620 C   0  0  0  0  0  0  0  0  0  0  0  0
   56.6370   31.0150   44.6110 O   0  0  0  0  0  0  0  0  0  0  0  0
   57.5140   33.1100   45.3500 C   0  0  0  0  0  0  0  0  0  0  0  0
   57.3490   33.5840   46.7970 C   0  0  0  0  0  0  0  0  0  0  0  0
   58.5300   33.2230   47.5880 N   0  0  0  0  0  0  0  0  0  0  0  0
   59.9570   33.8910   46.8560 S   0  0  0  0  0  0  0  0  0  0  0  0
   59.6990   35.3190   46.4580 O   0  0  0  0  0  0  0  0  0  0  0  0
   60.3050   33.1010   45.6270 O   0  0  0  0  0  0  0  0  0  0  0  0
   61.2980   33.8010   47.9960 C   0  0  0  0  0  0  0  0  0  0  0  0
   62.5900   33.4730   47.5610 C   0  0  0  0  0  0  0  0  0  0  0  0
   63.6560   33.4600   48.4690 C   0  0  0  0  0  0  0  0  0  0  0  0
   63.4340   33.7760   49.8120 C   0  0  0  0  0  0  0  0  0  0  0  0
   62.1470   34.1040   50.2500 C   0  0  0  0  0  0  0  0  0  0  0  0
   61.0810   34.1170   49.3440 C   0  0  0  0  0  0  0  0  0  0  0  0
   58.4570   33.3780   51.7740 C   0  0  0  0  0  0  0  0  0  0  0  0
   58.7920   34.3670   52.7040 C   0  0  0  0  0  0  0  0  0  0  0  0
   59.6518   34.7250   55.9215 H   0  0  0  0  0  0  0  0  0  0  0  0
   60.8425   35.3567   54.7341 H   0  0  0  0  0  0  0  0  0  0  0  0
   59.1575   35.9790   54.7341 H   0  0  0  0  0  0  0  0  0  0  0  0
   60.1071   32.3805   55.1607 H   0  0  0  0  0  0  0  0  0  0  0  0
   59.5068   30.6180   53.4989 H   0  0  0  0  0  0  0  0  0  0  0  0
   61.0129   31.0918   50.2913 H   0  0  0  0  0  0  0  0  0  0  0  0
   61.5767   29.3931   50.0811 H   0  0  0  0  0  0  0  0  0  0  0  0
   60.8429   29.1406   46.0899 H   0  0  0  0  0  0  0  0  0  0  0  0
   59.8156   27.6732   46.2938 H   0  0  0  0  0  0  0  0  0  0  0  0
   59.2530   31.3930   46.5150 H   0  0  0  0  0  0  0  0  0  0  0  0
   58.4580   33.5075   44.9490 H   0  0  0  0  0  0  0  0  0  0  0  0
   56.6562   33.4760   44.7667 H   0  0  0  0  0  0  0  0  0  0  0  0
   57.2243   34.6768   46.8090 H   0  0  0  0  0  0  0  0  0  0  0  0
   56.4635   33.0991   47.2339 H   0  0  0  0  0  0  0  0  0  0  0  0
   58.6300   32.1810   47.5690 H   0  0  0  0  0  0  0  0  0  0  0  0
   62.7666   33.2253   46.5039 H   0  0  0  0  0  0  0  0  0  0  0  0
   64.6682   33.2010   48.1250 H   0  0  0  0  0  0  0  0  0  0  0  0
   64.2717   33.7668   50.5248 H   0  0  0  0  0  0  0  0  0  0  0  0
   61.9727   34.3519   51.3074 H   0  0  0  0  0  0  0  0  0  0  0  0
   60.0697   34.3760   49.6907 H   0  0  0  0  0  0  0  0  0  0  0  0
   57.9804   33.6599   50.8235 H   0  0  0  0  0  0  0  0  0  0  0  0
   58.5858   35.4238   52.4787 H   0  0  0  0  0  0  0  0  0  0  0  0
  1  2  1  0
  2  3  2  0
  3  4  1  0
  4  5  2  0
  5  6  1  0
  6  7  2  0
  6  8  2  0
  6  9  1  0
  9 10  1  0
 10 11  1  0
 11 12  2  0
 11 13  1  0
 13 14  1  0
 14 15  1  0
 15 16  2  0
 15 17  1  0
 17 18  1  0
 18 19  2  0
 18 20  1  0
 20 21  1  0
 21 22  1  0
 22 23  1  0
 23 24  2  0
 23 25  2  0
 23 26  1  0
 26 27  2  0
 27 28  1  0
 28 29  2  0
 29 30  1  0
 30 31  2  0
  5 32  1  0
 32 33  2  0
 33  2  1  0
 31 26  1  0
  1 34  1  0
  1 35  1  0
  1 36  1  0
  3 37  1  0
  4 38  1  0
 10 39  1  0
 10 40  1  0
 14 41  1  0
 14 42  1  0
 17 43  1  0
 20 44  1  0
 20 45  1  0
 21 46  1  0
 21 47  1  0
 22 48  1  0
 27 49  1  0
 28 50  1  0
 29 51  1  0
 30 52  1  0
 31 53  1  0
 32 54  1  0
 33 55  1  0
M  CHG  1   9  -1
M  END
>  <UniqueID>  (68) 
64

>  <SMILES>  (68) 
Cc1ccc(S(=O)(=O)[N-]CC(=O)OCC(=O)NC(=O)CCNS(=O)(=O)c2ccccc2)cc1

>  <Energy>  (68) 
41.796410339603575

>  <Genealogy>  (68) 
Cc1ccc(S(=O)(=O)[N-]CC(=O)OCC(=O)NC(=O)CCNS(=O)(=O)c2ccccc2)cc1 (protonated)
Cc1ccc(S(=O)(=O)[N-]CC(=O)OCC(=O)NC(=O)CCNS(=O)(=O)c2ccccc2)cc1 (3D coordinates assigned)
Cc1ccc(S(=O)(=O)[N-]CC(=O)OCC(=O)NC(=O)CCNS(=O)(=O)c2ccccc2)cc1 (optimized conformer: 41.796410339603575 kcal/mol)

>  <smiles>  (68) 
Cc1ccc(S(=O)(=O)NCC(=O)OCC(=O)NC(=O)CCNS(=O)(=O)c2ccccc2)cc1

>  <score_type>  (68) 
oracle

>  <origin>  (68) 
adg

>  <m_score__min__energy>  (68) 
-10.23

>  <m_primary>  (68) 
energy

$$$$
68:0
     RDKit          3D

 35 36  0  0  0  0  0  0  0  0999 V2000
   57.4120   31.9600   42.0860 C   0  0  0  0  0  0  0  0  0  0  0  0
   57.3620   31.4370   43.4510 N   0  0  0  0  0  0  0  0  0  0  0  0
   57.7710   32.2540   44.5640 C   0  0  0  0  0  0  0  0  0  0  0  0
   57.0460   33.4080   44.9010 C   0  0  0  0  0  0  0  0  0  0  0  0
   57.4360   34.1960   45.9860 C   0  0  0  0  0  0  0  0  0  0  0  0
   58.5560   33.8450   46.7430 C   0  0  0  0  0  0  0  0  0  0  0  0
   59.3060   32.7040   46.4110 C   0  0  0  0  0  0  0  0  0  0  0  0
   60.4490   32.3070   47.1880 N   0  0  0  0  0  0  0  0  0  0  0  0
   61.7200   32.9800   47.1470 C   0  0  0  0  0  0  0  0  0  0  0  0
   61.9750   33.7880   46.2130 O   0  0  0  0  0  0  0  0  0  0  0  0
   62.7460   32.7010   48.1730 C   0  0  0  0  0  0  0  0  0  0  0  0
   63.9830   33.3670   48.1720 C   0  0  0  0  0  0  0  0  0  0  0  0
   64.8980   33.0850   49.1360 N   0  0  0  0  0  0  0  0  0  0  0  0
   64.6410   32.1690   50.1070 C   0  0  0  0  0  0  0  0  0  0  0  0
   63.4140   31.5060   50.1150 C   0  0  0  0  0  0  0  0  0  0  0  0
   62.4970   31.7860   49.1520 N   0  0  0  0  0  0  0  0  0  0  0  0
   58.8950   31.9030   45.3350 C   0  0  0  0  0  0  0  0  0  0  0  0
   56.6110   29.8910   43.7280 S   0  0  0  0  0  0  0  0  0  0  0  0
   57.8370   28.6820   44.1830 C   0  0  0  0  0  0  0  0  0  0  0  0
   55.8910   29.4480   42.4860 O   0  0  0  0  0  0  0  0  0  0  0  0
   55.6240   30.0020   44.8560 O   0  0  0  0  0  0  0  0  0  0  0  0
   57.5166   33.0546   42.1163 H   0  0  0  0  0  0  0  0  0  0  0  0
   58.2725   31.5239   41.5575 H   0  0  0  0  0  0  0  0  0  0  0  0
   56.4844   31.6948   41.5575 H   0  0  0  0  0  0  0  0  0  0  0  0
   56.1654   33.6933   44.3068 H   0  0  0  0  0  0  0  0  0  0  0  0
   56.8592   35.0961   46.2453 H   0  0  0  0  0  0  0  0  0  0  0  0
   58.8522   34.4642   47.6026 H   0  0  0  0  0  0  0  0  0  0  0  0
   60.3760   31.4240   47.7430 H   0  0  0  0  0  0  0  0  0  0  0  0
   64.2094   34.1124   47.3954 H   0  0  0  0  0  0  0  0  0  0  0  0
   65.3938   31.9527   50.8793 H   0  0  0  0  0  0  0  0  0  0  0  0
   63.1904   30.7626   50.8944 H   0  0  0  0  0  0  0  0  0  0  0  0
   59.4578   30.9899   45.0910 H   0  0  0  0  0  0  0  0  0  0  0  0
   57.9008   28.6191   45.2793 H   0  0  0  0  0  0  0  0  0  0  0  0
   57.5531   27.7006   43.7753 H   0  0  0  0  0  0  0  0  0  0  0  0
   58.8144   28.9796   43.7753 H   0  0  0  0  0  0  0  0  0  0  0  0
  1  2  1  0
  2  3  1  0
  3  4  2  0
  4  5  1  0
  5  6  2  0
  6  7  1  0
  7  8  1  0
  8  9  1  0
  9 10  2  0
  9 11  1  0
 11 12  2  0
 12 13  1  0
 13 14  2  0
 14 15  1  0
 15 16  2  0
  7 17  2  0
  2 18  1  0
 18 19  1  0
 18 20  2  0
 18 21  2  0
 17  3  1  0
 16 11  1  0
  1 22  1  0
  1 23  1  0
  1 24  1  0
  4 25  1  0
  5 26  1  0
  6 27  1  0
  8 28  1  0
 12 29  1  0
 14 30  1  0
 15 31  1  0
 17 32  1  0
 19 33  1  0
 19 34  1  0
 19 35  1  0
M  END
>  <UniqueID>  (69) 
65

>  <SMILES>  (69) 
CN(c1cccc(NC(=O)c2cnccn2)c1)S(C)(=O)=O

>  <Energy>  (69) 
41.347114849594014

>  <Genealogy>  (69) 
CN(c1cccc(NC(=O)c2cnccn2)c1)S(C)(=O)=O (3D coordinates assigned)
CN(c1cccc(NC(=O)c2cnccn2)c1)S(C)(=O)=O (optimized conformer: 41.347114849594014 kcal/mol)

>  <smiles>  (69) 
CN(c1cccc(NC(=O)c2cnccn2)c1)S(C)(=O)=O

>  <score_type>  (69) 
oracle

>  <origin>  (69) 
adg

>  <m_score__min__energy>  (69) 
-7.1100000000000003

>  <m_primary>  (69) 
energy

$$$$
69:0
     RDKit          3D

 54 57  0  0  0  0  0  0  0  0999 V2000
   61.1390   33.3510   46.9410 C   0  0  0  0  0  0  0  0  0  0  0  0
   59.7420   33.6340   46.4600 C   0  0  0  0  0  0  0  0  0  0  0  0
   59.5500   34.4580   45.3380 C   0  0  0  0  0  0  0  0  0  0  0  0
   58.2630   34.7390   44.8750 C   0  0  0  0  0  0  0  0  0  0  0  0
   57.1540   34.2100   45.5340 C   0  0  0  0  0  0  0  0  0  0  0  0
   57.3270   33.3980   46.6560 C   0  0  0  0  0  0  0  0  0  0  0  0
   58.6170   33.0920   47.1270 C   0  0  0  0  0  0  0  0  0  0  0  0
   58.7850   32.2830   48.3050 N   0  0  0  0  0  0  0  0  0  0  0  0
   59.3820   32.7660   49.5170 C   0  0  0  0  0  0  0  0  0  0  0  0
   59.6690   33.9860   49.6510 O   0  0  0  0  0  0  0  0  0  0  0  0
   59.6660   31.8180   50.6380 C   0  0  0  0  0  0  0  0  0  0  0  0
   61.2800   31.0200   50.3620 S   0  0  0  0  0  0  0  0  0  0  0  0
   60.5840   29.7090   49.3650 C   0  0  0  0  0  0  0  0  0  0  0  0
   60.6770   28.4200   49.7730 N   0  0  0  0  0  0  0  0  0  0  0  0
   60.1780   27.4330   49.0300 N   0  0  0  0  0  0  0  0  0  0  0  0
   59.5560   27.6770   47.8440 C   0  0  0  0  0  0  0  0  0  0  0  0
   59.1040   26.5220   47.0360 C   0  0  0  0  0  0  0  0  0  0  0  0
   60.0310   25.6700   46.4120 C   0  0  0  0  0  0  0  0  0  0  0  0
   59.5890   24.5810   45.6560 C   0  0  0  0  0  0  0  0  0  0  0  0
   58.2230   24.3220   45.5320 C   0  0  0  0  0  0  0  0  0  0  0  0
   57.2890   25.1460   46.1740 C   0  0  0  0  0  0  0  0  0  0  0  0
   55.5640   24.8280   46.0140 S   0  0  0  0  0  0  0  0  0  0  0  0
   54.7020   26.3250   45.9760 N   0  0  0  0  0  0  0  0  0  0  0  0
   55.0910   24.0020   47.1770 O   0  0  0  0  0  0  0  0  0  0  0  0
   55.2980   24.0680   44.7450 O   0  0  0  0  0  0  0  0  0  0  0  0
   57.7310   26.2430   46.9250 C   0  0  0  0  0  0  0  0  0  0  0  0
   59.4160   29.0210   47.4270 C   0  0  0  0  0  0  0  0  0  0  0  0
   58.6770   29.4200   46.2090 C   0  0  0  0  0  0  0  0  0  0  0  0
   57.3520   28.9980   45.9950 C   0  0  0  0  0  0  0  0  0  0  0  0
   56.6640   29.3930   44.8430 C   0  0  0  0  0  0  0  0  0  0  0  0
   57.2850   30.2220   43.9060 C   0  0  0  0  0  0  0  0  0  0  0  0
   58.5930   30.6650   44.1220 C   0  0  0  0  0  0  0  0  0  0  0  0
   59.2850   30.2720   45.2710 C   0  0  0  0  0  0  0  0  0  0  0  0
   59.9520   30.0000   48.2030 N   0  0  0  0  0  0  0  0  0  0  0  0
   61.1545   33.3479   48.0409 H   0  0  0  0  0  0  0  0  0  0  0  0
   61.4637   32.3688   46.5669 H   0  0  0  0  0  0  0  0  0  0  0  0
   61.8203   34.1294   46.5669 H   0  0  0  0  0  0  0  0  0  0  0  0
   60.4212   34.8854   44.8199 H   0  0  0  0  0  0  0  0  0  0  0  0
   58.1240   35.3777   43.9903 H   0  0  0  0  0  0  0  0  0  0  0  0
   56.1406   34.4331   45.1689 H   0  0  0  0  0  0  0  0  0  0  0  0
   56.4466   32.9935   47.1769 H   0  0  0  0  0  0  0  0  0  0  0  0
   58.4030   31.3100   48.3020 H   0  0  0  0  0  0  0  0  0  0  0  0
   59.6876   32.3703   51.5890 H   0  0  0  0  0  0  0  0  0  0  0  0
   58.8790   31.0506   50.6783 H   0  0  0  0  0  0  0  0  0  0  0  0
   61.1090   25.8610   46.5191 H   0  0  0  0  0  0  0  0  0  0  0  0
   60.3191   23.9265   45.1575 H   0  0  0  0  0  0  0  0  0  0  0  0
   57.8789   23.4689   44.9288 H   0  0  0  0  0  0  0  0  0  0  0  0
   55.0670   26.9060   46.7640 H   0  0  0  0  0  0  0  0  0  0  0  0
   56.9990   26.8898   47.4308 H   0  0  0  0  0  0  0  0  0  0  0  0
   56.8552   28.3550   46.7365 H   0  0  0  0  0  0  0  0  0  0  0  0
   55.6324   29.0503   44.6747 H   0  0  0  0  0  0  0  0  0  0  0  0
   56.7445   30.5264   42.9976 H   0  0  0  0  0  0  0  0  0  0  0  0
   59.0783   31.3237   43.3868 H   0  0  0  0  0  0  0  0  0  0  0  0
   60.3105   30.6313   45.4420 H   0  0  0  0  0  0  0  0  0  0  0  0
  1  2  1  0
  2  3  2  0
  3  4  1  0
  4  5  2  0
  5  6  1  0
  6  7  2  0
  7  8  1  0
  8  9  1  0
  9 10  2  0
  9 11  1  0
 11 12  1  0
 12 13  1  0
 13 14  2  0
 14 15  1  0
 15 16  2  0
 16 17  1  0
 17 18  2  0
 18 19  1  0
 19 20  2  0
 20 21  1  0
 21 22  1  0
 22 23  1  0
 22 24  2  0
 22 25  2  0
 21 26  2  0
 16 27  1  0
 27 28  1  0
 28 29  2  0
 29 30  1  0
 30 31  2  0
 31 32  1  0
 32 33  2  0
 27 34  2  0
  7  2  1  0
 34 13  1  0
 26 17  1  0
 33 28  1  0
  1 35  1  0
  1 36  1  0
  1 37  1  0
  3 38  1  0
  4 39  1  0
  5 40  1  0
  6 41  1  0
  8 42  1  0
 11 43  1  0
 11 44  1  0
 18 45  1  0
 19 46  1  0
 20 47  1  0
 23 48  1  0
 26 49  1  0
 29 50  1  0
 30 51  1  0
 31 52  1  0
 32 53  1  0
 33 54  1  0
M  CHG  1  23  -1
M  END
>  <UniqueID>  (70) 
66

>  <SMILES>  (70) 
Cc1ccccc1NC(=O)CSc1nnc(-c2cccc(S([NH-])(=O)=O)c2)c(-c2ccccc2)n1

>  <Energy>  (70) 
70.08331479771958

>  <Genealogy>  (70) 
Cc1ccccc1NC(=O)CSc1nnc(-c2cccc(S([NH-])(=O)=O)c2)c(-c2ccccc2)n1 (protonated)
Cc1ccccc1NC(=O)CSc1nnc(-c2cccc(S([NH-])(=O)=O)c2)c(-c2ccccc2)n1 (3D coordinates assigned)
Cc1ccccc1NC(=O)CSc1nnc(-c2cccc(S([NH-])(=O)=O)c2)c(-c2ccccc2)n1 (optimized conformer: 70.08331479771958 kcal/mol)

>  <smiles>  (70) 
Cc1ccccc1NC(=O)CSc1nnc(-c2cccc(S(N)(=O)=O)c2)c(-c2ccccc2)n1

>  <score_type>  (70) 
oracle

>  <origin>  (70) 
adg

>  <m_score__min__energy>  (70) 
-13.9

>  <m_primary>  (70) 
energy

$$$$
70:0
     RDKit          3D

 38 39  0  0  0  0  0  0  0  0999 V2000
   57.1949   33.2170   46.9224 H   0  0  0  0  0  0  0  0  0  0  0  0
   58.2770   33.0890   47.0730 C   0  0  0  0  0  0  0  0  0  0  0  0
   58.7330   32.3980   48.1480 N   0  0  0  0  0  0  0  0  0  0  0  0
   60.0560   32.2120   48.4090 C   0  0  0  0  0  0  0  0  0  0  0  0
   60.3550   31.5160   49.4730 N   0  0  0  0  0  0  0  0  0  0  0  0
   61.0880   30.2630   49.6030 C   0  0  0  0  0  0  0  0  0  0  0  0
   61.0472   29.9176   50.6466 H   0  0  0  0  0  0  0  0  0  0  0  0
   62.1390   30.4138   49.3154 H   0  0  0  0  0  0  0  0  0  0  0  0
   60.4590   29.2400   48.7100 C   0  0  0  0  0  0  0  0  0  0  0  0
   60.9180   28.0660   48.6980 O   0  0  0  0  0  0  0  0  0  0  0  0
   59.3500   29.6010   47.8720 N   0  0  0  0  0  0  0  0  0  0  0  0
   58.8390   30.4870   48.0900 H   0  0  0  0  0  0  0  0  0  0  0  0
   58.8240   28.7610   46.8310 C   0  0  0  0  0  0  0  0  0  0  0  0
   59.2980   28.8500   45.5100 C   0  0  0  0  0  0  0  0  0  0  0  0
   60.0919   29.5692   45.2598 H   0  0  0  0  0  0  0  0  0  0  0  0
   58.7640   28.0280   44.5140 C   0  0  0  0  0  0  0  0  0  0  0  0
   59.1489   28.0911   43.4855 H   0  0  0  0  0  0  0  0  0  0  0  0
   57.7420   27.1260   44.8220 C   0  0  0  0  0  0  0  0  0  0  0  0
   57.3392   26.4673   44.0385 H   0  0  0  0  0  0  0  0  0  0  0  0
   57.2270   27.0560   46.1250 C   0  0  0  0  0  0  0  0  0  0  0  0
   56.1540   26.0920   46.4400 C   0  0  0  0  0  0  0  0  0  0  0  0
   56.4300   25.0730   47.1250 O   0  0  0  0  0  0  0  0  0  0  0  0
   54.8120   26.2600   45.9630 N   0  0  0  0  0  0  0  0  0  0  0  0
   53.9080   25.1700   45.6180 C   0  0  0  0  0  0  0  0  0  0  0  0
   53.5239   24.7068   46.5388 H   0  0  0  0  0  0  0  0  0  0  0  0
   53.0676   25.5636   45.0274 H   0  0  0  0  0  0  0  0  0  0  0  0
   54.4503   24.4169   45.0274 H   0  0  0  0  0  0  0  0  0  0  0  0
   57.7800   27.8690   47.1270 C   0  0  0  0  0  0  0  0  0  0  0  0
   57.3918   27.8069   48.1544 H   0  0  0  0  0  0  0  0  0  0  0  0
   61.0100   32.7800   47.5170 C   0  0  0  0  0  0  0  0  0  0  0  0
   62.7620   32.6770   47.6880 Cl  0  0  0  0  0  0  0  0  0  0  0  0
   60.5490   33.4950   46.4040 C   0  0  0  0  0  0  0  0  0  0  0  0
   61.2749   33.9503   45.7142 H   0  0  0  0  0  0  0  0  0  0  0  0
   59.1780   33.6390   46.1560 C   0  0  0  0  0  0  0  0  0  0  0  0
   58.6740   34.4450   44.9840 C   0  0  0  0  0  0  0  0  0  0  0  0
   58.9810   33.8230   43.7860 F   0  0  0  0  0  0  0  0  0  0  0  0
   57.2980   34.5890   45.0560 F   0  0  0  0  0  0  0  0  0  0  0  0
   59.2610   35.6970   45.0060 F   0  0  0  0  0  0  0  0  0  0  0  0
  1  2  1  0
  2  3  1  0
  3  4  1  0
  4  5  2  0
  5  6  1  0
  6  7  1  0
  6  8  1  0
  6  9  1  0
  9 10  2  0
  9 11  1  0
 11 12  1  0
 11 13  1  0
 13 14  2  0
 14 15  1  0
 14 16  1  0
 16 17  1  0
 16 18  2  0
 18 19  1  0
 18 20  1  0
 20 21  1  0
 21 22  2  0
 21 23  1  0
 23 24  1  0
 24 25  1  0
 24 26  1  0
 24 27  1  0
 20 28  2  0
 28 29  1  0
  4 30  1  0
 30 31  1  0
 30 32  2  0
 32 33  1  0
 32 34  1  0
 34 35  1  0
 35 36  1  0
 35 37  1  0
 35 38  1  0
 34  2  2  0
 28 13  1  0
M  CHG  2   3  -1  23  -1
M  END
>  <UniqueID>  (71) 
67

>  <SMILES>  (71) 
C[N-]C(=O)c1cccc(NC(=O)C/N=c2/[n-]cc(C(F)(F)F)cc2Cl)c1

>  <Energy>  (71) 
53.28716397845647

>  <Genealogy>  (71) 
C[N-]C(=O)c1cccc(NC(=O)CN=c2[n-]cc(C(F)(F)F)cc2Cl)c1 (protonated)
C[N-]C(=O)c1cccc(NC(=O)C/N=c2/[n-]cc(C(F)(F)F)cc2Cl)c1 (cis-trans isomerization)
C[N-]C(=O)c1cccc(NC(=O)C/N=c2/[n-]cc(C(F)(F)F)cc2Cl)c1 (3D coordinates assigned)
C[N-]C(=O)c1cccc(NC(=O)C/N=c2/[n-]cc(C(F)(F)F)cc2Cl)c1 (optimized conformer: 53.28716397845647 kcal/mol)

>  <smiles>  (71) 
CNC(=O)c1cccc(NC(=O)CN=c2[nH]cc(C(F)(F)F)cc2Cl)c1

>  <score_type>  (71) 
oracle

>  <origin>  (71) 
adg

>  <m_score__min__energy>  (71) 
-11.289999999999999

>  <m_primary>  (71) 
energy

$$$$
71:0
     RDKit          3D

 57 60  0  0  0  0  0  0  0  0999 V2000
   55.6230   21.0790   49.6970 C   0  0  0  0  0  0  0  0  0  0  0  0
   55.8450   22.2250   48.7560 C   0  0  0  0  0  0  0  0  0  0  0  0
   56.9990   23.0150   48.8560 C   0  0  0  0  0  0  0  0  0  0  0  0
   57.2040   24.0780   47.9680 C   0  0  0  0  0  0  0  0  0  0  0  0
   56.2690   24.3530   46.9620 C   0  0  0  0  0  0  0  0  0  0  0  0
   56.5280   25.7210   45.8820 S   0  0  0  0  0  0  0  0  0  0  0  0
   56.5850   25.2140   44.4680 O   0  0  0  0  0  0  0  0  0  0  0  0
   55.4050   26.7170   45.9830 O   0  0  0  0  0  0  0  0  0  0  0  0
   58.0380   26.4820   46.2660 N   0  0  0  0  0  0  0  0  0  0  0  0
   58.2770   27.8980   46.2630 C   0  0  0  0  0  0  0  0  0  0  0  0
   58.9960   28.5160   47.2900 C   0  0  0  0  0  0  0  0  0  0  0  0
   59.2200   29.8920   47.2830 C   0  0  0  0  0  0  0  0  0  0  0  0
   60.0590   30.6070   48.7200 S   0  0  0  0  0  0  0  0  0  0  0  0
   58.7610   31.8570   49.0540 C   0  0  0  0  0  0  0  0  0  0  0  0
   59.3480   33.2150   49.3300 C   0  0  0  0  0  0  0  0  0  0  0  0
   59.1940   33.7210   50.4770 O   0  0  0  0  0  0  0  0  0  0  0  0
   60.0090   33.9820   48.3050 N   0  0  0  0  0  0  0  0  0  0  0  0
   59.2830   34.9810   47.5120 C   0  0  0  0  0  0  0  0  0  0  0  0
   61.4070   33.7690   48.0490 C   0  0  0  0  0  0  0  0  0  0  0  0
   62.2870   33.5160   49.1100 C   0  0  0  0  0  0  0  0  0  0  0  0
   63.6540   33.3380   48.8710 C   0  0  0  0  0  0  0  0  0  0  0  0
   64.1470   33.3990   47.5660 C   0  0  0  0  0  0  0  0  0  0  0  0
   63.2740   33.6520   46.4970 C   0  0  0  0  0  0  0  0  0  0  0  0
   61.9070   33.8370   46.7410 C   0  0  0  0  0  0  0  0  0  0  0  0
   58.7630   30.6760   46.2020 C   0  0  0  0  0  0  0  0  0  0  0  0
   59.0500   32.0540   46.1280 C   0  0  0  0  0  0  0  0  0  0  0  0
   58.5530   32.8300   45.0810 C   0  0  0  0  0  0  0  0  0  0  0  0
   57.7680   32.2470   44.0870 C   0  0  0  0  0  0  0  0  0  0  0  0
   57.4960   30.8790   44.1220 C   0  0  0  0  0  0  0  0  0  0  0  0
   57.9950   30.0650   45.1620 C   0  0  0  0  0  0  0  0  0  0  0  0
   57.7590   28.6650   45.2050 C   0  0  0  0  0  0  0  0  0  0  0  0
   57.0490   27.9840   44.2100 O   0  0  0  0  0  0  0  0  0  0  0  0
   55.1230   23.5480   46.8470 C   0  0  0  0  0  0  0  0  0  0  0  0
   54.9150   22.4900   47.7390 C   0  0  0  0  0  0  0  0  0  0  0  0
   55.6925   21.4377   50.7345 H   0  0  0  0  0  0  0  0  0  0  0  0
   54.6251   20.6501   49.5234 H   0  0  0  0  0  0  0  0  0  0  0  0
   56.3886   20.3084   49.5234 H   0  0  0  0  0  0  0  0  0  0  0  0
   57.7456   22.7990   49.6344 H   0  0  0  0  0  0  0  0  0  0  0  0
   58.1055   24.7014   48.0611 H   0  0  0  0  0  0  0  0  0  0  0  0
   59.3912   27.9072   48.1166 H   0  0  0  0  0  0  0  0  0  0  0  0
   58.1002   31.9266   48.1773 H   0  0  0  0  0  0  0  0  0  0  0  0
   58.2028   31.5388   49.9468 H   0  0  0  0  0  0  0  0  0  0  0  0
   58.7722   35.6839   48.1865 H   0  0  0  0  0  0  0  0  0  0  0  0
   59.9929   35.5319   46.8775 H   0  0  0  0  0  0  0  0  0  0  0  0
   58.5398   34.4759   46.8775 H   0  0  0  0  0  0  0  0  0  0  0  0
   61.9002   33.4569   50.1380 H   0  0  0  0  0  0  0  0  0  0  0  0
   64.3397   33.1502   49.7103 H   0  0  0  0  0  0  0  0  0  0  0  0
   65.2200   33.2487   47.3760 H   0  0  0  0  0  0  0  0  0  0  0  0
   63.6623   33.7050   45.4692 H   0  0  0  0  0  0  0  0  0  0  0  0
   61.2231   34.0364   45.9029 H   0  0  0  0  0  0  0  0  0  0  0  0
   59.6727   32.5225   46.9044 H   0  0  0  0  0  0  0  0  0  0  0  0
   58.7810   33.9053   45.0393 H   0  0  0  0  0  0  0  0  0  0  0  0
   57.3624   32.8667   43.2737 H   0  0  0  0  0  0  0  0  0  0  0  0
   56.8836   30.4279   43.3274 H   0  0  0  0  0  0  0  0  0  0  0  0
   56.7170   27.0380   44.2840 H   0  0  0  0  0  0  0  0  0  0  0  0
   54.3878   23.7499   46.0541 H   0  0  0  0  0  0  0  0  0  0  0  0
   54.0170   21.8622   47.6424 H   0  0  0  0  0  0  0  0  0  0  0  0
  1  2  1  0
  2  3  2  0
  3  4  1  0
  4  5  2  0
  5  6  1  0
  6  7  2  0
  6  8  2  0
  6  9  1  0
  9 10  1  0
 10 11  2  0
 11 12  1  0
 12 13  1  0
 13 14  1  0
 14 15  1  0
 15 16  2  0
 15 17  1  0
 17 18  1  0
 17 19  1  0
 19 20  2  0
 20 21  1  0
 21 22  2  0
 22 23  1  0
 23 24  2  0
 12 25  2  0
 25 26  1  0
 26 27  2  0
 27 28  1  0
 28 29  2  0
 29 30  1  0
 30 31  2  0
 31 32  1  0
  5 33  1  0
 33 34  2  0
 34  2  1  0
 31 10  1  0
 24 19  1  0
 30 25  1  0
  1 35  1  0
  1 36  1  0
  1 37  1  0
  3 38  1  0
  4 39  1  0
 11 40  1  0
 14 41  1  0
 14 42  1  0
 18 43  1  0
 18 44  1  0
 18 45  1  0
 20 46  1  0
 21 47  1  0
 22 48  1  0
 23 49  1  0
 24 50  1  0
 26 51  1  0
 27 52  1  0
 28 53  1  0
 29 54  1  0
 32 55  1  0
 33 56  1  0
 34 57  1  0
M  CHG  1   9  -1
M  END
>  <UniqueID>  (72) 
68

>  <SMILES>  (72) 
Cc1ccc(S(=O)(=O)[N-]c2cc(SCC(=O)N(C)c3ccccc3)c3ccccc3c2O)cc1

>  <Energy>  (72) 
73.73920750554892

>  <Genealogy>  (72) 
Cc1ccc(S(=O)(=O)[N-]c2cc(SCC(=O)N(C)c3ccccc3)c3ccccc3c2O)cc1 (protonated)
Cc1ccc(S(=O)(=O)[N-]c2cc(SCC(=O)N(C)c3ccccc3)c3ccccc3c2O)cc1 (3D coordinates assigned)
Cc1ccc(S(=O)(=O)[N-]c2cc(SCC(=O)N(C)c3ccccc3)c3ccccc3c2O)cc1 (optimized conformer: 73.73920750554892 kcal/mol)

>  <smiles>  (72) 
Cc1ccc(S(=O)(=O)Nc2cc(SCC(=O)N(C)c3ccccc3)c3ccccc3c2O)cc1

>  <score_type>  (72) 
oracle

>  <origin>  (72) 
adg

>  <m_score__min__energy>  (72) 
-11.23

>  <m_primary>  (72) 
energy

$$$$
72:0
     RDKit          3D

 52 55  0  0  0  0  0  0  0  0999 V2000
   57.0280   34.1660   44.3300 O   0  0  0  0  0  0  0  0  0  0  0  0
   57.9460   33.3350   44.5640 C   0  0  0  0  0  0  0  0  0  0  0  0
   59.2320   33.8240   44.9750 N   0  0  0  0  0  0  0  0  0  0  0  0
   59.7170   34.1140   46.6160 S   0  0  0  0  0  0  0  0  0  0  0  0
   59.7880   35.5990   46.8260 O   0  0  0  0  0  0  0  0  0  0  0  0
   58.6820   33.5390   47.5420 O   0  0  0  0  0  0  0  0  0  0  0  0
   61.2670   33.3230   46.9470 C   0  0  0  0  0  0  0  0  0  0  0  0
   62.4390   34.0440   46.6700 C   0  0  0  0  0  0  0  0  0  0  0  0
   63.6870   33.5420   47.0420 C   0  0  0  0  0  0  0  0  0  0  0  0
   63.7790   32.3210   47.7090 C   0  0  0  0  0  0  0  0  0  0  0  0
   62.6250   31.5770   47.9640 C   0  0  0  0  0  0  0  0  0  0  0  0
   61.3690   32.0430   47.5480 C   0  0  0  0  0  0  0  0  0  0  0  0
   60.2360   31.1710   47.7040 N   0  0  0  0  0  0  0  0  0  0  0  0
   60.2160   29.7770   47.3300 C   0  0  0  0  0  0  0  0  0  0  0  0
   60.4640   29.4480   45.9860 C   0  0  0  0  0  0  0  0  0  0  0  0
   60.5460   28.1160   45.5810 C   0  0  0  0  0  0  0  0  0  0  0  0
   60.3740   27.0900   46.5110 C   0  0  0  0  0  0  0  0  0  0  0  0
   60.0930   27.3950   47.8440 C   0  0  0  0  0  0  0  0  0  0  0  0
   59.9820   28.7310   48.2620 C   0  0  0  0  0  0  0  0  0  0  0  0
   59.5520   28.9910   49.6420 C   0  0  0  0  0  0  0  0  0  0  0  0
   60.0350   28.2950   50.5730 O   0  0  0  0  0  0  0  0  0  0  0  0
   58.5430   29.9910   49.8770 N   0  0  0  0  0  0  0  0  0  0  0  0
   58.5710   31.0930   50.5800 C   0  0  0  0  0  0  0  0  0  0  0  0
   57.6580   31.3880   51.6210 C   0  0  0  0  0  0  0  0  0  0  0  0
   57.7540   32.6070   52.2960 C   0  0  0  0  0  0  0  0  0  0  0  0
   58.7500   33.5190   51.9520 C   0  0  0  0  0  0  0  0  0  0  0  0
   59.6470   33.1950   50.9350 C   0  0  0  0  0  0  0  0  0  0  0  0
   59.5380   32.0050   50.2840 N   0  0  0  0  0  0  0  0  0  0  0  0
   57.6570   31.8910   44.4340 C   0  0  0  0  0  0  0  0  0  0  0  0
   57.6390   31.0790   45.5800 C   0  0  0  0  0  0  0  0  0  0  0  0
   57.3160   29.7230   45.4830 C   0  0  0  0  0  0  0  0  0  0  0  0
   57.0290   29.1600   44.2380 C   0  0  0  0  0  0  0  0  0  0  0  0
   57.0800   29.9500   43.0860 C   0  0  0  0  0  0  0  0  0  0  0  0
   57.4010   31.3100   43.1730 C   0  0  0  0  0  0  0  0  0  0  0  0
   57.4200   32.2660   41.6910 Cl  0  0  0  0  0  0  0  0  0  0  0  0
   62.3733   35.0137   46.1549 H   0  0  0  0  0  0  0  0  0  0  0  0
   64.5994   34.1104   46.8087 H   0  0  0  0  0  0  0  0  0  0  0  0
   64.7599   31.9440   48.0341 H   0  0  0  0  0  0  0  0  0  0  0  0
   62.7016   30.6171   48.4957 H   0  0  0  0  0  0  0  0  0  0  0  0
   59.3960   31.5580   48.1920 H   0  0  0  0  0  0  0  0  0  0  0  0
   60.5949   30.2505   45.2451 H   0  0  0  0  0  0  0  0  0  0  0  0
   60.7466   27.8738   44.5269 H   0  0  0  0  0  0  0  0  0  0  0  0
   60.4599   26.0403   46.1936 H   0  0  0  0  0  0  0  0  0  0  0  0
   59.9574   26.5823   48.5728 H   0  0  0  0  0  0  0  0  0  0  0  0
   56.8785   30.6623   51.8963 H   0  0  0  0  0  0  0  0  0  0  0  0
   57.0427   32.8474   53.0999 H   0  0  0  0  0  0  0  0  0  0  0  0
   58.8275   34.4828   52.4765 H   0  0  0  0  0  0  0  0  0  0  0  0
   60.4433   33.9018   50.6587 H   0  0  0  0  0  0  0  0  0  0  0  0
   57.8810   31.5138   46.5610 H   0  0  0  0  0  0  0  0  0  0  0  0
   57.2878   29.0986   46.3882 H   0  0  0  0  0  0  0  0  0  0  0  0
   56.7629   28.0953   44.1637 H   0  0  0  0  0  0  0  0  0  0  0  0
   56.8666   29.5004   42.1050 H   0  0  0  0  0  0  0  0  0  0  0  0
  1  2  2  0
  2  3  1  0
  3  4  1  0
  4  5  2  0
  4  6  2  0
  4  7  1  0
  7  8  2  0
  8  9  1  0
  9 10  2  0
 10 11  1  0
 11 12  2  0
 12 13  1  0
 13 14  1  0
 14 15  2  0
 15 16  1  0
 16 17  2  0
 17 18  1  0
 18 19  2  0
 19 20  1  0
 20 21  2  0
 20 22  1  0
 22 23  2  3
 23 24  1  0
 24 25  2  0
 25 26  1  0
 26 27  2  0
 27 28  1  0
  2 29  1  0
 29 30  2  0
 30 31  1  0
 31 32  2  0
 32 33  1  0
 33 34  2  0
 34 35  1  0
 12  7  1  0
 19 14  1  0
 28 23  1  0
 34 29  1  0
  8 36  1  0
  9 37  1  0
 10 38  1  0
 11 39  1  0
 13 40  1  0
 15 41  1  0
 16 42  1  0
 17 43  1  0
 18 44  1  0
 24 45  1  0
 25 46  1  0
 26 47  1  0
 27 48  1  0
 30 49  1  0
 31 50  1  0
 32 51  1  0
 33 52  1  0
M  CHG  2   3  -1  28  -1
M  END
>  <UniqueID>  (73) 
69

>  <SMILES>  (73) 
O=C([N-]S(=O)(=O)c1ccccc1Nc1ccccc1C(=O)N=c1cccc[n-]1)c1ccccc1Cl

>  <Energy>  (73) 
86.87889302493105

>  <Genealogy>  (73) 
O=C([N-]S(=O)(=O)c1ccccc1Nc1ccccc1C(=O)N=c1cccc[n-]1)c1ccccc1Cl (protonated)
O=C([N-]S(=O)(=O)c1ccccc1Nc1ccccc1C(=O)N=c1cccc[n-]1)c1ccccc1Cl (3D coordinates assigned)
O=C([N-]S(=O)(=O)c1ccccc1Nc1ccccc1C(=O)N=c1cccc[n-]1)c1ccccc1Cl (optimized conformer: 86.87889302493105 kcal/mol)

>  <smiles>  (73) 
O=C(NS(=O)(=O)c1ccccc1Nc1ccccc1C(=O)N=c1cccc[nH]1)c1ccccc1Cl

>  <score_type>  (73) 
oracle

>  <origin>  (73) 
adg

>  <m_score__min__energy>  (73) 
-13.15

>  <m_primary>  (73) 
energy

$$$$
73:0
     RDKit          3D

 52 55  0  0  0  0  0  0  0  0999 V2000
   59.5110   34.9640   45.5030 C   0  0  0  0  0  0  0  0  0  0  0  0
   60.2100   34.0390   46.4550 C   0  0  0  0  0  0  0  0  0  0  0  0
   61.6050   33.9110   46.4170 C   0  0  0  0  0  0  0  0  0  0  0  0
   62.2680   33.0790   47.3310 C   0  0  0  0  0  0  0  0  0  0  0  0
   63.7570   32.9110   47.2570 C   0  0  0  0  0  0  0  0  0  0  0  0
   61.5240   32.3580   48.2760 C   0  0  0  0  0  0  0  0  0  0  0  0
   60.1250   32.4920   48.3400 C   0  0  0  0  0  0  0  0  0  0  0  0
   59.3650   31.7680   49.3280 N   0  0  0  0  0  0  0  0  0  0  0  0
   58.6490   32.5010   50.3830 C   0  0  0  0  0  0  0  0  0  0  0  0
   58.5840   31.7010   51.7030 C   0  0  0  0  0  0  0  0  0  0  0  0
   58.7440   30.2420   51.5140 N   0  0  0  0  0  0  0  0  0  0  0  0
   58.2680   29.4520   52.6690 C   0  0  0  0  0  0  0  0  0  0  0  0
   56.7660   29.4160   52.7950 C   0  0  0  0  0  0  0  0  0  0  0  0
   56.0020   28.3500   53.2170 C   0  0  0  0  0  0  0  0  0  0  0  0
   54.7440   28.7230   53.1790 O   0  0  0  0  0  0  0  0  0  0  0  0
   54.7070   29.9690   52.7530 C   0  0  0  0  0  0  0  0  0  0  0  0
   53.4500   30.7320   52.5780 C   0  0  0  0  0  0  0  0  0  0  0  0
   52.5320   30.8940   53.6330 C   0  0  0  0  0  0  0  0  0  0  0  0
   51.3520   31.6210   53.4410 C   0  0  0  0  0  0  0  0  0  0  0  0
   51.0770   32.1950   52.1970 C   0  0  0  0  0  0  0  0  0  0  0  0
   49.9040   32.9170   52.0080 O   0  0  0  0  0  0  0  0  0  0  0  0
   51.9810   32.0410   51.1430 C   0  0  0  0  0  0  0  0  0  0  0  0
   53.1610   31.3160   51.3320 C   0  0  0  0  0  0  0  0  0  0  0  0
   55.9480   30.4420   52.5040 N   0  0  0  0  0  0  0  0  0  0  0  0
   58.2130   29.7730   50.2250 C   0  0  0  0  0  0  0  0  0  0  0  0
   59.0870   30.3400   49.1090 C   0  0  0  0  0  0  0  0  0  0  0  0
   59.4780   33.3430   47.4290 C   0  0  0  0  0  0  0  0  0  0  0  0
   58.9434   35.7152   46.0718 H   0  0  0  0  0  0  0  0  0  0  0  0
   60.2551   35.4690   44.8696 H   0  0  0  0  0  0  0  0  0  0  0  0
   58.8220   34.3861   44.8696 H   0  0  0  0  0  0  0  0  0  0  0  0
   62.1841   34.4670   45.6650 H   0  0  0  0  0  0  0  0  0  0  0  0
   64.1717   32.8642   48.2747 H   0  0  0  0  0  0  0  0  0  0  0  0
   63.9948   31.9803   46.7210 H   0  0  0  0  0  0  0  0  0  0  0  0
   64.1962   33.7653   46.7210 H   0  0  0  0  0  0  0  0  0  0  0  0
   62.0390   31.6813   48.9738 H   0  0  0  0  0  0  0  0  0  0  0  0
   59.1689   33.4522   50.5697 H   0  0  0  0  0  0  0  0  0  0  0  0
   57.6184   32.6712   50.0383 H   0  0  0  0  0  0  0  0  0  0  0  0
   59.3862   32.0568   52.3663 H   0  0  0  0  0  0  0  0  0  0  0  0
   57.5852   31.8652   52.1336 H   0  0  0  0  0  0  0  0  0  0  0  0
   58.6330   28.4202   52.5592 H   0  0  0  0  0  0  0  0  0  0  0  0
   58.6572   29.9380   53.5758 H   0  0  0  0  0  0  0  0  0  0  0  0
   56.3781   27.3646   53.5293 H   0  0  0  0  0  0  0  0  0  0  0  0
   52.7439   30.4460   54.6150 H   0  0  0  0  0  0  0  0  0  0  0  0
   50.6397   31.7409   54.2706 H   0  0  0  0  0  0  0  0  0  0  0  0
   51.7638   32.4909   50.1630 H   0  0  0  0  0  0  0  0  0  0  0  0
   53.8698   31.2013   50.4986 H   0  0  0  0  0  0  0  0  0  0  0  0
   56.2320   31.3890   52.1680 H   0  0  0  0  0  0  0  0  0  0  0  0
   58.2350   28.6737   50.1920 H   0  0  0  0  0  0  0  0  0  0  0  0
   57.1735   30.1100   50.0992 H   0  0  0  0  0  0  0  0  0  0  0  0
   60.0385   29.7887   49.0825 H   0  0  0  0  0  0  0  0  0  0  0  0
   58.5503   30.2307   48.1551 H   0  0  0  0  0  0  0  0  0  0  0  0
   58.3860   33.4651   47.4796 H   0  0  0  0  0  0  0  0  0  0  0  0
  1  2  1  0
  2  3  2  0
  3  4  1  0
  4  5  1  0
  4  6  2  0
  6  7  1  0
  7  8  1  0
  8  9  1  0
  9 10  1  0
 10 11  1  0
 11 12  1  0
 12 13  1  0
 13 14  2  0
 14 15  1  0
 15 16  1  0
 16 17  1  0
 17 18  2  0
 18 19  1  0
 19 20  2  0
 20 21  1  0
 20 22  1  0
 22 23  2  0
 16 24  2  0
 11 25  1  0
 25 26  1  0
  7 27  2  0
 27  2  1  0
 26  8  1  0
 24 13  1  0
 23 17  1  0
  1 28  1  0
  1 29  1  0
  1 30  1  0
  3 31  1  0
  5 32  1  0
  5 33  1  0
  5 34  1  0
  6 35  1  0
  9 36  1  0
  9 37  1  0
 10 38  1  0
 10 39  1  0
 12 40  1  0
 12 41  1  0
 14 42  1  0
 18 43  1  0
 19 44  1  0
 22 45  1  0
 23 46  1  0
 24 47  1  0
 25 48  1  0
 25 49  1  0
 26 50  1  0
 26 51  1  0
 27 52  1  0
M  CHG  2  21  -1  24   1
M  END
>  <UniqueID>  (74) 
70

>  <SMILES>  (74) 
Cc1cc(C)cc(N2CCN(Cc3coc(-c4ccc([O-])cc4)[nH+]3)CC2)c1

>  <Energy>  (74) 
96.48436341968367

>  <Genealogy>  (74) 
Cc1cc(C)cc(N2CCN(Cc3coc(-c4ccc([O-])cc4)[nH+]3)CC2)c1 (protonated)
Cc1cc(C)cc(N2CCN(Cc3coc(-c4ccc([O-])cc4)[nH+]3)CC2)c1 (3D coordinates assigned)
Cc1cc(C)cc(N2CCN(Cc3coc(-c4ccc([O-])cc4)[nH+]3)CC2)c1 (nonaromatic ring conformer: 96.48436341968367 kcal/mol)

>  <smiles>  (74) 
Cc1cc(C)cc(N2CCN(Cc3coc(-c4ccc(O)cc4)n3)CC2)c1

>  <score_type>  (74) 
oracle

>  <origin>  (74) 
adg

>  <m_score__min__energy>  (74) 
-10.66

>  <m_primary>  (74) 
energy

$$$$
74:0
     RDKit          3D

 50 54  0  0  1  0  0  0  0  0999 V2000
   56.4880   29.8590   42.6460 C   0  0  0  0  0  0  0  0  0  0  0  0
   57.1280   30.3100   43.9040 C   0  0  0  0  0  0  0  0  0  0  0  0
   57.0180   31.6070   44.3450 C   0  0  0  0  0  0  0  0  0  0  0  0
   57.6150   32.0440   45.5260 C   0  0  0  0  0  0  0  0  0  0  0  0
   57.4600   33.2430   45.8430 N   0  0  0  0  0  0  0  0  0  0  0  0
   58.3320   34.3130   45.4970 C   0  0  0  0  0  0  0  0  0  0  0  0
   59.5070   34.1470   46.4600 C   0  0  0  0  0  0  0  0  0  0  0  0
   60.7340   33.7200   45.9920 C   0  0  0  0  0  0  0  0  0  0  0  0
   61.8110   33.5580   46.8360 C   0  0  0  0  0  0  0  0  0  0  0  0
   61.5910   33.8470   48.1720 C   0  0  0  0  0  0  0  0  0  0  0  0
   62.7290   33.6760   49.0690 C   0  0  0  0  0  0  0  0  0  0  0  0
   63.8030   32.9230   48.6070 C   0  0  0  0  0  0  0  0  0  0  0  0
   64.9240   32.7140   49.3990 C   0  0  0  0  0  0  0  0  0  0  0  0
   64.9680   33.2540   50.6410 N   0  0  0  0  0  0  0  0  0  0  0  0
   63.9230   33.9840   51.0840 C   0  0  0  0  0  0  0  0  0  0  0  0
   62.7990   34.2110   50.3260 C   0  0  0  0  0  0  0  0  0  0  0  0
   60.3930   34.2720   48.6760 C   0  0  0  0  0  0  0  0  0  0  0  0
   59.3400   34.4230   47.8090 C   0  0  0  0  0  0  0  0  0  0  0  0
   58.3220   31.1930   46.2740 N   0  0  0  0  0  0  0  0  0  0  0  0
   58.9640   31.3520   47.3970 N   0  0  0  0  0  0  0  0  0  0  0  0
   59.4950   30.1200   47.6760 C   0  0  0  0  0  0  0  0  0  0  0  0
   60.3200   29.7750   48.8560 C   0  0  0  0  0  0  0  0  0  0  0  0
   61.1570   30.7050   49.4180 C   0  0  0  0  0  0  0  0  0  0  0  0
   61.9520   30.4250   50.5300 C   0  0  0  0  0  0  0  0  0  0  0  0
   61.8970   29.1490   51.0930 C   0  0  0  0  0  0  0  0  0  0  0  0
   61.0490   28.2290   50.5130 C   0  0  0  0  0  0  0  0  0  0  0  0
   60.2650   28.5140   49.4120 C   0  0  0  0  0  0  0  0  0  0  0  0
   59.1600   29.2480   46.7130 N   0  0  0  0  0  0  0  0  0  0  0  0
   58.4160   29.9260   45.8240 C   0  0  0  0  0  0  0  0  0  0  0  0
   57.8540   29.4770   44.6930 N   0  0  0  0  0  0  0  0  0  0  0  0
   55.6099   29.2402   42.8827 H   0  0  0  0  0  0  0  0  0  0  0  0
   56.1721   30.7352   42.0607 H   0  0  0  0  0  0  0  0  0  0  0  0
   57.2069   29.2668   42.0607 H   0  0  0  0  0  0  0  0  0  0  0  0
   56.4390   32.3247   43.7453 H   0  0  0  0  0  0  0  0  0  0  0  0
   58.6653   34.2255   44.4524 H   0  0  0  0  0  0  0  0  0  0  0  0
   57.8506   35.2988   45.5771 H   0  0  0  0  0  0  0  0  0  0  0  0
   60.8544   33.5041   44.9201 H   0  0  0  0  0  0  0  0  0  0  0  0
   62.7907   33.2181   46.4689 H   0  0  0  0  0  0  0  0  0  0  0  0
   63.7638   32.4861   47.5982 H   0  0  0  0  0  0  0  0  0  0  0  0
   65.7673   32.1165   49.0223 H   0  0  0  0  0  0  0  0  0  0  0  0
   63.9728   34.4157   52.0945 H   0  0  0  0  0  0  0  0  0  0  0  0
   61.9690   34.8133   50.7239 H   0  0  0  0  0  0  0  0  0  0  0  0
   60.2764   34.4872   49.7484 H   0  0  0  0  0  0  0  0  0  0  0  0
   58.3634   34.7630   48.1839 H   0  0  0  0  0  0  0  0  0  0  0  0
   59.1450   32.1140   48.0570 H   0  0  0  0  0  0  0  0  0  0  0  0
   61.2033   31.7107   48.9748 H   0  0  0  0  0  0  0  0  0  0  0  0
   62.6106   31.1965   50.9555 H   0  0  0  0  0  0  0  0  0  0  0  0
   62.5087   28.8864   51.9687 H   0  0  0  0  0  0  0  0  0  0  0  0
   60.9943   27.2201   50.9479 H   0  0  0  0  0  0  0  0  0  0  0  0
   59.6051   27.7449   48.9841 H   0  0  0  0  0  0  0  0  0  0  0  0
  1  2  1  0
  2  3  2  0
  3  4  1  0
  4  5  2  0
  5  6  1  0
  6  7  1  0
  7  8  2  0
  8  9  1  0
  9 10  2  0
 10 11  1  0
 11 12  2  0
 12 13  1  0
 13 14  2  0
 14 15  1  0
 15 16  2  0
 10 17  1  0
 17 18  2  0
  4 19  1  0
 19 20  1  0
 20 21  1  0
 21 22  1  0
 22 23  2  0
 23 24  1  0
 24 25  2  0
 25 26  1  0
 26 27  2  0
 21 28  2  0
 28 29  1  0
 29 30  2  0
 30  2  1  0
 18  7  1  0
 29 19  1  0
 16 11  1  0
 27 22  1  0
  1 31  1  0
  1 32  1  0
  1 33  1  0
  3 34  1  0
  6 35  1  0
  6 36  1  0
  8 37  1  0
  9 38  1  0
 12 39  1  0
 13 40  1  0
 15 41  1  0
 16 42  1  0
 17 43  1  0
 18 44  1  0
 20 45  1  0
 23 46  1  0
 24 47  1  0
 25 48  1  0
 26 49  1  0
 27 50  1  0
M  END
>  <smiles>  (75) 
Cc1cc(=NCc2ccc(-c3ccncc3)cc2)n2[nH]c(-c3ccccc3)nc2n1

>  <score_type>  (75) 
oracle

>  <origin>  (75) 
adg

>  <m_score__min__energy>  (75) 
-8.9000000000000004

>  <m_primary>  (75) 
energy

$$$$
75:0
     RDKit          3D

 36 38  0  0  0  0  0  0  0  0999 V2000
   57.4200   28.1710   43.3620 N   0  0  0  0  0  0  0  0  0  0  0  0
   56.6850   29.2990   44.4480 S   0  0  0  0  0  0  0  0  0  0  0  0
   55.2020   29.3280   44.2110 O   0  0  0  0  0  0  0  0  0  0  0  0
   56.9380   28.8680   45.8650 O   0  0  0  0  0  0  0  0  0  0  0  0
   57.3660   30.9020   44.1830 C   0  0  0  0  0  0  0  0  0  0  0  0
   57.4280   31.4360   42.8910 C   0  0  0  0  0  0  0  0  0  0  0  0
   57.9800   32.7010   42.6830 C   0  0  0  0  0  0  0  0  0  0  0  0
   58.4780   33.4390   43.7600 C   0  0  0  0  0  0  0  0  0  0  0  0
   58.4310   32.9130   45.0640 C   0  0  0  0  0  0  0  0  0  0  0  0
   58.9600   33.6770   46.2190 C   0  0  0  0  0  0  0  0  0  0  0  0
   59.5820   33.1810   47.3500 C   0  0  0  0  0  0  0  0  0  0  0  0
   59.8780   34.2470   48.1110 N   0  0  0  0  0  0  0  0  0  0  0  0
   60.4920   34.2300   49.4340 C   0  0  0  0  0  0  0  0  0  0  0  0
   61.9240   33.7680   49.3310 C   0  0  0  0  0  0  0  0  0  0  0  0
   62.5730   33.8200   48.0840 C   0  0  0  0  0  0  0  0  0  0  0  0
   63.8880   33.3660   47.9490 C   0  0  0  0  0  0  0  0  0  0  0  0
   64.5650   32.8460   49.0530 C   0  0  0  0  0  0  0  0  0  0  0  0
   63.9280   32.7740   50.2940 C   0  0  0  0  0  0  0  0  0  0  0  0
   62.6110   33.2250   50.4410 C   0  0  0  0  0  0  0  0  0  0  0  0
   61.8560   33.0900   52.0260 Cl  0  0  0  0  0  0  0  0  0  0  0  0
   59.4550   35.3380   47.4950 N   0  0  0  0  0  0  0  0  0  0  0  0
   58.8950   35.0210   46.3370 N   0  0  0  0  0  0  0  0  0  0  0  0
   57.8730   31.6370   45.2640 C   0  0  0  0  0  0  0  0  0  0  0  0
   56.6530   27.5730   42.9790 H   0  0  0  0  0  0  0  0  0  0  0  0
   57.8000   28.7220   42.5610 H   0  0  0  0  0  0  0  0  0  0  0  0
   57.0413   30.8583   42.0385 H   0  0  0  0  0  0  0  0  0  0  0  0
   58.0232   33.1190   41.6664 H   0  0  0  0  0  0  0  0  0  0  0  0
   58.9089   34.4362   43.5874 H   0  0  0  0  0  0  0  0  0  0  0  0
   59.7920   32.1260   47.5799 H   0  0  0  0  0  0  0  0  0  0  0  0
   60.4658   35.2434   49.8610 H   0  0  0  0  0  0  0  0  0  0  0  0
   59.9346   33.5380   50.0824 H   0  0  0  0  0  0  0  0  0  0  0  0
   62.0415   34.2210   47.2084 H   0  0  0  0  0  0  0  0  0  0  0  0
   64.3898   33.4186   46.9715 H   0  0  0  0  0  0  0  0  0  0  0  0
   65.6011   32.4925   48.9458 H   0  0  0  0  0  0  0  0  0  0  0  0
   64.4644   32.3605   51.1608 H   0  0  0  0  0  0  0  0  0  0  0  0
   57.8341   31.2121   46.2779 H   0  0  0  0  0  0  0  0  0  0  0  0
  1  2  1  0
  2  3  2  0
  2  4  2  0
  2  5  1  0
  5  6  2  0
  6  7  1  0
  7  8  2  0
  8  9  1  0
  9 10  1  0
 10 11  2  0
 11 12  1  0
 12 13  1  0
 13 14  1  0
 14 15  2  0
 15 16  1  0
 16 17  2  0
 17 18  1  0
 18 19  2  0
 19 20  1  0
 12 21  1  0
 21 22  2  0
  9 23  2  0
 23  5  1  0
 22 10  1  0
 19 14  1  0
  1 24  1  0
  1 25  1  0
  6 26  1  0
  7 27  1  0
  8 28  1  0
 11 29  1  0
 13 30  1  0
 13 31  1  0
 15 32  1  0
 16 33  1  0
 17 34  1  0
 18 35  1  0
 23 36  1  0
M  END
>  <UniqueID>  (76) 
71

>  <SMILES>  (76) 
NS(=O)(=O)c1cccc(-c2cn(Cc3ccccc3Cl)nn2)c1

>  <Energy>  (76) 
72.87497883594608

>  <Genealogy>  (76) 
NS(=O)(=O)c1cccc(-c2cn(Cc3ccccc3Cl)nn2)c1 (3D coordinates assigned)
NS(=O)(=O)c1cccc(-c2cn(Cc3ccccc3Cl)nn2)c1 (optimized conformer: 72.87497883594608 kcal/mol)

>  <smiles>  (76) 
NS(=O)(=O)c1cccc(-c2cn(Cc3ccccc3Cl)nn2)c1

>  <score_type>  (76) 
oracle

>  <origin>  (76) 
adg

>  <m_score__min__energy>  (76) 
-9.2300000000000004

>  <m_primary>  (76) 
energy

$$$$
76:0
     RDKit          3D

 55 57  0  0  0  0  0  0  0  0999 V2000
   60.2670   32.8370   51.3370 C   0  0  0  0  0  0  0  0  0  0  0  0
   59.6330   32.8100   50.0060 N   0  0  0  0  0  0  0  0  0  0  0  0
   58.2380   32.3420   50.1030 C   0  0  0  0  0  0  0  0  0  0  0  0
   59.7410   34.1150   49.3120 C   0  0  0  0  0  0  0  0  0  0  0  0
   59.3940   34.0390   47.8500 C   0  0  0  0  0  0  0  0  0  0  0  0
   60.2540   34.2820   46.7950 C   0  0  0  0  0  0  0  0  0  0  0  0
   59.4900   34.1580   45.6540 C   0  0  0  0  0  0  0  0  0  0  0  0
   58.2160   33.8470   46.0900 C   0  0  0  0  0  0  0  0  0  0  0  0
   57.0020   33.6950   45.2290 C   0  0  0  0  0  0  0  0  0  0  0  0
   56.6330   32.3190   45.1740 O   0  0  0  0  0  0  0  0  0  0  0  0
   57.1050   31.4410   44.1910 C   0  0  0  0  0  0  0  0  0  0  0  0
   58.2410   31.6150   43.6700 O   0  0  0  0  0  0  0  0  0  0  0  0
   56.2400   30.2970   43.7670 C   0  0  0  0  0  0  0  0  0  0  0  0
   55.8290   29.5060   44.9260 N   0  0  0  0  0  0  0  0  0  0  0  0
   56.9940   28.2580   45.2540 S   0  0  0  0  0  0  0  0  0  0  0  0
   56.3470   27.0820   45.9350 O   0  0  0  0  0  0  0  0  0  0  0  0
   57.5810   27.7870   43.9520 O   0  0  0  0  0  0  0  0  0  0  0  0
   58.2720   28.9100   46.2760 C   0  0  0  0  0  0  0  0  0  0  0  0
   59.3250   28.0870   46.6980 C   0  0  0  0  0  0  0  0  0  0  0  0
   60.3240   28.5950   47.5340 C   0  0  0  0  0  0  0  0  0  0  0  0
   60.2790   29.9260   47.9650 C   0  0  0  0  0  0  0  0  0  0  0  0
   61.3050   30.3990   48.7960 O   0  0  0  0  0  0  0  0  0  0  0  0
   62.2250   31.4060   48.4660 C   0  0  0  0  0  0  0  0  0  0  0  0
   62.4450   31.8140   47.1370 C   0  0  0  0  0  0  0  0  0  0  0  0
   63.3560   32.8360   46.8560 C   0  0  0  0  0  0  0  0  0  0  0  0
   64.0460   33.4650   47.8950 C   0  0  0  0  0  0  0  0  0  0  0  0
   63.8200   33.0770   49.2180 C   0  0  0  0  0  0  0  0  0  0  0  0
   62.9070   32.0560   49.5040 C   0  0  0  0  0  0  0  0  0  0  0  0
   59.2360   30.7580   47.5200 C   0  0  0  0  0  0  0  0  0  0  0  0
   58.2330   30.2480   46.6900 C   0  0  0  0  0  0  0  0  0  0  0  0
   58.1920   33.7750   47.3990 O   0  0  0  0  0  0  0  0  0  0  0  0
   59.4894   32.8039   52.1143 H   0  0  0  0  0  0  0  0  0  0  0  0
   60.9305   31.9663   51.4448 H   0  0  0  0  0  0  0  0  0  0  0  0
   60.8541   33.7610   51.4448 H   0  0  0  0  0  0  0  0  0  0  0  0
   60.1550   32.1110   49.4270 H   0  0  0  0  0  0  0  0  0  0  0  0
   57.9558   32.2473   51.1620 H   0  0  0  0  0  0  0  0  0  0  0  0
   57.5731   33.0663   49.6097 H   0  0  0  0  0  0  0  0  0  0  0  0
   58.1445   31.3633   49.6097 H   0  0  0  0  0  0  0  0  0  0  0  0
   59.0569   34.8267   49.7972 H   0  0  0  0  0  0  0  0  0  0  0  0
   60.7904   34.4371   49.3827 H   0  0  0  0  0  0  0  0  0  0  0  0
   61.3254   34.5240   46.8538 H   0  0  0  0  0  0  0  0  0  0  0  0
   59.8248   34.2810   44.6134 H   0  0  0  0  0  0  0  0  0  0  0  0
   56.1739   34.2808   45.6546 H   0  0  0  0  0  0  0  0  0  0  0  0
   57.2218   34.0585   44.2143 H   0  0  0  0  0  0  0  0  0  0  0  0
   55.3453   30.6884   43.2607 H   0  0  0  0  0  0  0  0  0  0  0  0
   56.8129   29.6534   43.0833 H   0  0  0  0  0  0  0  0  0  0  0  0
   59.3657   27.0377   46.3704 H   0  0  0  0  0  0  0  0  0  0  0  0
   61.1508   27.9444   47.8551 H   0  0  0  0  0  0  0  0  0  0  0  0
   61.8979   31.3267   46.3165 H   0  0  0  0  0  0  0  0  0  0  0  0
   63.5299   33.1456   45.8149 H   0  0  0  0  0  0  0  0  0  0  0  0
   64.7668   34.2653   47.6717 H   0  0  0  0  0  0  0  0  0  0  0  0
   64.3608   33.5751   50.0362 H   0  0  0  0  0  0  0  0  0  0  0  0
   62.7236   31.7621   50.5480 H   0  0  0  0  0  0  0  0  0  0  0  0
   59.2092   31.8142   47.8262 H   0  0  0  0  0  0  0  0  0  0  0  0
   57.4102   30.8997   46.3608 H   0  0  0  0  0  0  0  0  0  0  0  0
  1  2  1  0
  2  3  1  0
  2  4  1  0
  4  5  1  0
  5  6  2  0
  6  7  1  0
  7  8  2  0
  8  9  1  0
  9 10  1  0
 10 11  1  0
 11 12  2  0
 11 13  1  0
 13 14  1  0
 14 15  1  0
 15 16  2  0
 15 17  2  0
 15 18  1  0
 18 19  2  0
 19 20  1  0
 20 21  2  0
 21 22  1  0
 22 23  1  0
 23 24  2  0
 24 25  1  0
 25 26  2  0
 26 27  1  0
 27 28  2  0
 21 29  1  0
 29 30  2  0
  8 31  1  0
 31  5  1  0
 30 18  1  0
 28 23  1  0
  1 32  1  0
  1 33  1  0
  1 34  1  0
  2 35  1  0
  3 36  1  0
  3 37  1  0
  3 38  1  0
  4 39  1  0
  4 40  1  0
  6 41  1  0
  7 42  1  0
  9 43  1  0
  9 44  1  0
 13 45  1  0
 13 46  1  0
 19 47  1  0
 20 48  1  0
 24 49  1  0
 25 50  1  0
 26 51  1  0
 27 52  1  0
 28 53  1  0
 29 54  1  0
 30 55  1  0
M  CHG  2   2   1  14  -1
M  END
>  <UniqueID>  (77) 
72

>  <SMILES>  (77) 
C[NH+](C)Cc1ccc(COC(=O)C[N-]S(=O)(=O)c2ccc(Oc3ccccc3)cc2)o1

>  <Energy>  (77) 
81.55743620188949

>  <Genealogy>  (77) 
C[NH+](C)Cc1ccc(COC(=O)C[N-]S(=O)(=O)c2ccc(Oc3ccccc3)cc2)o1 (protonated)
C[NH+](C)Cc1ccc(COC(=O)C[N-]S(=O)(=O)c2ccc(Oc3ccccc3)cc2)o1 (3D coordinates assigned)
C[NH+](C)Cc1ccc(COC(=O)C[N-]S(=O)(=O)c2ccc(Oc3ccccc3)cc2)o1 (optimized conformer: 81.55743620188949 kcal/mol)

>  <smiles>  (77) 
CN(C)Cc1ccc(COC(=O)CNS(=O)(=O)c2ccc(Oc3ccccc3)cc2)o1

>  <score_type>  (77) 
oracle

>  <origin>  (77) 
adg

>  <m_score__min__energy>  (77) 
-8.5199999999999996

>  <m_primary>  (77) 
energy

$$$$
77:0
     RDKit          3D

 41 44  0  0  0  0  0  0  0  0999 V2000
   57.3365   20.8301   42.4109 H   0  0  0  0  0  0  0  0  0  0  0  0
   57.1320   21.5750   43.1940 C   0  0  0  0  0  0  0  0  0  0  0  0
   55.8950   22.1240   43.3010 N   0  0  0  0  0  0  0  0  0  0  0  0
   55.5940   23.0460   44.2550 C   0  0  0  0  0  0  0  0  0  0  0  0
   53.9610   23.6940   44.2990 Cl  0  0  0  0  0  0  0  0  0  0  0  0
   56.5860   23.4570   45.1690 C   0  0  0  0  0  0  0  0  0  0  0  0
   56.2400   24.6360   46.4410 S   0  0  0  0  0  0  0  0  0  0  0  0
   55.7520   23.9020   47.6580 O   0  0  0  0  0  0  0  0  0  0  0  0
   55.1740   25.6010   46.0020 O   0  0  0  0  0  0  0  0  0  0  0  0
   57.6770   25.5220   46.8400 N   0  0  0  0  0  0  0  0  0  0  0  0
   58.4840   24.9730   47.2140 H   0  0  0  0  0  0  0  0  0  0  0  0
   57.8660   26.9130   46.5270 C   0  0  0  0  0  0  0  0  0  0  0  0
   58.9200   27.6200   47.1510 C   0  0  0  0  0  0  0  0  0  0  0  0
   59.5708   27.1007   47.8699 H   0  0  0  0  0  0  0  0  0  0  0  0
   59.1470   28.9770   46.8650 C   0  0  0  0  0  0  0  0  0  0  0  0
   59.9708   29.5211   47.3501 H   0  0  0  0  0  0  0  0  0  0  0  0
   58.3100   29.6210   45.9560 C   0  0  0  0  0  0  0  0  0  0  0  0
   58.4260   30.9250   45.5960 N   0  0  0  0  0  0  0  0  0  0  0  0
   57.4640   31.2580   44.6990 C   0  0  0  0  0  0  0  0  0  0  0  0
   57.3300   32.4420   44.1790 N   0  0  0  0  0  0  0  0  0  0  0  0
   57.4540   33.6970   44.8710 C   0  0  0  0  0  0  0  0  0  0  0  0
   56.6730   34.6510   44.6030 O   0  0  0  0  0  0  0  0  0  0  0  0
   58.5080   33.8670   45.9040 C   0  0  0  0  0  0  0  0  0  0  0  0
   59.7890   34.3250   45.5350 C   0  0  0  0  0  0  0  0  0  0  0  0
   60.0015   34.5551   44.4805 H   0  0  0  0  0  0  0  0  0  0  0  0
   60.7920   34.4900   46.4940 C   0  0  0  0  0  0  0  0  0  0  0  0
   61.7872   34.8483   46.1918 H   0  0  0  0  0  0  0  0  0  0  0  0
   60.5330   34.2010   47.8340 C   0  0  0  0  0  0  0  0  0  0  0  0
   61.5070   34.3620   48.7640 F   0  0  0  0  0  0  0  0  0  0  0  0
   59.2700   33.7470   48.2180 C   0  0  0  0  0  0  0  0  0  0  0  0
   59.0679   33.5210   49.2754 H   0  0  0  0  0  0  0  0  0  0  0  0
   58.2600   33.5780   47.2650 C   0  0  0  0  0  0  0  0  0  0  0  0
   57.0450   33.1340   47.6800 F   0  0  0  0  0  0  0  0  0  0  0  0
   56.4420   29.9640   44.3220 S   0  0  0  0  0  0  0  0  0  0  0  0
   57.2710   28.9310   45.3540 C   0  0  0  0  0  0  0  0  0  0  0  0
   57.0210   27.5880   45.6190 C   0  0  0  0  0  0  0  0  0  0  0  0
   56.1848   27.0644   45.1326 H   0  0  0  0  0  0  0  0  0  0  0  0
   57.8680   22.9000   45.0640 C   0  0  0  0  0  0  0  0  0  0  0  0
   58.6594   23.2091   45.7627 H   0  0  0  0  0  0  0  0  0  0  0  0
   58.1430   21.9540   44.0750 C   0  0  0  0  0  0  0  0  0  0  0  0
   59.1471   21.5124   43.9920 H   0  0  0  0  0  0  0  0  0  0  0  0
  1  2  1  0
  2  3  2  0
  3  4  1  0
  4  5  1  0
  4  6  2  0
  6  7  1  0
  7  8  2  0
  7  9  2  0
  7 10  1  0
 10 11  1  0
 10 12  1  0
 12 13  2  0
 13 14  1  0
 13 15  1  0
 15 16  1  0
 15 17  2  0
 17 18  1  0
 18 19  1  0
 19 20  2  0
 20 21  1  0
 21 22  2  0
 21 23  1  0
 23 24  2  0
 24 25  1  0
 24 26  1  0
 26 27  1  0
 26 28  2  0
 28 29  1  0
 28 30  1  0
 30 31  1  0
 30 32  2  0
 32 33  1  0
 19 34  1  0
 34 35  1  0
 35 36  2  0
 36 37  1  0
  6 38  1  0
 38 39  1  0
 38 40  2  0
 40 41  1  0
 40  2  1  0
 36 12  1  0
 35 17  1  0
 32 23  1  0
M  CHG  1  18  -1
M  END
>  <UniqueID>  (78) 
73

>  <SMILES>  (78) 
O=C(/N=c1\[n-]c2ccc(NS(=O)(=O)c3cccnc3Cl)cc2s1)c1ccc(F)cc1F

>  <Energy>  (78) 
89.1725195432039

>  <Genealogy>  (78) 
O=C(N=c1[n-]c2ccc(NS(=O)(=O)c3cccnc3Cl)cc2s1)c1ccc(F)cc1F (protonated)
O=C(/N=c1\[n-]c2ccc(NS(=O)(=O)c3cccnc3Cl)cc2s1)c1ccc(F)cc1F (cis-trans isomerization)
O=C(/N=c1\[n-]c2ccc(NS(=O)(=O)c3cccnc3Cl)cc2s1)c1ccc(F)cc1F (3D coordinates assigned)
O=C(/N=c1\[n-]c2ccc(NS(=O)(=O)c3cccnc3Cl)cc2s1)c1ccc(F)cc1F (optimized conformer: 89.1725195432039 kcal/mol)

>  <smiles>  (78) 
O=C(N=c1[nH]c2ccc(NS(=O)(=O)c3cccnc3Cl)cc2s1)c1ccc(F)cc1F

>  <score_type>  (78) 
oracle

>  <origin>  (78) 
adg

>  <m_score__min__energy>  (78) 
-11.44

>  <m_primary>  (78) 
energy

$$$$
78:0
     RDKit          3D

 35 37  0  0  0  0  0  0  0  0999 V2000
   55.9700   30.0630   44.4690 O   0  0  0  0  0  0  0  0  0  0  0  0
   57.0580   30.4670   44.9540 C   0  0  0  0  0  0  0  0  0  0  0  0
   58.2100   29.6880   44.8370 C   0  0  0  0  0  0  0  0  0  0  0  0
   59.4040   30.1550   45.3800 C   0  0  0  0  0  0  0  0  0  0  0  0
   59.4440   31.3890   46.0510 C   0  0  0  0  0  0  0  0  0  0  0  0
   60.7200   31.8360   46.6380 C   0  0  0  0  0  0  0  0  0  0  0  0
   61.4180   31.0010   47.5190 C   0  0  0  0  0  0  0  0  0  0  0  0
   62.6340   31.4170   48.0680 C   0  0  0  0  0  0  0  0  0  0  0  0
   63.1450   32.6880   47.7650 C   0  0  0  0  0  0  0  0  0  0  0  0
   64.3620   33.1100   48.2980 O   0  0  0  0  0  0  0  0  0  0  0  0
   62.4340   33.5340   46.9100 C   0  0  0  0  0  0  0  0  0  0  0  0
   61.2310   33.1080   46.3390 C   0  0  0  0  0  0  0  0  0  0  0  0
   58.2580   32.1490   46.1500 C   0  0  0  0  0  0  0  0  0  0  0  0
   58.1980   33.4970   46.8320 C   0  0  0  0  0  0  0  0  0  0  0  0
   58.7110   33.3950   48.2440 C   0  0  0  0  0  0  0  0  0  0  0  0
   58.2940   32.3470   49.0800 C   0  0  0  0  0  0  0  0  0  0  0  0
   58.8150   32.2220   50.3720 C   0  0  0  0  0  0  0  0  0  0  0  0
   59.7440   33.1460   50.8450 C   0  0  0  0  0  0  0  0  0  0  0  0
   60.1580   34.2020   50.0240 C   0  0  0  0  0  0  0  0  0  0  0  0
   59.6490   34.3220   48.7270 C   0  0  0  0  0  0  0  0  0  0  0  0
   57.1110   31.6630   45.5950 N   0  0  0  0  0  0  0  0  0  0  0  0
   58.1751   28.7167   44.3220 H   0  0  0  0  0  0  0  0  0  0  0  0
   60.3208   29.5549   45.2832 H   0  0  0  0  0  0  0  0  0  0  0  0
   61.0078   30.0142   47.7799 H   0  0  0  0  0  0  0  0  0  0  0  0
   63.1914   30.7468   48.7388 H   0  0  0  0  0  0  0  0  0  0  0  0
   65.2460   32.8180   47.8960 H   0  0  0  0  0  0  0  0  0  0  0  0
   62.8220   34.5385   46.6854 H   0  0  0  0  0  0  0  0  0  0  0  0
   60.6837   33.7718   45.6536 H   0  0  0  0  0  0  0  0  0  0  0  0
   58.8169   34.2139   46.2726 H   0  0  0  0  0  0  0  0  0  0  0  0
   57.1525   33.8380   46.8563 H   0  0  0  0  0  0  0  0  0  0  0  0
   57.5530   31.6197   48.7167 H   0  0  0  0  0  0  0  0  0  0  0  0
   58.4903   31.3918   51.0164 H   0  0  0  0  0  0  0  0  0  0  0  0
   60.1517   33.0462   51.8618 H   0  0  0  0  0  0  0  0  0  0  0  0
   60.8843   34.9379   50.3996 H   0  0  0  0  0  0  0  0  0  0  0  0
   59.9851   35.1469   48.0816 H   0  0  0  0  0  0  0  0  0  0  0  0
  1  2  2  0
  2  3  1  0
  3  4  2  0
  4  5  1  0
  5  6  1  0
  6  7  2  0
  7  8  1  0
  8  9  2  0
  9 10  1  0
  9 11  1  0
 11 12  2  0
  5 13  2  0
 13 14  1  0
 14 15  1  0
 15 16  2  0
 16 17  1  0
 17 18  2  0
 18 19  1  0
 19 20  2  0
 13 21  1  0
 21  2  1  0
 12  6  1  0
 20 15  1  0
  3 22  1  0
  4 23  1  0
  7 24  1  0
  8 25  1  0
 10 26  1  0
 11 27  1  0
 12 28  1  0
 14 29  1  0
 14 30  1  0
 16 31  1  0
 17 32  1  0
 18 33  1  0
 19 34  1  0
 20 35  1  0
M  CHG  1  21  -1
M  END
>  <UniqueID>  (79) 
74

>  <SMILES>  (79) 
O=c1ccc(-c2ccc(O)cc2)c(Cc2ccccc2)[n-]1

>  <Energy>  (79) 
45.51409889166661

>  <Genealogy>  (79) 
O=c1ccc(-c2ccc(O)cc2)c(Cc2ccccc2)[n-]1 (protonated)
O=c1ccc(-c2ccc(O)cc2)c(Cc2ccccc2)[n-]1 (3D coordinates assigned)
O=c1ccc(-c2ccc(O)cc2)c(Cc2ccccc2)[n-]1 (optimized conformer: 45.51409889166661 kcal/mol)

>  <smiles>  (79) 
O=c1ccc(-c2ccc(O)cc2)c(Cc2ccccc2)[nH]1

>  <score_type>  (79) 
oracle

>  <origin>  (79) 
adg

>  <m_score__min__energy>  (79) 
-7.96

>  <m_primary>  (79) 
energy

$$$$
79:0
     RDKit          3D

 48 51  0  0  0  0  0  0  0  0999 V2000
   57.4553   34.0246   43.7092 H   0  0  0  0  0  0  0  0  0  0  0  0
   57.8850   33.9260   44.7170 C   0  0  0  0  0  0  0  0  0  0  0  0
   57.0600   33.6040   45.7990 C   0  0  0  0  0  0  0  0  0  0  0  0
   55.9826   33.4487   45.6407 H   0  0  0  0  0  0  0  0  0  0  0  0
   57.6020   33.4790   47.0820 C   0  0  0  0  0  0  0  0  0  0  0  0
   56.9501   33.2343   47.9336 H   0  0  0  0  0  0  0  0  0  0  0  0
   58.9780   33.6660   47.2820 C   0  0  0  0  0  0  0  0  0  0  0  0
   59.8060   33.9870   46.1960 C   0  0  0  0  0  0  0  0  0  0  0  0
   59.2560   34.1230   44.9140 C   0  0  0  0  0  0  0  0  0  0  0  0
   59.9021   34.3845   44.0630 H   0  0  0  0  0  0  0  0  0  0  0  0
   61.2720   34.2000   46.4530 C   0  0  0  0  0  0  0  0  0  0  0  0
   61.4167   35.1738   46.9436 H   0  0  0  0  0  0  0  0  0  0  0  0
   61.8104   34.1775   45.4940 H   0  0  0  0  0  0  0  0  0  0  0  0
   61.8220   33.0870   47.3620 C   0  0  0  0  0  0  0  0  0  0  0  0
   62.8128   33.3977   47.7249 H   0  0  0  0  0  0  0  0  0  0  0  0
   61.8555   32.1722   46.7521 H   0  0  0  0  0  0  0  0  0  0  0  0
   60.9270   32.7630   48.6020 C   0  0  2  0  0  0  0  0  0  0  0  0
   61.5061   33.0839   49.4804 H   0  0  0  0  0  0  0  0  0  0  0  0
   60.6470   31.2840   48.6750 C   0  0  0  0  0  0  0  0  0  0  0  0
   60.4090   30.7520   49.7940 O   0  0  0  0  0  0  0  0  0  0  0  0
   60.6740   30.5000   47.4700 N   0  0  0  0  0  0  0  0  0  0  0  0
   60.1540   29.3220   47.2870 C   0  0  0  0  0  0  0  0  0  0  0  0
   59.3850   29.0480   46.1960 N   0  0  0  0  0  0  0  0  0  0  0  0
   58.8330   27.8220   45.9790 C   0  0  0  0  0  0  0  0  0  0  0  0
   58.0360   27.5860   44.8380 C   0  0  0  0  0  0  0  0  0  0  0  0
   57.8210   28.6400   43.8790 N   0  0  0  0  0  0  0  0  0  0  0  0
   58.3300   28.6190   42.9680 H   0  0  0  0  0  0  0  0  0  0  0  0
   56.8850   30.0670   44.2020 S   0  0  0  0  0  0  0  0  0  0  0  0
   55.4430   29.6730   44.3620 O   0  0  0  0  0  0  0  0  0  0  0  0
   57.3550   30.7160   45.4730 O   0  0  0  0  0  0  0  0  0  0  0  0
   57.0080   31.2060   42.8390 C   0  0  0  0  0  0  0  0  0  0  0  0
   57.1186   32.2299   43.2256 H   0  0  0  0  0  0  0  0  0  0  0  0
   57.8837   30.9495   42.2247 H   0  0  0  0  0  0  0  0  0  0  0  0
   56.0978   31.1423   42.2247 H   0  0  0  0  0  0  0  0  0  0  0  0
   57.4850   26.3040   44.6490 C   0  0  0  0  0  0  0  0  0  0  0  0
   56.8712   26.1018   43.7589 H   0  0  0  0  0  0  0  0  0  0  0  0
   57.7090   25.2860   45.5790 C   0  0  0  0  0  0  0  0  0  0  0  0
   57.2676   24.2914   45.4177 H   0  0  0  0  0  0  0  0  0  0  0  0
   58.4890   25.5230   46.7110 C   0  0  0  0  0  0  0  0  0  0  0  0
   58.6592   24.7178   47.4409 H   0  0  0  0  0  0  0  0  0  0  0  0
   59.0550   26.7870   46.9170 C   0  0  0  0  0  0  0  0  0  0  0  0
   59.8450   27.0480   48.0440 C   0  0  0  0  0  0  0  0  0  0  0  0
   60.0306   26.2539   48.7822 H   0  0  0  0  0  0  0  0  0  0  0  0
   60.3960   28.3160   48.2290 C   0  0  0  0  0  0  0  0  0  0  0  0
   61.0182   28.5243   49.1119 H   0  0  0  0  0  0  0  0  0  0  0  0
   59.5980   33.5580   48.6490 C   0  0  0  0  0  0  0  0  0  0  0  0
   59.7985   34.5692   49.0326 H   0  0  0  0  0  0  0  0  0  0  0  0
   58.8968   33.0244   49.3076 H   0  0  0  0  0  0  0  0  0  0  0  0
  1  2  1  0
  2  3  2  0
  3  4  1  0
  3  5  1  0
  5  6  1  0
  5  7  2  0
  7  8  1  0
  8  9  2  0
  9 10  1  0
  8 11  1  0
 11 12  1  0
 11 13  1  0
 11 14  1  0
 14 15  1  0
 14 16  1  0
 14 17  1  0
 17 18  1  1
 17 19  1  0
 19 20  2  0
 19 21  1  0
 21 22  2  0
 22 23  1  0
 23 24  1  0
 24 25  2  0
 25 26  1  0
 26 27  1  0
 26 28  1  0
 28 29  2  0
 28 30  2  0
 28 31  1  0
 31 32  1  0
 31 33  1  0
 31 34  1  0
 25 35  1  0
 35 36  1  0
 35 37  2  0
 37 38  1  0
 37 39  1  0
 39 40  1  0
 39 41  2  0
 41 42  1  0
 42 43  1  0
 42 44  2  0
 44 45  1  0
 17 46  1  0
 46 47  1  0
 46 48  1  0
  9  2  1  0
 44 22  1  0
 46  7  1  0
 41 24  1  0
M  CHG  1  23  -1
M  END
>  <UniqueID>  (80) 
75

>  <SMILES>  (80) 
CS(=O)(=O)Nc1cccc2cc/c(=N/C(=O)[C@H]3CCc4ccccc4C3)[n-]c12

>  <Energy>  (80) 
61.41466814172258

>  <Genealogy>  (80) 
CS(=O)(=O)Nc1cccc2ccc(=NC(=O)C3CCc4ccccc4C3)[n-]c12 (protonated)
CS(=O)(=O)Nc1cccc2ccc(=NC(=O)[C@H]3CCc4ccccc4C3)[n-]c12 (chirality)
CS(=O)(=O)Nc1cccc2cc/c(=N/C(=O)[C@H]3CCc4ccccc4C3)[n-]c12 (cis-trans isomerization)
CS(=O)(=O)Nc1cccc2cc/c(=N/C(=O)[C@H]3CCc4ccccc4C3)[n-]c12 (3D coordinates assigned)
CS(=O)(=O)Nc1cccc2cc/c(=N/C(=O)[C@H]3CCc4ccccc4C3)[n-]c12 (nonaromatic ring conformer: 61.41466814172258 kcal/mol)

>  <smiles>  (80) 
CS(=O)(=O)Nc1cccc2ccc(=NC(=O)C3CCc4ccccc4C3)[nH]c12

>  <score_type>  (80) 
oracle

>  <origin>  (80) 
adg

>  <m_score__min__energy>  (80) 
-11.81

>  <m_primary>  (80) 
energy

$$$$
80:0
     RDKit          3D

 43 45  0  0  0  0  0  0  0  0999 V2000
   57.8760   27.8910   43.7600 C   0  0  0  0  0  0  0  0  0  0  0  0
   57.5600   29.2780   43.7610 O   0  0  0  0  0  0  0  0  0  0  0  0
   56.4200   29.7930   44.3890 C   0  0  0  0  0  0  0  0  0  0  0  0
   55.5540   29.0130   44.8700 O   0  0  0  0  0  0  0  0  0  0  0  0
   56.2130   31.2070   44.4980 N   0  0  0  0  0  0  0  0  0  0  0  0
   57.1420   32.1040   44.6630 C   0  0  0  0  0  0  0  0  0  0  0  0
   57.7520   32.7600   43.6500 N   0  0  0  0  0  0  0  0  0  0  0  0
   58.6330   33.5690   44.2740 C   0  0  0  0  0  0  0  0  0  0  0  0
   58.5280   33.3880   45.6360 C   0  0  0  0  0  0  0  0  0  0  0  0
   59.3810   34.0270   46.6880 C   0  0  0  0  0  0  0  0  0  0  0  0
   59.9960   32.9960   47.5360 N   0  0  0  0  0  0  0  0  0  0  0  0
   59.1600   32.0070   48.1740 C   0  0  0  0  0  0  0  0  0  0  0  0
   58.1350   32.3730   48.8100 O   0  0  0  0  0  0  0  0  0  0  0  0
   59.4880   30.5650   48.1140 C   0  0  0  0  0  0  0  0  0  0  0  0
   58.9820   29.7800   47.0630 C   0  0  0  0  0  0  0  0  0  0  0  0
   59.2690   28.4140   46.9990 C   0  0  0  0  0  0  0  0  0  0  0  0
   60.0720   27.8200   47.9770 C   0  0  0  0  0  0  0  0  0  0  0  0
   60.3500   26.4950   47.9120 F   0  0  0  0  0  0  0  0  0  0  0  0
   60.5960   28.5950   49.0150 C   0  0  0  0  0  0  0  0  0  0  0  0
   60.3120   29.9630   49.0850 C   0  0  0  0  0  0  0  0  0  0  0  0
   60.8760   30.7010   50.0750 F   0  0  0  0  0  0  0  0  0  0  0  0
   61.3740   33.1510   47.9390 C   0  0  0  0  0  0  0  0  0  0  0  0
   62.4150   32.7090   47.1040 C   0  0  0  0  0  0  0  0  0  0  0  0
   63.7480   32.8680   47.4950 C   0  0  0  0  0  0  0  0  0  0  0  0
   64.0530   33.4710   48.7180 C   0  0  0  0  0  0  0  0  0  0  0  0
   63.0250   33.9160   49.5530 C   0  0  0  0  0  0  0  0  0  0  0  0
   61.6910   33.7590   49.1660 C   0  0  0  0  0  0  0  0  0  0  0  0
   57.5920   32.4570   45.8800 N   0  0  0  0  0  0  0  0  0  0  0  0
   57.9576   27.5328   44.7968 H   0  0  0  0  0  0  0  0  0  0  0  0
   57.0817   27.3343   43.2412 H   0  0  0  0  0  0  0  0  0  0  0  0
   58.8331   27.7334   43.2412 H   0  0  0  0  0  0  0  0  0  0  0  0
   59.3253   34.2630   43.7748 H   0  0  0  0  0  0  0  0  0  0  0  0
   60.1718   34.6195   46.2046 H   0  0  0  0  0  0  0  0  0  0  0  0
   58.7531   34.6791   47.3129 H   0  0  0  0  0  0  0  0  0  0  0  0
   58.3563   30.2441   46.2863 H   0  0  0  0  0  0  0  0  0  0  0  0
   58.8625   27.8052   46.1779 H   0  0  0  0  0  0  0  0  0  0  0  0
   61.2340   28.1278   49.7797 H   0  0  0  0  0  0  0  0  0  0  0  0
   62.1799   32.2361   46.1391 H   0  0  0  0  0  0  0  0  0  0  0  0
   64.5581   32.5177   46.8385 H   0  0  0  0  0  0  0  0  0  0  0  0
   65.1024   33.5954   49.0234 H   0  0  0  0  0  0  0  0  0  0  0  0
   63.2656   34.3903   50.5159 H   0  0  0  0  0  0  0  0  0  0  0  0
   60.8849   34.1132   49.8253 H   0  0  0  0  0  0  0  0  0  0  0  0
   57.2950   32.0790   46.8080 H   0  0  0  0  0  0  0  0  0  0  0  0
  1  2  1  0
  2  3  1  0
  3  4  2  0
  3  5  1  0
  5  6  2  3
  6  7  1  0
  7  8  1  0
  8  9  2  0
  9 10  1  0
 10 11  1  0
 11 12  1  0
 12 13  2  0
 12 14  1  0
 14 15  2  0
 15 16  1  0
 16 17  2  0
 17 18  1  0
 17 19  1  0
 19 20  2  0
 20 21  1  0
 11 22  1  0
 22 23  2  0
 23 24  1  0
 24 25  2  0
 25 26  1  0
 26 27  2  0
  9 28  1  0
 28  6  1  0
 20 14  1  0
 27 22  1  0
  1 29  1  0
  1 30  1  0
  1 31  1  0
  8 32  1  0
 10 33  1  0
 10 34  1  0
 15 35  1  0
 16 36  1  0
 19 37  1  0
 23 38  1  0
 24 39  1  0
 25 40  1  0
 26 41  1  0
 27 42  1  0
 28 43  1  0
M  CHG  1   7  -1
M  END
>  <UniqueID>  (81) 
76

>  <SMILES>  (81) 
COC(=O)N=c1[n-]cc(CN(C(=O)c2ccc(F)cc2F)c2ccccc2)[nH]1

>  <Energy>  (81) 
81.7284984007844

>  <Genealogy>  (81) 
COC(=O)N=c1[n-]cc(CN(C(=O)c2ccc(F)cc2F)c2ccccc2)[nH]1 (protonated)
COC(=O)N=c1[n-]cc(CN(C(=O)c2ccc(F)cc2F)c2ccccc2)[nH]1 (3D coordinates assigned)
COC(=O)N=c1[n-]cc(CN(C(=O)c2ccc(F)cc2F)c2ccccc2)[nH]1 (optimized conformer: 81.7284984007844 kcal/mol)

>  <smiles>  (81) 
COC(=O)N=c1[nH]cc(CN(C(=O)c2ccc(F)cc2F)c2ccccc2)[nH]1

>  <score_type>  (81) 
oracle

>  <origin>  (81) 
adg

>  <m_score__min__energy>  (81) 
-9.0399999999999991

>  <m_primary>  (81) 
energy

$$$$
81:0
     RDKit          3D

 47 50  0  0  0  0  0  0  0  0999 V2000
   56.5860   29.8210   42.6230 N   0  0  0  0  0  0  0  0  0  0  0  0
   56.1240   29.4540   43.9230 C   0  0  0  0  0  0  0  0  0  0  0  0
   54.8880   29.3000   44.1160 O   0  0  0  0  0  0  0  0  0  0  0  0
   57.0740   29.2670   45.0460 C   0  0  0  0  0  0  0  0  0  0  0  0
   57.0310   28.0990   45.8440 C   0  0  0  0  0  0  0  0  0  0  0  0
   55.9990   27.1170   45.6850 N   0  0  0  0  0  0  0  0  0  0  0  0
   56.3160   25.6860   45.6740 C   0  0  1  0  0  0  0  0  0  0  0  0
   57.4850   25.4090   44.7190 C   0  0  0  0  0  0  0  0  0  0  0  0
   57.8130   23.9060   44.6780 C   0  0  0  0  0  0  0  0  0  0  0  0
   57.5380   23.2100   46.0230 C   0  0  0  0  0  0  0  0  0  0  0  0
   57.6940   24.1560   47.1340 N   0  0  0  0  0  0  0  0  0  0  0  0
   56.6480   25.1960   47.1080 C   0  0  0  0  0  0  0  0  0  0  0  0
   57.9710   27.9000   46.8040 N   0  0  0  0  0  0  0  0  0  0  0  0
   58.9540   28.7990   47.0580 C   0  0  0  0  0  0  0  0  0  0  0  0
   59.8880   28.5400   48.0650 C   0  0  0  0  0  0  0  0  0  0  0  0
   60.9010   29.4600   48.3390 C   0  0  0  0  0  0  0  0  0  0  0  0
   60.9940   30.6590   47.6120 C   0  0  0  0  0  0  0  0  0  0  0  0
   62.0730   31.6370   47.9080 C   0  0  0  0  0  0  0  0  0  0  0  0
   62.3180   32.7210   47.0480 C   0  0  0  0  0  0  0  0  0  0  0  0
   63.3350   33.6320   47.3380 C   0  0  0  0  0  0  0  0  0  0  0  0
   64.1030   33.4540   48.4900 C   0  0  0  0  0  0  0  0  0  0  0  0
   63.8590   32.4030   49.3150 N   0  0  0  0  0  0  0  0  0  0  0  0
   62.8740   31.5020   49.0560 C   0  0  0  0  0  0  0  0  0  0  0  0
   60.0540   30.9190   46.5970 C   0  0  0  0  0  0  0  0  0  0  0  0
   59.0300   29.9940   46.3120 C   0  0  0  0  0  0  0  0  0  0  0  0
   58.0880   30.2170   45.2900 C   0  0  0  0  0  0  0  0  0  0  0  0
   58.1700   31.2530   44.5740 O   0  0  0  0  0  0  0  0  0  0  0  0
   55.9090   29.9170   41.8330 H   0  0  0  0  0  0  0  0  0  0  0  0
   57.5870   30.0590   42.4540 H   0  0  0  0  0  0  0  0  0  0  0  0
   55.1440   27.4180   45.1640 H   0  0  0  0  0  0  0  0  0  0  0  0
   55.4369   25.1304   45.3156 H   0  0  0  0  0  0  0  0  0  0  0  0
   57.2125   25.7463   43.7081 H   0  0  0  0  0  0  0  0  0  0  0  0
   58.3706   25.9534   45.0786 H   0  0  0  0  0  0  0  0  0  0  0  0
   57.1960   23.4306   43.9013 H   0  0  0  0  0  0  0  0  0  0  0  0
   58.8860   23.8021   44.4591 H   0  0  0  0  0  0  0  0  0  0  0  0
   56.5104   22.8174   46.0237 H   0  0  0  0  0  0  0  0  0  0  0  0
   58.2585   22.3888   46.1519 H   0  0  0  0  0  0  0  0  0  0  0  0
   57.6010   23.6230   48.0310 H   0  0  0  0  0  0  0  0  0  0  0  0
   55.7328   24.7841   47.5583 H   0  0  0  0  0  0  0  0  0  0  0  0
   57.0295   26.0605   47.6711 H   0  0  0  0  0  0  0  0  0  0  0  0
   59.8244   27.6069   48.6441 H   0  0  0  0  0  0  0  0  0  0  0  0
   61.6332   29.2447   49.1311 H   0  0  0  0  0  0  0  0  0  0  0  0
   61.7063   32.8521   46.1432 H   0  0  0  0  0  0  0  0  0  0  0  0
   63.5292   34.4810   46.6660 H   0  0  0  0  0  0  0  0  0  0  0  0
   64.9067   34.1657   48.7299 H   0  0  0  0  0  0  0  0  0  0  0  0
   62.7030   30.6638   49.7475 H   0  0  0  0  0  0  0  0  0  0  0  0
   60.1195   31.8536   46.0206 H   0  0  0  0  0  0  0  0  0  0  0  0
  1  2  1  0
  2  3  2  0
  2  4  1  0
  4  5  2  0
  5  6  1  0
  6  7  1  0
  7  8  1  0
  8  9  1  0
  9 10  1  0
 10 11  1  0
 11 12  1  0
  5 13  1  0
 13 14  1  0
 14 15  2  0
 15 16  1  0
 16 17  2  0
 17 18  1  0
 18 19  2  0
 19 20  1  0
 20 21  2  0
 21 22  1  0
 22 23  2  0
 17 24  1  0
 24 25  2  0
 25 26  1  0
 26 27  2  0
 26  4  1  0
 12  7  1  0
 25 14  1  0
 23 18  1  0
  1 28  1  0
  1 29  1  0
  6 30  1  0
  7 31  1  6
  8 32  1  0
  8 33  1  0
  9 34  1  0
  9 35  1  0
 10 36  1  0
 10 37  1  0
 11 38  1  0
 12 39  1  0
 12 40  1  0
 15 41  1  0
 16 42  1  0
 19 43  1  0
 20 44  1  0
 21 45  1  0
 23 46  1  0
 24 47  1  0
M  CHG  1  13  -1
M  END
>  <UniqueID>  (82) 
77

>  <SMILES>  (82) 
NC(=O)c1c(N[C@H]2CCCNC2)[n-]c2ccc(-c3cccnc3)cc2c1=O

>  <Energy>  (82) 
73.38354412828308

>  <Genealogy>  (82) 
NC(=O)c1c(NC2CCCNC2)[n-]c2ccc(-c3cccnc3)cc2c1=O (protonated)
NC(=O)c1c(N[C@H]2CCCNC2)[n-]c2ccc(-c3cccnc3)cc2c1=O (chirality)
NC(=O)c1c(N[C@H]2CCCNC2)[n-]c2ccc(-c3cccnc3)cc2c1=O (3D coordinates assigned)
NC(=O)c1c(N[C@H]2CCCNC2)[n-]c2ccc(-c3cccnc3)cc2c1=O (nonaromatic ring conformer: 73.38354412828308 kcal/mol)

>  <smiles>  (82) 
NC(=O)c1c(NC2CCCNC2)[nH]c2ccc(-c3cccnc3)cc2c1=O

>  <score_type>  (82) 
oracle

>  <origin>  (82) 
adg

>  <m_score__min__energy>  (82) 
-10.550000000000001

>  <m_primary>  (82) 
energy

$$$$
82:0
     RDKit          3D

 62 65  0  0  0  0  0  0  0  0999 V2000
   57.7130   32.1200   43.4200 C   0  0  0  0  0  0  0  0  0  0  0  0
   58.2920   32.5020   44.7540 C   0  0  0  0  0  0  0  0  0  0  0  0
   58.2860   33.8550   45.1400 C   0  0  0  0  0  0  0  0  0  0  0  0
   58.8780   34.2570   46.3380 C   0  0  0  0  0  0  0  0  0  0  0  0
   59.4490   33.3080   47.1880 C   0  0  0  0  0  0  0  0  0  0  0  0
   60.3250   33.7860   48.6330 S   0  0  0  0  0  0  0  0  0  0  0  0
   60.3440   32.6280   49.5940 O   0  0  0  0  0  0  0  0  0  0  0  0
   59.6370   34.9500   49.2930 O   0  0  0  0  0  0  0  0  0  0  0  0
   61.9520   34.2150   48.1360 N   0  0  0  0  0  0  0  0  0  0  0  0
   62.4080   33.4270   46.9790 C   0  0  0  0  0  0  0  0  0  0  0  0
   62.7180   31.9610   47.3650 C   0  0  0  0  0  0  0  0  0  0  0  0
   62.8570   31.7660   48.7620 O   0  0  0  0  0  0  0  0  0  0  0  0
   63.6480   32.7930   49.3200 C   0  0  0  0  0  0  0  0  0  0  0  0
   62.9050   34.1420   49.2640 C   0  0  0  0  0  0  0  0  0  0  0  0
   59.4140   31.9580   46.8400 C   0  0  0  0  0  0  0  0  0  0  0  0
   58.8700   31.5340   45.6150 C   0  0  0  0  0  0  0  0  0  0  0  0
   58.9240   30.1440   45.2350 N   0  0  0  0  0  0  0  0  0  0  0  0
   57.5180   29.2070   44.8250 S   0  0  0  0  0  0  0  0  0  0  0  0
   56.2940   29.9960   45.1980 O   0  0  0  0  0  0  0  0  0  0  0  0
   57.4960   28.9590   43.3450 O   0  0  0  0  0  0  0  0  0  0  0  0
   57.5350   27.6460   45.6700 C   0  0  0  0  0  0  0  0  0  0  0  0
   56.3420   26.9070   45.7430 C   0  0  0  0  0  0  0  0  0  0  0  0
   56.2900   25.7090   46.4580 C   0  0  0  0  0  0  0  0  0  0  0  0
   57.4270   25.2290   47.0980 C   0  0  0  0  0  0  0  0  0  0  0  0
   58.6230   25.9430   47.0270 C   0  0  0  0  0  0  0  0  0  0  0  0
   58.6920   27.1590   46.3280 C   0  0  0  0  0  0  0  0  0  0  0  0
   59.9810   27.8790   46.2690 C   0  0  0  0  0  0  0  0  0  0  0  0
   60.7540   27.6780   45.2980 O   0  0  0  0  0  0  0  0  0  0  0  0
   60.3750   28.8160   47.2780 N   0  0  0  0  0  0  0  0  0  0  0  0
   60.7530   28.4810   48.6480 C   0  0  0  0  0  0  0  0  0  0  0  0
   60.0900   29.4000   49.6460 C   0  0  0  0  0  0  0  0  0  0  0  0
   60.7090   29.7630   50.8590 C   0  0  0  0  0  0  0  0  0  0  0  0
   60.0600   30.6180   51.7540 C   0  0  0  0  0  0  0  0  0  0  0  0
   58.7820   31.1020   51.4630 C   0  0  0  0  0  0  0  0  0  0  0  0
   57.9710   32.1740   52.5900 Cl  0  0  0  0  0  0  0  0  0  0  0  0
   58.1470   30.7230   50.2770 C   0  0  0  0  0  0  0  0  0  0  0  0
   58.7930   29.8700   49.3770 C   0  0  0  0  0  0  0  0  0  0  0  0
   56.8038   31.5201   43.5731 H   0  0  0  0  0  0  0  0  0  0  0  0
   57.4612   33.0299   42.8555 H   0  0  0  0  0  0  0  0  0  0  0  0
   58.4504   31.5305   42.8555 H   0  0  0  0  0  0  0  0  0  0  0  0
   57.8095   34.6040   44.4904 H   0  0  0  0  0  0  0  0  0  0  0  0
   58.8948   35.3220   46.6127 H   0  0  0  0  0  0  0  0  0  0  0  0
   61.6200   33.4336   46.2115 H   0  0  0  0  0  0  0  0  0  0  0  0
   63.3346   33.8829   46.6001 H   0  0  0  0  0  0  0  0  0  0  0  0
   61.8973   31.3239   47.0036 H   0  0  0  0  0  0  0  0  0  0  0  0
   63.6810   31.6992   46.9023 H   0  0  0  0  0  0  0  0  0  0  0  0
   63.8723   32.5472   50.3685 H   0  0  0  0  0  0  0  0  0  0  0  0
   64.5794   32.8772   48.7409 H   0  0  0  0  0  0  0  0  0  0  0  0
   62.3506   34.2791   50.2041 H   0  0  0  0  0  0  0  0  0  0  0  0
   63.6562   34.9325   49.1197 H   0  0  0  0  0  0  0  0  0  0  0  0
   59.8199   31.2105   47.5375 H   0  0  0  0  0  0  0  0  0  0  0  0
   59.8310   29.6280   45.2530 H   0  0  0  0  0  0  0  0  0  0  0  0
   55.4405   27.2759   45.2319 H   0  0  0  0  0  0  0  0  0  0  0  0
   55.3479   25.1440   46.5151 H   0  0  0  0  0  0  0  0  0  0  0  0
   57.3833   24.2850   47.6610 H   0  0  0  0  0  0  0  0  0  0  0  0
   59.5220   25.5494   47.5239 H   0  0  0  0  0  0  0  0  0  0  0  0
   60.4492   27.4451   48.8594 H   0  0  0  0  0  0  0  0  0  0  0  0
   61.8427   28.5970   48.7433 H   0  0  0  0  0  0  0  0  0  0  0  0
   61.7077   29.3715   51.1025 H   0  0  0  0  0  0  0  0  0  0  0  0
   60.5570   30.9109   52.6906 H   0  0  0  0  0  0  0  0  0  0  0  0
   57.1373   31.0964   50.0513 H   0  0  0  0  0  0  0  0  0  0  0  0
   58.2825   29.5646   48.4518 H   0  0  0  0  0  0  0  0  0  0  0  0
  1  2  1  0
  2  3  2  0
  3  4  1  0
  4  5  2  0
  5  6  1  0
  6  7  2  0
  6  8  2  0
  6  9  1  0
  9 10  1  0
 10 11  1  0
 11 12  1  0
 12 13  1  0
 13 14  1  0
  5 15  1  0
 15 16  2  0
 16 17  1  0
 17 18  1  0
 18 19  2  0
 18 20  2  0
 18 21  1  0
 21 22  2  0
 22 23  1  0
 23 24  2  0
 24 25  1  0
 25 26  2  0
 26 27  1  0
 27 28  2  0
 27 29  1  0
 29 30  1  0
 30 31  1  0
 31 32  2  0
 32 33  1  0
 33 34  2  0
 34 35  1  0
 34 36  1  0
 36 37  2  0
 16  2  1  0
 26 21  1  0
 37 31  1  0
 14  9  1  0
  1 38  1  0
  1 39  1  0
  1 40  1  0
  3 41  1  0
  4 42  1  0
 10 43  1  0
 10 44  1  0
 11 45  1  0
 11 46  1  0
 13 47  1  0
 13 48  1  0
 14 49  1  0
 14 50  1  0
 15 51  1  0
 17 52  1  0
 22 53  1  0
 23 54  1  0
 24 55  1  0
 25 56  1  0
 30 57  1  0
 30 58  1  0
 32 59  1  0
 33 60  1  0
 36 61  1  0
 37 62  1  0
M  CHG  1  29  -1
M  END
>  <UniqueID>  (83) 
78

>  <SMILES>  (83) 
Cc1ccc(S(=O)(=O)N2CCOCC2)cc1NS(=O)(=O)c1ccccc1C(=O)[N-]Cc1ccc(Cl)cc1

>  <Energy>  (83) 
77.59390718271499

>  <Genealogy>  (83) 
Cc1ccc(S(=O)(=O)N2CCOCC2)cc1NS(=O)(=O)c1ccccc1C(=O)[N-]Cc1ccc(Cl)cc1 (protonated)
Cc1ccc(S(=O)(=O)N2CCOCC2)cc1NS(=O)(=O)c1ccccc1C(=O)[N-]Cc1ccc(Cl)cc1 (3D coordinates assigned)
Cc1ccc(S(=O)(=O)N2CCOCC2)cc1NS(=O)(=O)c1ccccc1C(=O)[N-]Cc1ccc(Cl)cc1 (nonaromatic ring conformer: 77.59390718271499 kcal/mol)

>  <smiles>  (83) 
Cc1ccc(S(=O)(=O)N2CCOCC2)cc1NS(=O)(=O)c1ccccc1C(=O)NCc1ccc(Cl)cc1

>  <score_type>  (83) 
oracle

>  <origin>  (83) 
adg

>  <m_score__min__energy>  (83) 
-12.84

>  <m_primary>  (83) 
energy

$$$$
83:0
     RDKit          3D

 40 42  0  0  0  0  0  0  0  0999 V2000
   55.1660   27.0900   45.0570 H   0  0  0  0  0  0  0  0  0  0  0  0
   55.1450   26.6320   45.9960 N   0  0  0  0  0  0  0  0  0  0  0  0
   56.3120   26.0180   46.5390 C   0  0  0  0  0  0  0  0  0  0  0  0
   56.2140   24.8850   47.0820 O   0  0  0  0  0  0  0  0  0  0  0  0
   57.6240   26.7030   46.4700 C   0  0  0  0  0  0  0  0  0  0  0  0
   57.8060   27.9650   47.0580 C   0  0  0  0  0  0  0  0  0  0  0  0
   56.9690   28.4505   47.5812 H   0  0  0  0  0  0  0  0  0  0  0  0
   59.0490   28.6100   46.9820 C   0  0  0  0  0  0  0  0  0  0  0  0
   59.2540   29.9370   47.6060 C   0  0  0  0  0  0  0  0  0  0  0  0
   58.8570   31.0830   46.8950 C   0  0  0  0  0  0  0  0  0  0  0  0
   58.3955   30.9726   45.9026 H   0  0  0  0  0  0  0  0  0  0  0  0
   59.0410   32.3650   47.4330 C   0  0  0  0  0  0  0  0  0  0  0  0
   58.6280   33.5640   46.6640 C   0  0  0  0  0  0  0  0  0  0  0  0
   59.1820   34.6710   46.9000 O   0  0  0  0  0  0  0  0  0  0  0  0
   57.5650   33.5200   45.7020 N   0  0  0  0  0  0  0  0  0  0  0  0
   57.4280   32.6310   44.7630 C   0  0  0  0  0  0  0  0  0  0  0  0
   56.6490   31.5410   44.9160 N   0  0  0  0  0  0  0  0  0  0  0  0
   56.6260   30.7780   43.7890 C   0  0  0  0  0  0  0  0  0  0  0  0
   55.8690   29.4920   43.7230 C   0  0  0  0  0  0  0  0  0  0  0  0
   55.6599   29.1368   44.7429 H   0  0  0  0  0  0  0  0  0  0  0  0
   54.9208   29.6517   43.1888 H   0  0  0  0  0  0  0  0  0  0  0  0
   56.4688   28.7405   43.1888 H   0  0  0  0  0  0  0  0  0  0  0  0
   57.3940   31.2570   42.7300 C   0  0  0  0  0  0  0  0  0  0  0  0
   57.5115   30.7778   41.7468 H   0  0  0  0  0  0  0  0  0  0  0  0
   58.1100   32.6980   43.2210 S   0  0  0  0  0  0  0  0  0  0  0  0
   59.6540   32.4970   48.6890 C   0  0  0  0  0  0  0  0  0  0  0  0
   59.8303   33.4986   49.1082 H   0  0  0  0  0  0  0  0  0  0  0  0
   60.0410   31.3670   49.4090 C   0  0  0  0  0  0  0  0  0  0  0  0
   60.5178   31.4862   50.3931 H   0  0  0  0  0  0  0  0  0  0  0  0
   59.8290   30.0790   48.8920 C   0  0  0  0  0  0  0  0  0  0  0  0
   60.2390   28.8880   49.7190 C   0  0  0  0  0  0  0  0  0  0  0  0
   60.1535   29.1364   50.7872 H   0  0  0  0  0  0  0  0  0  0  0  0
   59.5822   28.0367   49.4868 H   0  0  0  0  0  0  0  0  0  0  0  0
   61.2806   28.6214   49.4868 H   0  0  0  0  0  0  0  0  0  0  0  0
   60.1070   27.9620   46.3320 C   0  0  0  0  0  0  0  0  0  0  0  0
   61.0940   28.4446   46.2772 H   0  0  0  0  0  0  0  0  0  0  0  0
   59.9190   26.7380   45.7680 N   0  0  0  0  0  0  0  0  0  0  0  0
   60.7190   26.2750   45.2830 H   0  0  0  0  0  0  0  0  0  0  0  0
   58.7170   26.1050   45.8190 C   0  0  0  0  0  0  0  0  0  0  0  0
   58.5989   25.1182   45.3476 H   0  0  0  0  0  0  0  0  0  0  0  0
  1  2  1  0
  2  3  1  0
  3  4  2  0
  3  5  1  0
  5  6  2  0
  6  7  1  0
  6  8  1  0
  8  9  1  0
  9 10  2  0
 10 11  1  0
 10 12  1  0
 12 13  1  0
 13 14  2  0
 13 15  1  0
 15 16  2  0
 16 17  1  0
 17 18  1  0
 18 19  1  0
 19 20  1  0
 19 21  1  0
 19 22  1  0
 18 23  2  0
 23 24  1  0
 23 25  1  0
 12 26  2  0
 26 27  1  0
 26 28  1  0
 28 29  1  0
 28 30  2  0
 30 31  1  0
 31 32  1  0
 31 33  1  0
 31 34  1  0
  8 35  2  0
 35 36  1  0
 35 37  1  0
 37 38  1  0
 37 39  2  0
 39 40  1  0
 39  5  1  0
 30  9  1  0
 25 16  1  0
M  CHG  3   2  -1  17  -1  37   1
M  END
>  <UniqueID>  (84) 
79

>  <SMILES>  (84) 
Cc1cs/c(=N\C(=O)c2ccc(C)c(-c3c[nH+]cc(C([NH-])=O)c3)c2)[n-]1

>  <Energy>  (84) 
86.77948150679923

>  <Genealogy>  (84) 
Cc1csc(=NC(=O)c2ccc(C)c(-c3c[nH+]cc(C([NH-])=O)c3)c2)[n-]1 (protonated)
Cc1cs/c(=N\C(=O)c2ccc(C)c(-c3c[nH+]cc(C([NH-])=O)c3)c2)[n-]1 (cis-trans isomerization)
Cc1cs/c(=N\C(=O)c2ccc(C)c(-c3c[nH+]cc(C([NH-])=O)c3)c2)[n-]1 (3D coordinates assigned)
Cc1cs/c(=N\C(=O)c2ccc(C)c(-c3c[nH+]cc(C([NH-])=O)c3)c2)[n-]1 (optimized conformer: 86.77948150679923 kcal/mol)

>  <smiles>  (84) 
Cc1csc(=NC(=O)c2ccc(C)c(-c3cncc(C(N)=O)c3)c2)[nH]1

>  <score_type>  (84) 
oracle

>  <origin>  (84) 
adg

>  <m_score__min__energy>  (84) 
-11.57

>  <m_primary>  (84) 
energy

$$$$
84:0
     RDKit          3D

 28 29  0  0  0  0  0  0  0  0999 V2000
   58.0220   25.3930   47.3730 O   0  0  0  0  0  0  0  0  0  0  0  0
   58.3370   25.3150   46.1550 C   0  0  0  0  0  0  0  0  0  0  0  0
   59.2730   26.3470   45.5830 C   0  0  0  0  0  0  0  0  0  0  0  0
   58.5760   27.6730   45.4290 C   0  0  0  0  0  0  0  0  0  0  0  0
   59.3150   28.8670   45.3720 C   0  0  0  0  0  0  0  0  0  0  0  0
   58.6630   30.0910   45.1950 C   0  0  0  0  0  0  0  0  0  0  0  0
   57.2680   30.1360   45.0710 C   0  0  0  0  0  0  0  0  0  0  0  0
   56.6130   31.3540   44.8930 O   0  0  0  0  0  0  0  0  0  0  0  0
   56.5280   28.9490   45.1230 C   0  0  0  0  0  0  0  0  0  0  0  0
   55.1440   28.9830   44.9980 O   0  0  0  0  0  0  0  0  0  0  0  0
   57.1780   27.7230   45.3010 C   0  0  0  0  0  0  0  0  0  0  0  0
   57.7190   24.2580   45.3190 C   0  0  0  0  0  0  0  0  0  0  0  0
   56.4550   24.4980   44.7500 C   0  0  0  0  0  0  0  0  0  0  0  0
   55.8500   23.5420   43.9310 C   0  0  0  0  0  0  0  0  0  0  0  0
   56.4950   22.3300   43.6770 C   0  0  0  0  0  0  0  0  0  0  0  0
   55.8940   21.3810   42.8580 O   0  0  0  0  0  0  0  0  0  0  0  0
   57.7420   22.0700   44.2500 C   0  0  0  0  0  0  0  0  0  0  0  0
   58.3520   23.0200   45.0760 C   0  0  0  0  0  0  0  0  0  0  0  0
   59.5700   22.7080   45.6700 O   0  0  0  0  0  0  0  0  0  0  0  0
   60.1330   26.4677   46.2581 H   0  0  0  0  0  0  0  0  0  0  0  0
   59.6093   26.0079   44.5921 H   0  0  0  0  0  0  0  0  0  0  0  0
   60.4105   28.8384   45.4670 H   0  0  0  0  0  0  0  0  0  0  0  0
   59.2472   31.0221   45.1529 H   0  0  0  0  0  0  0  0  0  0  0  0
   55.6550   31.4880   45.1950 H   0  0  0  0  0  0  0  0  0  0  0  0
   56.5913   26.7934   45.3409 H   0  0  0  0  0  0  0  0  0  0  0  0
   55.9382   25.4478   44.9521 H   0  0  0  0  0  0  0  0  0  0  0  0
   54.8646   23.7441   43.4858 H   0  0  0  0  0  0  0  0  0  0  0  0
   58.2470   21.1133   44.0507 H   0  0  0  0  0  0  0  0  0  0  0  0
  1  2  2  0
  2  3  1  0
  3  4  1  0
  4  5  2  0
  5  6  1  0
  6  7  2  0
  7  8  1  0
  7  9  1  0
  9 10  1  0
  9 11  2  0
  2 12  1  0
 12 13  2  0
 13 14  1  0
 14 15  2  0
 15 16  1  0
 15 17  1  0
 17 18  2  0
 18 19  1  0
 11  4  1  0
 18 12  1  0
  3 20  1  0
  3 21  1  0
  5 22  1  0
  6 23  1  0
  8 24  1  0
 11 25  1  0
 13 26  1  0
 14 27  1  0
 17 28  1  0
M  CHG  3  10  -1  16  -1  19  -1
M  END
>  <UniqueID>  (85) 
80

>  <SMILES>  (85) 
O=C(Cc1ccc(O)c([O-])c1)c1ccc([O-])cc1[O-]

>  <Energy>  (85) 
32.839203681376596

>  <Genealogy>  (85) 
O=C(Cc1ccc(O)c([O-])c1)c1ccc([O-])cc1[O-] (protonated)
O=C(Cc1ccc(O)c([O-])c1)c1ccc([O-])cc1[O-] (3D coordinates assigned)
O=C(Cc1ccc(O)c([O-])c1)c1ccc([O-])cc1[O-] (optimized conformer: 32.839203681376596 kcal/mol)

>  <smiles>  (85) 
O=C(Cc1ccc(O)c(O)c1)c1ccc(O)cc1O

>  <score_type>  (85) 
oracle

>  <origin>  (85) 
adg

>  <m_score__min__energy>  (85) 
-14.140000000000001

>  <m_primary>  (85) 
energy

$$$$
85:0
     RDKit          3D

 34 37  0  0  0  0  0  0  0  0999 V2000
   50.6210   33.1190   51.9910 O   0  0  0  0  0  0  0  0  0  0  0  0
   51.2960   32.0130   51.4910 C   0  0  0  0  0  0  0  0  0  0  0  0
   52.1890   31.3120   52.3090 C   0  0  0  0  0  0  0  0  0  0  0  0
   52.8730   30.1940   51.8100 C   0  0  0  0  0  0  0  0  0  0  0  0
   53.8170   29.4520   52.6760 C   0  0  0  0  0  0  0  0  0  0  0  0
   53.4080   28.2590   53.3240 C   0  0  0  0  0  0  0  0  0  0  0  0
   52.1100   27.7230   53.1720 C   0  0  0  0  0  0  0  0  0  0  0  0
   51.7490   26.5440   53.8300 C   0  0  0  0  0  0  0  0  0  0  0  0
   52.6720   25.8810   54.6420 C   0  0  0  0  0  0  0  0  0  0  0  0
   53.9600   26.3930   54.7990 C   0  0  0  0  0  0  0  0  0  0  0  0
   54.3340   27.5740   54.1460 C   0  0  0  0  0  0  0  0  0  0  0  0
   55.5920   28.0530   54.3060 N   0  0  0  0  0  0  0  0  0  0  0  0
   56.0160   29.1900   53.6990 C   0  0  0  0  0  0  0  0  0  0  0  0
   57.3280   29.6310   53.9080 C   0  0  0  0  0  0  0  0  0  0  0  0
   57.7820   30.8020   53.2970 C   0  0  0  0  0  0  0  0  0  0  0  0
   56.9280   31.5430   52.4760 C   0  0  0  0  0  0  0  0  0  0  0  0
   57.3970   32.7110   51.8780 O   0  0  0  0  0  0  0  0  0  0  0  0
   55.6130   31.1090   52.2600 C   0  0  0  0  0  0  0  0  0  0  0  0
   55.1400   29.9250   52.8670 C   0  0  0  0  0  0  0  0  0  0  0  0
   52.6580   29.7820   50.4870 C   0  0  0  0  0  0  0  0  0  0  0  0
   51.7660   30.4840   49.6700 C   0  0  0  0  0  0  0  0  0  0  0  0
   51.0860   31.5990   50.1710 C   0  0  0  0  0  0  0  0  0  0  0  0
   50.2200   32.2750   49.3740 F   0  0  0  0  0  0  0  0  0  0  0  0
   52.3549   31.6387   53.3462 H   0  0  0  0  0  0  0  0  0  0  0  0
   51.3783   28.2370   52.5314 H   0  0  0  0  0  0  0  0  0  0  0  0
   50.7345   26.1368   53.7080 H   0  0  0  0  0  0  0  0  0  0  0  0
   52.3828   24.9538   55.1584 H   0  0  0  0  0  0  0  0  0  0  0  0
   54.6846   25.8671   55.4381 H   0  0  0  0  0  0  0  0  0  0  0  0
   58.0038   29.0533   54.5557 H   0  0  0  0  0  0  0  0  0  0  0  0
   58.8150   31.1419   53.4626 H   0  0  0  0  0  0  0  0  0  0  0  0
   56.8580   33.5680   51.8930 H   0  0  0  0  0  0  0  0  0  0  0  0
   54.9442   31.6952   51.6126 H   0  0  0  0  0  0  0  0  0  0  0  0
   53.1917   28.9054   50.0912 H   0  0  0  0  0  0  0  0  0  0  0  0
   51.5990   30.1590   48.6325 H   0  0  0  0  0  0  0  0  0  0  0  0
  1  2  1  0
  2  3  2  0
  3  4  1  0
  4  5  1  0
  5  6  1  0
  6  7  2  0
  7  8  1  0
  8  9  2  0
  9 10  1  0
 10 11  2  0
 11 12  1  0
 12 13  2  0
 13 14  1  0
 14 15  2  0
 15 16  1  0
 16 17  1  0
 16 18  2  0
 18 19  1  0
  4 20  2  0
 20 21  1  0
 21 22  2  0
 22 23  1  0
 22  2  1  0
 19  5  2  0
 11  6  1  0
 19 13  1  0
  3 24  1  0
  7 25  1  0
  8 26  1  0
  9 27  1  0
 10 28  1  0
 14 29  1  0
 15 30  1  0
 17 31  1  0
 18 32  1  0
 20 33  1  0
 21 34  1  0
M  CHG  1   1  -1
M  END
>  <UniqueID>  (86) 
81

>  <SMILES>  (86) 
[O-]c1cc(-c2c3ccccc3nc3ccc(O)cc23)ccc1F

>  <Energy>  (86) 
55.58663497234703

>  <Genealogy>  (86) 
[O-]c1cc(-c2c3ccccc3nc3ccc(O)cc23)ccc1F (protonated)
[O-]c1cc(-c2c3ccccc3nc3ccc(O)cc23)ccc1F (3D coordinates assigned)
[O-]c1cc(-c2c3ccccc3nc3ccc(O)cc23)ccc1F (optimized conformer: 55.58663497234703 kcal/mol)

>  <smiles>  (86) 
Oc1ccc2nc3ccccc3c(-c3ccc(F)c(O)c3)c2c1

>  <score_type>  (86) 
oracle

>  <origin>  (86) 
adg

>  <m_score__min__energy>  (86) 
-10.73

>  <m_primary>  (86) 
energy

$$$$
86:0
     RDKit          3D

 31 32  0  0  0  0  0  0  0  0999 V2000
   57.0230   32.7260   49.5820 H   0  0  0  0  0  0  0  0  0  0  0  0
   57.9070   32.3390   49.9820 N   0  0  0  0  0  0  0  0  0  0  0  0
   59.2070   32.9660   49.0320 S   0  0  0  0  0  0  0  0  0  0  0  0
   59.6610   34.2790   49.6070 O   0  0  0  0  0  0  0  0  0  0  0  0
   60.3600   32.0020   49.0660 O   0  0  0  0  0  0  0  0  0  0  0  0
   58.6680   33.1930   47.3720 C   0  0  0  0  0  0  0  0  0  0  0  0
   58.9520   34.3880   46.6970 C   0  0  0  0  0  0  0  0  0  0  0  0
   59.5350   35.1756   47.1969 H   0  0  0  0  0  0  0  0  0  0  0  0
   58.4960   34.5810   45.3900 C   0  0  0  0  0  0  0  0  0  0  0  0
   58.7166   35.5218   44.8645 H   0  0  0  0  0  0  0  0  0  0  0  0
   57.7600   33.5800   44.7500 C   0  0  0  0  0  0  0  0  0  0  0  0
   57.3891   33.7417   43.7271 H   0  0  0  0  0  0  0  0  0  0  0  0
   57.4930   32.3720   45.4060 C   0  0  0  0  0  0  0  0  0  0  0  0
   56.7070   31.3720   44.7430 N   0  0  0  0  0  0  0  0  0  0  0  0
   56.4740   30.2040   45.2050 N   0  0  0  0  0  0  0  0  0  0  0  0
   56.5780   28.9680   44.4320 C   0  0  0  0  0  0  0  0  0  0  0  0
   55.5707   28.6132   44.1687 H   0  0  0  0  0  0  0  0  0  0  0  0
   57.1500   29.1555   43.5113 H   0  0  0  0  0  0  0  0  0  0  0  0
   57.2790   27.9240   45.2580 C   0  0  0  0  0  0  0  0  0  0  0  0
   58.6820   27.9100   45.3290 C   0  0  0  0  0  0  0  0  0  0  0  0
   59.2658   28.6494   44.7611 H   0  0  0  0  0  0  0  0  0  0  0  0
   59.3400   26.9620   46.1170 C   0  0  0  0  0  0  0  0  0  0  0  0
   60.4391   26.9518   46.1605 H   0  0  0  0  0  0  0  0  0  0  0  0
   58.6050   26.0280   46.8490 C   0  0  0  0  0  0  0  0  0  0  0  0
   59.1252   25.2807   47.4662 H   0  0  0  0  0  0  0  0  0  0  0  0
   57.2080   26.0420   46.7980 C   0  0  0  0  0  0  0  0  0  0  0  0
   56.6307   25.3065   47.3774 H   0  0  0  0  0  0  0  0  0  0  0  0
   56.5420   26.9890   46.0120 C   0  0  0  0  0  0  0  0  0  0  0  0
   55.1510   26.9940   45.9860 O   0  0  0  0  0  0  0  0  0  0  0  0
   57.9230   32.1950   46.7310 C   0  0  0  0  0  0  0  0  0  0  0  0
   57.6736   31.2681   47.2682 H   0  0  0  0  0  0  0  0  0  0  0  0
  1  2  1  0
  2  3  1  0
  3  4  2  0
  3  5  2  0
  3  6  1  0
  6  7  2  0
  7  8  1  0
  7  9  1  0
  9 10  1  0
  9 11  2  0
 11 12  1  0
 11 13  1  0
 13 14  1  0
 14 15  2  0
 15 16  1  0
 16 17  1  0
 16 18  1  0
 16 19  1  0
 19 20  2  0
 20 21  1  0
 20 22  1  0
 22 23  1  0
 22 24  2  0
 24 25  1  0
 24 26  1  0
 26 27  1  0
 26 28  2  0
 28 29  1  0
 13 30  2  0
 30 31  1  0
 30  6  1  0
 28 19  1  0
M  CHG  2   2  -1  29  -1
M  END
>  <UniqueID>  (87) 
82

>  <SMILES>  (87) 
[NH-]S(=O)(=O)c1cccc(/N=N\Cc2ccccc2[O-])c1

>  <Energy>  (87) 
39.2496562438961

>  <Genealogy>  (87) 
[NH-]S(=O)(=O)c1cccc(N=NCc2ccccc2[O-])c1 (protonated)
[NH-]S(=O)(=O)c1cccc(/N=N\Cc2ccccc2[O-])c1 (cis-trans isomerization)
[NH-]S(=O)(=O)c1cccc(/N=N\Cc2ccccc2[O-])c1 (3D coordinates assigned)
[NH-]S(=O)(=O)c1cccc(/N=N\Cc2ccccc2[O-])c1 (optimized conformer: 39.2496562438961 kcal/mol)

>  <smiles>  (87) 
NS(=O)(=O)c1cccc(N=NCc2ccccc2O)c1

>  <score_type>  (87) 
oracle

>  <origin>  (87) 
adg

>  <m_score__min__energy>  (87) 
-13.369999999999999

>  <m_primary>  (87) 
energy

$$$$
87:0
     RDKit          3D

 75 77  0  0  0  0  0  0  0  0999 V2000
   60.4440   27.6970   49.4970 C   0  0  0  0  0  0  0  0  0  0  0  0
   59.7990   28.9660   50.0610 C   0  0  2  0  0  0  0  0  0  0  0  0
   59.0020   29.6340   49.0300 N   0  0  0  0  0  0  0  0  0  0  0  0
   59.5070   29.8480   47.7010 C   0  0  0  0  0  0  0  0  0  0  0  0
   60.6530   29.4280   47.3830 O   0  0  0  0  0  0  0  0  0  0  0  0
   58.6940   30.6180   46.6930 C   0  0  2  0  0  0  0  0  0  0  0  0
   58.1340   31.9140   47.3030 C   0  0  0  0  0  0  0  0  0  0  0  0
   58.4880   33.1280   46.4820 C   0  0  0  0  0  0  0  0  0  0  0  0
   57.7580   33.4430   45.3250 C   0  0  0  0  0  0  0  0  0  0  0  0
   58.1290   34.5350   44.5340 C   0  0  0  0  0  0  0  0  0  0  0  0
   59.2300   35.3160   44.8920 C   0  0  0  0  0  0  0  0  0  0  0  0
   59.9650   35.0060   46.0380 C   0  0  0  0  0  0  0  0  0  0  0  0
   59.6000   33.9150   46.8300 C   0  0  0  0  0  0  0  0  0  0  0  0
   57.5830   29.7950   46.2220 N   0  0  0  0  0  0  0  0  0  0  0  0
   57.0370   29.8810   44.9040 C   0  0  0  0  0  0  0  0  0  0  0  0
   55.9080   30.4130   44.7170 O   0  0  0  0  0  0  0  0  0  0  0  0
   57.7750   29.3750   43.8290 O   0  0  0  0  0  0  0  0  0  0  0  0
   57.9130   27.9810   43.5620 C   0  0  0  0  0  0  0  0  0  0  0  0
   58.1290   27.2270   44.8480 C   0  0  0  0  0  0  0  0  0  0  0  0
   57.0460   26.6370   45.5220 C   0  0  0  0  0  0  0  0  0  0  0  0
   57.2520   25.9620   46.7310 C   0  0  0  0  0  0  0  0  0  0  0  0
   58.5370   25.8710   47.2740 C   0  0  0  0  0  0  0  0  0  0  0  0
   59.6180   26.4600   46.6100 C   0  0  0  0  0  0  0  0  0  0  0  0
   59.4170   27.1410   45.4040 C   0  0  0  0  0  0  0  0  0  0  0  0
   60.8650   29.8900   50.5730 C   0  0  0  0  0  0  0  0  0  0  0  0
   61.9480   29.4070   51.0040 O   0  0  0  0  0  0  0  0  0  0  0  0
   60.6750   31.3090   50.5050 N   0  0  0  0  0  0  0  0  0  0  0  0
   59.8000   32.0930   51.3780 C   0  0  1  0  0  0  0  0  0  0  0  0
   60.0880   33.6040   51.2290 C   0  0  0  0  0  0  0  0  0  0  0  0
   60.4870   33.9660   49.7890 C   0  0  0  0  0  0  0  0  0  0  0  0
   62.0110   33.9570   49.5960 C   0  0  0  0  0  0  0  0  0  0  0  0
   62.3730   33.7080   48.2000 N   0  0  0  0  0  0  0  0  0  0  0  0
   62.8910   32.6170   47.7110 C   0  0  0  0  0  0  0  0  0  0  0  0
   64.1370   32.6210   47.0020 N   0  0  0  0  0  0  0  0  0  0  0  0
   62.2000   31.3820   47.8960 N   0  0  0  0  0  0  0  0  0  0  0  0
   58.3550   31.7290   51.1110 C   0  0  0  0  0  0  0  0  0  0  0  0
   57.8070   32.0670   50.0290 O   0  0  0  0  0  0  0  0  0  0  0  0
   57.6130   30.8890   52.0640 C   0  0  0  0  0  0  0  0  0  0  0  0
   56.9850   29.7400   51.7220 N   0  0  0  0  0  0  0  0  0  0  0  0
   56.3440   29.1740   52.7810 C   0  0  0  0  0  0  0  0  0  0  0  0
   56.4590   29.8680   53.9810 C   0  0  0  0  0  0  0  0  0  0  0  0
   57.4010   31.2360   53.6980 S   0  0  0  0  0  0  0  0  0  0  0  0
   60.7715   27.0526   50.3261 H   0  0  0  0  0  0  0  0  0  0  0  0
   59.7113   27.1564   48.8799 H   0  0  0  0  0  0  0  0  0  0  0  0
   61.3126   27.9703   48.8799 H   0  0  0  0  0  0  0  0  0  0  0  0
   59.1322   28.6900   50.8912 H   0  0  0  0  0  0  0  0  0  0  0  0
   58.0670   30.0290   49.2750 H   0  0  0  0  0  0  0  0  0  0  0  0
   59.3549   30.8799   45.8536 H   0  0  0  0  0  0  0  0  0  0  0  0
   57.0386   31.8334   47.3623 H   0  0  0  0  0  0  0  0  0  0  0  0
   58.5803   32.0386   48.3006 H   0  0  0  0  0  0  0  0  0  0  0  0
   56.8912   32.8288   45.0396 H   0  0  0  0  0  0  0  0  0  0  0  0
   57.5531   34.7790   43.6291 H   0  0  0  0  0  0  0  0  0  0  0  0
   59.5185   36.1764   44.2704 H   0  0  0  0  0  0  0  0  0  0  0  0
   60.8326   35.6218   46.3174 H   0  0  0  0  0  0  0  0  0  0  0  0
   60.1846   33.6706   47.7292 H   0  0  0  0  0  0  0  0  0  0  0  0
   56.9995   27.6120   43.0728 H   0  0  0  0  0  0  0  0  0  0  0  0
   58.7796   27.8246   42.9028 H   0  0  0  0  0  0  0  0  0  0  0  0
   56.0333   26.7058   45.0982 H   0  0  0  0  0  0  0  0  0  0  0  0
   56.4010   25.5022   47.2548 H   0  0  0  0  0  0  0  0  0  0  0  0
   58.6977   25.3369   48.2221 H   0  0  0  0  0  0  0  0  0  0  0  0
   60.6292   26.3877   47.0370 H   0  0  0  0  0  0  0  0  0  0  0  0
   60.2690   27.6100   44.8901 H   0  0  0  0  0  0  0  0  0  0  0  0
   60.0063   31.8488   52.4305 H   0  0  0  0  0  0  0  0  0  0  0  0
   59.1837   34.1681   51.5012 H   0  0  0  0  0  0  0  0  0  0  0  0
   60.9267   33.8610   51.8928 H   0  0  0  0  0  0  0  0  0  0  0  0
   60.0373   33.2348   49.1012 H   0  0  0  0  0  0  0  0  0  0  0  0
   60.1236   34.9831   49.5806 H   0  0  0  0  0  0  0  0  0  0  0  0
   62.4158   34.9330   49.9017 H   0  0  0  0  0  0  0  0  0  0  0  0
   62.4322   33.1484   50.2115 H   0  0  0  0  0  0  0  0  0  0  0  0
   64.5100   31.7270   46.6130 H   0  0  0  0  0  0  0  0  0  0  0  0
   64.6940   33.4880   46.8370 H   0  0  0  0  0  0  0  0  0  0  0  0
   61.3130   31.3480   48.4420 H   0  0  0  0  0  0  0  0  0  0  0  0
   62.5660   30.4970   47.4770 H   0  0  0  0  0  0  0  0  0  0  0  0
   55.7762   28.2359   52.6942 H   0  0  0  0  0  0  0  0  0  0  0  0
   56.0141   29.5757   54.9436 H   0  0  0  0  0  0  0  0  0  0  0  0
  1  2  1  0
  2  3  1  0
  3  4  1  0
  4  5  2  0
  4  6  1  0
  6  7  1  0
  7  8  1  0
  8  9  2  0
  9 10  1  0
 10 11  2  0
 11 12  1  0
 12 13  2  0
  6 14  1  0
 14 15  1  0
 15 16  2  0
 15 17  1  0
 17 18  1  0
 18 19  1  0
 19 20  2  0
 20 21  1  0
 21 22  2  0
 22 23  1  0
 23 24  2  0
  2 25  1  0
 25 26  2  0
 25 27  1  0
 27 28  1  0
 28 29  1  0
 29 30  1  0
 30 31  1  0
 31 32  1  0
 32 33  2  3
 33 34  1  0
 33 35  1  0
 28 36  1  0
 36 37  2  0
 36 38  1  0
 38 39  2  0
 39 40  1  0
 40 41  2  0
 41 42  1  0
 13  8  1  0
 24 19  1  0
 42 38  1  0
  1 43  1  0
  1 44  1  0
  1 45  1  0
  2 46  1  1
  3 47  1  0
  6 48  1  6
  7 49  1  0
  7 50  1  0
  9 51  1  0
 10 52  1  0
 11 53  1  0
 12 54  1  0
 13 55  1  0
 18 56  1  0
 18 57  1  0
 20 58  1  0
 21 59  1  0
 22 60  1  0
 23 61  1  0
 24 62  1  0
 28 63  1  1
 29 64  1  0
 29 65  1  0
 30 66  1  0
 30 67  1  0
 31 68  1  0
 31 69  1  0
 34 70  1  0
 34 71  1  0
 35 72  1  0
 35 73  1  0
 40 74  1  0
 41 75  1  0
M  CHG  2  14  -1  27  -1
M  END
>  <UniqueID>  (88) 
83

>  <SMILES>  (88) 
C[C@H](NC(=O)[C@H](Cc1ccccc1)[N-]C(=O)OCc1ccccc1)C(=O)[N-]C(CCCN=C(N)N)C(=O)c1nccs1

>  <Energy>  (88) 
84.0505240660079

>  <Genealogy>  (88) 
CC(NC(=O)C(Cc1ccccc1)[N-]C(=O)OCc1ccccc1)C(=O)[N-]C(CCCN=C(N)N)C(=O)c1nccs1 (protonated)
C[C@H](NC(=O)[C@H](Cc1ccccc1)[N-]C(=O)OCc1ccccc1)C(=O)[N-]C(CCCN=C(N)N)C(=O)c1nccs1 (chirality)
C[C@H](NC(=O)[C@H](Cc1ccccc1)[N-]C(=O)OCc1ccccc1)C(=O)[N-]C(CCCN=C(N)N)C(=O)c1nccs1 (3D coordinates assigned)
C[C@H](NC(=O)[C@H](Cc1ccccc1)[N-]C(=O)OCc1ccccc1)C(=O)[N-]C(CCCN=C(N)N)C(=O)c1nccs1 (optimized conformer: 84.0505240660079 kcal/mol)

>  <smiles>  (88) 
CC(NC(=O)C(Cc1ccccc1)NC(=O)OCc1ccccc1)C(=O)NC(CCCN=C(N)N)C(=O)c1nccs1

>  <score_type>  (88) 
oracle

>  <origin>  (88) 
adg

>  <m_score__min__energy>  (88) 
-12.130000000000001

>  <m_primary>  (88) 
energy

$$$$
88:0
     RDKit          3D

 54 57  0  0  0  0  0  0  0  0999 V2000
   63.0200   34.2360   50.4220 C   0  0  0  0  0  0  0  0  0  0  0  0
   62.4490   32.9350   50.5470 O   0  0  0  0  0  0  0  0  0  0  0  0
   62.1390   32.0990   49.4650 C   0  0  0  0  0  0  0  0  0  0  0  0
   61.4090   30.9310   49.7130 C   0  0  0  0  0  0  0  0  0  0  0  0
   61.0740   30.0680   48.6640 C   0  0  0  0  0  0  0  0  0  0  0  0
   61.4670   30.3620   47.3490 C   0  0  0  0  0  0  0  0  0  0  0  0
   61.1010   29.4290   46.2270 C   0  0  0  0  0  0  0  0  0  0  0  0
   59.7240   29.6680   45.7930 N   0  0  0  0  0  0  0  0  0  0  0  0
   59.2670   30.7900   45.1830 C   0  0  0  0  0  0  0  0  0  0  0  0
   57.9150   30.6540   44.8810 C   0  0  0  0  0  0  0  0  0  0  0  0
   57.0740   31.6420   44.1290 C   0  0  0  0  0  0  0  0  0  0  0  0
   57.9430   32.4790   43.2490 C   0  0  0  0  0  0  0  0  0  0  0  0
   57.8010   32.4250   41.9960 O   0  0  0  0  0  0  0  0  0  0  0  0
   58.8820   33.3820   43.8340 N   0  0  0  0  0  0  0  0  0  0  0  0
   58.3840   34.6760   44.8690 S   0  0  0  0  0  0  0  0  0  0  0  0
   56.9280   34.9750   44.6510 O   0  0  0  0  0  0  0  0  0  0  0  0
   59.1790   35.9100   44.5400 O   0  0  0  0  0  0  0  0  0  0  0  0
   58.6780   34.2080   46.5430 C   0  0  0  0  0  0  0  0  0  0  0  0
   59.6190   34.9070   47.3120 C   0  0  0  0  0  0  0  0  0  0  0  0
   59.8760   34.5150   48.6340 C   0  0  0  0  0  0  0  0  0  0  0  0
   59.1990   33.4190   49.1920 C   0  0  0  0  0  0  0  0  0  0  0  0
   59.4480   33.0310   50.5470 N   0  0  0  0  0  0  0  0  0  0  0  0
   58.2710   32.7100   48.4130 C   0  0  0  0  0  0  0  0  0  0  0  0
   58.0160   33.1010   47.0950 C   0  0  0  0  0  0  0  0  0  0  0  0
   57.5560   29.3880   45.3150 C   0  0  0  0  0  0  0  0  0  0  0  0
   56.3390   28.7040   45.2570 C   0  0  0  0  0  0  0  0  0  0  0  0
   56.2890   27.3990   45.7860 C   0  0  0  0  0  0  0  0  0  0  0  0
   55.0940   26.6880   45.7730 O   0  0  0  0  0  0  0  0  0  0  0  0
   57.4460   26.8090   46.3410 C   0  0  0  0  0  0  0  0  0  0  0  0
   58.6590   27.5190   46.3800 C   0  0  0  0  0  0  0  0  0  0  0  0
   58.6790   28.8180   45.8600 C   0  0  0  0  0  0  0  0  0  0  0  0
   62.2000   31.5320   47.0970 C   0  0  0  0  0  0  0  0  0  0  0  0
   62.5350   32.3950   48.1450 C   0  0  0  0  0  0  0  0  0  0  0  0
   63.2033   34.6537   51.4230 H   0  0  0  0  0  0  0  0  0  0  0  0
   63.9710   34.1679   49.8733 H   0  0  0  0  0  0  0  0  0  0  0  0
   62.3261   34.8898   49.8733 H   0  0  0  0  0  0  0  0  0  0  0  0
   61.0965   30.6898   50.7397 H   0  0  0  0  0  0  0  0  0  0  0  0
   60.4990   29.1534   48.8711 H   0  0  0  0  0  0  0  0  0  0  0  0
   61.7822   29.5964   45.3797 H   0  0  0  0  0  0  0  0  0  0  0  0
   61.1879   28.3918   46.5829 H   0  0  0  0  0  0  0  0  0  0  0  0
   59.8762   31.6782   44.9595 H   0  0  0  0  0  0  0  0  0  0  0  0
   56.3408   31.1024   43.5116 H   0  0  0  0  0  0  0  0  0  0  0  0
   56.5489   32.2915   44.8449 H   0  0  0  0  0  0  0  0  0  0  0  0
   60.1561   35.7634   46.8783 H   0  0  0  0  0  0  0  0  0  0  0  0
   60.6113   35.0688   49.2362 H   0  0  0  0  0  0  0  0  0  0  0  0
   60.4030   33.1020   50.9580 H   0  0  0  0  0  0  0  0  0  0  0  0
   58.6720   32.6760   51.1510 H   0  0  0  0  0  0  0  0  0  0  0  0
   57.7432   31.8448   48.8405 H   0  0  0  0  0  0  0  0  0  0  0  0
   57.2924   32.5376   46.4876 H   0  0  0  0  0  0  0  0  0  0  0  0
   55.4474   29.1699   44.8121 H   0  0  0  0  0  0  0  0  0  0  0  0
   57.3978   25.7872   46.7455 H   0  0  0  0  0  0  0  0  0  0  0  0
   59.5661   27.0664   46.8070 H   0  0  0  0  0  0  0  0  0  0  0  0
   62.5126   31.7713   46.0699 H   0  0  0  0  0  0  0  0  0  0  0  0
   63.1104   33.3094   47.9383 H   0  0  0  0  0  0  0  0  0  0  0  0
  1  2  1  0
  2  3  1  0
  3  4  2  0
  4  5  1  0
  5  6  2  0
  6  7  1  0
  7  8  1  0
  8  9  1  0
  9 10  2  0
 10 11  1  0
 11 12  1  0
 12 13  2  0
 12 14  1  0
 14 15  1  0
 15 16  2  0
 15 17  2  0
 15 18  1  0
 18 19  2  0
 19 20  1  0
 20 21  2  0
 21 22  1  0
 21 23  1  0
 23 24  2  0
 10 25  1  0
 25 26  2  0
 26 27  1  0
 27 28  1  0
 27 29  2  0
 29 30  1  0
 30 31  2  0
  6 32  1  0
 32 33  2  0
 33  3  1  0
 31  8  1  0
 24 18  1  0
 31 25  1  0
  1 34  1  0
  1 35  1  0
  1 36  1  0
  4 37  1  0
  5 38  1  0
  7 39  1  0
  7 40  1  0
  9 41  1  0
 11 42  1  0
 11 43  1  0
 19 44  1  0
 20 45  1  0
 22 46  1  0
 22 47  1  0
 23 48  1  0
 24 49  1  0
 26 50  1  0
 29 51  1  0
 30 52  1  0
 32 53  1  0
 33 54  1  0
M  CHG  2  14  -1  28  -1
M  END
>  <UniqueID>  (89) 
84

>  <SMILES>  (89) 
COc1ccc(Cn2cc(CC(=O)[N-]S(=O)(=O)c3ccc(N)cc3)c3cc([O-])ccc32)cc1

>  <Energy>  (89) 
85.23685095568635

>  <Genealogy>  (89) 
COc1ccc(Cn2cc(CC(=O)[N-]S(=O)(=O)c3ccc(N)cc3)c3cc([O-])ccc32)cc1 (protonated)
COc1ccc(Cn2cc(CC(=O)[N-]S(=O)(=O)c3ccc(N)cc3)c3cc([O-])ccc32)cc1 (3D coordinates assigned)
COc1ccc(Cn2cc(CC(=O)[N-]S(=O)(=O)c3ccc(N)cc3)c3cc([O-])ccc32)cc1 (optimized conformer: 85.23685095568635 kcal/mol)

>  <smiles>  (89) 
COc1ccc(Cn2cc(CC(=O)NS(=O)(=O)c3ccc(N)cc3)c3cc(O)ccc32)cc1

>  <score_type>  (89) 
oracle

>  <origin>  (89) 
adg

>  <m_score__min__energy>  (89) 
-13.42

>  <m_primary>  (89) 
energy

$$$$
89:0
     RDKit          3D

 41 44  0  0  0  0  0  0  0  0999 V2000
   55.1410   29.6420   42.6360 H   0  0  0  0  0  0  0  0  0  0  0  0
   55.0110   29.9340   43.6300 N   0  0  0  0  0  0  0  0  0  0  0  0
   56.0240   30.2440   44.3740 C   0  0  0  0  0  0  0  0  0  0  0  0
   56.4560   31.5080   44.5780 N   0  0  0  0  0  0  0  0  0  0  0  0
   57.5080   31.4280   45.3900 N   0  0  0  0  0  0  0  0  0  0  0  0
   57.6830   30.1180   45.6570 C   0  0  0  0  0  0  0  0  0  0  0  0
   58.6650   29.5540   46.4620 C   0  0  0  0  0  0  0  0  0  0  0  0
   59.4130   30.1783   46.9725 H   0  0  0  0  0  0  0  0  0  0  0  0
   58.6660   28.1560   46.5990 C   0  0  0  0  0  0  0  0  0  0  0  0
   59.4286   27.6730   47.2276 H   0  0  0  0  0  0  0  0  0  0  0  0
   57.6960   27.3580   45.9370 C   0  0  0  0  0  0  0  0  0  0  0  0
   57.6990   25.8810   46.0830 C   0  0  0  0  0  0  0  0  0  0  0  0
   56.5560   25.2050   46.5450 C   0  0  0  0  0  0  0  0  0  0  0  0
   55.6513   25.7760   46.8009 H   0  0  0  0  0  0  0  0  0  0  0  0
   56.5590   23.8150   46.6820 C   0  0  0  0  0  0  0  0  0  0  0  0
   55.6547   23.3026   47.0420 H   0  0  0  0  0  0  0  0  0  0  0  0
   57.7050   23.0620   46.3650 C   0  0  0  0  0  0  0  0  0  0  0  0
   57.6780   21.5790   46.5170 C   0  0  0  0  0  0  0  0  0  0  0  0
   57.3480   21.0960   47.6370 O   0  0  0  0  0  0  0  0  0  0  0  0
   57.9900   20.6880   45.4110 N   0  0  0  0  0  0  0  0  0  0  0  0
   58.8940   20.2060   45.6270 H   0  0  0  0  0  0  0  0  0  0  0  0
   58.1720   21.4500   44.1580 C   0  0  0  0  0  0  0  0  0  0  0  0
   58.8288   22.3092   44.3589 H   0  0  0  0  0  0  0  0  0  0  0  0
   58.6137   20.7717   43.4132 H   0  0  0  0  0  0  0  0  0  0  0  0
   56.8300   21.9720   43.5860 C   0  0  0  0  0  0  0  0  0  0  0  0
   56.7629   23.0517   43.7851 H   0  0  0  0  0  0  0  0  0  0  0  0
   56.8268   21.7458   42.5095 H   0  0  0  0  0  0  0  0  0  0  0  0
   55.6940   21.3410   44.1480 O   0  0  0  0  0  0  0  0  0  0  0  0
   55.8960   19.9480   44.2150 C   0  0  0  0  0  0  0  0  0  0  0  0
   54.9536   19.4596   44.5038 H   0  0  0  0  0  0  0  0  0  0  0  0
   56.2238   19.5895   43.2281 H   0  0  0  0  0  0  0  0  0  0  0  0
   56.9830   19.6060   45.2540 C   0  0  0  0  0  0  0  0  0  0  0  0
   56.4981   19.4333   46.2262 H   0  0  0  0  0  0  0  0  0  0  0  0
   57.5122   18.7101   44.8973 H   0  0  0  0  0  0  0  0  0  0  0  0
   58.8460   23.7410   45.8950 C   0  0  0  0  0  0  0  0  0  0  0  0
   59.7493   23.1708   45.6324 H   0  0  0  0  0  0  0  0  0  0  0  0
   58.8420   25.1320   45.7590 C   0  0  0  0  0  0  0  0  0  0  0  0
   59.7438   25.6456   45.3943 H   0  0  0  0  0  0  0  0  0  0  0  0
   56.7280   28.0020   45.1350 C   0  0  0  0  0  0  0  0  0  0  0  0
   55.9583   27.4237   44.6029 H   0  0  0  0  0  0  0  0  0  0  0  0
   56.7750   29.3540   45.0400 N   0  0  0  0  0  0  0  0  0  0  0  0
  1  2  1  0
  2  3  2  0
  3  4  1  0
  4  5  1  0
  5  6  2  0
  6  7  1  0
  7  8  1  0
  7  9  2  0
  9 10  1  0
  9 11  1  0
 11 12  1  0
 12 13  2  0
 13 14  1  0
 13 15  1  0
 15 16  1  0
 15 17  2  0
 17 18  1  0
 18 19  2  0
 18 20  1  0
 20 21  1  0
 20 22  1  0
 22 23  1  0
 22 24  1  0
 22 25  1  0
 25 26  1  0
 25 27  1  0
 25 28  1  0
 28 29  1  0
 29 30  1  0
 29 31  1  0
 29 32  1  0
 32 33  1  0
 32 34  1  0
 17 35  1  0
 35 36  1  0
 35 37  2  0
 37 38  1  0
 11 39  2  0
 39 40  1  0
 39 41  1  0
 41  3  1  0
 41  6  1  0
 37 12  1  0
 32 20  1  0
M  CHG  2   4  -1  20   1
M  END
>  <UniqueID>  (90) 
85

>  <SMILES>  (90) 
[H]/N=c1\[n-]nc2ccc(-c3ccc(C(=O)[NH+]4CCOCC4)cc3)cn12

>  <Energy>  (90) 
108.68197763673179

>  <Genealogy>  (90) 
N=c1[n-]nc2ccc(-c3ccc(C(=O)[NH+]4CCOCC4)cc3)cn12 (protonated)
[H]/N=c1\[n-]nc2ccc(-c3ccc(C(=O)[NH+]4CCOCC4)cc3)cn12 (cis-trans isomerization)
[H]/N=c1\[n-]nc2ccc(-c3ccc(C(=O)[NH+]4CCOCC4)cc3)cn12 (3D coordinates assigned)
[H]/N=c1\[n-]nc2ccc(-c3ccc(C(=O)[NH+]4CCOCC4)cc3)cn12 (nonaromatic ring conformer: 108.68197763673179 kcal/mol)

>  <smiles>  (90) 
N=c1[nH]nc2ccc(-c3ccc(C(=O)N4CCOCC4)cc3)cn12

>  <score_type>  (90) 
oracle

>  <origin>  (90) 
adg

>  <m_score__min__energy>  (90) 
-7.6799999999999997

>  <m_primary>  (90) 
energy

$$$$
90:0
     RDKit          3D

 31 32  0  0  1  0  0  0  0  0999 V2000
   59.1370   34.9690   46.7930 C   0  0  0  0  0  0  0  0  0  0  0  0
   59.0870   33.5710   46.2740 C   0  0  0  0  0  0  0  0  0  0  0  0
   59.9330   32.6500   46.8470 C   0  0  0  0  0  0  0  0  0  0  0  0
   59.9530   31.3280   46.4270 C   0  0  0  0  0  0  0  0  0  0  0  0
   59.0820   30.9580   45.3970 C   0  0  0  0  0  0  0  0  0  0  0  0
   59.1240   29.5960   44.9860 N   0  0  0  0  0  0  0  0  0  0  0  0
   58.6070   28.6220   45.6260 C   0  0  0  0  0  0  0  0  0  0  0  0
   59.3970   27.9540   46.4980 N   0  0  0  0  0  0  0  0  0  0  0  0
   58.8730   26.9180   47.1880 C   0  0  0  0  0  0  0  0  0  0  0  0
   57.5750   26.5700   46.9970 N   0  0  0  0  0  0  0  0  0  0  0  0
   56.7760   27.2320   46.1260 C   0  0  0  0  0  0  0  0  0  0  0  0
   55.4210   26.8110   45.9750 N   0  0  0  0  0  0  0  0  0  0  0  0
   57.2880   28.2910   45.4110 C   0  0  0  0  0  0  0  0  0  0  0  0
   56.4200   28.9870   44.4850 C   0  0  0  0  0  0  0  0  0  0  0  0
   56.7780   29.3740   43.1810 N   0  0  0  0  0  0  0  0  0  0  0  0
   55.2560   29.2670   44.8790 O   0  0  0  0  0  0  0  0  0  0  0  0
   58.2380   31.8920   44.8310 C   0  0  0  0  0  0  0  0  0  0  0  0
   58.2240   33.2130   45.2570 C   0  0  0  0  0  0  0  0  0  0  0  0
   59.1364   34.9520   47.8929 H   0  0  0  0  0  0  0  0  0  0  0  0
   60.0533   35.4607   46.4344 H   0  0  0  0  0  0  0  0  0  0  0  0
   58.2582   35.5249   46.4344 H   0  0  0  0  0  0  0  0  0  0  0  0
   60.6078   32.9685   47.6552 H   0  0  0  0  0  0  0  0  0  0  0  0
   60.6312   30.5952   46.8886 H   0  0  0  0  0  0  0  0  0  0  0  0
   60.3980   28.2150   46.6530 H   0  0  0  0  0  0  0  0  0  0  0  0
   59.4955   26.3586   47.9018 H   0  0  0  0  0  0  0  0  0  0  0  0
   55.0390   26.1920   46.7220 H   0  0  0  0  0  0  0  0  0  0  0  0
   54.8180   27.0910   45.1720 H   0  0  0  0  0  0  0  0  0  0  0  0
   57.7010   29.8330   42.9340 H   0  0  0  0  0  0  0  0  0  0  0  0
   56.0600   29.1820   42.4220 H   0  0  0  0  0  0  0  0  0  0  0  0
   57.5598   31.5819   44.0224 H   0  0  0  0  0  0  0  0  0  0  0  0
   57.5479   33.9503   44.7997 H   0  0  0  0  0  0  0  0  0  0  0  0
  1  2  1  0
  2  3  2  0
  3  4  1  0
  4  5  2  0
  5  6  1  0
  6  7  2  0
  7  8  1  0
  8  9  1  0
  9 10  2  0
 10 11  1  0
 11 12  1  0
 11 13  2  0
 13 14  1  0
 14 15  1  0
 14 16  2  0
  5 17  1  0
 17 18  2  0
 18  2  1  0
 13  7  1  0
  1 19  1  0
  1 20  1  0
  1 21  1  0
  3 22  1  0
  4 23  1  0
  8 24  1  0
  9 25  1  0
 12 26  1  0
 12 27  1  0
 15 28  1  0
 15 29  1  0
 17 30  1  0
 18 31  1  0
M  END
>  <smiles>  (91) 
Cc1ccc(N=c2[nH]cnc(N)c2C(N)=O)cc1

>  <score_type>  (91) 
oracle

>  <origin>  (91) 
adg

>  <m_score__min__energy>  (91) 
-6.9699999999999998

>  <m_primary>  (91) 
energy

$$$$
91:0
     RDKit          3D

 38 39  0  0  0  0  0  0  0  0999 V2000
   56.8360   34.5650   44.8630 C   0  0  0  0  0  0  0  0  0  0  0  0
   58.0090   34.0730   45.6610 C   0  0  0  0  0  0  0  0  0  0  0  0
   59.3130   34.3150   45.2160 C   0  0  0  0  0  0  0  0  0  0  0  0
   60.4050   33.8890   45.9710 C   0  0  0  0  0  0  0  0  0  0  0  0
   60.2180   33.2180   47.1910 C   0  0  0  0  0  0  0  0  0  0  0  0
   61.4360   32.8040   47.9850 C   0  0  0  0  0  0  0  0  0  0  0  0
   61.5860   31.3160   47.9780 C   0  0  0  0  0  0  0  0  0  0  0  0
   62.0280   30.7290   49.0020 O   0  0  0  0  0  0  0  0  0  0  0  0
   61.2760   30.5780   46.7890 N   0  0  0  0  0  0  0  0  0  0  0  0
   60.0820   29.8180   46.5540 C   0  0  0  0  0  0  0  0  0  0  0  0
   59.9610   28.5560   47.1470 C   0  0  0  0  0  0  0  0  0  0  0  0
   58.8210   27.7780   46.9260 C   0  0  0  0  0  0  0  0  0  0  0  0
   57.8020   28.2470   46.0960 C   0  0  0  0  0  0  0  0  0  0  0  0
   57.9240   29.4940   45.4680 C   0  0  0  0  0  0  0  0  0  0  0  0
   56.6480   30.0820   44.4080 S   0  0  0  0  0  0  0  0  0  0  0  0
   55.1450   29.3680   44.8710 N   0  0  0  0  0  0  0  0  0  0  0  0
   56.9570   29.7200   42.9830 O   0  0  0  0  0  0  0  0  0  0  0  0
   56.5490   31.5790   44.5150 O   0  0  0  0  0  0  0  0  0  0  0  0
   59.0650   30.2780   45.6980 C   0  0  0  0  0  0  0  0  0  0  0  0
   58.8980   33.0030   47.6670 C   0  0  0  0  0  0  0  0  0  0  0  0
   58.6330   32.3140   48.9800 C   0  0  0  0  0  0  0  0  0  0  0  0
   57.8070   33.4330   46.8900 C   0  0  0  0  0  0  0  0  0  0  0  0
   56.0413   34.8983   45.5467 H   0  0  0  0  0  0  0  0  0  0  0  0
   57.1511   35.4068   44.2289 H   0  0  0  0  0  0  0  0  0  0  0  0
   56.4563   33.7503   44.2289 H   0  0  0  0  0  0  0  0  0  0  0  0
   59.4776   34.8440   44.2657 H   0  0  0  0  0  0  0  0  0  0  0  0
   61.4252   34.0806   45.6070 H   0  0  0  0  0  0  0  0  0  0  0  0
   62.3316   33.2600   47.5378 H   0  0  0  0  0  0  0  0  0  0  0  0
   61.3153   33.1441   49.0241 H   0  0  0  0  0  0  0  0  0  0  0  0
   60.7674   28.1744   47.7905 H   0  0  0  0  0  0  0  0  0  0  0  0
   58.7269   26.7935   47.4076 H   0  0  0  0  0  0  0  0  0  0  0  0
   56.9012   27.6368   45.9343 H   0  0  0  0  0  0  0  0  0  0  0  0
   55.3580   28.6610   45.6110 H   0  0  0  0  0  0  0  0  0  0  0  0
   59.1645   31.2570   45.2065 H   0  0  0  0  0  0  0  0  0  0  0  0
   58.8930   32.9900   49.8079 H   0  0  0  0  0  0  0  0  0  0  0  0
   57.5680   32.0468   49.0455 H   0  0  0  0  0  0  0  0  0  0  0  0
   59.2445   31.4020   49.0455 H   0  0  0  0  0  0  0  0  0  0  0  0
   56.7822   33.2643   47.2525 H   0  0  0  0  0  0  0  0  0  0  0  0
  1  2  1  0
  2  3  2  0
  3  4  1  0
  4  5  2  0
  5  6  1  0
  6  7  1  0
  7  8  2  0
  7  9  1  0
  9 10  1  0
 10 11  2  0
 11 12  1  0
 12 13  2  0
 13 14  1  0
 14 15  1  0
 15 16  1  0
 15 17  2  0
 15 18  2  0
 14 19  2  0
  5 20  1  0
 20 21  1  0
 20 22  2  0
 22  2  1  0
 19 10  1  0
  1 23  1  0
  1 24  1  0
  1 25  1  0
  3 26  1  0
  4 27  1  0
  6 28  1  0
  6 29  1  0
 11 30  1  0
 12 31  1  0
 13 32  1  0
 16 33  1  0
 19 34  1  0
 21 35  1  0
 21 36  1  0
 21 37  1  0
 22 38  1  0
M  CHG  2   9  -1  16  -1
M  END
>  <UniqueID>  (92) 
86

>  <SMILES>  (92) 
Cc1ccc(CC(=O)[N-]c2cccc(S([NH-])(=O)=O)c2)c(C)c1

>  <Energy>  (92) 
39.72647947616988

>  <Genealogy>  (92) 
Cc1ccc(CC(=O)[N-]c2cccc(S([NH-])(=O)=O)c2)c(C)c1 (protonated)
Cc1ccc(CC(=O)[N-]c2cccc(S([NH-])(=O)=O)c2)c(C)c1 (3D coordinates assigned)
Cc1ccc(CC(=O)[N-]c2cccc(S([NH-])(=O)=O)c2)c(C)c1 (optimized conformer: 39.72647947616988 kcal/mol)

>  <smiles>  (92) 
Cc1ccc(CC(=O)Nc2cccc(S(N)(=O)=O)c2)c(C)c1

>  <score_type>  (92) 
oracle

>  <origin>  (92) 
adg

>  <m_score__min__energy>  (92) 
-12.74

>  <m_primary>  (92) 
energy

$$$$
92:0
     RDKit          3D

 41 43  0  0  0  0  0  0  0  0999 V2000
   57.1315   33.0919   42.7013 H   0  0  0  0  0  0  0  0  0  0  0  0
   57.6950   32.7450   43.5800 C   0  0  0  0  0  0  0  0  0  0  0  0
   57.4120   31.4020   44.1230 C   0  0  0  0  0  0  0  0  0  0  0  0
   56.3890   31.2060   44.8350 O   0  0  0  0  0  0  0  0  0  0  0  0
   58.2910   30.3120   43.8020 N   0  0  0  0  0  0  0  0  0  0  0  0
   58.9460   30.4350   42.9960 H   0  0  0  0  0  0  0  0  0  0  0  0
   58.2460   29.0250   44.4400 C   0  0  0  0  0  0  0  0  0  0  0  0
   58.1360   27.8690   43.6520 C   0  0  0  0  0  0  0  0  0  0  0  0
   58.0666   27.9588   42.5579 H   0  0  0  0  0  0  0  0  0  0  0  0
   58.1140   26.6040   44.2470 C   0  0  0  0  0  0  0  0  0  0  0  0
   58.0123   25.7054   43.6207 H   0  0  0  0  0  0  0  0  0  0  0  0
   58.2210   26.4770   45.6370 C   0  0  0  0  0  0  0  0  0  0  0  0
   58.2090   24.8790   46.3770 S   0  0  0  0  0  0  0  0  0  0  0  0
   59.4840   24.1440   46.0720 O   0  0  0  0  0  0  0  0  0  0  0  0
   58.0770   25.0340   47.8660 O   0  0  0  0  0  0  0  0  0  0  0  0
   56.8660   23.9560   45.7810 N   0  0  0  0  0  0  0  0  0  0  0  0
   55.6580   24.4190   45.6560 C   0  0  0  0  0  0  0  0  0  0  0  0
   55.3280   25.6850   45.9660 N   0  0  0  0  0  0  0  0  0  0  0  0
   54.0560   25.8060   45.7140 O   0  0  0  0  0  0  0  0  0  0  0  0
   53.5530   24.6780   45.2630 C   0  0  0  0  0  0  0  0  0  0  0  0
   52.1310   24.4870   44.8620 C   0  0  0  0  0  0  0  0  0  0  0  0
   51.5043   24.4028   45.7621 H   0  0  0  0  0  0  0  0  0  0  0  0
   51.7998   25.3487   44.2639 H   0  0  0  0  0  0  0  0  0  0  0  0
   52.0389   23.5684   44.2639 H   0  0  0  0  0  0  0  0  0  0  0  0
   54.5510   23.7290   45.1980 C   0  0  0  0  0  0  0  0  0  0  0  0
   54.4833   22.6829   44.8646 H   0  0  0  0  0  0  0  0  0  0  0  0
   58.3490   27.6260   46.4290 C   0  0  0  0  0  0  0  0  0  0  0  0
   58.4333   27.5317   47.5217 H   0  0  0  0  0  0  0  0  0  0  0  0
   58.3700   28.8910   45.8360 C   0  0  0  0  0  0  0  0  0  0  0  0
   58.4841   29.7873   46.4634 H   0  0  0  0  0  0  0  0  0  0  0  0
   58.6140   33.5560   44.1200 C   0  0  0  0  0  0  0  0  0  0  0  0
   59.2825   34.1117   43.4460 H   0  0  0  0  0  0  0  0  0  0  0  0
   58.7730   33.7400   45.5760 C   0  0  0  0  0  0  0  0  0  0  0  0
   59.5720   34.6720   46.2230 C   0  0  0  0  0  0  0  0  0  0  0  0
   60.2187   35.4271   45.7522 H   0  0  0  0  0  0  0  0  0  0  0  0
   59.3930   34.4620   47.5760 C   0  0  0  0  0  0  0  0  0  0  0  0
   59.8711   35.0182   48.3958 H   0  0  0  0  0  0  0  0  0  0  0  0
   58.4980   33.4190   47.7000 C   0  0  0  0  0  0  0  0  0  0  0  0
   58.1419   33.0035   48.6543 H   0  0  0  0  0  0  0  0  0  0  0  0
   58.1250   32.9850   46.4830 N   0  0  0  0  0  0  0  0  0  0  0  0
   57.4560   32.2080   46.2850 H   0  0  0  0  0  0  0  0  0  0  0  0
  1  2  1  0
  2  3  1  0
  3  4  2  0
  3  5  1  0
  5  6  1  0
  5  7  1  0
  7  8  2  0
  8  9  1  0
  8 10  1  0
 10 11  1  0
 10 12  2  0
 12 13  1  0
 13 14  2  0
 13 15  2  0
 13 16  1  0
 16 17  2  3
 17 18  1  0
 18 19  1  0
 19 20  1  0
 20 21  1  0
 21 22  1  0
 21 23  1  0
 21 24  1  0
 20 25  2  0
 25 26  1  0
 12 27  1  0
 27 28  1  0
 27 29  2  0
 29 30  1  0
  2 31  2  0
 31 32  1  0
 31 33  1  0
 33 34  2  0
 34 35  1  0
 34 36  1  0
 36 37  1  0
 36 38  2  0
 38 39  1  0
 38 40  1  0
 40 41  1  0
 29  7  1  0
 40 33  1  0
 25 17  1  0
M  CHG  1  18  -1
M  END
>  <UniqueID>  (93) 
87

>  <SMILES>  (93) 
Cc1cc(=NS(=O)(=O)c2ccc(NC(=O)/C=C/c3ccc[nH]3)cc2)[n-]o1

>  <Energy>  (93) 
103.49752677128268

>  <Genealogy>  (93) 
Cc1cc(=NS(=O)(=O)c2ccc(NC(=O)C=Cc3ccc[nH]3)cc2)[n-]o1 (protonated)
Cc1cc(=NS(=O)(=O)c2ccc(NC(=O)/C=C/c3ccc[nH]3)cc2)[n-]o1 (cis-trans isomerization)
Cc1cc(=NS(=O)(=O)c2ccc(NC(=O)/C=C/c3ccc[nH]3)cc2)[n-]o1 (3D coordinates assigned)
Cc1cc(=NS(=O)(=O)c2ccc(NC(=O)/C=C/c3ccc[nH]3)cc2)[n-]o1 (optimized conformer: 103.49752677128268 kcal/mol)

>  <smiles>  (93) 
Cc1cc(=NS(=O)(=O)c2ccc(NC(=O)C=Cc3ccc[nH]3)cc2)[nH]o1

>  <score_type>  (93) 
oracle

>  <origin>  (93) 
adg

>  <m_score__min__energy>  (93) 
-10.9

>  <m_primary>  (93) 
energy

$$$$
93:0
     RDKit          3D

 53 55  0  0  0  0  0  0  0  0999 V2000
   63.6770   33.0880   46.9150 C   0  0  0  0  0  0  0  0  0  0  0  0
   62.9940   33.7260   48.1230 C   0  0  0  0  0  0  0  0  0  0  0  0
   61.6320   33.0710   48.4380 C   0  0  0  0  0  0  0  0  0  0  0  0
   60.4240   33.8260   47.8430 C   0  0  0  0  0  0  0  0  0  0  0  0
   59.1630   32.9560   47.6000 C   0  0  1  0  0  0  0  0  0  0  0  0
   58.9020   31.9350   48.7100 C   0  0  0  0  0  0  0  0  0  0  0  0
   58.5090   32.3730   49.9920 C   0  0  0  0  0  0  0  0  0  0  0  0
   58.2880   31.4570   51.0230 C   0  0  0  0  0  0  0  0  0  0  0  0
   58.4630   30.0920   50.7950 C   0  0  0  0  0  0  0  0  0  0  0  0
   58.8770   29.6410   49.5430 C   0  0  0  0  0  0  0  0  0  0  0  0
   59.1020   30.5520   48.5090 C   0  0  0  0  0  0  0  0  0  0  0  0
   58.0010   33.8240   47.3820 N   0  0  0  0  0  0  0  0  0  0  0  0
   57.4790   33.5360   46.0920 C   0  0  0  0  0  0  0  0  0  0  0  0
   56.4280   34.0680   45.6460 O   0  0  0  0  0  0  0  0  0  0  0  0
   58.2330   32.5770   45.3750 N   0  0  0  0  0  0  0  0  0  0  0  0
   57.7060   31.7050   44.3270 C   0  0  0  0  0  0  0  0  0  0  0  0
   57.6200   30.2940   44.8280 C   0  0  0  0  0  0  0  0  0  0  0  0
   56.4880   29.7920   45.0590 O   0  0  0  0  0  0  0  0  0  0  0  0
   58.8200   29.5620   45.1240 N   0  0  0  0  0  0  0  0  0  0  0  0
   58.8490   28.1960   45.5700 C   0  0  0  0  0  0  0  0  0  0  0  0
   60.0470   27.5810   45.9750 C   0  0  0  0  0  0  0  0  0  0  0  0
   60.0390   26.2660   46.4450 C   0  0  0  0  0  0  0  0  0  0  0  0
   58.8380   25.5580   46.5300 C   0  0  0  0  0  0  0  0  0  0  0  0
   57.6360   26.1630   46.1480 C   0  0  0  0  0  0  0  0  0  0  0  0
   56.1230   25.2780   46.3110 S   0  0  0  0  0  0  0  0  0  0  0  0
   54.7950   26.3340   45.9880 N   0  0  0  0  0  0  0  0  0  0  0  0
   56.0890   24.1310   45.3420 O   0  0  0  0  0  0  0  0  0  0  0  0
   56.0050   24.7320   47.7070 O   0  0  0  0  0  0  0  0  0  0  0  0
   57.6430   27.4850   45.6770 C   0  0  0  0  0  0  0  0  0  0  0  0
   59.2730   32.2330   46.2800 C   0  0  0  0  0  0  0  0  0  0  0  0
   60.1830   31.4100   45.9930 O   0  0  0  0  0  0  0  0  0  0  0  0
   64.4404   32.3749   47.2596 H   0  0  0  0  0  0  0  0  0  0  0  0
   62.9282   32.5585   46.3077 H   0  0  0  0  0  0  0  0  0  0  0  0
   64.1544   33.8711   46.3077 H   0  0  0  0  0  0  0  0  0  0  0  0
   63.6502   33.6171   48.9991 H   0  0  0  0  0  0  0  0  0  0  0  0
   62.8123   34.7849   47.8872 H   0  0  0  0  0  0  0  0  0  0  0  0
   61.6365   32.0490   48.0313 H   0  0  0  0  0  0  0  0  0  0  0  0
   61.5136   33.0890   49.5315 H   0  0  0  0  0  0  0  0  0  0  0  0
   60.1519   34.6353   48.5366 H   0  0  0  0  0  0  0  0  0  0  0  0
   60.7436   34.1875   46.8545 H   0  0  0  0  0  0  0  0  0  0  0  0
   58.3751   33.4482   50.1819 H   0  0  0  0  0  0  0  0  0  0  0  0
   57.9756   31.8124   52.0160 H   0  0  0  0  0  0  0  0  0  0  0  0
   58.2741   29.3710   51.6040 H   0  0  0  0  0  0  0  0  0  0  0  0
   59.0268   28.5652   49.3690 H   0  0  0  0  0  0  0  0  0  0  0  0
   59.4388   30.1881   47.5271 H   0  0  0  0  0  0  0  0  0  0  0  0
   56.7027   32.0501   44.0365 H   0  0  0  0  0  0  0  0  0  0  0  0
   58.3788   31.7387   43.4574 H   0  0  0  0  0  0  0  0  0  0  0  0
   59.7260   30.0780   45.0840 H   0  0  0  0  0  0  0  0  0  0  0  0
   60.9941   28.1379   45.9214 H   0  0  0  0  0  0  0  0  0  0  0  0
   60.9811   25.7865   46.7491 H   0  0  0  0  0  0  0  0  0  0  0  0
   58.8374   24.5215   46.8984 H   0  0  0  0  0  0  0  0  0  0  0  0
   55.1400   27.0710   45.3360 H   0  0  0  0  0  0  0  0  0  0  0  0
   56.6971   27.9675   45.3897 H   0  0  0  0  0  0  0  0  0  0  0  0
  1  2  1  0
  2  3  1  0
  3  4  1  0
  5  4  1  1
  5  6  1  0
  6  7  2  0
  7  8  1  0
  8  9  2  0
  9 10  1  0
 10 11  2  0
  5 12  1  0
 12 13  1  0
 13 14  2  0
 13 15  1  0
 15 16  1  0
 16 17  1  0
 17 18  2  0
 17 19  1  0
 19 20  1  0
 20 21  2  0
 21 22  1  0
 22 23  2  0
 23 24  1  0
 24 25  1  0
 25 26  1  0
 25 27  2  0
 25 28  2  0
 24 29  2  0
 15 30  1  0
 30 31  2  0
 30  5  1  0
 11  6  1  0
 29 20  1  0
  1 32  1  0
  1 33  1  0
  1 34  1  0
  2 35  1  0
  2 36  1  0
  3 37  1  0
  3 38  1  0
  4 39  1  0
  4 40  1  0
  7 41  1  0
  8 42  1  0
  9 43  1  0
 10 44  1  0
 11 45  1  0
 16 46  1  0
 16 47  1  0
 19 48  1  0
 21 49  1  0
 22 50  1  0
 23 51  1  0
 26 52  1  0
 29 53  1  0
M  CHG  2  12  -1  26  -1
M  END
>  <UniqueID>  (94) 
88

>  <SMILES>  (94) 
CCCC[C@@]1(c2ccccc2)[N-]C(=O)N(CC(=O)Nc2cccc(S([NH-])(=O)=O)c2)C1=O

>  <Energy>  (94) 
72.92064967118318

>  <Genealogy>  (94) 
CCCCC1(c2ccccc2)[N-]C(=O)N(CC(=O)Nc2cccc(S([NH-])(=O)=O)c2)C1=O (protonated)
CCCC[C@@]1(c2ccccc2)[N-]C(=O)N(CC(=O)Nc2cccc(S([NH-])(=O)=O)c2)C1=O (chirality)
CCCC[C@@]1(c2ccccc2)[N-]C(=O)N(CC(=O)Nc2cccc(S([NH-])(=O)=O)c2)C1=O (3D coordinates assigned)
CCCC[C@@]1(c2ccccc2)[N-]C(=O)N(CC(=O)Nc2cccc(S([NH-])(=O)=O)c2)C1=O (nonaromatic ring conformer: 72.92064967118318 kcal/mol)

>  <smiles>  (94) 
CCCCC1(c2ccccc2)NC(=O)N(CC(=O)Nc2cccc(S(N)(=O)=O)c2)C1=O

>  <score_type>  (94) 
oracle

>  <origin>  (94) 
adg

>  <m_score__min__energy>  (94) 
-13.619999999999999

>  <m_primary>  (94) 
energy

$$$$
94:0
     RDKit          3D

 59 62  0  0  0  0  0  0  0  0999 V2000
   58.4670   27.3590   44.7940 C   0  0  0  0  0  0  0  0  0  0  0  0
   57.9400   28.6720   44.2880 C   0  0  0  0  0  0  0  0  0  0  0  0
   57.0210   28.7070   43.2310 C   0  0  0  0  0  0  0  0  0  0  0  0
   56.5740   29.8980   42.7550 N   0  0  0  0  0  0  0  0  0  0  0  0
   57.0020   31.0830   43.2690 C   0  0  0  0  0  0  0  0  0  0  0  0
   57.9380   31.1070   44.3170 C   0  0  0  0  0  0  0  0  0  0  0  0
   58.4120   32.3970   44.8860 C   0  0  0  0  0  0  0  0  0  0  0  0
   57.8680   33.6170   44.4460 C   0  0  0  0  0  0  0  0  0  0  0  0
   58.3180   34.8280   44.9780 C   0  0  0  0  0  0  0  0  0  0  0  0
   59.3210   34.8400   45.9560 C   0  0  0  0  0  0  0  0  0  0  0  0
   59.7640   36.0500   46.4920 O   0  0  0  0  0  0  0  0  0  0  0  0
   59.8710   33.6320   46.4070 C   0  0  0  0  0  0  0  0  0  0  0  0
   60.9160   33.6330   47.3890 N   0  0  0  0  0  0  0  0  0  0  0  0
   60.5780   33.3990   48.8010 C   0  0  0  0  0  0  0  0  0  0  0  0
   61.5230   34.1860   49.7240 C   0  0  0  0  0  0  0  0  0  0  0  0
   63.0150   34.1190   49.2900 C   0  0  0  0  0  0  0  0  0  0  0  0
   63.9060   33.8690   50.4520 N   0  0  0  0  0  0  0  0  0  0  0  0
   64.1270   32.4610   50.8390 C   0  0  0  0  0  0  0  0  0  0  0  0
   62.8550   31.7960   51.3690 C   0  0  0  0  0  0  0  0  0  0  0  0
   62.7820   30.0370   50.8690 S   0  0  0  0  0  0  0  0  0  0  0  0
   61.2200   30.2020   49.9910 C   0  0  0  0  0  0  0  0  0  0  0  0
   61.1410   29.8690   48.6310 C   0  0  0  0  0  0  0  0  0  0  0  0
   59.9140   29.9450   47.9560 C   0  0  0  0  0  0  0  0  0  0  0  0
   58.7680   30.3690   48.6340 C   0  0  0  0  0  0  0  0  0  0  0  0
   58.8480   30.7200   49.9870 C   0  0  0  0  0  0  0  0  0  0  0  0
   60.0720   30.6370   50.6660 C   0  0  0  0  0  0  0  0  0  0  0  0
   63.2540   33.1900   48.0740 C   0  0  0  0  0  0  0  0  0  0  0  0
   62.3090   33.5670   46.9290 C   0  0  0  0  0  0  0  0  0  0  0  0
   59.4120   32.4170   45.8750 C   0  0  0  0  0  0  0  0  0  0  0  0
   58.4120   29.8800   44.8160 C   0  0  0  0  0  0  0  0  0  0  0  0
   58.4655   27.3627   45.8940 H   0  0  0  0  0  0  0  0  0  0  0  0
   57.8271   26.5420   44.4292 H   0  0  0  0  0  0  0  0  0  0  0  0
   59.4942   27.2111   44.4292 H   0  0  0  0  0  0  0  0  0  0  0  0
   56.6607   27.7679   42.7857 H   0  0  0  0  0  0  0  0  0  0  0  0
   56.6130   32.0279   42.8617 H   0  0  0  0  0  0  0  0  0  0  0  0
   57.0818   33.6178   43.6767 H   0  0  0  0  0  0  0  0  0  0  0  0
   57.8831   35.7757   44.6276 H   0  0  0  0  0  0  0  0  0  0  0  0
   59.1970   36.5800   47.1420 H   0  0  0  0  0  0  0  0  0  0  0  0
   59.5428   33.7233   48.9830 H   0  0  0  0  0  0  0  0  0  0  0  0
   60.6855   32.3258   49.0171 H   0  0  0  0  0  0  0  0  0  0  0  0
   61.2085   35.2401   49.7267 H   0  0  0  0  0  0  0  0  0  0  0  0
   61.4561   33.7272   50.7215 H   0  0  0  0  0  0  0  0  0  0  0  0
   63.2962   35.1128   48.9115 H   0  0  0  0  0  0  0  0  0  0  0  0
   64.8490   34.2620   50.2150 H   0  0  0  0  0  0  0  0  0  0  0  0
   64.4767   31.9030   49.9579 H   0  0  0  0  0  0  0  0  0  0  0  0
   64.8740   32.4480   51.6464 H   0  0  0  0  0  0  0  0  0  0  0  0
   62.8462   31.8591   52.4672 H   0  0  0  0  0  0  0  0  0  0  0  0
   61.9833   32.3180   50.9476 H   0  0  0  0  0  0  0  0  0  0  0  0
   62.0443   29.5472   48.0920 H   0  0  0  0  0  0  0  0  0  0  0  0
   59.8537   29.6707   46.8924 H   0  0  0  0  0  0  0  0  0  0  0  0
   57.8049   30.4269   48.1057 H   0  0  0  0  0  0  0  0  0  0  0  0
   57.9479   31.0619   50.5189 H   0  0  0  0  0  0  0  0  0  0  0  0
   60.1309   30.9135   51.7290 H   0  0  0  0  0  0  0  0  0  0  0  0
   64.2954   33.2946   47.7355 H   0  0  0  0  0  0  0  0  0  0  0  0
   63.0600   32.1493   48.3727 H   0  0  0  0  0  0  0  0  0  0  0  0
   62.6021   34.5496   46.5308 H   0  0  0  0  0  0  0  0  0  0  0  0
   62.3817   32.7946   46.1492 H   0  0  0  0  0  0  0  0  0  0  0  0
   59.8392   31.4696   46.2356 H   0  0  0  0  0  0  0  0  0  0  0  0
   59.1572   29.8695   45.6251 H   0  0  0  0  0  0  0  0  0  0  0  0
  1  2  1  0
  2  3  2  0
  3  4  1  0
  4  5  2  0
  5  6  1  0
  6  7  1  0
  7  8  2  0
  8  9  1  0
  9 10  2  0
 10 11  1  0
 10 12  1  0
 12 13  1  0
 13 14  1  0
 14 15  1  0
 15 16  1  0
 16 17  1  0
 17 18  1  0
 18 19  1  0
 19 20  1  0
 20 21  1  0
 21 22  2  0
 22 23  1  0
 23 24  2  0
 24 25  1  0
 25 26  2  0
 16 27  1  0
 27 28  1  0
 12 29  2  0
  6 30  2  0
 30  2  1  0
 29  7  1  0
 28 13  1  0
 26 21  1  0
  1 31  1  0
  1 32  1  0
  1 33  1  0
  3 34  1  0
  5 35  1  0
  8 36  1  0
  9 37  1  0
 11 38  1  0
 14 39  1  0
 14 40  1  0
 15 41  1  0
 15 42  1  0
 16 43  1  0
 17 44  1  0
 18 45  1  0
 18 46  1  0
 19 47  1  0
 19 48  1  0
 22 49  1  0
 23 50  1  0
 24 51  1  0
 25 52  1  0
 26 53  1  0
 27 54  1  0
 27 55  1  0
 28 56  1  0
 28 57  1  0
 29 58  1  0
 30 59  1  0
M  END
>  <UniqueID>  (95) 
89

>  <SMILES>  (95) 
Cc1cncc(-c2ccc(O)c(N3CCC(NCCSc4ccccc4)CC3)c2)c1

>  <Energy>  (95) 
72.67380949674575

>  <Genealogy>  (95) 
Cc1cncc(-c2ccc(O)c(N3CCC(NCCSc4ccccc4)CC3)c2)c1 (3D coordinates assigned)
Cc1cncc(-c2ccc(O)c(N3CCC(NCCSc4ccccc4)CC3)c2)c1 (nonaromatic ring conformer: 72.67380949674575 kcal/mol)

>  <smiles>  (95) 
Cc1cncc(-c2ccc(O)c(N3CCC(NCCSc4ccccc4)CC3)c2)c1

>  <score_type>  (95) 
oracle

>  <origin>  (95) 
adg

>  <m_score__min__energy>  (95) 
-8.7799999999999994

>  <m_primary>  (95) 
energy

$$$$
95:0
     RDKit          3D

 56 59  0  0  0  0  0  0  0  0999 V2000
   60.0260   24.9680   46.0020 O   0  0  0  0  0  0  0  0  0  0  0  0
   59.3980   25.9020   46.5650 C   0  0  0  0  0  0  0  0  0  0  0  0
   60.1120   26.7820   47.4410 N   0  0  0  0  0  0  0  0  0  0  0  0
   59.6860   28.0950   47.8280 C   0  0  0  0  0  0  0  0  0  0  0  0
   59.9530   28.6040   49.1080 C   0  0  0  0  0  0  0  0  0  0  0  0
   59.5640   29.9000   49.4450 C   0  0  0  0  0  0  0  0  0  0  0  0
   58.8940   30.7060   48.5180 C   0  0  0  0  0  0  0  0  0  0  0  0
   58.4870   32.0160   48.9340 N   0  0  0  0  0  0  0  0  0  0  0  0
   59.4820   33.1050   49.8480 S   0  0  0  0  0  0  0  0  0  0  0  0
   58.8170   33.4360   51.1520 O   0  0  0  0  0  0  0  0  0  0  0  0
   59.6500   34.3720   49.0590 O   0  0  0  0  0  0  0  0  0  0  0  0
   61.1020   32.4150   50.1720 C   0  0  0  0  0  0  0  0  0  0  0  0
   62.0310   32.5880   48.9990 C   0  0  0  0  0  0  0  0  0  0  0  0
   62.3920   31.4850   48.2070 C   0  0  0  0  0  0  0  0  0  0  0  0
   63.2670   31.6490   47.1280 C   0  0  0  0  0  0  0  0  0  0  0  0
   63.7860   32.9110   46.8300 C   0  0  0  0  0  0  0  0  0  0  0  0
   63.4400   34.0110   47.6190 C   0  0  0  0  0  0  0  0  0  0  0  0
   62.5730   33.8520   48.7030 C   0  0  0  0  0  0  0  0  0  0  0  0
   58.6620   30.2210   47.2090 C   0  0  0  0  0  0  0  0  0  0  0  0
   58.1220   31.0940   46.1440 C   0  0  0  0  0  0  0  0  0  0  0  0
   57.1720   30.6560   45.4400 O   0  0  0  0  0  0  0  0  0  0  0  0
   58.6390   32.4680   45.9030 C   0  0  0  0  0  0  0  0  0  0  0  0
   59.9170   32.8600   46.3490 C   0  0  0  0  0  0  0  0  0  0  0  0
   60.3920   34.1510   46.0970 C   0  0  0  0  0  0  0  0  0  0  0  0
   59.6040   35.0640   45.3950 C   0  0  0  0  0  0  0  0  0  0  0  0
   58.3390   34.6860   44.9410 C   0  0  0  0  0  0  0  0  0  0  0  0
   57.8580   33.3970   45.1880 C   0  0  0  0  0  0  0  0  0  0  0  0
   59.0740   28.9180   46.8780 C   0  0  0  0  0  0  0  0  0  0  0  0
   57.9960   26.1010   46.3120 N   0  0  0  0  0  0  0  0  0  0  0  0
   57.1800   25.2190   45.5250 C   0  0  0  0  0  0  0  0  0  0  0  0
   55.9490   24.7830   46.0400 C   0  0  0  0  0  0  0  0  0  0  0  0
   55.1230   23.9450   45.2850 C   0  0  0  0  0  0  0  0  0  0  0  0
   55.5110   23.5500   44.0020 C   0  0  0  0  0  0  0  0  0  0  0  0
   56.7230   23.9990   43.4690 C   0  0  0  0  0  0  0  0  0  0  0  0
   57.5530   24.8360   44.2220 C   0  0  0  0  0  0  0  0  0  0  0  0
   60.4715   27.9779   49.8490 H   0  0  0  0  0  0  0  0  0  0  0  0
   59.7858   30.2922   50.4485 H   0  0  0  0  0  0  0  0  0  0  0  0
   61.5357   32.9214   51.0469 H   0  0  0  0  0  0  0  0  0  0  0  0
   60.9828   31.3371   50.3564 H   0  0  0  0  0  0  0  0  0  0  0  0
   61.9851   30.4891   48.4362 H   0  0  0  0  0  0  0  0  0  0  0  0
   63.5471   30.7815   46.5124 H   0  0  0  0  0  0  0  0  0  0  0  0
   64.4664   33.0388   45.9751 H   0  0  0  0  0  0  0  0  0  0  0  0
   63.8511   35.0044   47.3862 H   0  0  0  0  0  0  0  0  0  0  0  0
   62.3130   34.7191   49.3279 H   0  0  0  0  0  0  0  0  0  0  0  0
   60.5459   32.1450   46.8997 H   0  0  0  0  0  0  0  0  0  0  0  0
   61.3896   34.4476   46.4532 H   0  0  0  0  0  0  0  0  0  0  0  0
   59.9788   36.0796   45.1997 H   0  0  0  0  0  0  0  0  0  0  0  0
   57.7184   35.4054   44.3867 H   0  0  0  0  0  0  0  0  0  0  0  0
   56.8625   33.1060   44.8214 H   0  0  0  0  0  0  0  0  0  0  0  0
   58.9125   28.5410   45.8573 H   0  0  0  0  0  0  0  0  0  0  0  0
   57.5150   26.8890   46.7980 H   0  0  0  0  0  0  0  0  0  0  0  0
   55.6324   25.1027   47.0438 H   0  0  0  0  0  0  0  0  0  0  0  0
   54.1665   23.5962   45.7014 H   0  0  0  0  0  0  0  0  0  0  0  0
   54.8629   22.8858   43.4114 H   0  0  0  0  0  0  0  0  0  0  0  0
   57.0243   23.6936   42.4561 H   0  0  0  0  0  0  0  0  0  0  0  0
   58.5005   25.1964   43.7950 H   0  0  0  0  0  0  0  0  0  0  0  0
  1  2  2  0
  2  3  1  0
  3  4  1  0
  4  5  2  0
  5  6  1  0
  6  7  2  0
  7  8  1  0
  8  9  1  0
  9 10  2  0
  9 11  2  0
  9 12  1  0
 12 13  1  0
 13 14  2  0
 14 15  1  0
 15 16  2  0
 16 17  1  0
 17 18  2  0
  7 19  1  0
 19 20  1  0
 20 21  2  0
 20 22  1  0
 22 23  2  0
 23 24  1  0
 24 25  2  0
 25 26  1  0
 26 27  2  0
 19 28  2  0
  2 29  1  0
 29 30  1  0
 30 31  2  0
 31 32  1  0
 32 33  2  0
 33 34  1  0
 34 35  2  0
 28  4  1  0
 35 30  1  0
 18 13  1  0
 27 22  1  0
  5 36  1  0
  6 37  1  0
 12 38  1  0
 12 39  1  0
 14 40  1  0
 15 41  1  0
 16 42  1  0
 17 43  1  0
 18 44  1  0
 23 45  1  0
 24 46  1  0
 25 47  1  0
 26 48  1  0
 27 49  1  0
 28 50  1  0
 29 51  1  0
 31 52  1  0
 32 53  1  0
 33 54  1  0
 34 55  1  0
 35 56  1  0
M  CHG  2   3  -1   8  -1
M  END
>  <UniqueID>  (96) 
90

>  <SMILES>  (96) 
O=C([N-]c1ccc([N-]S(=O)(=O)Cc2ccccc2)c(C(=O)c2ccccc2)c1)Nc1ccccc1

>  <Energy>  (96) 
76.44493546195652

>  <Genealogy>  (96) 
O=C([N-]c1ccc([N-]S(=O)(=O)Cc2ccccc2)c(C(=O)c2ccccc2)c1)Nc1ccccc1 (protonated)
O=C([N-]c1ccc([N-]S(=O)(=O)Cc2ccccc2)c(C(=O)c2ccccc2)c1)Nc1ccccc1 (3D coordinates assigned)
O=C([N-]c1ccc([N-]S(=O)(=O)Cc2ccccc2)c(C(=O)c2ccccc2)c1)Nc1ccccc1 (optimized conformer: 76.44493546195652 kcal/mol)

>  <smiles>  (96) 
O=C(Nc1ccccc1)Nc1ccc(NS(=O)(=O)Cc2ccccc2)c(C(=O)c2ccccc2)c1

>  <score_type>  (96) 
oracle

>  <origin>  (96) 
adg

>  <m_score__min__energy>  (96) 
-12.76

>  <m_primary>  (96) 
energy

$$$$
