0:0
     RDKit          3D

 53 56  0  0  0  0  0  0  0  0999 V2000
   60.9000   33.6480   49.9520 C   0  0  0  0  0  0  0  0  0  0  0  0
   59.7910   33.4090   48.9840 C   0  0  0  0  0  0  0  0  0  0  0  0
   59.0630   32.2690   48.9510 N   0  0  0  0  0  0  0  0  0  0  0  0
   58.1760   32.2420   47.9590 N   0  0  0  0  0  0  0  0  0  0  0  0
   58.2070   33.3570   47.1940 C   0  0  0  0  0  0  0  0  0  0  0  0
   57.4460   33.5630   46.1600 N   0  0  0  0  0  0  0  0  0  0  0  0
   57.8910   33.8340   44.8220 C   0  0  0  0  0  0  0  0  0  0  0  0
   58.4170   34.9410   44.5210 O   0  0  0  0  0  0  0  0  0  0  0  0
   57.7630   32.7720   43.7720 C   0  0  0  0  0  0  0  0  0  0  0  0
   57.4900   31.4690   44.3930 N   0  0  0  0  0  0  0  0  0  0  0  0
   56.2910   30.8490   44.1780 C   0  0  0  0  0  0  0  0  0  0  0  0
   56.0320   29.5930   44.7270 C   0  0  0  0  0  0  0  0  0  0  0  0
   54.8080   28.9760   44.4940 O   0  0  0  0  0  0  0  0  0  0  0  0
   57.0100   28.9610   45.4990 C   0  0  0  0  0  0  0  0  0  0  0  0
   56.7840   27.8090   45.9580 O   0  0  0  0  0  0  0  0  0  0  0  0
   58.2420   29.6050   45.7310 C   0  0  0  0  0  0  0  0  0  0  0  0
   59.3180   28.9790   46.5400 C   0  0  0  0  0  0  0  0  0  0  0  0
   60.0110   28.0510   46.0380 O   0  0  0  0  0  0  0  0  0  0  0  0
   59.6200   29.4570   47.8610 N   0  0  0  0  0  0  0  0  0  0  0  0
   60.2720   28.6680   48.8720 C   0  0  0  0  0  0  0  0  0  0  0  0
   60.9270   29.3100   49.9280 C   0  0  0  0  0  0  0  0  0  0  0  0
   61.5380   28.5700   50.9430 C   0  0  0  0  0  0  0  0  0  0  0  0
   61.5050   27.1560   50.9390 C   0  0  0  0  0  0  0  0  0  0  0  0
   62.1390   26.3790   52.0030 N   0  0  0  0  0  0  0  0  0  0  0  0
   63.5410   26.6700   52.3770 C   0  0  0  0  0  0  0  0  0  0  0  0
   64.0510   25.8330   53.5560 C   0  0  0  0  0  0  0  0  0  0  0  0
   63.5380   24.5230   53.5150 O   0  0  0  0  0  0  0  0  0  0  0  0
   62.1540   24.5820   53.7590 C   0  0  0  0  0  0  0  0  0  0  0  0
   61.4220   25.2220   52.5790 C   0  0  0  0  0  0  0  0  0  0  0  0
   60.8200   26.5220   49.8770 C   0  0  0  0  0  0  0  0  0  0  0  0
   60.2100   27.2670   48.8640 C   0  0  0  0  0  0  0  0  0  0  0  0
   58.4580   30.8660   45.1470 C   0  0  0  0  0  0  0  0  0  0  0  0
   59.3700   34.4500   47.7260 S   0  0  0  0  0  0  0  0  0  0  0  0
   60.5146   33.5649   50.9789 H   0  0  0  0  0  0  0  0  0  0  0  0
   61.6909   32.8997   49.7955 H   0  0  0  0  0  0  0  0  0  0  0  0
   61.3125   34.6557   49.7955 H   0  0  0  0  0  0  0  0  0  0  0  0
   56.9366   33.0306   43.0936 H   0  0  0  0  0  0  0  0  0  0  0  0
   58.7069   32.7093   43.2106 H   0  0  0  0  0  0  0  0  0  0  0  0
   55.5231   31.3451   43.5663 H   0  0  0  0  0  0  0  0  0  0  0  0
   59.4200   30.4620   48.0730 H   0  0  0  0  0  0  0  0  0  0  0  0
   60.9613   30.4090   49.9595 H   0  0  0  0  0  0  0  0  0  0  0  0
   62.0539   29.0962   51.7597 H   0  0  0  0  0  0  0  0  0  0  0  0
   64.1817   26.4691   51.5057 H   0  0  0  0  0  0  0  0  0  0  0  0
   63.5778   27.7236   52.6911 H   0  0  0  0  0  0  0  0  0  0  0  0
   65.1494   25.7888   53.5151 H   0  0  0  0  0  0  0  0  0  0  0  0
   63.7143   26.3079   54.4893 H   0  0  0  0  0  0  0  0  0  0  0  0
   61.7707   23.5622   53.9111 H   0  0  0  0  0  0  0  0  0  0  0  0
   61.9797   25.1940   54.6562 H   0  0  0  0  0  0  0  0  0  0  0  0
   61.2964   24.4628   51.7930 H   0  0  0  0  0  0  0  0  0  0  0  0
   60.4574   25.5921   52.9565 H   0  0  0  0  0  0  0  0  0  0  0  0
   60.7663   25.4237   49.8475 H   0  0  0  0  0  0  0  0  0  0  0  0
   59.6764   26.7497   48.0530 H   0  0  0  0  0  0  0  0  0  0  0  0
   59.4211   31.3752   45.2993 H   0  0  0  0  0  0  0  0  0  0  0  0
  1  2  1  0
  2  3  2  0
  3  4  1  0
  4  5  1  0
  5  6  2  3
  6  7  1  0
  7  8  2  0
  7  9  1  0
  9 10  1  0
 10 11  1  0
 11 12  2  0
 12 13  1  0
 12 14  1  0
 14 15  2  0
 14 16  1  0
 16 17  1  0
 17 18  2  0
 17 19  1  0
 19 20  1  0
 20 21  2  0
 21 22  1  0
 22 23  2  0
 23 24  1  0
 24 25  1  0
 25 26  1  0
 26 27  1  0
 27 28  1  0
 28 29  1  0
 23 30  1  0
 30 31  2  0
 16 32  2  0
  5 33  1  0
 33  2  1  0
 32 10  1  0
 31 20  1  0
 29 24  1  0
  1 34  1  0
  1 35  1  0
  1 36  1  0
  9 37  1  0
  9 38  1  0
 11 39  1  0
 19 40  1  0
 21 41  1  0
 22 42  1  0
 25 43  1  0
 25 44  1  0
 26 45  1  0
 26 46  1  0
 28 47  1  0
 28 48  1  0
 29 49  1  0
 29 50  1  0
 30 51  1  0
 31 52  1  0
 32 53  1  0
M  CHG  2   4  -1  13  -1
M  END
>  <UniqueID>  (1) 
1

>  <SMILES>  (1) 
Cc1n[n-]c(=NC(=O)Cn2cc([O-])c(=O)c(C(=O)Nc3ccc(N4CCOCC4)cc3)c2)s1

>  <Energy>  (1) 
106.59882328196996

>  <Genealogy>  (1) 
Cc1n[n-]c(=NC(=O)Cn2cc([O-])c(=O)c(C(=O)Nc3ccc(N4CCOCC4)cc3)c2)s1 (protonated)
Cc1n[n-]c(=NC(=O)Cn2cc([O-])c(=O)c(C(=O)Nc3ccc(N4CCOCC4)cc3)c2)s1 (3D coordinates assigned)
Cc1n[n-]c(=NC(=O)Cn2cc([O-])c(=O)c(C(=O)Nc3ccc(N4CCOCC4)cc3)c2)s1 (nonaromatic ring conformer: 106.59882328196996 kcal/mol)

>  <smiles>  (1) 
Cc1n[nH]c(=NC(=O)Cn2cc(O)c(=O)c(C(=O)Nc3ccc(N4CCOCC4)cc3)c2)s1

>  <score_type>  (1) 
oracle

>  <origin>  (1) 
adg

>  <m_score__min__energy>  (1) 
-12.380000000000001

>  <m_primary>  (1) 
energy

$$$$
1:0
     RDKit          3D

 29 30  0  0  0  0  0  0  0  0999 V2000
   56.9860   25.2150   46.7910 C   0  0  0  0  0  0  0  0  0  0  0  0
   56.2780   26.3330   46.0940 C   0  0  0  0  0  0  0  0  0  0  0  0
   55.0220   26.2910   45.9920 O   0  0  0  0  0  0  0  0  0  0  0  0
   57.0150   27.4820   45.5270 C   0  0  0  0  0  0  0  0  0  0  0  0
   58.3900   27.6080   45.4130 C   0  0  0  0  0  0  0  0  0  0  0  0
   59.3410   26.6770   45.8140 O   0  0  0  0  0  0  0  0  0  0  0  0
   58.6460   28.8260   44.8220 C   0  0  0  0  0  0  0  0  0  0  0  0
   59.9080   29.3320   44.5160 O   0  0  0  0  0  0  0  0  0  0  0  0
   57.4910   29.4720   44.5700 N   0  0  0  0  0  0  0  0  0  0  0  0
   57.3390   30.7580   43.8900 C   0  0  0  0  0  0  0  0  0  0  0  0
   57.7620   31.8770   44.8030 C   0  0  0  0  0  0  0  0  0  0  0  0
   58.0840   31.6130   46.1440 C   0  0  0  0  0  0  0  0  0  0  0  0
   58.4380   32.6590   47.0020 C   0  0  0  0  0  0  0  0  0  0  0  0
   58.4650   33.9740   46.5300 C   0  0  0  0  0  0  0  0  0  0  0  0
   58.1350   34.2450   45.2000 C   0  0  0  0  0  0  0  0  0  0  0  0
   57.7800   33.2020   44.3390 C   0  0  0  0  0  0  0  0  0  0  0  0
   56.4990   28.6560   44.9870 C   0  0  0  0  0  0  0  0  0  0  0  0
   55.1490   28.9690   44.8750 O   0  0  0  0  0  0  0  0  0  0  0  0
   56.9010   25.3492   47.8795 H   0  0  0  0  0  0  0  0  0  0  0  0
   56.5301   24.2562   46.5031 H   0  0  0  0  0  0  0  0  0  0  0  0
   58.0476   25.2173   46.5031 H   0  0  0  0  0  0  0  0  0  0  0  0
   60.7370   28.7600   44.6130 H   0  0  0  0  0  0  0  0  0  0  0  0
   57.9662   30.7685   42.9864 H   0  0  0  0  0  0  0  0  0  0  0  0
   56.2835   30.8974   43.6136 H   0  0  0  0  0  0  0  0  0  0  0  0
   58.0577   30.5799   46.5209 H   0  0  0  0  0  0  0  0  0  0  0  0
   58.6956   32.4463   48.0501 H   0  0  0  0  0  0  0  0  0  0  0  0
   58.7460   34.7954   47.2055 H   0  0  0  0  0  0  0  0  0  0  0  0
   58.1544   35.2805   44.8294 H   0  0  0  0  0  0  0  0  0  0  0  0
   57.5138   33.4204   43.2943 H   0  0  0  0  0  0  0  0  0  0  0  0
  1  2  1  0
  2  3  2  0
  2  4  1  0
  4  5  1  0
  5  6  1  0
  5  7  2  0
  7  8  1  0
  7  9  1  0
  9 10  1  0
 10 11  1  0
 11 12  2  0
 12 13  1  0
 13 14  2  0
 14 15  1  0
 15 16  2  0
  9 17  1  0
 17 18  1  0
 17  4  2  0
 16 11  1  0
  1 19  1  0
  1 20  1  0
  1 21  1  0
  8 22  1  0
 10 23  1  0
 10 24  1  0
 12 25  1  0
 13 26  1  0
 14 27  1  0
 15 28  1  0
 16 29  1  0
M  CHG  2   6  -1  18  -1
M  END
>  <UniqueID>  (2) 
2

>  <SMILES>  (2) 
CC(=O)c1c([O-])c(O)n(Cc2ccccc2)c1[O-]

>  <Energy>  (2) 
56.852560011436786

>  <Genealogy>  (2) 
CC(=O)c1c([O-])c(O)n(Cc2ccccc2)c1[O-] (protonated)
CC(=O)c1c([O-])c(O)n(Cc2ccccc2)c1[O-] (3D coordinates assigned)
CC(=O)c1c([O-])c(O)n(Cc2ccccc2)c1[O-] (optimized conformer: 56.852560011436786 kcal/mol)

>  <smiles>  (2) 
CC(=O)c1c(O)c(O)n(Cc2ccccc2)c1O

>  <score_type>  (2) 
oracle

>  <origin>  (2) 
adg

>  <m_score__min__energy>  (2) 
-11.52

>  <m_primary>  (2) 
energy

$$$$
2:0
     RDKit          3D

 46 50  0  0  0  0  0  0  0  0999 V2000
   59.1184   26.0953   46.6375 H   0  0  0  0  0  0  0  0  0  0  0  0
   58.2430   26.6440   46.2600 C   0  0  0  0  0  0  0  0  0  0  0  0
   56.9390   25.9590   46.3170 C   0  0  0  0  0  0  0  0  0  0  0  0
   56.7620   24.6490   46.5690 N   0  0  0  0  0  0  0  0  0  0  0  0
   55.4370   24.4680   46.3670 C   0  0  0  0  0  0  0  0  0  0  0  0
   54.8760   23.3510   46.5070 O   0  0  0  0  0  0  0  0  0  0  0  0
   54.7660   25.5760   45.9870 N   0  0  0  0  0  0  0  0  0  0  0  0
   55.7340   26.5060   45.9480 C   0  0  0  0  0  0  0  0  0  0  0  0
   55.5210   27.8260   45.5740 O   0  0  0  0  0  0  0  0  0  0  0  0
   58.4500   27.8830   45.7850 C   0  0  0  0  0  0  0  0  0  0  0  0
   58.4450   28.2380   44.4430 C   0  0  0  0  0  0  0  0  0  0  0  0
   58.2918   27.5437   43.6037 H   0  0  0  0  0  0  0  0  0  0  0  0
   58.6570   29.5660   44.3260 N   0  0  0  0  0  0  0  0  0  0  0  0
   58.6670   30.0660   43.4170 H   0  0  0  0  0  0  0  0  0  0  0  0
   58.7860   30.0810   45.5440 N   0  0  0  0  0  0  0  0  0  0  0  0
   58.9540   31.3810   45.9560 C   0  0  0  0  0  0  0  0  0  0  0  0
   59.1370   32.3940   45.1560 N   0  0  0  0  0  0  0  0  0  0  0  0
   58.3670   33.6230   45.0260 C   0  0  0  0  0  0  0  0  0  0  0  0
   57.5523   33.2273   44.4018 H   0  0  0  0  0  0  0  0  0  0  0  0
   58.4790   34.4910   46.2670 C   0  0  0  0  0  0  0  0  0  0  0  0
   57.6118   35.0741   46.6105 H   0  0  0  0  0  0  0  0  0  0  0  0
   58.7775   34.3196   47.3118 H   0  0  0  0  0  0  0  0  0  0  0  0
   59.2060   34.8890   44.9930 C   0  0  0  0  0  0  0  0  0  0  0  0
   58.8650   35.7600   44.4142 H   0  0  0  0  0  0  0  0  0  0  0  0
   60.2486   35.1249   44.7334 H   0  0  0  0  0  0  0  0  0  0  0  0
   58.9480   31.6240   47.2950 N   0  0  0  0  0  0  0  0  0  0  0  0
   58.7840   30.6160   48.1970 C   0  0  0  0  0  0  0  0  0  0  0  0
   58.7390   30.9760   49.9110 S   0  0  0  0  0  0  0  0  0  0  0  0
   58.2650   29.7620   50.6580 O   0  0  0  0  0  0  0  0  0  0  0  0
   57.7850   32.1130   50.1570 O   0  0  0  0  0  0  0  0  0  0  0  0
   60.3690   31.4500   50.4600 C   0  0  0  0  0  0  0  0  0  0  0  0
   60.2782   32.2256   51.2347 H   0  0  0  0  0  0  0  0  0  0  0  0
   60.8779   30.5636   50.8667 H   0  0  0  0  0  0  0  0  0  0  0  0
   61.1800   31.9910   49.3100 C   0  0  0  0  0  0  0  0  0  0  0  0
   62.1710   31.1780   48.7310 C   0  0  0  0  0  0  0  0  0  0  0  0
   62.3564   30.1720   49.1355 H   0  0  0  0  0  0  0  0  0  0  0  0
   62.9220   31.6380   47.6460 C   0  0  0  0  0  0  0  0  0  0  0  0
   63.6994   30.9969   47.2047 H   0  0  0  0  0  0  0  0  0  0  0  0
   62.6870   32.9090   47.1220 C   0  0  0  0  0  0  0  0  0  0  0  0
   63.2805   33.2699   46.2691 H   0  0  0  0  0  0  0  0  0  0  0  0
   61.6990   33.7240   47.6790 C   0  0  0  0  0  0  0  0  0  0  0  0
   61.5167   34.7252   47.2615 H   0  0  0  0  0  0  0  0  0  0  0  0
   60.9390   33.2740   48.7660 C   0  0  0  0  0  0  0  0  0  0  0  0
   59.6970   34.3440   49.4100 Cl  0  0  0  0  0  0  0  0  0  0  0  0
   58.6310   29.3340   47.7710 N   0  0  0  0  0  0  0  0  0  0  0  0
   58.6580   29.0880   46.4400 C   0  0  0  0  0  0  0  0  0  0  0  0
  1  2  1  0
  2  3  1  0
  3  4  1  0
  4  5  1  0
  5  6  2  0
  5  7  1  0
  7  8  1  0
  8  9  1  0
  2 10  2  0
 10 11  1  0
 11 12  1  0
 11 13  2  0
 13 14  1  0
 13 15  1  0
 15 16  1  0
 16 17  2  3
 17 18  1  0
 18 19  1  0
 18 20  1  0
 20 21  1  0
 20 22  1  0
 20 23  1  0
 23 24  1  0
 23 25  1  0
 16 26  1  0
 26 27  2  0
 27 28  1  0
 28 29  2  0
 28 30  2  0
 28 31  1  0
 31 32  1  0
 31 33  1  0
 31 34  1  0
 34 35  2  0
 35 36  1  0
 35 37  1  0
 37 38  1  0
 37 39  2  0
 39 40  1  0
 39 41  1  0
 41 42  1  0
 41 43  2  0
 43 44  1  0
 27 45  1  0
 45 46  2  0
  8  3  2  0
 46 10  1  0
 46 15  1  0
 23 18  1  0
 43 34  1  0
M  CHG  4   4  -1   7  -1   9  -1  13   1
M  END
>  <UniqueID>  (3) 
3

>  <SMILES>  (3) 
O=c1[n-]c([O-])c(/C=c2/c[nH+]n3c(=NC4CC4)nc(S(=O)(=O)Cc4ccccc4Cl)nc23)[n-]1

>  <Energy>  (3) 
393.69427376840747

>  <Genealogy>  (3) 
O=c1[n-]c([O-])c(C=c2c[nH+]n3c(=NC4CC4)nc(S(=O)(=O)Cc4ccccc4Cl)nc23)[n-]1 (protonated)
O=c1[n-]c([O-])c(/C=c2/c[nH+]n3c(=NC4CC4)nc(S(=O)(=O)Cc4ccccc4Cl)nc23)[n-]1 (cis-trans isomerization)
O=c1[n-]c([O-])c(/C=c2/c[nH+]n3c(=NC4CC4)nc(S(=O)(=O)Cc4ccccc4Cl)nc23)[n-]1 (3D coordinates assigned)
O=c1[n-]c([O-])c(/C=c2/c[nH+]n3c(=NC4CC4)nc(S(=O)(=O)Cc4ccccc4Cl)nc23)[n-]1 (nonaromatic ring conformer: 393.69427376840747 kcal/mol)

>  <smiles>  (3) 
O=c1[nH]c(O)c(C=c2cnn3c(=NC4CC4)nc(S(=O)(=O)Cc4ccccc4Cl)nc23)[nH]1

>  <score_type>  (3) 
oracle

>  <origin>  (3) 
adg

>  <m_score__min__energy>  (3) 
-15.84

>  <m_primary>  (3) 
energy

$$$$
3:0
     RDKit          3D

 43 45  0  0  0  0  0  0  0  0999 V2000
   55.3950   30.0980   45.6070 H   0  0  0  0  0  0  0  0  0  0  0  0
   55.7480   29.3500   45.0240 O   0  0  0  0  0  0  0  0  0  0  0  0
   56.2630   28.1760   45.5710 C   0  0  0  0  0  0  0  0  0  0  0  0
   55.5370   27.0580   45.7250 N   0  0  0  0  0  0  0  0  0  0  0  0
   56.4190   26.2020   46.2800 C   0  0  0  0  0  0  0  0  0  0  0  0
   56.1160   25.0200   46.5890 O   0  0  0  0  0  0  0  0  0  0  0  0
   57.6500   26.7130   46.4860 N   0  0  0  0  0  0  0  0  0  0  0  0
   57.5530   27.9720   46.0200 C   0  0  0  0  0  0  0  0  0  0  0  0
   58.6230   28.9900   46.1000 C   0  0  0  0  0  0  0  0  0  0  0  0
   59.4728   28.8932   45.4083 H   0  0  0  0  0  0  0  0  0  0  0  0
   58.6310   30.0290   46.9610 C   0  0  0  0  0  0  0  0  0  0  0  0
   58.6230   31.3770   46.6330 C   0  0  0  0  0  0  0  0  0  0  0  0
   58.6097   31.8052   45.6198 H   0  0  0  0  0  0  0  0  0  0  0  0
   58.6350   32.0770   47.8210 C   0  0  0  0  0  0  0  0  0  0  0  0
   58.6720   33.5750   47.9080 C   0  0  0  0  0  0  0  0  0  0  0  0
   58.6796   33.8808   48.9646 H   0  0  0  0  0  0  0  0  0  0  0  0
   59.5797   33.9488   47.4116 H   0  0  0  0  0  0  0  0  0  0  0  0
   57.7839   33.9932   47.4116 H   0  0  0  0  0  0  0  0  0  0  0  0
   58.6550   31.2280   48.8770 N   0  0  0  0  0  0  0  0  0  0  0  0
   58.7150   31.6270   50.2950 C   0  0  0  0  0  0  0  0  0  0  0  0
   59.0605   30.7703   50.8923 H   0  0  0  0  0  0  0  0  0  0  0  0
   59.4101   32.4749   50.3840 H   0  0  0  0  0  0  0  0  0  0  0  0
   57.3450   32.0750   50.8150 C   0  0  0  0  0  0  0  0  0  0  0  0
   57.4842   32.9398   51.4803 H   0  0  0  0  0  0  0  0  0  0  0  0
   56.7224   32.3343   49.9460 H   0  0  0  0  0  0  0  0  0  0  0  0
   56.6400   30.9820   51.5800 C   0  0  0  0  0  0  0  0  0  0  0  0
   57.1440   29.8290   51.5850 O   0  0  0  0  0  0  0  0  0  0  0  0
   55.4870   31.2300   52.3990 N   0  0  0  0  0  0  0  0  0  0  0  0
   54.1200   30.9540   52.0680 C   0  0  0  0  0  0  0  0  0  0  0  0
   53.6730   29.6260   52.0830 C   0  0  0  0  0  0  0  0  0  0  0  0
   54.3724   28.8158   52.3367 H   0  0  0  0  0  0  0  0  0  0  0  0
   52.3420   29.3260   51.7770 C   0  0  0  0  0  0  0  0  0  0  0  0
   51.9892   28.2850   51.8197 H   0  0  0  0  0  0  0  0  0  0  0  0
   51.4600   30.3480   51.4170 C   0  0  0  0  0  0  0  0  0  0  0  0
   50.4092   30.1134   51.1917 H   0  0  0  0  0  0  0  0  0  0  0  0
   51.9130   31.6700   51.3430 C   0  0  0  0  0  0  0  0  0  0  0  0
   51.0440   32.6830   50.9580 O   0  0  0  0  0  0  0  0  0  0  0  0
   53.2450   31.9710   51.6540 C   0  0  0  0  0  0  0  0  0  0  0  0
   53.6065   33.0068   51.5737 H   0  0  0  0  0  0  0  0  0  0  0  0
   58.6490   29.9680   48.3610 C   0  0  0  0  0  0  0  0  0  0  0  0
   58.6900   28.8460   49.1000 C   0  0  0  0  0  0  0  0  0  0  0  0
   58.7009   28.9107   50.1980 H   0  0  0  0  0  0  0  0  0  0  0  0
   58.7127   27.8631   48.6067 H   0  0  0  0  0  0  0  0  0  0  0  0
  1  2  1  0
  2  3  1  0
  3  4  1  0
  4  5  1  0
  5  6  2  0
  5  7  1  0
  7  8  1  0
  8  9  1  0
  9 10  1  0
  9 11  2  0
 11 12  1  0
 12 13  1  0
 12 14  2  0
 14 15  1  0
 15 16  1  0
 15 17  1  0
 15 18  1  0
 14 19  1  0
 19 20  1  0
 20 21  1  0
 20 22  1  0
 20 23  1  0
 23 24  1  0
 23 25  1  0
 23 26  1  0
 26 27  2  0
 26 28  1  0
 28 29  1  0
 29 30  2  0
 30 31  1  0
 30 32  1  0
 32 33  1  0
 32 34  2  0
 34 35  1  0
 34 36  1  0
 36 37  1  0
 36 38  2  0
 38 39  1  0
 19 40  1  0
 40 41  2  0
 41 42  1  0
 41 43  1  0
  8  3  2  0
 40 11  1  0
 38 29  1  0
M  CHG  4   4  -1   7  -1  28  -1  37  -1
M  END
>  <UniqueID>  (4) 
4

>  <SMILES>  (4) 
C=c1/c(=C/c2[n-]c(=O)[n-]c2O)cc(C)n1CCC(=O)[N-]c1cccc([O-])c1

>  <Energy>  (4) 
105.76103828337439

>  <Genealogy>  (4) 
C=c1c(=Cc2[n-]c(=O)[n-]c2O)cc(C)n1CCC(=O)[N-]c1cccc([O-])c1 (protonated)
C=c1/c(=C/c2[n-]c(=O)[n-]c2O)cc(C)n1CCC(=O)[N-]c1cccc([O-])c1 (cis-trans isomerization)
C=c1/c(=C/c2[n-]c(=O)[n-]c2O)cc(C)n1CCC(=O)[N-]c1cccc([O-])c1 (3D coordinates assigned)
C=c1/c(=C/c2[n-]c(=O)[n-]c2O)cc(C)n1CCC(=O)[N-]c1cccc([O-])c1 (optimized conformer: 105.76103828337439 kcal/mol)

>  <smiles>  (4) 
C=c1c(=Cc2[nH]c(=O)[nH]c2O)cc(C)n1CCC(=O)Nc1cccc(O)c1

>  <score_type>  (4) 
oracle

>  <origin>  (4) 
adg

>  <m_score__min__energy>  (4) 
-16.850000000000001

>  <m_primary>  (4) 
energy

$$$$
4:0
     RDKit          3D

 50 52  0  0  0  0  0  0  0  0999 V2000
   57.3780   33.2530   45.7900 C   0  0  0  0  0  0  0  0  0  0  0  0
   57.9210   31.9660   46.0680 O   0  0  0  0  0  0  0  0  0  0  0  0
   57.7140   30.8220   45.2780 C   0  0  0  0  0  0  0  0  0  0  0  0
   57.0630   30.9000   44.0340 C   0  0  0  0  0  0  0  0  0  0  0  0
   56.9090   29.7650   43.2430 C   0  0  0  0  0  0  0  0  0  0  0  0
   56.2680   29.8720   42.0100 O   0  0  0  0  0  0  0  0  0  0  0  0
   57.4000   28.5350   43.6830 C   0  0  0  0  0  0  0  0  0  0  0  0
   58.0270   28.4110   44.9400 C   0  0  0  0  0  0  0  0  0  0  0  0
   58.5930   27.0700   45.3900 C   0  0  0  0  0  0  0  0  0  0  0  0
   57.6770   26.2840   46.2960 C   0  0  0  0  0  0  0  0  0  0  0  0
   57.7480   26.4830   47.5390 O   0  0  0  0  0  0  0  0  0  0  0  0
   56.7380   25.2530   45.7830 C   0  0  0  0  0  0  0  0  0  0  0  0
   57.2460   23.9830   45.4500 C   0  0  0  0  0  0  0  0  0  0  0  0
   56.4030   22.9840   44.9580 C   0  0  0  0  0  0  0  0  0  0  0  0
   55.0400   23.2350   44.7990 C   0  0  0  0  0  0  0  0  0  0  0  0
   54.5160   24.4840   45.1410 C   0  0  0  0  0  0  0  0  0  0  0  0
   55.3510   25.4900   45.6390 C   0  0  0  0  0  0  0  0  0  0  0  0
   54.7810   26.7030   46.0100 O   0  0  0  0  0  0  0  0  0  0  0  0
   58.1800   29.5720   45.7460 C   0  0  0  0  0  0  0  0  0  0  0  0
   58.8610   29.5090   47.0660 C   0  0  0  0  0  0  0  0  0  0  0  0
   58.2450   29.0110   48.0460 O   0  0  0  0  0  0  0  0  0  0  0  0
   60.2690   29.9250   47.2670 C   0  0  0  0  0  0  0  0  0  0  0  0
   60.6840   30.9280   48.0570 C   0  0  0  0  0  0  0  0  0  0  0  0
   60.4220   32.3580   47.7960 C   0  0  0  0  0  0  0  0  0  0  0  0
   61.0590   32.9440   46.6920 C   0  0  0  0  0  0  0  0  0  0  0  0
   60.7850   34.2620   46.3300 C   0  0  0  0  0  0  0  0  0  0  0  0
   59.8910   35.0190   47.0850 C   0  0  0  0  0  0  0  0  0  0  0  0
   59.2910   34.4700   48.2190 C   0  0  0  0  0  0  0  0  0  0  0  0
   59.5570   33.1420   48.6070 C   0  0  0  0  0  0  0  0  0  0  0  0
   58.9560   32.6320   49.8690 C   0  0  0  0  0  0  0  0  0  0  0  0
   58.1430   31.6710   49.8420 O   0  0  0  0  0  0  0  0  0  0  0  0
   59.2470   33.2190   51.0950 O   0  0  0  0  0  0  0  0  0  0  0  0
   57.1595   33.7708   46.7356 H   0  0  0  0  0  0  0  0  0  0  0  0
   58.1051   33.8402   45.2099 H   0  0  0  0  0  0  0  0  0  0  0  0
   56.4500   33.1419   45.2099 H   0  0  0  0  0  0  0  0  0  0  0  0
   56.6720   31.8664   43.6829 H   0  0  0  0  0  0  0  0  0  0  0  0
   55.5780   29.1940   41.7100 H   0  0  0  0  0  0  0  0  0  0  0  0
   57.2964   27.6488   43.0396 H   0  0  0  0  0  0  0  0  0  0  0  0
   58.7963   26.4637   44.4950 H   0  0  0  0  0  0  0  0  0  0  0  0
   59.5005   27.2894   45.9717 H   0  0  0  0  0  0  0  0  0  0  0  0
   58.3185   23.7752   45.5787 H   0  0  0  0  0  0  0  0  0  0  0  0
   56.8143   21.9981   44.6956 H   0  0  0  0  0  0  0  0  0  0  0  0
   54.3782   22.4499   44.4045 H   0  0  0  0  0  0  0  0  0  0  0  0
   53.4402   24.6777   45.0180 H   0  0  0  0  0  0  0  0  0  0  0  0
   61.0414   29.3631   46.7214 H   0  0  0  0  0  0  0  0  0  0  0  0
   61.2574   30.6675   48.9588 H   0  0  0  0  0  0  0  0  0  0  0  0
   61.7820   32.3575   46.1061 H   0  0  0  0  0  0  0  0  0  0  0  0
   61.2739   34.7041   45.4494 H   0  0  0  0  0  0  0  0  0  0  0  0
   59.6578   36.0517   46.7863 H   0  0  0  0  0  0  0  0  0  0  0  0
   58.6010   35.0824   48.8181 H   0  0  0  0  0  0  0  0  0  0  0  0
  1  2  1  0
  2  3  1  0
  3  4  2  0
  4  5  1  0
  5  6  1  0
  5  7  2  0
  7  8  1  0
  8  9  1  0
  9 10  1  0
 10 11  2  0
 10 12  1  0
 12 13  2  0
 13 14  1  0
 14 15  2  0
 15 16  1  0
 16 17  2  0
 17 18  1  0
  8 19  2  0
 19 20  1  0
 20 21  2  0
 20 22  1  0
 22 23  2  3
 23 24  1  0
 24 25  2  0
 25 26  1  0
 26 27  2  0
 27 28  1  0
 28 29  2  0
 29 30  1  0
 30 31  2  0
 30 32  1  0
 19  3  1  0
 29 24  1  0
 17 12  1  0
  1 33  1  0
  1 34  1  0
  1 35  1  0
  4 36  1  0
  6 37  1  0
  7 38  1  0
  9 39  1  0
  9 40  1  0
 13 41  1  0
 14 42  1  0
 15 43  1  0
 16 44  1  0
 22 45  1  0
 23 46  1  0
 25 47  1  0
 26 48  1  0
 27 49  1  0
 28 50  1  0
M  CHG  2  18  -1  32  -1
M  END
>  <UniqueID>  (5) 
5

>  <SMILES>  (5) 
COc1cc(O)cc(CC(=O)c2ccccc2[O-])c1C(=O)C=Cc1ccccc1C(=O)[O-]

>  <Energy>  (5) 
75.51498422630799

>  <Genealogy>  (5) 
COc1cc(O)cc(CC(=O)c2ccccc2[O-])c1C(=O)C=Cc1ccccc1C(=O)[O-] (protonated)
COc1cc(O)cc(CC(=O)c2ccccc2[O-])c1C(=O)C=Cc1ccccc1C(=O)[O-] (3D coordinates assigned)
COc1cc(O)cc(CC(=O)c2ccccc2[O-])c1C(=O)C=Cc1ccccc1C(=O)[O-] (optimized conformer: 75.51498422630799 kcal/mol)

>  <smiles>  (5) 
COc1cc(O)cc(CC(=O)c2ccccc2O)c1C(=O)C=Cc1ccccc1C(=O)O

>  <score_type>  (5) 
oracle

>  <origin>  (5) 
adg

>  <m_score__min__energy>  (5) 
-13.550000000000001

>  <m_primary>  (5) 
energy

$$$$
5:0
     RDKit          3D

 33 35  0  0  0  0  0  0  0  0999 V2000
   51.4341   30.0616   54.6437 H   0  0  0  0  0  0  0  0  0  0  0  0
   52.4580   30.2060   55.0190 C   0  0  0  0  0  0  0  0  0  0  0  0
   52.6476   30.2363   56.1021 H   0  0  0  0  0  0  0  0  0  0  0  0
   53.4810   30.3460   54.1510 C   0  0  0  0  0  0  0  0  0  0  0  0
   53.3110   30.3560   52.7280 C   0  0  0  0  0  0  0  0  0  0  0  0
   52.1180   30.0950   52.1300 C   0  0  0  0  0  0  0  0  0  0  0  0
   51.4480   29.3775   52.6263 H   0  0  0  0  0  0  0  0  0  0  0  0
   51.6520   30.7000   50.8660 C   0  0  0  0  0  0  0  0  0  0  0  0
   51.5380   30.0170   49.7130 N   0  0  0  0  0  0  0  0  0  0  0  0
   50.9970   30.9210   48.8680 C   0  0  0  0  0  0  0  0  0  0  0  0
   50.7470   30.6570   47.6630 O   0  0  0  0  0  0  0  0  0  0  0  0
   50.7340   32.1270   49.4170 N   0  0  0  0  0  0  0  0  0  0  0  0
   51.1420   31.9660   50.6860 C   0  0  0  0  0  0  0  0  0  0  0  0
   51.0140   32.9420   51.6660 O   0  0  0  0  0  0  0  0  0  0  0  0
   54.4610   30.5830   51.9360 C   0  0  0  0  0  0  0  0  0  0  0  0
   54.3650   30.5937   50.8403 H   0  0  0  0  0  0  0  0  0  0  0  0
   55.7160   30.7940   52.5130 C   0  0  0  0  0  0  0  0  0  0  0  0
   56.9240   31.0100   51.6830 C   0  0  0  0  0  0  0  0  0  0  0  0
   57.3290   30.0870   50.9260 O   0  0  0  0  0  0  0  0  0  0  0  0
   57.6760   32.2250   51.7470 N   0  0  0  0  0  0  0  0  0  0  0  0
   58.9220   32.7250   51.1380 C   0  0  0  0  0  0  0  0  0  0  0  0
   59.7764   32.0534   51.3081 H   0  0  0  0  0  0  0  0  0  0  0  0
   58.9346   32.8341   50.0435 H   0  0  0  0  0  0  0  0  0  0  0  0
   59.0050   33.9770   51.9450 C   0  0  0  0  0  0  0  0  0  0  0  0
   59.8623   34.0436   52.6310 H   0  0  0  0  0  0  0  0  0  0  0  0
   59.1171   34.9813   51.5106 H   0  0  0  0  0  0  0  0  0  0  0  0
   57.7390   33.4660   52.5450 C   0  0  0  0  0  0  0  0  0  0  0  0
   57.8286   33.2726   53.6242 H   0  0  0  0  0  0  0  0  0  0  0  0
   56.8632   34.1305   52.5072 H   0  0  0  0  0  0  0  0  0  0  0  0
   55.8270   30.7410   53.9020 C   0  0  0  0  0  0  0  0  0  0  0  0
   56.8105   30.8773   54.3754 H   0  0  0  0  0  0  0  0  0  0  0  0
   54.7340   30.5230   54.6750 N   0  0  0  0  0  0  0  0  0  0  0  0
   54.8810   30.5110   55.7110 H   0  0  0  0  0  0  0  0  0  0  0  0
  1  2  1  0
  2  3  1  0
  2  4  2  0
  4  5  1  0
  5  6  2  0
  6  7  1  0
  6  8  1  0
  8  9  1  0
  9 10  1  0
 10 11  2  0
 10 12  1  0
 12 13  1  0
 13 14  1  0
  5 15  1  0
 15 16  1  0
 15 17  2  0
 17 18  1  0
 18 19  2  0
 18 20  1  0
 20 21  1  0
 21 22  1  0
 21 23  1  0
 21 24  1  0
 24 25  1  0
 24 26  1  0
 24 27  1  0
 27 28  1  0
 27 29  1  0
 17 30  1  0
 30 31  1  0
 30 32  2  0
 32 33  1  0
 32  4  1  0
 13  8  2  0
 27 20  1  0
M  CHG  4   9  -1  12  -1  14  -1  32   1
M  END
>  <UniqueID>  (6) 
6

>  <SMILES>  (6) 
C=c1[nH+]cc(C(=O)N2CCC2)c/c1=C\c1[n-]c(=O)[n-]c1[O-]

>  <Energy>  (6) 
126.20332832583459

>  <Genealogy>  (6) 
C=c1[nH+]cc(C(=O)N2CCC2)cc1=Cc1[n-]c(=O)[n-]c1[O-] (protonated)
C=c1[nH+]cc(C(=O)N2CCC2)c/c1=C\c1[n-]c(=O)[n-]c1[O-] (cis-trans isomerization)
C=c1[nH+]cc(C(=O)N2CCC2)c/c1=C\c1[n-]c(=O)[n-]c1[O-] (3D coordinates assigned)
C=c1[nH+]cc(C(=O)N2CCC2)c/c1=C\c1[n-]c(=O)[n-]c1[O-] (nonaromatic ring conformer: 126.20332832583459 kcal/mol)

>  <smiles>  (6) 
C=c1ncc(C(=O)N2CCC2)cc1=Cc1[nH]c(=O)[nH]c1O

>  <score_type>  (6) 
oracle

>  <origin>  (6) 
adg

>  <m_score__min__energy>  (6) 
-15.1

>  <m_primary>  (6) 
energy

$$$$
6:0
     RDKit          3D

 43 45  0  0  0  0  0  0  0  0999 V2000
   60.3360   26.5290   46.8780 C   0  0  0  0  0  0  0  0  0  0  0  0
   59.4190   27.1440   45.9240 N   0  0  0  0  0  0  0  0  0  0  0  0
   58.1440   27.9580   46.7780 S   0  0  0  0  0  0  0  0  0  0  0  0
   58.6390   28.3890   48.1310 O   0  0  0  0  0  0  0  0  0  0  0  0
   56.9940   27.0090   46.9720 O   0  0  0  0  0  0  0  0  0  0  0  0
   57.5850   29.3530   45.8500 C   0  0  0  0  0  0  0  0  0  0  0  0
   58.3800   30.5060   45.7620 C   0  0  0  0  0  0  0  0  0  0  0  0
   57.9430   31.6160   45.0210 C   0  0  0  0  0  0  0  0  0  0  0  0
   58.7770   32.8660   44.9470 C   0  0  0  0  0  0  0  0  0  0  0  0
   58.7620   33.5600   46.2300 N   0  0  0  0  0  0  0  0  0  0  0  0
   59.7900   34.4600   46.6600 C   0  0  0  0  0  0  0  0  0  0  0  0
   59.7010   35.6880   46.3860 O   0  0  0  0  0  0  0  0  0  0  0  0
   60.9530   33.9530   47.4240 C   0  0  0  0  0  0  0  0  0  0  0  0
   61.9970   33.2770   46.7710 C   0  0  0  0  0  0  0  0  0  0  0  0
   63.0930   32.7960   47.4920 C   0  0  0  0  0  0  0  0  0  0  0  0
   63.1750   32.9850   48.8810 C   0  0  0  0  0  0  0  0  0  0  0  0
   64.3500   32.4610   49.6170 C   0  0  0  0  0  0  0  0  0  0  0  0
   64.2480   31.3690   50.4960 C   0  0  0  0  0  0  0  0  0  0  0  0
   65.3510   30.9390   51.1650 N   0  0  0  0  0  0  0  0  0  0  0  0
   66.5540   31.5480   51.0040 C   0  0  0  0  0  0  0  0  0  0  0  0
   67.5620   31.1300   51.6330 O   0  0  0  0  0  0  0  0  0  0  0  0
   66.6610   32.6420   50.1430 C   0  0  0  0  0  0  0  0  0  0  0  0
   65.5590   33.0730   49.4750 N   0  0  0  0  0  0  0  0  0  0  0  0
   62.1220   33.6480   49.5420 C   0  0  0  0  0  0  0  0  0  0  0  0
   62.1210   33.7870   50.8920 F   0  0  0  0  0  0  0  0  0  0  0  0
   61.0260   34.1290   48.8170 C   0  0  0  0  0  0  0  0  0  0  0  0
   56.6980   31.5660   44.3760 C   0  0  0  0  0  0  0  0  0  0  0  0
   55.9070   30.4180   44.4570 C   0  0  0  0  0  0  0  0  0  0  0  0
   56.3470   29.3110   45.1870 C   0  0  0  0  0  0  0  0  0  0  0  0
   55.5470   28.1750   45.2500 O   0  0  0  0  0  0  0  0  0  0  0  0
   60.0033   26.7521   47.9025 H   0  0  0  0  0  0  0  0  0  0  0  0
   60.3477   25.4397   46.7253 H   0  0  0  0  0  0  0  0  0  0  0  0
   61.3482   26.9316   46.7253 H   0  0  0  0  0  0  0  0  0  0  0  0
   59.3516   30.5406   46.2767 H   0  0  0  0  0  0  0  0  0  0  0  0
   59.8126   32.5969   44.6918 H   0  0  0  0  0  0  0  0  0  0  0  0
   58.3598   33.5300   44.1756 H   0  0  0  0  0  0  0  0  0  0  0  0
   61.9513   33.1250   45.6825 H   0  0  0  0  0  0  0  0  0  0  0  0
   63.8996   32.2640   46.9663 H   0  0  0  0  0  0  0  0  0  0  0  0
   63.2812   30.8650   50.6419 H   0  0  0  0  0  0  0  0  0  0  0  0
   67.6273   33.1497   50.0069 H   0  0  0  0  0  0  0  0  0  0  0  0
   60.2126   34.6505   49.3427 H   0  0  0  0  0  0  0  0  0  0  0  0
   56.3431   32.4357   43.8035 H   0  0  0  0  0  0  0  0  0  0  0  0
   54.9343   30.3852   43.9444 H   0  0  0  0  0  0  0  0  0  0  0  0
  1  2  1  0
  2  3  1  0
  3  4  2  0
  3  5  2  0
  3  6  1  0
  6  7  2  0
  7  8  1  0
  8  9  1  0
  9 10  1  0
 10 11  1  0
 11 12  2  0
 11 13  1  0
 13 14  2  0
 14 15  1  0
 15 16  2  0
 16 17  1  0
 17 18  2  0
 18 19  1  0
 19 20  1  0
 20 21  2  0
 20 22  1  0
 22 23  2  0
 16 24  1  0
 24 25  1  0
 24 26  2  0
  8 27  2  0
 27 28  1  0
 28 29  2  0
 29 30  1  0
 29  6  1  0
 26 13  1  0
 23 17  1  0
  1 31  1  0
  1 32  1  0
  1 33  1  0
  7 34  1  0
  9 35  1  0
  9 36  1  0
 14 37  1  0
 15 38  1  0
 18 39  1  0
 22 40  1  0
 26 41  1  0
 27 42  1  0
 28 43  1  0
M  CHG  4   2  -1  10  -1  19  -1  30  -1
M  END
>  <UniqueID>  (7) 
7

>  <SMILES>  (7) 
C[N-]S(=O)(=O)c1cc(C[N-]C(=O)c2ccc(-c3c[n-]c(=O)cn3)c(F)c2)ccc1[O-]

>  <Energy>  (7) 
50.42392412885443

>  <Genealogy>  (7) 
C[N-]S(=O)(=O)c1cc(C[N-]C(=O)c2ccc(-c3c[n-]c(=O)cn3)c(F)c2)ccc1[O-] (protonated)
C[N-]S(=O)(=O)c1cc(C[N-]C(=O)c2ccc(-c3c[n-]c(=O)cn3)c(F)c2)ccc1[O-] (3D coordinates assigned)
C[N-]S(=O)(=O)c1cc(C[N-]C(=O)c2ccc(-c3c[n-]c(=O)cn3)c(F)c2)ccc1[O-] (optimized conformer: 50.42392412885443 kcal/mol)

>  <smiles>  (7) 
CNS(=O)(=O)c1cc(CNC(=O)c2ccc(-c3c[nH]c(=O)cn3)c(F)c2)ccc1O

>  <score_type>  (7) 
oracle

>  <origin>  (7) 
adg

>  <m_score__min__energy>  (7) 
-13.960000000000001

>  <m_primary>  (7) 
energy

$$$$
7:0
     RDKit          3D

 68 72  0  0  0  0  0  0  0  0999 V2000
   55.4690   23.3260   42.9970 C   0  0  0  0  0  0  0  0  0  0  0  0
   56.5140   23.4920   43.9660 N   0  0  0  0  0  0  0  0  0  0  0  0
   57.3570   22.3290   43.9940 C   0  0  0  0  0  0  0  0  0  0  0  0
   57.9100   22.0330   45.3540 C   0  0  0  0  0  0  0  0  0  0  0  0
   58.0960   23.2060   46.1610 N   0  0  0  0  0  0  0  0  0  0  0  0
   59.1970   23.9560   45.6460 C   0  0  0  0  0  0  0  0  0  0  0  0
   59.0810   25.4140   45.8200 C   0  0  0  0  0  0  0  0  0  0  0  0
   58.3970   26.1330   44.8520 C   0  0  0  0  0  0  0  0  0  0  0  0
   58.2490   27.5040   44.9640 C   0  0  0  0  0  0  0  0  0  0  0  0
   58.7640   28.2260   46.0240 C   0  0  0  0  0  0  0  0  0  0  0  0
   58.5520   29.6430   46.0480 C   0  0  0  0  0  0  0  0  0  0  0  0
   58.1790   30.1740   47.1390 O   0  0  0  0  0  0  0  0  0  0  0  0
   58.7210   30.5230   44.9510 N   0  0  0  0  0  0  0  0  0  0  0  0
   58.4580   31.9060   45.1880 C   0  0  0  0  0  0  0  0  0  0  0  0
   57.2140   32.4630   45.0040 C   0  0  0  0  0  0  0  0  0  0  0  0
   57.0510   33.8060   45.2620 C   0  0  0  0  0  0  0  0  0  0  0  0
   58.1420   34.5620   45.6990 C   0  0  0  0  0  0  0  0  0  0  0  0
   59.3740   34.0440   45.8890 C   0  0  0  0  0  0  0  0  0  0  0  0
   60.5930   34.7550   46.3310 C   0  0  0  0  0  0  0  0  0  0  0  0
   61.4280   33.8670   47.1310 C   0  0  0  0  0  0  0  0  0  0  0  0
   62.6800   33.6020   46.6510 N   0  0  0  0  0  0  0  0  0  0  0  0
   63.5560   32.8600   47.2770 N   0  0  0  0  0  0  0  0  0  0  0  0
   63.2750   32.2980   48.4610 C   0  0  0  0  0  0  0  0  0  0  0  0
   64.1250   31.5870   49.0560 O   0  0  0  0  0  0  0  0  0  0  0  0
   62.0100   32.5170   49.0280 C   0  0  0  0  0  0  0  0  0  0  0  0
   61.1050   33.3050   48.3410 C   0  0  0  0  0  0  0  0  0  0  0  0
   59.7830   33.4870   48.9370 C   0  0  0  0  0  0  0  0  0  0  0  0
   60.0340   33.7240   50.4350 C   0  0  0  0  0  0  0  0  0  0  0  0
   60.6620   32.5260   51.0650 C   0  0  0  0  0  0  0  0  0  0  0  0
   61.7670   31.8730   50.3270 C   0  0  0  0  0  0  0  0  0  0  0  0
   59.5350   32.6730   45.6240 C   0  0  0  0  0  0  0  0  0  0  0  0
   59.4480   27.5110   46.9910 C   0  0  0  0  0  0  0  0  0  0  0  0
   59.5950   26.1280   46.8740 C   0  0  0  0  0  0  0  0  0  0  0  0
   56.8840   23.9350   46.3710 C   0  0  0  0  0  0  0  0  0  0  0  0
   55.8930   23.7560   45.2540 C   0  0  0  0  0  0  0  0  0  0  0  0
   54.5102   23.1737   43.5142 H   0  0  0  0  0  0  0  0  0  0  0  0
   55.4069   24.2255   42.3669 H   0  0  0  0  0  0  0  0  0  0  0  0
   55.6887   22.4515   42.3669 H   0  0  0  0  0  0  0  0  0  0  0  0
   56.7678   21.4622   43.6600 H   0  0  0  0  0  0  0  0  0  0  0  0
   58.2113   22.5288   43.3305 H   0  0  0  0  0  0  0  0  0  0  0  0
   57.2141   21.3585   45.8743 H   0  0  0  0  0  0  0  0  0  0  0  0
   58.9007   21.5772   45.2099 H   0  0  0  0  0  0  0  0  0  0  0  0
   60.1104   23.6209   46.1593 H   0  0  0  0  0  0  0  0  0  0  0  0
   59.2191   23.7724   44.5617 H   0  0  0  0  0  0  0  0  0  0  0  0
   57.9675   25.6081   43.9860 H   0  0  0  0  0  0  0  0  0  0  0  0
   57.6990   28.0413   44.1773 H   0  0  0  0  0  0  0  0  0  0  0  0
   59.0240   30.1360   44.0380 H   0  0  0  0  0  0  0  0  0  0  0  0
   56.3686   31.8498   44.6587 H   0  0  0  0  0  0  0  0  0  0  0  0
   56.0682   34.2806   45.1249 H   0  0  0  0  0  0  0  0  0  0  0  0
   57.9892   35.6330   45.8982 H   0  0  0  0  0  0  0  0  0  0  0  0
   61.1588   35.0901   45.4492 H   0  0  0  0  0  0  0  0  0  0  0  0
   60.3026   35.6230   46.9411 H   0  0  0  0  0  0  0  0  0  0  0  0
   64.5000   32.7120   46.8250 H   0  0  0  0  0  0  0  0  0  0  0  0
   59.2767   34.3555   48.4904 H   0  0  0  0  0  0  0  0  0  0  0  0
   59.1357   32.6143   48.7658 H   0  0  0  0  0  0  0  0  0  0  0  0
   60.7044   34.5877   50.5557 H   0  0  0  0  0  0  0  0  0  0  0  0
   59.0691   33.9153   50.9274 H   0  0  0  0  0  0  0  0  0  0  0  0
   61.0559   32.8356   52.0443 H   0  0  0  0  0  0  0  0  0  0  0  0
   59.8614   31.7725   51.1006 H   0  0  0  0  0  0  0  0  0  0  0  0
   62.6839   31.9334   50.9317 H   0  0  0  0  0  0  0  0  0  0  0  0
   61.4840   30.8261   50.1426 H   0  0  0  0  0  0  0  0  0  0  0  0
   60.5196   32.2024   45.7622 H   0  0  0  0  0  0  0  0  0  0  0  0
   59.8784   28.0354   47.8569 H   0  0  0  0  0  0  0  0  0  0  0  0
   60.1453   25.5879   47.6585 H   0  0  0  0  0  0  0  0  0  0  0  0
   56.4235   23.5882   47.3078 H   0  0  0  0  0  0  0  0  0  0  0  0
   57.1441   25.0030   46.4139 H   0  0  0  0  0  0  0  0  0  0  0  0
   55.2356   22.9102   45.5037 H   0  0  0  0  0  0  0  0  0  0  0  0
   55.3380   24.7009   45.1586 H   0  0  0  0  0  0  0  0  0  0  0  0
  1  2  1  0
  2  3  1  0
  3  4  1  0
  4  5  1  0
  5  6  1  0
  6  7  1  0
  7  8  2  0
  8  9  1  0
  9 10  2  0
 10 11  1  0
 11 12  2  0
 11 13  1  0
 13 14  1  0
 14 15  2  0
 15 16  1  0
 16 17  2  0
 17 18  1  0
 18 19  1  0
 19 20  1  0
 20 21  2  0
 21 22  1  0
 22 23  1  0
 23 24  2  0
 23 25  1  0
 25 26  2  0
 26 27  1  0
 27 28  1  0
 28 29  1  0
 29 30  1  0
 18 31  2  0
 10 32  1  0
 32 33  2  0
  5 34  1  0
 34 35  1  0
 35  2  1  0
 33  7  1  0
 31 14  1  0
 26 20  1  0
 30 25  1  0
  1 36  1  0
  1 37  1  0
  1 38  1  0
  3 39  1  0
  3 40  1  0
  4 41  1  0
  4 42  1  0
  6 43  1  0
  6 44  1  0
  8 45  1  0
  9 46  1  0
 13 47  1  0
 15 48  1  0
 16 49  1  0
 17 50  1  0
 19 51  1  0
 19 52  1  0
 22 53  1  0
 27 54  1  0
 27 55  1  0
 28 56  1  0
 28 57  1  0
 29 58  1  0
 29 59  1  0
 30 60  1  0
 30 61  1  0
 31 62  1  0
 32 63  1  0
 33 64  1  0
 34 65  1  0
 34 66  1  0
 35 67  1  0
 35 68  1  0
M  END
>  <smiles>  (8) 
CN1CCN(Cc2ccc(C(=O)Nc3cccc(Cc4n[nH]c(=O)c5c4CCCC5)c3)cc2)CC1

>  <score_type>  (8) 
oracle

>  <origin>  (8) 
adg

>  <m_score__min__energy>  (8) 
-10.289999999999999

>  <m_primary>  (8) 
energy

$$$$
8:0
     RDKit          3D

 44 47  0  0  0  0  0  0  0  0999 V2000
   60.6141   29.4115   45.3095 H   0  0  0  0  0  0  0  0  0  0  0  0
   59.8450   28.6500   45.1130 C   0  0  0  0  0  0  0  0  0  0  0  0
   60.1273   27.5894   45.0394 H   0  0  0  0  0  0  0  0  0  0  0  0
   58.5620   29.0150   44.9630 C   0  0  0  0  0  0  0  0  0  0  0  0
   57.4700   28.1820   44.7110 C   0  0  0  0  0  0  0  0  0  0  0  0
   57.4840   26.8440   44.5720 C   0  0  0  0  0  0  0  0  0  0  0  0
   57.8020   26.4253   43.6058 H   0  0  0  0  0  0  0  0  0  0  0  0
   57.0960   25.9060   45.6450 C   0  0  0  0  0  0  0  0  0  0  0  0
   57.8850   24.9510   46.1730 N   0  0  0  0  0  0  0  0  0  0  0  0
   57.0950   24.3680   47.1010 C   0  0  0  0  0  0  0  0  0  0  0  0
   57.4850   23.4130   47.8200 O   0  0  0  0  0  0  0  0  0  0  0  0
   55.8530   24.8900   47.1960 N   0  0  0  0  0  0  0  0  0  0  0  0
   55.8710   25.8610   46.2680 C   0  0  0  0  0  0  0  0  0  0  0  0
   54.7900   26.6900   45.9980 O   0  0  0  0  0  0  0  0  0  0  0  0
   56.3500   28.9340   44.6210 N   0  0  0  0  0  0  0  0  0  0  0  0
   56.7820   30.1940   44.8170 C   0  0  0  0  0  0  0  0  0  0  0  0
   56.0070   31.1880   44.7970 O   0  0  0  0  0  0  0  0  0  0  0  0
   58.1110   30.2880   45.0330 N   0  0  0  0  0  0  0  0  0  0  0  0
   58.8790   31.5250   45.2240 C   0  0  0  0  0  0  0  0  0  0  0  0
   59.9049   31.3750   44.8565 H   0  0  0  0  0  0  0  0  0  0  0  0
   58.3918   32.3372   44.6646 H   0  0  0  0  0  0  0  0  0  0  0  0
   58.9240   31.8960   46.6840 C   0  0  0  0  0  0  0  0  0  0  0  0
   59.1100   33.2290   47.0790 C   0  0  0  0  0  0  0  0  0  0  0  0
   59.2338   34.0125   46.3169 H   0  0  0  0  0  0  0  0  0  0  0  0
   59.1390   33.5680   48.4340 C   0  0  0  0  0  0  0  0  0  0  0  0
   59.2836   34.6178   48.7290 H   0  0  0  0  0  0  0  0  0  0  0  0
   58.9850   32.5800   49.4270 C   0  0  0  0  0  0  0  0  0  0  0  0
   59.0130   32.9310   50.8310 N   0  0  0  0  0  0  0  0  0  0  0  0
   59.9840   33.8390   51.4230 C   0  0  0  0  0  0  0  0  0  0  0  0
   61.0074   33.5138   51.1844 H   0  0  0  0  0  0  0  0  0  0  0  0
   59.8700   34.8621   51.0352 H   0  0  0  0  0  0  0  0  0  0  0  0
   59.7460   33.7800   52.9250 C   0  0  0  0  0  0  0  0  0  0  0  0
   60.5035   33.1452   53.4080 H   0  0  0  0  0  0  0  0  0  0  0  0
   59.8166   34.7766   53.3851 H   0  0  0  0  0  0  0  0  0  0  0  0
   58.3580   33.1780   53.1030 C   0  0  0  0  0  0  0  0  0  0  0  0
   58.3446   32.4926   53.9633 H   0  0  0  0  0  0  0  0  0  0  0  0
   57.6011   33.9526   53.2958 H   0  0  0  0  0  0  0  0  0  0  0  0
   58.0700   32.4190   51.8150 C   0  0  0  0  0  0  0  0  0  0  0  0
   58.2214   31.3398   51.9648 H   0  0  0  0  0  0  0  0  0  0  0  0
   57.0291   32.5588   51.4879 H   0  0  0  0  0  0  0  0  0  0  0  0
   58.8050   31.2430   49.0210 C   0  0  0  0  0  0  0  0  0  0  0  0
   58.6860   30.4553   49.7795 H   0  0  0  0  0  0  0  0  0  0  0  0
   58.7760   30.9070   47.6650 C   0  0  0  0  0  0  0  0  0  0  0  0
   58.6359   29.8579   47.3655 H   0  0  0  0  0  0  0  0  0  0  0  0
  1  2  1  0
  2  3  1  0
  2  4  2  0
  4  5  1  0
  5  6  2  0
  6  7  1  0
  6  8  1  0
  8  9  1  0
  9 10  1  0
 10 11  2  0
 10 12  1  0
 12 13  1  0
 13 14  1  0
  5 15  1  0
 15 16  1  0
 16 17  2  0
 16 18  1  0
 18 19  1  0
 19 20  1  0
 19 21  1  0
 19 22  1  0
 22 23  2  0
 23 24  1  0
 23 25  1  0
 25 26  1  0
 25 27  2  0
 27 28  1  0
 28 29  1  0
 29 30  1  0
 29 31  1  0
 29 32  1  0
 32 33  1  0
 32 34  1  0
 32 35  1  0
 35 36  1  0
 35 37  1  0
 35 38  1  0
 38 39  1  0
 38 40  1  0
 27 41  1  0
 41 42  1  0
 41 43  2  0
 43 44  1  0
 18  4  1  0
 43 22  1  0
 13  8  2  0
 38 28  1  0
M  CHG  4   9  -1  12  -1  14  -1  15  -1
M  END
>  <UniqueID>  (9) 
8

>  <SMILES>  (9) 
C=c1/c(=C/c2[n-]c(=O)[n-]c2[O-])[n-]c(=O)n1Cc1ccc(N2CCCC2)cc1

>  <Energy>  (9) 
111.80194632892461

>  <Genealogy>  (9) 
C=c1c(=Cc2[n-]c(=O)[n-]c2[O-])[n-]c(=O)n1Cc1ccc(N2CCCC2)cc1 (protonated)
C=c1/c(=C/c2[n-]c(=O)[n-]c2[O-])[n-]c(=O)n1Cc1ccc(N2CCCC2)cc1 (cis-trans isomerization)
C=c1/c(=C/c2[n-]c(=O)[n-]c2[O-])[n-]c(=O)n1Cc1ccc(N2CCCC2)cc1 (3D coordinates assigned)
C=c1/c(=C/c2[n-]c(=O)[n-]c2[O-])[n-]c(=O)n1Cc1ccc(N2CCCC2)cc1 (nonaromatic ring conformer: 111.80194632892461 kcal/mol)

>  <smiles>  (9) 
C=c1c(=Cc2[nH]c(=O)[nH]c2O)[nH]c(=O)n1Cc1ccc(N2CCCC2)cc1

>  <score_type>  (9) 
oracle

>  <origin>  (9) 
adg

>  <m_score__min__energy>  (9) 
-17.469999999999999

>  <m_primary>  (9) 
energy

$$$$
9:0
     RDKit          3D

 48 51  0  0  0  0  0  0  0  0999 V2000
   56.5870   29.7030   43.5700 C   0  0  0  0  0  0  0  0  0  0  0  0
   56.1660   29.2770   44.8620 O   0  0  0  0  0  0  0  0  0  0  0  0
   56.7780   28.2580   45.6110 C   0  0  0  0  0  0  0  0  0  0  0  0
   56.2540   26.9500   45.6260 C   0  0  0  0  0  0  0  0  0  0  0  0
   56.8720   25.9380   46.3690 C   0  0  0  0  0  0  0  0  0  0  0  0
   56.3080   24.5780   46.3790 C   0  0  0  0  0  0  0  0  0  0  0  0
   55.0620   24.4360   46.4800 O   0  0  0  0  0  0  0  0  0  0  0  0
   57.1370   23.4080   46.3080 N   0  0  0  0  0  0  0  0  0  0  0  0
   57.7550   22.8540   45.1000 C   0  0  0  0  0  0  0  0  0  0  0  0
   59.2200   22.7460   45.2060 C   0  0  0  0  0  0  0  0  0  0  0  0
   60.3710   22.6570   45.2940 N   0  0  0  0  0  0  0  0  0  0  0  0
   57.3100   23.6070   43.8460 C   0  0  0  0  0  0  0  0  0  0  0  0
   56.6320   22.3430   43.3300 C   0  0  0  0  0  0  0  0  0  0  0  0
   57.0620   21.5910   44.5830 C   0  0  0  0  0  0  0  0  0  0  0  0
   57.9990   26.2370   47.1400 C   0  0  0  0  0  0  0  0  0  0  0  0
   58.5960   25.2760   47.8890 F   0  0  0  0  0  0  0  0  0  0  0  0
   58.5310   27.5270   47.1340 C   0  0  0  0  0  0  0  0  0  0  0  0
   57.9370   28.5510   46.3700 C   0  0  0  0  0  0  0  0  0  0  0  0
   58.5430   29.9090   46.3900 C   0  0  0  0  0  0  0  0  0  0  0  0
   59.8250   30.1350   46.7880 N   0  0  0  0  0  0  0  0  0  0  0  0
   59.9470   31.4640   46.6460 C   0  0  0  0  0  0  0  0  0  0  0  0
   58.7970   31.9930   46.1900 C   0  0  0  0  0  0  0  0  0  0  0  0
   57.8770   31.0340   46.0130 N   0  0  0  0  0  0  0  0  0  0  0  0
   58.6870   33.3550   45.9710 C   0  0  0  0  0  0  0  0  0  0  0  0
   57.6110   33.8390   45.5240 O   0  0  0  0  0  0  0  0  0  0  0  0
   59.7730   34.1520   46.2550 N   0  0  0  0  0  0  0  0  0  0  0  0
   59.7020   35.6020   46.0150 C   0  0  0  0  0  0  0  0  0  0  0  0
   60.9540   33.5820   46.7030 C   0  0  0  0  0  0  0  0  0  0  0  0
   61.9560   34.3150   46.9370 O   0  0  0  0  0  0  0  0  0  0  0  0
   61.0510   32.2200   46.8950 N   0  0  0  0  0  0  0  0  0  0  0  0
   62.2830   31.6100   47.4130 C   0  0  0  0  0  0  0  0  0  0  0  0
   57.3568   30.4819   43.6735 H   0  0  0  0  0  0  0  0  0  0  0  0
   57.0035   28.8467   43.0192 H   0  0  0  0  0  0  0  0  0  0  0  0
   55.7259   30.1094   43.0192 H   0  0  0  0  0  0  0  0  0  0  0  0
   55.3475   26.7215   45.0462 H   0  0  0  0  0  0  0  0  0  0  0  0
   56.6184   24.4393   44.0433 H   0  0  0  0  0  0  0  0  0  0  0  0
   58.0457   24.1383   43.2244 H   0  0  0  0  0  0  0  0  0  0  0  0
   55.5419   22.4347   43.2146 H   0  0  0  0  0  0  0  0  0  0  0  0
   56.8809   21.9480   42.3340 H   0  0  0  0  0  0  0  0  0  0  0  0
   56.2261   21.2481   45.2105 H   0  0  0  0  0  0  0  0  0  0  0  0
   57.6161   20.6442   44.5025 H   0  0  0  0  0  0  0  0  0  0  0  0
   59.4263   27.7474   47.7339 H   0  0  0  0  0  0  0  0  0  0  0  0
   59.6760   36.1323   46.9784 H   0  0  0  0  0  0  0  0  0  0  0  0
   60.5855   35.9228   45.4436 H   0  0  0  0  0  0  0  0  0  0  0  0
   58.7914   35.8349   45.4436 H   0  0  0  0  0  0  0  0  0  0  0  0
   62.2628   31.6200   48.5128 H   0  0  0  0  0  0  0  0  0  0  0  0
   62.3558   30.5717   47.0570 H   0  0  0  0  0  0  0  0  0  0  0  0
   63.1529   32.1815   47.0570 H   0  0  0  0  0  0  0  0  0  0  0  0
  1  2  1  0
  2  3  1  0
  3  4  2  0
  4  5  1  0
  5  6  1  0
  6  7  2  0
  6  8  1  0
  8  9  1  0
  9 10  1  0
 10 11  3  0
  9 12  1  0
 12 13  1  0
 13 14  1  0
  5 15  2  0
 15 16  1  0
 15 17  1  0
 17 18  2  0
 18 19  1  0
 19 20  2  0
 20 21  1  0
 21 22  2  0
 22 23  1  0
 22 24  1  0
 24 25  2  0
 24 26  1  0
 26 27  1  0
 26 28  1  0
 28 29  2  0
 28 30  1  0
 30 31  1  0
 18  3  1  0
 23 19  1  0
 14  9  1  0
 30 21  1  0
  1 32  1  0
  1 33  1  0
  1 34  1  0
  4 35  1  0
 12 36  1  0
 12 37  1  0
 13 38  1  0
 13 39  1  0
 14 40  1  0
 14 41  1  0
 17 42  1  0
 27 43  1  0
 27 44  1  0
 27 45  1  0
 31 46  1  0
 31 47  1  0
 31 48  1  0
M  CHG  2   8  -1  23  -1
M  END
>  <UniqueID>  (10) 
9

>  <SMILES>  (10) 
COc1cc(C(=O)[N-]C2(C#N)CCC2)c(F)cc1-c1nc2c([n-]1)c(=O)n(C)c(=O)n2C

>  <Energy>  (10) 
161.41281868824328

>  <Genealogy>  (10) 
COc1cc(C(=O)[N-]C2(C#N)CCC2)c(F)cc1-c1nc2c([n-]1)c(=O)n(C)c(=O)n2C (protonated)
COc1cc(C(=O)[N-]C2(C#N)CCC2)c(F)cc1-c1nc2c([n-]1)c(=O)n(C)c(=O)n2C (3D coordinates assigned)
COc1cc(C(=O)[N-]C2(C#N)CCC2)c(F)cc1-c1nc2c([n-]1)c(=O)n(C)c(=O)n2C (nonaromatic ring conformer: 161.41281868824328 kcal/mol)

>  <smiles>  (10) 
COc1cc(C(=O)NC2(C#N)CCC2)c(F)cc1-c1nc2c([nH]1)c(=O)n(C)c(=O)n2C

>  <score_type>  (10) 
oracle

>  <origin>  (10) 
adg

>  <m_score__min__energy>  (10) 
-10.789999999999999

>  <m_primary>  (10) 
energy

$$$$
10:0
     RDKit          3D

 74 78  0  0  0  0  0  0  0  0999 V2000
   57.7410   25.7680   43.2540 C   0  0  0  0  0  0  0  0  0  0  0  0
   57.8870   27.1450   42.6230 C   0  0  0  0  0  0  0  0  0  0  0  0
   57.8780   28.1820   43.6590 N   0  0  0  0  0  0  0  0  0  0  0  0
   58.6850   28.0290   44.8330 C   0  0  0  0  0  0  0  0  0  0  0  0
   58.1670   27.3840   45.9680 C   0  0  0  0  0  0  0  0  0  0  0  0
   58.9490   27.2600   47.1200 C   0  0  0  0  0  0  0  0  0  0  0  0
   60.2470   27.7820   47.1460 C   0  0  0  0  0  0  0  0  0  0  0  0
   60.7620   28.4290   46.0210 C   0  0  0  0  0  0  0  0  0  0  0  0
   59.9820   28.5550   44.8660 C   0  0  0  0  0  0  0  0  0  0  0  0
   56.6650   29.4250   43.6610 S   0  0  0  0  0  0  0  0  0  0  0  0
   55.5200   29.0480   44.5560 O   0  0  0  0  0  0  0  0  0  0  0  0
   56.1390   29.6150   42.2650 O   0  0  0  0  0  0  0  0  0  0  0  0
   57.4120   30.9040   44.2470 C   0  0  0  0  0  0  0  0  0  0  0  0
   57.6960   31.9630   43.3750 C   0  0  0  0  0  0  0  0  0  0  0  0
   58.3910   33.0860   43.8370 C   0  0  0  0  0  0  0  0  0  0  0  0
   58.8320   33.1460   45.1640 C   0  0  0  0  0  0  0  0  0  0  0  0
   59.6030   34.2740   45.5990 N   0  0  0  0  0  0  0  0  0  0  0  0
   60.2030   34.3880   46.8970 C   0  0  0  0  0  0  0  0  0  0  0  0
   59.7140   35.1980   47.7290 O   0  0  0  0  0  0  0  0  0  0  0  0
   61.4170   33.6190   47.2450 C   0  0  0  0  0  0  0  0  0  0  0  0
   62.5980   33.8370   46.5140 C   0  0  0  0  0  0  0  0  0  0  0  0
   63.7440   33.0840   46.7760 C   0  0  0  0  0  0  0  0  0  0  0  0
   63.7220   32.0970   47.7610 C   0  0  0  0  0  0  0  0  0  0  0  0
   62.5540   31.8630   48.4900 C   0  0  0  0  0  0  0  0  0  0  0  0
   61.3970   32.6170   48.2400 C   0  0  0  0  0  0  0  0  0  0  0  0
   60.1930   32.3260   48.9620 N   0  0  0  0  0  0  0  0  0  0  0  0
   60.0170   32.7190   50.3330 C   0  0  0  0  0  0  0  0  0  0  0  0
   60.8700   33.4680   50.8810 O   0  0  0  0  0  0  0  0  0  0  0  0
   58.8630   32.2170   51.1240 C   0  0  0  0  0  0  0  0  0  0  0  0
   58.1300   33.1240   51.9140 C   0  0  0  0  0  0  0  0  0  0  0  0
   57.0070   32.7030   52.6270 C   0  0  0  0  0  0  0  0  0  0  0  0
   56.5940   31.3740   52.5610 C   0  0  0  0  0  0  0  0  0  0  0  0
   57.3020   30.4600   51.7790 C   0  0  0  0  0  0  0  0  0  0  0  0
   58.4340   30.8660   51.0550 C   0  0  0  0  0  0  0  0  0  0  0  0
   59.1720   29.8500   50.2810 C   0  0  0  0  0  0  0  0  0  0  0  0
   59.0500   29.8280   49.0260 O   0  0  0  0  0  0  0  0  0  0  0  0
   60.0120   28.8820   50.9350 N   0  0  0  0  0  0  0  0  0  0  0  0
   60.8290   27.9270   50.2080 C   0  0  0  0  0  0  0  0  0  0  0  0
   61.5650   27.1230   51.2720 C   0  0  0  0  0  0  0  0  0  0  0  0
   60.8020   27.3590   52.5730 C   0  0  0  0  0  0  0  0  0  0  0  0
   60.0240   28.6530   52.3700 C   0  0  0  0  0  0  0  0  0  0  0  0
   58.5110   32.1000   46.0460 C   0  0  0  0  0  0  0  0  0  0  0  0
   57.8120   30.9840   45.5860 C   0  0  0  0  0  0  0  0  0  0  0  0
   57.7512   25.8639   44.3498 H   0  0  0  0  0  0  0  0  0  0  0  0
   56.7900   25.3171   42.9342 H   0  0  0  0  0  0  0  0  0  0  0  0
   58.5763   25.1277   42.9342 H   0  0  0  0  0  0  0  0  0  0  0  0
   58.8369   27.1922   42.0703 H   0  0  0  0  0  0  0  0  0  0  0  0
   57.0438   27.3161   41.9376 H   0  0  0  0  0  0  0  0  0  0  0  0
   57.1455   26.9762   45.9504 H   0  0  0  0  0  0  0  0  0  0  0  0
   58.5435   26.7515   48.0071 H   0  0  0  0  0  0  0  0  0  0  0  0
   60.8617   27.6826   48.0528 H   0  0  0  0  0  0  0  0  0  0  0  0
   61.7820   28.8402   46.0426 H   0  0  0  0  0  0  0  0  0  0  0  0
   60.3888   29.0684   43.9823 H   0  0  0  0  0  0  0  0  0  0  0  0
   57.3720   31.9115   42.3251 H   0  0  0  0  0  0  0  0  0  0  0  0
   58.5916   33.9251   43.1546 H   0  0  0  0  0  0  0  0  0  0  0  0
   62.6192   34.6073   45.7291 H   0  0  0  0  0  0  0  0  0  0  0  0
   64.6656   33.2694   46.2047 H   0  0  0  0  0  0  0  0  0  0  0  0
   64.6250   31.5025   47.9638 H   0  0  0  0  0  0  0  0  0  0  0  0
   62.5408   31.0827   49.2652 H   0  0  0  0  0  0  0  0  0  0  0  0
   59.4620   31.7490   48.4900 H   0  0  0  0  0  0  0  0  0  0  0  0
   58.4465   34.1760   51.9694 H   0  0  0  0  0  0  0  0  0  0  0  0
   56.4465   33.4219   53.2426 H   0  0  0  0  0  0  0  0  0  0  0  0
   55.7092   31.0448   53.1256 H   0  0  0  0  0  0  0  0  0  0  0  0
   56.9700   29.4125   51.7296 H   0  0  0  0  0  0  0  0  0  0  0  0
   60.1958   27.2665   49.5974 H   0  0  0  0  0  0  0  0  0  0  0  0
   61.5272   28.4284   49.5216 H   0  0  0  0  0  0  0  0  0  0  0  0
   61.5618   26.0536   51.0146 H   0  0  0  0  0  0  0  0  0  0  0  0
   62.6171   27.4323   51.3577 H   0  0  0  0  0  0  0  0  0  0  0  0
   60.1127   26.5246   52.7694 H   0  0  0  0  0  0  0  0  0  0  0  0
   61.4826   27.4271   53.4345 H   0  0  0  0  0  0  0  0  0  0  0  0
   58.9973   28.5472   52.7504 H   0  0  0  0  0  0  0  0  0  0  0  0
   60.4833   29.4928   52.9119 H   0  0  0  0  0  0  0  0  0  0  0  0
   58.8119   32.1615   47.1023 H   0  0  0  0  0  0  0  0  0  0  0  0
   57.5741   30.1632   46.2785 H   0  0  0  0  0  0  0  0  0  0  0  0
  1  2  1  0
  2  3  1  0
  3  4  1  0
  4  5  2  0
  5  6  1  0
  6  7  2  0
  7  8  1  0
  8  9  2  0
  3 10  1  0
 10 11  2  0
 10 12  2  0
 10 13  1  0
 13 14  2  0
 14 15  1  0
 15 16  2  0
 16 17  1  0
 17 18  1  0
 18 19  2  0
 18 20  1  0
 20 21  2  0
 21 22  1  0
 22 23  2  0
 23 24  1  0
 24 25  2  0
 25 26  1  0
 26 27  1  0
 27 28  2  0
 27 29  1  0
 29 30  2  0
 30 31  1  0
 31 32  2  0
 32 33  1  0
 33 34  2  0
 34 35  1  0
 35 36  2  0
 35 37  1  0
 37 38  1  0
 38 39  1  0
 39 40  1  0
 40 41  1  0
 16 42  1  0
 42 43  2  0
  9  4  1  0
 43 13  1  0
 25 20  1  0
 34 29  1  0
 41 37  1  0
  1 44  1  0
  1 45  1  0
  1 46  1  0
  2 47  1  0
  2 48  1  0
  5 49  1  0
  6 50  1  0
  7 51  1  0
  8 52  1  0
  9 53  1  0
 14 54  1  0
 15 55  1  0
 21 56  1  0
 22 57  1  0
 23 58  1  0
 24 59  1  0
 26 60  1  0
 30 61  1  0
 31 62  1  0
 32 63  1  0
 33 64  1  0
 38 65  1  0
 38 66  1  0
 39 67  1  0
 39 68  1  0
 40 69  1  0
 40 70  1  0
 41 71  1  0
 41 72  1  0
 42 73  1  0
 43 74  1  0
M  CHG  1  17  -1
M  END
>  <UniqueID>  (11) 
10

>  <SMILES>  (11) 
CCN(c1ccccc1)S(=O)(=O)c1ccc([N-]C(=O)c2ccccc2NC(=O)c2ccccc2C(=O)N2CCCC2)cc1

>  <Energy>  (11) 
104.44619449092775

>  <Genealogy>  (11) 
CCN(c1ccccc1)S(=O)(=O)c1ccc([N-]C(=O)c2ccccc2NC(=O)c2ccccc2C(=O)N2CCCC2)cc1 (protonated)
CCN(c1ccccc1)S(=O)(=O)c1ccc([N-]C(=O)c2ccccc2NC(=O)c2ccccc2C(=O)N2CCCC2)cc1 (3D coordinates assigned)
CCN(c1ccccc1)S(=O)(=O)c1ccc([N-]C(=O)c2ccccc2NC(=O)c2ccccc2C(=O)N2CCCC2)cc1 (nonaromatic ring conformer: 104.44619449092775 kcal/mol)

>  <smiles>  (11) 
CCN(c1ccccc1)S(=O)(=O)c1ccc(NC(=O)c2ccccc2NC(=O)c2ccccc2C(=O)N2CCCC2)cc1

>  <score_type>  (11) 
oracle

>  <origin>  (11) 
adg

>  <m_score__min__energy>  (11) 
-11.949999999999999

>  <m_primary>  (11) 
energy

$$$$
11:0
     RDKit          3D

 35 37  0  0  0  0  0  0  0  0999 V2000
   56.4820   29.8130   42.6400 C   0  0  0  0  0  0  0  0  0  0  0  0
   56.4580   29.8490   44.4190 S   0  0  0  0  0  0  0  0  0  0  0  0
   55.1470   29.3330   44.9400 O   0  0  0  0  0  0  0  0  0  0  0  0
   56.6350   31.2710   44.8730 O   0  0  0  0  0  0  0  0  0  0  0  0
   57.7660   28.9000   45.0460 N   0  0  0  0  0  0  0  0  0  0  0  0
   57.6500   27.6080   45.6610 C   0  0  0  0  0  0  0  0  0  0  0  0
   56.4410   26.8870   45.6410 C   0  0  0  0  0  0  0  0  0  0  0  0
   56.3550   25.6400   46.2680 C   0  0  0  0  0  0  0  0  0  0  0  0
   55.1920   24.9370   46.2550 N   0  0  0  0  0  0  0  0  0  0  0  0
   55.0970   23.7260   46.8640 C   0  0  0  0  0  0  0  0  0  0  0  0
   54.0090   23.0920   46.8390 O   0  0  0  0  0  0  0  0  0  0  0  0
   56.2130   23.1900   47.5150 C   0  0  0  0  0  0  0  0  0  0  0  0
   57.3790   23.8900   47.5320 N   0  0  0  0  0  0  0  0  0  0  0  0
   57.4780   25.1020   46.9250 C   0  0  0  0  0  0  0  0  0  0  0  0
   58.6800   25.8130   46.9480 C   0  0  0  0  0  0  0  0  0  0  0  0
   58.7730   27.0580   46.3110 C   0  0  0  0  0  0  0  0  0  0  0  0
   60.3460   27.9310   46.3360 S   0  0  0  0  0  0  0  0  0  0  0  0
   59.8510   28.9990   47.6950 C   0  0  0  0  0  0  0  0  0  0  0  0
   59.9820   28.5410   49.0130 C   0  0  0  0  0  0  0  0  0  0  0  0
   59.6160   29.3610   50.0840 C   0  0  0  0  0  0  0  0  0  0  0  0
   59.1080   30.6410   49.8420 C   0  0  0  0  0  0  0  0  0  0  0  0
   58.9620   31.0990   48.5300 C   0  0  0  0  0  0  0  0  0  0  0  0
   59.3250   30.2800   47.4500 C   0  0  0  0  0  0  0  0  0  0  0  0
   59.1570   30.7310   46.1430 O   0  0  0  0  0  0  0  0  0  0  0  0
   57.0620   28.9429   42.2987 H   0  0  0  0  0  0  0  0  0  0  0  0
   55.4521   29.7388   42.2608 H   0  0  0  0  0  0  0  0  0  0  0  0
   56.9467   30.7351   42.2608 H   0  0  0  0  0  0  0  0  0  0  0  0
   55.5612   27.3059   45.1306 H   0  0  0  0  0  0  0  0  0  0  0  0
   56.1481   22.2096   48.0095 H   0  0  0  0  0  0  0  0  0  0  0  0
   59.5552   25.3951   47.4670 H   0  0  0  0  0  0  0  0  0  0  0  0
   60.3746   27.5316   49.2054 H   0  0  0  0  0  0  0  0  0  0  0  0
   59.7276   28.9995   51.1169 H   0  0  0  0  0  0  0  0  0  0  0  0
   58.8231   31.2878   50.6849 H   0  0  0  0  0  0  0  0  0  0  0  0
   58.5607   32.1060   48.3430 H   0  0  0  0  0  0  0  0  0  0  0  0
   58.4830   30.3070   45.5160 H   0  0  0  0  0  0  0  0  0  0  0  0
  1  2  1  0
  2  3  2  0
  2  4  2  0
  2  5  1  0
  5  6  1  0
  6  7  2  0
  7  8  1  0
  8  9  1  0
  9 10  1  0
 10 11  2  0
 10 12  1  0
 12 13  2  0
 13 14  1  0
 14 15  1  0
 15 16  2  0
 16 17  1  0
 17 18  1  0
 18 19  2  0
 19 20  1  0
 20 21  2  0
 21 22  1  0
 22 23  2  0
 23 24  1  0
 16  6  1  0
 23 18  1  0
 14  8  2  0
  1 25  1  0
  1 26  1  0
  1 27  1  0
  7 28  1  0
 12 29  1  0
 15 30  1  0
 19 31  1  0
 20 32  1  0
 21 33  1  0
 22 34  1  0
 24 35  1  0
M  CHG  2   5  -1   9  -1
M  END
>  <UniqueID>  (12) 
11

>  <SMILES>  (12) 
CS(=O)(=O)[N-]c1cc2[n-]c(=O)cnc2cc1Sc1ccccc1O

>  <Energy>  (12) 
36.16630426166909

>  <Genealogy>  (12) 
CS(=O)(=O)[N-]c1cc2[n-]c(=O)cnc2cc1Sc1ccccc1O (protonated)
CS(=O)(=O)[N-]c1cc2[n-]c(=O)cnc2cc1Sc1ccccc1O (3D coordinates assigned)
CS(=O)(=O)[N-]c1cc2[n-]c(=O)cnc2cc1Sc1ccccc1O (optimized conformer: 36.16630426166909 kcal/mol)

>  <smiles>  (12) 
CS(=O)(=O)Nc1cc2[nH]c(=O)cnc2cc1Sc1ccccc1O

>  <score_type>  (12) 
oracle

>  <origin>  (12) 
adg

>  <m_score__min__energy>  (12) 
-10.73

>  <m_primary>  (12) 
energy

$$$$
12:0
     RDKit          3D

 45 47  0  0  0  0  0  0  0  0999 V2000
   54.8020   27.1140   46.3730 H   0  0  0  0  0  0  0  0  0  0  0  0
   55.1340   26.2010   45.9910 N   0  0  0  0  0  0  0  0  0  0  0  0
   56.8610   26.2400   46.0190 S   0  0  0  0  0  0  0  0  0  0  0  0
   57.3610   25.5340   47.2490 O   0  0  0  0  0  0  0  0  0  0  0  0
   57.3970   25.5310   44.8060 O   0  0  0  0  0  0  0  0  0  0  0  0
   57.4110   27.9120   46.0260 C   0  0  0  0  0  0  0  0  0  0  0  0
   56.9940   28.7970   45.0220 C   0  0  0  0  0  0  0  0  0  0  0  0
   56.3272   28.4436   44.2217 H   0  0  0  0  0  0  0  0  0  0  0  0
   57.4230   30.1270   45.0350 C   0  0  0  0  0  0  0  0  0  0  0  0
   57.0977   30.8140   44.2399 H   0  0  0  0  0  0  0  0  0  0  0  0
   58.2670   30.5920   46.0570 C   0  0  0  0  0  0  0  0  0  0  0  0
   58.7170   31.9620   46.0630 N   0  0  0  0  0  0  0  0  0  0  0  0
   60.0390   32.2270   46.2770 C   0  0  0  0  0  0  0  0  0  0  0  0
   60.7442   31.3948   46.4188 H   0  0  0  0  0  0  0  0  0  0  0  0
   60.5070   33.5440   46.3180 C   0  0  0  0  0  0  0  0  0  0  0  0
   61.9440   33.8010   46.5420 C   0  0  0  0  0  0  0  0  0  0  0  0
   62.6075   33.8364   45.6653 H   0  0  0  0  0  0  0  0  0  0  0  0
   62.4700   33.9880   47.7180 N   0  0  0  0  0  0  0  0  0  0  0  0
   62.9850   32.9590   48.6250 C   0  0  0  0  0  0  0  0  0  0  0  0
   63.1899   32.0399   48.0564 H   0  0  0  0  0  0  0  0  0  0  0  0
   63.9130   33.3183   49.0938 H   0  0  0  0  0  0  0  0  0  0  0  0
   61.9490   32.6640   49.7130 C   0  0  0  0  0  0  0  0  0  0  0  0
   62.4494   32.6797   50.6925 H   0  0  0  0  0  0  0  0  0  0  0  0
   61.1658   33.4339   49.6517 H   0  0  0  0  0  0  0  0  0  0  0  0
   61.2820   31.2970   49.5210 C   0  0  0  0  0  0  0  0  0  0  0  0
   61.3466   31.0118   48.4606 H   0  0  0  0  0  0  0  0  0  0  0  0
   61.8039   30.5626   50.1522 H   0  0  0  0  0  0  0  0  0  0  0  0
   59.8760   31.3350   49.9200 N   0  0  0  0  0  0  0  0  0  0  0  0
   59.2380   30.4660   50.7270 C   0  0  0  0  0  0  0  0  0  0  0  0
   59.6782   29.5690   51.1871 H   0  0  0  0  0  0  0  0  0  0  0  0
   57.9360   30.8970   50.8760 C   0  0  0  0  0  0  0  0  0  0  0  0
   57.1590   30.3972   51.4730 H   0  0  0  0  0  0  0  0  0  0  0  0
   57.7750   32.0310   50.1690 N   0  0  0  0  0  0  0  0  0  0  0  0
   56.9070   32.6040   50.0840 H   0  0  0  0  0  0  0  0  0  0  0  0
   58.9700   32.2790   49.5980 C   0  0  0  0  0  0  0  0  0  0  0  0
   59.1796   33.1432   48.9505 H   0  0  0  0  0  0  0  0  0  0  0  0
   59.5900   34.5760   46.0830 C   0  0  0  0  0  0  0  0  0  0  0  0
   59.9630   35.7790   46.0570 O   0  0  0  0  0  0  0  0  0  0  0  0
   58.2850   34.2790   45.8650 N   0  0  0  0  0  0  0  0  0  0  0  0
   57.8400   32.9960   45.8550 C   0  0  0  0  0  0  0  0  0  0  0  0
   56.6190   32.7730   45.6330 O   0  0  0  0  0  0  0  0  0  0  0  0
   58.6820   29.7020   47.0610 C   0  0  0  0  0  0  0  0  0  0  0  0
   59.3485   30.0533   47.8624 H   0  0  0  0  0  0  0  0  0  0  0  0
   58.2520   28.3710   47.0470 C   0  0  0  0  0  0  0  0  0  0  0  0
   58.5758   27.6823   47.8412 H   0  0  0  0  0  0  0  0  0  0  0  0
  1  2  1  0
  2  3  1  0
  3  4  2  0
  3  5  2  0
  3  6  1  0
  6  7  2  0
  7  8  1  0
  7  9  1  0
  9 10  1  0
  9 11  2  0
 11 12  1  0
 12 13  1  0
 13 14  1  0
 13 15  2  0
 15 16  1  0
 16 17  1  0
 16 18  2  0
 18 19  1  0
 19 20  1  0
 19 21  1  0
 19 22  1  0
 22 23  1  0
 22 24  1  0
 22 25  1  0
 25 26  1  0
 25 27  1  0
 25 28  1  0
 28 29  1  0
 29 30  1  0
 29 31  2  0
 31 32  1  0
 31 33  1  0
 33 34  1  0
 33 35  2  0
 35 36  1  0
 15 37  1  0
 37 38  2  0
 37 39  1  0
 39 40  1  0
 40 41  2  0
 11 42  1  0
 42 43  1  0
 42 44  2  0
 44 45  1  0
 44  6  1  0
 40 12  1  0
 35 28  1  0
M  CHG  3   2  -1  33   1  39  -1
M  END
>  <UniqueID>  (13) 
12

>  <SMILES>  (13) 
[NH-]S(=O)(=O)c1ccc(-n2cc(/C=N\CCCn3cc[nH+]c3)c(=O)[n-]c2=O)cc1

>  <Energy>  (13) 
91.1531552168681

>  <Genealogy>  (13) 
[NH-]S(=O)(=O)c1ccc(-n2cc(C=NCCCn3cc[nH+]c3)c(=O)[n-]c2=O)cc1 (protonated)
[NH-]S(=O)(=O)c1ccc(-n2cc(/C=N\CCCn3cc[nH+]c3)c(=O)[n-]c2=O)cc1 (cis-trans isomerization)
[NH-]S(=O)(=O)c1ccc(-n2cc(/C=N\CCCn3cc[nH+]c3)c(=O)[n-]c2=O)cc1 (3D coordinates assigned)
[NH-]S(=O)(=O)c1ccc(-n2cc(/C=N\CCCn3cc[nH+]c3)c(=O)[n-]c2=O)cc1 (optimized conformer: 91.1531552168681 kcal/mol)

>  <smiles>  (13) 
NS(=O)(=O)c1ccc(-n2cc(C=NCCCn3ccnc3)c(=O)[nH]c2=O)cc1

>  <score_type>  (13) 
oracle

>  <origin>  (13) 
adg

>  <m_score__min__energy>  (13) 
-10.710000000000001

>  <m_primary>  (13) 
energy

$$$$
13:0
     RDKit          3D

 48 51  0  0  0  0  0  0  0  0999 V2000
   60.3370   27.3930   48.1270 C   0  0  0  0  0  0  0  0  0  0  0  0
   59.7970   28.5170   47.6270 C   0  0  0  0  0  0  0  0  0  0  0  0
   58.8640   28.5960   46.5760 C   0  0  0  0  0  0  0  0  0  0  0  0
   58.4310   27.6660   45.7010 C   0  0  0  0  0  0  0  0  0  0  0  0
   57.1990   26.8710   45.8250 C   0  0  0  0  0  0  0  0  0  0  0  0
   57.1670   25.6290   46.3360 N   0  0  0  0  0  0  0  0  0  0  0  0
   55.8470   25.3420   46.3740 C   0  0  0  0  0  0  0  0  0  0  0  0
   55.4060   24.2360   46.7840 O   0  0  0  0  0  0  0  0  0  0  0  0
   55.0370   26.3340   45.9490 N   0  0  0  0  0  0  0  0  0  0  0  0
   55.9070   27.3030   45.6200 C   0  0  0  0  0  0  0  0  0  0  0  0
   55.5270   28.5600   45.1700 O   0  0  0  0  0  0  0  0  0  0  0  0
   58.4010   29.8980   46.5660 C   0  0  0  0  0  0  0  0  0  0  0  0
   59.1020   30.5800   47.5360 C   0  0  0  0  0  0  0  0  0  0  0  0
   58.8820   32.0000   47.8650 C   0  0  0  0  0  0  0  0  0  0  0  0
   58.6860   32.3270   49.0670 O   0  0  0  0  0  0  0  0  0  0  0  0
   58.9060   33.0110   46.8390 N   0  0  0  0  0  0  0  0  0  0  0  0
   59.0890   34.4150   47.2190 C   0  0  0  0  0  0  0  0  0  0  0  0
   59.6350   35.2100   46.0290 C   0  0  0  0  0  0  0  0  0  0  0  0
   58.8280   35.0160   44.8840 O   0  0  0  0  0  0  0  0  0  0  0  0
   58.9070   33.6650   44.4710 C   0  0  0  0  0  0  0  0  0  0  0  0
   58.3030   32.7370   45.5280 C   0  0  0  0  0  0  0  0  0  0  0  0
   59.9640   29.7530   48.1770 N   0  0  0  0  0  0  0  0  0  0  0  0
   60.7550   30.1260   49.3630 C   0  0  0  0  0  0  0  0  0  0  0  0
   61.7730   31.1800   49.0080 C   0  0  0  0  0  0  0  0  0  0  0  0
   62.1530   32.1470   49.9540 C   0  0  0  0  0  0  0  0  0  0  0  0
   63.0680   33.1470   49.6130 C   0  0  0  0  0  0  0  0  0  0  0  0
   63.6150   33.1890   48.3280 C   0  0  0  0  0  0  0  0  0  0  0  0
   64.5000   34.1620   47.9970 F   0  0  0  0  0  0  0  0  0  0  0  0
   63.2470   32.2280   47.3820 C   0  0  0  0  0  0  0  0  0  0  0  0
   62.3300   31.2270   47.7180 C   0  0  0  0  0  0  0  0  0  0  0  0
   61.0603   27.4509   48.9537 H   0  0  0  0  0  0  0  0  0  0  0  0
   60.0558   26.4149   47.7096 H   0  0  0  0  0  0  0  0  0  0  0  0
   59.0556   27.4851   44.8137 H   0  0  0  0  0  0  0  0  0  0  0  0
   57.6215   30.3109   45.9089 H   0  0  0  0  0  0  0  0  0  0  0  0
   58.1218   34.8384   47.5276 H   0  0  0  0  0  0  0  0  0  0  0  0
   59.8039   34.4744   48.0529 H   0  0  0  0  0  0  0  0  0  0  0  0
   59.6472   36.2798   46.2848 H   0  0  0  0  0  0  0  0  0  0  0  0
   60.6533   34.8583   45.8069 H   0  0  0  0  0  0  0  0  0  0  0  0
   58.3554   33.5437   43.5271 H   0  0  0  0  0  0  0  0  0  0  0  0
   59.9656   33.4000   44.3328 H   0  0  0  0  0  0  0  0  0  0  0  0
   57.2174   32.9057   45.5837 H   0  0  0  0  0  0  0  0  0  0  0  0
   58.5037   31.6921   45.2490 H   0  0  0  0  0  0  0  0  0  0  0  0
   60.0814   30.5198   50.1383 H   0  0  0  0  0  0  0  0  0  0  0  0
   61.2808   29.2343   49.7351 H   0  0  0  0  0  0  0  0  0  0  0  0
   61.7282   32.1168   50.9682 H   0  0  0  0  0  0  0  0  0  0  0  0
   63.3581   33.9026   50.3579 H   0  0  0  0  0  0  0  0  0  0  0  0
   63.6796   32.2592   46.3711 H   0  0  0  0  0  0  0  0  0  0  0  0
   62.0433   30.4733   46.9698 H   0  0  0  0  0  0  0  0  0  0  0  0
  1  2  2  0
  2  3  1  0
  3  4  2  3
  4  5  1  0
  5  6  1  0
  6  7  1  0
  7  8  2  0
  7  9  1  0
  9 10  1  0
 10 11  1  0
  3 12  1  0
 12 13  2  0
 13 14  1  0
 14 15  2  0
 14 16  1  0
 16 17  1  0
 17 18  1  0
 18 19  1  0
 19 20  1  0
 20 21  1  0
 13 22  1  0
 22 23  1  0
 23 24  1  0
 24 25  2  0
 25 26  1  0
 26 27  2  0
 27 28  1  0
 27 29  1  0
 29 30  2  0
 22  2  1  0
 30 24  1  0
 10  5  2  0
 21 16  1  0
  1 31  1  0
  1 32  1  0
  4 33  1  0
 12 34  1  0
 17 35  1  0
 17 36  1  0
 18 37  1  0
 18 38  1  0
 20 39  1  0
 20 40  1  0
 21 41  1  0
 21 42  1  0
 23 43  1  0
 23 44  1  0
 25 45  1  0
 26 46  1  0
 29 47  1  0
 30 48  1  0
M  CHG  3   6  -1   9  -1  11  -1
M  END
>  <UniqueID>  (14) 
13

>  <SMILES>  (14) 
C=c1c(=Cc2[n-]c(=O)[n-]c2[O-])cc(C(=O)N2CCOCC2)n1Cc1ccc(F)cc1

>  <Energy>  (14) 
127.03138823671057

>  <Genealogy>  (14) 
C=c1c(=Cc2[n-]c(=O)[n-]c2[O-])cc(C(=O)N2CCOCC2)n1Cc1ccc(F)cc1 (protonated)
C=c1c(=Cc2[n-]c(=O)[n-]c2[O-])cc(C(=O)N2CCOCC2)n1Cc1ccc(F)cc1 (3D coordinates assigned)
C=c1c(=Cc2[n-]c(=O)[n-]c2[O-])cc(C(=O)N2CCOCC2)n1Cc1ccc(F)cc1 (nonaromatic ring conformer: 127.03138823671057 kcal/mol)

>  <smiles>  (14) 
C=c1c(=Cc2[nH]c(=O)[nH]c2O)cc(C(=O)N2CCOCC2)n1Cc1ccc(F)cc1

>  <score_type>  (14) 
oracle

>  <origin>  (14) 
adg

>  <m_score__min__energy>  (14) 
-16.449999999999999

>  <m_primary>  (14) 
energy

$$$$
14:0
     RDKit          3D

 64 68  0  0  0  0  0  0  0  0999 V2000
   58.7680   25.3780   47.1110 O   0  0  0  0  0  0  0  0  0  0  0  0
   57.9350   26.3170   47.0270 C   0  0  0  0  0  0  0  0  0  0  0  0
   56.5400   26.0080   47.1260 N   0  0  0  0  0  0  0  0  0  0  0  0
   55.6280   25.9320   45.9900 C   0  0  0  0  0  0  0  0  0  0  0  0
   55.8810   24.6620   45.2330 C   0  0  0  0  0  0  0  0  0  0  0  0
   55.2800   23.4650   45.6520 C   0  0  0  0  0  0  0  0  0  0  0  0
   55.5290   22.2720   44.9660 C   0  0  0  0  0  0  0  0  0  0  0  0
   56.3830   22.2680   43.8590 C   0  0  0  0  0  0  0  0  0  0  0  0
   56.6890   20.7720   42.9990 Cl  0  0  0  0  0  0  0  0  0  0  0  0
   56.9960   23.4540   43.4430 C   0  0  0  0  0  0  0  0  0  0  0  0
   56.7550   24.6460   44.1330 C   0  0  0  0  0  0  0  0  0  0  0  0
   58.4210   27.7060   46.8760 C   0  0  0  0  0  0  0  0  0  0  0  0
   58.5050   28.5480   47.9960 C   0  0  0  0  0  0  0  0  0  0  0  0
   58.9220   29.8750   47.8550 C   0  0  0  0  0  0  0  0  0  0  0  0
   59.2690   30.3770   46.5930 C   0  0  0  0  0  0  0  0  0  0  0  0
   59.7010   31.7830   46.4370 C   0  0  0  0  0  0  0  0  0  0  0  0
   58.9180   32.8060   45.9040 C   0  0  0  0  0  0  0  0  0  0  0  0
   57.5060   32.7200   45.4850 C   0  0  0  0  0  0  0  0  0  0  0  0
   56.6700   33.5340   45.9600 O   0  0  0  0  0  0  0  0  0  0  0  0
   57.0480   31.6780   44.5480 C   0  0  0  0  0  0  0  0  0  0  0  0
   57.3890   31.5860   43.2120 C   0  0  0  0  0  0  0  0  0  0  0  0
   56.7030   30.4940   42.7270 C   0  0  0  0  0  0  0  0  0  0  0  0
   55.9900   29.9860   43.7930 C   0  0  0  0  0  0  0  0  0  0  0  0
   56.2140   30.7150   44.8630 O   0  0  0  0  0  0  0  0  0  0  0  0
   59.7270   33.9270   45.8820 C   0  0  0  0  0  0  0  0  0  0  0  0
   59.3730   35.2030   45.4650 O   0  0  0  0  0  0  0  0  0  0  0  0
   60.9550   33.5530   46.3720 C   0  0  0  0  0  0  0  0  0  0  0  0
   62.0580   34.4000   46.4700 O   0  0  0  0  0  0  0  0  0  0  0  0
   60.9470   32.2450   46.7200 N   0  0  0  0  0  0  0  0  0  0  0  0
   62.1120   31.4620   47.1500 C   0  0  0  0  0  0  0  0  0  0  0  0
   63.1140   32.3160   47.8880 C   0  0  0  0  0  0  0  0  0  0  0  0
   64.1350   32.7360   47.2740 O   0  0  0  0  0  0  0  0  0  0  0  0
   62.9270   32.6570   49.2800 N   0  0  0  0  0  0  0  0  0  0  0  0
   62.1360   31.7830   50.1570 C   0  0  0  0  0  0  0  0  0  0  0  0
   61.6770   32.5390   51.4080 C   0  0  0  0  0  0  0  0  0  0  0  0
   62.7650   33.1960   52.0250 O   0  0  0  0  0  0  0  0  0  0  0  0
   63.2390   34.2160   51.1710 C   0  0  0  0  0  0  0  0  0  0  0  0
   63.8480   33.6180   49.9010 C   0  0  0  0  0  0  0  0  0  0  0  0
   59.1610   29.5470   45.4690 C   0  0  0  0  0  0  0  0  0  0  0  0
   58.7320   28.2240   45.6080 C   0  0  0  0  0  0  0  0  0  0  0  0
   54.5892   25.9430   46.3518 H   0  0  0  0  0  0  0  0  0  0  0  0
   55.7934   26.7943   45.3273 H   0  0  0  0  0  0  0  0  0  0  0  0
   54.6098   23.4651   46.5243 H   0  0  0  0  0  0  0  0  0  0  0  0
   55.0532   21.3372   45.2972 H   0  0  0  0  0  0  0  0  0  0  0  0
   57.6683   23.4492   42.5723 H   0  0  0  0  0  0  0  0  0  0  0  0
   57.2513   25.5743   43.8136 H   0  0  0  0  0  0  0  0  0  0  0  0
   58.2410   28.1612   48.9913 H   0  0  0  0  0  0  0  0  0  0  0  0
   58.9780   30.5281   48.7384 H   0  0  0  0  0  0  0  0  0  0  0  0
   58.0670   32.2470   42.6522 H   0  0  0  0  0  0  0  0  0  0  0  0
   56.7204   30.1058   41.6979 H   0  0  0  0  0  0  0  0  0  0  0  0
   55.3335   29.1043   43.7533 H   0  0  0  0  0  0  0  0  0  0  0  0
   62.9830   34.1070   46.1810 H   0  0  0  0  0  0  0  0  0  0  0  0
   61.7732   30.6540   47.8151 H   0  0  0  0  0  0  0  0  0  0  0  0
   62.6019   31.0538   46.2537 H   0  0  0  0  0  0  0  0  0  0  0  0
   61.2528   31.4249   49.6077 H   0  0  0  0  0  0  0  0  0  0  0  0
   62.7634   30.9347   50.4681 H   0  0  0  0  0  0  0  0  0  0  0  0
   60.9209   33.2848   51.1215 H   0  0  0  0  0  0  0  0  0  0  0  0
   61.2518   31.8165   52.1202 H   0  0  0  0  0  0  0  0  0  0  0  0
   62.4018   34.8739   50.8949 H   0  0  0  0  0  0  0  0  0  0  0  0
   64.0153   34.7881   51.7002 H   0  0  0  0  0  0  0  0  0  0  0  0
   64.0588   34.4278   49.1870 H   0  0  0  0  0  0  0  0  0  0  0  0
   64.7757   33.0918   50.1703 H   0  0  0  0  0  0  0  0  0  0  0  0
   59.4150   29.9384   44.4729 H   0  0  0  0  0  0  0  0  0  0  0  0
   58.6373   27.5841   44.7183 H   0  0  0  0  0  0  0  0  0  0  0  0
  1  2  2  0
  2  3  1  0
  3  4  1  0
  4  5  1  0
  5  6  2  0
  6  7  1  0
  7  8  2  0
  8  9  1  0
  8 10  1  0
 10 11  2  0
  2 12  1  0
 12 13  2  0
 13 14  1  0
 14 15  2  0
 15 16  1  0
 16 17  2  0
 17 18  1  0
 18 19  2  0
 18 20  1  0
 20 21  2  0
 21 22  1  0
 22 23  2  0
 23 24  1  0
 17 25  1  0
 25 26  1  0
 25 27  2  0
 27 28  1  0
 27 29  1  0
 29 30  1  0
 30 31  1  0
 31 32  2  0
 31 33  1  0
 33 34  1  0
 34 35  1  0
 35 36  1  0
 36 37  1  0
 37 38  1  0
 15 39  1  0
 39 40  2  0
 11  5  1  0
 40 12  1  0
 29 16  1  0
 38 33  1  0
 24 20  1  0
  4 41  1  0
  4 42  1  0
  6 43  1  0
  7 44  1  0
 10 45  1  0
 11 46  1  0
 13 47  1  0
 14 48  1  0
 21 49  1  0
 22 50  1  0
 23 51  1  0
 28 52  1  0
 30 53  1  0
 30 54  1  0
 34 55  1  0
 34 56  1  0
 35 57  1  0
 35 58  1  0
 37 59  1  0
 37 60  1  0
 38 61  1  0
 38 62  1  0
 39 63  1  0
 40 64  1  0
M  CHG  2   3  -1  26  -1
M  END
>  <UniqueID>  (15) 
14

>  <SMILES>  (15) 
O=C([N-]Cc1ccc(Cl)cc1)c1ccc(-c2c(C(=O)c3ccco3)c([O-])c(O)n2CC(=O)N2CCOCC2)cc1

>  <Energy>  (15) 
139.64124142535587

>  <Genealogy>  (15) 
O=C([N-]Cc1ccc(Cl)cc1)c1ccc(-c2c(C(=O)c3ccco3)c([O-])c(O)n2CC(=O)N2CCOCC2)cc1 (protonated)
O=C([N-]Cc1ccc(Cl)cc1)c1ccc(-c2c(C(=O)c3ccco3)c([O-])c(O)n2CC(=O)N2CCOCC2)cc1 (3D coordinates assigned)
O=C([N-]Cc1ccc(Cl)cc1)c1ccc(-c2c(C(=O)c3ccco3)c([O-])c(O)n2CC(=O)N2CCOCC2)cc1 (nonaromatic ring conformer: 139.64124142535587 kcal/mol)

>  <smiles>  (15) 
O=C(NCc1ccc(Cl)cc1)c1ccc(-c2c(C(=O)c3ccco3)c(O)c(O)n2CC(=O)N2CCOCC2)cc1

>  <score_type>  (15) 
oracle

>  <origin>  (15) 
adg

>  <m_score__min__energy>  (15) 
-11.92

>  <m_primary>  (15) 
energy

$$$$
15:0
     RDKit          3D

 65 68  0  0  0  0  0  0  0  0999 V2000
   64.5300   33.0650   48.7840 C   0  0  0  0  0  0  0  0  0  0  0  0
   63.4010   33.8940   49.2440 N   0  0  0  0  0  0  0  0  0  0  0  0
   62.8430   33.3990   50.5310 C   0  0  0  0  0  0  0  0  0  0  0  0
   61.4940   32.6690   50.3920 C   0  0  0  0  0  0  0  0  0  0  0  0
   61.4050   31.9890   49.0990 N   0  0  0  0  0  0  0  0  0  0  0  0
   61.2170   30.5630   49.0420 C   0  0  0  0  0  0  0  0  0  0  0  0
   61.8720   29.8240   49.8240 O   0  0  0  0  0  0  0  0  0  0  0  0
   60.2970   29.9460   48.0600 C   0  0  0  0  0  0  0  0  0  0  0  0
   59.0590   29.4320   48.4790 C   0  0  0  0  0  0  0  0  0  0  0  0
   58.1670   28.8910   47.5510 C   0  0  0  0  0  0  0  0  0  0  0  0
   58.4930   28.8690   46.1870 C   0  0  0  0  0  0  0  0  0  0  0  0
   57.5500   28.3840   45.2260 N   0  0  0  0  0  0  0  0  0  0  0  0
   57.4420   26.9510   44.9470 C   0  0  0  0  0  0  0  0  0  0  0  0
   56.4630   26.2840   45.8640 C   0  0  0  0  0  0  0  0  0  0  0  0
   55.2910   26.7380   45.9860 O   0  0  0  0  0  0  0  0  0  0  0  0
   56.8400   25.0790   46.5340 N   0  0  0  0  0  0  0  0  0  0  0  0
   57.9470   24.2430   46.0880 C   0  0  0  0  0  0  0  0  0  0  0  0
   57.5130   23.4270   44.9040 C   0  0  0  0  0  0  0  0  0  0  0  0
   56.4000   23.8150   44.1410 C   0  0  0  0  0  0  0  0  0  0  0  0
   55.9870   23.0390   43.0530 C   0  0  0  0  0  0  0  0  0  0  0  0
   56.6770   21.8670   42.7280 C   0  0  0  0  0  0  0  0  0  0  0  0
   57.7730   21.4650   43.4950 C   0  0  0  0  0  0  0  0  0  0  0  0
   58.1880   22.2380   44.5830 C   0  0  0  0  0  0  0  0  0  0  0  0
   56.6270   29.5210   44.2920 S   0  0  0  0  0  0  0  0  0  0  0  0
   56.5730   29.0700   42.8590 O   0  0  0  0  0  0  0  0  0  0  0  0
   55.2190   29.5840   44.8140 O   0  0  0  0  0  0  0  0  0  0  0  0
   57.3670   31.1150   44.3950 C   0  0  0  0  0  0  0  0  0  0  0  0
   57.4600   31.7690   45.6320 C   0  0  0  0  0  0  0  0  0  0  0  0
   58.0360   33.0400   45.7120 C   0  0  0  0  0  0  0  0  0  0  0  0
   58.5170   33.6640   44.5580 C   0  0  0  0  0  0  0  0  0  0  0  0
   58.4250   33.0190   43.3230 C   0  0  0  0  0  0  0  0  0  0  0  0
   57.8510   31.7460   43.2400 C   0  0  0  0  0  0  0  0  0  0  0  0
   59.7270   29.3800   45.7640 C   0  0  0  0  0  0  0  0  0  0  0  0
   60.6220   29.9180   46.6920 C   0  0  0  0  0  0  0  0  0  0  0  0
   61.6540   32.7520   47.8710 C   0  0  0  0  0  0  0  0  0  0  0  0
   62.3790   34.0700   48.1910 C   0  0  0  0  0  0  0  0  0  0  0  0
   65.0716   32.6673   49.6549 H   0  0  0  0  0  0  0  0  0  0  0  0
   64.1488   32.2306   48.1769 H   0  0  0  0  0  0  0  0  0  0  0  0
   65.2120   33.6785   48.1769 H   0  0  0  0  0  0  0  0  0  0  0  0
   63.5683   32.7026   50.9769 H   0  0  0  0  0  0  0  0  0  0  0  0
   62.6618   34.2835   51.1593 H   0  0  0  0  0  0  0  0  0  0  0  0
   61.4006   31.9262   51.1979 H   0  0  0  0  0  0  0  0  0  0  0  0
   60.6828   33.4088   50.4593 H   0  0  0  0  0  0  0  0  0  0  0  0
   58.7903   29.4558   49.5454 H   0  0  0  0  0  0  0  0  0  0  0  0
   57.2048   28.4804   47.8910 H   0  0  0  0  0  0  0  0  0  0  0  0
   57.1087   26.8136   43.9077 H   0  0  0  0  0  0  0  0  0  0  0  0
   58.4297   26.4937   45.1060 H   0  0  0  0  0  0  0  0  0  0  0  0
   58.7962   24.8810   45.8021 H   0  0  0  0  0  0  0  0  0  0  0  0
   58.2513   23.5714   46.9043 H   0  0  0  0  0  0  0  0  0  0  0  0
   55.8510   24.7324   44.3998 H   0  0  0  0  0  0  0  0  0  0  0  0
   55.1193   23.3507   42.4530 H   0  0  0  0  0  0  0  0  0  0  0  0
   56.3564   21.2611   41.8677 H   0  0  0  0  0  0  0  0  0  0  0  0
   58.3102   20.5389   43.2424 H   0  0  0  0  0  0  0  0  0  0  0  0
   59.0463   21.9140   45.1900 H   0  0  0  0  0  0  0  0  0  0  0  0
   57.0789   31.2808   46.5411 H   0  0  0  0  0  0  0  0  0  0  0  0
   58.1107   33.5494   46.6841 H   0  0  0  0  0  0  0  0  0  0  0  0
   58.9688   34.6649   44.6225 H   0  0  0  0  0  0  0  0  0  0  0  0
   58.8038   33.5118   42.4155 H   0  0  0  0  0  0  0  0  0  0  0  0
   57.7791   31.2388   42.2665 H   0  0  0  0  0  0  0  0  0  0  0  0
   59.9923   29.3575   44.6967 H   0  0  0  0  0  0  0  0  0  0  0  0
   61.5865   30.3221   46.3507 H   0  0  0  0  0  0  0  0  0  0  0  0
   62.2778   32.1516   47.1925 H   0  0  0  0  0  0  0  0  0  0  0  0
   60.6895   32.9839   47.3955 H   0  0  0  0  0  0  0  0  0  0  0  0
   62.8691   34.4374   47.2773 H   0  0  0  0  0  0  0  0  0  0  0  0
   61.6324   34.7902   48.5569 H   0  0  0  0  0  0  0  0  0  0  0  0
  1  2  1  0
  2  3  1  0
  3  4  1  0
  4  5  1  0
  5  6  1  0
  6  7  2  0
  6  8  1  0
  8  9  2  0
  9 10  1  0
 10 11  2  0
 11 12  1  0
 12 13  1  0
 13 14  1  0
 14 15  2  0
 14 16  1  0
 16 17  1  0
 17 18  1  0
 18 19  2  0
 19 20  1  0
 20 21  2  0
 21 22  1  0
 22 23  2  0
 12 24  1  0
 24 25  2  0
 24 26  2  0
 24 27  1  0
 27 28  2  0
 28 29  1  0
 29 30  2  0
 30 31  1  0
 31 32  2  0
 11 33  1  0
 33 34  2  0
  5 35  1  0
 35 36  1  0
 36  2  1  0
 34  8  1  0
 23 18  1  0
 32 27  1  0
  1 37  1  0
  1 38  1  0
  1 39  1  0
  3 40  1  0
  3 41  1  0
  4 42  1  0
  4 43  1  0
  9 44  1  0
 10 45  1  0
 13 46  1  0
 13 47  1  0
 17 48  1  0
 17 49  1  0
 19 50  1  0
 20 51  1  0
 21 52  1  0
 22 53  1  0
 23 54  1  0
 28 55  1  0
 29 56  1  0
 30 57  1  0
 31 58  1  0
 32 59  1  0
 33 60  1  0
 34 61  1  0
 35 62  1  0
 35 63  1  0
 36 64  1  0
 36 65  1  0
M  CHG  1  16  -1
M  END
>  <UniqueID>  (16) 
15

>  <SMILES>  (16) 
CN1CCN(C(=O)c2ccc(N(CC(=O)[N-]Cc3ccccc3)S(=O)(=O)c3ccccc3)cc2)CC1

>  <Energy>  (16) 
84.14683390501224

>  <Genealogy>  (16) 
CN1CCN(C(=O)c2ccc(N(CC(=O)[N-]Cc3ccccc3)S(=O)(=O)c3ccccc3)cc2)CC1 (protonated)
CN1CCN(C(=O)c2ccc(N(CC(=O)[N-]Cc3ccccc3)S(=O)(=O)c3ccccc3)cc2)CC1 (3D coordinates assigned)
CN1CCN(C(=O)c2ccc(N(CC(=O)[N-]Cc3ccccc3)S(=O)(=O)c3ccccc3)cc2)CC1 (nonaromatic ring conformer: 84.14683390501224 kcal/mol)

>  <smiles>  (16) 
CN1CCN(C(=O)c2ccc(N(CC(=O)NCc3ccccc3)S(=O)(=O)c3ccccc3)cc2)CC1

>  <score_type>  (16) 
oracle

>  <origin>  (16) 
adg

>  <m_score__min__energy>  (16) 
-12.1

>  <m_primary>  (16) 
energy

$$$$
16:0
     RDKit          3D

 45 48  0  0  0  0  0  0  0  0999 V2000
   51.1527   22.6884   45.0789 H   0  0  0  0  0  0  0  0  0  0  0  0
   51.8550   22.4740   45.8980 C   0  0  0  0  0  0  0  0  0  0  0  0
   53.1680   22.2480   45.6260 N   0  0  0  0  0  0  0  0  0  0  0  0
   54.0720   21.9690   46.6090 C   0  0  0  0  0  0  0  0  0  0  0  0
   55.3280   21.7660   46.3320 N   0  0  0  0  0  0  0  0  0  0  0  0
   56.4460   22.4410   46.9320 C   0  0  0  0  0  0  0  0  0  0  0  0
   57.0570   21.8700   47.8750 O   0  0  0  0  0  0  0  0  0  0  0  0
   56.9350   23.7520   46.4400 C   0  0  0  0  0  0  0  0  0  0  0  0
   58.2830   23.9100   46.0800 C   0  0  0  0  0  0  0  0  0  0  0  0
   58.9745   23.0593   46.1704 H   0  0  0  0  0  0  0  0  0  0  0  0
   58.7540   25.1380   45.6080 C   0  0  0  0  0  0  0  0  0  0  0  0
   59.8140   25.2498   45.3360 H   0  0  0  0  0  0  0  0  0  0  0  0
   57.8790   26.2320   45.4790 C   0  0  0  0  0  0  0  0  0  0  0  0
   58.3180   27.4860   45.0070 C   0  0  0  0  0  0  0  0  0  0  0  0
   59.5250   27.6390   44.6740 O   0  0  0  0  0  0  0  0  0  0  0  0
   57.4030   28.5590   44.8920 C   0  0  0  0  0  0  0  0  0  0  0  0
   57.8400   29.8970   44.4040 C   0  0  0  0  0  0  0  0  0  0  0  0
   57.4960   30.2980   43.2580 O   0  0  0  0  0  0  0  0  0  0  0  0
   58.6460   30.7420   45.2310 N   0  0  0  0  0  0  0  0  0  0  0  0
   58.3340   31.0190   46.6270 C   0  0  0  0  0  0  0  0  0  0  0  0
   57.2488   31.1593   46.7399 H   0  0  0  0  0  0  0  0  0  0  0  0
   58.6598   30.1742   47.2516 H   0  0  0  0  0  0  0  0  0  0  0  0
   59.0500   32.2700   47.0590 C   0  0  0  0  0  0  0  0  0  0  0  0
   60.0720   32.1850   48.0210 C   0  0  0  0  0  0  0  0  0  0  0  0
   60.3527   31.2047   48.4337 H   0  0  0  0  0  0  0  0  0  0  0  0
   60.7340   33.3360   48.4570 C   0  0  0  0  0  0  0  0  0  0  0  0
   62.0130   33.2140   49.6530 Cl  0  0  0  0  0  0  0  0  0  0  0  0
   60.3750   34.5850   47.9430 C   0  0  0  0  0  0  0  0  0  0  0  0
   60.8990   35.4905   48.2827 H   0  0  0  0  0  0  0  0  0  0  0  0
   59.3510   34.6840   46.9980 C   0  0  0  0  0  0  0  0  0  0  0  0
   59.0688   35.6694   46.5989 H   0  0  0  0  0  0  0  0  0  0  0  0
   58.6820   33.5370   46.5560 C   0  0  0  0  0  0  0  0  0  0  0  0
   57.2680   33.7540   45.2770 Br  0  0  0  0  0  0  0  0  0  0  0  0
   56.0560   28.3310   45.2520 C   0  0  0  0  0  0  0  0  0  0  0  0
   55.1110   29.3480   45.1740 O   0  0  0  0  0  0  0  0  0  0  0  0
   55.6610   27.1120   45.6980 N   0  0  0  0  0  0  0  0  0  0  0  0
   56.5220   26.0700   45.8230 C   0  0  0  0  0  0  0  0  0  0  0  0
   56.0550   24.8370   46.2930 C   0  0  0  0  0  0  0  0  0  0  0  0
   54.9919   24.7169   46.5489 H   0  0  0  0  0  0  0  0  0  0  0  0
   53.6490   21.9320   47.9440 C   0  0  0  0  0  0  0  0  0  0  0  0
   54.3691   21.7238   48.7491 H   0  0  0  0  0  0  0  0  0  0  0  0
   52.3040   22.1620   48.2430 C   0  0  0  0  0  0  0  0  0  0  0  0
   51.9591   22.1287   49.2870 H   0  0  0  0  0  0  0  0  0  0  0  0
   51.3980   22.4340   47.2170 C   0  0  0  0  0  0  0  0  0  0  0  0
   50.3370   22.6147   47.4444 H   0  0  0  0  0  0  0  0  0  0  0  0
  1  2  1  0
  2  3  1  0
  3  4  1  0
  4  5  2  0
  5  6  1  0
  6  7  2  0
  6  8  1  0
  8  9  2  0
  9 10  1  0
  9 11  1  0
 11 12  1  0
 11 13  2  0
 13 14  1  0
 14 15  2  0
 14 16  1  0
 16 17  1  0
 17 18  2  0
 17 19  1  0
 19 20  1  0
 20 21  1  0
 20 22  1  0
 20 23  1  0
 23 24  2  0
 24 25  1  0
 24 26  1  0
 26 27  1  0
 26 28  2  0
 28 29  1  0
 28 30  1  0
 30 31  1  0
 30 32  2  0
 32 33  1  0
 16 34  2  0
 34 35  1  0
 34 36  1  0
 36 37  1  0
 37 38  2  0
 38 39  1  0
  4 40  1  0
 40 41  1  0
 40 42  2  0
 42 43  1  0
 42 44  1  0
 44 45  1  0
 44  2  2  0
 38  8  1  0
 37 13  1  0
 32 23  1  0
M  CHG  4   3  -1  19  -1  35  -1  36  -1
M  END
>  <UniqueID>  (17) 
16

>  <SMILES>  (17) 
O=C(/N=c1/cccc[n-]1)c1ccc2c(=O)c(C(=O)[N-]Cc3cc(Cl)ccc3Br)c([O-])[n-]c2c1

>  <Energy>  (17) 
66.61809584140077

>  <Genealogy>  (17) 
O=C(N=c1cccc[n-]1)c1ccc2c(=O)c(C(=O)[N-]Cc3cc(Cl)ccc3Br)c([O-])[n-]c2c1 (protonated)
O=C(/N=c1/cccc[n-]1)c1ccc2c(=O)c(C(=O)[N-]Cc3cc(Cl)ccc3Br)c([O-])[n-]c2c1 (cis-trans isomerization)
O=C(/N=c1/cccc[n-]1)c1ccc2c(=O)c(C(=O)[N-]Cc3cc(Cl)ccc3Br)c([O-])[n-]c2c1 (3D coordinates assigned)
O=C(/N=c1/cccc[n-]1)c1ccc2c(=O)c(C(=O)[N-]Cc3cc(Cl)ccc3Br)c([O-])[n-]c2c1 (optimized conformer: 66.61809584140077 kcal/mol)

>  <smiles>  (17) 
O=C(N=c1cccc[nH]1)c1ccc2c(=O)c(C(=O)NCc3cc(Cl)ccc3Br)c(O)[nH]c2c1

>  <score_type>  (17) 
oracle

>  <origin>  (17) 
adg

>  <m_score__min__energy>  (17) 
-17.48

>  <m_primary>  (17) 
energy

$$$$
17:0
     RDKit          3D

 42 44  0  0  0  0  0  0  0  0999 V2000
   56.4080   30.3130   44.5650 O   0  0  0  0  0  0  0  0  0  0  0  0
   56.7620   29.2040   45.0470 C   0  0  0  0  0  0  0  0  0  0  0  0
   55.8210   28.2460   45.2610 N   0  0  0  0  0  0  0  0  0  0  0  0
   56.1320   27.0390   45.8040 C   0  0  0  0  0  0  0  0  0  0  0  0
   55.1380   26.0850   46.0000 O   0  0  0  0  0  0  0  0  0  0  0  0
   57.4480   26.7590   46.1690 C   0  0  0  0  0  0  0  0  0  0  0  0
   58.4350   27.7220   45.9630 C   0  0  0  0  0  0  0  0  0  0  0  0
   58.1110   28.9560   45.3760 C   0  0  0  0  0  0  0  0  0  0  0  0
   59.1970   29.9910   45.1410 C   0  0  0  0  0  0  0  0  0  0  0  0
   59.3200   30.9760   46.2430 N   0  0  0  0  0  0  0  0  0  0  0  0
   59.4500   30.3300   47.5710 C   0  0  0  0  0  0  0  0  0  0  0  0
   60.6970   30.7590   48.2910 C   0  0  0  0  0  0  0  0  0  0  0  0
   61.0640   30.1850   49.5180 C   0  0  0  0  0  0  0  0  0  0  0  0
   62.2310   30.6160   50.1520 C   0  0  0  0  0  0  0  0  0  0  0  0
   63.0260   31.5960   49.5570 C   0  0  0  0  0  0  0  0  0  0  0  0
   62.6410   32.1300   48.3250 C   0  0  0  0  0  0  0  0  0  0  0  0
   63.7100   33.4650   47.4790 Br  0  0  0  0  0  0  0  0  0  0  0  0
   61.5010   31.7020   47.7230 N   0  0  0  0  0  0  0  0  0  0  0  0
   58.4050   32.1510   46.0960 C   0  0  0  0  0  0  0  0  0  0  0  0
   58.7090   33.3780   46.9720 C   0  0  0  0  0  0  0  0  0  0  0  0
   58.2110   34.5610   46.1610 C   0  0  0  0  0  0  0  0  0  0  0  0
   58.4540   34.1770   44.7110 C   0  0  0  0  0  0  0  0  0  0  0  0
   58.3360   32.6580   44.6480 C   0  0  0  0  0  0  0  0  0  0  0  0
   54.2400   26.3420   46.3910 H   0  0  0  0  0  0  0  0  0  0  0  0
   57.7054   25.7872   46.6155 H   0  0  0  0  0  0  0  0  0  0  0  0
   59.4730   27.5141   46.2619 H   0  0  0  0  0  0  0  0  0  0  0  0
   60.1588   29.4686   45.0313 H   0  0  0  0  0  0  0  0  0  0  0  0
   58.9220   30.5503   44.2346 H   0  0  0  0  0  0  0  0  0  0  0  0
   58.5768   30.5998   48.1832 H   0  0  0  0  0  0  0  0  0  0  0  0
   59.5079   29.2429   47.4136 H   0  0  0  0  0  0  0  0  0  0  0  0
   60.4389   29.4039   49.9754 H   0  0  0  0  0  0  0  0  0  0  0  0
   62.5234   30.1831   51.1200 H   0  0  0  0  0  0  0  0  0  0  0  0
   63.9447   31.9439   50.0520 H   0  0  0  0  0  0  0  0  0  0  0  0
   57.4514   31.7233   46.4392 H   0  0  0  0  0  0  0  0  0  0  0  0
   58.1745   33.3123   47.9312 H   0  0  0  0  0  0  0  0  0  0  0  0
   59.7782   33.4609   47.2170 H   0  0  0  0  0  0  0  0  0  0  0  0
   57.1390   34.7292   46.3415 H   0  0  0  0  0  0  0  0  0  0  0  0
   58.7273   35.4936   46.4326 H   0  0  0  0  0  0  0  0  0  0  0  0
   57.7003   34.6454   44.0610 H   0  0  0  0  0  0  0  0  0  0  0  0
   59.4417   34.5171   44.3663 H   0  0  0  0  0  0  0  0  0  0  0  0
   57.3777   32.3706   44.1907 H   0  0  0  0  0  0  0  0  0  0  0  0
   59.1407   32.2230   44.0371 H   0  0  0  0  0  0  0  0  0  0  0  0
  1  2  2  0
  2  3  1  0
  3  4  1  0
  4  5  1  0
  4  6  2  0
  6  7  1  0
  7  8  2  0
  8  9  1  0
  9 10  1  0
 10 11  1  0
 11 12  1  0
 12 13  2  0
 13 14  1  0
 14 15  2  0
 15 16  1  0
 16 17  1  0
 16 18  2  0
 10 19  1  0
 19 20  1  0
 20 21  1  0
 21 22  1  0
 22 23  1  0
  8  2  1  0
 18 12  1  0
 23 19  1  0
  5 24  1  0
  6 25  1  0
  7 26  1  0
  9 27  1  0
  9 28  1  0
 11 29  1  0
 11 30  1  0
 13 31  1  0
 14 32  1  0
 15 33  1  0
 19 34  1  0
 20 35  1  0
 20 36  1  0
 21 37  1  0
 21 38  1  0
 22 39  1  0
 22 40  1  0
 23 41  1  0
 23 42  1  0
M  CHG  1   3  -1
M  END
>  <UniqueID>  (18) 
17

>  <SMILES>  (18) 
O=c1[n-]c(O)ccc1CN(Cc1cccc(Br)n1)C1CCCC1

>  <Energy>  (18) 
57.05497294744901

>  <Genealogy>  (18) 
O=c1[n-]c(O)ccc1CN(Cc1cccc(Br)n1)C1CCCC1 (protonated)
O=c1[n-]c(O)ccc1CN(Cc1cccc(Br)n1)C1CCCC1 (3D coordinates assigned)
O=c1[n-]c(O)ccc1CN(Cc1cccc(Br)n1)C1CCCC1 (nonaromatic ring conformer: 57.05497294744901 kcal/mol)

>  <smiles>  (18) 
O=c1[nH]c(O)ccc1CN(Cc1cccc(Br)n1)C1CCCC1

>  <score_type>  (18) 
oracle

>  <origin>  (18) 
adg

>  <m_score__min__energy>  (18) 
-11.470000000000001

>  <m_primary>  (18) 
energy

$$$$
18:0
     RDKit          3D

 77 81  0  0  0  0  0  0  0  0999 V2000
   64.2190   27.6520   53.3200 C   0  0  0  0  0  0  0  0  0  0  0  0
   62.9210   28.2140   53.1510 O   0  0  0  0  0  0  0  0  0  0  0  0
   62.1750   28.1590   51.9610 C   0  0  0  0  0  0  0  0  0  0  0  0
   61.5020   26.9890   51.5630 C   0  0  0  0  0  0  0  0  0  0  0  0
   60.7530   26.9620   50.3800 C   0  0  0  0  0  0  0  0  0  0  0  0
   60.6670   28.1010   49.5710 C   0  0  0  0  0  0  0  0  0  0  0  0
   59.8380   28.0950   48.3410 C   0  0  0  0  0  0  0  0  0  0  0  0
   59.1360   26.9380   47.9600 C   0  0  0  0  0  0  0  0  0  0  0  0
   58.2680   26.9650   46.8660 C   0  0  0  0  0  0  0  0  0  0  0  0
   58.1070   28.1390   46.1190 C   0  0  0  0  0  0  0  0  0  0  0  0
   57.1330   28.1700   45.0710 N   0  0  0  0  0  0  0  0  0  0  0  0
   56.3550   29.3270   44.7470 C   0  0  0  0  0  0  0  0  0  0  0  0
   55.1350   29.3650   45.0700 O   0  0  0  0  0  0  0  0  0  0  0  0
   56.9730   30.4690   44.0410 C   0  0  0  0  0  0  0  0  0  0  0  0
   56.9020   30.5570   42.6400 C   0  0  0  0  0  0  0  0  0  0  0  0
   57.4110   31.6790   41.9760 C   0  0  0  0  0  0  0  0  0  0  0  0
   58.0000   32.7170   42.7010 C   0  0  0  0  0  0  0  0  0  0  0  0
   58.1020   32.6340   44.0990 C   0  0  0  0  0  0  0  0  0  0  0  0
   58.7540   33.7470   44.8830 C   0  0  0  0  0  0  0  0  0  0  0  0
   59.0550   33.3400   46.2760 N   0  0  0  0  0  0  0  0  0  0  0  0
   58.7810   34.4420   47.2380 C   0  0  0  0  0  0  0  0  0  0  0  0
   59.6730   34.3900   48.5040 C   0  0  0  0  0  0  0  0  0  0  0  0
   60.0630   33.0160   48.8730 N   0  0  0  0  0  0  0  0  0  0  0  0
   58.9420   32.2670   49.4610 C   0  0  0  0  0  0  0  0  0  0  0  0
   60.7330   32.2840   47.7670 C   0  0  0  0  0  0  0  0  0  0  0  0
   60.4540   32.8830   46.3740 C   0  0  0  0  0  0  0  0  0  0  0  0
   57.5760   31.5140   44.7650 C   0  0  0  0  0  0  0  0  0  0  0  0
   58.8340   29.2890   46.4730 C   0  0  0  0  0  0  0  0  0  0  0  0
   59.6890   29.2690   47.5790 C   0  0  0  0  0  0  0  0  0  0  0  0
   61.3420   29.2670   49.9610 C   0  0  0  0  0  0  0  0  0  0  0  0
   62.0940   29.3070   51.1480 C   0  0  0  0  0  0  0  0  0  0  0  0
   62.7850   30.5960   51.5310 C   0  0  0  0  0  0  0  0  0  0  0  0
   63.6940   31.0370   50.4550 N   0  0  0  0  0  0  0  0  0  0  0  0
   65.1180   31.0460   50.8890 C   0  0  0  0  0  0  0  0  0  0  0  0
   65.7160   32.4580   50.9650 C   0  0  0  0  0  0  0  0  0  0  0  0
   65.5930   33.1730   49.6840 N   0  0  0  0  0  0  0  0  0  0  0  0
   64.3200   32.9250   48.9780 C   0  0  0  0  0  0  0  0  0  0  0  0
   63.2440   32.3270   49.8900 C   0  0  0  0  0  0  0  0  0  0  0  0
   64.4402   27.5562   54.3933 H   0  0  0  0  0  0  0  0  0  0  0  0
   64.2527   26.6587   52.8486 H   0  0  0  0  0  0  0  0  0  0  0  0
   64.9664   28.3071   52.8486 H   0  0  0  0  0  0  0  0  0  0  0  0
   61.5649   26.0859   52.1878 H   0  0  0  0  0  0  0  0  0  0  0  0
   60.2294   26.0407   50.0850 H   0  0  0  0  0  0  0  0  0  0  0  0
   59.2712   26.0053   48.5272 H   0  0  0  0  0  0  0  0  0  0  0  0
   57.7079   26.0595   46.5896 H   0  0  0  0  0  0  0  0  0  0  0  0
   56.4442   29.7402   42.0627 H   0  0  0  0  0  0  0  0  0  0  0  0
   57.3469   31.7434   40.8798 H   0  0  0  0  0  0  0  0  0  0  0  0
   58.3855   33.6029   42.1750 H   0  0  0  0  0  0  0  0  0  0  0  0
   59.6929   34.0302   44.3846 H   0  0  0  0  0  0  0  0  0  0  0  0
   58.0529   34.5938   44.9196 H   0  0  0  0  0  0  0  0  0  0  0  0
   58.4400   32.5240   46.5070 H   0  0  0  0  0  0  0  0  0  0  0  0
   58.9548   35.4011   46.7282 H   0  0  0  0  0  0  0  0  0  0  0  0
   57.7384   34.3308   47.5707 H   0  0  0  0  0  0  0  0  0  0  0  0
   60.5850   34.9755   48.3156 H   0  0  0  0  0  0  0  0  0  0  0  0
   59.0876   34.8033   49.3386 H   0  0  0  0  0  0  0  0  0  0  0  0
   59.0073   32.3106   50.5582 H   0  0  0  0  0  0  0  0  0  0  0  0
   57.9912   32.7119   49.1323 H   0  0  0  0  0  0  0  0  0  0  0  0
   58.9892   31.2183   49.1323 H   0  0  0  0  0  0  0  0  0  0  0  0
   61.8186   32.3045   47.9435 H   0  0  0  0  0  0  0  0  0  0  0  0
   60.3293   31.2608   47.7655 H   0  0  0  0  0  0  0  0  0  0  0  0
   61.1260   33.7377   46.2068 H   0  0  0  0  0  0  0  0  0  0  0  0
   60.6279   32.1077   45.6133 H   0  0  0  0  0  0  0  0  0  0  0  0
   57.6362   31.4537   45.8617 H   0  0  0  0  0  0  0  0  0  0  0  0
   58.7298   30.2080   45.8776 H   0  0  0  0  0  0  0  0  0  0  0  0
   60.2480   30.1753   47.8550 H   0  0  0  0  0  0  0  0  0  0  0  0
   61.2820   30.1645   49.3279 H   0  0  0  0  0  0  0  0  0  0  0  0
   62.0275   31.3742   51.7061 H   0  0  0  0  0  0  0  0  0  0  0  0
   63.3731   30.4255   52.4448 H   0  0  0  0  0  0  0  0  0  0  0  0
   65.1832   30.5842   51.8852 H   0  0  0  0  0  0  0  0  0  0  0  0
   65.6934   30.4863   50.1369 H   0  0  0  0  0  0  0  0  0  0  0  0
   65.1866   33.0276   51.7430 H   0  0  0  0  0  0  0  0  0  0  0  0
   66.7858   32.3641   51.2030 H   0  0  0  0  0  0  0  0  0  0  0  0
   66.3820   32.8750   49.0620 H   0  0  0  0  0  0  0  0  0  0  0  0
   63.9493   33.8792   48.5754 H   0  0  0  0  0  0  0  0  0  0  0  0
   64.5202   32.1962   48.1788 H   0  0  0  0  0  0  0  0  0  0  0  0
   63.0370   33.0283   50.7118 H   0  0  0  0  0  0  0  0  0  0  0  0
   62.3341   32.1543   49.2964 H   0  0  0  0  0  0  0  0  0  0  0  0
  1  2  1  0
  2  3  1  0
  3  4  2  0
  4  5  1  0
  5  6  2  0
  6  7  1  0
  7  8  2  0
  8  9  1  0
  9 10  2  0
 10 11  1  0
 11 12  1  0
 12 13  2  0
 12 14  1  0
 14 15  2  0
 15 16  1  0
 16 17  2  0
 17 18  1  0
 18 19  1  0
 19 20  1  0
 20 21  1  0
 21 22  1  0
 22 23  1  0
 23 24  1  0
 23 25  1  0
 25 26  1  0
 18 27  2  0
 10 28  1  0
 28 29  2  0
  6 30  1  0
 30 31  2  0
 31 32  1  0
 32 33  1  0
 33 34  1  0
 34 35  1  0
 35 36  1  0
 36 37  1  0
 37 38  1  0
 31  3  1  0
 38 33  1  0
 29  7  1  0
 27 14  1  0
 26 20  1  0
  1 39  1  0
  1 40  1  0
  1 41  1  0
  4 42  1  0
  5 43  1  0
  8 44  1  0
  9 45  1  0
 15 46  1  0
 16 47  1  0
 17 48  1  0
 19 49  1  0
 19 50  1  0
 20 51  1  0
 21 52  1  0
 21 53  1  0
 22 54  1  0
 22 55  1  0
 24 56  1  0
 24 57  1  0
 24 58  1  0
 25 59  1  0
 25 60  1  0
 26 61  1  0
 26 62  1  0
 27 63  1  0
 28 64  1  0
 29 65  1  0
 30 66  1  0
 32 67  1  0
 32 68  1  0
 34 69  1  0
 34 70  1  0
 35 71  1  0
 35 72  1  0
 36 73  1  0
 37 74  1  0
 37 75  1  0
 38 76  1  0
 38 77  1  0
M  CHG  2  11  -1  20   1
M  END
>  <UniqueID>  (19) 
18

>  <SMILES>  (19) 
COc1ccc(-c2ccc([N-]C(=O)c3cccc(C[NH+]4CCN(C)CC4)c3)cc2)cc1CN1CCNCC1

>  <Energy>  (19) 
119.38231977570969

>  <Genealogy>  (19) 
COc1ccc(-c2ccc([N-]C(=O)c3cccc(C[NH+]4CCN(C)CC4)c3)cc2)cc1CN1CCNCC1 (protonated)
COc1ccc(-c2ccc([N-]C(=O)c3cccc(C[NH+]4CCN(C)CC4)c3)cc2)cc1CN1CCNCC1 (3D coordinates assigned)
COc1ccc(-c2ccc([N-]C(=O)c3cccc(C[NH+]4CCN(C)CC4)c3)cc2)cc1CN1CCNCC1 (nonaromatic ring conformer: 119.38231977570969 kcal/mol)

>  <smiles>  (19) 
COc1ccc(-c2ccc(NC(=O)c3cccc(CN4CCN(C)CC4)c3)cc2)cc1CN1CCNCC1

>  <score_type>  (19) 
oracle

>  <origin>  (19) 
adg

>  <m_score__min__energy>  (19) 
-9.2899999999999991

>  <m_primary>  (19) 
energy

$$$$
19:0
     RDKit          3D

 63 66  0  0  0  0  0  0  0  0999 V2000
   55.9900   29.9310   45.1170 O   0  0  0  0  0  0  0  0  0  0  0  0
   56.6210   28.8500   45.2530 C   0  0  0  0  0  0  0  0  0  0  0  0
   58.1150   28.8060   45.1070 C   0  0  0  0  0  0  0  0  0  0  0  0
   58.8190   28.5530   46.4170 C   0  0  0  0  0  0  0  0  0  0  0  0
   59.4500   27.3190   46.6510 C   0  0  0  0  0  0  0  0  0  0  0  0
   60.1050   27.0860   47.8620 C   0  0  0  0  0  0  0  0  0  0  0  0
   60.1320   28.0740   48.8520 C   0  0  0  0  0  0  0  0  0  0  0  0
   59.4980   29.3070   48.6370 C   0  0  0  0  0  0  0  0  0  0  0  0
   59.4390   30.3400   49.6960 C   0  0  0  0  0  0  0  0  0  0  0  0
   58.3110   30.5570   50.2280 O   0  0  0  0  0  0  0  0  0  0  0  0
   60.6250   31.0330   50.1880 N   0  0  0  0  0  0  0  0  0  0  0  0
   60.3420   32.4550   50.5080 C   0  0  0  0  0  0  0  0  0  0  0  0
   59.9880   33.2700   49.2480 C   0  0  0  0  0  0  0  0  0  0  0  0
   60.9880   33.0660   48.1940 N   0  0  0  0  0  0  0  0  0  0  0  0
   61.1920   34.0750   47.1880 C   0  0  0  0  0  0  0  0  0  0  0  0
   62.3410   34.2290   46.6890 O   0  0  0  0  0  0  0  0  0  0  0  0
   60.0600   34.9320   46.6880 C   0  0  0  0  0  0  0  0  0  0  0  0
   59.0930   34.1070   45.8840 C   0  0  0  0  0  0  0  0  0  0  0  0
   59.2800   33.9390   44.5030 C   0  0  0  0  0  0  0  0  0  0  0  0
   58.3910   33.1540   43.7620 C   0  0  0  0  0  0  0  0  0  0  0  0
   57.3130   32.5270   44.3990 C   0  0  0  0  0  0  0  0  0  0  0  0
   57.1270   32.6800   45.7770 C   0  0  0  0  0  0  0  0  0  0  0  0
   58.0140   33.4670   46.5190 C   0  0  0  0  0  0  0  0  0  0  0  0
   61.4970   31.7110   47.9390 C   0  0  0  0  0  0  0  0  0  0  0  0
   61.7770   30.9720   49.2560 C   0  0  0  0  0  0  0  0  0  0  0  0
   58.8480   29.5420   47.4150 C   0  0  0  0  0  0  0  0  0  0  0  0
   55.9230   27.6460   45.5770 N   0  0  0  0  0  0  0  0  0  0  0  0
   56.4990   26.5500   46.3540 C   0  0  0  0  0  0  0  0  0  0  0  0
   56.3460   25.2600   45.5930 C   0  0  0  0  0  0  0  0  0  0  0  0
   57.4910   24.5730   45.1480 C   0  0  0  0  0  0  0  0  0  0  0  0
   57.3630   23.3970   44.4010 C   0  0  0  0  0  0  0  0  0  0  0  0
   56.0960   22.9080   44.0700 C   0  0  0  0  0  0  0  0  0  0  0  0
   54.9520   23.5890   44.4970 C   0  0  0  0  0  0  0  0  0  0  0  0
   55.0710   24.7600   45.2560 C   0  0  0  0  0  0  0  0  0  0  0  0
   53.9470   25.4040   45.6580 F   0  0  0  0  0  0  0  0  0  0  0  0
   58.3768   28.0005   44.4051 H   0  0  0  0  0  0  0  0  0  0  0  0
   58.4426   29.7889   44.7373 H   0  0  0  0  0  0  0  0  0  0  0  0
   59.4278   26.5357   45.8790 H   0  0  0  0  0  0  0  0  0  0  0  0
   60.6022   26.1208   48.0384 H   0  0  0  0  0  0  0  0  0  0  0  0
   60.6521   27.8835   49.8024 H   0  0  0  0  0  0  0  0  0  0  0  0
   60.9090   30.5610   51.0770 H   0  0  0  0  0  0  0  0  0  0  0  0
   59.4959   32.4998   51.2095 H   0  0  0  0  0  0  0  0  0  0  0  0
   61.2493   32.8910   50.9515 H   0  0  0  0  0  0  0  0  0  0  0  0
   59.0033   32.9497   48.8769 H   0  0  0  0  0  0  0  0  0  0  0  0
   59.9702   34.3373   49.5135 H   0  0  0  0  0  0  0  0  0  0  0  0
   59.5330   35.3735   47.5467 H   0  0  0  0  0  0  0  0  0  0  0  0
   60.4701   35.7263   46.0470 H   0  0  0  0  0  0  0  0  0  0  0  0
   60.1291   34.4267   44.0017 H   0  0  0  0  0  0  0  0  0  0  0  0
   58.5385   33.0291   42.6791 H   0  0  0  0  0  0  0  0  0  0  0  0
   56.6114   31.9133   43.8149 H   0  0  0  0  0  0  0  0  0  0  0  0
   56.2834   32.1816   46.2770 H   0  0  0  0  0  0  0  0  0  0  0  0
   57.8669   33.5856   47.6027 H   0  0  0  0  0  0  0  0  0  0  0  0
   60.7482   31.1479   47.3626 H   0  0  0  0  0  0  0  0  0  0  0  0
   62.4377   31.7902   47.3744 H   0  0  0  0  0  0  0  0  0  0  0  0
   61.9954   29.9176   49.0311 H   0  0  0  0  0  0  0  0  0  0  0  0
   62.6323   31.4626   49.7435 H   0  0  0  0  0  0  0  0  0  0  0  0
   58.3565   30.5099   47.2369 H   0  0  0  0  0  0  0  0  0  0  0  0
   57.5667   26.7472   46.5302 H   0  0  0  0  0  0  0  0  0  0  0  0
   55.9764   26.4705   47.3187 H   0  0  0  0  0  0  0  0  0  0  0  0
   58.4912   24.9625   45.3887 H   0  0  0  0  0  0  0  0  0  0  0  0
   58.2625   22.8553   44.0730 H   0  0  0  0  0  0  0  0  0  0  0  0
   55.9991   21.9884   43.4742 H   0  0  0  0  0  0  0  0  0  0  0  0
   53.9553   23.2038   44.2360 H   0  0  0  0  0  0  0  0  0  0  0  0
  1  2  2  0
  2  3  1  0
  3  4  1  0
  4  5  2  0
  5  6  1  0
  6  7  2  0
  7  8  1  0
  8  9  1  0
  9 10  2  0
  9 11  1  0
 11 12  1  0
 12 13  1  0
 13 14  1  0
 14 15  1  0
 15 16  2  0
 15 17  1  0
 17 18  1  0
 18 19  2  0
 19 20  1  0
 20 21  2  0
 21 22  1  0
 22 23  2  0
 14 24  1  0
 24 25  1  0
  8 26  2  0
  2 27  1  0
 27 28  1  0
 28 29  1  0
 29 30  2  0
 30 31  1  0
 31 32  2  0
 32 33  1  0
 33 34  2  0
 34 35  1  0
 26  4  1  0
 34 29  1  0
 25 11  1  0
 23 18  1  0
  3 36  1  0
  3 37  1  0
  5 38  1  0
  6 39  1  0
  7 40  1  0
 11 41  1  0
 12 42  1  0
 12 43  1  0
 13 44  1  0
 13 45  1  0
 17 46  1  0
 17 47  1  0
 19 48  1  0
 20 49  1  0
 21 50  1  0
 22 51  1  0
 23 52  1  0
 24 53  1  0
 24 54  1  0
 25 55  1  0
 25 56  1  0
 26 57  1  0
 28 58  1  0
 28 59  1  0
 30 60  1  0
 31 61  1  0
 32 62  1  0
 33 63  1  0
M  CHG  2  11   1  27  -1
M  END
>  <UniqueID>  (20) 
19

>  <SMILES>  (20) 
O=C(Cc1cccc(C(=O)[NH+]2CCN(C(=O)Cc3ccccc3)CC2)c1)[N-]Cc1ccccc1F

>  <Energy>  (20) 
78.88904168917027

>  <Genealogy>  (20) 
O=C(Cc1cccc(C(=O)[NH+]2CCN(C(=O)Cc3ccccc3)CC2)c1)[N-]Cc1ccccc1F (protonated)
O=C(Cc1cccc(C(=O)[NH+]2CCN(C(=O)Cc3ccccc3)CC2)c1)[N-]Cc1ccccc1F (3D coordinates assigned)
O=C(Cc1cccc(C(=O)[NH+]2CCN(C(=O)Cc3ccccc3)CC2)c1)[N-]Cc1ccccc1F (nonaromatic ring conformer: 78.88904168917027 kcal/mol)

>  <smiles>  (20) 
O=C(Cc1cccc(C(=O)N2CCN(C(=O)Cc3ccccc3)CC2)c1)NCc1ccccc1F

>  <score_type>  (20) 
oracle

>  <origin>  (20) 
adg

>  <m_score__min__energy>  (20) 
-10.52

>  <m_primary>  (20) 
energy

$$$$
20:0
     RDKit          3D

 40 42  0  0  0  0  0  0  0  0999 V2000
   59.1360   35.0550   47.9070 N   0  0  0  0  0  0  0  0  0  0  0  0
   60.4230   34.4410   47.7730 C   0  0  0  0  0  0  0  0  0  0  0  0
   61.2200   34.2560   48.9130 C   0  0  0  0  0  0  0  0  0  0  0  0
   62.4810   33.6660   48.8070 C   0  0  0  0  0  0  0  0  0  0  0  0
   62.9610   33.2650   47.5600 C   0  0  0  0  0  0  0  0  0  0  0  0
   62.1780   33.4420   46.4170 C   0  0  0  0  0  0  0  0  0  0  0  0
   60.8940   34.0120   46.5150 C   0  0  0  0  0  0  0  0  0  0  0  0
   60.0820   34.2260   45.3480 N   0  0  0  0  0  0  0  0  0  0  0  0
   58.6750   33.9770   45.2240 C   0  0  0  0  0  0  0  0  0  0  0  0
   57.8660   34.9420   45.1530 O   0  0  0  0  0  0  0  0  0  0  0  0
   58.1740   32.5860   45.1220 C   0  0  0  0  0  0  0  0  0  0  0  0
   58.4150   31.6610   46.1550 C   0  0  0  0  0  0  0  0  0  0  0  0
   57.9430   30.3490   46.0560 C   0  0  0  0  0  0  0  0  0  0  0  0
   57.2370   29.9320   44.9230 C   0  0  0  0  0  0  0  0  0  0  0  0
   56.7610   28.5790   44.8620 N   0  0  0  0  0  0  0  0  0  0  0  0
   57.5620   27.4080   44.6560 C   0  0  0  0  0  0  0  0  0  0  0  0
   58.3980   27.4070   43.7130 O   0  0  0  0  0  0  0  0  0  0  0  0
   57.4110   26.1910   45.4880 C   0  0  0  0  0  0  0  0  0  0  0  0
   58.4870   25.2980   45.6140 C   0  0  0  0  0  0  0  0  0  0  0  0
   58.3640   24.1570   46.4050 C   0  0  0  0  0  0  0  0  0  0  0  0
   57.1570   23.9040   47.0600 C   0  0  0  0  0  0  0  0  0  0  0  0
   57.0290   22.8820   47.7830 O   0  0  0  0  0  0  0  0  0  0  0  0
   56.1140   24.7640   46.9130 N   0  0  0  0  0  0  0  0  0  0  0  0
   56.2030   25.8850   46.1460 C   0  0  0  0  0  0  0  0  0  0  0  0
   55.0880   26.7060   46.0060 O   0  0  0  0  0  0  0  0  0  0  0  0
   56.9710   30.8570   43.9000 C   0  0  0  0  0  0  0  0  0  0  0  0
   57.4420   32.1700   43.9960 C   0  0  0  0  0  0  0  0  0  0  0  0
   58.8690   35.5900   48.7640 H   0  0  0  0  0  0  0  0  0  0  0  0
   58.4280   34.9790   47.1430 H   0  0  0  0  0  0  0  0  0  0  0  0
   60.8487   34.5781   49.8971 H   0  0  0  0  0  0  0  0  0  0  0  0
   63.0960   33.5174   49.7068 H   0  0  0  0  0  0  0  0  0  0  0  0
   63.9583   32.8084   47.4767 H   0  0  0  0  0  0  0  0  0  0  0  0
   62.5664   33.1345   45.4349 H   0  0  0  0  0  0  0  0  0  0  0  0
   58.9788   31.9727   47.0466 H   0  0  0  0  0  0  0  0  0  0  0  0
   58.1283   29.6390   46.8755 H   0  0  0  0  0  0  0  0  0  0  0  0
   59.4309   25.4996   45.0863 H   0  0  0  0  0  0  0  0  0  0  0  0
   59.2100   23.4622   46.5123 H   0  0  0  0  0  0  0  0  0  0  0  0
   55.1460   27.5830   45.5040 H   0  0  0  0  0  0  0  0  0  0  0  0
   56.3895   30.5470   43.0193 H   0  0  0  0  0  0  0  0  0  0  0  0
   57.2382   32.8834   43.1839 H   0  0  0  0  0  0  0  0  0  0  0  0
  1  2  1  0
  2  3  2  0
  3  4  1  0
  4  5  2  0
  5  6  1  0
  6  7  2  0
  7  8  1  0
  8  9  1  0
  9 10  2  0
  9 11  1  0
 11 12  2  0
 12 13  1  0
 13 14  2  0
 14 15  1  0
 15 16  1  0
 16 17  2  0
 16 18  1  0
 18 19  1  0
 19 20  2  0
 20 21  1  0
 21 22  2  0
 21 23  1  0
 23 24  1  0
 24 25  1  0
 14 26  1  0
 26 27  2  0
  7  2  1  0
 27 11  1  0
 24 18  2  0
  1 28  1  0
  1 29  1  0
  3 30  1  0
  4 31  1  0
  5 32  1  0
  6 33  1  0
 12 34  1  0
 13 35  1  0
 19 36  1  0
 20 37  1  0
 25 38  1  0
 26 39  1  0
 27 40  1  0
M  CHG  3   8  -1  15  -1  23  -1
M  END
>  <UniqueID>  (21) 
20

>  <SMILES>  (21) 
Nc1ccccc1[N-]C(=O)c1ccc([N-]C(=O)c2ccc(=O)[n-]c2O)cc1

>  <Energy>  (21) 
55.843783709476384

>  <Genealogy>  (21) 
Nc1ccccc1[N-]C(=O)c1ccc([N-]C(=O)c2ccc(=O)[n-]c2O)cc1 (protonated)
Nc1ccccc1[N-]C(=O)c1ccc([N-]C(=O)c2ccc(=O)[n-]c2O)cc1 (3D coordinates assigned)
Nc1ccccc1[N-]C(=O)c1ccc([N-]C(=O)c2ccc(=O)[n-]c2O)cc1 (optimized conformer: 55.843783709476384 kcal/mol)

>  <smiles>  (21) 
Nc1ccccc1NC(=O)c1ccc(NC(=O)c2ccc(=O)[nH]c2O)cc1

>  <score_type>  (21) 
oracle

>  <origin>  (21) 
adg

>  <m_score__min__energy>  (21) 
-13.26

>  <m_primary>  (21) 
energy

$$$$
21:0
     RDKit          3D

 77 82  0  0  0  0  0  0  0  0999 V2000
   56.4760   32.3410   52.2510 O   0  0  0  0  0  0  0  0  0  0  0  0
   57.0800   31.2340   52.2940 C   0  0  0  0  0  0  0  0  0  0  0  0
   56.3500   30.0040   52.1910 N   0  0  0  0  0  0  0  0  0  0  0  0
   54.9230   29.8470   52.1580 C   0  0  0  0  0  0  0  0  0  0  0  0
   54.1580   30.8410   51.5390 C   0  0  0  0  0  0  0  0  0  0  0  0
   52.7660   30.7540   51.5360 C   0  0  0  0  0  0  0  0  0  0  0  0
   52.1470   29.6730   52.1720 C   0  0  0  0  0  0  0  0  0  0  0  0
   52.8980   28.7270   52.7960 N   0  0  0  0  0  0  0  0  0  0  0  0
   54.2560   28.7910   52.8130 C   0  0  0  0  0  0  0  0  0  0  0  0
   58.5410   31.1960   52.5490 C   0  0  0  0  0  0  0  0  0  0  0  0
   58.9990   30.4510   53.6500 C   0  0  0  0  0  0  0  0  0  0  0  0
   60.3650   30.2810   53.8780 C   0  0  0  0  0  0  0  0  0  0  0  0
   61.2870   30.8430   53.0050 C   0  0  0  0  0  0  0  0  0  0  0  0
   60.8580   31.6190   51.9260 C   0  0  0  0  0  0  0  0  0  0  0  0
   59.4870   31.8560   51.7090 C   0  0  0  0  0  0  0  0  0  0  0  0
   59.0420   32.7550   50.5670 C   0  0  0  0  0  0  0  0  0  0  0  0
   59.0370   32.0720   49.2540 N   0  0  0  0  0  0  0  0  0  0  0  0
   59.0440   30.6390   49.3200 C   0  0  0  0  0  0  0  0  0  0  0  0
   58.1380   30.0410   49.9610 O   0  0  0  0  0  0  0  0  0  0  0  0
   60.0180   29.8680   48.4750 C   0  0  1  0  0  0  0  0  0  0  0  0
   59.5330   29.5160   47.0640 C   0  0  0  0  0  0  0  0  0  0  0  0
   60.3410   28.7060   46.2390 C   0  0  0  0  0  0  0  0  0  0  0  0
   59.9260   28.3490   44.9560 C   0  0  0  0  0  0  0  0  0  0  0  0
   58.6710   28.7370   44.4930 C   0  0  0  0  0  0  0  0  0  0  0  0
   57.8020   29.4670   45.3180 C   0  0  0  0  0  0  0  0  0  0  0  0
   56.4880   29.8310   44.8460 N   0  0  0  0  0  0  0  0  0  0  0  0
   55.5700   28.9840   44.8000 O   0  0  0  0  0  0  0  0  0  0  0  0
   56.2230   31.1220   44.4460 O   0  0  0  0  0  0  0  0  0  0  0  0
   58.2320   29.8350   46.6060 C   0  0  0  0  0  0  0  0  0  0  0  0
   61.2740   30.6840   48.5230 C   0  0  0  0  0  0  0  0  0  0  0  0
   62.1630   30.4520   49.3920 O   0  0  0  0  0  0  0  0  0  0  0  0
   61.4900   31.7070   47.5260 N   0  0  0  0  0  0  0  0  0  0  0  0
   62.8820   32.0040   47.1400 C   0  0  0  0  0  0  0  0  0  0  0  0
   63.4580   33.1670   47.9010 C   0  0  0  0  0  0  0  0  0  0  0  0
   63.5730   34.2870   47.3290 O   0  0  0  0  0  0  0  0  0  0  0  0
   63.7730   33.0460   49.3020 N   0  0  0  0  0  0  0  0  0  0  0  0
   64.6700   31.9720   49.7460 C   0  0  0  0  0  0  0  0  0  0  0  0
   64.3980   31.6110   51.2130 C   0  0  0  0  0  0  0  0  0  0  0  0
   64.3630   32.8090   52.0690 N   0  0  0  0  0  0  0  0  0  0  0  0
   63.3310   33.7490   51.6120 C   0  0  0  0  0  0  0  0  0  0  0  0
   63.6030   34.2110   50.1740 C   0  0  0  0  0  0  0  0  0  0  0  0
   60.4080   32.6150   47.1770 C   0  0  0  0  0  0  0  0  0  0  0  0
   60.5470   33.3800   46.0000 C   0  0  0  0  0  0  0  0  0  0  0  0
   59.5280   34.2220   45.5580 C   0  0  0  0  0  0  0  0  0  0  0  0
   58.3470   34.3170   46.2800 C   0  0  0  0  0  0  0  0  0  0  0  0
   58.1890   33.6010   47.4660 C   0  0  0  0  0  0  0  0  0  0  0  0
   59.2130   32.7590   47.9710 C   0  0  0  0  0  0  0  0  0  0  0  0
   54.6555   31.6935   51.0534 H   0  0  0  0  0  0  0  0  0  0  0  0
   52.1616   31.5271   51.0389 H   0  0  0  0  0  0  0  0  0  0  0  0
   51.0503   29.5881   52.1673 H   0  0  0  0  0  0  0  0  0  0  0  0
   54.8355   28.0177   53.3386 H   0  0  0  0  0  0  0  0  0  0  0  0
   58.2721   29.9970   54.3395 H   0  0  0  0  0  0  0  0  0  0  0  0
   60.7108   29.7029   54.7476 H   0  0  0  0  0  0  0  0  0  0  0  0
   62.3625   30.6759   53.1643 H   0  0  0  0  0  0  0  0  0  0  0  0
   61.5998   32.0501   51.2376 H   0  0  0  0  0  0  0  0  0  0  0  0
   58.0232   33.1113   50.7794 H   0  0  0  0  0  0  0  0  0  0  0  0
   59.7644   33.5820   50.5020 H   0  0  0  0  0  0  0  0  0  0  0  0
   60.1729   28.8546   48.8739 H   0  0  0  0  0  0  0  0  0  0  0  0
   61.3126   28.3507   46.6128 H   0  0  0  0  0  0  0  0  0  0  0  0
   60.5916   27.7596   44.3083 H   0  0  0  0  0  0  0  0  0  0  0  0
   58.3588   28.4691   43.4728 H   0  0  0  0  0  0  0  0  0  0  0  0
   57.5447   30.3806   47.2693 H   0  0  0  0  0  0  0  0  0  0  0  0
   63.4992   31.1147   47.3355 H   0  0  0  0  0  0  0  0  0  0  0  0
   62.8820   32.2713   46.0730 H   0  0  0  0  0  0  0  0  0  0  0  0
   64.5072   31.0830   49.1190 H   0  0  0  0  0  0  0  0  0  0  0  0
   65.7099   32.3183   49.6535 H   0  0  0  0  0  0  0  0  0  0  0  0
   63.4283   31.0961   51.2800 H   0  0  0  0  0  0  0  0  0  0  0  0
   65.2132   30.9612   51.5641 H   0  0  0  0  0  0  0  0  0  0  0  0
   65.2960   33.2790   52.0270 H   0  0  0  0  0  0  0  0  0  0  0  0
   62.3502   33.2524   51.6505 H   0  0  0  0  0  0  0  0  0  0  0  0
   63.3442   34.6299   52.2706 H   0  0  0  0  0  0  0  0  0  0  0  0
   62.7545   34.8133   49.8173 H   0  0  0  0  0  0  0  0  0  0  0  0
   64.5214   34.8162   50.1546 H   0  0  0  0  0  0  0  0  0  0  0  0
   61.4786   33.3106   45.4192 H   0  0  0  0  0  0  0  0  0  0  0  0
   59.6599   34.8104   44.6380 H   0  0  0  0  0  0  0  0  0  0  0  0
   57.5321   34.9597   45.9153 H   0  0  0  0  0  0  0  0  0  0  0  0
   57.2457   33.6914   48.0246 H   0  0  0  0  0  0  0  0  0  0  0  0
  1  2  2  0
  2  3  1  0
  3  4  1  0
  4  5  2  0
  5  6  1  0
  6  7  2  0
  7  8  1  0
  8  9  2  0
  2 10  1  0
 10 11  2  0
 11 12  1  0
 12 13  2  0
 13 14  1  0
 14 15  2  0
 15 16  1  0
 16 17  1  0
 17 18  1  0
 18 19  2  0
 18 20  1  0
 20 21  1  0
 21 22  2  0
 22 23  1  0
 23 24  2  0
 24 25  1  0
 25 26  1  0
 26 27  2  0
 26 28  1  0
 25 29  2  0
 20 30  1  0
 30 31  2  0
 30 32  1  0
 32 33  1  0
 33 34  1  0
 34 35  2  0
 34 36  1  0
 36 37  1  0
 37 38  1  0
 38 39  1  0
 39 40  1  0
 40 41  1  0
 32 42  1  0
 42 43  2  0
 43 44  1  0
 44 45  2  0
 45 46  1  0
 46 47  2  0
  9  4  1  0
 15 10  1  0
 47 17  1  0
 29 21  1  0
 41 36  1  0
 47 42  1  0
  5 48  1  0
  6 49  1  0
  7 50  1  0
  9 51  1  0
 11 52  1  0
 12 53  1  0
 13 54  1  0
 14 55  1  0
 16 56  1  0
 16 57  1  0
 20 58  1  1
 22 59  1  0
 23 60  1  0
 24 61  1  0
 29 62  1  0
 33 63  1  0
 33 64  1  0
 37 65  1  0
 37 66  1  0
 38 67  1  0
 38 68  1  0
 39 69  1  0
 40 70  1  0
 40 71  1  0
 41 72  1  0
 41 73  1  0
 43 74  1  0
 44 75  1  0
 45 76  1  0
 46 77  1  0
M  CHG  3   3  -1  26   1  28  -1
M  END
>  <UniqueID>  (22) 
21

>  <SMILES>  (22) 
O=C([N-]c1cccnc1)c1ccccc1CN1C(=O)[C@@H](c2cccc([N+](=O)[O-])c2)C(=O)N(CC(=O)N2CCNCC2)c2ccccc21

>  <Energy>  (22) 
127.53020298710707

>  <Genealogy>  (22) 
O=C([N-]c1cccnc1)c1ccccc1CN1C(=O)C(c2cccc([N+](=O)[O-])c2)C(=O)N(CC(=O)N2CCNCC2)c2ccccc21 (protonated)
O=C([N-]c1cccnc1)c1ccccc1CN1C(=O)[C@@H](c2cccc([N+](=O)[O-])c2)C(=O)N(CC(=O)N2CCNCC2)c2ccccc21 (chirality)
O=C([N-]c1cccnc1)c1ccccc1CN1C(=O)[C@@H](c2cccc([N+](=O)[O-])c2)C(=O)N(CC(=O)N2CCNCC2)c2ccccc21 (3D coordinates assigned)
O=C([N-]c1cccnc1)c1ccccc1CN1C(=O)[C@@H](c2cccc([N+](=O)[O-])c2)C(=O)N(CC(=O)N2CCNCC2)c2ccccc21 (nonaromatic ring conformer: 127.53020298710707 kcal/mol)

>  <smiles>  (22) 
O=C(Nc1cccnc1)c1ccccc1CN1C(=O)C(c2cccc([N+](=O)[O-])c2)C(=O)N(CC(=O)N2CCNCC2)c2ccccc21

>  <score_type>  (22) 
oracle

>  <origin>  (22) 
adg

>  <m_score__min__energy>  (22) 
-10.470000000000001

>  <m_primary>  (22) 
energy

$$$$
22:0
     RDKit          3D

 53 55  0  0  0  0  0  0  0  0999 V2000
   57.4450   31.7070   42.1820 C   0  0  0  0  0  0  0  0  0  0  0  0
   56.6370   30.5070   42.6790 C   0  0  0  0  0  0  0  0  0  0  0  0
   56.3160   30.5980   44.1510 C   0  0  0  0  0  0  0  0  0  0  0  0
   55.2760   30.0450   44.6000 O   0  0  0  0  0  0  0  0  0  0  0  0
   57.1310   31.3580   45.0500 N   0  0  0  0  0  0  0  0  0  0  0  0
   56.8430   32.7060   45.5310 C   0  0  0  0  0  0  0  0  0  0  0  0
   58.1100   33.3970   45.9580 C   0  0  0  0  0  0  0  0  0  0  0  0
   58.7030   34.3740   45.1440 C   0  0  0  0  0  0  0  0  0  0  0  0
   59.8540   35.0420   45.5720 C   0  0  0  0  0  0  0  0  0  0  0  0
   60.4250   34.7370   46.8100 C   0  0  0  0  0  0  0  0  0  0  0  0
   59.8530   33.7510   47.6230 C   0  0  0  0  0  0  0  0  0  0  0  0
   60.5560   33.3760   49.1960 S   0  0  0  0  0  0  0  0  0  0  0  0
   61.2840   34.5910   49.7020 O   0  0  0  0  0  0  0  0  0  0  0  0
   61.5500   32.2590   49.0350 O   0  0  0  0  0  0  0  0  0  0  0  0
   59.3010   32.9240   50.3300 N   0  0  0  0  0  0  0  0  0  0  0  0
   59.4030   31.4840   50.6490 C   0  0  0  0  0  0  0  0  0  0  0  0
   58.0590   30.8870   50.9450 C   0  0  0  0  0  0  0  0  0  0  0  0
   57.3010   31.2510   51.9960 C   0  0  0  0  0  0  0  0  0  0  0  0
   56.0700   30.4740   52.2960 C   0  0  0  0  0  0  0  0  0  0  0  0
   56.1350   29.3000   53.0690 C   0  0  0  0  0  0  0  0  0  0  0  0
   54.9730   28.5700   53.3430 C   0  0  0  0  0  0  0  0  0  0  0  0
   53.7370   29.0070   52.8590 C   0  0  0  0  0  0  0  0  0  0  0  0
   52.6100   28.3010   53.1330 F   0  0  0  0  0  0  0  0  0  0  0  0
   53.6620   30.1700   52.0840 C   0  0  0  0  0  0  0  0  0  0  0  0
   54.8220   30.8980   51.8010 C   0  0  0  0  0  0  0  0  0  0  0  0
   57.7060   32.3570   52.9610 C   0  0  0  0  0  0  0  0  0  0  0  0
   58.0110   33.7490   52.3520 C   0  0  0  0  0  0  0  0  0  0  0  0
   59.3000   33.8220   51.5110 C   0  0  0  0  0  0  0  0  0  0  0  0
   58.7010   33.0790   47.1910 C   0  0  0  0  0  0  0  0  0  0  0  0
   57.8269   32.2741   43.0437 H   0  0  0  0  0  0  0  0  0  0  0  0
   58.2896   31.3533   41.5725 H   0  0  0  0  0  0  0  0  0  0  0  0
   56.7996   32.3565   41.5725 H   0  0  0  0  0  0  0  0  0  0  0  0
   55.6942   30.4579   42.1144 H   0  0  0  0  0  0  0  0  0  0  0  0
   57.2474   29.6051   42.5245 H   0  0  0  0  0  0  0  0  0  0  0  0
   56.3698   33.2846   44.7240 H   0  0  0  0  0  0  0  0  0  0  0  0
   56.1671   32.6374   46.3961 H   0  0  0  0  0  0  0  0  0  0  0  0
   58.2608   34.6150   44.1661 H   0  0  0  0  0  0  0  0  0  0  0  0
   60.3117   35.8105   44.9317 H   0  0  0  0  0  0  0  0  0  0  0  0
   61.3252   35.2722   47.1465 H   0  0  0  0  0  0  0  0  0  0  0  0
   59.8455   30.9586   49.7899 H   0  0  0  0  0  0  0  0  0  0  0  0
   60.0329   31.3738   51.5440 H   0  0  0  0  0  0  0  0  0  0  0  0
   57.6727   30.1111   50.2676 H   0  0  0  0  0  0  0  0  0  0  0  0
   57.1035   28.9545   53.4596 H   0  0  0  0  0  0  0  0  0  0  0  0
   55.0327   27.6490   53.9414 H   0  0  0  0  0  0  0  0  0  0  0  0
   52.6904   30.5115   51.6974 H   0  0  0  0  0  0  0  0  0  0  0  0
   54.7589   31.8086   51.1871 H   0  0  0  0  0  0  0  0  0  0  0  0
   56.8857   32.4837   53.6828 H   0  0  0  0  0  0  0  0  0  0  0  0
   58.6595   32.0211   53.3946 H   0  0  0  0  0  0  0  0  0  0  0  0
   57.1660   34.0322   51.7072 H   0  0  0  0  0  0  0  0  0  0  0  0
   58.1587   34.4315   53.2020 H   0  0  0  0  0  0  0  0  0  0  0  0
   59.4254   34.8566   51.1591 H   0  0  0  0  0  0  0  0  0  0  0  0
   60.1238   33.4934   52.1616 H   0  0  0  0  0  0  0  0  0  0  0  0
   58.2566   32.2962   47.8233 H   0  0  0  0  0  0  0  0  0  0  0  0
  1  2  1  0
  2  3  1  0
  3  4  2  0
  3  5  1  0
  5  6  1  0
  6  7  1  0
  7  8  2  0
  8  9  1  0
  9 10  2  0
 10 11  1  0
 11 12  1  0
 12 13  2  0
 12 14  2  0
 12 15  1  0
 15 16  1  0
 16 17  1  0
 17 18  2  0
 18 19  1  0
 19 20  2  0
 20 21  1  0
 21 22  2  0
 22 23  1  0
 22 24  1  0
 24 25  2  0
 18 26  1  0
 26 27  1  0
 27 28  1  0
 11 29  2  0
 29  7  1  0
 28 15  1  0
 25 19  1  0
  1 30  1  0
  1 31  1  0
  1 32  1  0
  2 33  1  0
  2 34  1  0
  6 35  1  0
  6 36  1  0
  8 37  1  0
  9 38  1  0
 10 39  1  0
 16 40  1  0
 16 41  1  0
 17 42  1  0
 20 43  1  0
 21 44  1  0
 24 45  1  0
 25 46  1  0
 26 47  1  0
 26 48  1  0
 27 49  1  0
 27 50  1  0
 28 51  1  0
 28 52  1  0
 29 53  1  0
M  CHG  1   5  -1
M  END
>  <UniqueID>  (23) 
22

>  <SMILES>  (23) 
CCC(=O)[N-]Cc1cccc(S(=O)(=O)N2CC=C(c3ccc(F)cc3)CCC2)c1

>  <Energy>  (23) 
64.92965584728772

>  <Genealogy>  (23) 
CCC(=O)[N-]Cc1cccc(S(=O)(=O)N2CC=C(c3ccc(F)cc3)CCC2)c1 (protonated)
CCC(=O)[N-]Cc1cccc(S(=O)(=O)N2CC=C(c3ccc(F)cc3)CCC2)c1 (3D coordinates assigned)
CCC(=O)[N-]Cc1cccc(S(=O)(=O)N2CC=C(c3ccc(F)cc3)CCC2)c1 (nonaromatic ring conformer: 64.92965584728772 kcal/mol)

>  <smiles>  (23) 
CCC(=O)NCc1cccc(S(=O)(=O)N2CC=C(c3ccc(F)cc3)CCC2)c1

>  <score_type>  (23) 
oracle

>  <origin>  (23) 
adg

>  <m_score__min__energy>  (23) 
-11.09

>  <m_primary>  (23) 
energy

$$$$
23:0
     RDKit          3D

 40 42  0  0  1  0  0  0  0  0999 V2000
   62.9220   33.0400   47.0800 C   0  0  0  0  0  0  0  0  0  0  0  0
   62.6970   31.8940   47.7070 C   0  0  0  0  0  0  0  0  0  0  0  0
   61.3530   31.3050   47.9250 C   0  0  0  0  0  0  0  0  0  0  0  0
   61.0430   30.1830   47.0950 N   0  0  0  0  0  0  0  0  0  0  0  0
   59.7960   29.8350   46.5640 C   0  0  0  0  0  0  0  0  0  0  0  0
   59.0570   28.7280   46.9390 C   0  0  0  0  0  0  0  0  0  0  0  0
   57.8290   28.4220   46.3760 C   0  0  0  0  0  0  0  0  0  0  0  0
   57.2970   29.2240   45.4080 C   0  0  0  0  0  0  0  0  0  0  0  0
   56.1050   28.9320   44.8570 N   0  0  0  0  0  0  0  0  0  0  0  0
   55.5890   29.7460   43.8920 C   0  0  0  0  0  0  0  0  0  0  0  0
   56.2740   30.8200   43.5060 N   0  0  0  0  0  0  0  0  0  0  0  0
   57.4600   31.1640   44.0130 C   0  0  0  0  0  0  0  0  0  0  0  0
   58.1520   32.1810   43.6760 N   0  0  0  0  0  0  0  0  0  0  0  0
   57.8010   33.5060   44.1140 C   0  0  0  0  0  0  0  0  0  0  0  0
   58.4390   33.8400   45.4370 C   0  0  0  0  0  0  0  0  0  0  0  0
   57.9360   33.2540   46.5990 C   0  0  0  0  0  0  0  0  0  0  0  0
   58.4660   33.5080   47.8430 C   0  0  0  0  0  0  0  0  0  0  0  0
   59.5330   34.3740   47.9450 C   0  0  0  0  0  0  0  0  0  0  0  0
   60.0280   34.6000   49.1880 F   0  0  0  0  0  0  0  0  0  0  0  0
   60.0460   34.9660   46.8090 C   0  0  0  0  0  0  0  0  0  0  0  0
   59.5030   34.7030   45.5470 C   0  0  0  0  0  0  0  0  0  0  0  0
   58.0010   30.3380   45.0050 C   0  0  0  0  0  0  0  0  0  0  0  0
   59.2200   30.6260   45.5760 C   0  0  0  0  0  0  0  0  0  0  0  0
   63.9515   33.4083   46.9598 H   0  0  0  0  0  0  0  0  0  0  0  0
   62.0792   33.6228   46.6799 H   0  0  0  0  0  0  0  0  0  0  0  0
   63.5668   31.3417   48.0922 H   0  0  0  0  0  0  0  0  0  0  0  0
   61.2884   30.9814   48.9743 H   0  0  0  0  0  0  0  0  0  0  0  0
   60.6276   32.0898   47.6645 H   0  0  0  0  0  0  0  0  0  0  0  0
   61.8590   29.5400   46.8560 H   0  0  0  0  0  0  0  0  0  0  0  0
   59.4610   28.0630   47.7165 H   0  0  0  0  0  0  0  0  0  0  0  0
   57.2803   27.5291   46.7103 H   0  0  0  0  0  0  0  0  0  0  0  0
   54.6144   29.5168   43.4363 H   0  0  0  0  0  0  0  0  0  0  0  0
   55.8570   31.4200   42.7690 H   0  0  0  0  0  0  0  0  0  0  0  0
   58.1399   34.2324   43.3607 H   0  0  0  0  0  0  0  0  0  0  0  0
   56.7089   33.5493   44.2381 H   0  0  0  0  0  0  0  0  0  0  0  0
   57.0839   32.5631   46.5175 H   0  0  0  0  0  0  0  0  0  0  0  0
   58.0458   33.0287   48.7395 H   0  0  0  0  0  0  0  0  0  0  0  0
   60.8972   35.6571   46.8974 H   0  0  0  0  0  0  0  0  0  0  0  0
   59.9237   35.1825   44.6508 H   0  0  0  0  0  0  0  0  0  0  0  0
   59.7620   31.5208   45.2359 H   0  0  0  0  0  0  0  0  0  0  0  0
  1  2  2  0
  2  3  1  0
  3  4  1  0
  4  5  1  0
  5  6  2  0
  6  7  1  0
  7  8  2  0
  8  9  1  0
  9 10  2  0
 10 11  1  0
 11 12  1  0
 12 13  2  0
 13 14  1  0
 14 15  1  0
 15 16  2  0
 16 17  1  0
 17 18  2  0
 18 19  1  0
 18 20  1  0
 20 21  2  0
 12 22  1  0
 22 23  2  0
 23  5  1  0
 22  8  1  0
 21 15  1  0
  1 24  1  0
  1 25  1  0
  2 26  1  0
  3 27  1  0
  3 28  1  0
  4 29  1  0
  6 30  1  0
  7 31  1  0
 10 32  1  0
 11 33  1  0
 14 34  1  0
 14 35  1  0
 16 36  1  0
 17 37  1  0
 20 38  1  0
 21 39  1  0
 23 40  1  0
M  END
>  <smiles>  (24) 
C=CCNc1ccc2nc[nH]c(=NCc3ccc(F)cc3)c2c1

>  <score_type>  (24) 
oracle

>  <origin>  (24) 
adg

>  <m_score__min__energy>  (24) 
-7.1299999999999999

>  <m_primary>  (24) 
energy

$$$$
24:0
     RDKit          3D

 69 72  0  0  0  0  0  0  0  0999 V2000
   59.1700   29.7330   44.5310 C   0  0  0  0  0  0  0  0  0  0  0  0
   57.7280   29.5900   44.3110 N   0  0  0  0  0  0  0  0  0  0  0  0
   57.1400   28.2520   44.1380 C   0  0  0  0  0  0  0  0  0  0  0  0
   57.4790   27.3740   45.3170 C   0  0  0  0  0  0  0  0  0  0  0  0
   58.8200   27.2500   45.7140 C   0  0  0  0  0  0  0  0  0  0  0  0
   59.1750   26.4410   46.8020 C   0  0  0  0  0  0  0  0  0  0  0  0
   60.6220   26.3040   47.1870 C   0  0  0  0  0  0  0  0  0  0  0  0
   61.0980   27.5130   47.7780 O   0  0  0  0  0  0  0  0  0  0  0  0
   60.5400   28.1470   48.9000 C   0  0  0  0  0  0  0  0  0  0  0  0
   59.6650   29.2180   48.6840 C   0  0  0  0  0  0  0  0  0  0  0  0
   59.1080   29.9110   49.7640 C   0  0  0  0  0  0  0  0  0  0  0  0
   59.4100   29.5330   51.0830 C   0  0  0  0  0  0  0  0  0  0  0  0
   58.9030   30.2720   52.2070 N   0  0  0  0  0  0  0  0  0  0  0  0
   57.5630   30.7770   52.2970 C   0  0  0  0  0  0  0  0  0  0  0  0
   56.6340   30.2480   51.6270 O   0  0  0  0  0  0  0  0  0  0  0  0
   57.2650   31.9630   53.1620 C   0  0  0  0  0  0  0  0  0  0  0  0
   57.5170   33.2560   52.3810 C   0  0  0  0  0  0  0  0  0  0  0  0
   58.9480   33.3310   51.9220 C   0  0  0  0  0  0  0  0  0  0  0  0
   59.2590   33.2790   50.5510 C   0  0  0  0  0  0  0  0  0  0  0  0
   60.5910   33.3240   50.1310 C   0  0  0  0  0  0  0  0  0  0  0  0
   61.6220   33.4130   51.0710 C   0  0  0  0  0  0  0  0  0  0  0  0
   61.3210   33.4520   52.4360 C   0  0  0  0  0  0  0  0  0  0  0  0
   59.9890   33.4080   52.8610 C   0  0  0  0  0  0  0  0  0  0  0  0
   60.2880   28.4610   51.2990 C   0  0  0  0  0  0  0  0  0  0  0  0
   60.8410   27.7650   50.2200 C   0  0  0  0  0  0  0  0  0  0  0  0
   58.1740   25.7540   47.5050 C   0  0  0  0  0  0  0  0  0  0  0  0
   56.8370   25.8780   47.1230 C   0  0  0  0  0  0  0  0  0  0  0  0
   56.4830   26.6810   46.0340 C   0  0  0  0  0  0  0  0  0  0  0  0
   55.1440   26.7740   45.6700 O   0  0  0  0  0  0  0  0  0  0  0  0
   56.9060   30.7760   44.3810 C   0  0  0  0  0  0  0  0  0  0  0  0
   55.7310   30.6880   44.8330 O   0  0  0  0  0  0  0  0  0  0  0  0
   57.4030   32.1230   43.9260 C   0  0  0  0  0  0  0  0  0  0  0  0
   57.9750   32.8950   45.0840 C   0  0  0  0  0  0  0  0  0  0  0  0
   58.7270   34.0610   44.8500 C   0  0  0  0  0  0  0  0  0  0  0  0
   59.2720   34.7750   45.9230 C   0  0  0  0  0  0  0  0  0  0  0  0
   59.0830   34.3220   47.2330 C   0  0  0  0  0  0  0  0  0  0  0  0
   58.3510   33.1560   47.4710 C   0  0  0  0  0  0  0  0  0  0  0  0
   57.8010   32.4420   46.4020 C   0  0  0  0  0  0  0  0  0  0  0  0
   59.3758   29.7534   45.6114 H   0  0  0  0  0  0  0  0  0  0  0  0
   59.6968   28.8827   44.0734 H   0  0  0  0  0  0  0  0  0  0  0  0
   59.5196   30.6702   44.0734 H   0  0  0  0  0  0  0  0  0  0  0  0
   56.0469   28.3439   44.0566 H   0  0  0  0  0  0  0  0  0  0  0  0
   57.5493   27.7970   43.2240 H   0  0  0  0  0  0  0  0  0  0  0  0
   59.6018   27.7946   45.1642 H   0  0  0  0  0  0  0  0  0  0  0  0
   60.7282   25.4814   47.9096 H   0  0  0  0  0  0  0  0  0  0  0  0
   61.2125   26.0929   46.2832 H   0  0  0  0  0  0  0  0  0  0  0  0
   59.4131   29.5174   47.6559 H   0  0  0  0  0  0  0  0  0  0  0  0
   58.4295   30.7569   49.5794 H   0  0  0  0  0  0  0  0  0  0  0  0
   59.5290   30.4040   53.0360 H   0  0  0  0  0  0  0  0  0  0  0  0
   56.2122   31.9278   53.4787 H   0  0  0  0  0  0  0  0  0  0  0  0
   57.9206   31.9403   54.0450 H   0  0  0  0  0  0  0  0  0  0  0  0
   56.8546   33.2824   51.5032 H   0  0  0  0  0  0  0  0  0  0  0  0
   57.3122   34.1124   53.0402 H   0  0  0  0  0  0  0  0  0  0  0  0
   58.4517   33.2027   49.8078 H   0  0  0  0  0  0  0  0  0  0  0  0
   60.8290   33.2893   49.0576 H   0  0  0  0  0  0  0  0  0  0  0  0
   62.6693   33.4523   50.7370 H   0  0  0  0  0  0  0  0  0  0  0  0
   62.1322   33.5173   53.1761 H   0  0  0  0  0  0  0  0  0  0  0  0
   59.7561   33.4338   53.9357 H   0  0  0  0  0  0  0  0  0  0  0  0
   60.5440   28.1650   52.3270 H   0  0  0  0  0  0  0  0  0  0  0  0
   61.5144   26.9149   50.4040 H   0  0  0  0  0  0  0  0  0  0  0  0
   58.4434   25.1159   48.3595 H   0  0  0  0  0  0  0  0  0  0  0  0
   56.0569   25.3407   47.6821 H   0  0  0  0  0  0  0  0  0  0  0  0
   58.1841   31.9818   43.1645 H   0  0  0  0  0  0  0  0  0  0  0  0
   56.5589   32.6888   43.5048 H   0  0  0  0  0  0  0  0  0  0  0  0
   58.8870   34.4125   43.8200 H   0  0  0  0  0  0  0  0  0  0  0  0
   59.8491   35.6926   45.7364 H   0  0  0  0  0  0  0  0  0  0  0  0
   59.5109   34.8841   48.0761 H   0  0  0  0  0  0  0  0  0  0  0  0
   58.2071   32.7990   48.5014 H   0  0  0  0  0  0  0  0  0  0  0  0
   57.2297   31.5218   46.5940 H   0  0  0  0  0  0  0  0  0  0  0  0
  1  2  1  0
  2  3  1  0
  3  4  1  0
  4  5  2  0
  5  6  1  0
  6  7  1  0
  7  8  1  0
  8  9  1  0
  9 10  2  0
 10 11  1  0
 11 12  2  0
 12 13  1  0
 13 14  1  0
 14 15  2  0
 14 16  1  0
 16 17  1  0
 17 18  1  0
 18 19  2  0
 19 20  1  0
 20 21  2  0
 21 22  1  0
 22 23  2  0
 12 24  1  0
 24 25  2  0
  6 26  2  0
 26 27  1  0
 27 28  2  0
 28 29  1  0
  2 30  1  0
 30 31  2  0
 30 32  1  0
 32 33  1  0
 33 34  2  0
 34 35  1  0
 35 36  2  0
 36 37  1  0
 37 38  2  0
 28  4  1  0
 38 33  1  0
 25  9  1  0
 23 18  1  0
  1 39  1  0
  1 40  1  0
  1 41  1  0
  3 42  1  0
  3 43  1  0
  5 44  1  0
  7 45  1  0
  7 46  1  0
 10 47  1  0
 11 48  1  0
 13 49  1  0
 16 50  1  0
 16 51  1  0
 17 52  1  0
 17 53  1  0
 19 54  1  0
 20 55  1  0
 21 56  1  0
 22 57  1  0
 23 58  1  0
 24 59  1  0
 25 60  1  0
 26 61  1  0
 27 62  1  0
 32 63  1  0
 32 64  1  0
 34 65  1  0
 35 66  1  0
 36 67  1  0
 37 68  1  0
 38 69  1  0
M  CHG  1  29  -1
M  END
>  <UniqueID>  (25) 
23

>  <SMILES>  (25) 
CN(Cc1cc(COc2ccc(NC(=O)CCc3ccccc3)cc2)ccc1[O-])C(=O)Cc1ccccc1

>  <Energy>  (25) 
72.27200422459946

>  <Genealogy>  (25) 
CN(Cc1cc(COc2ccc(NC(=O)CCc3ccccc3)cc2)ccc1[O-])C(=O)Cc1ccccc1 (protonated)
CN(Cc1cc(COc2ccc(NC(=O)CCc3ccccc3)cc2)ccc1[O-])C(=O)Cc1ccccc1 (3D coordinates assigned)
CN(Cc1cc(COc2ccc(NC(=O)CCc3ccccc3)cc2)ccc1[O-])C(=O)Cc1ccccc1 (optimized conformer: 72.27200422459946 kcal/mol)

>  <smiles>  (25) 
CN(Cc1cc(COc2ccc(NC(=O)CCc3ccccc3)cc2)ccc1O)C(=O)Cc1ccccc1

>  <score_type>  (25) 
oracle

>  <origin>  (25) 
adg

>  <m_score__min__energy>  (25) 
-13.289999999999999

>  <m_primary>  (25) 
energy

$$$$
25:0
     RDKit          3D

 36 38  0  0  0  0  0  0  0  0999 V2000
   60.6790   27.2130   45.9900 O   0  0  0  0  0  0  0  0  0  0  0  0
   59.4240   27.1170   46.0240 C   0  0  0  0  0  0  0  0  0  0  0  0
   58.7920   25.8720   46.4970 C   0  0  0  0  0  0  0  0  0  0  0  0
   57.4610   25.7600   46.5110 C   0  0  0  0  0  0  0  0  0  0  0  0
   56.6140   26.8790   46.0520 C   0  0  0  0  0  0  0  0  0  0  0  0
   55.3670   26.7190   45.9720 O   0  0  0  0  0  0  0  0  0  0  0  0
   57.2450   28.1630   45.6430 C   0  0  0  0  0  0  0  0  0  0  0  0
   56.4630   29.2850   45.2050 N   0  0  0  0  0  0  0  0  0  0  0  0
   56.9280   30.3690   44.6550 C   0  0  0  0  0  0  0  0  0  0  0  0
   56.9230   30.5260   43.3020 N   0  0  0  0  0  0  0  0  0  0  0  0
   57.3820   31.6640   42.7230 C   0  0  0  0  0  0  0  0  0  0  0  0
   57.3660   31.7790   41.4700 O   0  0  0  0  0  0  0  0  0  0  0  0
   57.8640   32.7020   43.5170 C   0  0  0  0  0  0  0  0  0  0  0  0
   57.8560   32.5390   44.9080 C   0  0  0  0  0  0  0  0  0  0  0  0
   58.3190   33.6540   45.8060 C   0  0  0  0  0  0  0  0  0  0  0  0
   58.5800   33.0500   47.5100 S   0  0  0  0  0  0  0  0  0  0  0  0
   60.3620   32.8900   47.3510 C   0  0  0  0  0  0  0  0  0  0  0  0
   61.1210   33.9530   46.8450 C   0  0  0  0  0  0  0  0  0  0  0  0
   62.5090   33.8290   46.7310 C   0  0  0  0  0  0  0  0  0  0  0  0
   63.1420   32.6420   47.1180 C   0  0  0  0  0  0  0  0  0  0  0  0
   62.3840   31.5780   47.6140 C   0  0  0  0  0  0  0  0  0  0  0  0
   60.9950   31.6980   47.7270 C   0  0  0  0  0  0  0  0  0  0  0  0
   57.3830   31.3800   45.4480 N   0  0  0  0  0  0  0  0  0  0  0  0
   58.5820   28.2500   45.5960 C   0  0  0  0  0  0  0  0  0  0  0  0
   59.4173   25.0341   46.8389 H   0  0  0  0  0  0  0  0  0  0  0  0
   56.9937   24.8297   46.8662 H   0  0  0  0  0  0  0  0  0  0  0  0
   58.2425   33.6291   43.0617 H   0  0  0  0  0  0  0  0  0  0  0  0
   59.2652   34.0597   45.4185 H   0  0  0  0  0  0  0  0  0  0  0  0
   57.5455   34.4359   45.8241 H   0  0  0  0  0  0  0  0  0  0  0  0
   60.6250   34.8854   46.5373 H   0  0  0  0  0  0  0  0  0  0  0  0
   63.1045   34.6655   46.3366 H   0  0  0  0  0  0  0  0  0  0  0  0
   64.2345   32.5469   47.0318 H   0  0  0  0  0  0  0  0  0  0  0  0
   62.8806   30.6442   47.9162 H   0  0  0  0  0  0  0  0  0  0  0  0
   60.3997   30.8565   48.1111 H   0  0  0  0  0  0  0  0  0  0  0  0
   57.3660   31.2660   46.4880 H   0  0  0  0  0  0  0  0  0  0  0  0
   59.0555   29.1749   45.2349 H   0  0  0  0  0  0  0  0  0  0  0  0
  1  2  2  0
  2  3  1  0
  3  4  2  0
  4  5  1  0
  5  6  2  0
  5  7  1  0
  7  8  1  0
  8  9  2  3
  9 10  1  0
 10 11  1  0
 11 12  2  0
 11 13  1  0
 13 14  2  0
 14 15  1  0
 15 16  1  0
 16 17  1  0
 17 18  2  0
 18 19  1  0
 19 20  2  0
 20 21  1  0
 21 22  2  0
 14 23  1  0
  7 24  2  0
 24  2  1  0
 23  9  1  0
 22 17  1  0
  3 25  1  0
  4 26  1  0
 13 27  1  0
 15 28  1  0
 15 29  1  0
 18 30  1  0
 19 31  1  0
 20 32  1  0
 21 33  1  0
 22 34  1  0
 23 35  1  0
 24 36  1  0
M  CHG  1  10  -1
M  END
>  <UniqueID>  (26) 
24

>  <SMILES>  (26) 
O=C1C=CC(=O)C(N=c2[n-]c(=O)cc(CSc3ccccc3)[nH]2)=C1

>  <Energy>  (26) 
38.83289942304128

>  <Genealogy>  (26) 
O=C1C=CC(=O)C(N=c2[n-]c(=O)cc(CSc3ccccc3)[nH]2)=C1 (protonated)
O=C1C=CC(=O)C(N=c2[n-]c(=O)cc(CSc3ccccc3)[nH]2)=C1 (3D coordinates assigned)
O=C1C=CC(=O)C(N=c2[n-]c(=O)cc(CSc3ccccc3)[nH]2)=C1 (nonaromatic ring conformer: 38.83289942304128 kcal/mol)

>  <smiles>  (26) 
O=C1C=CC(=O)C(N=c2[nH]c(CSc3ccccc3)cc(=O)[nH]2)=C1

>  <score_type>  (26) 
oracle

>  <origin>  (26) 
adg

>  <m_score__min__energy>  (26) 
-10.31

>  <m_primary>  (26) 
energy

$$$$
26:0
     RDKit          3D

 57 60  0  0  0  0  0  0  0  0999 V2000
   60.1520   26.9720   46.3020 C   0  0  0  0  0  0  0  0  0  0  0  0
   59.3010   27.8200   45.7030 C   0  0  0  0  0  0  0  0  0  0  0  0
   58.2680   27.4780   44.8160 C   0  0  0  0  0  0  0  0  0  0  0  0
   57.6910   26.2910   44.5460 C   0  0  0  0  0  0  0  0  0  0  0  0
   57.1450   25.3550   45.5450 C   0  0  0  0  0  0  0  0  0  0  0  0
   57.7690   24.2390   45.9690 N   0  0  0  0  0  0  0  0  0  0  0  0
   56.9770   23.7950   46.9660 C   0  0  0  0  0  0  0  0  0  0  0  0
   57.2310   22.7490   47.6180 O   0  0  0  0  0  0  0  0  0  0  0  0
   55.9020   24.5700   47.2230 N   0  0  0  0  0  0  0  0  0  0  0  0
   56.0260   25.5580   46.3230 C   0  0  0  0  0  0  0  0  0  0  0  0
   55.1360   26.6230   46.2300 O   0  0  0  0  0  0  0  0  0  0  0  0
   57.8660   28.6580   44.2190 C   0  0  0  0  0  0  0  0  0  0  0  0
   58.5830   29.6710   44.8150 C   0  0  0  0  0  0  0  0  0  0  0  0
   58.4640   31.0900   44.4490 C   0  0  0  0  0  0  0  0  0  0  0  0
   58.4530   31.3950   43.2260 O   0  0  0  0  0  0  0  0  0  0  0  0
   58.3300   32.1220   45.4520 N   0  0  0  0  0  0  0  0  0  0  0  0
   58.4420   33.5340   45.0710 C   0  0  0  0  0  0  0  0  0  0  0  0
   59.7570   34.1680   45.5640 C   0  0  0  0  0  0  0  0  0  0  0  0
   59.7810   34.5990   47.0430 C   0  0  0  0  0  0  0  0  0  0  0  0
   59.2500   33.5360   48.0240 C   0  0  0  0  0  0  0  0  0  0  0  0
   57.8270   33.0630   47.6760 C   0  0  0  0  0  0  0  0  0  0  0  0
   57.8140   31.8130   46.7940 C   0  0  0  0  0  0  0  0  0  0  0  0
   59.4450   29.1720   45.7320 N   0  0  0  0  0  0  0  0  0  0  0  0
   60.4610   29.9480   46.4620 C   0  0  0  0  0  0  0  0  0  0  0  0
   60.1810   29.9710   47.9440 C   0  0  0  0  0  0  0  0  0  0  0  0
   59.1050   29.4950   48.3920 O   0  0  0  0  0  0  0  0  0  0  0  0
   61.1770   30.4090   48.8740 N   0  0  0  0  0  0  0  0  0  0  0  0
   61.8300   31.6820   48.8390 C   0  0  0  0  0  0  0  0  0  0  0  0
   61.9700   32.4150   50.0240 C   0  0  0  0  0  0  0  0  0  0  0  0
   62.5780   33.6750   50.0040 C   0  0  0  0  0  0  0  0  0  0  0  0
   63.0370   34.2110   48.7990 C   0  0  0  0  0  0  0  0  0  0  0  0
   62.8700   33.4990   47.6060 C   0  0  0  0  0  0  0  0  0  0  0  0
   63.3980   34.1940   46.0840 Cl  0  0  0  0  0  0  0  0  0  0  0  0
   62.2620   32.2400   47.6250 C   0  0  0  0  0  0  0  0  0  0  0  0
   60.9259   27.3581   46.9817 H   0  0  0  0  0  0  0  0  0  0  0  0
   60.0754   25.8910   46.1131 H   0  0  0  0  0  0  0  0  0  0  0  0
   57.6214   25.9948   43.4889 H   0  0  0  0  0  0  0  0  0  0  0  0
   54.3640   26.7260   46.8750 H   0  0  0  0  0  0  0  0  0  0  0  0
   57.1169   28.7668   43.4208 H   0  0  0  0  0  0  0  0  0  0  0  0
   58.4020   33.6091   43.9743 H   0  0  0  0  0  0  0  0  0  0  0  0
   57.6087   34.0773   45.5405 H   0  0  0  0  0  0  0  0  0  0  0  0
   60.5626   33.4343   45.4133 H   0  0  0  0  0  0  0  0  0  0  0  0
   59.8792   35.0931   44.9815 H   0  0  0  0  0  0  0  0  0  0  0  0
   60.8207   34.8312   47.3169 H   0  0  0  0  0  0  0  0  0  0  0  0
   59.1112   35.4674   47.1280 H   0  0  0  0  0  0  0  0  0  0  0  0
   59.9248   32.6676   48.0007 H   0  0  0  0  0  0  0  0  0  0  0  0
   59.2119   33.9957   49.0226 H   0  0  0  0  0  0  0  0  0  0  0  0
   57.2933   32.8382   48.6112 H   0  0  0  0  0  0  0  0  0  0  0  0
   57.3397   33.8710   47.1106 H   0  0  0  0  0  0  0  0  0  0  0  0
   58.4451   31.0387   47.2547 H   0  0  0  0  0  0  0  0  0  0  0  0
   56.7782   31.4541   46.7021 H   0  0  0  0  0  0  0  0  0  0  0  0
   61.4481   29.4934   46.2919 H   0  0  0  0  0  0  0  0  0  0  0  0
   60.4368   30.9831   46.0905 H   0  0  0  0  0  0  0  0  0  0  0  0
   61.6010   31.9990   50.9731 H   0  0  0  0  0  0  0  0  0  0  0  0
   62.6945   34.2438   50.9383 H   0  0  0  0  0  0  0  0  0  0  0  0
   63.5304   35.1941   48.7876 H   0  0  0  0  0  0  0  0  0  0  0  0
   62.1216   31.6848   46.6858 H   0  0  0  0  0  0  0  0  0  0  0  0
  1  2  2  0
  2  3  1  0
  3  4  2  3
  4  5  1  0
  5  6  1  0
  6  7  1  0
  7  8  2  0
  7  9  1  0
  9 10  1  0
 10 11  1  0
  3 12  1  0
 12 13  2  0
 13 14  1  0
 14 15  2  0
 14 16  1  0
 16 17  1  0
 17 18  1  0
 18 19  1  0
 19 20  1  0
 20 21  1  0
 21 22  1  0
 13 23  1  0
 23 24  1  0
 24 25  1  0
 25 26  2  0
 25 27  1  0
 27 28  1  0
 28 29  2  0
 29 30  1  0
 30 31  2  0
 31 32  1  0
 32 33  1  0
 32 34  2  0
 23  2  1  0
 34 28  1  0
 10  5  2  0
 22 16  1  0
  1 35  1  0
  1 36  1  0
  4 37  1  0
 11 38  1  0
 12 39  1  0
 17 40  1  0
 17 41  1  0
 18 42  1  0
 18 43  1  0
 19 44  1  0
 19 45  1  0
 20 46  1  0
 20 47  1  0
 21 48  1  0
 21 49  1  0
 22 50  1  0
 22 51  1  0
 24 52  1  0
 24 53  1  0
 29 54  1  0
 30 55  1  0
 31 56  1  0
 34 57  1  0
M  CHG  3   6  -1   9  -1  27  -1
M  END
>  <UniqueID>  (27) 
25

>  <SMILES>  (27) 
C=c1c(=Cc2[n-]c(=O)[n-]c2O)cc(C(=O)N2CCCCCC2)n1CC(=O)[N-]c1cccc(Cl)c1

>  <Energy>  (27) 
139.50223857898263

>  <Genealogy>  (27) 
C=c1c(=Cc2[n-]c(=O)[n-]c2O)cc(C(=O)N2CCCCCC2)n1CC(=O)[N-]c1cccc(Cl)c1 (protonated)
C=c1c(=Cc2[n-]c(=O)[n-]c2O)cc(C(=O)N2CCCCCC2)n1CC(=O)[N-]c1cccc(Cl)c1 (3D coordinates assigned)
C=c1c(=Cc2[n-]c(=O)[n-]c2O)cc(C(=O)N2CCCCCC2)n1CC(=O)[N-]c1cccc(Cl)c1 (nonaromatic ring conformer: 139.50223857898263 kcal/mol)

>  <smiles>  (27) 
C=c1c(=Cc2[nH]c(=O)[nH]c2O)cc(C(=O)N2CCCCCC2)n1CC(=O)Nc1cccc(Cl)c1

>  <score_type>  (27) 
oracle

>  <origin>  (27) 
adg

>  <m_score__min__energy>  (27) 
-13.460000000000001

>  <m_primary>  (27) 
energy

$$$$
27:0
     RDKit          3D

 37 39  0  0  0  0  0  0  0  0999 V2000
   50.0990   32.4710   54.0110 C   0  0  0  0  0  0  0  0  0  0  0  0
   50.8370   32.0420   52.9820 C   0  0  0  0  0  0  0  0  0  0  0  0
   50.7690   32.7170   51.8060 N   0  0  0  0  0  0  0  0  0  0  0  0
   51.4860   32.3280   50.7250 C   0  0  0  0  0  0  0  0  0  0  0  0
   51.3950   32.9680   49.6460 O   0  0  0  0  0  0  0  0  0  0  0  0
   52.3050   31.2490   50.8050 N   0  0  0  0  0  0  0  0  0  0  0  0
   52.4410   30.5280   51.9510 C   0  0  0  0  0  0  0  0  0  0  0  0
   53.2890   29.4790   51.9220 C   0  0  0  0  0  0  0  0  0  0  0  0
   54.5480   29.3620   52.6930 C   0  0  0  0  0  0  0  0  0  0  0  0
   55.4630   30.4270   52.7540 C   0  0  0  0  0  0  0  0  0  0  0  0
   55.1330   31.6020   52.0640 O   0  0  0  0  0  0  0  0  0  0  0  0
   56.6390   30.2890   53.4650 N   0  0  0  0  0  0  0  0  0  0  0  0
   57.6080   31.3950   53.6140 C   0  0  0  0  0  0  0  0  0  0  0  0
   58.1990   31.7800   52.2770 C   0  0  0  0  0  0  0  0  0  0  0  0
   58.3200   30.8190   51.2560 C   0  0  0  0  0  0  0  0  0  0  0  0
   58.8680   31.1670   50.0170 C   0  0  0  0  0  0  0  0  0  0  0  0
   59.2980   32.4730   49.7830 C   0  0  0  0  0  0  0  0  0  0  0  0
   59.1820   33.4370   50.7870 C   0  0  0  0  0  0  0  0  0  0  0  0
   58.6360   33.0980   52.0290 C   0  0  0  0  0  0  0  0  0  0  0  0
   58.5370   34.0560   52.9850 F   0  0  0  0  0  0  0  0  0  0  0  0
   56.9280   29.0800   54.0540 C   0  0  0  0  0  0  0  0  0  0  0  0
   58.0050   28.9130   54.6910 O   0  0  0  0  0  0  0  0  0  0  0  0
   56.0630   28.0400   53.9600 N   0  0  0  0  0  0  0  0  0  0  0  0
   54.8900   28.1510   53.2970 C   0  0  0  0  0  0  0  0  0  0  0  0
   54.1170   27.1580   53.2380 O   0  0  0  0  0  0  0  0  0  0  0  0
   51.6750   30.9100   53.0850 C   0  0  0  0  0  0  0  0  0  0  0  0
   51.7140   30.2470   54.1600 O   0  0  0  0  0  0  0  0  0  0  0  0
   50.1371   31.9407   54.9740 H   0  0  0  0  0  0  0  0  0  0  0  0
   49.4537   33.3542   53.8946 H   0  0  0  0  0  0  0  0  0  0  0  0
   53.0216   28.6361   51.2678 H   0  0  0  0  0  0  0  0  0  0  0  0
   54.3460   31.7150   51.4430 H   0  0  0  0  0  0  0  0  0  0  0  0
   57.0950   32.2673   54.0453 H   0  0  0  0  0  0  0  0  0  0  0  0
   58.4220   31.0617   54.2745 H   0  0  0  0  0  0  0  0  0  0  0  0
   57.9814   29.7876   51.4335 H   0  0  0  0  0  0  0  0  0  0  0  0
   58.9600   30.4089   49.2253 H   0  0  0  0  0  0  0  0  0  0  0  0
   59.7285   32.7438   48.8077 H   0  0  0  0  0  0  0  0  0  0  0  0
   59.5213   34.4665   50.6001 H   0  0  0  0  0  0  0  0  0  0  0  0
  1  2  2  0
  2  3  1  0
  3  4  1  0
  4  5  2  0
  4  6  1  0
  6  7  1  0
  7  8  2  3
  8  9  1  0
  9 10  2  0
 10 11  1  0
 10 12  1  0
 12 13  1  0
 13 14  1  0
 14 15  2  0
 15 16  1  0
 16 17  2  0
 17 18  1  0
 18 19  2  0
 19 20  1  0
 12 21  1  0
 21 22  2  0
 21 23  1  0
 23 24  1  0
 24 25  2  0
  7 26  1  0
 26 27  2  0
 26  2  1  0
 24  9  1  0
 19 14  1  0
  1 28  1  0
  1 29  1  0
  8 30  1  0
 11 31  1  0
 13 32  1  0
 13 33  1  0
 15 34  1  0
 16 35  1  0
 17 36  1  0
 18 37  1  0
M  CHG  3   3  -1   6  -1  23  -1
M  END
>  <UniqueID>  (28) 
26

>  <SMILES>  (28) 
C=c1[n-]c(=O)[n-]c(=Cc2c(O)n(Cc3ccccc3F)c(=O)[n-]c2=O)c1=O

>  <Energy>  (28) 
63.582474044202776

>  <Genealogy>  (28) 
C=c1[n-]c(=O)[n-]c(=Cc2c(O)n(Cc3ccccc3F)c(=O)[n-]c2=O)c1=O (protonated)
C=c1[n-]c(=O)[n-]c(=Cc2c(O)n(Cc3ccccc3F)c(=O)[n-]c2=O)c1=O (3D coordinates assigned)
C=c1[n-]c(=O)[n-]c(=Cc2c(O)n(Cc3ccccc3F)c(=O)[n-]c2=O)c1=O (optimized conformer: 63.582474044202776 kcal/mol)

>  <smiles>  (28) 
C=c1[nH]c(=O)[nH]c(=Cc2c(O)n(Cc3ccccc3F)c(=O)[nH]c2=O)c1=O

>  <score_type>  (28) 
oracle

>  <origin>  (28) 
adg

>  <m_score__min__energy>  (28) 
-13.1

>  <m_primary>  (28) 
energy

$$$$
28:0
     RDKit          3D

 67 71  0  0  0  0  0  0  0  0999 V2000
   62.3980   30.9030   50.3360 O   0  0  0  0  0  0  0  0  0  0  0  0
   61.4810   30.3050   49.7130 C   0  0  0  0  0  0  0  0  0  0  0  0
   60.5120   29.4310   50.4540 C   0  0  0  0  0  0  0  0  0  0  0  0
   59.1380   29.4370   49.7750 C   0  0  0  0  0  0  0  0  0  0  0  0
   59.2410   29.2260   48.2840 C   0  0  0  0  0  0  0  0  0  0  0  0
   58.1890   28.6220   47.5810 C   0  0  0  0  0  0  0  0  0  0  0  0
   58.2280   28.5350   46.1820 C   0  0  0  0  0  0  0  0  0  0  0  0
   56.8770   27.8420   45.2900 S   0  0  0  0  0  0  0  0  0  0  0  0
   57.3960   27.2060   44.0300 O   0  0  0  0  0  0  0  0  0  0  0  0
   56.1950   26.7840   46.1130 O   0  0  0  0  0  0  0  0  0  0  0  0
   55.7350   29.0850   44.8740 N   0  0  0  0  0  0  0  0  0  0  0  0
   56.0180   29.6500   43.5500 C   0  0  0  0  0  0  0  0  0  0  0  0
   56.8570   30.8870   43.7040 C   0  0  0  0  0  0  0  0  0  0  0  0
   57.3980   31.5270   42.5770 C   0  0  0  0  0  0  0  0  0  0  0  0
   58.1260   32.7100   42.7200 C   0  0  0  0  0  0  0  0  0  0  0  0
   58.3270   33.2620   43.9880 C   0  0  0  0  0  0  0  0  0  0  0  0
   57.8080   32.6250   45.1280 C   0  0  0  0  0  0  0  0  0  0  0  0
   58.0330   33.2010   46.4720 C   0  0  0  0  0  0  0  0  0  0  0  0
   57.0420   33.4860   47.1960 O   0  0  0  0  0  0  0  0  0  0  0  0
   59.3630   33.4530   46.9600 N   0  0  0  0  0  0  0  0  0  0  0  0
   59.7140   33.0860   48.3390 C   0  0  0  0  0  0  0  0  0  0  0  0
   60.8720   33.9430   48.8630 C   0  0  0  0  0  0  0  0  0  0  0  0
   62.1150   33.9250   47.9290 C   0  0  0  0  0  0  0  0  0  0  0  0
   63.1610   32.8740   48.3670 C   0  0  0  0  0  0  0  0  0  0  0  0
   63.9650   33.3300   49.5620 C   0  0  0  0  0  0  0  0  0  0  0  0
   63.3920   34.1700   50.5320 C   0  0  0  0  0  0  0  0  0  0  0  0
   64.1500   34.6060   51.6230 C   0  0  0  0  0  0  0  0  0  0  0  0
   65.4830   34.2050   51.7550 C   0  0  0  0  0  0  0  0  0  0  0  0
   66.0590   33.3670   50.7990 C   0  0  0  0  0  0  0  0  0  0  0  0
   65.3040   32.9280   49.7050 C   0  0  0  0  0  0  0  0  0  0  0  0
   61.7420   33.7150   46.4390 C   0  0  0  0  0  0  0  0  0  0  0  0
   60.3240   34.1960   46.1320 C   0  0  0  0  0  0  0  0  0  0  0  0
   57.0570   31.4470   44.9760 C   0  0  0  0  0  0  0  0  0  0  0  0
   59.3210   29.0650   45.4840 C   0  0  0  0  0  0  0  0  0  0  0  0
   60.3700   29.6750   46.1770 C   0  0  0  0  0  0  0  0  0  0  0  0
   60.3350   29.7620   47.5760 C   0  0  0  0  0  0  0  0  0  0  0  0
   61.4080   30.3920   48.2870 N   0  0  0  0  0  0  0  0  0  0  0  0
   60.8989   28.4015   50.4743 H   0  0  0  0  0  0  0  0  0  0  0  0
   60.3996   29.8203   51.4766 H   0  0  0  0  0  0  0  0  0  0  0  0
   58.5258   28.6311   50.2059 H   0  0  0  0  0  0  0  0  0  0  0  0
   58.6793   30.4219   49.9470 H   0  0  0  0  0  0  0  0  0  0  0  0
   57.3278   28.2139   48.1303 H   0  0  0  0  0  0  0  0  0  0  0  0
   56.5622   28.9106   42.9442 H   0  0  0  0  0  0  0  0  0  0  0  0
   55.0723   29.9074   43.0506 H   0  0  0  0  0  0  0  0  0  0  0  0
   57.2475   31.0943   41.5769 H   0  0  0  0  0  0  0  0  0  0  0  0
   58.5423   33.2087   41.8323 H   0  0  0  0  0  0  0  0  0  0  0  0
   58.8937   34.1988   44.0941 H   0  0  0  0  0  0  0  0  0  0  0  0
   58.8361   33.2356   48.9847 H   0  0  0  0  0  0  0  0  0  0  0  0
   60.0281   32.0319   48.3497 H   0  0  0  0  0  0  0  0  0  0  0  0
   60.5227   34.9814   48.9610 H   0  0  0  0  0  0  0  0  0  0  0  0
   61.1820   33.5199   49.8299 H   0  0  0  0  0  0  0  0  0  0  0  0
   62.5666   34.9234   48.0249 H   0  0  0  0  0  0  0  0  0  0  0  0
   62.6384   31.9416   48.6270 H   0  0  0  0  0  0  0  0  0  0  0  0
   63.8581   32.7232   47.5296 H   0  0  0  0  0  0  0  0  0  0  0  0
   62.3430   34.4857   50.4326 H   0  0  0  0  0  0  0  0  0  0  0  0
   63.6972   35.2652   52.3783 H   0  0  0  0  0  0  0  0  0  0  0  0
   66.0783   34.5503   52.6131 H   0  0  0  0  0  0  0  0  0  0  0  0
   67.1073   33.0512   50.9053 H   0  0  0  0  0  0  0  0  0  0  0  0
   65.7605   32.2659   48.9545 H   0  0  0  0  0  0  0  0  0  0  0  0
   62.4511   34.2761   45.8126 H   0  0  0  0  0  0  0  0  0  0  0  0
   61.7897   32.6371   46.2248 H   0  0  0  0  0  0  0  0  0  0  0  0
   60.2454   35.2704   46.3543 H   0  0  0  0  0  0  0  0  0  0  0  0
   60.1011   34.0236   45.0687 H   0  0  0  0  0  0  0  0  0  0  0  0
   56.6221   30.9595   45.8610 H   0  0  0  0  0  0  0  0  0  0  0  0
   59.3536   29.0007   44.3864 H   0  0  0  0  0  0  0  0  0  0  0  0
   61.2259   30.0882   45.6232 H   0  0  0  0  0  0  0  0  0  0  0  0
   62.1580   30.9020   47.7660 H   0  0  0  0  0  0  0  0  0  0  0  0
  1  2  2  0
  2  3  1  0
  3  4  1  0
  4  5  1  0
  5  6  2  0
  6  7  1  0
  7  8  1  0
  8  9  2  0
  8 10  2  0
  8 11  1  0
 11 12  1  0
 12 13  1  0
 13 14  2  0
 14 15  1  0
 15 16  2  0
 16 17  1  0
 17 18  1  0
 18 19  2  0
 18 20  1  0
 20 21  1  0
 21 22  1  0
 22 23  1  0
 23 24  1  0
 24 25  1  0
 25 26  2  0
 26 27  1  0
 27 28  2  0
 28 29  1  0
 29 30  2  0
 23 31  1  0
 31 32  1  0
 17 33  2  0
  7 34  2  0
 34 35  1  0
 35 36  2  0
 36 37  1  0
 37  2  1  0
 36  5  1  0
 33 13  1  0
 32 20  1  0
 30 25  1  0
  3 38  1  0
  3 39  1  0
  4 40  1  0
  4 41  1  0
  6 42  1  0
 12 43  1  0
 12 44  1  0
 14 45  1  0
 15 46  1  0
 16 47  1  0
 21 48  1  0
 21 49  1  0
 22 50  1  0
 22 51  1  0
 23 52  1  0
 24 53  1  0
 24 54  1  0
 26 55  1  0
 27 56  1  0
 28 57  1  0
 29 58  1  0
 30 59  1  0
 31 60  1  0
 31 61  1  0
 32 62  1  0
 32 63  1  0
 33 64  1  0
 34 65  1  0
 35 66  1  0
 37 67  1  0
M  CHG  1  11  -1
M  END
>  <UniqueID>  (29) 
27

>  <SMILES>  (29) 
O=C1CCc2cc(S(=O)(=O)[N-]Cc3cccc(C(=O)N4CCC(Cc5ccccc5)CC4)c3)ccc2N1

>  <Energy>  (29) 
76.04837612825142

>  <Genealogy>  (29) 
O=C1CCc2cc(S(=O)(=O)[N-]Cc3cccc(C(=O)N4CCC(Cc5ccccc5)CC4)c3)ccc2N1 (protonated)
O=C1CCc2cc(S(=O)(=O)[N-]Cc3cccc(C(=O)N4CCC(Cc5ccccc5)CC4)c3)ccc2N1 (3D coordinates assigned)
O=C1CCc2cc(S(=O)(=O)[N-]Cc3cccc(C(=O)N4CCC(Cc5ccccc5)CC4)c3)ccc2N1 (nonaromatic ring conformer: 76.04837612825142 kcal/mol)

>  <smiles>  (29) 
O=C1CCc2cc(S(=O)(=O)NCc3cccc(C(=O)N4CCC(Cc5ccccc5)CC4)c3)ccc2N1

>  <score_type>  (29) 
oracle

>  <origin>  (29) 
adg

>  <m_score__min__energy>  (29) 
-12.83

>  <m_primary>  (29) 
energy

$$$$
29:0
     RDKit          3D

 56 58  0  0  0  0  0  0  0  0999 V2000
   60.0820   33.0130   51.6540 C   0  0  0  0  0  0  0  0  0  0  0  0
   60.2180   31.7840   50.7920 C   0  0  0  0  0  0  0  0  0  0  0  0
   59.0980   31.3230   50.0770 C   0  0  0  0  0  0  0  0  0  0  0  0
   59.1900   30.1920   49.2630 C   0  0  0  0  0  0  0  0  0  0  0  0
   60.3990   29.5070   49.1530 C   0  0  0  0  0  0  0  0  0  0  0  0
   61.5160   29.9360   49.8720 C   0  0  0  0  0  0  0  0  0  0  0  0
   61.4430   31.0710   50.7000 C   0  0  0  0  0  0  0  0  0  0  0  0
   62.6790   31.5020   51.4600 C   0  0  0  0  0  0  0  0  0  0  0  0
   63.9220   31.2330   50.6990 N   0  0  0  0  0  0  0  0  0  0  0  0
   64.9770   30.7930   51.6270 C   0  0  0  0  0  0  0  0  0  0  0  0
   64.3850   32.4230   49.9460 C   0  0  0  0  0  0  0  0  0  0  0  0
   63.4730   32.7080   48.7890 C   0  0  0  0  0  0  0  0  0  0  0  0
   63.8120   32.3250   47.6360 O   0  0  0  0  0  0  0  0  0  0  0  0
   62.2290   33.3980   48.9990 N   0  0  0  0  0  0  0  0  0  0  0  0
   61.1650   33.4320   48.0330 C   0  0  0  0  0  0  0  0  0  0  0  0
   60.3060   34.5390   48.0030 C   0  0  0  0  0  0  0  0  0  0  0  0
   59.2220   34.5700   47.1230 C   0  0  0  0  0  0  0  0  0  0  0  0
   58.9960   33.5010   46.2460 C   0  0  0  0  0  0  0  0  0  0  0  0
   57.6040   33.5060   45.1680 S   0  0  0  0  0  0  0  0  0  0  0  0
   56.9410   34.8510   45.2430 O   0  0  0  0  0  0  0  0  0  0  0  0
   56.6190   32.4450   45.5740 O   0  0  0  0  0  0  0  0  0  0  0  0
   58.1040   33.2080   43.5360 N   0  0  0  0  0  0  0  0  0  0  0  0
   57.9430   31.9410   42.8850 C   0  0  0  0  0  0  0  0  0  0  0  0
   58.3210   31.8000   41.6920 O   0  0  0  0  0  0  0  0  0  0  0  0
   57.3150   30.8080   43.6050 C   0  0  0  0  0  0  0  0  0  0  0  0
   55.9720   30.4620   43.3570 C   0  0  0  0  0  0  0  0  0  0  0  0
   55.3840   29.3860   44.0310 C   0  0  0  0  0  0  0  0  0  0  0  0
   56.1280   28.6400   44.9490 C   0  0  0  0  0  0  0  0  0  0  0  0
   55.5430   27.5700   45.6140 O   0  0  0  0  0  0  0  0  0  0  0  0
   57.4600   28.9770   45.2040 C   0  0  0  0  0  0  0  0  0  0  0  0
   58.0520   30.0520   44.5350 C   0  0  0  0  0  0  0  0  0  0  0  0
   59.8840   32.4190   46.2330 C   0  0  0  0  0  0  0  0  0  0  0  0
   60.9660   32.3830   47.1160 C   0  0  0  0  0  0  0  0  0  0  0  0
   60.1142   32.7225   52.7145 H   0  0  0  0  0  0  0  0  0  0  0  0
   60.9090   33.7055   51.4383 H   0  0  0  0  0  0  0  0  0  0  0  0
   59.1236   33.5079   51.4383 H   0  0  0  0  0  0  0  0  0  0  0  0
   58.1406   31.8583   50.1597 H   0  0  0  0  0  0  0  0  0  0  0  0
   58.3074   29.8413   48.7080 H   0  0  0  0  0  0  0  0  0  0  0  0
   60.4731   28.6263   48.4981 H   0  0  0  0  0  0  0  0  0  0  0  0
   62.4624   29.3813   49.7904 H   0  0  0  0  0  0  0  0  0  0  0  0
   62.6131   32.5813   51.6620 H   0  0  0  0  0  0  0  0  0  0  0  0
   62.7215   30.9235   52.3946 H   0  0  0  0  0  0  0  0  0  0  0  0
   64.6364   30.9350   52.6633 H   0  0  0  0  0  0  0  0  0  0  0  0
   65.1957   29.7287   51.4555 H   0  0  0  0  0  0  0  0  0  0  0  0
   65.8871   31.3866   51.4555 H   0  0  0  0  0  0  0  0  0  0  0  0
   64.3974   33.2933   50.6186 H   0  0  0  0  0  0  0  0  0  0  0  0
   65.3953   32.2247   49.5587 H   0  0  0  0  0  0  0  0  0  0  0  0
   62.0020   33.6980   49.9750 H   0  0  0  0  0  0  0  0  0  0  0  0
   60.4868   35.3892   48.6771 H   0  0  0  0  0  0  0  0  0  0  0  0
   58.5438   35.4360   47.1184 H   0  0  0  0  0  0  0  0  0  0  0  0
   55.3829   31.0405   42.6301 H   0  0  0  0  0  0  0  0  0  0  0  0
   54.3327   29.1265   43.8376 H   0  0  0  0  0  0  0  0  0  0  0  0
   58.0437   28.3952   45.9326 H   0  0  0  0  0  0  0  0  0  0  0  0
   59.1023   30.3090   44.7372 H   0  0  0  0  0  0  0  0  0  0  0  0
   59.7290   31.5926   45.5237 H   0  0  0  0  0  0  0  0  0  0  0  0
   61.6639   31.5330   47.0945 H   0  0  0  0  0  0  0  0  0  0  0  0
  1  2  1  0
  2  3  2  0
  3  4  1  0
  4  5  2  0
  5  6  1  0
  6  7  2  0
  7  8  1  0
  8  9  1  0
  9 10  1  0
  9 11  1  0
 11 12  1  0
 12 13  2  0
 12 14  1  0
 14 15  1  0
 15 16  2  0
 16 17  1  0
 17 18  2  0
 18 19  1  0
 19 20  2  0
 19 21  2  0
 19 22  1  0
 22 23  1  0
 23 24  2  0
 23 25  1  0
 25 26  2  0
 26 27  1  0
 27 28  2  0
 28 29  1  0
 28 30  1  0
 30 31  2  0
 18 32  1  0
 32 33  2  0
  7  2  1  0
 33 15  1  0
 31 25  1  0
  1 34  1  0
  1 35  1  0
  1 36  1  0
  3 37  1  0
  4 38  1  0
  5 39  1  0
  6 40  1  0
  8 41  1  0
  8 42  1  0
 10 43  1  0
 10 44  1  0
 10 45  1  0
 11 46  1  0
 11 47  1  0
 14 48  1  0
 16 49  1  0
 17 50  1  0
 26 51  1  0
 27 52  1  0
 30 53  1  0
 31 54  1  0
 32 55  1  0
 33 56  1  0
M  CHG  2  22  -1  29  -1
M  END
>  <UniqueID>  (30) 
28

>  <SMILES>  (30) 
Cc1ccccc1CN(C)CC(=O)Nc1ccc(S(=O)(=O)[N-]C(=O)c2ccc([O-])cc2)cc1

>  <Energy>  (30) 
62.97814586117806

>  <Genealogy>  (30) 
Cc1ccccc1CN(C)CC(=O)Nc1ccc(S(=O)(=O)[N-]C(=O)c2ccc([O-])cc2)cc1 (protonated)
Cc1ccccc1CN(C)CC(=O)Nc1ccc(S(=O)(=O)[N-]C(=O)c2ccc([O-])cc2)cc1 (3D coordinates assigned)
Cc1ccccc1CN(C)CC(=O)Nc1ccc(S(=O)(=O)[N-]C(=O)c2ccc([O-])cc2)cc1 (optimized conformer: 62.97814586117806 kcal/mol)

>  <smiles>  (30) 
Cc1ccccc1CN(C)CC(=O)Nc1ccc(S(=O)(=O)NC(=O)c2ccc(O)cc2)cc1

>  <score_type>  (30) 
oracle

>  <origin>  (30) 
adg

>  <m_score__min__energy>  (30) 
-13.59

>  <m_primary>  (30) 
energy

$$$$
30:0
     RDKit          3D

 43 45  0  0  0  0  0  0  0  0999 V2000
   54.2560   29.4880   53.3140 O   0  0  0  0  0  0  0  0  0  0  0  0
   53.8800   30.5080   52.6770 C   0  0  0  0  0  0  0  0  0  0  0  0
   52.4460   30.9280   52.7430 C   0  0  0  0  0  0  0  0  0  0  0  0
   51.9180   31.1670   51.3630 C   0  0  0  0  0  0  0  0  0  0  0  0
   51.9370   30.2510   50.3790 N   0  0  0  0  0  0  0  0  0  0  0  0
   51.3070   30.8770   49.3610 C   0  0  0  0  0  0  0  0  0  0  0  0
   51.1260   30.3360   48.2400 O   0  0  0  0  0  0  0  0  0  0  0  0
   50.8800   32.1280   49.6410 N   0  0  0  0  0  0  0  0  0  0  0  0
   51.2700   32.2920   50.9150 C   0  0  0  0  0  0  0  0  0  0  0  0
   51.0320   33.4440   51.6550 O   0  0  0  0  0  0  0  0  0  0  0  0
   54.7930   31.2140   51.8210 N   0  0  0  0  0  0  0  0  0  0  0  0
   56.2130   30.9850   51.7920 C   0  0  0  0  0  0  0  0  0  0  0  0
   56.7810   29.8380   52.3700 C   0  0  0  0  0  0  0  0  0  0  0  0
   58.1660   29.6530   52.3500 C   0  0  0  0  0  0  0  0  0  0  0  0
   58.9980   30.6120   51.7660 C   0  0  0  0  0  0  0  0  0  0  0  0
   60.3390   30.4070   51.7630 F   0  0  0  0  0  0  0  0  0  0  0  0
   58.4450   31.7760   51.2050 C   0  0  0  0  0  0  0  0  0  0  0  0
   59.4780   33.0160   50.4840 S   0  0  0  0  0  0  0  0  0  0  0  0
   60.8760   32.4800   50.3550 O   0  0  0  0  0  0  0  0  0  0  0  0
   59.5260   34.2160   51.3890 O   0  0  0  0  0  0  0  0  0  0  0  0
   58.9010   33.5030   48.9080 N   0  0  0  0  0  0  0  0  0  0  0  0
   58.6130   32.3220   48.0790 C   0  0  0  0  0  0  0  0  0  0  0  0
   57.8800   32.7370   46.7870 C   0  0  0  0  0  0  0  0  0  0  0  0
   58.1330   34.2080   46.4160 C   0  0  0  0  0  0  0  0  0  0  0  0
   59.5650   34.6250   46.7600 C   0  0  0  0  0  0  0  0  0  0  0  0
   59.8900   34.3820   48.2520 C   0  0  0  0  0  0  0  0  0  0  0  0
   57.0530   31.9560   51.2270 C   0  0  0  0  0  0  0  0  0  0  0  0
   51.8562   30.1352   53.2263 H   0  0  0  0  0  0  0  0  0  0  0  0
   52.3689   31.8582   53.3250 H   0  0  0  0  0  0  0  0  0  0  0  0
   54.3870   31.8670   51.1120 H   0  0  0  0  0  0  0  0  0  0  0  0
   56.1337   29.0829   52.8399 H   0  0  0  0  0  0  0  0  0  0  0  0
   58.6036   28.7478   52.7963 H   0  0  0  0  0  0  0  0  0  0  0  0
   59.5583   31.8250   47.8156 H   0  0  0  0  0  0  0  0  0  0  0  0
   57.9701   31.6347   48.6486 H   0  0  0  0  0  0  0  0  0  0  0  0
   58.2301   32.0993   45.9619 H   0  0  0  0  0  0  0  0  0  0  0  0
   56.8005   32.6157   46.9601 H   0  0  0  0  0  0  0  0  0  0  0  0
   57.9703   34.3392   45.3360 H   0  0  0  0  0  0  0  0  0  0  0  0
   57.4382   34.8377   46.9911 H   0  0  0  0  0  0  0  0  0  0  0  0
   60.2640   34.0409   46.1434 H   0  0  0  0  0  0  0  0  0  0  0  0
   59.6658   35.7017   46.5586 H   0  0  0  0  0  0  0  0  0  0  0  0
   60.8825   33.9136   48.3255 H   0  0  0  0  0  0  0  0  0  0  0  0
   59.8647   35.3555   48.7635 H   0  0  0  0  0  0  0  0  0  0  0  0
   56.6159   32.8689   50.7963 H   0  0  0  0  0  0  0  0  0  0  0  0
  1  2  2  0
  2  3  1  0
  3  4  1  0
  4  5  1  0
  5  6  1  0
  6  7  2  0
  6  8  1  0
  8  9  1  0
  9 10  1  0
  2 11  1  0
 11 12  1  0
 12 13  2  0
 13 14  1  0
 14 15  2  0
 15 16  1  0
 15 17  1  0
 17 18  1  0
 18 19  2  0
 18 20  2  0
 18 21  1  0
 21 22  1  0
 22 23  1  0
 23 24  1  0
 24 25  1  0
 25 26  1  0
 17 27  2  0
  9  4  2  0
 27 12  1  0
 26 21  1  0
  3 28  1  0
  3 29  1  0
 11 30  1  0
 13 31  1  0
 14 32  1  0
 22 33  1  0
 22 34  1  0
 23 35  1  0
 23 36  1  0
 24 37  1  0
 24 38  1  0
 25 39  1  0
 25 40  1  0
 26 41  1  0
 26 42  1  0
 27 43  1  0
M  CHG  3   5  -1   8  -1  10  -1
M  END
>  <UniqueID>  (31) 
29

>  <SMILES>  (31) 
O=C(Cc1[n-]c(=O)[n-]c1[O-])Nc1ccc(F)c(S(=O)(=O)N2CCCCC2)c1

>  <Energy>  (31) 
77.41214535518108

>  <Genealogy>  (31) 
O=C(Cc1[n-]c(=O)[n-]c1[O-])Nc1ccc(F)c(S(=O)(=O)N2CCCCC2)c1 (protonated)
O=C(Cc1[n-]c(=O)[n-]c1[O-])Nc1ccc(F)c(S(=O)(=O)N2CCCCC2)c1 (3D coordinates assigned)
O=C(Cc1[n-]c(=O)[n-]c1[O-])Nc1ccc(F)c(S(=O)(=O)N2CCCCC2)c1 (nonaromatic ring conformer: 77.41214535518108 kcal/mol)

>  <smiles>  (31) 
O=C(Cc1[nH]c(=O)[nH]c1O)Nc1ccc(F)c(S(=O)(=O)N2CCCCC2)c1

>  <score_type>  (31) 
oracle

>  <origin>  (31) 
adg

>  <m_score__min__energy>  (31) 
-17.789999999999999

>  <m_primary>  (31) 
energy

$$$$
31:0
     RDKit          3D

 35 37  0  0  0  0  0  0  0  0999 V2000
   58.3550   32.6730   43.9420 O   0  0  0  0  0  0  0  0  0  0  0  0
   57.5410   32.2670   44.8160 C   0  0  0  0  0  0  0  0  0  0  0  0
   57.1190   33.1860   45.9160 C   0  0  0  0  0  0  0  0  0  0  0  0
   58.2750   33.4300   46.8490 C   0  0  0  0  0  0  0  0  0  0  0  0
   58.3570   32.7250   48.0630 C   0  0  0  0  0  0  0  0  0  0  0  0
   59.4050   32.9750   48.9540 C   0  0  0  0  0  0  0  0  0  0  0  0
   60.3730   33.9340   48.6470 C   0  0  0  0  0  0  0  0  0  0  0  0
   60.2910   34.6500   47.4500 C   0  0  0  0  0  0  0  0  0  0  0  0
   59.2450   34.4060   46.5530 C   0  0  0  0  0  0  0  0  0  0  0  0
   59.1760   35.1240   45.4030 F   0  0  0  0  0  0  0  0  0  0  0  0
   57.0170   30.9350   44.7680 N   0  0  0  0  0  0  0  0  0  0  0  0
   57.7560   29.7260   44.9930 C   0  0  0  0  0  0  0  0  0  0  0  0
   59.0930   29.6710   44.5870 C   0  0  0  0  0  0  0  0  0  0  0  0
   59.8410   28.5090   44.7790 C   0  0  0  0  0  0  0  0  0  0  0  0
   59.2520   27.3830   45.3580 C   0  0  0  0  0  0  0  0  0  0  0  0
   57.8980   27.4000   45.7340 C   0  0  0  0  0  0  0  0  0  0  0  0
   57.2900   26.1860   46.3270 C   0  0  0  0  0  0  0  0  0  0  0  0
   58.0050   25.2170   46.9300 N   0  0  0  0  0  0  0  0  0  0  0  0
   57.0740   24.3150   47.3060 C   0  0  0  0  0  0  0  0  0  0  0  0
   57.3640   23.2530   47.9140 O   0  0  0  0  0  0  0  0  0  0  0  0
   55.8080   24.6400   46.9720 N   0  0  0  0  0  0  0  0  0  0  0  0
   55.9560   25.8210   46.3500 C   0  0  0  0  0  0  0  0  0  0  0  0
   54.8980   26.5300   45.7900 O   0  0  0  0  0  0  0  0  0  0  0  0
   57.1560   28.5830   45.5510 C   0  0  0  0  0  0  0  0  0  0  0  0
   56.7888   34.1430   45.4857 H   0  0  0  0  0  0  0  0  0  0  0  0
   56.2915   32.7259   46.4759 H   0  0  0  0  0  0  0  0  0  0  0  0
   57.5934   31.9737   48.3127 H   0  0  0  0  0  0  0  0  0  0  0  0
   59.4673   32.4152   49.8989 H   0  0  0  0  0  0  0  0  0  0  0  0
   61.1995   34.1254   49.3472 H   0  0  0  0  0  0  0  0  0  0  0  0
   61.0515   35.4083   47.2118 H   0  0  0  0  0  0  0  0  0  0  0  0
   59.5575   30.5486   44.1137 H   0  0  0  0  0  0  0  0  0  0  0  0
   60.8973   28.4798   44.4735 H   0  0  0  0  0  0  0  0  0  0  0  0
   59.8524   26.4758   45.5210 H   0  0  0  0  0  0  0  0  0  0  0  0
   54.2870   27.0900   46.3720 H   0  0  0  0  0  0  0  0  0  0  0  0
   56.0971   28.6132   45.8473 H   0  0  0  0  0  0  0  0  0  0  0  0
  1  2  2  0
  2  3  1  0
  3  4  1  0
  4  5  2  0
  5  6  1  0
  6  7  2  0
  7  8  1  0
  8  9  2  0
  9 10  1  0
  2 11  1  0
 11 12  1  0
 12 13  2  0
 13 14  1  0
 14 15  2  0
 15 16  1  0
 16 17  1  0
 17 18  1  0
 18 19  1  0
 19 20  2  0
 19 21  1  0
 21 22  1  0
 22 23  1  0
 16 24  2  0
  9  4  1  0
 24 12  1  0
 22 17  2  0
  3 25  1  0
  3 26  1  0
  5 27  1  0
  6 28  1  0
  7 29  1  0
  8 30  1  0
 13 31  1  0
 14 32  1  0
 15 33  1  0
 23 34  1  0
 24 35  1  0
M  CHG  3  11  -1  18  -1  21  -1
M  END
>  <UniqueID>  (32) 
30

>  <SMILES>  (32) 
O=C(Cc1ccccc1F)[N-]c1cccc(-c2[n-]c(=O)[n-]c2O)c1

>  <Energy>  (32) 
71.27932764316415

>  <Genealogy>  (32) 
O=C(Cc1ccccc1F)[N-]c1cccc(-c2[n-]c(=O)[n-]c2O)c1 (protonated)
O=C(Cc1ccccc1F)[N-]c1cccc(-c2[n-]c(=O)[n-]c2O)c1 (3D coordinates assigned)
O=C(Cc1ccccc1F)[N-]c1cccc(-c2[n-]c(=O)[n-]c2O)c1 (optimized conformer: 71.27932764316415 kcal/mol)

>  <smiles>  (32) 
O=C(Cc1ccccc1F)Nc1cccc(-c2[nH]c(=O)[nH]c2O)c1

>  <score_type>  (32) 
oracle

>  <origin>  (32) 
adg

>  <m_score__min__energy>  (32) 
-14.49

>  <m_primary>  (32) 
energy

$$$$
32:0
     RDKit          3D

 41 43  0  0  0  0  0  0  0  0999 V2000
   56.0330   24.5720   44.7300 C   0  0  0  0  0  0  0  0  0  0  0  0
   55.7550   25.3650   45.9710 C   0  0  0  0  0  0  0  0  0  0  0  0
   55.7010   24.7750   47.0820 O   0  0  0  0  0  0  0  0  0  0  0  0
   55.5530   26.7830   45.9260 N   0  0  0  0  0  0  0  0  0  0  0  0
   56.5820   27.7310   45.6240 C   0  0  0  0  0  0  0  0  0  0  0  0
   56.2300   28.9380   45.0060 C   0  0  0  0  0  0  0  0  0  0  0  0
   57.2110   29.8670   44.6470 C   0  0  0  0  0  0  0  0  0  0  0  0
   56.8110   31.0860   44.0060 N   0  0  0  0  0  0  0  0  0  0  0  0
   57.5980   32.2810   43.9290 C   0  0  0  0  0  0  0  0  0  0  0  0
   58.2390   32.5190   42.8700 O   0  0  0  0  0  0  0  0  0  0  0  0
   57.7130   33.1780   45.0510 N   0  0  0  0  0  0  0  0  0  0  0  0
   58.2100   34.5430   44.8700 C   0  0  0  0  0  0  0  0  0  0  0  0
   59.5550   34.6830   45.5780 C   0  0  0  0  0  0  0  0  0  0  0  0
   59.4930   34.1550   46.9910 C   0  0  0  0  0  0  0  0  0  0  0  0
   60.4600   34.5730   47.9190 C   0  0  0  0  0  0  0  0  0  0  0  0
   60.4580   34.0640   49.2200 C   0  0  0  0  0  0  0  0  0  0  0  0
   59.4980   33.1260   49.6030 C   0  0  0  0  0  0  0  0  0  0  0  0
   58.5390   32.6900   48.6860 C   0  0  0  0  0  0  0  0  0  0  0  0
   58.5340   33.1850   47.3740 C   0  0  0  0  0  0  0  0  0  0  0  0
   57.4590   32.7140   46.4210 C   0  0  0  0  0  0  0  0  0  0  0  0
   58.5550   29.6100   44.9620 C   0  0  0  0  0  0  0  0  0  0  0  0
   58.9100   28.4220   45.6060 C   0  0  0  0  0  0  0  0  0  0  0  0
   57.9320   27.4830   45.9520 C   0  0  0  0  0  0  0  0  0  0  0  0
   58.3230   26.3350   46.6410 O   0  0  0  0  0  0  0  0  0  0  0  0
   56.3851   23.5676   45.0079 H   0  0  0  0  0  0  0  0  0  0  0  0
   55.1114   24.4861   44.1356 H   0  0  0  0  0  0  0  0  0  0  0  0
   56.8065   25.0803   44.1356 H   0  0  0  0  0  0  0  0  0  0  0  0
   55.1716   29.1568   44.8013 H   0  0  0  0  0  0  0  0  0  0  0  0
   58.3353   34.7501   43.7970 H   0  0  0  0  0  0  0  0  0  0  0  0
   57.4910   35.2586   45.2955 H   0  0  0  0  0  0  0  0  0  0  0  0
   60.3145   34.1177   45.0180 H   0  0  0  0  0  0  0  0  0  0  0  0
   59.8142   35.7512   45.6194 H   0  0  0  0  0  0  0  0  0  0  0  0
   61.2239   35.3058   47.6199 H   0  0  0  0  0  0  0  0  0  0  0  0
   61.2140   34.4029   49.9435 H   0  0  0  0  0  0  0  0  0  0  0  0
   59.4967   32.7294   50.6290 H   0  0  0  0  0  0  0  0  0  0  0  0
   57.7827   31.9535   48.9950 H   0  0  0  0  0  0  0  0  0  0  0  0
   57.4330   31.6143   46.4268 H   0  0  0  0  0  0  0  0  0  0  0  0
   56.4966   33.1303   46.7534 H   0  0  0  0  0  0  0  0  0  0  0  0
   59.3301   30.3456   44.7012 H   0  0  0  0  0  0  0  0  0  0  0  0
   59.9657   28.2235   45.8427 H   0  0  0  0  0  0  0  0  0  0  0  0
   57.6550   25.6880   47.0430 H   0  0  0  0  0  0  0  0  0  0  0  0
  1  2  1  0
  2  3  2  0
  2  4  1  0
  4  5  1  0
  5  6  2  0
  6  7  1  0
  7  8  1  0
  8  9  1  0
  9 10  2  0
  9 11  1  0
 11 12  1  0
 12 13  1  0
 13 14  1  0
 14 15  2  0
 15 16  1  0
 16 17  2  0
 17 18  1  0
 18 19  2  0
 19 20  1  0
  7 21  2  0
 21 22  1  0
 22 23  2  0
 23 24  1  0
 23  5  1  0
 20 11  1  0
 19 14  1  0
  1 25  1  0
  1 26  1  0
  1 27  1  0
  6 28  1  0
 12 29  1  0
 12 30  1  0
 13 31  1  0
 13 32  1  0
 15 33  1  0
 16 34  1  0
 17 35  1  0
 18 36  1  0
 20 37  1  0
 20 38  1  0
 21 39  1  0
 22 40  1  0
 24 41  1  0
M  CHG  2   4  -1   8  -1
M  END
>  <UniqueID>  (33) 
31

>  <SMILES>  (33) 
CC(=O)[N-]c1cc([N-]C(=O)N2CCc3ccccc3C2)ccc1O

>  <Energy>  (33) 
55.968632354021

>  <Genealogy>  (33) 
CC(=O)[N-]c1cc([N-]C(=O)N2CCc3ccccc3C2)ccc1O (protonated)
CC(=O)[N-]c1cc([N-]C(=O)N2CCc3ccccc3C2)ccc1O (3D coordinates assigned)
CC(=O)[N-]c1cc([N-]C(=O)N2CCc3ccccc3C2)ccc1O (nonaromatic ring conformer: 55.968632354021 kcal/mol)

>  <smiles>  (33) 
CC(=O)Nc1cc(NC(=O)N2CCc3ccccc3C2)ccc1O

>  <score_type>  (33) 
oracle

>  <origin>  (33) 
adg

>  <m_score__min__energy>  (33) 
-12.210000000000001

>  <m_primary>  (33) 
energy

$$$$
33:0
     RDKit          3D

 49 52  0  0  0  0  0  0  0  0999 V2000
   57.4170   25.4560   43.3580 C   0  0  0  0  0  0  0  0  0  0  0  0
   57.6700   25.6020   44.6700 C   0  0  0  0  0  0  0  0  0  0  0  0
   57.0350   24.9180   45.7220 C   0  0  0  0  0  0  0  0  0  0  0  0
   56.1970   23.8640   45.7170 C   0  0  0  0  0  0  0  0  0  0  0  0
   54.7350   23.9260   45.5680 C   0  0  0  0  0  0  0  0  0  0  0  0
   53.9820   22.8830   45.1790 N   0  0  0  0  0  0  0  0  0  0  0  0
   52.7480   23.4170   45.0560 C   0  0  0  0  0  0  0  0  0  0  0  0
   51.7450   22.7360   44.7160 O   0  0  0  0  0  0  0  0  0  0  0  0
   52.6740   24.7400   45.3120 N   0  0  0  0  0  0  0  0  0  0  0  0
   53.9430   25.0510   45.6210 C   0  0  0  0  0  0  0  0  0  0  0  0
   54.3720   26.3390   45.9160 O   0  0  0  0  0  0  0  0  0  0  0  0
   57.4380   25.5420   46.8880 C   0  0  0  0  0  0  0  0  0  0  0  0
   58.3460   26.5150   46.5310 C   0  0  0  0  0  0  0  0  0  0  0  0
   58.9950   27.4530   47.5050 C   0  0  0  0  0  0  0  0  0  0  0  0
   58.4960   26.5560   45.1850 N   0  0  0  0  0  0  0  0  0  0  0  0
   59.3370   27.5230   44.4580 C   0  0  0  0  0  0  0  0  0  0  0  0
   58.8760   28.9340   44.7210 C   0  0  0  0  0  0  0  0  0  0  0  0
   57.6500   29.3870   44.2100 C   0  0  0  0  0  0  0  0  0  0  0  0
   57.2040   30.6820   44.4880 C   0  0  0  0  0  0  0  0  0  0  0  0
   57.9700   31.5420   45.2900 C   0  0  0  0  0  0  0  0  0  0  0  0
   57.4810   32.9060   45.6020 C   0  0  0  0  0  0  0  0  0  0  0  0
   57.0990   33.6510   44.6610 O   0  0  0  0  0  0  0  0  0  0  0  0
   57.4760   33.4300   46.9390 N   0  0  0  0  0  0  0  0  0  0  0  0
   58.5180   33.6040   47.7010 C   0  0  0  0  0  0  0  0  0  0  0  0
   58.5660   33.0630   48.9540 N   0  0  0  0  0  0  0  0  0  0  0  0
   59.6330   33.2350   49.7770 C   0  0  0  0  0  0  0  0  0  0  0  0
   60.7240   33.9940   49.3550 C   0  0  0  0  0  0  0  0  0  0  0  0
   60.7030   34.5720   48.0850 C   0  0  0  0  0  0  0  0  0  0  0  0
   59.5990   34.3850   47.2470 C   0  0  0  0  0  0  0  0  0  0  0  0
   59.5990   34.9750   45.9830 O   0  0  0  0  0  0  0  0  0  0  0  0
   59.2140   31.0990   45.7710 C   0  0  0  0  0  0  0  0  0  0  0  0
   59.6600   29.8060   45.4920 C   0  0  0  0  0  0  0  0  0  0  0  0
   57.9792   26.0474   42.6203 H   0  0  0  0  0  0  0  0  0  0  0  0
   56.6478   24.7451   43.0220 H   0  0  0  0  0  0  0  0  0  0  0  0
   56.6462   22.8669   45.8350 H   0  0  0  0  0  0  0  0  0  0  0  0
   57.0982   25.3064   47.9073 H   0  0  0  0  0  0  0  0  0  0  0  0
   58.7705   27.1285   48.5318 H   0  0  0  0  0  0  0  0  0  0  0  0
   60.0838   27.4482   47.3488 H   0  0  0  0  0  0  0  0  0  0  0  0
   58.6067   28.4702   47.3488 H   0  0  0  0  0  0  0  0  0  0  0  0
   60.3800   27.4160   44.7906 H   0  0  0  0  0  0  0  0  0  0  0  0
   59.2574   27.3203   43.3798 H   0  0  0  0  0  0  0  0  0  0  0  0
   57.0367   28.7192   43.5872 H   0  0  0  0  0  0  0  0  0  0  0  0
   56.2455   31.0297   44.0752 H   0  0  0  0  0  0  0  0  0  0  0  0
   59.6364   32.7755   50.7764 H   0  0  0  0  0  0  0  0  0  0  0  0
   61.5918   34.1356   50.0160 H   0  0  0  0  0  0  0  0  0  0  0  0
   61.5563   35.1758   47.7424 H   0  0  0  0  0  0  0  0  0  0  0  0
   58.8640   34.8100   45.3070 H   0  0  0  0  0  0  0  0  0  0  0  0
   59.8402   31.7755   46.3712 H   0  0  0  0  0  0  0  0  0  0  0  0
   60.6327   29.4683   45.8791 H   0  0  0  0  0  0  0  0  0  0  0  0
  1  2  2  0
  2  3  1  0
  3  4  2  3
  4  5  1  0
  5  6  1  0
  6  7  1  0
  7  8  2  0
  7  9  1  0
  9 10  1  0
 10 11  1  0
  3 12  1  0
 12 13  2  0
 13 14  1  0
 13 15  1  0
 15 16  1  0
 16 17  1  0
 17 18  2  0
 18 19  1  0
 19 20  2  0
 20 21  1  0
 21 22  2  0
 21 23  1  0
 23 24  2  3
 24 25  1  0
 25 26  1  0
 26 27  2  0
 27 28  1  0
 28 29  2  0
 29 30  1  0
 20 31  1  0
 31 32  2  0
 15  2  1  0
 32 17  1  0
 10  5  2  0
 29 24  1  0
  1 33  1  0
  1 34  1  0
  4 35  1  0
 12 36  1  0
 14 37  1  0
 14 38  1  0
 14 39  1  0
 16 40  1  0
 16 41  1  0
 18 42  1  0
 19 43  1  0
 26 44  1  0
 27 45  1  0
 28 46  1  0
 30 47  1  0
 31 48  1  0
 32 49  1  0
M  CHG  4   6  -1   9  -1  11  -1  25  -1
M  END
>  <UniqueID>  (34) 
32

>  <SMILES>  (34) 
C=c1c(=Cc2[n-]c(=O)[n-]c2[O-])cc(C)n1Cc1ccc(C(=O)N=c2[n-]cccc2O)cc1

>  <Energy>  (34) 
131.64728448793497

>  <Genealogy>  (34) 
C=c1c(=Cc2[n-]c(=O)[n-]c2[O-])cc(C)n1Cc1ccc(C(=O)N=c2[n-]cccc2O)cc1 (protonated)
C=c1c(=Cc2[n-]c(=O)[n-]c2[O-])cc(C)n1Cc1ccc(C(=O)N=c2[n-]cccc2O)cc1 (3D coordinates assigned)
C=c1c(=Cc2[n-]c(=O)[n-]c2[O-])cc(C)n1Cc1ccc(C(=O)N=c2[n-]cccc2O)cc1 (optimized conformer: 131.64728448793497 kcal/mol)

>  <smiles>  (34) 
C=c1c(=Cc2[nH]c(=O)[nH]c2O)cc(C)n1Cc1ccc(C(=O)N=c2[nH]cccc2O)cc1

>  <score_type>  (34) 
oracle

>  <origin>  (34) 
adg

>  <m_score__min__energy>  (34) 
-18.100000000000001

>  <m_primary>  (34) 
energy

$$$$
34:0
     RDKit          3D

 47 49  0  0  0  0  0  0  0  0999 V2000
   60.0428   34.7946   49.4926 H   0  0  0  0  0  0  0  0  0  0  0  0
   59.6040   34.0680   48.7930 C   0  0  0  0  0  0  0  0  0  0  0  0
   59.3120   34.3250   47.1570 S   0  0  0  0  0  0  0  0  0  0  0  0
   58.6950   32.7830   46.9210 C   0  0  0  0  0  0  0  0  0  0  0  0
   58.2320   32.3620   45.7820 N   0  0  0  0  0  0  0  0  0  0  0  0
   58.4170   31.0500   45.2220 C   0  0  0  0  0  0  0  0  0  0  0  0
   58.3630   30.8970   43.8020 N   0  0  0  0  0  0  0  0  0  0  0  0
   58.1580   31.7210   43.1950 H   0  0  0  0  0  0  0  0  0  0  0  0
   58.5240   29.9680   43.3540 H   0  0  0  0  0  0  0  0  0  0  0  0
   58.7150   30.0300   45.9710 N   0  0  0  0  0  0  0  0  0  0  0  0
   58.7670   29.0610   45.5900 H   0  0  0  0  0  0  0  0  0  0  0  0
   58.8620   30.1510   46.9980 H   0  0  0  0  0  0  0  0  0  0  0  0
   58.6850   32.0610   48.0630 N   0  0  0  0  0  0  0  0  0  0  0  0
   59.1920   32.7700   49.1090 C   0  0  0  0  0  0  0  0  0  0  0  0
   59.3050   32.1670   50.4870 C   0  0  0  0  0  0  0  0  0  0  0  0
   60.3650   32.1476   50.7802 H   0  0  0  0  0  0  0  0  0  0  0  0
   58.5690   33.0480   51.5180 C   0  0  0  0  0  0  0  0  0  0  0  0
   59.1751   33.9431   51.7214 H   0  0  0  0  0  0  0  0  0  0  0  0
   57.5903   33.3261   51.0999 H   0  0  0  0  0  0  0  0  0  0  0  0
   58.3360   32.2950   52.8310 C   0  0  0  0  0  0  0  0  0  0  0  0
   59.3088   32.0573   53.2862 H   0  0  0  0  0  0  0  0  0  0  0  0
   57.7419   32.9350   53.4999 H   0  0  0  0  0  0  0  0  0  0  0  0
   57.5950   31.0450   52.6010 N   0  0  0  0  0  0  0  0  0  0  0  0
   56.9220   30.4190   53.7130 C   0  0  0  0  0  0  0  0  0  0  0  0
   57.3420   30.6270   54.8860 O   0  0  0  0  0  0  0  0  0  0  0  0
   55.7530   29.4910   53.5060 C   0  0  0  0  0  0  0  0  0  0  0  0
   56.0506   28.6879   52.8157 H   0  0  0  0  0  0  0  0  0  0  0  0
   55.4614   29.0762   54.4821 H   0  0  0  0  0  0  0  0  0  0  0  0
   54.5700   30.2230   52.9270 C   0  0  0  0  0  0  0  0  0  0  0  0
   53.4680   30.5320   53.7380 C   0  0  0  0  0  0  0  0  0  0  0  0
   53.4802   30.2607   54.8039 H   0  0  0  0  0  0  0  0  0  0  0  0
   52.3540   31.1830   53.1990 C   0  0  0  0  0  0  0  0  0  0  0  0
   51.4979   31.4267   53.8453 H   0  0  0  0  0  0  0  0  0  0  0  0
   52.3210   31.5280   51.8370 C   0  0  0  0  0  0  0  0  0  0  0  0
   51.1400   32.2170   51.2700 C   0  0  0  0  0  0  0  0  0  0  0  0
   50.2650   32.7160   52.0260 O   0  0  0  0  0  0  0  0  0  0  0  0
   50.9810   32.3240   49.8930 O   0  0  0  0  0  0  0  0  0  0  0  0
   53.4210   31.2050   51.0240 C   0  0  0  0  0  0  0  0  0  0  0  0
   53.4060   31.4657   49.9554 H   0  0  0  0  0  0  0  0  0  0  0  0
   54.5350   30.5540   51.5650 C   0  0  0  0  0  0  0  0  0  0  0  0
   55.3880   30.3005   50.9183 H   0  0  0  0  0  0  0  0  0  0  0  0
   57.5230   30.4710   51.2480 C   0  0  0  0  0  0  0  0  0  0  0  0
   57.3190   29.3926   51.3225 H   0  0  0  0  0  0  0  0  0  0  0  0
   56.7170   30.9715   50.6914 H   0  0  0  0  0  0  0  0  0  0  0  0
   58.8460   30.6840   50.5040 C   0  0  0  0  0  0  0  0  0  0  0  0
   59.6246   30.0824   50.9958 H   0  0  0  0  0  0  0  0  0  0  0  0
   58.6869   30.3786   49.4593 H   0  0  0  0  0  0  0  0  0  0  0  0
  1  2  1  0
  2  3  1  0
  3  4  1  0
  4  5  2  0
  5  6  1  0
  6  7  1  0
  7  8  1  0
  7  9  1  0
  6 10  2  0
 10 11  1  0
 10 12  1  0
  4 13  1  0
 13 14  1  0
 14 15  1  0
 15 16  1  0
 15 17  1  0
 17 18  1  0
 17 19  1  0
 17 20  1  0
 20 21  1  0
 20 22  1  0
 20 23  1  0
 23 24  1  0
 24 25  2  0
 24 26  1  0
 26 27  1  0
 26 28  1  0
 26 29  1  0
 29 30  2  0
 30 31  1  0
 30 32  1  0
 32 33  1  0
 32 34  2  0
 34 35  1  0
 35 36  2  0
 35 37  1  0
 34 38  1  0
 38 39  1  0
 38 40  2  0
 40 41  1  0
 23 42  1  0
 42 43  1  0
 42 44  1  0
 42 45  1  0
 45 46  1  0
 45 47  1  0
 14  2  2  0
 45 15  1  0
 40 29  1  0
M  CHG  3  10   1  13  -1  37  -1
M  END
>  <UniqueID>  (35) 
33

>  <SMILES>  (35) 
NC(=[NH2+])/N=c1\[n-]c(C2CCN(C(=O)Cc3ccc(C(=O)[O-])cc3)CC2)cs1

>  <Energy>  (35) 
83.74981353234988

>  <Genealogy>  (35) 
NC(=[NH2+])N=c1[n-]c(C2CCN(C(=O)Cc3ccc(C(=O)[O-])cc3)CC2)cs1 (protonated)
NC(=[NH2+])/N=c1\[n-]c(C2CCN(C(=O)Cc3ccc(C(=O)[O-])cc3)CC2)cs1 (cis-trans isomerization)
NC(=[NH2+])/N=c1\[n-]c(C2CCN(C(=O)Cc3ccc(C(=O)[O-])cc3)CC2)cs1 (3D coordinates assigned)
NC(=[NH2+])/N=c1\[n-]c(C2CCN(C(=O)Cc3ccc(C(=O)[O-])cc3)CC2)cs1 (nonaromatic ring conformer: 83.74981353234988 kcal/mol)

>  <smiles>  (35) 
N=C(N)N=c1[nH]c(C2CCN(C(=O)Cc3ccc(C(=O)O)cc3)CC2)cs1

>  <score_type>  (35) 
oracle

>  <origin>  (35) 
adg

>  <m_score__min__energy>  (35) 
-10.869999999999999

>  <m_primary>  (35) 
energy

$$$$
35:0
     RDKit          3D

 55 58  0  0  0  0  0  0  0  0999 V2000
   54.7710   27.1120   45.0880 H   0  0  0  0  0  0  0  0  0  0  0  0
   55.0470   26.6890   45.9670 O   0  0  0  0  0  0  0  0  0  0  0  0
   56.3820   26.6170   46.3720 C   0  0  0  0  0  0  0  0  0  0  0  0
   57.2880   27.6490   46.0580 C   0  0  0  0  0  0  0  0  0  0  0  0
   56.8830   28.8430   45.2710 C   0  0  0  0  0  0  0  0  0  0  0  0
   55.6640   29.0600   45.0450 O   0  0  0  0  0  0  0  0  0  0  0  0
   57.8490   29.7310   44.6860 N   0  0  0  0  0  0  0  0  0  0  0  0
   57.9680   31.1430   44.9150 C   0  0  0  0  0  0  0  0  0  0  0  0
   57.5740   32.0290   43.9050 C   0  0  0  0  0  0  0  0  0  0  0  0
   57.1667   31.6376   42.9611 H   0  0  0  0  0  0  0  0  0  0  0  0
   57.6960   33.4070   44.0910 C   0  0  0  0  0  0  0  0  0  0  0  0
   57.3930   34.0975   43.2901 H   0  0  0  0  0  0  0  0  0  0  0  0
   58.2020   33.9120   45.2920 C   0  0  0  0  0  0  0  0  0  0  0  0
   58.3116   34.9980   45.4285 H   0  0  0  0  0  0  0  0  0  0  0  0
   58.5700   33.0360   46.3230 C   0  0  0  0  0  0  0  0  0  0  0  0
   59.2260   33.6640   47.8350 S   0  0  0  0  0  0  0  0  0  0  0  0
   58.9510   35.1400   47.9150 O   0  0  0  0  0  0  0  0  0  0  0  0
   58.5310   32.9980   48.9900 O   0  0  0  0  0  0  0  0  0  0  0  0
   60.9450   33.3850   47.9570 N   0  0  0  0  0  0  0  0  0  0  0  0
   61.4900   34.0670   49.1480 C   0  0  0  0  0  0  0  0  0  0  0  0
   61.2137   35.1309   49.1056 H   0  0  0  0  0  0  0  0  0  0  0  0
   61.0680   33.5816   50.0404 H   0  0  0  0  0  0  0  0  0  0  0  0
   63.0300   33.9540   49.2260 C   0  0  0  0  0  0  0  0  0  0  0  0
   63.4663   34.9545   49.0892 H   0  0  0  0  0  0  0  0  0  0  0  0
   63.2892   33.5362   50.2100 H   0  0  0  0  0  0  0  0  0  0  0  0
   63.5950   33.0180   48.1530 C   0  0  0  0  0  0  0  0  0  0  0  0
   64.6939   33.0582   48.1828 H   0  0  0  0  0  0  0  0  0  0  0  0
   63.2415   31.9965   48.3570 H   0  0  0  0  0  0  0  0  0  0  0  0
   63.1140   33.4330   46.7520 C   0  0  0  0  0  0  0  0  0  0  0  0
   63.7236   34.2809   46.4062 H   0  0  0  0  0  0  0  0  0  0  0  0
   63.2216   32.5617   46.0892 H   0  0  0  0  0  0  0  0  0  0  0  0
   61.6280   33.8530   46.7390 C   0  0  0  0  0  0  0  0  0  0  0  0
   61.5630   34.9499   46.6872 H   0  0  0  0  0  0  0  0  0  0  0  0
   61.1398   33.4005   45.8633 H   0  0  0  0  0  0  0  0  0  0  0  0
   58.4270   31.6540   46.1400 C   0  0  0  0  0  0  0  0  0  0  0  0
   58.6758   30.9653   46.9608 H   0  0  0  0  0  0  0  0  0  0  0  0
   58.5770   27.5430   46.4790 N   0  0  0  0  0  0  0  0  0  0  0  0
   59.0120   26.4780   47.2060 C   0  0  0  0  0  0  0  0  0  0  0  0
   60.2410   26.4090   47.6210 N   0  0  0  0  0  0  0  0  0  0  0  0
   60.6860   26.7190   48.9820 C   0  0  0  0  0  0  0  0  0  0  0  0
   60.0510   26.1801   49.7006 H   0  0  0  0  0  0  0  0  0  0  0  0
   61.7354   26.4073   49.0894 H   0  0  0  0  0  0  0  0  0  0  0  0
   60.5920   28.1930   49.2510 C   0  0  0  0  0  0  0  0  0  0  0  0
   60.6900   29.0750   48.2180 N   0  0  0  0  0  0  0  0  0  0  0  0
   60.6440   30.4180   48.4160 C   0  0  0  0  0  0  0  0  0  0  0  0
   60.7219   31.1022   47.5582 H   0  0  0  0  0  0  0  0  0  0  0  0
   60.4980   30.9320   49.7060 C   0  0  0  0  0  0  0  0  0  0  0  0
   60.4676   32.0190   49.8718 H   0  0  0  0  0  0  0  0  0  0  0  0
   60.3910   30.0500   50.7830 C   0  0  0  0  0  0  0  0  0  0  0  0
   60.2691   30.4397   51.8044 H   0  0  0  0  0  0  0  0  0  0  0  0
   60.4390   28.6720   50.5610 C   0  0  0  0  0  0  0  0  0  0  0  0
   60.3578   27.9698   51.4038 H   0  0  0  0  0  0  0  0  0  0  0  0
   58.1490   25.4760   47.5100 N   0  0  0  0  0  0  0  0  0  0  0  0
   56.8530   25.5200   47.1090 C   0  0  0  0  0  0  0  0  0  0  0  0
   56.0840   24.5680   47.4060 O   0  0  0  0  0  0  0  0  0  0  0  0
  1  2  1  0
  2  3  1  0
  3  4  2  0
  4  5  1  0
  5  6  2  0
  5  7  1  0
  7  8  1  0
  8  9  2  0
  9 10  1  0
  9 11  1  0
 11 12  1  0
 11 13  2  0
 13 14  1  0
 13 15  1  0
 15 16  1  0
 16 17  2  0
 16 18  2  0
 16 19  1  0
 19 20  1  0
 20 21  1  0
 20 22  1  0
 20 23  1  0
 23 24  1  0
 23 25  1  0
 23 26  1  0
 26 27  1  0
 26 28  1  0
 26 29  1  0
 29 30  1  0
 29 31  1  0
 29 32  1  0
 32 33  1  0
 32 34  1  0
 15 35  2  0
 35 36  1  0
  4 37  1  0
 37 38  1  0
 38 39  2  0
 39 40  1  0
 40 41  1  0
 40 42  1  0
 40 43  1  0
 43 44  2  0
 44 45  1  0
 45 46  1  0
 45 47  2  0
 47 48  1  0
 47 49  1  0
 49 50  1  0
 49 51  2  0
 51 52  1  0
 38 53  1  0
 53 54  1  0
 54 55  2  0
 54  3  1  0
 35  8  1  0
 51 43  1  0
 32 19  1  0
M  CHG  3   7  -1  37  -1  53  -1
M  END
>  <UniqueID>  (36) 
34

>  <SMILES>  (36) 
O=C([N-]c1cccc(S(=O)(=O)N2CCCCC2)c1)c1[n-]/c(=N\Cc2ccccn2)[n-]c(=O)c1O

>  <Energy>  (36) 
64.65761706734678

>  <Genealogy>  (36) 
O=C([N-]c1cccc(S(=O)(=O)N2CCCCC2)c1)c1[n-]c(=NCc2ccccn2)[n-]c(=O)c1O (protonated)
O=C([N-]c1cccc(S(=O)(=O)N2CCCCC2)c1)c1[n-]/c(=N\Cc2ccccn2)[n-]c(=O)c1O (cis-trans isomerization)
O=C([N-]c1cccc(S(=O)(=O)N2CCCCC2)c1)c1[n-]/c(=N\Cc2ccccn2)[n-]c(=O)c1O (3D coordinates assigned)
O=C([N-]c1cccc(S(=O)(=O)N2CCCCC2)c1)c1[n-]/c(=N\Cc2ccccn2)[n-]c(=O)c1O (nonaromatic ring conformer: 64.65761706734678 kcal/mol)

>  <smiles>  (36) 
O=C(Nc1cccc(S(=O)(=O)N2CCCCC2)c1)c1[nH]c(=NCc2ccccn2)[nH]c(=O)c1O

>  <score_type>  (36) 
oracle

>  <origin>  (36) 
adg

>  <m_score__min__energy>  (36) 
-15.380000000000001

>  <m_primary>  (36) 
energy

$$$$
36:0
     RDKit          3D

 46 48  0  0  0  0  0  0  0  0999 V2000
   63.5000   33.4610   47.3950 C   0  0  0  0  0  0  0  0  0  0  0  0
   62.3880   33.8950   48.7680 S   0  0  0  0  0  0  0  0  0  0  0  0
   60.9140   33.8550   47.7470 C   0  0  0  0  0  0  0  0  0  0  0  0
   61.0200   33.9920   46.3590 C   0  0  0  0  0  0  0  0  0  0  0  0
   59.8730   33.9580   45.5600 C   0  0  0  0  0  0  0  0  0  0  0  0
   58.6030   33.7830   46.1420 C   0  0  0  0  0  0  0  0  0  0  0  0
   57.3880   33.7460   45.2960 C   0  0  0  0  0  0  0  0  0  0  0  0
   56.9090   34.8150   44.8290 O   0  0  0  0  0  0  0  0  0  0  0  0
   56.7490   32.4960   45.0060 N   0  0  0  0  0  0  0  0  0  0  0  0
   57.3520   31.4490   44.1880 C   0  0  0  0  0  0  0  0  0  0  0  0
   57.4630   30.1710   44.9740 C   0  0  0  0  0  0  0  0  0  0  0  0
   56.9470   28.9710   44.4640 C   0  0  0  0  0  0  0  0  0  0  0  0
   57.0750   27.7820   45.1870 C   0  0  0  0  0  0  0  0  0  0  0  0
   57.7280   27.7710   46.4340 C   0  0  0  0  0  0  0  0  0  0  0  0
   57.8670   26.5110   47.2010 C   0  0  0  0  0  0  0  0  0  0  0  0
   58.9650   26.2270   47.7550 O   0  0  0  0  0  0  0  0  0  0  0  0
   56.7660   25.6000   47.2970 N   0  0  0  0  0  0  0  0  0  0  0  0
   56.2910   24.7890   46.2150 C   0  0  0  0  0  0  0  0  0  0  0  0
   57.0910   23.7260   45.7770 C   0  0  0  0  0  0  0  0  0  0  0  0
   56.6490   22.8820   44.7530 C   0  0  0  0  0  0  0  0  0  0  0  0
   57.6480   21.5380   44.2310 Cl  0  0  0  0  0  0  0  0  0  0  0  0
   55.4080   23.1060   44.1510 C   0  0  0  0  0  0  0  0  0  0  0  0
   54.6180   24.1840   44.5570 C   0  0  0  0  0  0  0  0  0  0  0  0
   55.0590   25.0450   45.5700 C   0  0  0  0  0  0  0  0  0  0  0  0
   54.2740   26.1560   45.8840 O   0  0  0  0  0  0  0  0  0  0  0  0
   58.2480   28.9760   46.9390 C   0  0  0  0  0  0  0  0  0  0  0  0
   58.1180   30.1640   46.2140 C   0  0  0  0  0  0  0  0  0  0  0  0
   58.5090   33.6410   47.5390 C   0  0  0  0  0  0  0  0  0  0  0  0
   59.6580   33.6750   48.3340 C   0  0  0  0  0  0  0  0  0  0  0  0
   64.4532   33.0890   47.7987 H   0  0  0  0  0  0  0  0  0  0  0  0
   63.0330   32.6791   46.7781 H   0  0  0  0  0  0  0  0  0  0  0  0
   63.6861   34.3525   46.7781 H   0  0  0  0  0  0  0  0  0  0  0  0
   62.0081   34.1268   45.8949 H   0  0  0  0  0  0  0  0  0  0  0  0
   59.9635   34.0687   44.4693 H   0  0  0  0  0  0  0  0  0  0  0  0
   56.7256   31.2759   43.3005 H   0  0  0  0  0  0  0  0  0  0  0  0
   58.3588   31.7694   43.8820 H   0  0  0  0  0  0  0  0  0  0  0  0
   56.4383   28.9656   43.4887 H   0  0  0  0  0  0  0  0  0  0  0  0
   56.6624   26.8477   44.7786 H   0  0  0  0  0  0  0  0  0  0  0  0
   58.0732   23.5538   46.2413 H   0  0  0  0  0  0  0  0  0  0  0  0
   55.0530   22.4329   43.3568 H   0  0  0  0  0  0  0  0  0  0  0  0
   53.6431   24.3579   44.0781 H   0  0  0  0  0  0  0  0  0  0  0  0
   54.3830   26.6790   46.7430 H   0  0  0  0  0  0  0  0  0  0  0  0
   58.7610   28.9838   47.9120 H   0  0  0  0  0  0  0  0  0  0  0  0
   58.5321   31.0993   46.6187 H   0  0  0  0  0  0  0  0  0  0  0  0
   57.5240   33.5022   48.0086 H   0  0  0  0  0  0  0  0  0  0  0  0
   59.5738   33.5598   49.4247 H   0  0  0  0  0  0  0  0  0  0  0  0
  1  2  1  0
  2  3  1  0
  3  4  2  0
  4  5  1  0
  5  6  2  0
  6  7  1  0
  7  8  2  0
  7  9  1  0
  9 10  1  0
 10 11  1  0
 11 12  2  0
 12 13  1  0
 13 14  2  0
 14 15  1  0
 15 16  2  0
 15 17  1  0
 17 18  1  0
 18 19  2  0
 19 20  1  0
 20 21  1  0
 20 22  2  0
 22 23  1  0
 23 24  2  0
 24 25  1  0
 14 26  1  0
 26 27  2  0
  6 28  1  0
 28 29  2  0
 29  3  1  0
 27 11  1  0
 24 18  1  0
  1 30  1  0
  1 31  1  0
  1 32  1  0
  4 33  1  0
  5 34  1  0
 10 35  1  0
 10 36  1  0
 12 37  1  0
 13 38  1  0
 19 39  1  0
 22 40  1  0
 23 41  1  0
 25 42  1  0
 26 43  1  0
 27 44  1  0
 28 45  1  0
 29 46  1  0
M  CHG  2   9  -1  17  -1
M  END
>  <UniqueID>  (37) 
35

>  <SMILES>  (37) 
CSc1ccc(C(=O)[N-]Cc2ccc(C(=O)[N-]c3cc(Cl)ccc3O)cc2)cc1

>  <Energy>  (37) 
50.55253670919004

>  <Genealogy>  (37) 
CSc1ccc(C(=O)[N-]Cc2ccc(C(=O)[N-]c3cc(Cl)ccc3O)cc2)cc1 (protonated)
CSc1ccc(C(=O)[N-]Cc2ccc(C(=O)[N-]c3cc(Cl)ccc3O)cc2)cc1 (3D coordinates assigned)
CSc1ccc(C(=O)[N-]Cc2ccc(C(=O)[N-]c3cc(Cl)ccc3O)cc2)cc1 (optimized conformer: 50.55253670919004 kcal/mol)

>  <smiles>  (37) 
CSc1ccc(C(=O)NCc2ccc(C(=O)Nc3cc(Cl)ccc3O)cc2)cc1

>  <score_type>  (37) 
oracle

>  <origin>  (37) 
adg

>  <m_score__min__energy>  (37) 
-12.82

>  <m_primary>  (37) 
energy

$$$$
37:0
     RDKit          3D

 31 33  0  0  0  0  0  0  0  0999 V2000
   55.0050   23.4080   46.8290 H   0  0  0  0  0  0  0  0  0  0  0  0
   54.8630   24.4190   46.6060 N   0  0  0  0  0  0  0  0  0  0  0  0
   55.8630   25.2110   46.3950 C   0  0  0  0  0  0  0  0  0  0  0  0
   57.1330   24.8010   46.6660 N   0  0  0  0  0  0  0  0  0  0  0  0
   58.1970   25.6160   46.4500 C   0  0  0  0  0  0  0  0  0  0  0  0
   59.3600   25.2090   46.7100 O   0  0  0  0  0  0  0  0  0  0  0  0
   57.9910   26.9030   45.9420 C   0  0  0  0  0  0  0  0  0  0  0  0
   59.0270   27.7490   45.7130 N   0  0  0  0  0  0  0  0  0  0  0  0
   58.8400   29.0020   45.2190 C   0  0  0  0  0  0  0  0  0  0  0  0
   59.8460   29.7410   45.0470 O   0  0  0  0  0  0  0  0  0  0  0  0
   57.5350   29.4660   44.9230 C   0  0  0  0  0  0  0  0  0  0  0  0
   57.3080   30.8330   44.3770 C   0  0  0  0  0  0  0  0  0  0  0  0
   57.6600   31.1110   43.1980 O   0  0  0  0  0  0  0  0  0  0  0  0
   56.6900   31.8430   45.1850 N   0  0  0  0  0  0  0  0  0  0  0  0
   56.9880   33.2660   45.0690 C   0  0  0  0  0  0  0  0  0  0  0  0
   57.3033   33.4876   44.0387 H   0  0  0  0  0  0  0  0  0  0  0  0
   56.0848   33.8417   45.3195 H   0  0  0  0  0  0  0  0  0  0  0  0
   58.0900   33.6490   46.0180 C   0  0  0  0  0  0  0  0  0  0  0  0
   59.0680   34.5840   45.6490 C   0  0  0  0  0  0  0  0  0  0  0  0
   59.0247   35.0609   44.6587 H   0  0  0  0  0  0  0  0  0  0  0  0
   60.0700   34.9030   46.5120 N   0  0  0  0  0  0  0  0  0  0  0  0
   60.1610   34.3330   47.7430 C   0  0  0  0  0  0  0  0  0  0  0  0
   60.9832   34.6121   48.4184 H   0  0  0  0  0  0  0  0  0  0  0  0
   59.2110   33.3930   48.1510 C   0  0  0  0  0  0  0  0  0  0  0  0
   59.2803   32.9290   49.1459 H   0  0  0  0  0  0  0  0  0  0  0  0
   58.1740   33.0490   47.2840 C   0  0  0  0  0  0  0  0  0  0  0  0
   57.4222   32.3076   47.5924 H   0  0  0  0  0  0  0  0  0  0  0  0
   56.4480   28.5930   45.1570 C   0  0  0  0  0  0  0  0  0  0  0  0
   55.1420   28.9840   44.8690 O   0  0  0  0  0  0  0  0  0  0  0  0
   56.6760   27.3120   45.6690 C   0  0  0  0  0  0  0  0  0  0  0  0
   55.6430   26.4580   45.9000 N   0  0  0  0  0  0  0  0  0  0  0  0
  1  2  1  0
  2  3  2  0
  3  4  1  0
  4  5  1  0
  5  6  2  0
  5  7  1  0
  7  8  1  0
  8  9  1  0
  9 10  2  0
  9 11  1  0
 11 12  1  0
 12 13  2  0
 12 14  1  0
 14 15  1  0
 15 16  1  0
 15 17  1  0
 15 18  1  0
 18 19  2  0
 19 20  1  0
 19 21  1  0
 21 22  2  0
 22 23  1  0
 22 24  1  0
 24 25  1  0
 24 26  2  0
 26 27  1  0
 11 28  2  0
 28 29  1  0
 28 30  1  0
 30 31  1  0
 31  3  1  0
 30  7  2  0
 26 18  1  0
M  CHG  5   4  -1   8  -1  14  -1  29  -1  31  -1
M  END
>  <UniqueID>  (38) 
36

>  <SMILES>  (38) 
[H]/N=c1\[n-]c(=O)c2[n-]c(=O)c(C(=O)[N-]Cc3cccnc3)c([O-])c2[n-]1

>  <Energy>  (38) 
42.04763290106025

>  <Genealogy>  (38) 
N=c1[n-]c(=O)c2[n-]c(=O)c(C(=O)[N-]Cc3cccnc3)c([O-])c2[n-]1 (protonated)
[H]/N=c1\[n-]c(=O)c2[n-]c(=O)c(C(=O)[N-]Cc3cccnc3)c([O-])c2[n-]1 (cis-trans isomerization)
[H]/N=c1\[n-]c(=O)c2[n-]c(=O)c(C(=O)[N-]Cc3cccnc3)c([O-])c2[n-]1 (3D coordinates assigned)
[H]/N=c1\[n-]c(=O)c2[n-]c(=O)c(C(=O)[N-]Cc3cccnc3)c([O-])c2[n-]1 (optimized conformer: 42.04763290106025 kcal/mol)

>  <smiles>  (38) 
N=c1[nH]c(=O)c2[nH]c(=O)c(C(=O)NCc3cccnc3)c(O)c2[nH]1

>  <score_type>  (38) 
oracle

>  <origin>  (38) 
adg

>  <m_score__min__energy>  (38) 
-16.940000000000001

>  <m_primary>  (38) 
energy

$$$$
38:0
     RDKit          3D

 42 44  0  0  1  0  0  0  0  0999 V2000
   58.3000   22.2850   44.1700 C   0  0  0  0  0  0  0  0  0  0  0  0
   56.9710   23.4450   44.1690 S   0  0  0  0  0  0  0  0  0  0  0  0
   57.2230   24.5550   43.2000 O   0  0  0  0  0  0  0  0  0  0  0  0
   55.7150   22.7280   43.7670 O   0  0  0  0  0  0  0  0  0  0  0  0
   56.7100   24.1300   45.8130 C   0  0  0  0  0  0  0  0  0  0  0  0
   56.4970   25.5700   45.7440 C   0  0  0  0  0  0  0  0  0  0  0  0
   55.2780   25.9440   45.9800 O   0  0  0  0  0  0  0  0  0  0  0  0
   57.3700   26.6160   45.4680 N   0  0  0  0  0  0  0  0  0  0  0  0
   57.2120   27.8570   45.4040 C   0  0  0  0  0  0  0  0  0  0  0  0
   56.0310   28.4660   45.2230 N   0  0  0  0  0  0  0  0  0  0  0  0
   56.2710   29.7610   45.2130 N   0  0  0  0  0  0  0  0  0  0  0  0
   57.5770   30.0230   45.3830 C   0  0  0  0  0  0  0  0  0  0  0  0
   58.2110   28.8020   45.5100 C   0  0  0  0  0  0  0  0  0  0  0  0
   59.6700   29.0650   45.7000 C   0  0  0  0  0  0  0  0  0  0  0  0
   59.6900   30.4520   46.1200 N   0  0  0  0  0  0  0  0  0  0  0  0
   60.6730   30.9730   47.0050 C   0  0  0  0  0  0  0  0  0  0  0  0
   61.1340   30.1660   47.8720 O   0  0  0  0  0  0  0  0  0  0  0  0
   61.1530   32.2920   46.9780 N   0  0  0  0  0  0  0  0  0  0  0  0
   62.1450   32.6550   47.9410 C   0  0  0  0  0  0  0  0  0  0  0  0
   63.4860   32.6970   47.6280 C   0  0  0  0  0  0  0  0  0  0  0  0
   64.3890   33.0610   48.6240 C   0  0  0  0  0  0  0  0  0  0  0  0
   63.9340   33.3700   49.8940 C   0  0  0  0  0  0  0  0  0  0  0  0
   65.1150   33.8200   51.1050 Cl  0  0  0  0  0  0  0  0  0  0  0  0
   62.5920   33.3250   50.2010 C   0  0  0  0  0  0  0  0  0  0  0  0
   61.7030   32.9700   49.2290 C   0  0  0  0  0  0  0  0  0  0  0  0
   58.5700   31.1190   45.4830 C   0  0  0  0  0  0  0  0  0  0  0  0
   58.5758   22.0443   45.2073 H   0  0  0  0  0  0  0  0  0  0  0  0
   57.9859   21.3670   43.6517 H   0  0  0  0  0  0  0  0  0  0  0  0
   59.1671   22.7203   43.6517 H   0  0  0  0  0  0  0  0  0  0  0  0
   55.8267   23.6557   46.2656 H   0  0  0  0  0  0  0  0  0  0  0  0
   57.6038   23.9339   46.4235 H   0  0  0  0  0  0  0  0  0  0  0  0
   55.1470   27.9740   45.1180 H   0  0  0  0  0  0  0  0  0  0  0  0
   55.4770   30.4560   45.0810 H   0  0  0  0  0  0  0  0  0  0  0  0
   60.0939   28.4094   46.4750 H   0  0  0  0  0  0  0  0  0  0  0  0
   60.2700   28.8726   44.7983 H   0  0  0  0  0  0  0  0  0  0  0  0
   60.7760   32.9560   46.2670 H   0  0  0  0  0  0  0  0  0  0  0  0
   63.8355   32.4488   46.6149 H   0  0  0  0  0  0  0  0  0  0  0  0
   65.4653   33.1029   48.4009 H   0  0  0  0  0  0  0  0  0  0  0  0
   62.2424   33.5715   51.2144 H   0  0  0  0  0  0  0  0  0  0  0  0
   60.6285   32.9313   49.4611 H   0  0  0  0  0  0  0  0  0  0  0  0
   58.1921   31.9458   46.1023 H   0  0  0  0  0  0  0  0  0  0  0  0
   58.8197   31.5816   44.5168 H   0  0  0  0  0  0  0  0  0  0  0  0
  1  2  1  0
  2  3  2  0
  2  4  2  0
  2  5  1  0
  5  6  1  0
  6  7  2  0
  6  8  1  0
  8  9  2  0
  9 10  1  0
 10 11  1  0
 11 12  1  0
 12 13  2  0
 13 14  1  0
 14 15  1  0
 15 16  1  0
 16 17  2  0
 16 18  1  0
 18 19  1  0
 19 20  2  0
 20 21  1  0
 21 22  2  0
 22 23  1  0
 22 24  1  0
 24 25  2  0
 15 26  1  0
 13  9  1  0
 25 19  1  0
 26 12  1  0
  1 27  1  0
  1 28  1  0
  1 29  1  0
  5 30  1  0
  5 31  1  0
 10 32  1  0
 11 33  1  0
 14 34  1  0
 14 35  1  0
 18 36  1  0
 20 37  1  0
 21 38  1  0
 24 39  1  0
 25 40  1  0
 26 41  1  0
 26 42  1  0
M  END
>  <smiles>  (39) 
CS(=O)(=O)CC(=O)N=c1[nH][nH]c2c1CN(C(=O)Nc1ccc(Cl)cc1)C2

>  <score_type>  (39) 
oracle

>  <origin>  (39) 
adg

>  <m_score__min__energy>  (39) 
-8.6799999999999997

>  <m_primary>  (39) 
energy

$$$$
39:0
     RDKit          3D

 48 48  0  0  0  0  0  0  0  0999 V2000
   58.6790   32.5620   47.6170 H   0  0  0  0  0  0  0  0  0  0  0  0
   57.9400   32.0820   47.1230 O   0  0  0  0  0  0  0  0  0  0  0  0
   58.1700   31.0260   46.2400 C   0  0  0  0  0  0  0  0  0  0  0  0
   57.2690   30.8090   45.2520 N   0  0  0  0  0  0  0  0  0  0  0  0
   57.3870   29.7730   44.3840 C   0  0  0  0  0  0  0  0  0  0  0  0
   56.3440   29.6020   43.3180 C   0  0  0  0  0  0  0  0  0  0  0  0
   55.3625   29.4411   43.7878 H   0  0  0  0  0  0  0  0  0  0  0  0
   56.3073   30.5061   42.6925 H   0  0  0  0  0  0  0  0  0  0  0  0
   56.5979   28.7335   42.6925 H   0  0  0  0  0  0  0  0  0  0  0  0
   58.4480   28.9150   44.4860 N   0  0  0  0  0  0  0  0  0  0  0  0
   58.5820   27.8390   43.5870 N   0  0  0  0  0  0  0  0  0  0  0  0
   59.2460   27.9310   42.7850 H   0  0  0  0  0  0  0  0  0  0  0  0
   57.7740   26.6570   43.6730 C   0  0  0  0  0  0  0  0  0  0  0  0
   57.2525   26.3008   42.7723 H   0  0  0  0  0  0  0  0  0  0  0  0
   57.6350   25.9730   44.8180 C   0  0  0  0  0  0  0  0  0  0  0  0
   58.0350   24.9495   44.8671 H   0  0  0  0  0  0  0  0  0  0  0  0
   56.9720   26.5250   46.0160 C   0  0  0  0  0  0  0  0  0  0  0  0
   55.7170   26.6300   46.0170 O   0  0  0  0  0  0  0  0  0  0  0  0
   57.7380   26.9760   47.2250 C   0  0  0  0  0  0  0  0  0  0  0  0
   57.2051   26.6623   48.1347 H   0  0  0  0  0  0  0  0  0  0  0  0
   58.7409   26.5242   47.2132 H   0  0  0  0  0  0  0  0  0  0  0  0
   57.8295   28.0721   47.2132 H   0  0  0  0  0  0  0  0  0  0  0  0
   59.3820   29.0880   45.4670 C   0  0  0  0  0  0  0  0  0  0  0  0
   60.3590   28.2920   45.5460 O   0  0  0  0  0  0  0  0  0  0  0  0
   59.2790   30.1670   46.3670 C   0  0  0  0  0  0  0  0  0  0  0  0
   60.3330   30.3970   47.3810 C   0  0  0  0  0  0  0  0  0  0  0  0
   60.9160   29.4070   47.9000 O   0  0  0  0  0  0  0  0  0  0  0  0
   60.7150   31.7450   47.7090 N   0  0  0  0  0  0  0  0  0  0  0  0
   61.5720   32.5150   47.1020 C   0  0  0  0  0  0  0  0  0  0  0  0
   62.6180   32.1796   47.0432 H   0  0  0  0  0  0  0  0  0  0  0  0
   61.2160   33.8370   46.4760 C   0  0  0  0  0  0  0  0  0  0  0  0
   61.6068   33.8696   45.4483 H   0  0  0  0  0  0  0  0  0  0  0  0
   61.6600   34.6480   47.0720 H   0  0  0  0  0  0  0  0  0  0  0  0
   59.7460   34.0080   46.4460 N   0  0  0  0  0  0  0  0  0  0  0  0
   59.2790   34.9680   47.4740 C   0  0  0  0  0  0  0  0  0  0  0  0
   58.1863   35.0684   47.3965 H   0  0  0  0  0  0  0  0  0  0  0  0
   59.7795   35.9308   47.2937 H   0  0  0  0  0  0  0  0  0  0  0  0
   59.6340   34.5070   48.8880 C   0  0  0  0  0  0  0  0  0  0  0  0
   59.1340   35.1563   49.6217 H   0  0  0  0  0  0  0  0  0  0  0  0
   59.3001   33.4685   49.0298 H   0  0  0  0  0  0  0  0  0  0  0  0
   60.7233   34.5645   49.0298 H   0  0  0  0  0  0  0  0  0  0  0  0
   59.2320   34.2680   45.0750 C   0  0  0  0  0  0  0  0  0  0  0  0
   59.5593   35.2734   44.7717 H   0  0  0  0  0  0  0  0  0  0  0  0
   59.6361   33.4691   44.4359 H   0  0  0  0  0  0  0  0  0  0  0  0
   57.7020   34.2010   44.9370 C   0  0  0  0  0  0  0  0  0  0  0  0
   57.2442   34.1810   45.9370 H   0  0  0  0  0  0  0  0  0  0  0  0
   57.3444   35.0843   44.3876 H   0  0  0  0  0  0  0  0  0  0  0  0
   57.4229   33.2898   44.3876 H   0  0  0  0  0  0  0  0  0  0  0  0
  1  2  1  0
  2  3  1  0
  3  4  1  0
  4  5  2  0
  5  6  1  0
  6  7  1  0
  6  8  1  0
  6  9  1  0
  5 10  1  0
 10 11  1  0
 11 12  1  0
 11 13  1  0
 13 14  1  0
 13 15  2  3
 15 16  1  0
 15 17  1  0
 17 18  2  0
 17 19  1  0
 19 20  1  0
 19 21  1  0
 19 22  1  0
 10 23  1  0
 23 24  2  0
 23 25  1  0
 25 26  1  0
 26 27  2  0
 26 28  1  0
 28 29  2  0
 29 30  1  0
 29 31  1  0
 31 32  1  0
 31 33  1  0
 31 34  1  0
 34 35  1  0
 35 36  1  0
 35 37  1  0
 35 38  1  0
 38 39  1  0
 38 40  1  0
 38 41  1  0
 34 42  1  0
 42 43  1  0
 42 44  1  0
 42 45  1  0
 45 46  1  0
 45 47  1  0
 45 48  1  0
 25  3  2  0
M  END
>  <UniqueID>  (40) 
37

>  <SMILES>  (40) 
CCN(CC)C/C=N\C(=O)c1c(O)nc(C)n(NC=CC(C)=O)c1=O

>  <Energy>  (40) 
63.157296292601586

>  <Genealogy>  (40) 
CCN(CC)C/C=N\C(=O)c1c(O)nc(C)n(NC=CC(C)=O)c1=O (cis-trans isomerization)
CCN(CC)C/C=N\C(=O)c1c(O)nc(C)n(NC=CC(C)=O)c1=O (3D coordinates assigned)
CCN(CC)C/C=N\C(=O)c1c(O)nc(C)n(NC=CC(C)=O)c1=O (optimized conformer: 63.157296292601586 kcal/mol)

>  <smiles>  (40) 
CCN(CC)CC=NC(=O)c1c(O)nc(C)n(NC=CC(C)=O)c1=O

>  <score_type>  (40) 
oracle

>  <origin>  (40) 
adg

>  <m_score__min__energy>  (40) 
-6.3300000000000001

>  <m_primary>  (40) 
energy

$$$$
40:0
     RDKit          3D

 59 62  0  0  0  0  0  0  0  0999 V2000
   63.5940   32.2500   50.0120 C   0  0  0  0  0  0  0  0  0  0  0  0
   62.1510   32.5090   50.1320 N   0  0  0  0  0  0  0  0  0  0  0  0
   61.6370   33.8580   49.8420 C   0  0  0  0  0  0  0  0  0  0  0  0
   60.9790   33.9010   48.4860 C   0  0  0  0  0  0  0  0  0  0  0  0
   61.7550   33.7860   47.3040 C   0  0  0  0  0  0  0  0  0  0  0  0
   61.1470   33.8510   46.0380 C   0  0  0  0  0  0  0  0  0  0  0  0
   59.7660   34.0070   45.9910 C   0  0  0  0  0  0  0  0  0  0  0  0
   59.0120   34.0880   47.1160 C   0  0  0  0  0  0  0  0  0  0  0  0
   59.5750   34.0370   48.3860 C   0  0  0  0  0  0  0  0  0  0  0  0
   57.6810   34.2190   46.7700 O   0  0  0  0  0  0  0  0  0  0  0  0
   57.5950   34.2190   45.3380 C   0  0  0  0  0  0  0  0  0  0  0  0
   58.9510   34.0930   44.8800 O   0  0  0  0  0  0  0  0  0  0  0  0
   61.2860   31.4080   50.5040 C   0  0  0  0  0  0  0  0  0  0  0  0
   60.3660   31.6000   51.3450 O   0  0  0  0  0  0  0  0  0  0  0  0
   61.4640   30.0080   49.9670 C   0  0  0  0  0  0  0  0  0  0  0  0
   60.6670   29.8060   48.7380 N   0  0  0  0  0  0  0  0  0  0  0  0
   59.2430   30.1990   48.9460 C   0  0  0  0  0  0  0  0  0  0  0  0
   58.6220   30.9780   47.7730 C   0  0  0  0  0  0  0  0  0  0  0  0
   59.1150   30.4590   46.4960 N   0  0  0  0  0  0  0  0  0  0  0  0
   58.2300   30.3800   45.3710 C   0  0  0  0  0  0  0  0  0  0  0  0
   58.2810   31.3410   44.4020 N   0  0  0  0  0  0  0  0  0  0  0  0
   57.4390   31.3210   43.3340 C   0  0  0  0  0  0  0  0  0  0  0  0
   56.4900   30.3070   43.2080 C   0  0  0  0  0  0  0  0  0  0  0  0
   56.4140   29.3140   44.1840 C   0  0  0  0  0  0  0  0  0  0  0  0
   57.2920   29.3370   45.2790 C   0  0  0  0  0  0  0  0  0  0  0  0
   57.2730   28.3220   46.2960 N   0  0  0  0  0  0  0  0  0  0  0  0
   56.7090   26.6950   46.0930 S   0  0  0  0  0  0  0  0  0  0  0  0
   57.4250   25.9710   44.6300 C   0  0  0  0  0  0  0  0  0  0  0  0
   57.1330   25.8850   47.2880 O   0  0  0  0  0  0  0  0  0  0  0  0
   55.2090   26.6790   46.0060 O   0  0  0  0  0  0  0  0  0  0  0  0
   60.5470   30.2230   46.3100 C   0  0  0  0  0  0  0  0  0  0  0  0
   61.3130   30.5000   47.6050 C   0  0  0  0  0  0  0  0  0  0  0  0
   64.0370   32.1705   51.0157 H   0  0  0  0  0  0  0  0  0  0  0  0
   63.7534   31.3089   49.4653 H   0  0  0  0  0  0  0  0  0  0  0  0
   64.0707   33.0769   49.4653 H   0  0  0  0  0  0  0  0  0  0  0  0
   60.8995   34.1355   50.6095 H   0  0  0  0  0  0  0  0  0  0  0  0
   62.4799   34.5648   49.8471 H   0  0  0  0  0  0  0  0  0  0  0  0
   62.8433   33.6446   47.3788 H   0  0  0  0  0  0  0  0  0  0  0  0
   61.7433   33.7809   45.1163 H   0  0  0  0  0  0  0  0  0  0  0  0
   58.9468   34.1006   49.2867 H   0  0  0  0  0  0  0  0  0  0  0  0
   56.9890   33.3704   44.9878 H   0  0  0  0  0  0  0  0  0  0  0  0
   57.1143   35.1311   44.9547 H   0  0  0  0  0  0  0  0  0  0  0  0
   62.5271   29.8434   49.7373 H   0  0  0  0  0  0  0  0  0  0  0  0
   61.1191   29.2940   50.7294 H   0  0  0  0  0  0  0  0  0  0  0  0
   58.6527   29.2841   49.1026 H   0  0  0  0  0  0  0  0  0  0  0  0
   59.2265   30.8731   49.8151 H   0  0  0  0  0  0  0  0  0  0  0  0
   57.5275   30.8738   47.8080 H   0  0  0  0  0  0  0  0  0  0  0  0
   58.9045   32.0376   47.8598 H   0  0  0  0  0  0  0  0  0  0  0  0
   58.9700   32.1220   44.4830 H   0  0  0  0  0  0  0  0  0  0  0  0
   57.5068   32.1070   42.5674 H   0  0  0  0  0  0  0  0  0  0  0  0
   55.8071   30.2906   42.3458 H   0  0  0  0  0  0  0  0  0  0  0  0
   55.6658   28.5124   44.0958 H   0  0  0  0  0  0  0  0  0  0  0  0
   58.1708   25.2168   44.9215 H   0  0  0  0  0  0  0  0  0  0  0  0
   56.6344   25.4931   44.0328 H   0  0  0  0  0  0  0  0  0  0  0  0
   57.9116   26.7562   44.0328 H   0  0  0  0  0  0  0  0  0  0  0  0
   60.7049   29.1754   46.0140 H   0  0  0  0  0  0  0  0  0  0  0  0
   60.9185   30.9007   45.5273 H   0  0  0  0  0  0  0  0  0  0  0  0
   62.3469   30.1395   47.4998 H   0  0  0  0  0  0  0  0  0  0  0  0
   61.3108   31.5828   47.7988 H   0  0  0  0  0  0  0  0  0  0  0  0
  1  2  1  0
  2  3  1  0
  3  4  1  0
  4  5  2  0
  5  6  1  0
  6  7  2  0
  7  8  1  0
  8  9  2  0
  8 10  1  0
 10 11  1  0
 11 12  1  0
  2 13  1  0
 13 14  2  0
 13 15  1  0
 15 16  1  0
 16 17  1  0
 17 18  1  0
 18 19  1  0
 19 20  1  0
 20 21  2  0
 21 22  1  0
 22 23  2  0
 23 24  1  0
 24 25  2  0
 25 26  1  0
 26 27  1  0
 27 28  1  0
 27 29  2  0
 27 30  2  0
 19 31  1  0
 31 32  1  0
  9  4  1  0
 32 16  1  0
 12  7  1  0
 25 20  1  0
  1 33  1  0
  1 34  1  0
  1 35  1  0
  3 36  1  0
  3 37  1  0
  5 38  1  0
  6 39  1  0
  9 40  1  0
 11 41  1  0
 11 42  1  0
 15 43  1  0
 15 44  1  0
 17 45  1  0
 17 46  1  0
 18 47  1  0
 18 48  1  0
 21 49  1  0
 22 50  1  0
 23 51  1  0
 24 52  1  0
 28 53  1  0
 28 54  1  0
 28 55  1  0
 31 56  1  0
 31 57  1  0
 32 58  1  0
 32 59  1  0
M  CHG  2  21   1  26  -1
M  END
>  <UniqueID>  (41) 
38

>  <SMILES>  (41) 
CN(Cc1ccc2c(c1)OCO2)C(=O)CN1CCN(c2[nH+]cccc2[N-]S(C)(=O)=O)CC1

>  <Energy>  (41) 
98.1684763082458

>  <Genealogy>  (41) 
CN(Cc1ccc2c(c1)OCO2)C(=O)CN1CCN(c2[nH+]cccc2[N-]S(C)(=O)=O)CC1 (protonated)
CN(Cc1ccc2c(c1)OCO2)C(=O)CN1CCN(c2[nH+]cccc2[N-]S(C)(=O)=O)CC1 (3D coordinates assigned)
CN(Cc1ccc2c(c1)OCO2)C(=O)CN1CCN(c2[nH+]cccc2[N-]S(C)(=O)=O)CC1 (nonaromatic ring conformer: 98.1684763082458 kcal/mol)

>  <smiles>  (41) 
CN(Cc1ccc2c(c1)OCO2)C(=O)CN1CCN(c2ncccc2NS(C)(=O)=O)CC1

>  <score_type>  (41) 
oracle

>  <origin>  (41) 
adg

>  <m_score__min__energy>  (41) 
-8.1500000000000004

>  <m_primary>  (41) 
energy

$$$$
41:0
     RDKit          3D

 54 56  0  0  0  0  0  0  0  0999 V2000
   57.4390   25.2530   43.5740 C   0  0  0  0  0  0  0  0  0  0  0  0
   56.7460   25.0570   44.8520 N   0  0  0  0  0  0  0  0  0  0  0  0
   56.0800   23.7830   45.1430 C   0  0  0  0  0  0  0  0  0  0  0  0
   56.6530   26.1340   45.8070 C   0  0  0  0  0  0  0  0  0  0  0  0
   55.8510   26.0500   46.7750 O   0  0  0  0  0  0  0  0  0  0  0  0
   57.4840   27.3480   45.6790 C   0  0  0  0  0  0  0  0  0  0  0  0
   58.8730   27.3030   45.9270 C   0  0  0  0  0  0  0  0  0  0  0  0
   59.5120   26.1290   46.3340 O   0  0  0  0  0  0  0  0  0  0  0  0
   59.6410   28.4610   45.7820 C   0  0  0  0  0  0  0  0  0  0  0  0
   59.0450   29.6620   45.3980 C   0  0  0  0  0  0  0  0  0  0  0  0
   57.6670   29.7230   45.1330 C   0  0  0  0  0  0  0  0  0  0  0  0
   57.0410   31.0100   44.7460 C   0  0  0  0  0  0  0  0  0  0  0  0
   55.7840   31.0890   44.7060 O   0  0  0  0  0  0  0  0  0  0  0  0
   57.8260   32.2240   44.4310 C   0  0  0  0  0  0  0  0  0  0  0  0
   58.0210   33.2130   45.3140 C   0  0  0  0  0  0  0  0  0  0  0  0
   59.1940   33.2940   46.2190 C   0  0  0  0  0  0  0  0  0  0  0  0
   59.0690   32.7950   47.5250 C   0  0  0  0  0  0  0  0  0  0  0  0
   60.1480   32.8400   48.4110 C   0  0  0  0  0  0  0  0  0  0  0  0
   61.3830   33.3770   48.0100 C   0  0  0  0  0  0  0  0  0  0  0  0
   62.4990   33.4230   48.9260 N   0  0  0  0  0  0  0  0  0  0  0  0
   62.5950   34.5010   49.9240 C   0  0  0  0  0  0  0  0  0  0  0  0
   63.3660   34.0260   51.1600 C   0  0  0  0  0  0  0  0  0  0  0  0
   64.7700   33.5020   50.8080 C   0  0  0  0  0  0  0  0  0  0  0  0
   64.8830   32.9470   49.3750 C   0  0  0  0  0  0  0  0  0  0  0  0
   63.5500   32.3930   48.8610 C   0  0  0  0  0  0  0  0  0  0  0  0
   61.5130   33.8640   46.6980 C   0  0  0  0  0  0  0  0  0  0  0  0
   60.4340   33.8180   45.8100 C   0  0  0  0  0  0  0  0  0  0  0  0
   56.8880   28.5580   45.2770 C   0  0  0  0  0  0  0  0  0  0  0  0
   55.5230   28.5960   44.9960 O   0  0  0  0  0  0  0  0  0  0  0  0
   58.4816   25.5479   43.7637 H   0  0  0  0  0  0  0  0  0  0  0  0
   57.4219   24.3148   43.0000 H   0  0  0  0  0  0  0  0  0  0  0  0
   56.9331   26.0433   43.0000 H   0  0  0  0  0  0  0  0  0  0  0  0
   56.0088   23.6469   46.2322 H   0  0  0  0  0  0  0  0  0  0  0  0
   55.0699   23.7894   44.7075 H   0  0  0  0  0  0  0  0  0  0  0  0
   56.6618   22.9573   44.7075 H   0  0  0  0  0  0  0  0  0  0  0  0
   59.0090   25.2870   46.5820 H   0  0  0  0  0  0  0  0  0  0  0  0
   60.7239   28.4252   45.9721 H   0  0  0  0  0  0  0  0  0  0  0  0
   59.6594   30.5693   45.3018 H   0  0  0  0  0  0  0  0  0  0  0  0
   58.2687   32.3188   43.4285 H   0  0  0  0  0  0  0  0  0  0  0  0
   57.2670   34.0119   45.3712 H   0  0  0  0  0  0  0  0  0  0  0  0
   58.1118   32.3642   47.8540 H   0  0  0  0  0  0  0  0  0  0  0  0
   60.0297   32.4511   49.4331 H   0  0  0  0  0  0  0  0  0  0  0  0
   63.1192   35.3596   49.4791 H   0  0  0  0  0  0  0  0  0  0  0  0
   61.5792   34.7916   50.2302 H   0  0  0  0  0  0  0  0  0  0  0  0
   63.4683   34.8694   51.8587 H   0  0  0  0  0  0  0  0  0  0  0  0
   62.8009   33.1968   51.6106 H   0  0  0  0  0  0  0  0  0  0  0  0
   65.4869   34.3291   50.9176 H   0  0  0  0  0  0  0  0  0  0  0  0
   64.9830   32.6683   51.4932 H   0  0  0  0  0  0  0  0  0  0  0  0
   65.2113   33.7566   48.7066 H   0  0  0  0  0  0  0  0  0  0  0  0
   65.6086   32.1204   49.3897 H   0  0  0  0  0  0  0  0  0  0  0  0
   63.6725   32.0673   47.8175 H   0  0  0  0  0  0  0  0  0  0  0  0
   63.2525   31.5434   49.4932 H   0  0  0  0  0  0  0  0  0  0  0  0
   62.4734   34.2856   46.3664 H   0  0  0  0  0  0  0  0  0  0  0  0
   60.5555   34.1944   44.7836 H   0  0  0  0  0  0  0  0  0  0  0  0
  1  2  1  0
  2  3  1  0
  2  4  1  0
  4  5  2  0
  4  6  1  0
  6  7  2  0
  7  8  1  0
  7  9  1  0
  9 10  2  0
 10 11  1  0
 11 12  1  0
 12 13  2  0
 12 14  1  0
 14 15  2  3
 15 16  1  0
 16 17  2  0
 17 18  1  0
 18 19  2  0
 19 20  1  0
 20 21  1  0
 21 22  1  0
 22 23  1  0
 23 24  1  0
 24 25  1  0
 19 26  1  0
 26 27  2  0
 11 28  2  0
 28 29  1  0
 28  6  1  0
 27 16  1  0
 25 20  1  0
  1 30  1  0
  1 31  1  0
  1 32  1  0
  3 33  1  0
  3 34  1  0
  3 35  1  0
  8 36  1  0
  9 37  1  0
 10 38  1  0
 14 39  1  0
 15 40  1  0
 17 41  1  0
 18 42  1  0
 21 43  1  0
 21 44  1  0
 22 45  1  0
 22 46  1  0
 23 47  1  0
 23 48  1  0
 24 49  1  0
 24 50  1  0
 25 51  1  0
 25 52  1  0
 26 53  1  0
 27 54  1  0
M  CHG  1  29  -1
M  END
>  <UniqueID>  (42) 
39

>  <SMILES>  (42) 
CN(C)C(=O)c1c(O)ccc(C(=O)C=Cc2ccc(N3CCCCC3)cc2)c1[O-]

>  <Energy>  (42) 
72.79882559580939

>  <Genealogy>  (42) 
CN(C)C(=O)c1c(O)ccc(C(=O)C=Cc2ccc(N3CCCCC3)cc2)c1[O-] (protonated)
CN(C)C(=O)c1c(O)ccc(C(=O)C=Cc2ccc(N3CCCCC3)cc2)c1[O-] (3D coordinates assigned)
CN(C)C(=O)c1c(O)ccc(C(=O)C=Cc2ccc(N3CCCCC3)cc2)c1[O-] (nonaromatic ring conformer: 72.79882559580939 kcal/mol)

>  <smiles>  (42) 
CN(C)C(=O)c1c(O)ccc(C(=O)C=Cc2ccc(N3CCCCC3)cc2)c1O

>  <score_type>  (42) 
oracle

>  <origin>  (42) 
adg

>  <m_score__min__energy>  (42) 
-12.789999999999999

>  <m_primary>  (42) 
energy

$$$$
42:0
     RDKit          3D

 62 65  0  0  0  0  0  0  0  0999 V2000
   65.5780   32.7190   49.7980 C   0  0  0  0  0  0  0  0  0  0  0  0
   64.4980   32.9810   48.8540 N   0  0  0  0  0  0  0  0  0  0  0  0
   63.3450   33.7550   49.2260 C   0  0  0  0  0  0  0  0  0  0  0  0
   63.3430   34.3730   50.3260 O   0  0  0  0  0  0  0  0  0  0  0  0
   62.1630   33.8510   48.3350 C   0  0  0  0  0  0  0  0  0  0  0  0
   62.2670   33.5900   46.9580 C   0  0  0  0  0  0  0  0  0  0  0  0
   61.1420   33.6730   46.1310 C   0  0  0  0  0  0  0  0  0  0  0  0
   59.8860   34.0120   46.6630 C   0  0  0  0  0  0  0  0  0  0  0  0
   58.6950   34.0970   45.7860 C   0  0  0  0  0  0  0  0  0  0  0  0
   58.6340   34.9810   44.8880 O   0  0  0  0  0  0  0  0  0  0  0  0
   57.6130   33.1720   45.9500 N   0  0  0  0  0  0  0  0  0  0  0  0
   57.7700   31.7200   45.9160 C   0  0  0  0  0  0  0  0  0  0  0  0
   58.2220   31.2800   44.5030 C   0  0  0  0  0  0  0  0  0  0  0  0
   59.1970   30.0890   44.5140 C   0  0  0  0  0  0  0  0  0  0  0  0
   58.9080   29.1840   45.6370 N   0  0  0  0  0  0  0  0  0  0  0  0
   58.6480   27.7810   45.4030 C   0  0  0  0  0  0  0  0  0  0  0  0
   57.9830   27.3430   44.2440 C   0  0  0  0  0  0  0  0  0  0  0  0
   57.7560   25.9810   44.0500 C   0  0  0  0  0  0  0  0  0  0  0  0
   58.1850   25.0560   45.0070 C   0  0  0  0  0  0  0  0  0  0  0  0
   57.8900   23.3300   44.7860 S   0  0  0  0  0  0  0  0  0  0  0  0
   59.1870   22.5920   44.9720 O   0  0  0  0  0  0  0  0  0  0  0  0
   57.4240   23.0870   43.3770 O   0  0  0  0  0  0  0  0  0  0  0  0
   56.7030   22.6980   45.9070 N   0  0  0  0  0  0  0  0  0  0  0  0
   55.3190   22.9040   45.4420 C   0  0  0  0  0  0  0  0  0  0  0  0
   54.7760   24.3180   45.7580 C   0  0  0  0  0  0  0  0  0  0  0  0
   55.6220   25.0640   46.6100 O   0  0  0  0  0  0  0  0  0  0  0  0
   55.9860   24.2810   47.7230 C   0  0  0  0  0  0  0  0  0  0  0  0
   56.9310   23.1460   47.2970 C   0  0  0  0  0  0  0  0  0  0  0  0
   58.8500   25.5220   46.1440 C   0  0  0  0  0  0  0  0  0  0  0  0
   59.0600   26.8550   46.3140 N   0  0  0  0  0  0  0  0  0  0  0  0
   58.8750   29.7360   47.0030 C   0  0  0  0  0  0  0  0  0  0  0  0
   58.7690   31.2680   46.9950 C   0  0  0  0  0  0  0  0  0  0  0  0
   59.7800   34.2620   48.0420 C   0  0  0  0  0  0  0  0  0  0  0  0
   60.9050   34.1780   48.8690 C   0  0  0  0  0  0  0  0  0  0  0  0
   65.1971   32.8114   50.8258 H   0  0  0  0  0  0  0  0  0  0  0  0
   65.9641   31.7011   49.6402 H   0  0  0  0  0  0  0  0  0  0  0  0
   66.3876   33.4468   49.6402 H   0  0  0  0  0  0  0  0  0  0  0  0
   64.6020   32.6280   47.8760 H   0  0  0  0  0  0  0  0  0  0  0  0
   63.2417   33.3180   46.5268 H   0  0  0  0  0  0  0  0  0  0  0  0
   61.2412   33.4711   45.0542 H   0  0  0  0  0  0  0  0  0  0  0  0
   56.8051   31.2390   46.1340 H   0  0  0  0  0  0  0  0  0  0  0  0
   57.3305   30.9949   43.9252 H   0  0  0  0  0  0  0  0  0  0  0  0
   58.7553   32.1309   44.0540 H   0  0  0  0  0  0  0  0  0  0  0  0
   59.0980   29.5339   43.5695 H   0  0  0  0  0  0  0  0  0  0  0  0
   60.2210   30.4743   44.6279 H   0  0  0  0  0  0  0  0  0  0  0  0
   57.6433   28.0719   43.4935 H   0  0  0  0  0  0  0  0  0  0  0  0
   57.2390   25.6338   43.1433 H   0  0  0  0  0  0  0  0  0  0  0  0
   55.2897   22.7532   44.3528 H   0  0  0  0  0  0  0  0  0  0  0  0
   54.6832   22.1820   45.9754 H   0  0  0  0  0  0  0  0  0  0  0  0
   54.6609   24.8673   44.8120 H   0  0  0  0  0  0  0  0  0  0  0  0
   53.8173   24.1894   46.2818 H   0  0  0  0  0  0  0  0  0  0  0  0
   56.4946   24.9172   48.4623 H   0  0  0  0  0  0  0  0  0  0  0  0
   55.0777   23.8419   48.1614 H   0  0  0  0  0  0  0  0  0  0  0  0
   57.9683   23.5013   47.3854 H   0  0  0  0  0  0  0  0  0  0  0  0
   56.7342   22.2879   47.9565 H   0  0  0  0  0  0  0  0  0  0  0  0
   59.2044   24.8093   46.9032 H   0  0  0  0  0  0  0  0  0  0  0  0
   58.0054   29.3214   47.5339 H   0  0  0  0  0  0  0  0  0  0  0  0
   59.8132   29.4602   47.5067 H   0  0  0  0  0  0  0  0  0  0  0  0
   58.4230   31.6145   47.9800 H   0  0  0  0  0  0  0  0  0  0  0  0
   59.7575   31.6975   46.7749 H   0  0  0  0  0  0  0  0  0  0  0  0
   58.8038   34.5260   48.4747 H   0  0  0  0  0  0  0  0  0  0  0  0
   60.8040   34.3697   49.9474 H   0  0  0  0  0  0  0  0  0  0  0  0
  1  2  1  0
  2  3  1  0
  3  4  2  0
  3  5  1  0
  5  6  2  0
  6  7  1  0
  7  8  2  0
  8  9  1  0
  9 10  2  0
  9 11  1  0
 11 12  1  0
 12 13  1  0
 13 14  1  0
 14 15  1  0
 15 16  1  0
 16 17  2  0
 17 18  1  0
 18 19  2  0
 19 20  1  0
 20 21  2  0
 20 22  2  0
 20 23  1  0
 23 24  1  0
 24 25  1  0
 25 26  1  0
 26 27  1  0
 27 28  1  0
 19 29  1  0
 29 30  2  0
 15 31  1  0
 31 32  1  0
  8 33  1  0
 33 34  2  0
 34  5  1  0
 32 12  1  0
 30 16  1  0
 28 23  1  0
  1 35  1  0
  1 36  1  0
  1 37  1  0
  2 38  1  0
  6 39  1  0
  7 40  1  0
 12 41  1  0
 13 42  1  0
 13 43  1  0
 14 44  1  0
 14 45  1  0
 17 46  1  0
 18 47  1  0
 24 48  1  0
 24 49  1  0
 25 50  1  0
 25 51  1  0
 27 52  1  0
 27 53  1  0
 28 54  1  0
 28 55  1  0
 29 56  1  0
 31 57  1  0
 31 58  1  0
 32 59  1  0
 32 60  1  0
 33 61  1  0
 34 62  1  0
M  CHG  1  11  -1
M  END
>  <UniqueID>  (43) 
40

>  <SMILES>  (43) 
CNC(=O)c1ccc(C(=O)[N-]C2CCN(c3ccc(S(=O)(=O)N4CCOCC4)cn3)CC2)cc1

>  <Energy>  (43) 
78.91771520349494

>  <Genealogy>  (43) 
CNC(=O)c1ccc(C(=O)[N-]C2CCN(c3ccc(S(=O)(=O)N4CCOCC4)cn3)CC2)cc1 (protonated)
CNC(=O)c1ccc(C(=O)[N-]C2CCN(c3ccc(S(=O)(=O)N4CCOCC4)cn3)CC2)cc1 (3D coordinates assigned)
CNC(=O)c1ccc(C(=O)[N-]C2CCN(c3ccc(S(=O)(=O)N4CCOCC4)cn3)CC2)cc1 (nonaromatic ring conformer: 78.91771520349494 kcal/mol)

>  <smiles>  (43) 
CNC(=O)c1ccc(C(=O)NC2CCN(c3ccc(S(=O)(=O)N4CCOCC4)cn3)CC2)cc1

>  <score_type>  (43) 
oracle

>  <origin>  (43) 
adg

>  <m_score__min__energy>  (43) 
-10.949999999999999

>  <m_primary>  (43) 
energy

$$$$
43:0
     RDKit          3D

 53 55  0  0  0  0  0  0  0  0999 V2000
   57.5720   28.1550   44.7880 C   0  0  0  0  0  0  0  0  0  0  0  0
   58.0140   28.9900   45.9590 C   0  0  0  0  0  0  0  0  0  0  0  0
   57.8960   30.3890   46.0020 C   0  0  0  0  0  0  0  0  0  0  0  0
   57.4020   31.2800   44.9290 C   0  0  0  0  0  0  0  0  0  0  0  0
   56.2740   31.0580   44.4130 O   0  0  0  0  0  0  0  0  0  0  0  0
   58.2070   32.3620   44.4220 N   0  0  0  0  0  0  0  0  0  0  0  0
   58.1700   32.6720   42.9930 C   0  0  0  0  0  0  0  0  0  0  0  0
   59.0690   33.1490   45.3060 C   0  0  0  0  0  0  0  0  0  0  0  0
   58.5290   30.9330   47.4650 S   0  0  0  0  0  0  0  0  0  0  0  0
   58.9720   29.4210   48.0490 C   0  0  0  0  0  0  0  0  0  0  0  0
   59.5710   29.1520   49.3230 N   0  0  0  0  0  0  0  0  0  0  0  0
   59.7440   30.1210   50.3650 C   0  0  0  0  0  0  0  0  0  0  0  0
   60.9070   30.5060   50.6540 O   0  0  0  0  0  0  0  0  0  0  0  0
   58.5970   30.6820   51.1010 C   0  0  0  0  0  0  0  0  0  0  0  0
   57.6770   29.9230   51.8000 C   0  0  0  0  0  0  0  0  0  0  0  0
   56.7060   30.8160   52.2240 C   0  0  0  0  0  0  0  0  0  0  0  0
   55.4550   30.5020   52.8490 N   0  0  0  0  0  0  0  0  0  0  0  0
   54.2010   30.4590   52.1520 C   0  0  0  0  0  0  0  0  0  0  0  0
   54.1660   30.1780   50.9240 O   0  0  0  0  0  0  0  0  0  0  0  0
   52.9320   30.6540   52.8880 C   0  0  0  0  0  0  0  0  0  0  0  0
   52.9040   30.3320   54.2570 C   0  0  0  0  0  0  0  0  0  0  0  0
   51.7670   30.5860   55.0240 C   0  0  0  0  0  0  0  0  0  0  0  0
   50.6430   31.1640   54.4390 C   0  0  0  0  0  0  0  0  0  0  0  0
   50.6430   31.4710   53.0770 C   0  0  0  0  0  0  0  0  0  0  0  0
   51.7700   31.2040   52.2780 C   0  0  0  0  0  0  0  0  0  0  0  0
   51.6650   31.4490   50.8180 C   0  0  0  0  0  0  0  0  0  0  0  0
   51.7600   30.5010   49.9950 O   0  0  0  0  0  0  0  0  0  0  0  0
   51.4030   32.7290   50.3430 O   0  0  0  0  0  0  0  0  0  0  0  0
   57.0700   32.0710   51.7800 C   0  0  0  0  0  0  0  0  0  0  0  0
   58.2350   31.9870   51.1110 N   0  0  0  0  0  0  0  0  0  0  0  0
   58.9090   33.1090   50.4610 C   0  0  0  0  0  0  0  0  0  0  0  0
   58.6180   28.4540   47.1170 C   0  0  0  0  0  0  0  0  0  0  0  0
   58.8740   27.0500   47.3230 C   0  0  0  0  0  0  0  0  0  0  0  0
   59.0810   25.9230   47.4870 N   0  0  0  0  0  0  0  0  0  0  0  0
   57.0867   27.2382   45.1538 H   0  0  0  0  0  0  0  0  0  0  0  0
   56.8593   28.7284   44.1770 H   0  0  0  0  0  0  0  0  0  0  0  0
   58.4469   27.8880   44.1770 H   0  0  0  0  0  0  0  0  0  0  0  0
   58.0406   33.7558   42.8561 H   0  0  0  0  0  0  0  0  0  0  0  0
   59.1126   32.3531   42.5241 H   0  0  0  0  0  0  0  0  0  0  0  0
   57.3290   32.1402   42.5241 H   0  0  0  0  0  0  0  0  0  0  0  0
   58.8225   32.9239   46.3541 H   0  0  0  0  0  0  0  0  0  0  0  0
   60.1216   32.8939   45.1140 H   0  0  0  0  0  0  0  0  0  0  0  0
   58.9105   34.2205   45.1140 H   0  0  0  0  0  0  0  0  0  0  0  0
   57.7090   28.8385   51.9814 H   0  0  0  0  0  0  0  0  0  0  0  0
   55.4490   30.3550   53.8830 H   0  0  0  0  0  0  0  0  0  0  0  0
   53.7874   29.8754   54.7273 H   0  0  0  0  0  0  0  0  0  0  0  0
   51.7581   30.3292   56.0936 H   0  0  0  0  0  0  0  0  0  0  0  0
   49.7543   31.3789   55.0507 H   0  0  0  0  0  0  0  0  0  0  0  0
   49.7510   31.9272   52.6230 H   0  0  0  0  0  0  0  0  0  0  0  0
   56.4976   32.9954   51.9467 H   0  0  0  0  0  0  0  0  0  0  0  0
   59.3156   33.7859   51.2268 H   0  0  0  0  0  0  0  0  0  0  0  0
   59.7293   32.7303   49.8335 H   0  0  0  0  0  0  0  0  0  0  0  0
   58.1894   33.6553   49.8335 H   0  0  0  0  0  0  0  0  0  0  0  0
  1  2  1  0
  2  3  2  0
  3  4  1  0
  4  5  2  0
  4  6  1  0
  6  7  1  0
  6  8  1  0
  3  9  1  0
  9 10  1  0
 10 11  1  0
 11 12  1  0
 12 13  2  0
 12 14  1  0
 14 15  2  0
 15 16  1  0
 16 17  1  0
 17 18  1  0
 18 19  2  0
 18 20  1  0
 20 21  2  0
 21 22  1  0
 22 23  2  0
 23 24  1  0
 24 25  2  0
 25 26  1  0
 26 27  2  0
 26 28  1  0
 16 29  2  0
 29 30  1  0
 30 31  1  0
 10 32  2  0
 32 33  1  0
 33 34  3  0
 32  2  1  0
 30 14  1  0
 25 20  1  0
  1 35  1  0
  1 36  1  0
  1 37  1  0
  7 38  1  0
  7 39  1  0
  7 40  1  0
  8 41  1  0
  8 42  1  0
  8 43  1  0
 15 44  1  0
 17 45  1  0
 21 46  1  0
 22 47  1  0
 23 48  1  0
 24 49  1  0
 29 50  1  0
 31 51  1  0
 31 52  1  0
 31 53  1  0
M  CHG  2  11  -1  28  -1
M  END
>  <UniqueID>  (44) 
41

>  <SMILES>  (44) 
Cc1c(C(=O)N(C)C)sc([N-]C(=O)c2cc(NC(=O)c3ccccc3C(=O)[O-])cn2C)c1C#N

>  <Energy>  (44) 
125.32257270700349

>  <Genealogy>  (44) 
Cc1c(C(=O)N(C)C)sc([N-]C(=O)c2cc(NC(=O)c3ccccc3C(=O)[O-])cn2C)c1C#N (protonated)
Cc1c(C(=O)N(C)C)sc([N-]C(=O)c2cc(NC(=O)c3ccccc3C(=O)[O-])cn2C)c1C#N (3D coordinates assigned)
Cc1c(C(=O)N(C)C)sc([N-]C(=O)c2cc(NC(=O)c3ccccc3C(=O)[O-])cn2C)c1C#N (optimized conformer: 125.32257270700349 kcal/mol)

>  <smiles>  (44) 
Cc1c(C(=O)N(C)C)sc(NC(=O)c2cc(NC(=O)c3ccccc3C(=O)O)cn2C)c1C#N

>  <score_type>  (44) 
oracle

>  <origin>  (44) 
adg

>  <m_score__min__energy>  (44) 
-12.69

>  <m_primary>  (44) 
energy

$$$$
44:0
     RDKit          3D

 60 63  0  0  0  0  0  0  0  0999 V2000
   62.4610   33.8770   45.9600 O   0  0  0  0  0  0  0  0  0  0  0  0
   61.8330   33.9140   47.0510 C   0  0  0  0  0  0  0  0  0  0  0  0
   60.4100   34.3200   47.0400 C   0  0  0  0  0  0  0  0  0  0  0  0
   59.6880   34.3790   45.9110 C   0  0  0  0  0  0  0  0  0  0  0  0
   58.8930   33.2460   45.3770 C   0  0  0  0  0  0  0  0  0  0  0  0
   58.6730   32.1320   46.2050 C   0  0  0  0  0  0  0  0  0  0  0  0
   57.8880   31.0620   45.7660 C   0  0  0  0  0  0  0  0  0  0  0  0
   57.3170   31.0770   44.4820 C   0  0  0  0  0  0  0  0  0  0  0  0
   56.4720   29.9960   44.0490 N   0  0  0  0  0  0  0  0  0  0  0  0
   56.6040   29.5020   42.9080 O   0  0  0  0  0  0  0  0  0  0  0  0
   55.4720   29.5190   44.8680 O   0  0  0  0  0  0  0  0  0  0  0  0
   57.5790   32.1680   43.6340 C   0  0  0  0  0  0  0  0  0  0  0  0
   58.3580   33.2410   44.0750 C   0  0  0  0  0  0  0  0  0  0  0  0
   62.5340   33.6110   48.2630 N   0  0  0  0  0  0  0  0  0  0  0  0
   62.3450   32.4170   49.0350 C   0  0  0  0  0  0  0  0  0  0  0  0
   63.3670   31.9150   49.8570 C   0  0  0  0  0  0  0  0  0  0  0  0
   63.1680   30.7360   50.5810 C   0  0  0  0  0  0  0  0  0  0  0  0
   61.9580   30.0470   50.4770 C   0  0  0  0  0  0  0  0  0  0  0  0
   60.9340   30.5390   49.6560 C   0  0  0  0  0  0  0  0  0  0  0  0
   59.4810   29.5820   49.4010 S   0  0  0  0  0  0  0  0  0  0  0  0
   58.8310   29.2620   50.7180 O   0  0  0  0  0  0  0  0  0  0  0  0
   58.4980   30.3460   48.5600 O   0  0  0  0  0  0  0  0  0  0  0  0
   59.9280   28.1270   48.5710 N   0  0  0  0  0  0  0  0  0  0  0  0
   59.4250   27.8630   47.2580 C   0  0  0  0  0  0  0  0  0  0  0  0
   60.0380   28.4300   46.1330 C   0  0  0  0  0  0  0  0  0  0  0  0
   59.5090   28.2110   44.8590 C   0  0  0  0  0  0  0  0  0  0  0  0
   58.3710   27.4190   44.7000 C   0  0  0  0  0  0  0  0  0  0  0  0
   57.7620   26.8210   45.8150 C   0  0  0  0  0  0  0  0  0  0  0  0
   56.5460   26.0110   45.6240 C   0  0  0  0  0  0  0  0  0  0  0  0
   55.4420   26.4870   46.0030 O   0  0  0  0  0  0  0  0  0  0  0  0
   56.5730   24.7370   44.9530 N   0  0  0  0  0  0  0  0  0  0  0  0
   57.7760   24.0820   44.4620 C   0  0  0  0  0  0  0  0  0  0  0  0
   57.3010   22.8090   43.7740 C   0  0  0  0  0  0  0  0  0  0  0  0
   55.8070   22.9970   43.5280 C   0  0  0  0  0  0  0  0  0  0  0  0
   55.3570   24.0820   44.4970 C   0  0  0  0  0  0  0  0  0  0  0  0
   58.2900   27.0550   47.0950 C   0  0  0  0  0  0  0  0  0  0  0  0
   61.1250   31.7370   48.9520 C   0  0  0  0  0  0  0  0  0  0  0  0
   59.9266   34.5830   47.9925 H   0  0  0  0  0  0  0  0  0  0  0  0
   59.6852   35.3237   45.3476 H   0  0  0  0  0  0  0  0  0  0  0  0
   59.1229   32.1018   47.2083 H   0  0  0  0  0  0  0  0  0  0  0  0
   57.7160   30.2022   46.4302 H   0  0  0  0  0  0  0  0  0  0  0  0
   57.1669   32.1767   42.6142 H   0  0  0  0  0  0  0  0  0  0  0  0
   58.5544   34.0873   43.4003 H   0  0  0  0  0  0  0  0  0  0  0  0
   64.3252   32.4502   49.9312 H   0  0  0  0  0  0  0  0  0  0  0  0
   63.9654   30.3506   51.2333 H   0  0  0  0  0  0  0  0  0  0  0  0
   61.8078   29.1148   51.0414 H   0  0  0  0  0  0  0  0  0  0  0  0
   60.2170   27.3190   49.1640 H   0  0  0  0  0  0  0  0  0  0  0  0
   60.9388   29.0497   46.2534 H   0  0  0  0  0  0  0  0  0  0  0  0
   59.9902   28.6636   43.9795 H   0  0  0  0  0  0  0  0  0  0  0  0
   57.9490   27.2624   43.6963 H   0  0  0  0  0  0  0  0  0  0  0  0
   58.3014   24.7315   43.7464 H   0  0  0  0  0  0  0  0  0  0  0  0
   58.4809   23.8637   45.2777 H   0  0  0  0  0  0  0  0  0  0  0  0
   57.8309   22.6694   42.8202 H   0  0  0  0  0  0  0  0  0  0  0  0
   57.4993   21.9196   44.3902 H   0  0  0  0  0  0  0  0  0  0  0  0
   55.6271   23.3128   42.4898 H   0  0  0  0  0  0  0  0  0  0  0  0
   55.2513   22.0606   43.6842 H   0  0  0  0  0  0  0  0  0  0  0  0
   54.7019   24.8034   43.9866 H   0  0  0  0  0  0  0  0  0  0  0  0
   54.7847   23.6618   45.3371 H   0  0  0  0  0  0  0  0  0  0  0  0
   57.8106   26.6019   47.9753 H   0  0  0  0  0  0  0  0  0  0  0  0
   60.3123   32.1436   48.3321 H   0  0  0  0  0  0  0  0  0  0  0  0
  1  2  2  0
  2  3  1  0
  3  4  2  3
  4  5  1  0
  5  6  2  0
  6  7  1  0
  7  8  2  0
  8  9  1  0
  9 10  2  0
  9 11  1  0
  8 12  1  0
 12 13  2  0
  2 14  1  0
 14 15  1  0
 15 16  2  0
 16 17  1  0
 17 18  2  0
 18 19  1  0
 19 20  1  0
 20 21  2  0
 20 22  2  0
 20 23  1  0
 23 24  1  0
 24 25  2  0
 25 26  1  0
 26 27  2  0
 27 28  1  0
 28 29  1  0
 29 30  2  0
 29 31  1  0
 31 32  1  0
 32 33  1  0
 33 34  1  0
 34 35  1  0
 28 36  2  0
 19 37  2  0
 13  5  1  0
 37 15  1  0
 36 24  1  0
 35 31  1  0
  3 38  1  0
  4 39  1  0
  6 40  1  0
  7 41  1  0
 12 42  1  0
 13 43  1  0
 16 44  1  0
 17 45  1  0
 18 46  1  0
 23 47  1  0
 25 48  1  0
 26 49  1  0
 27 50  1  0
 32 51  1  0
 32 52  1  0
 33 53  1  0
 33 54  1  0
 34 55  1  0
 34 56  1  0
 35 57  1  0
 35 58  1  0
 36 59  1  0
 37 60  1  0
M  CHG  3   9   1  11  -1  14  -1
M  END
>  <UniqueID>  (45) 
42

>  <SMILES>  (45) 
O=C(C=Cc1ccc([N+](=O)[O-])cc1)[N-]c1cccc(S(=O)(=O)Nc2cccc(C(=O)N3CCCC3)c2)c1

>  <Energy>  (45) 
79.63291137447625

>  <Genealogy>  (45) 
O=C(C=Cc1ccc([N+](=O)[O-])cc1)[N-]c1cccc(S(=O)(=O)Nc2cccc(C(=O)N3CCCC3)c2)c1 (protonated)
O=C(C=Cc1ccc([N+](=O)[O-])cc1)[N-]c1cccc(S(=O)(=O)Nc2cccc(C(=O)N3CCCC3)c2)c1 (3D coordinates assigned)
O=C(C=Cc1ccc([N+](=O)[O-])cc1)[N-]c1cccc(S(=O)(=O)Nc2cccc(C(=O)N3CCCC3)c2)c1 (nonaromatic ring conformer: 79.63291137447625 kcal/mol)

>  <smiles>  (45) 
O=C(C=Cc1ccc([N+](=O)[O-])cc1)Nc1cccc(S(=O)(=O)Nc2cccc(C(=O)N3CCCC3)c2)c1

>  <score_type>  (45) 
oracle

>  <origin>  (45) 
adg

>  <m_score__min__energy>  (45) 
-12.460000000000001

>  <m_primary>  (45) 
energy

$$$$
45:0
     RDKit          3D

 71 74  0  0  0  0  0  0  0  0999 V2000
   58.1660   27.4660   43.4730 C   0  0  0  0  0  0  0  0  0  0  0  0
   57.4090   27.8420   44.7480 C   0  0  0  0  0  0  0  0  0  0  0  0
   56.6980   29.1670   44.6250 C   0  0  0  0  0  0  0  0  0  0  0  0
   55.5000   29.2500   44.8640 O   0  0  0  0  0  0  0  0  0  0  0  0
   57.4420   30.3930   44.1620 C   0  0  0  0  0  0  0  0  0  0  0  0
   58.1970   30.9770   45.2750 N   0  0  0  0  0  0  0  0  0  0  0  0
   58.4920   30.3300   46.4210 C   0  0  0  0  0  0  0  0  0  0  0  0
   59.1380   31.1810   47.2910 C   0  0  0  0  0  0  0  0  0  0  0  0
   59.7040   30.7270   48.8990 S   0  0  0  0  0  0  0  0  0  0  0  0
   58.8770   29.5690   49.3900 O   0  0  0  0  0  0  0  0  0  0  0  0
   61.1360   30.2790   48.8200 O   0  0  0  0  0  0  0  0  0  0  0  0
   59.5630   32.0760   50.0060 N   0  0  0  0  0  0  0  0  0  0  0  0
   60.3740   31.8510   51.2080 C   0  0  0  0  0  0  0  0  0  0  0  0
   59.4860   31.1640   52.2340 C   0  0  0  0  0  0  0  0  0  0  0  0
   58.0590   31.4510   51.7910 C   0  0  0  0  0  0  0  0  0  0  0  0
   58.1840   32.2270   50.4860 C   0  0  0  0  0  0  0  0  0  0  0  0
   59.2330   32.4120   46.6560 C   0  0  0  0  0  0  0  0  0  0  0  0
   59.9750   33.8780   47.3100 S   0  0  0  0  0  0  0  0  0  0  0  0
   59.0150   34.5090   48.2790 O   0  0  0  0  0  0  0  0  0  0  0  0
   60.2690   34.8680   46.2180 O   0  0  0  0  0  0  0  0  0  0  0  0
   61.4550   33.4650   48.1340 N   0  0  0  0  0  0  0  0  0  0  0  0
   62.4920   33.0670   47.1580 C   0  0  0  0  0  0  0  0  0  0  0  0
   63.9000   33.0430   47.7910 C   0  0  0  0  0  0  0  0  0  0  0  0
   63.8000   33.0250   49.2570 N   0  0  0  0  0  0  0  0  0  0  0  0
   64.2860   31.9040   50.0220 C   0  0  0  0  0  0  0  0  0  0  0  0
   63.3800   30.9460   50.5130 C   0  0  0  0  0  0  0  0  0  0  0  0
   63.8280   29.8800   51.2960 C   0  0  0  0  0  0  0  0  0  0  0  0
   65.1830   29.7630   51.6040 C   0  0  0  0  0  0  0  0  0  0  0  0
   66.0950   30.7070   51.1300 C   0  0  0  0  0  0  0  0  0  0  0  0
   65.6580   31.7860   50.3330 C   0  0  0  0  0  0  0  0  0  0  0  0
   66.5560   32.7460   49.8360 O   0  0  0  0  0  0  0  0  0  0  0  0
   67.5400   33.4140   50.6190 C   0  0  0  0  0  0  0  0  0  0  0  0
   63.0180   34.0860   49.9080 C   0  0  0  0  0  0  0  0  0  0  0  0
   61.9120   34.5880   48.9690 C   0  0  0  0  0  0  0  0  0  0  0  0
   58.6440   32.2510   45.4050 C   0  0  0  0  0  0  0  0  0  0  0  0
   58.5150   33.3200   44.3570 C   0  0  0  0  0  0  0  0  0  0  0  0
   59.1216   26.9914   43.7404 H   0  0  0  0  0  0  0  0  0  0  0  0
   57.5608   26.7638   42.8809 H   0  0  0  0  0  0  0  0  0  0  0  0
   58.3599   28.3725   42.8809 H   0  0  0  0  0  0  0  0  0  0  0  0
   56.6650   27.0602   44.9607 H   0  0  0  0  0  0  0  0  0  0  0  0
   58.1445   27.9302   45.5612 H   0  0  0  0  0  0  0  0  0  0  0  0
   58.1383   30.1134   43.3576 H   0  0  0  0  0  0  0  0  0  0  0  0
   56.7182   31.1337   43.7913 H   0  0  0  0  0  0  0  0  0  0  0  0
   58.2520   29.2771   46.6304 H   0  0  0  0  0  0  0  0  0  0  0  0
   59.8770   32.9500   49.5200 H   0  0  0  0  0  0  0  0  0  0  0  0
   61.2346   31.2099   50.9663 H   0  0  0  0  0  0  0  0  0  0  0  0
   60.7570   32.8039   51.6020 H   0  0  0  0  0  0  0  0  0  0  0  0
   59.6755   30.0805   52.2429 H   0  0  0  0  0  0  0  0  0  0  0  0
   59.6793   31.5307   53.2529 H   0  0  0  0  0  0  0  0  0  0  0  0
   57.5111   30.5112   51.6280 H   0  0  0  0  0  0  0  0  0  0  0  0
   57.5031   32.0194   52.5512 H   0  0  0  0  0  0  0  0  0  0  0  0
   57.4821   31.8232   49.7415 H   0  0  0  0  0  0  0  0  0  0  0  0
   57.9462   33.2891   50.6456 H   0  0  0  0  0  0  0  0  0  0  0  0
   62.2558   32.0621   46.7781 H   0  0  0  0  0  0  0  0  0  0  0  0
   62.4966   33.8076   46.3447 H   0  0  0  0  0  0  0  0  0  0  0  0
   64.4346   32.1432   47.4527 H   0  0  0  0  0  0  0  0  0  0  0  0
   64.4472   33.9454   47.4808 H   0  0  0  0  0  0  0  0  0  0  0  0
   62.3093   31.0375   50.2780 H   0  0  0  0  0  0  0  0  0  0  0  0
   63.1123   29.1329   51.6697 H   0  0  0  0  0  0  0  0  0  0  0  0
   65.5341   28.9239   52.2226 H   0  0  0  0  0  0  0  0  0  0  0  0
   67.1619   30.6091   51.3795 H   0  0  0  0  0  0  0  0  0  0  0  0
   67.3216   33.2657   51.6868 H   0  0  0  0  0  0  0  0  0  0  0  0
   68.5338   33.0031   50.3875 H   0  0  0  0  0  0  0  0  0  0  0  0
   67.5248   34.4893   50.3875 H   0  0  0  0  0  0  0  0  0  0  0  0
   62.5611   33.6882   50.8262 H   0  0  0  0  0  0  0  0  0  0  0  0
   63.6872   34.9243   50.1516 H   0  0  0  0  0  0  0  0  0  0  0  0
   61.0702   34.9745   49.5622 H   0  0  0  0  0  0  0  0  0  0  0  0
   62.3005   35.3953   48.3308 H   0  0  0  0  0  0  0  0  0  0  0  0
   58.3969   34.2990   44.8445 H   0  0  0  0  0  0  0  0  0  0  0  0
   59.4185   33.3294   43.7297 H   0  0  0  0  0  0  0  0  0  0  0  0
   57.6352   33.1142   43.7297 H   0  0  0  0  0  0  0  0  0  0  0  0
  1  2  1  0
  2  3  1  0
  3  4  2  0
  3  5  1  0
  5  6  1  0
  6  7  1  0
  7  8  2  0
  8  9  1  0
  9 10  2  0
  9 11  2  0
  9 12  1  0
 12 13  1  0
 13 14  1  0
 14 15  1  0
 15 16  1  0
  8 17  1  0
 17 18  1  0
 18 19  2  0
 18 20  2  0
 18 21  1  0
 21 22  1  0
 22 23  1  0
 23 24  1  0
 24 25  1  0
 25 26  2  0
 26 27  1  0
 27 28  2  0
 28 29  1  0
 29 30  2  0
 30 31  1  0
 31 32  1  0
 24 33  1  0
 33 34  1  0
 17 35  2  0
 35 36  1  0
 35  6  1  0
 16 12  1  0
 34 21  1  0
 30 25  1  0
  1 37  1  0
  1 38  1  0
  1 39  1  0
  2 40  1  0
  2 41  1  0
  5 42  1  0
  5 43  1  0
  7 44  1  0
 12 45  1  0
 13 46  1  0
 13 47  1  0
 14 48  1  0
 14 49  1  0
 15 50  1  0
 15 51  1  0
 16 52  1  0
 16 53  1  0
 22 54  1  0
 22 55  1  0
 23 56  1  0
 23 57  1  0
 26 58  1  0
 27 59  1  0
 28 60  1  0
 29 61  1  0
 32 62  1  0
 32 63  1  0
 32 64  1  0
 33 65  1  0
 33 66  1  0
 34 67  1  0
 34 68  1  0
 36 69  1  0
 36 70  1  0
 36 71  1  0
M  CHG  1  12   1
M  END
>  <UniqueID>  (46) 
43

>  <SMILES>  (46) 
CCC(=O)Cn1cc(S(=O)(=O)[NH+]2CCCC2)c(S(=O)(=O)N2CCN(c3ccccc3OC)CC2)c1C

>  <Energy>  (46) 
103.23225441443243

>  <Genealogy>  (46) 
CCC(=O)Cn1cc(S(=O)(=O)[NH+]2CCCC2)c(S(=O)(=O)N2CCN(c3ccccc3OC)CC2)c1C (protonated)
CCC(=O)Cn1cc(S(=O)(=O)[NH+]2CCCC2)c(S(=O)(=O)N2CCN(c3ccccc3OC)CC2)c1C (3D coordinates assigned)
CCC(=O)Cn1cc(S(=O)(=O)[NH+]2CCCC2)c(S(=O)(=O)N2CCN(c3ccccc3OC)CC2)c1C (nonaromatic ring conformer: 103.23225441443243 kcal/mol)

>  <smiles>  (46) 
CCC(=O)Cn1cc(S(=O)(=O)N2CCCC2)c(S(=O)(=O)N2CCN(c3ccccc3OC)CC2)c1C

>  <score_type>  (46) 
oracle

>  <origin>  (46) 
adg

>  <m_score__min__energy>  (46) 
-7.54

>  <m_primary>  (46) 
energy

$$$$
46:0
     RDKit          3D

 34 35  0  0  0  0  0  0  0  0999 V2000
   54.7450   24.4910   47.1480 H   0  0  0  0  0  0  0  0  0  0  0  0
   55.7430   24.3240   47.0940 O   0  0  0  0  0  0  0  0  0  0  0  0
   56.6310   25.3290   46.7150 C   0  0  0  0  0  0  0  0  0  0  0  0
   58.0100   25.1550   46.8730 C   0  0  0  0  0  0  0  0  0  0  0  0
   58.3990   24.2185   47.2991 H   0  0  0  0  0  0  0  0  0  0  0  0
   58.8960   26.1680   46.4910 C   0  0  0  0  0  0  0  0  0  0  0  0
   59.9789   26.0232   46.6191 H   0  0  0  0  0  0  0  0  0  0  0  0
   58.4120   27.3710   45.9440 C   0  0  0  0  0  0  0  0  0  0  0  0
   59.3510   28.4430   45.5380 C   0  0  0  0  0  0  0  0  0  0  0  0
   60.5720   28.1800   45.3590 O   0  0  0  0  0  0  0  0  0  0  0  0
   58.8780   29.7830   45.3500 N   0  0  0  0  0  0  0  0  0  0  0  0
   58.1710   30.2300   44.1550 C   0  0  0  0  0  0  0  0  0  0  0  0
   58.0733   29.3879   43.4540 H   0  0  0  0  0  0  0  0  0  0  0  0
   58.7401   31.0454   43.6846 H   0  0  0  0  0  0  0  0  0  0  0  0
   56.8090   30.7310   44.5190 C   0  0  0  0  0  0  0  0  0  0  0  0
   55.8240   29.9460   44.4490 O   0  0  0  0  0  0  0  0  0  0  0  0
   56.6450   32.1060   44.9030 N   0  0  0  0  0  0  0  0  0  0  0  0
   57.5640   32.9040   45.3660 C   0  0  0  0  0  0  0  0  0  0  0  0
   57.9480   32.8610   46.6740 N   0  0  0  0  0  0  0  0  0  0  0  0
   58.9060   33.6890   47.1760 C   0  0  0  0  0  0  0  0  0  0  0  0
   59.2860   33.6000   48.6190 C   0  0  0  0  0  0  0  0  0  0  0  0
   58.4045   33.8065   49.2437 H   0  0  0  0  0  0  0  0  0  0  0  0
   59.6618   32.5895   48.8376 H   0  0  0  0  0  0  0  0  0  0  0  0
   60.0714   34.3385   48.8376 H   0  0  0  0  0  0  0  0  0  0  0  0
   59.5290   34.6190   46.3350 C   0  0  0  0  0  0  0  0  0  0  0  0
   60.3045   35.2926   46.7286 H   0  0  0  0  0  0  0  0  0  0  0  0
   59.1550   34.6820   44.9910 C   0  0  0  0  0  0  0  0  0  0  0  0
   59.6362   35.4079   44.3191 H   0  0  0  0  0  0  0  0  0  0  0  0
   58.1700   33.8230   44.5010 C   0  0  0  0  0  0  0  0  0  0  0  0
   57.8721   33.8678   43.4431 H   0  0  0  0  0  0  0  0  0  0  0  0
   57.0230   27.5370   45.7890 C   0  0  0  0  0  0  0  0  0  0  0  0
   56.6292   28.4718   45.3635 H   0  0  0  0  0  0  0  0  0  0  0  0
   56.1390   26.5220   46.1720 C   0  0  0  0  0  0  0  0  0  0  0  0
   54.7710   26.7030   46.0110 O   0  0  0  0  0  0  0  0  0  0  0  0
  1  2  1  0
  2  3  1  0
  3  4  2  0
  4  5  1  0
  4  6  1  0
  6  7  1  0
  6  8  2  0
  8  9  1  0
  9 10  2  0
  9 11  1  0
 11 12  1  0
 12 13  1  0
 12 14  1  0
 12 15  1  0
 15 16  2  0
 15 17  1  0
 17 18  2  0
 18 19  1  0
 19 20  1  0
 20 21  1  0
 21 22  1  0
 21 23  1  0
 21 24  1  0
 20 25  2  0
 25 26  1  0
 25 27  1  0
 27 28  1  0
 27 29  2  0
 29 30  1  0
  8 31  1  0
 31 32  1  0
 31 33  2  0
 33 34  1  0
 33  3  1  0
 29 18  1  0
M  CHG  3  11  -1  19  -1  34  -1
M  END
>  <UniqueID>  (47) 
44

>  <SMILES>  (47) 
Cc1ccc/c(=N/C(=O)C[N-]C(=O)c2ccc(O)c([O-])c2)[n-]1

>  <Energy>  (47) 
33.88609663834663

>  <Genealogy>  (47) 
Cc1cccc(=NC(=O)C[N-]C(=O)c2ccc(O)c([O-])c2)[n-]1 (protonated)
Cc1ccc/c(=N/C(=O)C[N-]C(=O)c2ccc(O)c([O-])c2)[n-]1 (cis-trans isomerization)
Cc1ccc/c(=N/C(=O)C[N-]C(=O)c2ccc(O)c([O-])c2)[n-]1 (3D coordinates assigned)
Cc1ccc/c(=N/C(=O)C[N-]C(=O)c2ccc(O)c([O-])c2)[n-]1 (optimized conformer: 33.88609663834663 kcal/mol)

>  <smiles>  (47) 
Cc1cccc(=NC(=O)CNC(=O)c2ccc(O)c(O)c2)[nH]1

>  <score_type>  (47) 
oracle

>  <origin>  (47) 
adg

>  <m_score__min__energy>  (47) 
-13.99

>  <m_primary>  (47) 
energy

$$$$
47:0
     RDKit          3D

 90 95  0  0  0  0  0  0  0  0999 V2000
   58.9560   26.2800   46.7870 C   0  0  0  0  0  0  0  0  0  0  0  0
   58.6960   27.5490   46.0920 N   0  0  0  0  0  0  0  0  0  0  0  0
   59.8350   27.9160   45.2440 C   0  0  0  0  0  0  0  0  0  0  0  0
   59.6310   29.3450   44.7380 C   0  0  0  0  0  0  0  0  0  0  0  0
   58.2980   29.5530   44.1050 N   0  0  0  0  0  0  0  0  0  0  0  0
   57.6150   30.7210   44.6340 C   0  0  0  0  0  0  0  0  0  0  0  0
   56.3640   30.6730   44.8150 O   0  0  0  0  0  0  0  0  0  0  0  0
   58.3200   31.9640   45.0200 C   0  0  0  0  0  0  0  0  0  0  0  0
   58.0970   33.1340   44.2800 C   0  0  0  0  0  0  0  0  0  0  0  0
   58.7700   34.3120   44.6030 C   0  0  0  0  0  0  0  0  0  0  0  0
   59.6820   34.3320   45.6600 C   0  0  0  0  0  0  0  0  0  0  0  0
   59.9320   33.1670   46.4050 C   0  0  0  0  0  0  0  0  0  0  0  0
   60.8970   33.1900   47.5310 C   0  0  0  0  0  0  0  0  0  0  0  0
   61.8910   32.2030   47.6320 C   0  0  0  0  0  0  0  0  0  0  0  0
   62.7820   32.2020   48.7070 C   0  0  0  0  0  0  0  0  0  0  0  0
   62.6940   33.1880   49.7050 C   0  0  0  0  0  0  0  0  0  0  0  0
   63.6580   33.1860   50.8660 C   0  0  0  0  0  0  0  0  0  0  0  0
   63.1490   32.3520   51.9830 N   0  0  0  0  0  0  0  0  0  0  0  0
   62.0360   32.7720   52.6750 C   0  0  0  0  0  0  0  0  0  0  0  0
   61.4540   33.8430   52.3370 O   0  0  0  0  0  0  0  0  0  0  0  0
   61.5440   32.0500   53.7330 N   0  0  0  0  0  0  0  0  0  0  0  0
   60.3690   32.5520   54.4800 C   0  0  0  0  0  0  0  0  0  0  0  0
   59.1730   32.7360   53.5360 C   0  0  0  0  0  0  0  0  0  0  0  0
   59.0270   31.6500   52.5430 N   0  0  0  0  0  0  0  0  0  0  0  0
   58.0800   31.9050   51.4370 C   0  0  0  0  0  0  0  0  0  0  0  0
   56.7510   31.1510   51.6070 C   0  0  0  0  0  0  0  0  0  0  0  0
   56.9770   29.7880   51.8870 O   0  0  0  0  0  0  0  0  0  0  0  0
   57.6130   29.6760   53.1410 C   0  0  0  0  0  0  0  0  0  0  0  0
   59.0240   30.2750   53.0830 C   0  0  0  0  0  0  0  0  0  0  0  0
   62.1170   30.8590   54.0800 C   0  0  0  0  0  0  0  0  0  0  0  0
   61.6210   30.1640   55.0130 O   0  0  0  0  0  0  0  0  0  0  0  0
   63.2600   30.4040   53.4100 C   0  0  0  0  0  0  0  0  0  0  0  0
   63.8900   29.2020   53.7850 C   0  0  0  0  0  0  0  0  0  0  0  0
   65.0420   28.7720   53.1290 C   0  0  0  0  0  0  0  0  0  0  0  0
   65.5840   29.5250   52.0820 C   0  0  0  0  0  0  0  0  0  0  0  0
   66.8220   29.0670   51.4050 C   0  0  0  0  0  0  0  0  0  0  0  0
   67.7720   29.8850   51.2550 O   0  0  0  0  0  0  0  0  0  0  0  0
   66.9690   27.7180   50.9150 N   0  0  0  0  0  0  0  0  0  0  0  0
   67.8080   27.4700   49.7390 C   0  0  0  0  0  0  0  0  0  0  0  0
   66.3300   26.5820   51.5860 C   0  0  0  0  0  0  0  0  0  0  0  0
   64.9670   30.7290   51.7120 C   0  0  0  0  0  0  0  0  0  0  0  0
   63.7870   31.1830   52.3550 C   0  0  0  0  0  0  0  0  0  0  0  0
   61.7230   34.1930   49.5880 C   0  0  0  0  0  0  0  0  0  0  0  0
   60.8280   34.1910   48.5150 C   0  0  0  0  0  0  0  0  0  0  0  0
   59.2500   31.9800   46.0720 C   0  0  0  0  0  0  0  0  0  0  0  0
   57.4280   28.3490   44.0430 C   0  0  0  0  0  0  0  0  0  0  0  0
   57.4320   27.4810   45.3250 C   0  0  0  0  0  0  0  0  0  0  0  0
   58.9224   26.4438   47.8742 H   0  0  0  0  0  0  0  0  0  0  0  0
   58.1902   25.5430   46.5034 H   0  0  0  0  0  0  0  0  0  0  0  0
   59.9499   25.9036   46.5034 H   0  0  0  0  0  0  0  0  0  0  0  0
   60.7649   27.8599   45.8289 H   0  0  0  0  0  0  0  0  0  0  0  0
   59.9056   27.2238   44.3920 H   0  0  0  0  0  0  0  0  0  0  0  0
   59.7266   30.0354   45.5890 H   0  0  0  0  0  0  0  0  0  0  0  0
   60.3941   29.5341   43.9686 H   0  0  0  0  0  0  0  0  0  0  0  0
   58.4890   29.7810   43.0980 H   0  0  0  0  0  0  0  0  0  0  0  0
   57.3871   33.1226   43.4398 H   0  0  0  0  0  0  0  0  0  0  0  0
   58.5818   35.2278   44.0235 H   0  0  0  0  0  0  0  0  0  0  0  0
   60.2078   35.2650   45.9110 H   0  0  0  0  0  0  0  0  0  0  0  0
   61.9682   31.4249   46.8584 H   0  0  0  0  0  0  0  0  0  0  0  0
   63.5576   31.4248   48.7734 H   0  0  0  0  0  0  0  0  0  0  0  0
   64.6248   32.7838   50.5292 H   0  0  0  0  0  0  0  0  0  0  0  0
   63.7727   34.2191   51.2260 H   0  0  0  0  0  0  0  0  0  0  0  0
   60.1030   31.8291   55.2653 H   0  0  0  0  0  0  0  0  0  0  0  0
   60.6210   33.5236   54.9300 H   0  0  0  0  0  0  0  0  0  0  0  0
   58.2558   32.7784   54.1417 H   0  0  0  0  0  0  0  0  0  0  0  0
   59.3475   33.6649   52.9732 H   0  0  0  0  0  0  0  0  0  0  0  0
   57.8695   32.9839   51.3958 H   0  0  0  0  0  0  0  0  0  0  0  0
   58.5490   31.5459   50.5091 H   0  0  0  0  0  0  0  0  0  0  0  0
   56.1860   31.6001   52.4371 H   0  0  0  0  0  0  0  0  0  0  0  0
   56.1819   31.2269   50.6687 H   0  0  0  0  0  0  0  0  0  0  0  0
   57.0218   30.2147   53.8962 H   0  0  0  0  0  0  0  0  0  0  0  0
   57.6890   28.6115   53.4076 H   0  0  0  0  0  0  0  0  0  0  0  0
   59.4427   30.2933   54.1000 H   0  0  0  0  0  0  0  0  0  0  0  0
   59.6286   29.6480   52.4112 H   0  0  0  0  0  0  0  0  0  0  0  0
   63.4696   28.5975   54.6022 H   0  0  0  0  0  0  0  0  0  0  0  0
   65.5282   27.8344   53.4365 H   0  0  0  0  0  0  0  0  0  0  0  0
   68.8158   27.1721   50.0638 H   0  0  0  0  0  0  0  0  0  0  0  0
   67.3643   26.6646   49.1353 H   0  0  0  0  0  0  0  0  0  0  0  0
   67.8735   28.3872   49.1353 H   0  0  0  0  0  0  0  0  0  0  0  0
   66.4029   26.7116   52.6759 H   0  0  0  0  0  0  0  0  0  0  0  0
   65.2710   26.5313   51.2928 H   0  0  0  0  0  0  0  0  0  0  0  0
   66.8366   25.6507   51.2928 H   0  0  0  0  0  0  0  0  0  0  0  0
   65.4076   31.3341   50.9060 H   0  0  0  0  0  0  0  0  0  0  0  0
   61.6656   34.9881   50.3459 H   0  0  0  0  0  0  0  0  0  0  0  0
   60.0638   34.9787   48.4399 H   0  0  0  0  0  0  0  0  0  0  0  0
   59.4475   31.0591   46.6402 H   0  0  0  0  0  0  0  0  0  0  0  0
   56.3959   28.6813   43.8574 H   0  0  0  0  0  0  0  0  0  0  0  0
   57.8303   27.7162   43.2382 H   0  0  0  0  0  0  0  0  0  0  0  0
   56.6132   27.8212   45.9760 H   0  0  0  0  0  0  0  0  0  0  0  0
   57.3098   26.4362   45.0033 H   0  0  0  0  0  0  0  0  0  0  0  0
  1  2  1  0
  2  3  1  0
  3  4  1  0
  4  5  1  0
  5  6  1  0
  6  7  2  0
  6  8  1  0
  8  9  2  0
  9 10  1  0
 10 11  2  0
 11 12  1  0
 12 13  1  0
 13 14  2  0
 14 15  1  0
 15 16  2  0
 16 17  1  0
 17 18  1  0
 18 19  1  0
 19 20  2  0
 19 21  1  0
 21 22  1  0
 22 23  1  0
 23 24  1  0
 24 25  1  0
 25 26  1  0
 26 27  1  0
 27 28  1  0
 28 29  1  0
 21 30  1  0
 30 31  2  0
 30 32  1  0
 32 33  2  0
 33 34  1  0
 34 35  2  0
 35 36  1  0
 36 37  2  0
 36 38  1  0
 38 39  1  0
 38 40  1  0
 35 41  1  0
 41 42  2  0
 16 43  1  0
 43 44  2  0
 12 45  2  0
  5 46  1  0
 46 47  1  0
 47  2  1  0
 45  8  1  0
 44 13  1  0
 42 18  1  0
 29 24  1  0
 42 32  1  0
  1 48  1  0
  1 49  1  0
  1 50  1  0
  3 51  1  0
  3 52  1  0
  4 53  1  0
  4 54  1  0
  5 55  1  0
  9 56  1  0
 10 57  1  0
 11 58  1  0
 14 59  1  0
 15 60  1  0
 17 61  1  0
 17 62  1  0
 22 63  1  0
 22 64  1  0
 23 65  1  0
 23 66  1  0
 25 67  1  0
 25 68  1  0
 26 69  1  0
 26 70  1  0
 28 71  1  0
 28 72  1  0
 29 73  1  0
 29 74  1  0
 33 75  1  0
 34 76  1  0
 39 77  1  0
 39 78  1  0
 39 79  1  0
 40 80  1  0
 40 81  1  0
 40 82  1  0
 41 83  1  0
 43 84  1  0
 44 85  1  0
 45 86  1  0
 46 87  1  0
 46 88  1  0
 47 89  1  0
 47 90  1  0
M  CHG  1   5   1
M  END
>  <UniqueID>  (48) 
45

>  <SMILES>  (48) 
CN1CC[NH+](C(=O)c2cccc(-c3ccc(Cn4c(=O)n(CCN5CCOCC5)c(=O)c5ccc(C(=O)N(C)C)cc54)cc3)c2)CC1

>  <Energy>  (48) 
148.79580253558726

>  <Genealogy>  (48) 
CN1CC[NH+](C(=O)c2cccc(-c3ccc(Cn4c(=O)n(CCN5CCOCC5)c(=O)c5ccc(C(=O)N(C)C)cc54)cc3)c2)CC1 (protonated)
CN1CC[NH+](C(=O)c2cccc(-c3ccc(Cn4c(=O)n(CCN5CCOCC5)c(=O)c5ccc(C(=O)N(C)C)cc54)cc3)c2)CC1 (3D coordinates assigned)
CN1CC[NH+](C(=O)c2cccc(-c3ccc(Cn4c(=O)n(CCN5CCOCC5)c(=O)c5ccc(C(=O)N(C)C)cc54)cc3)c2)CC1 (nonaromatic ring conformer: 148.79580253558726 kcal/mol)

>  <smiles>  (48) 
CN1CCN(C(=O)c2cccc(-c3ccc(Cn4c(=O)n(CCN5CCOCC5)c(=O)c5ccc(C(=O)N(C)C)cc54)cc3)c2)CC1

>  <score_type>  (48) 
oracle

>  <origin>  (48) 
adg

>  <m_score__min__energy>  (48) 
-9.8499999999999996

>  <m_primary>  (48) 
energy

$$$$
48:0
     RDKit          3D

 45 47  0  0  0  0  0  0  0  0999 V2000
   54.8000   26.2100   45.8990 N   0  0  0  0  0  0  0  0  0  0  0  0
   54.7460   24.7990   45.7100 C   0  0  0  0  0  0  0  0  0  0  0  0
   53.6490   24.1950   45.8510 O   0  0  0  0  0  0  0  0  0  0  0  0
   55.9620   24.0600   45.3070 C   0  0  0  0  0  0  0  0  0  0  0  0
   55.9080   23.2480   44.1540 C   0  0  0  0  0  0  0  0  0  0  0  0
   54.7330   23.1390   43.4170 O   0  0  0  0  0  0  0  0  0  0  0  0
   57.0320   22.5300   43.7420 C   0  0  0  0  0  0  0  0  0  0  0  0
   58.2200   22.6090   44.4640 C   0  0  0  0  0  0  0  0  0  0  0  0
   58.2950   23.4130   45.6010 C   0  0  0  0  0  0  0  0  0  0  0  0
   57.1770   24.1440   46.0430 C   0  0  0  0  0  0  0  0  0  0  0  0
   57.3680   25.0850   47.2160 C   0  0  0  0  0  0  0  0  0  0  0  0
   57.6500   26.5160   46.7430 C   0  0  0  0  0  0  0  0  0  0  0  0
   58.5720   26.5100   45.5840 N   0  0  0  0  0  0  0  0  0  0  0  0
   59.7730   27.3380   45.8000 C   0  0  0  0  0  0  0  0  0  0  0  0
   59.4610   28.8050   45.7510 C   0  0  0  0  0  0  0  0  0  0  0  0
   58.4650   29.2960   44.9940 C   0  0  0  0  0  0  0  0  0  0  0  0
   58.2020   30.7580   44.9750 C   0  0  0  0  0  0  0  0  0  0  0  0
   58.0000   31.4340   43.7560 C   0  0  0  0  0  0  0  0  0  0  0  0
   57.7640   32.8120   43.7400 C   0  0  0  0  0  0  0  0  0  0  0  0
   57.7270   33.5330   44.9360 C   0  0  0  0  0  0  0  0  0  0  0  0
   57.4910   34.9070   44.9040 O   0  0  0  0  0  0  0  0  0  0  0  0
   57.9290   32.8710   46.1530 C   0  0  0  0  0  0  0  0  0  0  0  0
   58.1660   31.4930   46.1740 C   0  0  0  0  0  0  0  0  0  0  0  0
   57.5220   28.3720   44.2500 C   0  0  0  0  0  0  0  0  0  0  0  0
   57.9180   26.8820   44.3130 C   0  0  0  0  0  0  0  0  0  0  0  0
   54.0210   26.7180   46.3720 H   0  0  0  0  0  0  0  0  0  0  0  0
   56.9790   21.8988   42.8427 H   0  0  0  0  0  0  0  0  0  0  0  0
   59.1005   22.0365   44.1371 H   0  0  0  0  0  0  0  0  0  0  0  0
   59.2405   23.4765   46.1595 H   0  0  0  0  0  0  0  0  0  0  0  0
   56.4544   25.0837   47.8287 H   0  0  0  0  0  0  0  0  0  0  0  0
   58.2310   24.7372   47.8028 H   0  0  0  0  0  0  0  0  0  0  0  0
   56.7032   26.9928   46.4492 H   0  0  0  0  0  0  0  0  0  0  0  0
   58.1187   27.0755   47.5660 H   0  0  0  0  0  0  0  0  0  0  0  0
   60.1971   27.0979   46.7861 H   0  0  0  0  0  0  0  0  0  0  0  0
   60.4882   27.1158   44.9943 H   0  0  0  0  0  0  0  0  0  0  0  0
   60.0657   29.4994   46.3528 H   0  0  0  0  0  0  0  0  0  0  0  0
   58.0281   30.8738   42.8098 H   0  0  0  0  0  0  0  0  0  0  0  0
   57.6069   33.3302   42.7825 H   0  0  0  0  0  0  0  0  0  0  0  0
   56.6810   35.3150   45.3550 H   0  0  0  0  0  0  0  0  0  0  0  0
   57.9012   33.4368   47.0959 H   0  0  0  0  0  0  0  0  0  0  0  0
   58.3253   30.9805   47.1342 H   0  0  0  0  0  0  0  0  0  0  0  0
   56.5175   28.4809   44.6848 H   0  0  0  0  0  0  0  0  0  0  0  0
   57.5612   28.6656   43.1906 H   0  0  0  0  0  0  0  0  0  0  0  0
   57.0096   26.2730   44.1952 H   0  0  0  0  0  0  0  0  0  0  0  0
   58.6427   26.7006   43.5056 H   0  0  0  0  0  0  0  0  0  0  0  0
  1  2  1  0
  2  3  2  0
  2  4  1  0
  4  5  2  0
  5  6  1  0
  5  7  1  0
  7  8  2  0
  8  9  1  0
  9 10  2  0
 10 11  1  0
 11 12  1  0
 12 13  1  0
 13 14  1  0
 14 15  1  0
 15 16  2  0
 16 17  1  0
 17 18  2  0
 18 19  1  0
 19 20  2  0
 20 21  1  0
 20 22  1  0
 22 23  2  0
 16 24  1  0
 24 25  1  0
 10  4  1  0
 25 13  1  0
 23 17  1  0
  1 26  1  0
  7 27  1  0
  8 28  1  0
  9 29  1  0
 11 30  1  0
 11 31  1  0
 12 32  1  0
 12 33  1  0
 14 34  1  0
 14 35  1  0
 15 36  1  0
 18 37  1  0
 19 38  1  0
 21 39  1  0
 22 40  1  0
 23 41  1  0
 24 42  1  0
 24 43  1  0
 25 44  1  0
 25 45  1  0
M  CHG  2   1  -1   6  -1
M  END
>  <UniqueID>  (49) 
46

>  <SMILES>  (49) 
[NH-]C(=O)c1c([O-])cccc1CCN1CC=C(c2ccc(O)cc2)CC1

>  <Energy>  (49) 
62.895062841677095

>  <Genealogy>  (49) 
[NH-]C(=O)c1c([O-])cccc1CCN1CC=C(c2ccc(O)cc2)CC1 (protonated)
[NH-]C(=O)c1c([O-])cccc1CCN1CC=C(c2ccc(O)cc2)CC1 (3D coordinates assigned)
[NH-]C(=O)c1c([O-])cccc1CCN1CC=C(c2ccc(O)cc2)CC1 (nonaromatic ring conformer: 62.895062841677095 kcal/mol)

>  <smiles>  (49) 
NC(=O)c1c(O)cccc1CCN1CC=C(c2ccc(O)cc2)CC1

>  <score_type>  (49) 
oracle

>  <origin>  (49) 
adg

>  <m_score__min__energy>  (49) 
-14.869999999999999

>  <m_primary>  (49) 
energy

$$$$
49:0
     RDKit          3D

 46 48  0  0  0  0  0  0  0  0999 V2000
   56.2990   29.3750   42.4470 N   0  0  0  0  0  0  0  0  0  0  0  0
   56.4650   29.6500   43.8400 C   0  0  0  0  0  0  0  0  0  0  0  0
   55.4920   30.1110   44.4950 O   0  0  0  0  0  0  0  0  0  0  0  0
   57.7680   29.4170   44.5110 C   0  0  0  0  0  0  0  0  0  0  0  0
   58.4380   28.1980   44.3010 C   0  0  0  0  0  0  0  0  0  0  0  0
   59.6890   27.9660   44.8760 C   0  0  0  0  0  0  0  0  0  0  0  0
   60.2880   28.9440   45.6690 C   0  0  0  0  0  0  0  0  0  0  0  0
   59.6360   30.1580   45.8910 C   0  0  0  0  0  0  0  0  0  0  0  0
   58.3790   30.4130   45.3140 C   0  0  0  0  0  0  0  0  0  0  0  0
   57.6910   31.6400   45.6210 N   0  0  0  0  0  0  0  0  0  0  0  0
   58.3650   32.8730   45.9350 C   0  0  0  0  0  0  0  0  0  0  0  0
   58.6140   33.8190   44.9250 C   0  0  0  0  0  0  0  0  0  0  0  0
   59.2650   35.0160   45.2200 C   0  0  0  0  0  0  0  0  0  0  0  0
   59.6510   35.2970   46.5300 C   0  0  0  0  0  0  0  0  0  0  0  0
   59.3750   34.3930   47.5600 C   0  0  0  0  0  0  0  0  0  0  0  0
   59.7860   34.7310   48.8920 N   0  0  0  0  0  0  0  0  0  0  0  0
   60.9470   34.1980   49.5350 C   0  0  0  0  0  0  0  0  0  0  0  0
   62.0520   34.1660   48.9280 O   0  0  0  0  0  0  0  0  0  0  0  0
   60.8410   33.7230   50.8800 N   0  0  0  0  0  0  0  0  0  0  0  0
   59.7710   32.9220   51.4010 C   0  0  0  0  0  0  0  0  0  0  0  0
   58.6450   33.5070   52.0150 C   0  0  0  0  0  0  0  0  0  0  0  0
   58.5590   34.8510   52.1790 F   0  0  0  0  0  0  0  0  0  0  0  0
   57.6250   32.6990   52.5270 C   0  0  0  0  0  0  0  0  0  0  0  0
   57.7140   31.3030   52.4400 C   0  0  0  0  0  0  0  0  0  0  0  0
   56.6300   30.4380   53.0250 C   0  0  0  0  0  0  0  0  0  0  0  0
   56.2670   29.4400   52.1120 O   0  0  0  0  0  0  0  0  0  0  0  0
   58.8540   30.7190   51.8710 C   0  0  0  0  0  0  0  0  0  0  0  0
   59.8790   31.5220   51.3570 C   0  0  0  0  0  0  0  0  0  0  0  0
   61.2890   30.7510   50.6440 Cl  0  0  0  0  0  0  0  0  0  0  0  0
   58.7500   33.1610   47.2630 C   0  0  0  0  0  0  0  0  0  0  0  0
   58.5660   31.9310   48.5150 Cl  0  0  0  0  0  0  0  0  0  0  0  0
   55.3910   29.5860   41.9770 H   0  0  0  0  0  0  0  0  0  0  0  0
   57.0510   28.9090   41.8930 H   0  0  0  0  0  0  0  0  0  0  0  0
   57.9720   27.4204   43.6780 H   0  0  0  0  0  0  0  0  0  0  0  0
   60.2034   27.0092   44.7030 H   0  0  0  0  0  0  0  0  0  0  0  0
   61.2742   28.7588   46.1196 H   0  0  0  0  0  0  0  0  0  0  0  0
   60.1100   30.9229   46.5236 H   0  0  0  0  0  0  0  0  0  0  0  0
   56.6470   31.6250   45.6300 H   0  0  0  0  0  0  0  0  0  0  0  0
   58.2924   33.6129   43.8934 H   0  0  0  0  0  0  0  0  0  0  0  0
   59.4744   35.7396   44.4184 H   0  0  0  0  0  0  0  0  0  0  0  0
   60.1765   36.2369   46.7547 H   0  0  0  0  0  0  0  0  0  0  0  0
   56.7471   33.1621   53.0011 H   0  0  0  0  0  0  0  0  0  0  0  0
   56.9976   29.9692   53.9497 H   0  0  0  0  0  0  0  0  0  0  0  0
   55.7511   31.0615   53.2460 H   0  0  0  0  0  0  0  0  0  0  0  0
   56.6040   29.7320   51.2240 H   0  0  0  0  0  0  0  0  0  0  0  0
   58.9438   29.6235   51.8281 H   0  0  0  0  0  0  0  0  0  0  0  0
  1  2  1  0
  2  3  2  0
  2  4  1  0
  4  5  2  0
  5  6  1  0
  6  7  2  0
  7  8  1  0
  8  9  2  0
  9 10  1  0
 10 11  1  0
 11 12  2  0
 12 13  1  0
 13 14  2  0
 14 15  1  0
 15 16  1  0
 16 17  1  0
 17 18  2  0
 17 19  1  0
 19 20  1  0
 20 21  2  0
 21 22  1  0
 21 23  1  0
 23 24  2  0
 24 25  1  0
 25 26  1  0
 24 27  1  0
 27 28  2  0
 28 29  1  0
 15 30  2  0
 30 31  1  0
  9  4  1  0
 30 11  1  0
 28 20  1  0
  1 32  1  0
  1 33  1  0
  5 34  1  0
  6 35  1  0
  7 36  1  0
  8 37  1  0
 10 38  1  0
 12 39  1  0
 13 40  1  0
 14 41  1  0
 23 42  1  0
 25 43  1  0
 25 44  1  0
 26 45  1  0
 27 46  1  0
M  CHG  2  16  -1  19  -1
M  END
>  <UniqueID>  (50) 
47

>  <SMILES>  (50) 
NC(=O)c1ccccc1Nc1cccc([N-]C(=O)[N-]c2c(F)cc(CO)cc2Cl)c1Cl

>  <Energy>  (50) 
71.10063433955854

>  <Genealogy>  (50) 
NC(=O)c1ccccc1Nc1cccc([N-]C(=O)[N-]c2c(F)cc(CO)cc2Cl)c1Cl (protonated)
NC(=O)c1ccccc1Nc1cccc([N-]C(=O)[N-]c2c(F)cc(CO)cc2Cl)c1Cl (3D coordinates assigned)
NC(=O)c1ccccc1Nc1cccc([N-]C(=O)[N-]c2c(F)cc(CO)cc2Cl)c1Cl (optimized conformer: 71.10063433955854 kcal/mol)

>  <smiles>  (50) 
NC(=O)c1ccccc1Nc1cccc(NC(=O)Nc2c(F)cc(CO)cc2Cl)c1Cl

>  <score_type>  (50) 
oracle

>  <origin>  (50) 
adg

>  <m_score__min__energy>  (50) 
-12.02

>  <m_primary>  (50) 
energy

$$$$
50:0
     RDKit          3D

 57 60  0  0  1  0  0  0  0  0999 V2000
   57.6950   33.7840   46.3960 C   0  0  0  0  0  0  0  0  0  0  0  0
   58.3270   33.5180   47.6240 O   0  0  0  0  0  0  0  0  0  0  0  0
   59.4470   32.7210   47.7470 C   0  0  0  0  0  0  0  0  0  0  0  0
   60.7180   33.1020   47.4110 C   0  0  0  0  0  0  0  0  0  0  0  0
   61.7870   32.2230   47.5720 C   0  0  0  0  0  0  0  0  0  0  0  0
   63.3770   32.7970   47.1170 Cl  0  0  0  0  0  0  0  0  0  0  0  0
   61.6100   30.9410   48.0730 C   0  0  0  0  0  0  0  0  0  0  0  0
   60.3360   30.5610   48.4080 C   0  0  0  0  0  0  0  0  0  0  0  0
   60.0220   29.1940   48.9620 C   0  0  0  0  0  0  0  0  0  0  0  0
   58.6710   28.9130   48.5770 N   0  0  0  0  0  0  0  0  0  0  0  0
   58.3590   28.5190   47.4120 C   0  0  0  0  0  0  0  0  0  0  0  0
   58.1590   29.4280   46.4540 N   0  0  0  0  0  0  0  0  0  0  0  0
   57.8240   29.0810   45.1980 C   0  0  0  0  0  0  0  0  0  0  0  0
   57.6300   30.1070   44.2360 N   0  0  0  0  0  0  0  0  0  0  0  0
   58.4340   31.3130   44.2030 C   0  0  0  0  0  0  0  0  0  0  0  0
   57.7870   32.2430   43.2040 C   0  0  0  0  0  0  0  0  0  0  0  0
   57.1370   31.2550   42.2330 C   0  0  0  0  0  0  0  0  0  0  0  0
   56.6550   30.1590   43.1630 C   0  0  0  0  0  0  0  0  0  0  0  0
   57.6860   27.7370   44.9150 C   0  0  0  0  0  0  0  0  0  0  0  0
   57.8880   26.7660   45.8910 C   0  0  0  0  0  0  0  0  0  0  0  0
   57.7500   25.5330   45.5830 N   0  0  0  0  0  0  0  0  0  0  0  0
   56.9700   24.6980   46.4250 C   0  0  0  0  0  0  0  0  0  0  0  0
   56.8480   25.0190   47.6510 O   0  0  0  0  0  0  0  0  0  0  0  0
   56.2970   23.4780   45.9480 C   0  0  0  0  0  0  0  0  0  0  0  0
   54.8690   23.7080   45.6200 C   0  0  0  0  0  0  0  0  0  0  0  0
   53.9800   22.7510   45.2780 N   0  0  0  0  0  0  0  0  0  0  0  0
   52.8280   23.3870   45.0700 C   0  0  0  0  0  0  0  0  0  0  0  0
   51.7680   22.7670   44.7280 O   0  0  0  0  0  0  0  0  0  0  0  0
   52.9550   24.7090   45.2700 N   0  0  0  0  0  0  0  0  0  0  0  0
   54.2490   24.9420   45.6230 C   0  0  0  0  0  0  0  0  0  0  0  0
   54.8180   26.1700   45.9210 O   0  0  0  0  0  0  0  0  0  0  0  0
   58.2200   27.2140   47.1140 N   0  0  0  0  0  0  0  0  0  0  0  0
   59.2710   31.4510   48.2420 C   0  0  0  0  0  0  0  0  0  0  0  0
   56.6957   34.2046   46.5815 H   0  0  0  0  0  0  0  0  0  0  0  0
   58.2959   34.5055   45.8231 H   0  0  0  0  0  0  0  0  0  0  0  0
   57.5991   32.8499   45.8231 H   0  0  0  0  0  0  0  0  0  0  0  0
   60.8970   34.1107   47.0105 H   0  0  0  0  0  0  0  0  0  0  0  0
   62.4608   30.2548   48.1968 H   0  0  0  0  0  0  0  0  0  0  0  0
   60.7046   28.4433   48.5371 H   0  0  0  0  0  0  0  0  0  0  0  0
   60.1442   29.1642   50.0548 H   0  0  0  0  0  0  0  0  0  0  0  0
   58.2650   30.4390   46.6810 H   0  0  0  0  0  0  0  0  0  0  0  0
   58.4546   31.7815   45.1980 H   0  0  0  0  0  0  0  0  0  0  0  0
   59.4718   31.0872   43.9167 H   0  0  0  0  0  0  0  0  0  0  0  0
   57.0350   32.8863   43.6842 H   0  0  0  0  0  0  0  0  0  0  0  0
   58.4892   32.9415   42.7256 H   0  0  0  0  0  0  0  0  0  0  0  0
   56.2972   31.7190   41.6950 H   0  0  0  0  0  0  0  0  0  0  0  0
   57.8177   30.8977   41.4462 H   0  0  0  0  0  0  0  0  0  0  0  0
   55.6584   30.4021   43.5601 H   0  0  0  0  0  0  0  0  0  0  0  0
   56.5656   29.1929   42.6446 H   0  0  0  0  0  0  0  0  0  0  0  0
   57.4105   27.4270   43.8962 H   0  0  0  0  0  0  0  0  0  0  0  0
   56.8132   23.1206   45.0448 H   0  0  0  0  0  0  0  0  0  0  0  0
   56.3382   22.7352   46.7583 H   0  0  0  0  0  0  0  0  0  0  0  0
   54.2310   21.7360   45.2120 H   0  0  0  0  0  0  0  0  0  0  0  0
   52.2060   25.4590   45.1780 H   0  0  0  0  0  0  0  0  0  0  0  0
   55.1370   26.3130   46.8690 H   0  0  0  0  0  0  0  0  0  0  0  0
   58.3760   26.5180   47.8500 H   0  0  0  0  0  0  0  0  0  0  0  0
   58.2574   31.1237   48.5169 H   0  0  0  0  0  0  0  0  0  0  0  0
  1  2  1  0
  2  3  1  0
  3  4  2  0
  4  5  1  0
  5  6  1  0
  5  7  2  0
  7  8  1  0
  8  9  1  0
  9 10  1  0
 10 11  2  0
 11 12  1  0
 12 13  1  0
 13 14  1  0
 14 15  1  0
 15 16  1  0
 16 17  1  0
 17 18  1  0
 13 19  2  0
 19 20  1  0
 20 21  2  0
 21 22  1  0
 22 23  2  0
 22 24  1  0
 24 25  1  0
 25 26  1  0
 26 27  1  0
 27 28  2  0
 27 29  1  0
 29 30  1  0
 30 31  1  0
 20 32  1  0
  8 33  2  0
 33  3  1  0
 32 11  1  0
 18 14  1  0
 30 25  2  0
  1 34  1  0
  1 35  1  0
  1 36  1  0
  4 37  1  0
  7 38  1  0
  9 39  1  0
  9 40  1  0
 12 41  1  0
 15 42  1  0
 15 43  1  0
 16 44  1  0
 16 45  1  0
 17 46  1  0
 17 47  1  0
 18 48  1  0
 18 49  1  0
 19 50  1  0
 24 51  1  0
 24 52  1  0
 26 53  1  0
 29 54  1  0
 31 55  1  0
 32 56  1  0
 33 57  1  0
M  END
>  <smiles>  (51) 
COc1cc(Cl)cc(CN=c2[nH]c(N3CCCC3)cc(=NC(=O)Cc3[nH]c(=O)[nH]c3O)[nH]2)c1

>  <score_type>  (51) 
oracle

>  <origin>  (51) 
adg

>  <m_score__min__energy>  (51) 
-9.5700000000000003

>  <m_primary>  (51) 
energy

$$$$
51:0
     RDKit          3D

 44 46  0  0  0  0  0  0  0  0999 V2000
   60.8389   26.6177   45.7832 H   0  0  0  0  0  0  0  0  0  0  0  0
   60.3600   27.4400   46.3350 C   0  0  0  0  0  0  0  0  0  0  0  0
   60.3740   27.4450   47.7330 C   0  0  0  0  0  0  0  0  0  0  0  0
   60.8641   26.6263   48.2804 H   0  0  0  0  0  0  0  0  0  0  0  0
   59.7660   28.4890   48.4360 C   0  0  0  0  0  0  0  0  0  0  0  0
   59.7800   28.4911   49.5359 H   0  0  0  0  0  0  0  0  0  0  0  0
   59.1350   29.5390   47.7390 C   0  0  0  0  0  0  0  0  0  0  0  0
   58.5010   30.6000   48.4000 O   0  0  0  0  0  0  0  0  0  0  0  0
   58.8000   31.9460   48.1690 C   0  0  0  0  0  0  0  0  0  0  0  0
   58.5120   32.5070   46.9180 C   0  0  0  0  0  0  0  0  0  0  0  0
   58.0616   31.8856   46.1299 H   0  0  0  0  0  0  0  0  0  0  0  0
   58.7940   33.8510   46.6670 C   0  0  0  0  0  0  0  0  0  0  0  0
   58.5677   34.2854   45.6821 H   0  0  0  0  0  0  0  0  0  0  0  0
   59.3630   34.6440   47.6650 C   0  0  0  0  0  0  0  0  0  0  0  0
   59.5842   35.7029   47.4655 H   0  0  0  0  0  0  0  0  0  0  0  0
   59.6520   34.0950   48.9170 C   0  0  0  0  0  0  0  0  0  0  0  0
   60.0943   34.7263   49.7017 H   0  0  0  0  0  0  0  0  0  0  0  0
   59.3810   32.7410   49.1800 C   0  0  0  0  0  0  0  0  0  0  0  0
   59.6740   32.1790   50.5480 C   0  0  0  0  0  0  0  0  0  0  0  0
   60.4254   32.8085   51.0471 H   0  0  0  0  0  0  0  0  0  0  0  0
   60.0571   31.1533   50.4424 H   0  0  0  0  0  0  0  0  0  0  0  0
   58.4220   32.1540   51.3710 C   0  0  0  0  0  0  0  0  0  0  0  0
   58.2330   33.0500   52.2380 O   0  0  0  0  0  0  0  0  0  0  0  0
   57.4480   31.1200   51.1680 N   0  0  0  0  0  0  0  0  0  0  0  0
   57.5250   30.5240   50.3130 H   0  0  0  0  0  0  0  0  0  0  0  0
   56.3060   30.9330   52.0160 C   0  0  0  0  0  0  0  0  0  0  0  0
   56.4940   30.9480   53.6440 S   0  0  0  0  0  0  0  0  0  0  0  0
   55.0990   30.3710   51.4830 N   0  0  0  0  0  0  0  0  0  0  0  0
   53.8880   30.7820   51.7360 C   0  0  0  0  0  0  0  0  0  0  0  0
   53.2190   31.7030   51.0050 N   0  0  0  0  0  0  0  0  0  0  0  0
   53.5310   32.2360   50.1640 H   0  0  0  0  0  0  0  0  0  0  0  0
   52.0410   31.8380   51.6410 C   0  0  0  0  0  0  0  0  0  0  0  0
   51.0280   32.6970   51.2350 O   0  0  0  0  0  0  0  0  0  0  0  0
   52.0020   31.0150   52.7450 C   0  0  0  0  0  0  0  0  0  0  0  0
   51.1634   30.9109   53.4492 H   0  0  0  0  0  0  0  0  0  0  0  0
   53.1780   30.3610   52.8050 N   0  0  0  0  0  0  0  0  0  0  0  0
   53.5720   29.3670   53.7980 C   0  0  0  0  0  0  0  0  0  0  0  0
   53.4109   29.7733   54.8074 H   0  0  0  0  0  0  0  0  0  0  0  0
   52.9661   28.4582   53.6676 H   0  0  0  0  0  0  0  0  0  0  0  0
   54.6360   29.1201   53.6676 H   0  0  0  0  0  0  0  0  0  0  0  0
   59.1280   29.5240   46.3390 C   0  0  0  0  0  0  0  0  0  0  0  0
   58.6393   30.3399   45.7863 H   0  0  0  0  0  0  0  0  0  0  0  0
   59.7380   28.4790   45.6390 C   0  0  0  0  0  0  0  0  0  0  0  0
   59.7281   28.4750   44.5391 H   0  0  0  0  0  0  0  0  0  0  0  0
  1  2  1  0
  2  3  2  0
  3  4  1  0
  3  5  1  0
  5  6  1  0
  5  7  2  0
  7  8  1  0
  8  9  1  0
  9 10  2  0
 10 11  1  0
 10 12  1  0
 12 13  1  0
 12 14  2  0
 14 15  1  0
 14 16  1  0
 16 17  1  0
 16 18  2  0
 18 19  1  0
 19 20  1  0
 19 21  1  0
 19 22  1  0
 22 23  2  0
 22 24  1  0
 24 25  1  0
 24 26  1  0
 26 27  2  0
 26 28  1  0
 28 29  2  0
 29 30  1  0
 30 31  1  0
 30 32  1  0
 32 33  1  0
 32 34  2  0
 34 35  1  0
 34 36  1  0
 36 37  1  0
 37 38  1  0
 37 39  1  0
 37 40  1  0
  7 41  1  0
 41 42  1  0
 41 43  2  0
 43 44  1  0
 43  2  1  0
 18  9  1  0
 36 29  1  0
M  CHG  1  33  -1
M  END
>  <UniqueID>  (52) 
48

>  <SMILES>  (52) 
Cn1cc([O-])[nH]/c1=N\C(=S)NC(=O)Cc1ccccc1Oc1ccccc1

>  <Energy>  (52) 
92.44620178153808

>  <Genealogy>  (52) 
Cn1cc([O-])[nH]c1=NC(=S)NC(=O)Cc1ccccc1Oc1ccccc1 (protonated)
Cn1cc([O-])[nH]/c1=N\C(=S)NC(=O)Cc1ccccc1Oc1ccccc1 (cis-trans isomerization)
Cn1cc([O-])[nH]/c1=N\C(=S)NC(=O)Cc1ccccc1Oc1ccccc1 (3D coordinates assigned)
Cn1cc([O-])[nH]/c1=N\C(=S)NC(=O)Cc1ccccc1Oc1ccccc1 (optimized conformer: 92.44620178153808 kcal/mol)

>  <smiles>  (52) 
Cn1cc(O)[nH]c1=NC(=S)NC(=O)Cc1ccccc1Oc1ccccc1

>  <score_type>  (52) 
oracle

>  <origin>  (52) 
adg

>  <m_score__min__energy>  (52) 
-12.58

>  <m_primary>  (52) 
energy

$$$$
52:0
     RDKit          3D

 47 49  0  0  0  0  0  0  0  0999 V2000
   57.4280   24.9720   48.0120 O   0  0  0  0  0  0  0  0  0  0  0  0
   57.9430   25.8730   47.2970 C   0  0  0  0  0  0  0  0  0  0  0  0
   58.2750   25.5820   45.8940 C   0  0  0  0  0  0  0  0  0  0  0  0
   57.3340   25.5550   44.9410 C   0  0  0  0  0  0  0  0  0  0  0  0
   56.0700   24.7950   45.0690 C   0  0  0  0  0  0  0  0  0  0  0  0
   56.0800   23.4280   44.7440 C   0  0  0  0  0  0  0  0  0  0  0  0
   54.9240   22.6590   44.8770 C   0  0  0  0  0  0  0  0  0  0  0  0
   53.7470   23.2390   45.3520 C   0  0  0  0  0  0  0  0  0  0  0  0
   53.7270   24.5900   45.7040 C   0  0  0  0  0  0  0  0  0  0  0  0
   54.8830   25.3700   45.5770 C   0  0  0  0  0  0  0  0  0  0  0  0
   54.8450   26.6960   45.9960 O   0  0  0  0  0  0  0  0  0  0  0  0
   58.2150   27.1340   47.8320 O   0  0  0  0  0  0  0  0  0  0  0  0
   59.4530   27.8100   47.6480 C   0  0  0  0  0  0  0  0  0  0  0  0
   59.4630   28.4460   46.2900 C   0  0  0  0  0  0  0  0  0  0  0  0
   60.1480   27.8840   45.3930 O   0  0  0  0  0  0  0  0  0  0  0  0
   58.7440   29.7270   45.9750 C   0  0  0  0  0  0  0  0  0  0  0  0
   57.3910   29.6980   45.5870 C   0  0  0  0  0  0  0  0  0  0  0  0
   56.6770   28.5020   45.5620 O   0  0  0  0  0  0  0  0  0  0  0  0
   56.7590   30.8440   45.2400 N   0  0  0  0  0  0  0  0  0  0  0  0
   57.3860   32.0430   45.2560 C   0  0  0  0  0  0  0  0  0  0  0  0
   56.7420   33.0680   44.9050 O   0  0  0  0  0  0  0  0  0  0  0  0
   58.6970   32.1320   45.6470 N   0  0  0  0  0  0  0  0  0  0  0  0
   59.3950   33.4350   45.6460 C   0  0  0  0  0  0  0  0  0  0  0  0
   60.0540   33.6840   46.9800 C   0  0  0  0  0  0  0  0  0  0  0  0
   59.2700   33.8970   48.1270 C   0  0  0  0  0  0  0  0  0  0  0  0
   59.8800   34.1420   49.3610 C   0  0  0  0  0  0  0  0  0  0  0  0
   61.2730   34.1700   49.4630 C   0  0  0  0  0  0  0  0  0  0  0  0
   62.0600   33.9520   48.3290 C   0  0  0  0  0  0  0  0  0  0  0  0
   61.4560   33.7180   47.0910 C   0  0  0  0  0  0  0  0  0  0  0  0
   59.3780   30.9950   46.0080 C   0  0  0  0  0  0  0  0  0  0  0  0
   60.5850   31.0900   46.3620 O   0  0  0  0  0  0  0  0  0  0  0  0
   59.3215   25.3817   45.6206 H   0  0  0  0  0  0  0  0  0  0  0  0
   57.5092   26.1260   44.0173 H   0  0  0  0  0  0  0  0  0  0  0  0
   57.0074   22.9604   44.3816 H   0  0  0  0  0  0  0  0  0  0  0  0
   54.9401   21.5928   44.6068 H   0  0  0  0  0  0  0  0  0  0  0  0
   52.8349   22.6318   45.4491 H   0  0  0  0  0  0  0  0  0  0  0  0
   52.7992   25.0436   46.0827 H   0  0  0  0  0  0  0  0  0  0  0  0
   59.5683   28.5855   48.4196 H   0  0  0  0  0  0  0  0  0  0  0  0
   60.2840   27.0939   47.7299 H   0  0  0  0  0  0  0  0  0  0  0  0
   56.6720   27.8800   46.3620 H   0  0  0  0  0  0  0  0  0  0  0  0
   60.1625   33.4336   44.8580 H   0  0  0  0  0  0  0  0  0  0  0  0
   58.6598   34.2316   45.4589 H   0  0  0  0  0  0  0  0  0  0  0  0
   58.1728   33.8709   48.0535 H   0  0  0  0  0  0  0  0  0  0  0  0
   59.2612   34.3132   50.2542 H   0  0  0  0  0  0  0  0  0  0  0  0
   61.7500   34.3635   50.4351 H   0  0  0  0  0  0  0  0  0  0  0  0
   63.1569   33.9646   48.4112 H   0  0  0  0  0  0  0  0  0  0  0  0
   62.0797   33.5596   46.1989 H   0  0  0  0  0  0  0  0  0  0  0  0
  1  2  2  0
  2  3  1  0
  3  4  2  3
  4  5  1  0
  5  6  2  0
  6  7  1  0
  7  8  2  0
  8  9  1  0
  9 10  2  0
 10 11  1  0
  2 12  1  0
 12 13  1  0
 13 14  1  0
 14 15  2  0
 14 16  1  0
 16 17  2  0
 17 18  1  0
 17 19  1  0
 19 20  1  0
 20 21  2  0
 20 22  1  0
 22 23  1  0
 23 24  1  0
 24 25  2  0
 25 26  1  0
 26 27  2  0
 27 28  1  0
 28 29  2  0
 22 30  1  0
 30 31  2  0
 10  5  1  0
 30 16  1  0
 29 24  1  0
  3 32  1  0
  4 33  1  0
  6 34  1  0
  7 35  1  0
  8 36  1  0
  9 37  1  0
 13 38  1  0
 13 39  1  0
 18 40  1  0
 23 41  1  0
 23 42  1  0
 25 43  1  0
 26 44  1  0
 27 45  1  0
 28 46  1  0
 29 47  1  0
M  CHG  2  11  -1  19  -1
M  END
>  <UniqueID>  (53) 
49

>  <SMILES>  (53) 
O=C(C=Cc1ccccc1[O-])OCC(=O)c1c(O)[n-]c(=O)n(Cc2ccccc2)c1=O

>  <Energy>  (53) 
57.261843847560804

>  <Genealogy>  (53) 
O=C(C=Cc1ccccc1[O-])OCC(=O)c1c(O)[n-]c(=O)n(Cc2ccccc2)c1=O (protonated)
O=C(C=Cc1ccccc1[O-])OCC(=O)c1c(O)[n-]c(=O)n(Cc2ccccc2)c1=O (3D coordinates assigned)
O=C(C=Cc1ccccc1[O-])OCC(=O)c1c(O)[n-]c(=O)n(Cc2ccccc2)c1=O (optimized conformer: 57.261843847560804 kcal/mol)

>  <smiles>  (53) 
O=C(C=Cc1ccccc1O)OCC(=O)c1c(O)[nH]c(=O)n(Cc2ccccc2)c1=O

>  <score_type>  (53) 
oracle

>  <origin>  (53) 
adg

>  <m_score__min__energy>  (53) 
-13.15

>  <m_primary>  (53) 
energy

$$$$
53:0
     RDKit          3D

 55 57  0  0  0  0  0  0  0  0999 V2000
   63.6305   34.2878   50.6950 H   0  0  0  0  0  0  0  0  0  0  0  0
   63.5030   33.3010   50.2260 C   0  0  0  0  0  0  0  0  0  0  0  0
   62.7590   32.4200   50.8320 N   0  0  0  0  0  0  0  0  0  0  0  0
   61.3290   32.3320   50.7770 C   0  0  0  0  0  0  0  0  0  0  0  0
   60.6800   32.3320   51.8560 O   0  0  0  0  0  0  0  0  0  0  0  0
   60.6100   32.1430   49.5000 C   0  0  0  0  0  0  0  0  0  0  0  0
   60.1710   30.9410   48.9550 C   0  0  0  0  0  0  0  0  0  0  0  0
   60.2100   29.5820   49.5880 C   0  0  0  0  0  0  0  0  0  0  0  0
   60.2070   29.6873   50.6829 H   0  0  0  0  0  0  0  0  0  0  0  0
   59.3280   29.0052   49.2727 H   0  0  0  0  0  0  0  0  0  0  0  0
   61.1236   29.0567   49.2727 H   0  0  0  0  0  0  0  0  0  0  0  0
   59.5360   31.2650   47.7650 C   0  0  0  0  0  0  0  0  0  0  0  0
   58.8670   30.3160   46.8610 C   0  0  0  0  0  0  0  0  0  0  0  0
   59.3606   29.3691   46.5971 H   0  0  0  0  0  0  0  0  0  0  0  0
   57.6960   30.5930   46.3740 N   0  0  0  0  0  0  0  0  0  0  0  0
   57.4690   30.9080   45.0170 N   0  0  0  0  0  0  0  0  0  0  0  0
   58.0620   31.9970   44.4270 C   0  0  0  0  0  0  0  0  0  0  0  0
   58.9290   32.8160   45.1420 O   0  0  0  0  0  0  0  0  0  0  0  0
   57.8300   32.2810   43.0820 C   0  0  0  0  0  0  0  0  0  0  0  0
   58.2737   33.1709   42.6116 H   0  0  0  0  0  0  0  0  0  0  0  0
   57.0260   31.4160   42.3470 C   0  0  0  0  0  0  0  0  0  0  0  0
   56.8070   31.6350   41.1260 O   0  0  0  0  0  0  0  0  0  0  0  0
   56.4880   30.3260   42.9460 N   0  0  0  0  0  0  0  0  0  0  0  0
   56.6960   30.0620   44.2670 C   0  0  0  0  0  0  0  0  0  0  0  0
   56.1870   28.9930   44.8130 N   0  0  0  0  0  0  0  0  0  0  0  0
   56.9210   27.8300   45.2260 C   0  0  0  0  0  0  0  0  0  0  0  0
   58.3180   27.8430   45.1230 C   0  0  0  0  0  0  0  0  0  0  0  0
   58.8283   28.7318   44.7234 H   0  0  0  0  0  0  0  0  0  0  0  0
   59.0680   26.7330   45.5250 C   0  0  0  0  0  0  0  0  0  0  0  0
   60.1636   26.7452   45.4277 H   0  0  0  0  0  0  0  0  0  0  0  0
   58.4260   25.6090   46.0500 C   0  0  0  0  0  0  0  0  0  0  0  0
   59.0150   24.7305   46.3520 H   0  0  0  0  0  0  0  0  0  0  0  0
   57.0340   25.6000   46.1920 C   0  0  0  0  0  0  0  0  0  0  0  0
   56.5314   24.7170   46.6135 H   0  0  0  0  0  0  0  0  0  0  0  0
   56.2790   26.7120   45.7990 C   0  0  0  0  0  0  0  0  0  0  0  0
   54.9040   26.7080   46.0050 O   0  0  0  0  0  0  0  0  0  0  0  0
   59.5870   32.5950   47.5540 N   0  0  0  0  0  0  0  0  0  0  0  0
   59.1830   33.1150   46.7420 H   0  0  0  0  0  0  0  0  0  0  0  0
   60.2480   33.1340   48.5960 C   0  0  0  0  0  0  0  0  0  0  0  0
   60.4830   34.6060   48.7450 C   0  0  0  0  0  0  0  0  0  0  0  0
   60.5243   34.8644   49.8134 H   0  0  0  0  0  0  0  0  0  0  0  0
   61.4356   34.8756   48.2655 H   0  0  0  0  0  0  0  0  0  0  0  0
   59.6617   35.1588   48.2655 H   0  0  0  0  0  0  0  0  0  0  0  0
   64.1980   33.0370   48.9150 C   0  0  0  0  0  0  0  0  0  0  0  0
   64.8714   33.8760   48.6855 H   0  0  0  0  0  0  0  0  0  0  0  0
   64.7744   32.1037   48.9963 H   0  0  0  0  0  0  0  0  0  0  0  0
   63.2050   32.8970   47.8290 N   0  0  0  0  0  0  0  0  0  0  0  0
   63.4010   33.9390   46.8040 C   0  0  0  0  0  0  0  0  0  0  0  0
   63.5830   34.9065   47.2948 H   0  0  0  0  0  0  0  0  0  0  0  0
   64.2658   33.6778   46.1763 H   0  0  0  0  0  0  0  0  0  0  0  0
   62.5004   34.0099   46.1763 H   0  0  0  0  0  0  0  0  0  0  0  0
   63.3110   31.5700   47.2070 C   0  0  0  0  0  0  0  0  0  0  0  0
   63.3724   30.8012   47.9914 H   0  0  0  0  0  0  0  0  0  0  0  0
   62.4247   31.3862   46.5820 H   0  0  0  0  0  0  0  0  0  0  0  0
   64.2153   31.5292   46.5820 H   0  0  0  0  0  0  0  0  0  0  0  0
  1  2  1  0
  2  3  2  3
  3  4  1  0
  4  5  2  0
  4  6  1  0
  6  7  1  0
  7  8  1  0
  8  9  1  0
  8 10  1  0
  8 11  1  0
  7 12  2  0
 12 13  1  0
 13 14  1  0
 13 15  2  0
 15 16  1  0
 16 17  1  0
 17 18  1  0
 17 19  2  0
 19 20  1  0
 19 21  1  0
 21 22  2  0
 21 23  1  0
 23 24  1  0
 24 25  2  3
 25 26  1  0
 26 27  2  0
 27 28  1  0
 27 29  1  0
 29 30  1  0
 29 31  2  0
 31 32  1  0
 31 33  1  0
 33 34  1  0
 33 35  2  0
 35 36  1  0
 12 37  1  0
 37 38  1  0
 37 39  1  0
 39 40  1  0
 40 41  1  0
 40 42  1  0
 40 43  1  0
  2 44  1  0
 44 45  1  0
 44 46  1  0
 44 47  1  0
 47 48  1  0
 48 49  1  0
 48 50  1  0
 48 51  1  0
 47 52  1  0
 52 53  1  0
 52 54  1  0
 52 55  1  0
 39  6  2  0
 24 16  1  0
 35 26  1  0
M  CHG  3  18  -1  23  -1  36  -1
M  END
>  <UniqueID>  (54) 
50

>  <SMILES>  (54) 
Cc1[nH]c(/C=N/n2c([O-])cc(=O)[n-]c2=Nc2ccccc2[O-])c(C)c1C(=O)N=CCN(C)C

>  <Energy>  (54) 
104.42604022045964

>  <Genealogy>  (54) 
Cc1[nH]c(C=Nn2c([O-])cc(=O)[n-]c2=Nc2ccccc2[O-])c(C)c1C(=O)N=CCN(C)C (protonated)
Cc1[nH]c(/C=N/n2c([O-])cc(=O)[n-]c2=Nc2ccccc2[O-])c(C)c1C(=O)N=CCN(C)C (cis-trans isomerization)
Cc1[nH]c(/C=N/n2c([O-])cc(=O)[n-]c2=Nc2ccccc2[O-])c(C)c1C(=O)N=CCN(C)C (3D coordinates assigned)
Cc1[nH]c(/C=N/n2c([O-])cc(=O)[n-]c2=Nc2ccccc2[O-])c(C)c1C(=O)N=CCN(C)C (optimized conformer: 104.42604022045964 kcal/mol)

>  <smiles>  (54) 
Cc1[nH]c(C=Nn2c(O)cc(=O)[nH]c2=Nc2ccccc2O)c(C)c1C(=O)N=CCN(C)C

>  <score_type>  (54) 
oracle

>  <origin>  (54) 
adg

>  <m_score__min__energy>  (54) 
-14.710000000000001

>  <m_primary>  (54) 
energy

$$$$
54:0
     RDKit          3D

 41 43  0  0  0  0  0  0  0  0999 V2000
   55.0310   26.3500   45.9820 O   0  0  0  0  0  0  0  0  0  0  0  0
   56.0600   26.9860   45.6330 C   0  0  0  0  0  0  0  0  0  0  0  0
   57.4100   26.3210   45.7130 C   0  0  0  0  0  0  0  0  0  0  0  0
   57.3550   25.0620   46.5220 C   0  0  0  0  0  0  0  0  0  0  0  0
   57.6600   23.7990   46.0760 C   0  0  0  0  0  0  0  0  0  0  0  0
   57.4370   22.9220   47.0690 N   0  0  0  0  0  0  0  0  0  0  0  0
   56.9930   23.6860   48.0910 C   0  0  0  0  0  0  0  0  0  0  0  0
   56.9210   25.0010   47.7940 N   0  0  0  0  0  0  0  0  0  0  0  0
   55.9150   28.3600   45.2460 N   0  0  0  0  0  0  0  0  0  0  0  0
   56.5350   28.9920   44.0850 C   0  0  0  0  0  0  0  0  0  0  0  0
   56.9940   30.3920   44.4040 C   0  0  0  0  0  0  0  0  0  0  0  0
   58.0470   30.6860   45.1950 C   0  0  0  0  0  0  0  0  0  0  0  0
   58.8260   29.5960   45.8440 C   0  0  0  0  0  0  0  0  0  0  0  0
   58.6200   29.2610   47.1970 C   0  0  0  0  0  0  0  0  0  0  0  0
   59.3710   28.2470   47.7980 C   0  0  0  0  0  0  0  0  0  0  0  0
   60.3370   27.5590   47.0600 C   0  0  0  0  0  0  0  0  0  0  0  0
   60.5570   27.8870   45.7200 C   0  0  0  0  0  0  0  0  0  0  0  0
   59.8090   28.9020   45.1150 C   0  0  0  0  0  0  0  0  0  0  0  0
   58.4370   32.0890   45.4700 C   0  0  0  0  0  0  0  0  0  0  0  0
   57.8020   33.1530   44.8090 C   0  0  0  0  0  0  0  0  0  0  0  0
   58.1910   34.4720   45.0660 C   0  0  0  0  0  0  0  0  0  0  0  0
   59.2210   34.7340   45.9730 C   0  0  0  0  0  0  0  0  0  0  0  0
   59.8670   33.6790   46.6220 C   0  0  0  0  0  0  0  0  0  0  0  0
   59.4820   32.3590   46.3680 C   0  0  0  0  0  0  0  0  0  0  0  0
   57.7492   26.0773   44.6954 H   0  0  0  0  0  0  0  0  0  0  0  0
   58.1082   27.0156   46.2029 H   0  0  0  0  0  0  0  0  0  0  0  0
   58.0269   23.5469   45.0701 H   0  0  0  0  0  0  0  0  0  0  0  0
   56.7161   23.2751   49.0731 H   0  0  0  0  0  0  0  0  0  0  0  0
   57.4027   28.3930   43.7716 H   0  0  0  0  0  0  0  0  0  0  0  0
   55.7884   29.0464   43.2790 H   0  0  0  0  0  0  0  0  0  0  0  0
   56.4335   31.2293   43.9628 H   0  0  0  0  0  0  0  0  0  0  0  0
   57.8629   29.8012   47.7843 H   0  0  0  0  0  0  0  0  0  0  0  0
   59.2010   27.9903   48.8540 H   0  0  0  0  0  0  0  0  0  0  0  0
   60.9245   26.7589   47.5340 H   0  0  0  0  0  0  0  0  0  0  0  0
   61.3194   27.3463   45.1401 H   0  0  0  0  0  0  0  0  0  0  0  0
   59.9906   29.1597   44.0611 H   0  0  0  0  0  0  0  0  0  0  0  0
   56.9970   32.9488   44.0876 H   0  0  0  0  0  0  0  0  0  0  0  0
   57.6854   35.3037   44.5535 H   0  0  0  0  0  0  0  0  0  0  0  0
   59.5235   35.7719   46.1762 H   0  0  0  0  0  0  0  0  0  0  0  0
   60.6795   33.8870   47.3337 H   0  0  0  0  0  0  0  0  0  0  0  0
   59.9992   31.5299   46.8731 H   0  0  0  0  0  0  0  0  0  0  0  0
  1  2  2  0
  2  3  1  0
  3  4  1  0
  4  5  2  0
  5  6  1  0
  6  7  1  0
  7  8  2  0
  2  9  1  0
  9 10  1  0
 10 11  1  0
 11 12  2  3
 12 13  1  0
 13 14  2  0
 14 15  1  0
 15 16  2  0
 16 17  1  0
 17 18  2  0
 12 19  1  0
 19 20  2  0
 20 21  1  0
 21 22  2  0
 22 23  1  0
 23 24  2  0
  8  4  1  0
 18 13  1  0
 24 19  1  0
  3 25  1  0
  3 26  1  0
  5 27  1  0
  7 28  1  0
 10 29  1  0
 10 30  1  0
 11 31  1  0
 14 32  1  0
 15 33  1  0
 16 34  1  0
 17 35  1  0
 18 36  1  0
 20 37  1  0
 21 38  1  0
 22 39  1  0
 23 40  1  0
 24 41  1  0
M  CHG  2   6  -1   9  -1
M  END
>  <UniqueID>  (55) 
51

>  <SMILES>  (55) 
O=C(Cc1c[n-]cn1)[N-]CC=C(c1ccccc1)c1ccccc1

>  <Energy>  (55) 
77.61398213413892

>  <Genealogy>  (55) 
O=C(Cc1c[n-]cn1)[N-]CC=C(c1ccccc1)c1ccccc1 (protonated)
O=C(Cc1c[n-]cn1)[N-]CC=C(c1ccccc1)c1ccccc1 (3D coordinates assigned)
O=C(Cc1c[n-]cn1)[N-]CC=C(c1ccccc1)c1ccccc1 (optimized conformer: 77.61398213413892 kcal/mol)

>  <smiles>  (55) 
O=C(Cc1c[nH]cn1)NCC=C(c1ccccc1)c1ccccc1

>  <score_type>  (55) 
oracle

>  <origin>  (55) 
adg

>  <m_score__min__energy>  (55) 
-11.57

>  <m_primary>  (55) 
energy

$$$$
55:0
     RDKit          3D

 55 57  0  0  0  0  0  0  0  0999 V2000
   60.4230   30.1610   50.8250 C   0  0  0  0  0  0  0  0  0  0  0  0
   60.2020   29.2260   49.6720 C   0  0  0  0  0  0  0  0  0  0  0  0
   60.7110   27.9180   49.7160 C   0  0  0  0  0  0  0  0  0  0  0  0
   60.4750   27.0350   48.6570 C   0  0  0  0  0  0  0  0  0  0  0  0
   59.7300   27.4510   47.5480 C   0  0  0  0  0  0  0  0  0  0  0  0
   59.4210   26.3140   46.1910 S   0  0  0  0  0  0  0  0  0  0  0  0
   58.2290   27.3910   45.3100 C   0  0  0  0  0  0  0  0  0  0  0  0
   56.8800   27.4420   46.0260 C   0  0  0  0  0  0  0  0  0  0  0  0
   55.9240   28.2190   45.2490 N   0  0  0  0  0  0  0  0  0  0  0  0
   56.0950   29.5970   44.9020 C   0  0  0  0  0  0  0  0  0  0  0  0
   55.1320   30.2130   44.3710 O   0  0  0  0  0  0  0  0  0  0  0  0
   57.4120   30.2930   45.1080 C   0  0  0  0  0  0  0  0  0  0  0  0
   57.2600   31.7370   44.9540 N   0  0  0  0  0  0  0  0  0  0  0  0
   57.5480   32.7040   45.9710 C   0  0  0  0  0  0  0  0  0  0  0  0
   56.6240   33.4680   46.3580 O   0  0  0  0  0  0  0  0  0  0  0  0
   58.8990   32.8680   46.5440 C   0  0  0  0  0  0  0  0  0  0  0  0
   59.8520   31.8500   46.3820 C   0  0  0  0  0  0  0  0  0  0  0  0
   61.1370   31.9960   46.9150 C   0  0  0  0  0  0  0  0  0  0  0  0
   61.4900   33.1670   47.5970 C   0  0  0  0  0  0  0  0  0  0  0  0
   63.1020   33.3480   48.2780 S   0  0  0  0  0  0  0  0  0  0  0  0
   63.6870   31.9840   48.5200 O   0  0  0  0  0  0  0  0  0  0  0  0
   63.9690   34.1160   47.3200 O   0  0  0  0  0  0  0  0  0  0  0  0
   62.9980   34.2200   49.7730 N   0  0  0  0  0  0  0  0  0  0  0  0
   62.3180   33.7650   50.9500 C   0  0  0  0  0  0  0  0  0  0  0  0
   63.0080   33.4050   52.1230 C   0  0  0  0  0  0  0  0  0  0  0  0
   62.3030   32.9630   53.2460 C   0  0  0  0  0  0  0  0  0  0  0  0
   60.9090   32.8770   53.2110 C   0  0  0  0  0  0  0  0  0  0  0  0
   60.2160   33.2350   52.0500 C   0  0  0  0  0  0  0  0  0  0  0  0
   58.4660   33.1270   52.0050 Cl  0  0  0  0  0  0  0  0  0  0  0  0
   60.9190   33.6770   50.9250 C   0  0  0  0  0  0  0  0  0  0  0  0
   60.5450   34.1910   47.7460 C   0  0  0  0  0  0  0  0  0  0  0  0
   59.2600   34.0470   47.2140 C   0  0  0  0  0  0  0  0  0  0  0  0
   59.1940   28.7430   47.5150 C   0  0  0  0  0  0  0  0  0  0  0  0
   59.4260   29.6270   48.5730 C   0  0  0  0  0  0  0  0  0  0  0  0
   60.2937   29.6141   51.7706 H   0  0  0  0  0  0  0  0  0  0  0  0
   61.4427   30.5705   50.7747 H   0  0  0  0  0  0  0  0  0  0  0  0
   59.6946   30.9837   50.7747 H   0  0  0  0  0  0  0  0  0  0  0  0
   61.2971   27.5867   50.5859 H   0  0  0  0  0  0  0  0  0  0  0  0
   60.8759   26.0114   48.6962 H   0  0  0  0  0  0  0  0  0  0  0  0
   58.6419   28.4090   45.2538 H   0  0  0  0  0  0  0  0  0  0  0  0
   58.0688   26.9756   44.3042 H   0  0  0  0  0  0  0  0  0  0  0  0
   56.4977   26.4184   46.1529 H   0  0  0  0  0  0  0  0  0  0  0  0
   57.0142   27.9188   47.0082 H   0  0  0  0  0  0  0  0  0  0  0  0
   57.7818   30.0744   46.1206 H   0  0  0  0  0  0  0  0  0  0  0  0
   58.1267   29.9294   44.3550 H   0  0  0  0  0  0  0  0  0  0  0  0
   59.5872   30.9339   45.8337 H   0  0  0  0  0  0  0  0  0  0  0  0
   61.8735   31.1874   46.7979 H   0  0  0  0  0  0  0  0  0  0  0  0
   64.1055   33.4718   52.1559 H   0  0  0  0  0  0  0  0  0  0  0  0
   62.8472   32.6821   54.1598 H   0  0  0  0  0  0  0  0  0  0  0  0
   60.3568   32.5279   54.0960 H   0  0  0  0  0  0  0  0  0  0  0  0
   60.3704   33.9577   50.0138 H   0  0  0  0  0  0  0  0  0  0  0  0
   60.8152   35.1118   48.2837 H   0  0  0  0  0  0  0  0  0  0  0  0
   58.5287   34.8617   47.3212 H   0  0  0  0  0  0  0  0  0  0  0  0
   58.5886   29.0640   46.6545 H   0  0  0  0  0  0  0  0  0  0  0  0
   58.9990   30.6403   48.5442 H   0  0  0  0  0  0  0  0  0  0  0  0
  1  2  1  0
  2  3  2  0
  3  4  1  0
  4  5  2  0
  5  6  1  0
  6  7  1  0
  7  8  1  0
  8  9  1  0
  9 10  1  0
 10 11  2  0
 10 12  1  0
 12 13  1  0
 13 14  1  0
 14 15  2  0
 14 16  1  0
 16 17  2  0
 17 18  1  0
 18 19  2  0
 19 20  1  0
 20 21  2  0
 20 22  2  0
 20 23  1  0
 23 24  1  0
 24 25  2  0
 25 26  1  0
 26 27  2  0
 27 28  1  0
 28 29  1  0
 28 30  2  0
 19 31  1  0
 31 32  2  0
  5 33  1  0
 33 34  2  0
 34  2  1  0
 32 16  1  0
 30 24  1  0
  1 35  1  0
  1 36  1  0
  1 37  1  0
  3 38  1  0
  4 39  1  0
  7 40  1  0
  7 41  1  0
  8 42  1  0
  8 43  1  0
 12 44  1  0
 12 45  1  0
 17 46  1  0
 18 47  1  0
 25 48  1  0
 26 49  1  0
 27 50  1  0
 30 51  1  0
 31 52  1  0
 32 53  1  0
 33 54  1  0
 34 55  1  0
M  CHG  3   9  -1  13  -1  23  -1
M  END
>  <UniqueID>  (56) 
52

>  <SMILES>  (56) 
Cc1ccc(SCC[N-]C(=O)C[N-]C(=O)c2ccc(S(=O)(=O)[N-]c3cccc(Cl)c3)cc2)cc1

>  <Energy>  (56) 
56.898674914310654

>  <Genealogy>  (56) 
Cc1ccc(SCC[N-]C(=O)C[N-]C(=O)c2ccc(S(=O)(=O)[N-]c3cccc(Cl)c3)cc2)cc1 (protonated)
Cc1ccc(SCC[N-]C(=O)C[N-]C(=O)c2ccc(S(=O)(=O)[N-]c3cccc(Cl)c3)cc2)cc1 (3D coordinates assigned)
Cc1ccc(SCC[N-]C(=O)C[N-]C(=O)c2ccc(S(=O)(=O)[N-]c3cccc(Cl)c3)cc2)cc1 (optimized conformer: 56.898674914310654 kcal/mol)

>  <smiles>  (56) 
Cc1ccc(SCCNC(=O)CNC(=O)c2ccc(S(=O)(=O)Nc3cccc(Cl)c3)cc2)cc1

>  <score_type>  (56) 
oracle

>  <origin>  (56) 
adg

>  <m_score__min__energy>  (56) 
-13

>  <m_primary>  (56) 
energy

$$$$
56:0
     RDKit          3D

 26 28  0  0  0  0  0  0  0  0999 V2000
   59.9264   30.4216   46.3098 H   0  0  0  0  0  0  0  0  0  0  0  0
   59.4160   29.4660   46.1190 C   0  0  0  0  0  0  0  0  0  0  0  0
   59.8661   28.5235   46.4642 H   0  0  0  0  0  0  0  0  0  0  0  0
   58.2440   29.4500   45.4650 C   0  0  0  0  0  0  0  0  0  0  0  0
   57.4630   28.3310   45.1390 C   0  0  0  0  0  0  0  0  0  0  0  0
   57.7750   27.0220   45.1460 C   0  0  0  0  0  0  0  0  0  0  0  0
   58.5043   26.6761   44.3987 H   0  0  0  0  0  0  0  0  0  0  0  0
   57.2260   26.0120   46.0660 C   0  0  0  0  0  0  0  0  0  0  0  0
   57.9230   24.9820   46.5810 N   0  0  0  0  0  0  0  0  0  0  0  0
   56.9840   24.2670   47.2380 C   0  0  0  0  0  0  0  0  0  0  0  0
   57.2540   23.2160   47.8740 O   0  0  0  0  0  0  0  0  0  0  0  0
   55.7310   24.7620   47.1490 N   0  0  0  0  0  0  0  0  0  0  0  0
   55.9010   25.8580   46.3920 C   0  0  0  0  0  0  0  0  0  0  0  0
   54.8660   26.6980   46.0040 O   0  0  0  0  0  0  0  0  0  0  0  0
   56.2350   28.7480   44.7630 N   0  0  0  0  0  0  0  0  0  0  0  0
   56.3050   30.0910   44.8130 C   0  0  0  0  0  0  0  0  0  0  0  0
   55.3360   30.8340   44.4990 O   0  0  0  0  0  0  0  0  0  0  0  0
   57.5070   30.5580   45.2100 N   0  0  0  0  0  0  0  0  0  0  0  0
   57.8770   31.9420   45.3510 C   0  0  0  0  0  0  0  0  0  0  0  0
   58.1600   33.0070   44.0790 S   0  0  0  0  0  0  0  0  0  0  0  0
   58.5950   34.3160   45.0420 C   0  0  0  0  0  0  0  0  0  0  0  0
   58.8783   35.3150   44.6790 H   0  0  0  0  0  0  0  0  0  0  0  0
   58.5360   33.9220   46.3750 C   0  0  0  0  0  0  0  0  0  0  0  0
   58.7773   34.5939   47.2118 H   0  0  0  0  0  0  0  0  0  0  0  0
   58.1410   32.5910   46.5520 C   0  0  0  0  0  0  0  0  0  0  0  0
   58.0492   32.1095   47.5367 H   0  0  0  0  0  0  0  0  0  0  0  0
  1  2  1  0
  2  3  1  0
  2  4  2  0
  4  5  1  0
  5  6  2  0
  6  7  1  0
  6  8  1  0
  8  9  1  0
  9 10  1  0
 10 11  2  0
 10 12  1  0
 12 13  1  0
 13 14  1  0
  5 15  1  0
 15 16  1  0
 16 17  2  0
 16 18  1  0
 18 19  1  0
 19 20  1  0
 20 21  1  0
 21 22  1  0
 21 23  2  0
 23 24  1  0
 23 25  1  0
 25 26  1  0
 18  4  1  0
 25 19  2  0
 13  8  2  0
M  CHG  4   9  -1  12  -1  14  -1  15  -1
M  END
>  <UniqueID>  (57) 
53

>  <SMILES>  (57) 
C=c1/c(=C\c2[n-]c(=O)[n-]c2[O-])[n-]c(=O)n1-c1cccs1

>  <Energy>  (57) 
133.674100459937

>  <Genealogy>  (57) 
C=c1c(=Cc2[n-]c(=O)[n-]c2[O-])[n-]c(=O)n1-c1cccs1 (protonated)
C=c1/c(=C\c2[n-]c(=O)[n-]c2[O-])[n-]c(=O)n1-c1cccs1 (cis-trans isomerization)
C=c1/c(=C\c2[n-]c(=O)[n-]c2[O-])[n-]c(=O)n1-c1cccs1 (3D coordinates assigned)
C=c1/c(=C\c2[n-]c(=O)[n-]c2[O-])[n-]c(=O)n1-c1cccs1 (optimized conformer: 133.674100459937 kcal/mol)

>  <smiles>  (57) 
C=c1c(=Cc2[nH]c(=O)[nH]c2O)[nH]c(=O)n1-c1cccs1

>  <score_type>  (57) 
oracle

>  <origin>  (57) 
adg

>  <m_score__min__energy>  (57) 
-16.379999999999999

>  <m_primary>  (57) 
energy

$$$$
57:0
     RDKit          3D

 35 36  0  0  0  0  0  0  0  0999 V2000
   62.3830   31.2560   48.2610 H   0  0  0  0  0  0  0  0  0  0  0  0
   61.5890   30.9540   47.7140 O   0  0  0  0  0  0  0  0  0  0  0  0
   60.6380   31.8060   47.1350 C   0  0  0  0  0  0  0  0  0  0  0  0
   60.6150   33.1620   47.5390 C   0  0  0  0  0  0  0  0  0  0  0  0
   61.5900   33.6710   48.5420 C   0  0  0  0  0  0  0  0  0  0  0  0
   61.2670   34.6030   49.3290 O   0  0  0  0  0  0  0  0  0  0  0  0
   62.8730   33.1120   48.6130 O   0  0  0  0  0  0  0  0  0  0  0  0
   63.9370   33.4670   47.7320 C   0  0  0  0  0  0  0  0  0  0  0  0
   64.4880   34.3194   48.1559 H   0  0  0  0  0  0  0  0  0  0  0  0
   64.6053   32.6010   47.6165 H   0  0  0  0  0  0  0  0  0  0  0  0
   63.3930   33.8540   46.3610 C   0  0  0  0  0  0  0  0  0  0  0  0
   62.5024   34.4876   46.4854 H   0  0  0  0  0  0  0  0  0  0  0  0
   64.1627   34.4087   45.8043 H   0  0  0  0  0  0  0  0  0  0  0  0
   63.1214   32.9450   45.8043 H   0  0  0  0  0  0  0  0  0  0  0  0
   59.6490   34.0310   46.9890 C   0  0  0  0  0  0  0  0  0  0  0  0
   59.5960   35.2400   47.3560 O   0  0  0  0  0  0  0  0  0  0  0  0
   58.7310   33.5400   46.0440 C   0  0  0  0  0  0  0  0  0  0  0  0
   57.7920   34.3190   45.4960 C   0  0  0  0  0  0  0  0  0  0  0  0
   57.7201   35.3785   45.7829 H   0  0  0  0  0  0  0  0  0  0  0  0
   57.0916   33.9002   44.7584 H   0  0  0  0  0  0  0  0  0  0  0  0
   58.7940   32.2390   45.6700 N   0  0  0  0  0  0  0  0  0  0  0  0
   59.6990   31.3530   46.1660 C   0  0  0  0  0  0  0  0  0  0  0  0
   59.7090   30.0930   45.6780 C   0  0  0  0  0  0  0  0  0  0  0  0
   60.6608   29.6936   45.2978 H   0  0  0  0  0  0  0  0  0  0  0  0
   58.5140   29.2160   45.6240 C   0  0  0  0  0  0  0  0  0  0  0  0
   57.3700   29.5650   44.8810 C   0  0  0  0  0  0  0  0  0  0  0  0
   57.3577   30.5004   44.3023 H   0  0  0  0  0  0  0  0  0  0  0  0
   56.2500   28.7290   44.8750 C   0  0  0  0  0  0  0  0  0  0  0  0
   55.3658   29.0003   44.2795 H   0  0  0  0  0  0  0  0  0  0  0  0
   56.2510   27.5490   45.6240 C   0  0  0  0  0  0  0  0  0  0  0  0
   55.1370   26.7190   45.6160 O   0  0  0  0  0  0  0  0  0  0  0  0
   57.3730   27.2070   46.3850 C   0  0  0  0  0  0  0  0  0  0  0  0
   57.3729   26.2806   46.9781 H   0  0  0  0  0  0  0  0  0  0  0  0
   58.4950   28.0410   46.3930 C   0  0  0  0  0  0  0  0  0  0  0  0
   59.3689   27.7751   47.0058 H   0  0  0  0  0  0  0  0  0  0  0  0
  1  2  1  0
  2  3  1  0
  3  4  2  0
  4  5  1  0
  5  6  2  0
  5  7  1  0
  7  8  1  0
  8  9  1  0
  8 10  1  0
  8 11  1  0
 11 12  1  0
 11 13  1  0
 11 14  1  0
  4 15  1  0
 15 16  2  0
 15 17  1  0
 17 18  2  0
 18 19  1  0
 18 20  1  0
 17 21  1  0
 21 22  1  0
 22 23  2  0
 23 24  1  0
 23 25  1  0
 25 26  2  0
 26 27  1  0
 26 28  1  0
 28 29  1  0
 28 30  2  0
 30 31  1  0
 30 32  1  0
 32 33  1  0
 32 34  2  0
 34 35  1  0
 22  3  1  0
 34 25  1  0
M  CHG  2  21  -1  31  -1
M  END
>  <UniqueID>  (58) 
54

>  <SMILES>  (58) 
C=c1[n-]/c(=C\c2ccc([O-])cc2)c(O)c(C(=O)OCC)c1=O

>  <Energy>  (58) 
48.462317063672046

>  <Genealogy>  (58) 
C=c1[n-]c(=Cc2ccc([O-])cc2)c(O)c(C(=O)OCC)c1=O (protonated)
C=c1[n-]/c(=C\c2ccc([O-])cc2)c(O)c(C(=O)OCC)c1=O (cis-trans isomerization)
C=c1[n-]/c(=C\c2ccc([O-])cc2)c(O)c(C(=O)OCC)c1=O (3D coordinates assigned)
C=c1[n-]/c(=C\c2ccc([O-])cc2)c(O)c(C(=O)OCC)c1=O (optimized conformer: 48.462317063672046 kcal/mol)

>  <smiles>  (58) 
C=c1[nH]c(=Cc2ccc(O)cc2)c(O)c(C(=O)OCC)c1=O

>  <score_type>  (58) 
oracle

>  <origin>  (58) 
adg

>  <m_score__min__energy>  (58) 
-10.699999999999999

>  <m_primary>  (58) 
energy

$$$$
58:0
     RDKit          3D

 56 59  0  0  0  0  0  0  0  0999 V2000
   58.3230   33.8900   45.9330 C   0  0  0  0  0  0  0  0  0  0  0  0
   59.4470   34.5720   46.1660 C   0  0  0  0  0  0  0  0  0  0  0  0
   60.6500   33.9300   46.8050 C   0  0  0  0  0  0  0  0  0  0  0  0
   60.9230   34.5200   48.1350 N   0  0  0  0  0  0  0  0  0  0  0  0
   59.8900   34.1360   49.1340 C   0  0  0  0  0  0  0  0  0  0  0  0
   60.3170   32.9890   50.0720 C   0  0  0  0  0  0  0  0  0  0  0  0
   61.3100   32.1320   49.4160 N   0  0  0  0  0  0  0  0  0  0  0  0
   61.1090   30.7120   49.2900 C   0  0  0  0  0  0  0  0  0  0  0  0
   61.4690   29.8450   50.3360 C   0  0  0  0  0  0  0  0  0  0  0  0
   61.2590   28.4690   50.2190 C   0  0  0  0  0  0  0  0  0  0  0  0
   60.6800   27.9420   49.0610 C   0  0  0  0  0  0  0  0  0  0  0  0
   60.4980   26.6030   48.9530 F   0  0  0  0  0  0  0  0  0  0  0  0
   60.3010   28.7970   48.0140 C   0  0  0  0  0  0  0  0  0  0  0  0
   59.7110   28.2630   46.8170 N   0  0  0  0  0  0  0  0  0  0  0  0
   60.1510   28.4780   45.5570 C   0  0  0  0  0  0  0  0  0  0  0  0
   61.3320   29.3280   45.1960 C   0  0  0  0  0  0  0  0  0  0  0  0
   59.3470   27.8220   44.6460 C   0  0  0  0  0  0  0  0  0  0  0  0
   58.3680   27.1660   45.3820 C   0  0  0  0  0  0  0  0  0  0  0  0
   57.3930   26.3800   44.8860 C   0  0  0  0  0  0  0  0  0  0  0  0
   56.8190   25.2290   45.6190 C   0  0  0  0  0  0  0  0  0  0  0  0
   55.4680   25.2400   45.9960 C   0  0  0  0  0  0  0  0  0  0  0  0
   54.6640   26.3400   45.7190 O   0  0  0  0  0  0  0  0  0  0  0  0
   54.9360   24.1730   46.6470 N   0  0  0  0  0  0  0  0  0  0  0  0
   55.6870   23.0790   46.9320 C   0  0  0  0  0  0  0  0  0  0  0  0
   55.1740   22.1060   47.5410 O   0  0  0  0  0  0  0  0  0  0  0  0
   56.9910   23.0320   46.5550 N   0  0  0  0  0  0  0  0  0  0  0  0
   57.5700   24.0720   45.8990 C   0  0  0  0  0  0  0  0  0  0  0  0
   58.7720   23.9780   45.5340 O   0  0  0  0  0  0  0  0  0  0  0  0
   58.6220   27.4590   46.7250 C   0  0  0  0  0  0  0  0  0  0  0  0
   57.8940   27.0580   47.7800 C   0  0  0  0  0  0  0  0  0  0  0  0
   60.5180   30.1780   48.1330 C   0  0  0  0  0  0  0  0  0  0  0  0
   62.5300   32.7560   48.8940 C   0  0  0  0  0  0  0  0  0  0  0  0
   62.2980   34.2520   48.6220 C   0  0  0  0  0  0  0  0  0  0  0  0
   57.4630   34.3907   45.4643 H   0  0  0  0  0  0  0  0  0  0  0  0
   58.2570   32.8274   46.2097 H   0  0  0  0  0  0  0  0  0  0  0  0
   59.4957   35.6338   45.8829 H   0  0  0  0  0  0  0  0  0  0  0  0
   60.4633   32.8522   46.9211 H   0  0  0  0  0  0  0  0  0  0  0  0
   61.5236   34.1026   46.1592 H   0  0  0  0  0  0  0  0  0  0  0  0
   59.6599   35.0181   49.7495 H   0  0  0  0  0  0  0  0  0  0  0  0
   59.0193   33.7747   48.5671 H   0  0  0  0  0  0  0  0  0  0  0  0
   60.7539   33.4138   50.9878 H   0  0  0  0  0  0  0  0  0  0  0  0
   59.4325   32.3837   50.3195 H   0  0  0  0  0  0  0  0  0  0  0  0
   61.9192   30.2528   51.2531 H   0  0  0  0  0  0  0  0  0  0  0  0
   61.5501   27.7981   51.0406 H   0  0  0  0  0  0  0  0  0  0  0  0
   61.8235   29.6818   46.1143 H   0  0  0  0  0  0  0  0  0  0  0  0
   62.0442   28.7340   44.6044 H   0  0  0  0  0  0  0  0  0  0  0  0
   60.9948   30.1919   44.6044 H   0  0  0  0  0  0  0  0  0  0  0  0
   59.4596   27.8193   43.5518 H   0  0  0  0  0  0  0  0  0  0  0  0
   57.0024   26.6054   43.8827 H   0  0  0  0  0  0  0  0  0  0  0  0
   58.1919   27.3517   48.7974 H   0  0  0  0  0  0  0  0  0  0  0  0
   56.9999   26.4359   47.6267 H   0  0  0  0  0  0  0  0  0  0  0  0
   60.2226   30.8487   47.3127 H   0  0  0  0  0  0  0  0  0  0  0  0
   63.3380   32.6436   49.6320 H   0  0  0  0  0  0  0  0  0  0  0  0
   62.8056   32.2622   47.9505 H   0  0  0  0  0  0  0  0  0  0  0  0
   62.4602   34.8121   49.5547 H   0  0  0  0  0  0  0  0  0  0  0  0
   63.0039   34.5693   47.8403 H   0  0  0  0  0  0  0  0  0  0  0  0
  1  2  2  0
  2  3  1  0
  3  4  1  0
  4  5  1  0
  5  6  1  0
  6  7  1  0
  7  8  1  0
  8  9  2  0
  9 10  1  0
 10 11  2  0
 11 12  1  0
 11 13  1  0
 13 14  1  0
 14 15  1  0
 15 16  1  0
 15 17  2  0
 17 18  1  0
 18 19  2  3
 19 20  1  0
 20 21  2  0
 21 22  1  0
 21 23  1  0
 23 24  1  0
 24 25  2  0
 24 26  1  0
 26 27  1  0
 27 28  2  0
 18 29  1  0
 29 30  2  0
 13 31  2  0
  7 32  1  0
 32 33  1  0
 33  4  1  0
 31  8  1  0
 29 14  1  0
 27 20  1  0
  1 34  1  0
  1 35  1  0
  2 36  1  0
  3 37  1  0
  3 38  1  0
  5 39  1  0
  5 40  1  0
  6 41  1  0
  6 42  1  0
  9 43  1  0
 10 44  1  0
 16 45  1  0
 16 46  1  0
 16 47  1  0
 17 48  1  0
 19 49  1  0
 30 50  1  0
 30 51  1  0
 31 52  1  0
 32 53  1  0
 32 54  1  0
 33 55  1  0
 33 56  1  0
M  CHG  3  22  -1  23  -1  26  -1
M  END
>  <UniqueID>  (59) 
55

>  <SMILES>  (59) 
C=CCN1CCN(c2ccc(F)c(-n3c(C)cc(=Cc4c([O-])[n-]c(=O)[n-]c4=O)c3=C)c2)CC1

>  <Energy>  (59) 
115.25379186309074

>  <Genealogy>  (59) 
C=CCN1CCN(c2ccc(F)c(-n3c(C)cc(=Cc4c([O-])[n-]c(=O)[n-]c4=O)c3=C)c2)CC1 (protonated)
C=CCN1CCN(c2ccc(F)c(-n3c(C)cc(=Cc4c([O-])[n-]c(=O)[n-]c4=O)c3=C)c2)CC1 (3D coordinates assigned)
C=CCN1CCN(c2ccc(F)c(-n3c(C)cc(=Cc4c([O-])[n-]c(=O)[n-]c4=O)c3=C)c2)CC1 (nonaromatic ring conformer: 115.25379186309074 kcal/mol)

>  <smiles>  (59) 
C=CCN1CCN(c2ccc(F)c(-n3c(C)cc(=Cc4c(O)[nH]c(=O)[nH]c4=O)c3=C)c2)CC1

>  <score_type>  (59) 
oracle

>  <origin>  (59) 
adg

>  <m_score__min__energy>  (59) 
-16.300000000000001

>  <m_primary>  (59) 
energy

$$$$
59:0
     RDKit          3D

 48 50  0  0  0  0  0  0  0  0999 V2000
   54.9260   30.5830   52.9640 C   0  0  0  0  0  0  0  0  0  0  0  0
   56.1160   31.1720   53.4790 O   0  0  0  0  0  0  0  0  0  0  0  0
   57.1200   31.7570   52.6910 C   0  0  0  0  0  0  0  0  0  0  0  0
   57.4130   33.1330   52.7550 C   0  0  0  0  0  0  0  0  0  0  0  0
   58.4220   33.6780   51.9580 C   0  0  0  0  0  0  0  0  0  0  0  0
   59.1700   32.8550   51.1020 C   0  0  0  0  0  0  0  0  0  0  0  0
   60.1850   33.3930   50.2400 N   0  0  0  0  0  0  0  0  0  0  0  0
   60.0830   33.6000   48.9590 C   0  0  0  0  0  0  0  0  0  0  0  0
   59.0180   33.1760   48.2490 N   0  0  0  0  0  0  0  0  0  0  0  0
   59.1420   33.4580   46.9220 C   0  0  0  0  0  0  0  0  0  0  0  0
   58.0840   33.0700   45.9600 C   0  0  0  0  0  0  0  0  0  0  0  0
   57.4060   33.9880   45.4170 O   0  0  0  0  0  0  0  0  0  0  0  0
   57.7690   31.6800   45.6910 N   0  0  1  0  0  0  0  0  0  0  0  0
   57.2510   31.5400   44.3030 C   0  0  0  0  0  0  0  0  0  0  0  0
   57.5510   30.1680   43.6560 C   0  0  0  0  0  0  0  0  0  0  0  0
   57.6030   29.0150   44.6740 C   0  0  2  0  0  0  0  0  0  0  0  0
   56.2150   28.6270   45.1250 C   0  0  0  0  0  0  0  0  0  0  0  0
   55.1510   29.5700   45.0260 N   0  0  0  0  0  0  0  0  0  0  0  0
   55.9900   27.4870   45.6130 O   0  0  0  0  0  0  0  0  0  0  0  0
   58.5470   29.3280   45.8660 C   0  0  0  0  0  0  0  0  0  0  0  0
   58.9390   30.8140   45.9470 C   0  0  0  0  0  0  0  0  0  0  0  0
   60.3340   34.0980   46.5690 C   0  0  0  0  0  0  0  0  0  0  0  0
   61.2430   34.3140   47.9670 S   0  0  0  0  0  0  0  0  0  0  0  0
   58.8570   31.4950   51.0100 C   0  0  0  0  0  0  0  0  0  0  0  0
   57.8420   30.9350   51.8110 C   0  0  0  0  0  0  0  0  0  0  0  0
   57.5200   29.5710   51.7590 O   0  0  0  0  0  0  0  0  0  0  0  0
   57.6560   28.6660   52.8510 C   0  0  0  0  0  0  0  0  0  0  0  0
   54.2835   30.2650   53.7983 H   0  0  0  0  0  0  0  0  0  0  0  0
   54.3893   31.3195   52.3480 H   0  0  0  0  0  0  0  0  0  0  0  0
   55.1861   29.7096   52.3480 H   0  0  0  0  0  0  0  0  0  0  0  0
   56.8439   33.7822   53.4366 H   0  0  0  0  0  0  0  0  0  0  0  0
   58.6314   34.7570   52.0014 H   0  0  0  0  0  0  0  0  0  0  0  0
   57.0280   31.3820   46.3650 H   0  0  0  0  0  0  0  0  0  0  0  0
   57.7098   32.3233   43.6818 H   0  0  0  0  0  0  0  0  0  0  0  0
   56.1564   31.6326   44.3606 H   0  0  0  0  0  0  0  0  0  0  0  0
   58.5236   30.2276   43.1455 H   0  0  0  0  0  0  0  0  0  0  0  0
   56.7298   29.9499   42.9574 H   0  0  0  0  0  0  0  0  0  0  0  0
   58.0368   28.1420   44.1644 H   0  0  0  0  0  0  0  0  0  0  0  0
   54.2820   29.3440   44.4920 H   0  0  0  0  0  0  0  0  0  0  0  0
   59.4630   28.7292   45.7546 H   0  0  0  0  0  0  0  0  0  0  0  0
   58.0045   29.0795   46.7901 H   0  0  0  0  0  0  0  0  0  0  0  0
   59.7144   31.0239   45.1955 H   0  0  0  0  0  0  0  0  0  0  0  0
   59.3187   31.0239   46.9578 H   0  0  0  0  0  0  0  0  0  0  0  0
   60.6260   34.4063   45.5543 H   0  0  0  0  0  0  0  0  0  0  0  0
   59.4089   30.8559   50.3050 H   0  0  0  0  0  0  0  0  0  0  0  0
   57.5729   29.2191   53.7982 H   0  0  0  0  0  0  0  0  0  0  0  0
   56.8619   27.9066   52.7990 H   0  0  0  0  0  0  0  0  0  0  0  0
   58.6382   28.1735   52.7990 H   0  0  0  0  0  0  0  0  0  0  0  0
  1  2  1  0
  2  3  1  0
  3  4  2  0
  4  5  1  0
  5  6  2  0
  6  7  1  0
  7  8  2  3
  8  9  1  0
  9 10  1  0
 10 11  1  0
 11 12  2  0
 11 13  1  0
 13 14  1  0
 14 15  1  0
 15 16  1  0
 16 17  1  0
 17 18  1  0
 17 19  2  0
 16 20  1  0
 20 21  1  0
 10 22  2  0
 22 23  1  0
  6 24  1  0
 24 25  2  0
 25 26  1  0
 26 27  1  0
 25  3  1  0
 23  8  1  0
 21 13  1  0
  1 28  1  0
  1 29  1  0
  1 30  1  0
  4 31  1  0
  5 32  1  0
 13 33  1  1
 14 34  1  0
 14 35  1  0
 15 36  1  0
 15 37  1  0
 16 38  1  6
 18 39  1  0
 20 40  1  0
 20 41  1  0
 21 42  1  0
 21 43  1  0
 22 44  1  0
 24 45  1  0
 27 46  1  0
 27 47  1  0
 27 48  1  0
M  CHG  3   9  -1  13   1  18  -1
M  END
>  <UniqueID>  (60) 
56

>  <SMILES>  (60) 
COc1ccc(N=c2[n-]c(C(=O)[NH+]3CCC(C([NH-])=O)CC3)cs2)cc1OC

>  <Energy>  (60) 
95.0551131781273

>  <Genealogy>  (60) 
COc1ccc(N=c2[n-]c(C(=O)[NH+]3CCC(C([NH-])=O)CC3)cs2)cc1OC (protonated)
COc1ccc(N=c2[n-]c(C(=O)[NH+]3CCC(C([NH-])=O)CC3)cs2)cc1OC (3D coordinates assigned)
COc1ccc(N=c2[n-]c(C(=O)[NH+]3CCC(C([NH-])=O)CC3)cs2)cc1OC (nonaromatic ring conformer: 95.0551131781273 kcal/mol)

>  <smiles>  (60) 
COc1ccc(N=c2[nH]c(C(=O)N3CCC(C(N)=O)CC3)cs2)cc1OC

>  <score_type>  (60) 
oracle

>  <origin>  (60) 
adg

>  <m_score__min__energy>  (60) 
-10.5

>  <m_primary>  (60) 
energy

$$$$
60:0
     RDKit          3D

 58 61  0  0  0  0  0  0  0  0999 V2000
   59.6840   29.8770   48.6710 O   0  0  0  0  0  0  0  0  0  0  0  0
   60.4770   30.2340   47.7560 C   0  0  0  0  0  0  0  0  0  0  0  0
   60.2610   29.7800   46.4100 N   0  0  0  0  0  0  0  0  0  0  0  0
   59.0290   29.1810   45.9710 C   0  0  0  0  0  0  0  0  0  0  0  0
   58.8000   27.8080   46.1610 C   0  0  0  0  0  0  0  0  0  0  0  0
   57.5720   27.2330   45.8050 C   0  0  0  0  0  0  0  0  0  0  0  0
   57.2800   25.5150   46.0850 S   0  0  0  0  0  0  0  0  0  0  0  0
   55.8390   25.3140   46.4660 O   0  0  0  0  0  0  0  0  0  0  0  0
   58.1330   25.0460   47.2300 O   0  0  0  0  0  0  0  0  0  0  0  0
   57.6400   24.5630   44.6630 N   0  0  0  0  0  0  0  0  0  0  0  0
   56.3900   24.1800   43.9710 C   0  0  0  0  0  0  0  0  0  0  0  0
   56.6230   23.0230   42.9940 C   0  0  0  0  0  0  0  0  0  0  0  0
   57.1010   21.7610   43.7340 C   0  0  0  0  0  0  0  0  0  0  0  0
   57.8210   22.0820   45.0550 C   0  0  0  0  0  0  0  0  0  0  0  0
   58.5490   23.4320   44.9750 C   0  0  0  0  0  0  0  0  0  0  0  0
   56.5700   28.0360   45.2480 C   0  0  0  0  0  0  0  0  0  0  0  0
   56.7860   29.4030   45.0600 C   0  0  0  0  0  0  0  0  0  0  0  0
   58.0090   29.9830   45.4200 C   0  0  0  0  0  0  0  0  0  0  0  0
   58.2250   31.3850   45.1950 N   0  0  0  0  0  0  0  0  0  0  0  0
   58.6180   32.2530   46.3120 C   0  0  0  0  0  0  0  0  0  0  0  0
   57.8020   33.5590   46.3170 C   0  0  0  0  0  0  0  0  0  0  0  0
   57.3830   34.0360   44.9100 C   0  0  0  0  0  0  0  0  0  0  0  0
   58.2630   33.4410   43.8070 C   0  0  0  0  0  0  0  0  0  0  0  0
   58.1660   31.9110   43.8240 C   0  0  0  0  0  0  0  0  0  0  0  0
   61.6470   31.0770   48.0970 C   0  0  0  0  0  0  0  0  0  0  0  0
   62.2270   31.9390   47.1490 C   0  0  0  0  0  0  0  0  0  0  0  0
   63.3280   32.7240   47.4970 C   0  0  0  0  0  0  0  0  0  0  0  0
   63.8430   32.6490   48.7930 C   0  0  0  0  0  0  0  0  0  0  0  0
   64.8350   33.3500   49.1220 O   0  0  0  0  0  0  0  0  0  0  0  0
   63.2680   31.8200   49.7030 N   0  0  0  0  0  0  0  0  0  0  0  0
   62.1950   31.0450   49.3910 C   0  0  0  0  0  0  0  0  0  0  0  0
   61.0690   29.7730   45.7500 H   0  0  0  0  0  0  0  0  0  0  0  0
   59.5916   27.1783   46.5931 H   0  0  0  0  0  0  0  0  0  0  0  0
   55.6464   23.8712   44.7204 H   0  0  0  0  0  0  0  0  0  0  0  0
   56.0311   25.0485   43.3993 H   0  0  0  0  0  0  0  0  0  0  0  0
   55.6812   22.7984   42.4720 H   0  0  0  0  0  0  0  0  0  0  0  0
   57.4007   23.3229   42.2762 H   0  0  0  0  0  0  0  0  0  0  0  0
   56.2270   21.1303   43.9542 H   0  0  0  0  0  0  0  0  0  0  0  0
   57.8210   21.2464   43.0807 H   0  0  0  0  0  0  0  0  0  0  0  0
   57.0804   22.1210   45.8674 H   0  0  0  0  0  0  0  0  0  0  0  0
   58.5651   21.2950   45.2471 H   0  0  0  0  0  0  0  0  0  0  0  0
   59.0324   23.6276   45.9435 H   0  0  0  0  0  0  0  0  0  0  0  0
   59.2815   23.3631   44.1572 H   0  0  0  0  0  0  0  0  0  0  0  0
   55.6082   27.5885   44.9570 H   0  0  0  0  0  0  0  0  0  0  0  0
   55.9910   30.0277   44.6267 H   0  0  0  0  0  0  0  0  0  0  0  0
   58.4466   31.7193   47.2585 H   0  0  0  0  0  0  0  0  0  0  0  0
   59.6819   32.5078   46.1972 H   0  0  0  0  0  0  0  0  0  0  0  0
   56.8922   33.3974   46.9138 H   0  0  0  0  0  0  0  0  0  0  0  0
   58.4498   34.3404   46.7410 H   0  0  0  0  0  0  0  0  0  0  0  0
   56.3401   33.7354   44.7309 H   0  0  0  0  0  0  0  0  0  0  0  0
   57.4978   35.1295   44.8780 H   0  0  0  0  0  0  0  0  0  0  0  0
   57.9250   33.8162   42.8298 H   0  0  0  0  0  0  0  0  0  0  0  0
   59.3079   33.7376   43.9806 H   0  0  0  0  0  0  0  0  0  0  0  0
   57.2135   31.6077   43.3650 H   0  0  0  0  0  0  0  0  0  0  0  0
   59.0182   31.5039   43.2601 H   0  0  0  0  0  0  0  0  0  0  0  0
   61.8125   31.9948   46.1316 H   0  0  0  0  0  0  0  0  0  0  0  0
   63.7861   33.3961   46.7564 H   0  0  0  0  0  0  0  0  0  0  0  0
   61.7533   30.3892   50.1558 H   0  0  0  0  0  0  0  0  0  0  0  0
  1  2  2  0
  2  3  1  0
  3  4  1  0
  4  5  2  0
  5  6  1  0
  6  7  1  0
  7  8  2  0
  7  9  2  0
  7 10  1  0
 10 11  1  0
 11 12  1  0
 12 13  1  0
 13 14  1  0
 14 15  1  0
  6 16  2  0
 16 17  1  0
 17 18  2  0
 18 19  1  0
 19 20  1  0
 20 21  1  0
 21 22  1  0
 22 23  1  0
 23 24  1  0
  2 25  1  0
 25 26  1  0
 26 27  2  0
 27 28  1  0
 28 29  2  0
 28 30  1  0
 30 31  1  0
 18  4  1  0
 24 19  1  0
 31 25  2  0
 15 10  1  0
  3 32  1  0
  5 33  1  0
 11 34  1  0
 11 35  1  0
 12 36  1  0
 12 37  1  0
 13 38  1  0
 13 39  1  0
 14 40  1  0
 14 41  1  0
 15 42  1  0
 15 43  1  0
 16 44  1  0
 17 45  1  0
 20 46  1  0
 20 47  1  0
 21 48  1  0
 21 49  1  0
 22 50  1  0
 22 51  1  0
 23 52  1  0
 23 53  1  0
 24 54  1  0
 24 55  1  0
 26 56  1  0
 27 57  1  0
 31 58  1  0
M  CHG  1  30  -1
M  END
>  <UniqueID>  (61) 
57

>  <SMILES>  (61) 
O=C(Nc1cc(S(=O)(=O)N2CCCCC2)ccc1N1CCCCC1)c1ccc(=O)[n-]c1

>  <Energy>  (61) 
75.58573269609707

>  <Genealogy>  (61) 
O=C(Nc1cc(S(=O)(=O)N2CCCCC2)ccc1N1CCCCC1)c1ccc(=O)[n-]c1 (protonated)
O=C(Nc1cc(S(=O)(=O)N2CCCCC2)ccc1N1CCCCC1)c1ccc(=O)[n-]c1 (3D coordinates assigned)
O=C(Nc1cc(S(=O)(=O)N2CCCCC2)ccc1N1CCCCC1)c1ccc(=O)[n-]c1 (nonaromatic ring conformer: 75.58573269609707 kcal/mol)

>  <smiles>  (61) 
O=C(Nc1cc(S(=O)(=O)N2CCCCC2)ccc1N1CCCCC1)c1ccc(=O)[nH]c1

>  <score_type>  (61) 
oracle

>  <origin>  (61) 
adg

>  <m_score__min__energy>  (61) 
-10.4

>  <m_primary>  (61) 
energy

$$$$
61:0
     RDKit          3D

 27 28  0  0  0  0  0  0  0  0999 V2000
   58.9807   27.3361   46.5913 H   0  0  0  0  0  0  0  0  0  0  0  0
   58.4440   28.1820   46.1370 C   0  0  0  0  0  0  0  0  0  0  0  0
   59.0900   29.3590   45.9320 N   0  0  0  0  0  0  0  0  0  0  0  0
   58.4580   30.4190   45.3710 C   0  0  0  0  0  0  0  0  0  0  0  0
   59.1080   31.5320   45.2010 N   0  0  0  0  0  0  0  0  0  0  0  0
   59.3950   32.4740   46.2440 C   0  0  0  0  0  0  0  0  0  0  0  0
   60.5250   32.2700   47.0460 C   0  0  0  0  0  0  0  0  0  0  0  0
   61.1692   31.3964   46.8680 H   0  0  0  0  0  0  0  0  0  0  0  0
   60.8440   33.1740   48.0790 C   0  0  0  0  0  0  0  0  0  0  0  0
   61.9560   32.9990   48.9150 O   0  0  0  0  0  0  0  0  0  0  0  0
   63.2830   32.7710   48.4530 C   0  0  0  0  0  0  0  0  0  0  0  0
   63.9565   32.6553   49.3149 H   0  0  0  0  0  0  0  0  0  0  0  0
   63.3069   31.8556   47.8435 H   0  0  0  0  0  0  0  0  0  0  0  0
   63.6110   33.6259   47.8435 H   0  0  0  0  0  0  0  0  0  0  0  0
   60.0270   34.2900   48.2840 C   0  0  0  0  0  0  0  0  0  0  0  0
   60.2618   34.9970   49.0933 H   0  0  0  0  0  0  0  0  0  0  0  0
   58.9150   34.5140   47.4690 C   0  0  0  0  0  0  0  0  0  0  0  0
   58.2856   35.4008   47.6347 H   0  0  0  0  0  0  0  0  0  0  0  0
   58.5970   33.6180   46.4440 C   0  0  0  0  0  0  0  0  0  0  0  0
   57.1140   34.0300   45.3000 Br  0  0  0  0  0  0  0  0  0  0  0  0
   57.1490   30.3100   45.0150 N   0  0  0  0  0  0  0  0  0  0  0  0
   56.4580   29.1560   45.1980 C   0  0  0  0  0  0  0  0  0  0  0  0
   55.2500   29.1060   44.8470 O   0  0  0  0  0  0  0  0  0  0  0  0
   57.0960   28.0380   45.7730 C   0  0  0  0  0  0  0  0  0  0  0  0
   56.3950   26.7490   45.9970 C   0  0  0  0  0  0  0  0  0  0  0  0
   55.1360   26.7000   45.9980 O   0  0  0  0  0  0  0  0  0  0  0  0
   57.1080   25.5740   46.2130 O   0  0  0  0  0  0  0  0  0  0  0  0
  1  2  1  0
  2  3  1  0
  3  4  1  0
  4  5  2  0
  5  6  1  0
  6  7  2  0
  7  8  1  0
  7  9  1  0
  9 10  1  0
 10 11  1  0
 11 12  1  0
 11 13  1  0
 11 14  1  0
  9 15  2  0
 15 16  1  0
 15 17  1  0
 17 18  1  0
 17 19  2  0
 19 20  1  0
  4 21  1  0
 21 22  1  0
 22 23  2  0
 22 24  1  0
 24 25  1  0
 25 26  2  0
 25 27  1  0
 24  2  2  0
 19  6  1  0
M  CHG  3   3  -1  21  -1  27  -1
M  END
>  <UniqueID>  (62) 
58

>  <SMILES>  (62) 
COc1ccc(Br)c(/N=c2/[n-]cc(C(=O)[O-])c(=O)[n-]2)c1

>  <Energy>  (62) 
39.559586714519696

>  <Genealogy>  (62) 
COc1ccc(Br)c(N=c2[n-]cc(C(=O)[O-])c(=O)[n-]2)c1 (protonated)
COc1ccc(Br)c(/N=c2/[n-]cc(C(=O)[O-])c(=O)[n-]2)c1 (cis-trans isomerization)
COc1ccc(Br)c(/N=c2/[n-]cc(C(=O)[O-])c(=O)[n-]2)c1 (3D coordinates assigned)
COc1ccc(Br)c(/N=c2/[n-]cc(C(=O)[O-])c(=O)[n-]2)c1 (optimized conformer: 39.559586714519696 kcal/mol)

>  <smiles>  (62) 
COc1ccc(Br)c(N=c2[nH]cc(C(=O)O)c(=O)[nH]2)c1

>  <score_type>  (62) 
oracle

>  <origin>  (62) 
adg

>  <m_score__min__energy>  (62) 
-11.6

>  <m_primary>  (62) 
energy

$$$$
62:0
     RDKit          3D

 43 45  0  0  0  0  0  0  0  0999 V2000
   55.1170   27.5180   45.2600 H   0  0  0  0  0  0  0  0  0  0  0  0
   55.6420   26.9950   45.9520 O   0  0  0  0  0  0  0  0  0  0  0  0
   57.0270   27.1060   46.0600 C   0  0  0  0  0  0  0  0  0  0  0  0
   57.6810   26.4720   47.1250 C   0  0  0  0  0  0  0  0  0  0  0  0
   57.1082   25.8411   47.8206 H   0  0  0  0  0  0  0  0  0  0  0  0
   59.0520   26.6360   47.3080 C   0  0  0  0  0  0  0  0  0  0  0  0
   59.5664   26.1346   48.1410 H   0  0  0  0  0  0  0  0  0  0  0  0
   59.7630   27.4420   46.4240 C   0  0  0  0  0  0  0  0  0  0  0  0
   60.8423   27.5976   46.5688 H   0  0  0  0  0  0  0  0  0  0  0  0
   59.1250   28.0370   45.3820 N   0  0  0  0  0  0  0  0  0  0  0  0
   57.7920   27.8830   45.1490 C   0  0  0  0  0  0  0  0  0  0  0  0
   57.2870   28.4930   44.1120 N   0  0  0  0  0  0  0  0  0  0  0  0
   56.2410   29.4710   44.0610 C   0  0  0  0  0  0  0  0  0  0  0  0
   55.2790   29.3680   44.8680 O   0  0  0  0  0  0  0  0  0  0  0  0
   56.3930   30.6830   43.2230 C   0  0  0  0  0  0  0  0  0  0  0  0
   55.6028   30.8846   42.4848 H   0  0  0  0  0  0  0  0  0  0  0  0
   57.4100   31.5570   43.2850 C   0  0  0  0  0  0  0  0  0  0  0  0
   57.8302   31.9103   42.3318 H   0  0  0  0  0  0  0  0  0  0  0  0
   58.0120   32.0840   44.5280 C   0  0  0  0  0  0  0  0  0  0  0  0
   57.8020   33.4130   44.9350 C   0  0  0  0  0  0  0  0  0  0  0  0
   57.1523   34.0717   44.3401 H   0  0  0  0  0  0  0  0  0  0  0  0
   58.4150   33.9010   46.0920 C   0  0  0  0  0  0  0  0  0  0  0  0
   58.2319   34.9368   46.4138 H   0  0  0  0  0  0  0  0  0  0  0  0
   59.2610   33.0770   46.8430 C   0  0  0  0  0  0  0  0  0  0  0  0
   60.0310   33.7000   48.2990 S   0  0  0  0  0  0  0  0  0  0  0  0
   61.4520   34.0670   47.9790 O   0  0  0  0  0  0  0  0  0  0  0  0
   59.3110   34.9210   48.8010 O   0  0  0  0  0  0  0  0  0  0  0  0
   60.0230   32.4880   49.5370 N   0  0  0  0  0  0  0  0  0  0  0  0
   59.0030   32.3310   50.5350 C   0  0  0  0  0  0  0  0  0  0  0  0
   58.7790   33.3010   51.5310 C   0  0  0  0  0  0  0  0  0  0  0  0
   59.3947   34.2121   51.5577 H   0  0  0  0  0  0  0  0  0  0  0  0
   57.7760   33.1090   52.4860 C   0  0  0  0  0  0  0  0  0  0  0  0
   57.6065   33.8678   53.2641 H   0  0  0  0  0  0  0  0  0  0  0  0
   56.9890   31.9560   52.4540 C   0  0  0  0  0  0  0  0  0  0  0  0
   56.2021   31.8062   53.2079 H   0  0  0  0  0  0  0  0  0  0  0  0
   57.2010   30.9920   51.4640 C   0  0  0  0  0  0  0  0  0  0  0  0
   56.5773   30.0863   51.4364 H   0  0  0  0  0  0  0  0  0  0  0  0
   58.2050   31.1780   50.5090 C   0  0  0  0  0  0  0  0  0  0  0  0
   58.4020   30.2330   49.5560 F   0  0  0  0  0  0  0  0  0  0  0  0
   59.4960   31.7600   46.4240 C   0  0  0  0  0  0  0  0  0  0  0  0
   60.1634   31.1094   47.0082 H   0  0  0  0  0  0  0  0  0  0  0  0
   58.8840   31.2710   45.2650 C   0  0  0  0  0  0  0  0  0  0  0  0
   59.0882   30.2432   44.9304 H   0  0  0  0  0  0  0  0  0  0  0  0
  1  2  1  0
  2  3  1  0
  3  4  2  0
  4  5  1  0
  4  6  1  0
  6  7  1  0
  6  8  2  0
  8  9  1  0
  8 10  1  0
 10 11  1  0
 11 12  2  3
 12 13  1  0
 13 14  2  0
 13 15  1  0
 15 16  1  0
 15 17  2  0
 17 18  1  0
 17 19  1  0
 19 20  2  0
 20 21  1  0
 20 22  1  0
 22 23  1  0
 22 24  2  0
 24 25  1  0
 25 26  2  0
 25 27  2  0
 25 28  1  0
 28 29  1  0
 29 30  2  0
 30 31  1  0
 30 32  1  0
 32 33  1  0
 32 34  2  0
 34 35  1  0
 34 36  1  0
 36 37  1  0
 36 38  2  0
 38 39  1  0
 24 40  1  0
 40 41  1  0
 40 42  2  0
 42 43  1  0
 11  3  1  0
 42 19  1  0
 38 29  1  0
M  CHG  2  10  -1  28  -1
M  END
>  <UniqueID>  (63) 
59

>  <SMILES>  (63) 
O=C(/C=C\c1ccc(S(=O)(=O)[N-]c2ccccc2F)cc1)N=c1[n-]cccc1O

>  <Energy>  (63) 
69.2532338948916

>  <Genealogy>  (63) 
O=C(C=Cc1ccc(S(=O)(=O)[N-]c2ccccc2F)cc1)N=c1[n-]cccc1O (protonated)
O=C(/C=C\c1ccc(S(=O)(=O)[N-]c2ccccc2F)cc1)N=c1[n-]cccc1O (cis-trans isomerization)
O=C(/C=C\c1ccc(S(=O)(=O)[N-]c2ccccc2F)cc1)N=c1[n-]cccc1O (3D coordinates assigned)
O=C(/C=C\c1ccc(S(=O)(=O)[N-]c2ccccc2F)cc1)N=c1[n-]cccc1O (optimized conformer: 69.2532338948916 kcal/mol)

>  <smiles>  (63) 
O=C(C=Cc1ccc(S(=O)(=O)Nc2ccccc2F)cc1)N=c1[nH]cccc1O

>  <score_type>  (63) 
oracle

>  <origin>  (63) 
adg

>  <m_score__min__energy>  (63) 
-12.17

>  <m_primary>  (63) 
energy

$$$$
63:0
     RDKit          3D

 50 53  0  0  0  0  0  0  0  0999 V2000
   62.7480   33.6310   48.7500 N   0  0  0  0  0  0  0  0  0  0  0  0
   62.7580   32.8580   47.5500 C   0  0  0  0  0  0  0  0  0  0  0  0
   63.3310   33.3090   46.5260 O   0  0  0  0  0  0  0  0  0  0  0  0
   62.0880   31.5170   47.5010 C   0  0  0  0  0  0  0  0  0  0  0  0
   60.7010   31.6180   47.9780 N   0  0  0  0  0  0  0  0  0  0  0  0
   59.9590   30.3810   48.2560 C   0  0  0  0  0  0  0  0  0  0  0  0
   59.5960   29.7020   46.9620 C   0  0  0  0  0  0  0  0  0  0  0  0
   59.2960   30.4610   45.8170 C   0  0  0  0  0  0  0  0  0  0  0  0
   58.8970   29.8260   44.6360 C   0  0  0  0  0  0  0  0  0  0  0  0
   58.7900   28.4320   44.5880 C   0  0  0  0  0  0  0  0  0  0  0  0
   59.0990   27.6590   45.7200 C   0  0  0  0  0  0  0  0  0  0  0  0
   58.9550   26.1600   45.6850 C   0  0  0  0  0  0  0  0  0  0  0  0
   57.5020   25.7720   45.6450 C   0  0  0  0  0  0  0  0  0  0  0  0
   56.5150   26.6750   46.1240 C   0  0  0  0  0  0  0  0  0  0  0  0
   55.1910   26.3330   46.1020 N   0  0  0  0  0  0  0  0  0  0  0  0
   54.8410   25.1140   45.6310 C   0  0  0  0  0  0  0  0  0  0  0  0
   53.5980   24.6320   45.5110 N   0  0  0  0  0  0  0  0  0  0  0  0
   53.7150   23.4180   44.9820 N   0  0  0  0  0  0  0  0  0  0  0  0
   55.0240   23.1360   44.7680 C   0  0  0  0  0  0  0  0  0  0  0  0
   55.7550   24.2160   45.1780 C   0  0  0  0  0  0  0  0  0  0  0  0
   57.1100   24.5000   45.1740 C   0  0  0  0  0  0  0  0  0  0  0  0
   59.4950   28.3010   46.9070 C   0  0  0  0  0  0  0  0  0  0  0  0
   60.0460   32.9060   48.0870 C   0  0  0  0  0  0  0  0  0  0  0  0
   60.1780   33.6110   49.1330 O   0  0  0  0  0  0  0  0  0  0  0  0
   59.1950   33.4140   47.0040 C   0  0  0  0  0  0  0  0  0  0  0  0
   59.7540   34.2060   45.9870 C   0  0  0  0  0  0  0  0  0  0  0  0
   58.9530   34.6740   44.9320 C   0  0  0  0  0  0  0  0  0  0  0  0
   57.5830   34.3770   44.9120 C   0  0  0  0  0  0  0  0  0  0  0  0
   57.0200   33.5870   45.9270 C   0  0  0  0  0  0  0  0  0  0  0  0
   57.8260   33.0960   46.9640 C   0  0  0  0  0  0  0  0  0  0  0  0
   63.2710   34.5320   48.7910 H   0  0  0  0  0  0  0  0  0  0  0  0
   62.2730   33.2780   49.6130 H   0  0  0  0  0  0  0  0  0  0  0  0
   62.0886   31.1494   46.4642 H   0  0  0  0  0  0  0  0  0  0  0  0
   62.6382   30.8199   48.1502 H   0  0  0  0  0  0  0  0  0  0  0  0
   60.5855   29.7071   48.8588 H   0  0  0  0  0  0  0  0  0  0  0  0
   59.0396   30.6254   48.8082 H   0  0  0  0  0  0  0  0  0  0  0  0
   59.3753   31.5576   45.8500 H   0  0  0  0  0  0  0  0  0  0  0  0
   58.6667   30.4247   43.7424 H   0  0  0  0  0  0  0  0  0  0  0  0
   58.4628   27.9392   43.6606 H   0  0  0  0  0  0  0  0  0  0  0  0
   59.4592   25.7686   44.7891 H   0  0  0  0  0  0  0  0  0  0  0  0
   59.4118   25.7370   46.5919 H   0  0  0  0  0  0  0  0  0  0  0  0
   56.8183   27.6571   46.5157 H   0  0  0  0  0  0  0  0  0  0  0  0
   55.4256   22.2052   44.3411 H   0  0  0  0  0  0  0  0  0  0  0  0
   57.8491   23.7665   44.8193 H   0  0  0  0  0  0  0  0  0  0  0  0
   59.7276   27.7019   47.7997 H   0  0  0  0  0  0  0  0  0  0  0  0
   60.8237   34.4608   46.0170 H   0  0  0  0  0  0  0  0  0  0  0  0
   59.3995   35.2719   44.1238 H   0  0  0  0  0  0  0  0  0  0  0  0
   56.9487   34.7632   44.1005 H   0  0  0  0  0  0  0  0  0  0  0  0
   55.9453   33.3530   45.9087 H   0  0  0  0  0  0  0  0  0  0  0  0
   57.3866   32.4611   47.7474 H   0  0  0  0  0  0  0  0  0  0  0  0
  1  2  1  0
  2  3  2  0
  2  4  1  0
  4  5  1  0
  5  6  1  0
  6  7  1  0
  7  8  2  0
  8  9  1  0
  9 10  2  0
 10 11  1  0
 11 12  1  0
 12 13  1  0
 13 14  2  0
 14 15  1  0
 15 16  2  0
 16 17  1  0
 17 18  1  0
 18 19  2  0
 19 20  1  0
 20 21  2  0
 11 22  2  0
  5 23  1  0
 23 24  2  0
 23 25  1  0
 25 26  2  0
 26 27  1  0
 27 28  2  0
 28 29  1  0
 29 30  2  0
 22  7  1  0
 30 25  1  0
 21 13  1  0
 20 16  1  0
  1 31  1  0
  1 32  1  0
  4 33  1  0
  4 34  1  0
  6 35  1  0
  6 36  1  0
  8 37  1  0
  9 38  1  0
 10 39  1  0
 12 40  1  0
 12 41  1  0
 14 42  1  0
 19 43  1  0
 21 44  1  0
 22 45  1  0
 26 46  1  0
 27 47  1  0
 28 48  1  0
 29 49  1  0
 30 50  1  0
M  CHG  1  17  -1
M  END
>  <UniqueID>  (64) 
60

>  <SMILES>  (64) 
NC(=O)CN(Cc1cccc(Cc2cnc3[n-]ncc3c2)c1)C(=O)c1ccccc1

>  <Energy>  (64) 
92.57721027602418

>  <Genealogy>  (64) 
NC(=O)CN(Cc1cccc(Cc2cnc3[n-]ncc3c2)c1)C(=O)c1ccccc1 (protonated)
NC(=O)CN(Cc1cccc(Cc2cnc3[n-]ncc3c2)c1)C(=O)c1ccccc1 (3D coordinates assigned)
NC(=O)CN(Cc1cccc(Cc2cnc3[n-]ncc3c2)c1)C(=O)c1ccccc1 (optimized conformer: 92.57721027602418 kcal/mol)

>  <smiles>  (64) 
NC(=O)CN(Cc1cccc(Cc2cnc3[nH]ncc3c2)c1)C(=O)c1ccccc1

>  <score_type>  (64) 
oracle

>  <origin>  (64) 
adg

>  <m_score__min__energy>  (64) 
-11.77

>  <m_primary>  (64) 
energy

$$$$
64:0
     RDKit          3D

 54 58  0  0  0  0  0  0  0  0999 V2000
   60.1720   28.5790   44.9220 C   0  0  0  0  0  0  0  0  0  0  0  0
   59.8770   28.8540   46.1970 C   0  0  0  0  0  0  0  0  0  0  0  0
   60.7780   29.4140   47.0290 N   0  0  0  0  0  0  0  0  0  0  0  0
   60.2450   29.3920   48.2650 C   0  0  0  0  0  0  0  0  0  0  0  0
   60.9550   29.8800   49.4920 C   0  0  0  0  0  0  0  0  0  0  0  0
   59.9720   30.4420   50.4830 C   0  0  0  0  0  0  0  0  0  0  0  0
   59.1810   29.6580   51.2370 C   0  0  0  0  0  0  0  0  0  0  0  0
   58.3560   30.3440   52.1290 O   0  0  0  0  0  0  0  0  0  0  0  0
   58.6400   31.9980   51.9660 S   0  0  0  0  0  0  0  0  0  0  0  0
   57.4230   32.7240   51.4670 O   0  0  0  0  0  0  0  0  0  0  0  0
   59.1840   32.6020   53.2300 O   0  0  0  0  0  0  0  0  0  0  0  0
   59.8450   31.8480   50.7540 N   0  0  0  0  0  0  0  0  0  0  0  0
   60.2340   32.9410   49.8640 C   0  0  0  0  0  0  0  0  0  0  0  0
   59.6790   32.7040   48.4870 C   0  0  0  0  0  0  0  0  0  0  0  0
   58.2960   32.5710   48.3030 C   0  0  0  0  0  0  0  0  0  0  0  0
   57.7730   32.3130   47.0340 C   0  0  0  0  0  0  0  0  0  0  0  0
   58.6270   32.1750   45.9250 C   0  0  0  0  0  0  0  0  0  0  0  0
   58.0730   31.8980   44.5750 C   0  0  0  0  0  0  0  0  0  0  0  0
   58.3830   32.7380   43.4870 C   0  0  0  0  0  0  0  0  0  0  0  0
   57.8600   32.4750   42.2170 C   0  0  0  0  0  0  0  0  0  0  0  0
   57.0250   31.3730   42.0180 C   0  0  0  0  0  0  0  0  0  0  0  0
   56.7090   30.5330   43.0880 C   0  0  0  0  0  0  0  0  0  0  0  0
   57.2290   30.7920   44.3610 C   0  0  0  0  0  0  0  0  0  0  0  0
   60.0160   32.2980   46.1160 C   0  0  0  0  0  0  0  0  0  0  0  0
   60.5370   32.5560   47.3870 C   0  0  0  0  0  0  0  0  0  0  0  0
   58.9810   28.8360   48.2360 C   0  0  0  0  0  0  0  0  0  0  0  0
   58.7200   28.5110   46.9150 C   0  0  0  0  0  0  0  0  0  0  0  0
   57.5530   27.9720   46.5110 C   0  0  0  0  0  0  0  0  0  0  0  0
   57.1620   26.5640   46.6670 C   0  0  0  0  0  0  0  0  0  0  0  0
   57.9600   25.6250   47.2040 N   0  0  0  0  0  0  0  0  0  0  0  0
   57.1620   24.5360   47.2680 C   0  0  0  0  0  0  0  0  0  0  0  0
   57.5620   23.4280   47.7070 O   0  0  0  0  0  0  0  0  0  0  0  0
   55.8980   24.7320   46.8330 N   0  0  0  0  0  0  0  0  0  0  0  0
   55.9090   26.0250   46.4710 C   0  0  0  0  0  0  0  0  0  0  0  0
   54.7940   26.7040   45.9960 O   0  0  0  0  0  0  0  0  0  0  0  0
   59.4145   28.1218   44.2685 H   0  0  0  0  0  0  0  0  0  0  0  0
   61.1722   28.8100   44.5267 H   0  0  0  0  0  0  0  0  0  0  0  0
   61.7360   29.7470   46.7790 H   0  0  0  0  0  0  0  0  0  0  0  0
   61.4957   29.0412   49.9547 H   0  0  0  0  0  0  0  0  0  0  0  0
   61.6602   30.6731   49.2025 H   0  0  0  0  0  0  0  0  0  0  0  0
   59.1842   28.5609   51.1567 H   0  0  0  0  0  0  0  0  0  0  0  0
   59.8396   33.8894   50.2576 H   0  0  0  0  0  0  0  0  0  0  0  0
   61.3316   32.9884   49.8081 H   0  0  0  0  0  0  0  0  0  0  0  0
   57.6181   32.6705   49.1636 H   0  0  0  0  0  0  0  0  0  0  0  0
   56.6853   32.2170   46.9009 H   0  0  0  0  0  0  0  0  0  0  0  0
   59.0409   33.6066   43.6377 H   0  0  0  0  0  0  0  0  0  0  0  0
   58.1065   33.1368   41.3736 H   0  0  0  0  0  0  0  0  0  0  0  0
   56.6161   31.1667   41.0179 H   0  0  0  0  0  0  0  0  0  0  0  0
   56.0503   29.6664   42.9298 H   0  0  0  0  0  0  0  0  0  0  0  0
   56.9766   30.1269   45.2000 H   0  0  0  0  0  0  0  0  0  0  0  0
   60.6966   32.1903   45.2586 H   0  0  0  0  0  0  0  0  0  0  0  0
   61.6247   32.6434   47.5254 H   0  0  0  0  0  0  0  0  0  0  0  0
   58.3116   28.6813   49.0951 H   0  0  0  0  0  0  0  0  0  0  0  0
   56.8313   28.6433   46.0227 H   0  0  0  0  0  0  0  0  0  0  0  0
  1  2  2  0
  2  3  1  0
  3  4  1  0
  4  5  1  0
  5  6  1  0
  6  7  2  0
  7  8  1  0
  8  9  1  0
  9 10  2  0
  9 11  2  0
  9 12  1  0
 12 13  1  0
 13 14  1  0
 14 15  2  0
 15 16  1  0
 16 17  2  0
 17 18  1  0
 18 19  2  0
 19 20  1  0
 20 21  2  0
 21 22  1  0
 22 23  2  0
 17 24  1  0
 24 25  2  0
  4 26  2  0
 26 27  1  0
 27 28  2  3
 28 29  1  0
 29 30  1  0
 30 31  1  0
 31 32  2  0
 31 33  1  0
 33 34  1  0
 34 35  1  0
 27  2  1  0
 34 29  2  0
 12  6  1  0
 25 14  1  0
 23 18  1  0
  1 36  1  0
  1 37  1  0
  3 38  1  0
  5 39  1  0
  5 40  1  0
  7 41  1  0
 13 42  1  0
 13 43  1  0
 15 44  1  0
 16 45  1  0
 19 46  1  0
 20 47  1  0
 21 48  1  0
 22 49  1  0
 23 50  1  0
 24 51  1  0
 25 52  1  0
 26 53  1  0
 28 54  1  0
M  CHG  3  30  -1  33  -1  35  -1
M  END
>  <UniqueID>  (65) 
61

>  <SMILES>  (65) 
C=c1[nH]c(CC2=COS(=O)(=O)N2Cc2ccc(-c3ccccc3)cc2)cc1=Cc1[n-]c(=O)[n-]c1[O-]

>  <Energy>  (65) 
148.87911107671238

>  <Genealogy>  (65) 
C=c1[nH]c(CC2=COS(=O)(=O)N2Cc2ccc(-c3ccccc3)cc2)cc1=Cc1[n-]c(=O)[n-]c1[O-] (protonated)
C=c1[nH]c(CC2=COS(=O)(=O)N2Cc2ccc(-c3ccccc3)cc2)cc1=Cc1[n-]c(=O)[n-]c1[O-] (3D coordinates assigned)
C=c1[nH]c(CC2=COS(=O)(=O)N2Cc2ccc(-c3ccccc3)cc2)cc1=Cc1[n-]c(=O)[n-]c1[O-] (nonaromatic ring conformer: 148.87911107671238 kcal/mol)

>  <smiles>  (65) 
C=c1[nH]c(CC2=COS(=O)(=O)N2Cc2ccc(-c3ccccc3)cc2)cc1=Cc1[nH]c(=O)[nH]c1O

>  <score_type>  (65) 
oracle

>  <origin>  (65) 
adg

>  <m_score__min__energy>  (65) 
-19.07

>  <m_primary>  (65) 
energy

$$$$
65:0
     RDKit          3D

 58 60  0  0  0  0  0  0  0  0999 V2000
   56.6060   30.3880   44.9790 O   0  0  0  0  0  0  0  0  0  0  0  0
   57.5580   31.0520   44.4880 C   0  0  0  0  0  0  0  0  0  0  0  0
   57.3590   32.4920   44.1050 C   0  0  0  0  0  0  0  0  0  0  0  0
   56.9960   33.4130   45.2830 C   0  0  0  0  0  0  0  0  0  0  0  0
   58.1660   33.6560   46.2040 C   0  0  0  0  0  0  0  0  0  0  0  0
   58.1730   33.1210   47.5060 C   0  0  0  0  0  0  0  0  0  0  0  0
   59.2670   33.3350   48.3500 C   0  0  0  0  0  0  0  0  0  0  0  0
   60.3610   34.0810   47.9020 C   0  0  0  0  0  0  0  0  0  0  0  0
   60.3630   34.6150   46.6100 C   0  0  0  0  0  0  0  0  0  0  0  0
   59.2690   34.4060   45.7620 C   0  0  0  0  0  0  0  0  0  0  0  0
   58.8690   30.4830   44.3340 N   0  0  0  0  0  0  0  0  0  0  0  0
   59.3540   29.3620   44.8040 C   0  0  0  0  0  0  0  0  0  0  0  0
   60.6570   29.2860   45.5830 C   0  0  0  0  0  0  0  0  0  0  0  0
   60.4290   29.0840   47.0640 C   0  0  0  0  0  0  0  0  0  0  0  0
   60.3060   27.7820   47.5840 C   0  0  0  0  0  0  0  0  0  0  0  0
   60.1300   27.5820   48.9580 C   0  0  0  0  0  0  0  0  0  0  0  0
   60.0940   28.6770   49.8270 C   0  0  0  0  0  0  0  0  0  0  0  0
   60.2480   29.9730   49.3250 C   0  0  0  0  0  0  0  0  0  0  0  0
   60.4260   30.1770   47.9520 C   0  0  0  0  0  0  0  0  0  0  0  0
   58.6350   28.1170   44.4650 C   0  0  0  0  0  0  0  0  0  0  0  0
   58.9970   27.4530   43.4530 O   0  0  0  0  0  0  0  0  0  0  0  0
   57.5140   27.6730   45.2440 N   0  0  0  0  0  0  0  0  0  0  0  0
   56.9740   26.3110   45.1420 C   0  0  1  0  0  0  0  0  0  0  0  0
   58.1030   25.2580   45.1600 C   0  0  0  0  0  0  0  0  0  0  0  0
   57.7140   23.9390   44.5300 C   0  0  0  0  0  0  0  0  0  0  0  0
   58.4220   22.7670   44.8400 C   0  0  0  0  0  0  0  0  0  0  0  0
   58.0850   21.5550   44.2290 C   0  0  0  0  0  0  0  0  0  0  0  0
   57.0310   21.5020   43.3120 C   0  0  0  0  0  0  0  0  0  0  0  0
   56.3130   22.6620   43.0050 C   0  0  0  0  0  0  0  0  0  0  0  0
   56.6490   23.8760   43.6130 C   0  0  0  0  0  0  0  0  0  0  0  0
   55.9560   26.0610   46.2210 C   0  0  0  0  0  0  0  0  0  0  0  0
   56.2960   25.5650   47.3280 O   0  0  0  0  0  0  0  0  0  0  0  0
   54.6160   26.3340   45.9790 O   0  0  0  0  0  0  0  0  0  0  0  0
   58.2916   32.8610   43.6532 H   0  0  0  0  0  0  0  0  0  0  0  0
   56.5083   32.5194   43.4082 H   0  0  0  0  0  0  0  0  0  0  0  0
   56.6539   34.3792   44.8838 H   0  0  0  0  0  0  0  0  0  0  0  0
   56.2069   32.9163   45.8666 H   0  0  0  0  0  0  0  0  0  0  0  0
   57.3143   32.5322   47.8609 H   0  0  0  0  0  0  0  0  0  0  0  0
   59.2668   32.9161   49.3671 H   0  0  0  0  0  0  0  0  0  0  0  0
   61.2213   34.2481   48.5668 H   0  0  0  0  0  0  0  0  0  0  0  0
   61.2257   35.2004   46.2592 H   0  0  0  0  0  0  0  0  0  0  0  0
   59.2728   34.8300   44.7470 H   0  0  0  0  0  0  0  0  0  0  0  0
   61.2506   28.4436   45.1983 H   0  0  0  0  0  0  0  0  0  0  0  0
   61.1844   30.2423   45.4510 H   0  0  0  0  0  0  0  0  0  0  0  0
   60.3484   26.9164   46.9065 H   0  0  0  0  0  0  0  0  0  0  0  0
   60.0198   26.5620   49.3549 H   0  0  0  0  0  0  0  0  0  0  0  0
   59.9446   28.5189   50.9053 H   0  0  0  0  0  0  0  0  0  0  0  0
   60.2292   30.8333   50.0102 H   0  0  0  0  0  0  0  0  0  0  0  0
   60.5644   31.1970   47.5642 H   0  0  0  0  0  0  0  0  0  0  0  0
   56.9770   28.3900   45.7830 H   0  0  0  0  0  0  0  0  0  0  0  0
   56.4617   26.2150   44.1733 H   0  0  0  0  0  0  0  0  0  0  0  0
   58.9655   25.6641   44.6112 H   0  0  0  0  0  0  0  0  0  0  0  0
   58.3357   25.0540   46.2156 H   0  0  0  0  0  0  0  0  0  0  0  0
   59.2463   22.8022   45.5675 H   0  0  0  0  0  0  0  0  0  0  0  0
   58.6498   20.6424   44.4702 H   0  0  0  0  0  0  0  0  0  0  0  0
   56.7666   20.5481   42.8322 H   0  0  0  0  0  0  0  0  0  0  0  0
   55.4829   22.6197   42.2845 H   0  0  0  0  0  0  0  0  0  0  0  0
   56.0782   24.7852   43.3732 H   0  0  0  0  0  0  0  0  0  0  0  0
  1  2  2  0
  2  3  1  0
  3  4  1  0
  4  5  1  0
  5  6  2  0
  6  7  1  0
  7  8  2  0
  8  9  1  0
  9 10  2  0
  2 11  1  0
 11 12  2  3
 12 13  1  0
 13 14  1  0
 14 15  2  0
 15 16  1  0
 16 17  2  0
 17 18  1  0
 18 19  2  0
 12 20  1  0
 20 21  2  0
 20 22  1  0
 22 23  1  0
 23 24  1  0
 24 25  1  0
 25 26  2  0
 26 27  1  0
 27 28  2  0
 28 29  1  0
 29 30  2  0
 23 31  1  0
 31 32  2  0
 31 33  1  0
 10  5  1  0
 19 14  1  0
 30 25  1  0
  3 34  1  0
  3 35  1  0
  4 36  1  0
  4 37  1  0
  6 38  1  0
  7 39  1  0
  8 40  1  0
  9 41  1  0
 10 42  1  0
 13 43  1  0
 13 44  1  0
 15 45  1  0
 16 46  1  0
 17 47  1  0
 18 48  1  0
 19 49  1  0
 22 50  1  0
 23 51  1  6
 24 52  1  0
 24 53  1  0
 26 54  1  0
 27 55  1  0
 28 56  1  0
 29 57  1  0
 30 58  1  0
M  CHG  1  33  -1
M  END
>  <UniqueID>  (66) 
62

>  <SMILES>  (66) 
O=C(CCc1ccccc1)N=C(Cc1ccccc1)C(=O)N[C@@H](Cc1ccccc1)C(=O)[O-]

>  <Energy>  (66) 
62.29199128383072

>  <Genealogy>  (66) 
O=C(CCc1ccccc1)N=C(Cc1ccccc1)C(=O)NC(Cc1ccccc1)C(=O)[O-] (protonated)
O=C(CCc1ccccc1)N=C(Cc1ccccc1)C(=O)N[C@@H](Cc1ccccc1)C(=O)[O-] (chirality)
O=C(CCc1ccccc1)N=C(Cc1ccccc1)C(=O)N[C@@H](Cc1ccccc1)C(=O)[O-] (3D coordinates assigned)
O=C(CCc1ccccc1)N=C(Cc1ccccc1)C(=O)N[C@@H](Cc1ccccc1)C(=O)[O-] (optimized conformer: 62.29199128383072 kcal/mol)

>  <smiles>  (66) 
O=C(CCc1ccccc1)N=C(Cc1ccccc1)C(=O)NC(Cc1ccccc1)C(=O)O

>  <score_type>  (66) 
oracle

>  <origin>  (66) 
adg

>  <m_score__min__energy>  (66) 
-13.16

>  <m_primary>  (66) 
energy

$$$$
66:0
     RDKit          3D

 25 26  0  0  0  0  0  0  0  0999 V2000
   55.2500   29.3190   44.7260 O   0  0  0  0  0  0  0  0  0  0  0  0
   56.5040   29.3040   44.8680 C   0  0  0  0  0  0  0  0  0  0  0  0
   57.2870   30.5180   44.5290 C   0  0  0  0  0  0  0  0  0  0  0  0
   57.1670   31.0900   43.3210 C   0  0  0  0  0  0  0  0  0  0  0  0
   57.9700   32.3140   42.9940 C   0  0  0  0  0  0  0  0  0  0  0  0
   57.8900   33.3220   44.1480 C   0  0  0  0  0  0  0  0  0  0  0  0
   58.1180   32.6800   45.5410 C   0  0  0  0  0  0  0  0  0  0  0  0
   58.2390   31.1410   45.5260 C   0  0  0  0  0  0  0  0  0  0  0  0
   57.1570   28.0640   45.3330 C   0  0  0  0  0  0  0  0  0  0  0  0
   58.8230   27.7870   45.3090 S   0  0  0  0  0  0  0  0  0  0  0  0
   58.6640   26.2090   45.8540 C   0  0  0  0  0  0  0  0  0  0  0  0
   59.6280   25.4260   46.0540 O   0  0  0  0  0  0  0  0  0  0  0  0
   57.3770   25.8600   46.0570 N   0  0  0  0  0  0  0  0  0  0  0  0
   56.5330   26.8860   45.7690 C   0  0  0  0  0  0  0  0  0  0  0  0
   55.1570   26.7410   45.9310 O   0  0  0  0  0  0  0  0  0  0  0  0
   56.4824   30.6629   42.5734 H   0  0  0  0  0  0  0  0  0  0  0  0
   59.0199   32.0279   42.8332 H   0  0  0  0  0  0  0  0  0  0  0  0
   57.5641   32.7776   42.0828 H   0  0  0  0  0  0  0  0  0  0  0  0
   58.6567   34.0948   43.9902 H   0  0  0  0  0  0  0  0  0  0  0  0
   56.8726   33.7402   44.1449 H   0  0  0  0  0  0  0  0  0  0  0  0
   59.0465   33.0933   45.9617 H   0  0  0  0  0  0  0  0  0  0  0  0
   57.2289   32.9175   46.1436 H   0  0  0  0  0  0  0  0  0  0  0  0
   59.2693   30.8664   45.2556 H   0  0  0  0  0  0  0  0  0  0  0  0
   57.9828   30.7656   46.5277 H   0  0  0  0  0  0  0  0  0  0  0  0
   54.7490   26.3070   46.7490 H   0  0  0  0  0  0  0  0  0  0  0  0
  1  2  2  0
  2  3  1  0
  3  4  2  0
  4  5  1  0
  5  6  1  0
  6  7  1  0
  7  8  1  0
  2  9  1  0
  9 10  1  0
 10 11  1  0
 11 12  2  0
 11 13  1  0
 13 14  1  0
 14 15  1  0
  8  3  1  0
 14  9  2  0
  4 16  1  0
  5 17  1  0
  5 18  1  0
  6 19  1  0
  6 20  1  0
  7 21  1  0
  7 22  1  0
  8 23  1  0
  8 24  1  0
 15 25  1  0
M  CHG  1  13  -1
M  END
>  <UniqueID>  (67) 
63

>  <SMILES>  (67) 
O=C(C1=CCCCC1)c1sc(=O)[n-]c1O

>  <Energy>  (67) 
62.49938047871894

>  <Genealogy>  (67) 
O=C(C1=CCCCC1)c1sc(=O)[n-]c1O (protonated)
O=C(C1=CCCCC1)c1sc(=O)[n-]c1O (3D coordinates assigned)
O=C(C1=CCCCC1)c1sc(=O)[n-]c1O (nonaromatic ring conformer: 62.49938047871894 kcal/mol)

>  <smiles>  (67) 
O=C(C1=CCCCC1)c1sc(=O)[nH]c1O

>  <score_type>  (67) 
oracle

>  <origin>  (67) 
adg

>  <m_score__min__energy>  (67) 
-9.5700000000000003

>  <m_primary>  (67) 
energy

$$$$
67:0
     RDKit          3D

 30 32  0  0  0  0  0  0  0  0999 V2000
   56.0860   30.5898   44.3111 H   0  0  0  0  0  0  0  0  0  0  0  0
   56.4420   29.5510   44.3750 C   0  0  0  0  0  0  0  0  0  0  0  0
   55.8212   28.7318   43.9833 H   0  0  0  0  0  0  0  0  0  0  0  0
   57.6340   29.2830   44.9310 C   0  0  0  0  0  0  0  0  0  0  0  0
   58.2320   28.0320   45.0910 C   0  0  0  0  0  0  0  0  0  0  0  0
   57.7320   26.8410   44.7170 C   0  0  0  0  0  0  0  0  0  0  0  0
   57.7422   26.5896   43.6462 H   0  0  0  0  0  0  0  0  0  0  0  0
   57.1700   25.8500   45.6570 C   0  0  0  0  0  0  0  0  0  0  0  0
   55.9070   25.8070   46.2200 C   0  0  0  0  0  0  0  0  0  0  0  0
   54.8770   26.7140   46.0000 O   0  0  0  0  0  0  0  0  0  0  0  0
   55.8080   24.7750   47.0790 N   0  0  0  0  0  0  0  0  0  0  0  0
   57.0380   24.2200   47.0250 C   0  0  0  0  0  0  0  0  0  0  0  0
   57.3620   23.2090   47.7020 O   0  0  0  0  0  0  0  0  0  0  0  0
   57.8870   24.8480   46.1900 N   0  0  0  0  0  0  0  0  0  0  0  0
   58.8850   24.6060   45.9980 H   0  0  0  0  0  0  0  0  0  0  0  0
   59.4020   28.1800   45.7510 N   0  0  0  0  0  0  0  0  0  0  0  0
   59.4970   29.5070   45.9650 C   0  0  0  0  0  0  0  0  0  0  0  0
   60.4770   30.0350   46.5530 O   0  0  0  0  0  0  0  0  0  0  0  0
   58.4520   30.2100   45.4780 N   0  0  0  0  0  0  0  0  0  0  0  0
   58.2780   31.6360   45.5490 C   0  0  0  0  0  0  0  0  0  0  0  0
   58.2950   32.2830   46.7950 C   0  0  0  0  0  0  0  0  0  0  0  0
   58.4349   31.6961   47.7148 H   0  0  0  0  0  0  0  0  0  0  0  0
   58.1350   33.6690   46.8720 C   0  0  0  0  0  0  0  0  0  0  0  0
   58.1412   34.1694   47.8516 H   0  0  0  0  0  0  0  0  0  0  0  0
   57.9670   34.4200   45.7050 C   0  0  0  0  0  0  0  0  0  0  0  0
   57.8379   35.5106   45.7669 H   0  0  0  0  0  0  0  0  0  0  0  0
   57.9630   33.7860   44.4600 C   0  0  0  0  0  0  0  0  0  0  0  0
   57.8339   34.3789   43.5425 H   0  0  0  0  0  0  0  0  0  0  0  0
   58.1230   32.3980   44.3780 C   0  0  0  0  0  0  0  0  0  0  0  0
   58.1490   31.8010   43.1600 F   0  0  0  0  0  0  0  0  0  0  0  0
  1  2  1  0
  2  3  1  0
  2  4  2  0
  4  5  1  0
  5  6  2  0
  6  7  1  0
  6  8  1  0
  8  9  2  0
  9 10  1  0
  9 11  1  0
 11 12  1  0
 12 13  2  0
 12 14  1  0
 14 15  1  0
  5 16  1  0
 16 17  1  0
 17 18  2  0
 17 19  1  0
 19 20  1  0
 20 21  2  0
 21 22  1  0
 21 23  1  0
 23 24  1  0
 23 25  2  0
 25 26  1  0
 25 27  1  0
 27 28  1  0
 27 29  2  0
 29 30  1  0
 19  4  1  0
 29 20  1  0
 14  8  1  0
M  CHG  3  10  -1  11  -1  16  -1
M  END
>  <UniqueID>  (68) 
64

>  <SMILES>  (68) 
C=c1/c(=C/c2[nH]c(=O)[n-]c2[O-])[n-]c(=O)n1-c1ccccc1F

>  <Energy>  (68) 
109.16466467579227

>  <Genealogy>  (68) 
C=c1c(=Cc2[nH]c(=O)[n-]c2[O-])[n-]c(=O)n1-c1ccccc1F (protonated)
C=c1/c(=C/c2[nH]c(=O)[n-]c2[O-])[n-]c(=O)n1-c1ccccc1F (cis-trans isomerization)
C=c1/c(=C/c2[nH]c(=O)[n-]c2[O-])[n-]c(=O)n1-c1ccccc1F (3D coordinates assigned)
C=c1/c(=C/c2[nH]c(=O)[n-]c2[O-])[n-]c(=O)n1-c1ccccc1F (optimized conformer: 109.16466467579227 kcal/mol)

>  <smiles>  (68) 
C=c1c(=Cc2[nH]c(=O)[nH]c2O)[nH]c(=O)n1-c1ccccc1F

>  <score_type>  (68) 
oracle

>  <origin>  (68) 
adg

>  <m_score__min__energy>  (68) 
-15.34

>  <m_primary>  (68) 
energy

$$$$
68:0
     RDKit          3D

 34 35  0  0  0  0  0  0  0  0999 V2000
   56.4226   31.7924   43.4973 H   0  0  0  0  0  0  0  0  0  0  0  0
   56.9150   31.5860   44.4590 C   0  0  0  0  0  0  0  0  0  0  0  0
   56.7830   30.4160   45.0080 N   0  0  0  0  0  0  0  0  0  0  0  0
   57.5670   29.2660   44.6600 C   0  0  0  0  0  0  0  0  0  0  0  0
   57.0390   27.9410   44.8260 N   0  0  0  0  0  0  0  0  0  0  0  0
   56.0230   27.7860   44.6410 H   0  0  0  0  0  0  0  0  0  0  0  0
   57.7340   26.9390   45.6300 C   0  0  0  0  0  0  0  0  0  0  0  0
   58.7587   26.8116   45.2509 H   0  0  0  0  0  0  0  0  0  0  0  0
   57.7684   27.2707   46.6782 H   0  0  0  0  0  0  0  0  0  0  0  0
   57.0010   25.6270   45.5440 C   0  0  0  0  0  0  0  0  0  0  0  0
   57.7090   24.4580   45.2150 C   0  0  0  0  0  0  0  0  0  0  0  0
   58.7985   24.5013   45.0700 H   0  0  0  0  0  0  0  0  0  0  0  0
   57.0370   23.2410   45.0710 C   0  0  0  0  0  0  0  0  0  0  0  0
   57.5994   22.3288   44.8228 H   0  0  0  0  0  0  0  0  0  0  0  0
   55.6520   23.1820   45.2420 C   0  0  0  0  0  0  0  0  0  0  0  0
   55.1246   22.2230   45.1311 H   0  0  0  0  0  0  0  0  0  0  0  0
   54.9360   24.3410   45.5540 C   0  0  0  0  0  0  0  0  0  0  0  0
   53.8451   24.2920   45.6861 H   0  0  0  0  0  0  0  0  0  0  0  0
   55.6010   25.5630   45.6990 C   0  0  0  0  0  0  0  0  0  0  0  0
   54.8660   26.7060   45.9930 O   0  0  0  0  0  0  0  0  0  0  0  0
   58.7530   29.4370   44.1610 N   0  0  0  0  0  0  0  0  0  0  0  0
   59.5980   29.3750   44.7710 H   0  0  0  0  0  0  0  0  0  0  0  0
   58.8860   29.6570   43.1500 H   0  0  0  0  0  0  0  0  0  0  0  0
   57.7170   32.6430   45.1080 C   0  0  0  0  0  0  0  0  0  0  0  0
   57.7470   32.7870   46.5080 C   0  0  0  0  0  0  0  0  0  0  0  0
   57.1650   32.1018   47.1419 H   0  0  0  0  0  0  0  0  0  0  0  0
   58.5140   33.7980   47.0960 C   0  0  0  0  0  0  0  0  0  0  0  0
   58.5351   33.9049   48.1906 H   0  0  0  0  0  0  0  0  0  0  0  0
   59.2530   34.6720   46.2960 C   0  0  0  0  0  0  0  0  0  0  0  0
   59.8544   35.4672   46.7608 H   0  0  0  0  0  0  0  0  0  0  0  0
   59.2290   34.5370   44.9050 C   0  0  0  0  0  0  0  0  0  0  0  0
   59.8121   35.2255   44.2757 H   0  0  0  0  0  0  0  0  0  0  0  0
   58.4640   33.5270   44.3130 C   0  0  0  0  0  0  0  0  0  0  0  0
   58.4474   33.4245   43.2179 H   0  0  0  0  0  0  0  0  0  0  0  0
  1  2  1  0
  2  3  2  0
  3  4  1  0
  4  5  1  0
  5  6  1  0
  5  7  1  0
  7  8  1  0
  7  9  1  0
  7 10  1  0
 10 11  2  0
 11 12  1  0
 11 13  1  0
 13 14  1  0
 13 15  2  0
 15 16  1  0
 15 17  1  0
 17 18  1  0
 17 19  2  0
 19 20  1  0
  4 21  2  0
 21 22  1  0
 21 23  1  0
  2 24  1  0
 24 25  2  0
 25 26  1  0
 25 27  1  0
 27 28  1  0
 27 29  2  0
 29 30  1  0
 29 31  1  0
 31 32  1  0
 31 33  2  0
 33 34  1  0
 19 10  1  0
 33 24  1  0
M  CHG  2  20  -1  21   1
M  END
>  <UniqueID>  (69) 
65

>  <SMILES>  (69) 
[NH2+]=C(/N=C/c1ccccc1)NCc1ccccc1[O-]

>  <Energy>  (69) 
35.188882973757

>  <Genealogy>  (69) 
[NH2+]=C(N=Cc1ccccc1)NCc1ccccc1[O-] (protonated)
[NH2+]=C(/N=C/c1ccccc1)NCc1ccccc1[O-] (cis-trans isomerization)
[NH2+]=C(/N=C/c1ccccc1)NCc1ccccc1[O-] (3D coordinates assigned)
[NH2+]=C(/N=C/c1ccccc1)NCc1ccccc1[O-] (optimized conformer: 35.188882973757 kcal/mol)

>  <smiles>  (69) 
N=C(N=Cc1ccccc1)NCc1ccccc1O

>  <score_type>  (69) 
oracle

>  <origin>  (69) 
adg

>  <m_score__min__energy>  (69) 
-10.41

>  <m_primary>  (69) 
energy

$$$$
69:0
     RDKit          3D

 44 47  0  0  0  0  0  0  0  0999 V2000
   55.1620   29.3440   44.8150 O   0  0  0  0  0  0  0  0  0  0  0  0
   56.3960   29.4230   45.0460 C   0  0  0  0  0  0  0  0  0  0  0  0
   57.0590   28.2890   45.6280 N   0  0  0  0  0  0  0  0  0  0  0  0
   56.6320   27.0610   45.6300 C   0  0  0  0  0  0  0  0  0  0  0  0
   55.4400   26.6650   46.1300 N   0  0  0  0  0  0  0  0  0  0  0  0
   55.2210   25.3600   45.9830 N   0  0  0  0  0  0  0  0  0  0  0  0
   56.2380   24.7140   45.3700 C   0  0  0  0  0  0  0  0  0  0  0  0
   56.1970   23.2630   45.0100 C   0  0  0  0  0  0  0  0  0  0  0  0
   56.1190   22.9730   43.5210 C   0  0  0  0  0  0  0  0  0  0  0  0
   57.4270   22.7750   44.2620 C   0  0  0  0  0  0  0  0  0  0  0  0
   57.4750   25.7790   44.9420 S   0  0  0  0  0  0  0  0  0  0  0  0
   57.1100   30.6660   44.6750 C   0  0  0  0  0  0  0  0  0  0  0  0
   57.0410   31.1710   43.3660 C   0  0  0  0  0  0  0  0  0  0  0  0
   57.7320   32.3360   43.0250 C   0  0  0  0  0  0  0  0  0  0  0  0
   58.4880   33.0110   43.9850 C   0  0  0  0  0  0  0  0  0  0  0  0
   58.5440   32.5330   45.3010 C   0  0  0  0  0  0  0  0  0  0  0  0
   59.4880   33.3900   46.5200 S   0  0  0  0  0  0  0  0  0  0  0  0
   58.6950   33.4890   47.7930 O   0  0  0  0  0  0  0  0  0  0  0  0
   59.7690   34.7820   46.0250 O   0  0  0  0  0  0  0  0  0  0  0  0
   60.9970   32.5550   46.8100 N   0  0  0  0  0  0  0  0  0  0  0  0
   62.1460   33.4920   46.7380 C   0  0  0  0  0  0  0  0  0  0  0  0
   62.6630   33.8750   48.1360 C   0  0  0  0  0  0  0  0  0  0  0  0
   63.0910   32.7560   48.9000 O   0  0  0  0  0  0  0  0  0  0  0  0
   62.3450   31.5730   48.6560 C   0  0  0  0  0  0  0  0  0  0  0  0
   60.9340   31.8280   48.0970 C   0  0  0  0  0  0  0  0  0  0  0  0
   57.8430   31.3680   45.6450 C   0  0  0  0  0  0  0  0  0  0  0  0
   55.6328   22.9337   45.8950 H   0  0  0  0  0  0  0  0  0  0  0  0
   55.5544   22.1008   43.1597 H   0  0  0  0  0  0  0  0  0  0  0  0
   55.8071   23.5431   42.6335 H   0  0  0  0  0  0  0  0  0  0  0  0
   57.8108   21.7593   44.4383 H   0  0  0  0  0  0  0  0  0  0  0  0
   58.4561   23.1420   44.1347 H   0  0  0  0  0  0  0  0  0  0  0  0
   56.4410   30.6474   42.6072 H   0  0  0  0  0  0  0  0  0  0  0  0
   57.6803   32.7229   41.9966 H   0  0  0  0  0  0  0  0  0  0  0  0
   59.0412   33.9205   43.7077 H   0  0  0  0  0  0  0  0  0  0  0  0
   61.1030   31.8510   46.0440 H   0  0  0  0  0  0  0  0  0  0  0  0
   62.9613   33.0124   46.1765 H   0  0  0  0  0  0  0  0  0  0  0  0
   61.8059   34.4104   46.2370 H   0  0  0  0  0  0  0  0  0  0  0  0
   63.5127   34.5635   48.0181 H   0  0  0  0  0  0  0  0  0  0  0  0
   61.8265   34.3404   48.6779 H   0  0  0  0  0  0  0  0  0  0  0  0
   62.8985   30.9581   47.9311 H   0  0  0  0  0  0  0  0  0  0  0  0
   62.2174   31.0709   49.6264 H   0  0  0  0  0  0  0  0  0  0  0  0
   60.4292   30.8632   47.9408 H   0  0  0  0  0  0  0  0  0  0  0  0
   60.3765   32.4421   48.8195 H   0  0  0  0  0  0  0  0  0  0  0  0
   57.8677   31.0018   46.6820 H   0  0  0  0  0  0  0  0  0  0  0  0
  1  2  2  0
  2  3  1  0
  3  4  2  3
  4  5  1  0
  5  6  1  0
  6  7  2  0
  7  8  1  0
  8  9  1  0
  9 10  1  0
  7 11  1  0
  2 12  1  0
 12 13  2  0
 13 14  1  0
 14 15  2  0
 15 16  1  0
 16 17  1  0
 17 18  2  0
 17 19  2  0
 17 20  1  0
 20 21  1  0
 21 22  1  0
 22 23  1  0
 23 24  1  0
 24 25  1  0
 16 26  2  0
 11  4  1  0
 26 12  1  0
 10  8  1  0
 25 20  1  0
  8 27  1  0
  9 28  1  0
  9 29  1  0
 10 30  1  0
 10 31  1  0
 13 32  1  0
 14 33  1  0
 15 34  1  0
 20 35  1  0
 21 36  1  0
 21 37  1  0
 22 38  1  0
 22 39  1  0
 24 40  1  0
 24 41  1  0
 25 42  1  0
 25 43  1  0
 26 44  1  0
M  CHG  2   5  -1  20   1
M  END
>  <UniqueID>  (70) 
66

>  <SMILES>  (70) 
O=C(N=c1[n-]nc(C2CC2)s1)c1cccc(S(=O)(=O)[NH+]2CCOCC2)c1

>  <Energy>  (70) 
363.34133793530316

>  <Genealogy>  (70) 
O=C(N=c1[n-]nc(C2CC2)s1)c1cccc(S(=O)(=O)[NH+]2CCOCC2)c1 (protonated)
O=C(N=c1[n-]nc(C2CC2)s1)c1cccc(S(=O)(=O)[NH+]2CCOCC2)c1 (3D coordinates assigned)
O=C(N=c1[n-]nc(C2CC2)s1)c1cccc(S(=O)(=O)[NH+]2CCOCC2)c1 (nonaromatic ring conformer: 363.34133793530316 kcal/mol)

>  <smiles>  (70) 
O=C(N=c1[nH]nc(C2CC2)s1)c1cccc(S(=O)(=O)N2CCOCC2)c1

>  <score_type>  (70) 
oracle

>  <origin>  (70) 
adg

>  <m_score__min__energy>  (70) 
-10.279999999999999

>  <m_primary>  (70) 
energy

$$$$
70:0
     RDKit          3D

 51 53  0  0  0  0  0  0  0  0999 V2000
   57.7270   29.3320   44.1760 C   0  0  0  0  0  0  0  0  0  0  0  0
   58.5630   28.6340   44.6910 C   0  0  0  0  0  0  0  0  0  0  0  0
   59.5880   27.7840   45.3240 C   0  0  0  0  0  0  0  0  0  0  0  0
   60.1690   28.3850   46.5490 N   0  0  0  0  0  0  0  0  0  0  0  0
   60.8030   29.7020   46.2680 C   0  0  0  0  0  0  0  0  0  0  0  0
   61.0470   30.5440   47.5420 C   0  0  0  0  0  0  0  0  0  0  0  0
   61.1450   29.6650   48.7910 C   0  0  0  0  0  0  0  0  0  0  0  0
   59.8660   28.8300   48.9850 C   0  0  0  0  0  0  0  0  0  0  0  0
   59.1840   28.4680   47.6500 C   0  0  0  0  0  0  0  0  0  0  0  0
   56.7040   30.1760   43.5480 C   0  0  0  0  0  0  0  0  0  0  0  0
   56.2880   31.2030   44.4450 O   0  0  0  0  0  0  0  0  0  0  0  0
   57.1490   32.0550   45.1590 C   0  0  0  0  0  0  0  0  0  0  0  0
   57.3850   33.3360   44.6510 C   0  0  0  0  0  0  0  0  0  0  0  0
   58.2310   34.2230   45.3230 C   0  0  0  0  0  0  0  0  0  0  0  0
   58.8570   33.8440   46.5150 C   0  0  0  0  0  0  0  0  0  0  0  0
   59.6960   34.7700   47.1520 O   0  0  0  0  0  0  0  0  0  0  0  0
   60.2450   34.5970   48.4550 C   0  0  0  0  0  0  0  0  0  0  0  0
   61.5720   33.9050   48.3420 C   0  0  0  0  0  0  0  0  0  0  0  0
   62.2280   33.4410   49.4940 C   0  0  0  0  0  0  0  0  0  0  0  0
   63.4820   32.8290   49.3920 C   0  0  0  0  0  0  0  0  0  0  0  0
   64.0920   32.6880   48.1430 C   0  0  0  0  0  0  0  0  0  0  0  0
   63.4540   33.1640   46.9950 C   0  0  0  0  0  0  0  0  0  0  0  0
   62.2000   33.7770   47.0930 C   0  0  0  0  0  0  0  0  0  0  0  0
   58.6250   32.5540   47.0310 C   0  0  0  0  0  0  0  0  0  0  0  0
   57.7800   31.6660   46.3580 C   0  0  0  0  0  0  0  0  0  0  0  0
   59.1278   26.8213   45.5911 H   0  0  0  0  0  0  0  0  0  0  0  0
   60.4063   27.6632   44.5989 H   0  0  0  0  0  0  0  0  0  0  0  0
   60.9280   27.7280   46.8540 H   0  0  0  0  0  0  0  0  0  0  0  0
   61.7702   29.5263   45.7743 H   0  0  0  0  0  0  0  0  0  0  0  0
   60.1102   30.2689   45.6288 H   0  0  0  0  0  0  0  0  0  0  0  0
   61.9869   31.1034   47.4251 H   0  0  0  0  0  0  0  0  0  0  0  0
   60.1948   31.2277   47.6697 H   0  0  0  0  0  0  0  0  0  0  0  0
   62.0042   28.9863   48.6858 H   0  0  0  0  0  0  0  0  0  0  0  0
   61.2717   30.3175   49.6675 H   0  0  0  0  0  0  0  0  0  0  0  0
   60.1292   27.8996   49.5095 H   0  0  0  0  0  0  0  0  0  0  0  0
   59.1571   29.4378   49.5664 H   0  0  0  0  0  0  0  0  0  0  0  0
   58.6822   27.4949   47.7561 H   0  0  0  0  0  0  0  0  0  0  0  0
   58.4564   29.2562   47.4066 H   0  0  0  0  0  0  0  0  0  0  0  0
   57.1207   30.6352   42.6394 H   0  0  0  0  0  0  0  0  0  0  0  0
   55.8349   29.5523   43.2918 H   0  0  0  0  0  0  0  0  0  0  0  0
   56.9006   33.6487   43.7142 H   0  0  0  0  0  0  0  0  0  0  0  0
   58.4059   35.2277   44.9108 H   0  0  0  0  0  0  0  0  0  0  0  0
   60.3814   35.5795   48.9304 H   0  0  0  0  0  0  0  0  0  0  0  0
   59.5618   33.9897   49.0669 H   0  0  0  0  0  0  0  0  0  0  0  0
   61.7543   33.5592   50.4797 H   0  0  0  0  0  0  0  0  0  0  0  0
   63.9880   32.4586   50.2958 H   0  0  0  0  0  0  0  0  0  0  0  0
   65.0755   32.2018   48.0635 H   0  0  0  0  0  0  0  0  0  0  0  0
   63.9379   33.0568   46.0130 H   0  0  0  0  0  0  0  0  0  0  0  0
   61.7047   34.1598   46.1885 H   0  0  0  0  0  0  0  0  0  0  0  0
   59.1108   32.2437   47.9678 H   0  0  0  0  0  0  0  0  0  0  0  0
   57.6069   30.6593   46.7661 H   0  0  0  0  0  0  0  0  0  0  0  0
  1  2  3  0
  2  3  1  0
  3  4  1  0
  4  5  1  0
  5  6  1  0
  6  7  1  0
  7  8  1  0
  8  9  1  0
  1 10  1  0
 10 11  1  0
 11 12  1  0
 12 13  2  0
 13 14  1  0
 14 15  2  0
 15 16  1  0
 16 17  1  0
 17 18  1  0
 18 19  2  0
 19 20  1  0
 20 21  2  0
 21 22  1  0
 22 23  2  0
 15 24  1  0
 24 25  2  0
  9  4  1  0
 25 12  1  0
 23 18  1  0
  3 26  1  0
  3 27  1  0
  4 28  1  0
  5 29  1  0
  5 30  1  0
  6 31  1  0
  6 32  1  0
  7 33  1  0
  7 34  1  0
  8 35  1  0
  8 36  1  0
  9 37  1  0
  9 38  1  0
 10 39  1  0
 10 40  1  0
 13 41  1  0
 14 42  1  0
 17 43  1  0
 17 44  1  0
 19 45  1  0
 20 46  1  0
 21 47  1  0
 22 48  1  0
 23 49  1  0
 24 50  1  0
 25 51  1  0
M  CHG  1   4   1
M  END
>  <UniqueID>  (71) 
67

>  <SMILES>  (71) 
C(#CC[NH+]1CCCCC1)COc1ccc(OCc2ccccc2)cc1

>  <Energy>  (71) 
54.25061037683806

>  <Genealogy>  (71) 
C(#CC[NH+]1CCCCC1)COc1ccc(OCc2ccccc2)cc1 (protonated)
C(#CC[NH+]1CCCCC1)COc1ccc(OCc2ccccc2)cc1 (3D coordinates assigned)
C(#CC[NH+]1CCCCC1)COc1ccc(OCc2ccccc2)cc1 (nonaromatic ring conformer: 54.25061037683806 kcal/mol)

>  <smiles>  (71) 
C(#CCN1CCCCC1)COc1ccc(OCc2ccccc2)cc1

>  <score_type>  (71) 
oracle

>  <origin>  (71) 
adg

>  <m_score__min__energy>  (71) 
-6.0800000000000001

>  <m_primary>  (71) 
energy

$$$$
71:0
     RDKit          3D

 56 58  0  0  0  0  0  0  0  0999 V2000
   56.2950   32.2970   52.1060 C   0  0  0  0  0  0  0  0  0  0  0  0
   55.7810   31.1010   52.4240 C   0  0  0  0  0  0  0  0  0  0  0  0
   54.5520   30.5690   52.0010 C   0  0  0  0  0  0  0  0  0  0  0  0
   53.5110   31.1350   51.3640 C   0  0  0  0  0  0  0  0  0  0  0  0
   52.2940   31.6670   52.0000 C   0  0  0  0  0  0  0  0  0  0  0  0
   51.8510   31.3190   53.2220 N   0  0  0  0  0  0  0  0  0  0  0  0
   50.6460   31.9250   53.3010 C   0  0  0  0  0  0  0  0  0  0  0  0
   49.9120   31.8490   54.3210 O   0  0  0  0  0  0  0  0  0  0  0  0
   50.2810   32.6090   52.1940 N   0  0  0  0  0  0  0  0  0  0  0  0
   51.3300   32.4230   51.3770 C   0  0  0  0  0  0  0  0  0  0  0  0
   51.3970   32.9220   50.0830 O   0  0  0  0  0  0  0  0  0  0  0  0
   54.5420   29.2460   52.4090 C   0  0  0  0  0  0  0  0  0  0  0  0
   55.7040   29.0390   53.1230 C   0  0  0  0  0  0  0  0  0  0  0  0
   56.0950   27.7220   53.7250 C   0  0  0  0  0  0  0  0  0  0  0  0
   56.4570   30.1590   53.1300 N   0  0  0  0  0  0  0  0  0  0  0  0
   57.7350   30.2970   53.7750 C   0  0  0  0  0  0  0  0  0  0  0  0
   57.7700   30.5670   55.0090 O   0  0  0  0  0  0  0  0  0  0  0  0
   58.9560   29.9930   53.0560 N   0  0  0  0  0  0  0  0  0  0  0  0
   59.9300   31.1150   53.1900 C   0  0  0  0  0  0  0  0  0  0  0  0
   60.6360   31.4790   51.8790 C   0  0  0  0  0  0  0  0  0  0  0  0
   59.6370   31.6930   50.8380 N   0  0  0  0  0  0  0  0  0  0  0  0
   59.6020   32.9170   50.1010 C   0  0  0  0  0  0  0  0  0  0  0  0
   59.2780   33.9850   50.6910 O   0  0  0  0  0  0  0  0  0  0  0  0
   59.9000   32.9300   48.6960 N   0  0  0  0  0  0  0  0  0  0  0  0
   59.2950   33.9480   47.8310 C   0  0  0  0  0  0  0  0  0  0  0  0
   58.0500   33.3890   47.1480 C   0  0  0  0  0  0  0  0  0  0  0  0
   60.8720   31.9780   48.1370 C   0  0  0  0  0  0  0  0  0  0  0  0
   62.1350   32.7130   47.6890 C   0  0  0  0  0  0  0  0  0  0  0  0
   58.5280   30.7500   50.6830 C   0  0  0  0  0  0  0  0  0  0  0  0
   58.6690   29.5700   51.6580 C   0  0  0  0  0  0  0  0  0  0  0  0
   57.2746   32.5985   52.5055 H   0  0  0  0  0  0  0  0  0  0  0  0
   55.7374   32.9773   51.4455 H   0  0  0  0  0  0  0  0  0  0  0  0
   53.5747   31.2070   50.2682 H   0  0  0  0  0  0  0  0  0  0  0  0
   53.7578   28.5025   52.2033 H   0  0  0  0  0  0  0  0  0  0  0  0
   56.0721   27.7991   54.8221 H   0  0  0  0  0  0  0  0  0  0  0  0
   55.3888   26.9449   53.3972 H   0  0  0  0  0  0  0  0  0  0  0  0
   57.1108   27.4562   53.3972 H   0  0  0  0  0  0  0  0  0  0  0  0
   59.3840   29.1590   53.5260 H   0  0  0  0  0  0  0  0  0  0  0  0
   59.3897   32.0024   53.5513 H   0  0  0  0  0  0  0  0  0  0  0  0
   60.7085   30.7823   53.8923 H   0  0  0  0  0  0  0  0  0  0  0  0
   61.2225   32.3988   52.0204 H   0  0  0  0  0  0  0  0  0  0  0  0
   61.3084   30.6605   51.5824 H   0  0  0  0  0  0  0  0  0  0  0  0
   59.0147   34.8209   48.4388 H   0  0  0  0  0  0  0  0  0  0  0  0
   60.0236   34.2435   47.0617 H   0  0  0  0  0  0  0  0  0  0  0  0
   57.3275   33.0646   47.9113 H   0  0  0  0  0  0  0  0  0  0  0  0
   57.5947   34.1691   46.5202 H   0  0  0  0  0  0  0  0  0  0  0  0
   58.3305   32.5304   46.5202 H   0  0  0  0  0  0  0  0  0  0  0  0
   61.1367   31.2362   48.9050 H   0  0  0  0  0  0  0  0  0  0  0  0
   60.4224   31.4756   47.2678 H   0  0  0  0  0  0  0  0  0  0  0  0
   62.7007   33.0422   48.5731 H   0  0  0  0  0  0  0  0  0  0  0  0
   62.7584   32.0366   47.0858 H   0  0  0  0  0  0  0  0  0  0  0  0
   61.8549   33.5891   47.0858 H   0  0  0  0  0  0  0  0  0  0  0  0
   57.5809   31.2720   50.8844 H   0  0  0  0  0  0  0  0  0  0  0  0
   58.5410   30.3591   49.6549 H   0  0  0  0  0  0  0  0  0  0  0  0
   57.7295   28.9980   51.6521 H   0  0  0  0  0  0  0  0  0  0  0  0
   59.5236   28.9665   51.3180 H   0  0  0  0  0  0  0  0  0  0  0  0
  1  2  2  0
  2  3  1  0
  3  4  2  3
  4  5  1  0
  5  6  1  0
  6  7  1  0
  7  8  2  0
  7  9  1  0
  9 10  1  0
 10 11  1  0
  3 12  1  0
 12 13  2  0
 13 14  1  0
 13 15  1  0
 15 16  1  0
 16 17  2  0
 16 18  1  0
 18 19  1  0
 19 20  1  0
 20 21  1  0
 21 22  1  0
 22 23  2  0
 22 24  1  0
 24 25  1  0
 25 26  1  0
 24 27  1  0
 27 28  1  0
 21 29  1  0
 29 30  1  0
 15  2  1  0
 30 18  1  0
 10  5  2  0
  1 31  1  0
  1 32  1  0
  4 33  1  0
 12 34  1  0
 14 35  1  0
 14 36  1  0
 14 37  1  0
 18 38  1  0
 19 39  1  0
 19 40  1  0
 20 41  1  0
 20 42  1  0
 25 43  1  0
 25 44  1  0
 26 45  1  0
 26 46  1  0
 26 47  1  0
 27 48  1  0
 27 49  1  0
 28 50  1  0
 28 51  1  0
 28 52  1  0
 29 53  1  0
 29 54  1  0
 30 55  1  0
 30 56  1  0
M  CHG  4   6  -1   9  -1  11  -1  18   1
M  END
>  <UniqueID>  (72) 
68

>  <SMILES>  (72) 
C=c1c(=Cc2[n-]c(=O)[n-]c2[O-])cc(C)n1C(=O)[NH+]1CCN(C(=O)N(CC)CC)CC1

>  <Energy>  (72) 
139.77739344251424

>  <Genealogy>  (72) 
C=c1c(=Cc2[n-]c(=O)[n-]c2[O-])cc(C)n1C(=O)[NH+]1CCN(C(=O)N(CC)CC)CC1 (protonated)
C=c1c(=Cc2[n-]c(=O)[n-]c2[O-])cc(C)n1C(=O)[NH+]1CCN(C(=O)N(CC)CC)CC1 (3D coordinates assigned)
C=c1c(=Cc2[n-]c(=O)[n-]c2[O-])cc(C)n1C(=O)[NH+]1CCN(C(=O)N(CC)CC)CC1 (nonaromatic ring conformer: 139.77739344251424 kcal/mol)

>  <smiles>  (72) 
C=c1c(=Cc2[nH]c(=O)[nH]c2O)cc(C)n1C(=O)N1CCN(C(=O)N(CC)CC)CC1

>  <score_type>  (72) 
oracle

>  <origin>  (72) 
adg

>  <m_score__min__energy>  (72) 
-14.67

>  <m_primary>  (72) 
energy

$$$$
72:0
     RDKit          3D

 53 57  0  0  0  0  0  0  0  0999 V2000
   57.3940   28.2590   43.0990 C   0  0  0  0  0  0  0  0  0  0  0  0
   56.5980   29.7070   43.7550 S   0  0  0  0  0  0  0  0  0  0  0  0
   56.4830   30.7490   42.6780 O   0  0  0  0  0  0  0  0  0  0  0  0
   55.2090   29.3590   44.2120 O   0  0  0  0  0  0  0  0  0  0  0  0
   57.5330   30.3340   45.0860 N   0  0  0  0  0  0  0  0  0  0  0  0
   57.9020   29.6800   46.2240 C   0  0  0  0  0  0  0  0  0  0  0  0
   57.8090   28.2160   46.4090 C   0  0  0  0  0  0  0  0  0  0  0  0
   58.7740   27.5660   46.8870 O   0  0  0  0  0  0  0  0  0  0  0  0
   56.6660   27.5310   46.0200 O   0  0  0  0  0  0  0  0  0  0  0  0
   58.5500   30.5670   47.0950 C   0  0  0  0  0  0  0  0  0  0  0  0
   59.1710   30.2830   48.3990 C   0  0  0  0  0  0  0  0  0  0  0  0
   60.5120   30.0650   48.6360 C   0  0  0  0  0  0  0  0  0  0  0  0
   60.5660   29.8030   49.9880 C   0  0  0  0  0  0  0  0  0  0  0  0
   61.8140   29.5550   50.7850 C   0  0  0  0  0  0  0  0  0  0  0  0
   62.1590   30.7160   51.6430 N   0  0  1  0  0  0  0  0  0  0  0  0
   63.6230   30.8750   51.7930 C   0  0  0  0  0  0  0  0  0  0  0  0
   64.3230   31.1970   50.4620 C   0  0  0  0  0  0  0  0  0  0  0  0
   63.5590   32.1950   49.6290 C   0  0  0  0  0  0  0  0  0  0  0  0
   64.1680   32.7440   48.4890 C   0  0  0  0  0  0  0  0  0  0  0  0
   63.4600   33.6230   47.6650 C   0  0  0  0  0  0  0  0  0  0  0  0
   62.1380   33.9540   47.9660 C   0  0  0  0  0  0  0  0  0  0  0  0
   61.5190   33.4060   49.0920 C   0  0  0  0  0  0  0  0  0  0  0  0
   62.2160   32.5120   49.9200 C   0  0  0  0  0  0  0  0  0  0  0  0
   61.5530   31.9830   51.1700 C   0  0  0  0  0  0  0  0  0  0  0  0
   59.3290   29.8520   50.5160 N   0  0  0  0  0  0  0  0  0  0  0  0
   58.4760   30.1350   49.5440 N   0  0  0  0  0  0  0  0  0  0  0  0
   58.6010   31.7760   46.4280 C   0  0  0  0  0  0  0  0  0  0  0  0
   59.1530   33.0010   46.8050 C   0  0  0  0  0  0  0  0  0  0  0  0
   59.0650   34.0720   45.8990 C   0  0  0  0  0  0  0  0  0  0  0  0
   59.7440   35.6320   46.3240 Cl  0  0  0  0  0  0  0  0  0  0  0  0
   58.4380   33.8960   44.6470 C   0  0  0  0  0  0  0  0  0  0  0  0
   57.8890   32.6510   44.2940 C   0  0  0  0  0  0  0  0  0  0  0  0
   57.9760   31.6030   45.2180 C   0  0  0  0  0  0  0  0  0  0  0  0
   57.7425   27.6250   43.9276 H   0  0  0  0  0  0  0  0  0  0  0  0
   56.6789   27.6954   42.4817 H   0  0  0  0  0  0  0  0  0  0  0  0
   58.2531   28.5607   42.4817 H   0  0  0  0  0  0  0  0  0  0  0  0
   61.3428   30.0935   47.9156 H   0  0  0  0  0  0  0  0  0  0  0  0
   61.6591   28.6733   51.4242 H   0  0  0  0  0  0  0  0  0  0  0  0
   62.6430   29.3916   50.0807 H   0  0  0  0  0  0  0  0  0  0  0  0
   61.7800   30.5290   52.6030 H   0  0  0  0  0  0  0  0  0  0  0  0
   63.8176   31.6945   52.5005 H   0  0  0  0  0  0  0  0  0  0  0  0
   64.0260   29.9189   52.1583 H   0  0  0  0  0  0  0  0  0  0  0  0
   65.3194   31.6094   50.6792 H   0  0  0  0  0  0  0  0  0  0  0  0
   64.3863   30.2624   49.8854 H   0  0  0  0  0  0  0  0  0  0  0  0
   65.2074   32.4809   48.2434 H   0  0  0  0  0  0  0  0  0  0  0  0
   63.9456   34.0548   46.7775 H   0  0  0  0  0  0  0  0  0  0  0  0
   61.5832   34.6468   47.3162 H   0  0  0  0  0  0  0  0  0  0  0  0
   60.4799   33.6764   49.3311 H   0  0  0  0  0  0  0  0  0  0  0  0
   61.6473   32.7372   51.9651 H   0  0  0  0  0  0  0  0  0  0  0  0
   60.4996   31.7789   50.9279 H   0  0  0  0  0  0  0  0  0  0  0  0
   59.6425   33.1248   47.7823 H   0  0  0  0  0  0  0  0  0  0  0  0
   58.3785   34.7388   43.9426 H   0  0  0  0  0  0  0  0  0  0  0  0
   57.4039   32.5042   43.3177 H   0  0  0  0  0  0  0  0  0  0  0  0
  1  2  1  0
  2  3  2  0
  2  4  2  0
  2  5  1  0
  5  6  1  0
  6  7  1  0
  7  8  2  0
  7  9  1  0
  6 10  2  0
 10 11  1  0
 11 12  2  0
 12 13  1  0
 13 14  1  0
 14 15  1  0
 15 16  1  0
 16 17  1  0
 17 18  1  0
 18 19  2  0
 19 20  1  0
 20 21  2  0
 21 22  1  0
 22 23  2  0
 23 24  1  0
 13 25  2  0
 25 26  1  0
 10 27  1  0
 27 28  2  0
 28 29  1  0
 29 30  1  0
 29 31  2  0
 31 32  1  0
 32 33  2  0
 33  5  1  0
 26 11  1  0
 33 27  1  0
 24 15  1  0
 23 18  1  0
  1 34  1  0
  1 35  1  0
  1 36  1  0
 12 37  1  0
 14 38  1  0
 14 39  1  0
 15 40  1  1
 16 41  1  0
 16 42  1  0
 17 43  1  0
 17 44  1  0
 19 45  1  0
 20 46  1  0
 21 47  1  0
 22 48  1  0
 24 49  1  0
 24 50  1  0
 28 51  1  0
 31 52  1  0
 32 53  1  0
M  CHG  3   9  -1  15   1  26  -1
M  END
>  <UniqueID>  (73) 
69

>  <SMILES>  (73) 
CS(=O)(=O)n1c(C(=O)[O-])c(-c2cc(C[N@H+]3CCc4ccccc4C3)n[n-]2)c2cc(Cl)ccc21

>  <Energy>  (73) 
135.91577256975407

>  <Genealogy>  (73) 
CS(=O)(=O)n1c(C(=O)[O-])c(-c2cc(C[NH+]3CCc4ccccc4C3)n[n-]2)c2cc(Cl)ccc21 (protonated)
CS(=O)(=O)n1c(C(=O)[O-])c(-c2cc(C[N@H+]3CCc4ccccc4C3)n[n-]2)c2cc(Cl)ccc21 (chirality)
CS(=O)(=O)n1c(C(=O)[O-])c(-c2cc(C[N@H+]3CCc4ccccc4C3)n[n-]2)c2cc(Cl)ccc21 (3D coordinates assigned)
CS(=O)(=O)n1c(C(=O)[O-])c(-c2cc(C[N@H+]3CCc4ccccc4C3)n[n-]2)c2cc(Cl)ccc21 (nonaromatic ring conformer: 135.91577256975407 kcal/mol)

>  <smiles>  (73) 
CS(=O)(=O)n1c(C(=O)O)c(-c2cc(CN3CCc4ccccc4C3)n[nH]2)c2cc(Cl)ccc21

>  <score_type>  (73) 
oracle

>  <origin>  (73) 
adg

>  <m_score__min__energy>  (73) 
-11.17

>  <m_primary>  (73) 
energy

$$$$
73:0
     RDKit          3D

 59 62  0  0  0  0  0  0  0  0999 V2000
   59.9699   29.2057   54.4456 H   0  0  0  0  0  0  0  0  0  0  0  0
   59.7680   29.3070   53.3690 C   0  0  0  0  0  0  0  0  0  0  0  0
   58.7090   28.6560   52.8610 C   0  0  0  0  0  0  0  0  0  0  0  0
   58.4960   27.3490   53.1610 F   0  0  0  0  0  0  0  0  0  0  0  0
   57.6840   29.3510   52.0510 C   0  0  0  0  0  0  0  0  0  0  0  0
   56.4740   29.2420   52.3810 O   0  0  0  0  0  0  0  0  0  0  0  0
   58.0240   30.1980   50.9410 N   0  0  0  0  0  0  0  0  0  0  0  0
   58.8240   29.9130   49.9520 C   0  0  0  0  0  0  0  0  0  0  0  0
   58.8800   28.6260   49.5130 N   0  0  0  0  0  0  0  0  0  0  0  0
   59.6840   28.2410   48.4880 C   0  0  0  0  0  0  0  0  0  0  0  0
   59.6944   27.1904   48.1622 H   0  0  0  0  0  0  0  0  0  0  0  0
   60.4970   29.1780   47.8480 C   0  0  0  0  0  0  0  0  0  0  0  0
   61.1448   28.8745   47.0124 H   0  0  0  0  0  0  0  0  0  0  0  0
   60.4780   30.5040   48.2810 C   0  0  0  0  0  0  0  0  0  0  0  0
   61.1173   31.2521   47.7894 H   0  0  0  0  0  0  0  0  0  0  0  0
   59.6480   30.8820   49.3380 C   0  0  0  0  0  0  0  0  0  0  0  0
   59.6359   31.9243   49.6892 H   0  0  0  0  0  0  0  0  0  0  0  0
   60.6800   30.1530   52.5660 C   0  0  0  0  0  0  0  0  0  0  0  0
   61.5780   29.6080   51.6280 C   0  0  0  0  0  0  0  0  0  0  0  0
   61.6285   28.5180   51.4891 H   0  0  0  0  0  0  0  0  0  0  0  0
   62.4060   30.4440   50.8720 C   0  0  0  0  0  0  0  0  0  0  0  0
   63.0983   30.0088   50.1362 H   0  0  0  0  0  0  0  0  0  0  0  0
   62.3580   31.8300   51.0470 C   0  0  0  0  0  0  0  0  0  0  0  0
   63.1660   32.6750   50.2170 N   0  0  0  0  0  0  0  0  0  0  0  0
   62.9210   33.1160   49.0120 C   0  0  0  0  0  0  0  0  0  0  0  0
   63.9380   33.0590   48.1100 N   0  0  0  0  0  0  0  0  0  0  0  0
   63.7840   33.4040   46.8060 C   0  0  0  0  0  0  0  0  0  0  0  0
   64.6434   33.3625   46.1206 H   0  0  0  0  0  0  0  0  0  0  0  0
   62.5390   33.8100   46.3370 C   0  0  0  0  0  0  0  0  0  0  0  0
   62.4007   34.0487   45.2722 H   0  0  0  0  0  0  0  0  0  0  0  0
   61.4670   33.9130   47.2230 C   0  0  0  0  0  0  0  0  0  0  0  0
   60.2290   34.3340   46.7200 O   0  0  0  0  0  0  0  0  0  0  0  0
   59.2830   33.4950   46.1100 C   0  0  0  0  0  0  0  0  0  0  0  0
   58.1700   34.0800   45.4930 C   0  0  0  0  0  0  0  0  0  0  0  0
   58.0562   35.1741   45.4956 H   0  0  0  0  0  0  0  0  0  0  0  0
   57.2030   33.2830   44.8740 C   0  0  0  0  0  0  0  0  0  0  0  0
   56.3238   33.7528   44.4089 H   0  0  0  0  0  0  0  0  0  0  0  0
   57.3460   31.8900   44.8420 C   0  0  0  0  0  0  0  0  0  0  0  0
   56.3160   31.1020   44.2270 N   0  0  0  0  0  0  0  0  0  0  0  0
   56.0050   29.7310   44.5140 C   0  0  0  0  0  0  0  0  0  0  0  0
   54.8070   29.3540   44.4290 O   0  0  0  0  0  0  0  0  0  0  0  0
   57.0550   28.7420   44.8290 C   0  0  0  0  0  0  0  0  0  0  0  0
   56.8630   27.8940   45.7430 O   0  0  0  0  0  0  0  0  0  0  0  0
   58.3010   28.7570   44.1190 N   0  0  0  0  0  0  0  0  0  0  0  0
   58.4630   29.4660   43.3680 H   0  0  0  0  0  0  0  0  0  0  0  0
   59.3490   27.7810   44.3920 C   0  0  0  0  0  0  0  0  0  0  0  0
   59.4705   27.6679   45.4794 H   0  0  0  0  0  0  0  0  0  0  0  0
   59.0715   26.8121   43.9513 H   0  0  0  0  0  0  0  0  0  0  0  0
   60.2957   28.1266   43.9513 H   0  0  0  0  0  0  0  0  0  0  0  0
   58.4560   31.2980   45.4680 C   0  0  0  0  0  0  0  0  0  0  0  0
   58.5617   30.2031   45.4752 H   0  0  0  0  0  0  0  0  0  0  0  0
   59.4270   32.0960   46.0820 C   0  0  0  0  0  0  0  0  0  0  0  0
   60.3076   31.6272   46.5453 H   0  0  0  0  0  0  0  0  0  0  0  0
   61.6650   33.6390   48.5940 C   0  0  0  0  0  0  0  0  0  0  0  0
   60.4620   34.2510   49.7390 Cl  0  0  0  0  0  0  0  0  0  0  0  0
   61.4130   32.3810   51.9270 C   0  0  0  0  0  0  0  0  0  0  0  0
   61.3214   33.4734   52.0181 H   0  0  0  0  0  0  0  0  0  0  0  0
   60.5890   31.5490   52.6870 C   0  0  0  0  0  0  0  0  0  0  0  0
   59.8631   31.9903   53.3858 H   0  0  0  0  0  0  0  0  0  0  0  0
  1  2  1  0
  2  3  2  0
  3  4  1  0
  3  5  1  0
  5  6  2  0
  5  7  1  0
  7  8  2  3
  8  9  1  0
  9 10  1  0
 10 11  1  0
 10 12  2  0
 12 13  1  0
 12 14  1  0
 14 15  1  0
 14 16  2  0
 16 17  1  0
  2 18  1  0
 18 19  2  0
 19 20  1  0
 19 21  1  0
 21 22  1  0
 21 23  2  0
 23 24  1  0
 24 25  2  3
 25 26  1  0
 26 27  1  0
 27 28  1  0
 27 29  2  0
 29 30  1  0
 29 31  1  0
 31 32  1  0
 32 33  1  0
 33 34  2  0
 34 35  1  0
 34 36  1  0
 36 37  1  0
 36 38  2  0
 38 39  1  0
 39 40  1  0
 40 41  2  0
 40 42  1  0
 42 43  2  0
 42 44  1  0
 44 45  1  0
 44 46  1  0
 46 47  1  0
 46 48  1  0
 46 49  1  0
 38 50  1  0
 50 51  1  0
 50 52  2  0
 52 53  1  0
 31 54  2  0
 54 55  1  0
 23 56  1  0
 56 57  1  0
 56 58  2  0
 58 59  1  0
 16  8  1  0
 58 18  1  0
 54 25  1  0
 52 33  1  0
M  CHG  3   9  -1  26  -1  39  -1
M  END
>  <UniqueID>  (74) 
70

>  <SMILES>  (74) 
CNC(=O)C(=O)[N-]c1ccc(Oc2cc[n-]c(=Nc3ccc(/C=C(\F)C(=O)N=c4cccc[n-]4)cc3)c2Cl)cc1

>  <Energy>  (74) 
105.21861304059776

>  <Genealogy>  (74) 
CNC(=O)C(=O)[N-]c1ccc(Oc2cc[n-]c(=Nc3ccc(C=C(F)C(=O)N=c4cccc[n-]4)cc3)c2Cl)cc1 (protonated)
CNC(=O)C(=O)[N-]c1ccc(Oc2cc[n-]c(=Nc3ccc(/C=C(\F)C(=O)N=c4cccc[n-]4)cc3)c2Cl)cc1 (cis-trans isomerization)
CNC(=O)C(=O)[N-]c1ccc(Oc2cc[n-]c(=Nc3ccc(/C=C(\F)C(=O)N=c4cccc[n-]4)cc3)c2Cl)cc1 (3D coordinates assigned)
CNC(=O)C(=O)[N-]c1ccc(Oc2cc[n-]c(=Nc3ccc(/C=C(\F)C(=O)N=c4cccc[n-]4)cc3)c2Cl)cc1 (optimized conformer: 105.21861304059776 kcal/mol)

>  <smiles>  (74) 
CNC(=O)C(=O)Nc1ccc(Oc2cc[nH]c(=Nc3ccc(C=C(F)C(=O)N=c4cccc[nH]4)cc3)c2Cl)cc1

>  <score_type>  (74) 
oracle

>  <origin>  (74) 
adg

>  <m_score__min__energy>  (74) 
-13.67

>  <m_primary>  (74) 
energy

$$$$
74:0
     RDKit          3D

 42 43  0  0  1  0  0  0  0  0999 V2000
   63.4720   33.1430   47.1400 C   0  0  0  0  0  0  0  0  0  0  0  0
   62.2550   33.6650   47.1590 C   0  0  0  0  0  0  0  0  0  0  0  0
   61.2880   33.1730   48.1950 C   0  0  0  0  0  0  0  0  0  0  0  0
   60.7420   31.8980   47.6600 C   0  0  0  0  0  0  0  0  0  0  0  0
   60.7030   31.7840   46.3880 O   0  0  0  0  0  0  0  0  0  0  0  0
   60.2780   30.8400   48.4780 N   0  0  0  0  0  0  0  0  0  0  0  0
   59.7810   29.6770   47.8180 C   0  0  0  0  0  0  0  0  0  0  0  0
   60.4180   28.4820   48.1360 C   0  0  0  0  0  0  0  0  0  0  0  0
   60.0150   27.2980   47.5540 C   0  0  0  0  0  0  0  0  0  0  0  0
   58.9720   27.3080   46.6510 C   0  0  0  0  0  0  0  0  0  0  0  0
   58.3400   28.5180   46.3410 C   0  0  0  0  0  0  0  0  0  0  0  0
   57.0080   28.4870   45.1780 S   0  0  0  0  0  0  0  0  0  0  0  0
   57.5690   28.2420   43.8040 O   0  0  0  0  0  0  0  0  0  0  0  0
   56.0650   27.4140   45.6240 O   0  0  0  0  0  0  0  0  0  0  0  0
   56.2880   30.0570   45.2470 N   0  0  0  0  0  0  0  0  0  0  0  0
   56.9360   31.0350   44.7310 C   0  0  0  0  0  0  0  0  0  0  0  0
   57.1430   31.1240   43.3590 C   0  0  0  0  0  0  0  0  0  0  0  0
   57.8490   32.2000   42.8520 C   0  0  0  0  0  0  0  0  0  0  0  0
   58.0910   32.3300   41.3830 C   0  0  0  0  0  0  0  0  0  0  0  0
   58.3190   33.1420   43.7190 N   0  0  0  0  0  0  0  0  0  0  0  0
   58.1040   33.0320   45.0480 C   0  0  0  0  0  0  0  0  0  0  0  0
   58.6440   34.0950   45.9480 C   0  0  0  0  0  0  0  0  0  0  0  0
   57.4160   31.9890   45.5760 N   0  0  0  0  0  0  0  0  0  0  0  0
   58.7370   29.7080   46.9190 C   0  0  0  0  0  0  0  0  0  0  0  0
   64.2044   33.4824   46.3928 H   0  0  0  0  0  0  0  0  0  0  0  0
   63.7504   32.3700   47.8715 H   0  0  0  0  0  0  0  0  0  0  0  0
   61.9611   34.4387   46.4344 H   0  0  0  0  0  0  0  0  0  0  0  0
   61.8048   32.9984   49.1502 H   0  0  0  0  0  0  0  0  0  0  0  0
   60.4917   33.9067   48.3891 H   0  0  0  0  0  0  0  0  0  0  0  0
   60.3150   30.9420   49.5160 H   0  0  0  0  0  0  0  0  0  0  0  0
   61.2490   28.4811   48.8567 H   0  0  0  0  0  0  0  0  0  0  0  0
   60.5206   26.3546   47.8076 H   0  0  0  0  0  0  0  0  0  0  0  0
   58.6395   26.3721   46.1781 H   0  0  0  0  0  0  0  0  0  0  0  0
   56.7502   30.3484   42.6851 H   0  0  0  0  0  0  0  0  0  0  0  0
   59.0484   32.8443   41.2132 H   0  0  0  0  0  0  0  0  0  0  0  0
   58.1264   31.3295   40.9273 H   0  0  0  0  0  0  0  0  0  0  0  0
   57.2763   32.9119   40.9273 H   0  0  0  0  0  0  0  0  0  0  0  0
   58.8570   33.9600   43.3240 H   0  0  0  0  0  0  0  0  0  0  0  0
   58.4936   33.7989   46.9966 H   0  0  0  0  0  0  0  0  0  0  0  0
   59.7188   34.2277   45.7550 H   0  0  0  0  0  0  0  0  0  0  0  0
   58.1173   35.0412   45.7550 H   0  0  0  0  0  0  0  0  0  0  0  0
   58.2340   30.6537   46.6688 H   0  0  0  0  0  0  0  0  0  0  0  0
  1  2  2  0
  2  3  1  0
  3  4  1  0
  4  5  2  0
  4  6  1  0
  6  7  1  0
  7  8  2  0
  8  9  1  0
  9 10  2  0
 10 11  1  0
 11 12  1  0
 12 13  2  0
 12 14  2  0
 12 15  1  0
 15 16  2  0
 16 17  1  0
 17 18  2  0
 18 19  1  0
 18 20  1  0
 20 21  1  0
 21 22  1  0
 21 23  2  0
 11 24  2  0
 24  7  1  0
 23 16  1  0
  1 25  1  0
  1 26  1  0
  2 27  1  0
  3 28  1  0
  3 29  1  0
  6 30  1  0
  8 31  1  0
  9 32  1  0
 10 33  1  0
 17 34  1  0
 19 35  1  0
 19 36  1  0
 19 37  1  0
 20 38  1  0
 22 39  1  0
 22 40  1  0
 22 41  1  0
 24 42  1  0
M  END
>  <smiles>  (75) 
C=CCC(=O)Nc1cccc(S(=O)(=O)N=c2cc(C)[nH]c(C)n2)c1

>  <score_type>  (75) 
oracle

>  <origin>  (75) 
adg

>  <m_score__min__energy>  (75) 
-8.5299999999999994

>  <m_primary>  (75) 
energy

$$$$
75:0
     RDKit          3D

 58 60  0  0  0  0  0  0  0  0999 V2000
   58.5600   31.7360   49.9930 C   0  0  0  0  0  0  0  0  0  0  0  0
   59.1810   30.8270   49.0330 N   0  0  0  0  0  0  0  0  0  0  0  0
   58.5420   29.7630   48.5700 N   0  0  0  0  0  0  0  0  0  0  0  0
   59.3980   29.0730   47.7830 C   0  0  0  0  0  0  0  0  0  0  0  0
   59.0700   27.7860   47.1340 C   0  0  0  0  0  0  0  0  0  0  0  0
   60.0930   26.8880   46.7940 C   0  0  0  0  0  0  0  0  0  0  0  0
   59.7690   25.6550   46.2380 C   0  0  0  0  0  0  0  0  0  0  0  0
   58.4340   25.3040   46.0540 C   0  0  0  0  0  0  0  0  0  0  0  0
   57.4190   26.2130   46.4050 C   0  0  0  0  0  0  0  0  0  0  0  0
   56.0000   25.8120   46.3020 C   0  0  0  0  0  0  0  0  0  0  0  0
   55.1300   26.6840   46.0320 O   0  0  0  0  0  0  0  0  0  0  0  0
   55.6170   24.4380   46.4880 N   0  0  0  0  0  0  0  0  0  0  0  0
   55.1870   23.5040   45.4410 C   0  0  0  0  0  0  0  0  0  0  0  0
   53.6650   23.6060   45.2230 C   0  0  0  0  0  0  0  0  0  0  0  0
   55.5280   22.0790   45.9060 C   0  0  0  0  0  0  0  0  0  0  0  0
   55.9410   23.7960   44.1270 C   0  0  0  0  0  0  0  0  0  0  0  0
   57.7660   27.4340   46.9240 N   0  0  0  0  0  0  0  0  0  0  0  0
   60.6260   29.7120   47.7480 C   0  0  0  0  0  0  0  0  0  0  0  0
   60.4500   30.8200   48.5400 C   0  0  0  0  0  0  0  0  0  0  0  0
   61.4150   31.6590   48.7940 N   0  0  0  0  0  0  0  0  0  0  0  0
   62.2260   32.4030   47.8820 C   0  0  0  0  0  0  0  0  0  0  0  0
   63.4350   32.0810   47.7030 O   0  0  0  0  0  0  0  0  0  0  0  0
   61.6660   33.6640   47.2900 C   0  0  0  0  0  0  0  0  0  0  0  0
   60.1300   33.6890   47.2760 C   0  0  0  0  0  0  0  0  0  0  0  0
   59.5630   33.8540   45.8610 C   0  0  0  0  0  0  0  0  0  0  0  0
   58.6350   32.7600   45.5190 N   0  0  0  0  0  0  0  0  0  0  0  0
   59.1060   31.4760   45.4910 C   0  0  0  0  0  0  0  0  0  0  0  0
   58.2640   30.4210   45.1490 C   0  0  0  0  0  0  0  0  0  0  0  0
   56.9340   30.7020   44.8410 C   0  0  0  0  0  0  0  0  0  0  0  0
   56.1410   29.7760   44.5280 O   0  0  0  0  0  0  0  0  0  0  0  0
   56.4940   31.9840   44.8760 N   0  0  0  0  0  0  0  0  0  0  0  0
   57.3180   33.0110   45.2070 C   0  0  0  0  0  0  0  0  0  0  0  0
   56.8600   34.1850   45.2170 O   0  0  0  0  0  0  0  0  0  0  0  0
   58.7886   31.4014   51.0156 H   0  0  0  0  0  0  0  0  0  0  0  0
   58.9535   32.7522   49.8432 H   0  0  0  0  0  0  0  0  0  0  0  0
   57.4703   31.7390   49.8432 H   0  0  0  0  0  0  0  0  0  0  0  0
   61.1454   27.1576   46.9662 H   0  0  0  0  0  0  0  0  0  0  0  0
   60.5669   24.9574   45.9437 H   0  0  0  0  0  0  0  0  0  0  0  0
   58.1741   24.3203   45.6360 H   0  0  0  0  0  0  0  0  0  0  0  0
   53.1564   23.6401   46.1978 H   0  0  0  0  0  0  0  0  0  0  0  0
   53.4361   24.5215   44.6578 H   0  0  0  0  0  0  0  0  0  0  0  0
   53.3160   22.7292   44.6578 H   0  0  0  0  0  0  0  0  0  0  0  0
   55.5363   22.0442   47.0054 H   0  0  0  0  0  0  0  0  0  0  0  0
   54.7724   21.3775   45.5227 H   0  0  0  0  0  0  0  0  0  0  0  0
   56.5193   21.7956   45.5227 H   0  0  0  0  0  0  0  0  0  0  0  0
   56.9438   24.1844   44.3582 H   0  0  0  0  0  0  0  0  0  0  0  0
   56.0327   22.8684   43.5430 H   0  0  0  0  0  0  0  0  0  0  0  0
   55.3840   24.5434   43.5430 H   0  0  0  0  0  0  0  0  0  0  0  0
   57.0130   28.1080   47.1920 H   0  0  0  0  0  0  0  0  0  0  0  0
   61.5340   29.4030   47.2094 H   0  0  0  0  0  0  0  0  0  0  0  0
   62.0253   34.5189   47.8817 H   0  0  0  0  0  0  0  0  0  0  0  0
   62.0058   33.7166   46.2451 H   0  0  0  0  0  0  0  0  0  0  0  0
   59.7571   32.7443   47.6985 H   0  0  0  0  0  0  0  0  0  0  0  0
   59.8023   34.5532   47.8725 H   0  0  0  0  0  0  0  0  0  0  0  0
   59.0244   34.8113   45.8013 H   0  0  0  0  0  0  0  0  0  0  0  0
   60.4010   33.8307   45.1488 H   0  0  0  0  0  0  0  0  0  0  0  0
   60.1583   31.2753   45.7407 H   0  0  0  0  0  0  0  0  0  0  0  0
   58.6405   29.3878   45.1225 H   0  0  0  0  0  0  0  0  0  0  0  0
  1  2  1  0
  2  3  1  0
  3  4  1  0
  4  5  1  0
  5  6  2  0
  6  7  1  0
  7  8  2  0
  8  9  1  0
  9 10  1  0
 10 11  2  0
 10 12  1  0
 12 13  1  0
 13 14  1  0
 13 15  1  0
 13 16  1  0
  9 17  2  0
  4 18  2  0
 18 19  1  0
 19 20  2  3
 20 21  1  0
 21 22  2  0
 21 23  1  0
 23 24  1  0
 24 25  1  0
 25 26  1  0
 26 27  1  0
 27 28  2  0
 28 29  1  0
 29 30  2  0
 29 31  1  0
 31 32  1  0
 32 33  2  0
 19  2  1  0
 32 26  1  0
 17  5  1  0
  1 34  1  0
  1 35  1  0
  1 36  1  0
  6 37  1  0
  7 38  1  0
  8 39  1  0
 14 40  1  0
 14 41  1  0
 14 42  1  0
 15 43  1  0
 15 44  1  0
 15 45  1  0
 16 46  1  0
 16 47  1  0
 16 48  1  0
 17 49  1  0
 18 50  1  0
 23 51  1  0
 23 52  1  0
 24 53  1  0
 24 54  1  0
 25 55  1  0
 25 56  1  0
 27 57  1  0
 28 58  1  0
M  CHG  4   3  -1  12  -1  17   1  31  -1
M  END
>  <UniqueID>  (76) 
71

>  <SMILES>  (76) 
Cn1[n-]c(-c2cccc(C(=O)[N-]C(C)(C)C)[nH+]2)cc1=NC(=O)CCCn1ccc(=O)[n-]c1=O

>  <Energy>  (76) 
99.69548440579445

>  <Genealogy>  (76) 
Cn1[n-]c(-c2cccc(C(=O)[N-]C(C)(C)C)[nH+]2)cc1=NC(=O)CCCn1ccc(=O)[n-]c1=O (protonated)
Cn1[n-]c(-c2cccc(C(=O)[N-]C(C)(C)C)[nH+]2)cc1=NC(=O)CCCn1ccc(=O)[n-]c1=O (3D coordinates assigned)
Cn1[n-]c(-c2cccc(C(=O)[N-]C(C)(C)C)[nH+]2)cc1=NC(=O)CCCn1ccc(=O)[n-]c1=O (optimized conformer: 99.69548440579445 kcal/mol)

>  <smiles>  (76) 
Cn1[nH]c(-c2cccc(C(=O)NC(C)(C)C)n2)cc1=NC(=O)CCCn1ccc(=O)[nH]c1=O

>  <score_type>  (76) 
oracle

>  <origin>  (76) 
adg

>  <m_score__min__energy>  (76) 
-11.81

>  <m_primary>  (76) 
energy

$$$$
76:0
     RDKit          3D

 22 23  0  0  0  0  0  0  0  0999 V2000
   53.9280   26.3430   46.4700 H   0  0  0  0  0  0  0  0  0  0  0  0
   54.7670   25.9510   45.9850 N   0  0  0  0  0  0  0  0  0  0  0  0
   55.9020   26.5730   45.9880 C   0  0  0  0  0  0  0  0  0  0  0  0
   56.9790   26.0190   46.6030 N   0  0  0  0  0  0  0  0  0  0  0  0
   58.1790   26.6520   46.6250 C   0  0  0  0  0  0  0  0  0  0  0  0
   59.1520   26.1130   47.2140 O   0  0  0  0  0  0  0  0  0  0  0  0
   58.3270   27.8960   45.9990 C   0  0  0  0  0  0  0  0  0  0  0  0
   60.0110   28.8210   46.1160 Br  0  0  0  0  0  0  0  0  0  0  0  0
   57.2050   28.4540   45.3540 C   0  0  0  0  0  0  0  0  0  0  0  0
   57.2810   29.7590   44.6620 C   0  0  0  0  0  0  0  0  0  0  0  0
   57.7440   30.9030   45.3360 C   0  0  0  0  0  0  0  0  0  0  0  0
   58.0340   30.8354   46.3949 H   0  0  0  0  0  0  0  0  0  0  0  0
   57.8370   32.1260   44.6650 C   0  0  0  0  0  0  0  0  0  0  0  0
   58.1916   33.0200   45.1989 H   0  0  0  0  0  0  0  0  0  0  0  0
   57.4800   32.2140   43.3170 C   0  0  0  0  0  0  0  0  0  0  0  0
   57.5485   33.1783   42.7922 H   0  0  0  0  0  0  0  0  0  0  0  0
   57.0360   31.0780   42.6350 C   0  0  0  0  0  0  0  0  0  0  0  0
   56.7609   31.1475   41.5722 H   0  0  0  0  0  0  0  0  0  0  0  0
   56.9410   29.8520   43.3030 C   0  0  0  0  0  0  0  0  0  0  0  0
   56.5987   28.9579   42.7613 H   0  0  0  0  0  0  0  0  0  0  0  0
   56.0170   27.7830   45.3740 N   0  0  0  0  0  0  0  0  0  0  0  0
   55.1820   28.1950   44.8980 H   0  0  0  0  0  0  0  0  0  0  0  0
  1  2  1  0
  2  3  2  0
  3  4  1  0
  4  5  1  0
  5  6  2  0
  5  7  1  0
  7  8  1  0
  7  9  2  0
  9 10  1  0
 10 11  2  0
 11 12  1  0
 11 13  1  0
 13 14  1  0
 13 15  2  0
 15 16  1  0
 15 17  1  0
 17 18  1  0
 17 19  2  0
 19 20  1  0
  9 21  1  0
 21 22  1  0
 21  3  1  0
 19 10  1  0
M  CHG  1   4  -1
M  END
>  <UniqueID>  (77) 
72

>  <SMILES>  (77) 
[H]/N=c1\[n-]c(=O)c(Br)c(-c2ccccc2)[nH]1

>  <Energy>  (77) 
31.605787556306616

>  <Genealogy>  (77) 
N=c1[n-]c(=O)c(Br)c(-c2ccccc2)[nH]1 (protonated)
[H]/N=c1\[n-]c(=O)c(Br)c(-c2ccccc2)[nH]1 (cis-trans isomerization)
[H]/N=c1\[n-]c(=O)c(Br)c(-c2ccccc2)[nH]1 (3D coordinates assigned)
[H]/N=c1\[n-]c(=O)c(Br)c(-c2ccccc2)[nH]1 (optimized conformer: 31.605787556306616 kcal/mol)

>  <smiles>  (77) 
N=c1[nH]c(-c2ccccc2)c(Br)c(=O)[nH]1

>  <score_type>  (77) 
oracle

>  <origin>  (77) 
adg

>  <m_score__min__energy>  (77) 
-9.1099999999999994

>  <m_primary>  (77) 
energy

$$$$
77:0
     RDKit          3D

 41 43  0  0  0  0  0  0  0  0999 V2000
   60.2850   34.1793   49.4518 H   0  0  0  0  0  0  0  0  0  0  0  0
   59.5950   33.4060   49.0830 C   0  0  0  0  0  0  0  0  0  0  0  0
   59.0060   33.6080   47.8880 C   0  0  0  0  0  0  0  0  0  0  0  0
   58.1740   32.5000   47.3040 C   0  0  0  0  0  0  0  0  0  0  0  0
   57.7293   31.9077   48.1173 H   0  0  0  0  0  0  0  0  0  0  0  0
   57.3738   32.9302   46.6838 H   0  0  0  0  0  0  0  0  0  0  0  0
   58.8103   31.8516   46.6838 H   0  0  0  0  0  0  0  0  0  0  0  0
   59.2160   34.8730   47.0910 C   0  0  0  0  0  0  0  0  0  0  0  0
   59.3567   35.7203   47.7783 H   0  0  0  0  0  0  0  0  0  0  0  0
   60.1082   34.7631   46.4570 H   0  0  0  0  0  0  0  0  0  0  0  0
   58.3362   35.0573   46.4570 H   0  0  0  0  0  0  0  0  0  0  0  0
   59.3770   32.2170   49.9310 C   0  0  0  0  0  0  0  0  0  0  0  0
   60.3880   31.2520   50.0270 C   0  0  0  0  0  0  0  0  0  0  0  0
   61.3368   31.3966   49.4895 H   0  0  0  0  0  0  0  0  0  0  0  0
   60.1950   30.1070   50.8030 C   0  0  0  0  0  0  0  0  0  0  0  0
   60.9981   29.3600   50.8868 H   0  0  0  0  0  0  0  0  0  0  0  0
   58.9860   29.9070   51.4730 C   0  0  0  0  0  0  0  0  0  0  0  0
   58.8457   29.0073   52.0901 H   0  0  0  0  0  0  0  0  0  0  0  0
   57.9470   30.8480   51.3640 C   0  0  0  0  0  0  0  0  0  0  0  0
   56.6540   30.6310   52.0610 C   0  0  0  0  0  0  0  0  0  0  0  0
   56.4550   29.7960   53.1480 C   0  0  0  0  0  0  0  0  0  0  0  0
   57.2158   29.1894   53.6611 H   0  0  0  0  0  0  0  0  0  0  0  0
   55.1120   29.8760   53.4600 C   0  0  0  0  0  0  0  0  0  0  0  0
   54.5210   29.2080   54.4550 C   0  0  0  0  0  0  0  0  0  0  0  0
   53.4427   29.3300   54.6351 H   0  0  0  0  0  0  0  0  0  0  0  0
   55.1128   28.5361   55.0940 H   0  0  0  0  0  0  0  0  0  0  0  0
   54.5390   30.7720   52.5580 C   0  0  0  0  0  0  0  0  0  0  0  0
   53.2380   31.1180   52.4950 C   0  0  0  0  0  0  0  0  0  0  0  0
   52.7381   31.4230   53.4262 H   0  0  0  0  0  0  0  0  0  0  0  0
   52.4450   31.1120   51.2520 C   0  0  0  0  0  0  0  0  0  0  0  0
   51.4450   31.9890   50.8790 C   0  0  0  0  0  0  0  0  0  0  0  0
   51.0190   33.0970   51.6000 O   0  0  0  0  0  0  0  0  0  0  0  0
   50.8850   31.5970   49.7180 N   0  0  0  0  0  0  0  0  0  0  0  0
   51.5580   30.4630   49.4280 C   0  0  0  0  0  0  0  0  0  0  0  0
   51.3240   29.7720   48.4020 O   0  0  0  0  0  0  0  0  0  0  0  0
   52.4940   30.1310   50.3390 N   0  0  0  0  0  0  0  0  0  0  0  0
   53.1180   29.2930   50.3350 H   0  0  0  0  0  0  0  0  0  0  0  0
   55.4900   31.2170   51.7060 N   0  0  0  0  0  0  0  0  0  0  0  0
   55.3540   31.8680   50.9030 H   0  0  0  0  0  0  0  0  0  0  0  0
   58.1500   31.9980   50.5780 C   0  0  0  0  0  0  0  0  0  0  0  0
   57.3388   32.7330   50.4694 H   0  0  0  0  0  0  0  0  0  0  0  0
  1  2  1  0
  2  3  2  3
  3  4  1  0
  4  5  1  0
  4  6  1  0
  4  7  1  0
  3  8  1  0
  8  9  1  0
  8 10  1  0
  8 11  1  0
  2 12  1  0
 12 13  2  0
 13 14  1  0
 13 15  1  0
 15 16  1  0
 15 17  2  0
 17 18  1  0
 17 19  1  0
 19 20  1  0
 20 21  2  0
 21 22  1  0
 21 23  1  0
 23 24  2  0
 24 25  1  0
 24 26  1  0
 23 27  1  0
 27 28  2  0
 28 29  1  0
 28 30  1  0
 30 31  2  0
 31 32  1  0
 31 33  1  0
 33 34  1  0
 34 35  2  0
 34 36  1  0
 36 37  1  0
 27 38  1  0
 38 39  1  0
 19 40  2  0
 40 41  1  0
 40 12  1  0
 38 20  1  0
 36 30  1  0
M  CHG  2  32  -1  33  -1
M  END
>  <UniqueID>  (78) 
73

>  <SMILES>  (78) 
C=c1cc(-c2cccc(C=C(C)C)c2)[nH]/c1=C\c1[nH]c(=O)[n-]c1[O-]

>  <Energy>  (78) 
113.1860622660111

>  <Genealogy>  (78) 
C=c1cc(-c2cccc(C=C(C)C)c2)[nH]c1=Cc1[nH]c(=O)[n-]c1[O-] (protonated)
C=c1cc(-c2cccc(C=C(C)C)c2)[nH]/c1=C\c1[nH]c(=O)[n-]c1[O-] (cis-trans isomerization)
C=c1cc(-c2cccc(C=C(C)C)c2)[nH]/c1=C\c1[nH]c(=O)[n-]c1[O-] (3D coordinates assigned)
C=c1cc(-c2cccc(C=C(C)C)c2)[nH]/c1=C\c1[nH]c(=O)[n-]c1[O-] (optimized conformer: 113.1860622660111 kcal/mol)

>  <smiles>  (78) 
C=c1cc(-c2cccc(C=C(C)C)c2)[nH]c1=Cc1[nH]c(=O)[nH]c1O

>  <score_type>  (78) 
oracle

>  <origin>  (78) 
adg

>  <m_score__min__energy>  (78) 
-15.35

>  <m_primary>  (78) 
energy

$$$$
78:0
     RDKit          3D

 40 42  0  0  0  0  0  0  0  0999 V2000
   55.1700   29.3570   44.8570 N   0  0  0  0  0  0  0  0  0  0  0  0
   56.3980   29.6670   44.2000 C   0  0  0  0  0  0  0  0  0  0  0  0
   56.7920   28.9290   43.2580 O   0  0  0  0  0  0  0  0  0  0  0  0
   57.2060   30.8340   44.6250 C   0  0  0  0  0  0  0  0  0  0  0  0
   57.4120   31.9140   43.7490 C   0  0  0  0  0  0  0  0  0  0  0  0
   58.1900   33.0050   44.1410 C   0  0  0  0  0  0  0  0  0  0  0  0
   58.7890   33.0240   45.4020 C   0  0  0  0  0  0  0  0  0  0  0  0
   58.6110   31.9490   46.2850 C   0  0  0  0  0  0  0  0  0  0  0  0
   59.2950   31.9450   47.6300 C   0  0  0  0  0  0  0  0  0  0  0  0
   60.6540   31.3840   47.5440 N   0  0  0  0  0  0  0  0  0  0  0  0
   60.7080   29.9610   47.9190 C   0  0  0  0  0  0  0  0  0  0  0  0
   60.0750   29.1070   46.8520 C   0  0  0  0  0  0  0  0  0  0  0  0
   60.4370   29.2860   45.5080 C   0  0  0  0  0  0  0  0  0  0  0  0
   59.9110   28.4500   44.5220 C   0  0  0  0  0  0  0  0  0  0  0  0
   59.0240   27.4290   44.8670 C   0  0  0  0  0  0  0  0  0  0  0  0
   58.6450   27.2330   46.2070 C   0  0  0  0  0  0  0  0  0  0  0  0
   57.7070   26.1330   46.5450 C   0  0  0  0  0  0  0  0  0  0  0  0
   58.0770   25.0310   47.2280 N   0  0  0  0  0  0  0  0  0  0  0  0
   56.9380   24.3170   47.3330 C   0  0  0  0  0  0  0  0  0  0  0  0
   56.8870   23.2020   47.9150 O   0  0  0  0  0  0  0  0  0  0  0  0
   55.8580   24.8920   46.7680 N   0  0  0  0  0  0  0  0  0  0  0  0
   56.3540   26.0410   46.2760 C   0  0  0  0  0  0  0  0  0  0  0  0
   55.5740   26.9890   45.6230 O   0  0  0  0  0  0  0  0  0  0  0  0
   59.1630   28.0940   47.1930 C   0  0  0  0  0  0  0  0  0  0  0  0
   57.7940   30.8710   45.9030 C   0  0  0  0  0  0  0  0  0  0  0  0
   55.1390   28.6740   45.6450 H   0  0  0  0  0  0  0  0  0  0  0  0
   56.9570   31.8994   42.7476 H   0  0  0  0  0  0  0  0  0  0  0  0
   58.3315   33.8524   43.4541 H   0  0  0  0  0  0  0  0  0  0  0  0
   59.4029   33.8853   45.7041 H   0  0  0  0  0  0  0  0  0  0  0  0
   59.3580   32.9783   48.0018 H   0  0  0  0  0  0  0  0  0  0  0  0
   58.7057   31.3172   48.3145 H   0  0  0  0  0  0  0  0  0  0  0  0
   60.9530   31.4550   46.5440 H   0  0  0  0  0  0  0  0  0  0  0  0
   61.7584   29.6604   48.0466 H   0  0  0  0  0  0  0  0  0  0  0  0
   60.1551   29.8210   48.8596 H   0  0  0  0  0  0  0  0  0  0  0  0
   61.1374   30.0876   45.2308 H   0  0  0  0  0  0  0  0  0  0  0  0
   60.1963   28.5962   43.4697 H   0  0  0  0  0  0  0  0  0  0  0  0
   58.6179   26.7719   44.0839 H   0  0  0  0  0  0  0  0  0  0  0  0
   55.9470   27.5170   44.8440 H   0  0  0  0  0  0  0  0  0  0  0  0
   58.8507   27.9725   48.2407 H   0  0  0  0  0  0  0  0  0  0  0  0
   57.6124   30.0481   46.6100 H   0  0  0  0  0  0  0  0  0  0  0  0
  1  2  1  0
  2  3  2  0
  2  4  1  0
  4  5  2  0
  5  6  1  0
  6  7  2  0
  7  8  1  0
  8  9  1  0
  9 10  1  0
 10 11  1  0
 11 12  1  0
 12 13  2  0
 13 14  1  0
 14 15  2  0
 15 16  1  0
 16 17  1  0
 17 18  1  0
 18 19  1  0
 19 20  2  0
 19 21  1  0
 21 22  1  0
 22 23  1  0
 16 24  2  0
  8 25  2  0
 25  4  1  0
 24 12  1  0
 22 17  2  0
  1 26  1  0
  5 27  1  0
  6 28  1  0
  7 29  1  0
  9 30  1  0
  9 31  1  0
 10 32  1  0
 11 33  1  0
 11 34  1  0
 13 35  1  0
 14 36  1  0
 15 37  1  0
 23 38  1  0
 24 39  1  0
 25 40  1  0
M  CHG  3   1  -1  18  -1  21  -1
M  END
>  <UniqueID>  (79) 
74

>  <SMILES>  (79) 
[NH-]C(=O)c1cccc(CNCc2cccc(-c3[n-]c(=O)[n-]c3O)c2)c1

>  <Energy>  (79) 
69.4618086426474

>  <Genealogy>  (79) 
[NH-]C(=O)c1cccc(CNCc2cccc(-c3[n-]c(=O)[n-]c3O)c2)c1 (protonated)
[NH-]C(=O)c1cccc(CNCc2cccc(-c3[n-]c(=O)[n-]c3O)c2)c1 (3D coordinates assigned)
[NH-]C(=O)c1cccc(CNCc2cccc(-c3[n-]c(=O)[n-]c3O)c2)c1 (optimized conformer: 69.4618086426474 kcal/mol)

>  <smiles>  (79) 
NC(=O)c1cccc(CNCc2cccc(-c3[nH]c(=O)[nH]c3O)c2)c1

>  <score_type>  (79) 
oracle

>  <origin>  (79) 
adg

>  <m_score__min__energy>  (79) 
-14.859999999999999

>  <m_primary>  (79) 
energy

$$$$
79:0
     RDKit          3D

 64 67  0  0  0  0  0  0  0  0999 V2000
   55.8480   30.2750   44.8130 O   0  0  0  0  0  0  0  0  0  0  0  0
   56.9060   29.6820   44.4830 C   0  0  0  0  0  0  0  0  0  0  0  0
   57.1600   28.2660   44.9650 C   0  0  0  0  0  0  0  0  0  0  0  0
   57.7870   28.1710   46.3030 N   0  0  0  0  0  0  0  0  0  0  0  0
   57.3900   26.9750   47.0710 C   0  0  0  0  0  0  0  0  0  0  0  0
   57.2070   25.7980   46.1480 C   0  0  0  0  0  0  0  0  0  0  0  0
   58.3070   25.0050   45.7800 C   0  0  0  0  0  0  0  0  0  0  0  0
   58.1340   23.9090   44.9290 C   0  0  0  0  0  0  0  0  0  0  0  0
   56.8650   23.6000   44.4340 C   0  0  0  0  0  0  0  0  0  0  0  0
   55.7660   24.3870   44.7870 C   0  0  0  0  0  0  0  0  0  0  0  0
   55.9320   25.4840   45.6380 C   0  0  0  0  0  0  0  0  0  0  0  0
   54.8530   26.2400   45.9680 F   0  0  0  0  0  0  0  0  0  0  0  0
   59.5230   28.4020   46.2680 S   0  0  0  0  0  0  0  0  0  0  0  0
   60.0320   28.4700   44.8560 O   0  0  0  0  0  0  0  0  0  0  0  0
   60.2080   27.2560   46.9580 O   0  0  0  0  0  0  0  0  0  0  0  0
   59.9390   29.8810   47.1280 C   0  0  0  0  0  0  0  0  0  0  0  0
   59.7690   29.9470   48.5160 C   0  0  0  0  0  0  0  0  0  0  0  0
   60.0890   31.1160   49.2090 C   0  0  0  0  0  0  0  0  0  0  0  0
   60.5700   32.2370   48.5190 C   0  0  0  0  0  0  0  0  0  0  0  0
   60.9580   33.7190   49.3950 S   0  0  0  0  0  0  0  0  0  0  0  0
   60.5480   33.5630   50.8330 O   0  0  0  0  0  0  0  0  0  0  0  0
   60.1700   34.8580   48.8110 O   0  0  0  0  0  0  0  0  0  0  0  0
   62.6650   34.1010   49.3150 N   0  0  0  0  0  0  0  0  0  0  0  0
   63.1470   34.0780   47.9290 C   0  0  0  0  0  0  0  0  0  0  0  0
   63.7970   32.7280   47.6730 C   0  0  0  0  0  0  0  0  0  0  0  0
   64.0680   32.1390   49.0430 C   0  0  0  0  0  0  0  0  0  0  0  0
   63.4660   33.1130   50.0450 C   0  0  0  0  0  0  0  0  0  0  0  0
   60.7360   32.1730   47.1280 C   0  0  0  0  0  0  0  0  0  0  0  0
   60.4210   31.0010   46.4340 C   0  0  0  0  0  0  0  0  0  0  0  0
   57.8150   30.3620   43.6040 N   0  0  0  0  0  0  0  0  0  0  0  0
   57.7770   31.7780   43.2520 C   0  0  0  0  0  0  0  0  0  0  0  0
   57.9670   32.6340   44.4740 C   0  0  0  0  0  0  0  0  0  0  0  0
   58.8300   33.7410   44.4260 C   0  0  0  0  0  0  0  0  0  0  0  0
   58.9930   34.5350   45.5610 C   0  0  0  0  0  0  0  0  0  0  0  0
   58.2940   34.2290   46.7270 C   0  0  0  0  0  0  0  0  0  0  0  0
   57.4420   33.1240   46.7430 C   0  0  0  0  0  0  0  0  0  0  0  0
   57.2930   32.3550   45.6300 N   0  0  0  0  0  0  0  0  0  0  0  0
   56.1957   27.7379   45.0002 H   0  0  0  0  0  0  0  0  0  0  0  0
   57.8723   27.8194   44.2557 H   0  0  0  0  0  0  0  0  0  0  0  0
   58.1726   26.7404   47.8075 H   0  0  0  0  0  0  0  0  0  0  0  0
   56.4386   27.1787   47.5842 H   0  0  0  0  0  0  0  0  0  0  0  0
   59.3092   25.2475   46.1632 H   0  0  0  0  0  0  0  0  0  0  0  0
   58.9986   23.2893   44.6490 H   0  0  0  0  0  0  0  0  0  0  0  0
   56.7308   22.7365   43.7659 H   0  0  0  0  0  0  0  0  0  0  0  0
   54.7678   24.1431   44.3946 H   0  0  0  0  0  0  0  0  0  0  0  0
   59.3818   29.0745   49.0627 H   0  0  0  0  0  0  0  0  0  0  0  0
   59.9631   31.1573   50.3010 H   0  0  0  0  0  0  0  0  0  0  0  0
   62.3024   34.2212   47.2389 H   0  0  0  0  0  0  0  0  0  0  0  0
   63.8752   34.8864   47.7671 H   0  0  0  0  0  0  0  0  0  0  0  0
   63.1180   32.0770   47.1028 H   0  0  0  0  0  0  0  0  0  0  0  0
   64.7200   32.8264   47.0827 H   0  0  0  0  0  0  0  0  0  0  0  0
   63.5914   31.1520   49.1357 H   0  0  0  0  0  0  0  0  0  0  0  0
   65.1453   31.9985   49.2151 H   0  0  0  0  0  0  0  0  0  0  0  0
   62.8254   32.5671   50.7533 H   0  0  0  0  0  0  0  0  0  0  0  0
   64.2667   33.6185   50.6048 H   0  0  0  0  0  0  0  0  0  0  0  0
   61.1156   33.0485   46.5808 H   0  0  0  0  0  0  0  0  0  0  0  0
   60.5512   30.9569   45.3426 H   0  0  0  0  0  0  0  0  0  0  0  0
   58.5803   31.9929   42.5319 H   0  0  0  0  0  0  0  0  0  0  0  0
   56.7965   32.0064   42.8087 H   0  0  0  0  0  0  0  0  0  0  0  0
   59.3734   33.9801   43.5000 H   0  0  0  0  0  0  0  0  0  0  0  0
   59.6715   35.4004   45.5358 H   0  0  0  0  0  0  0  0  0  0  0  0
   58.4126   34.8522   47.6257 H   0  0  0  0  0  0  0  0  0  0  0  0
   56.8881   32.8732   47.6597 H   0  0  0  0  0  0  0  0  0  0  0  0
   56.6440   31.5380   45.6730 H   0  0  0  0  0  0  0  0  0  0  0  0
  1  2  2  0
  2  3  1  0
  3  4  1  0
  4  5  1  0
  5  6  1  0
  6  7  2  0
  7  8  1  0
  8  9  2  0
  9 10  1  0
 10 11  2  0
 11 12  1  0
  4 13  1  0
 13 14  2  0
 13 15  2  0
 13 16  1  0
 16 17  2  0
 17 18  1  0
 18 19  2  0
 19 20  1  0
 20 21  2  0
 20 22  2  0
 20 23  1  0
 23 24  1  0
 24 25  1  0
 25 26  1  0
 26 27  1  0
 19 28  1  0
 28 29  2  0
  2 30  1  0
 30 31  1  0
 31 32  1  0
 32 33  2  0
 33 34  1  0
 34 35  2  0
 35 36  1  0
 36 37  2  0
 11  6  1  0
 29 16  1  0
 37 32  1  0
 27 23  1  0
  3 38  1  0
  3 39  1  0
  5 40  1  0
  5 41  1  0
  7 42  1  0
  8 43  1  0
  9 44  1  0
 10 45  1  0
 17 46  1  0
 18 47  1  0
 24 48  1  0
 24 49  1  0
 25 50  1  0
 25 51  1  0
 26 52  1  0
 26 53  1  0
 27 54  1  0
 27 55  1  0
 28 56  1  0
 29 57  1  0
 31 58  1  0
 31 59  1  0
 33 60  1  0
 34 61  1  0
 35 62  1  0
 36 63  1  0
 37 64  1  0
M  CHG  2  30  -1  37   1
M  END
>  <UniqueID>  (80) 
75

>  <SMILES>  (80) 
O=C(CN(Cc1ccccc1F)S(=O)(=O)c1ccc(S(=O)(=O)N2CCCC2)cc1)[N-]Cc1cccc[nH+]1

>  <Energy>  (80) 
68.11955523758982

>  <Genealogy>  (80) 
O=C(CN(Cc1ccccc1F)S(=O)(=O)c1ccc(S(=O)(=O)N2CCCC2)cc1)[N-]Cc1cccc[nH+]1 (protonated)
O=C(CN(Cc1ccccc1F)S(=O)(=O)c1ccc(S(=O)(=O)N2CCCC2)cc1)[N-]Cc1cccc[nH+]1 (3D coordinates assigned)
O=C(CN(Cc1ccccc1F)S(=O)(=O)c1ccc(S(=O)(=O)N2CCCC2)cc1)[N-]Cc1cccc[nH+]1 (nonaromatic ring conformer: 68.11955523758982 kcal/mol)

>  <smiles>  (80) 
O=C(CN(Cc1ccccc1F)S(=O)(=O)c1ccc(S(=O)(=O)N2CCCC2)cc1)NCc1ccccn1

>  <score_type>  (80) 
oracle

>  <origin>  (80) 
adg

>  <m_score__min__energy>  (80) 
-11.130000000000001

>  <m_primary>  (80) 
energy

$$$$
80:0
     RDKit          3D

 62 65  0  0  0  0  0  0  0  0999 V2000
   57.8800   31.7700   42.9680 C   0  0  0  0  0  0  0  0  0  0  0  0
   57.1700   31.4200   44.2560 C   0  0  0  0  0  0  0  0  0  0  0  0
   57.0210   32.3190   45.2550 C   0  0  0  0  0  0  0  0  0  0  0  0
   57.9890   33.3970   45.5630 C   0  0  0  0  0  0  0  0  0  0  0  0
   58.3360   34.3530   44.5910 C   0  0  0  0  0  0  0  0  0  0  0  0
   59.2660   35.3530   44.8870 C   0  0  0  0  0  0  0  0  0  0  0  0
   59.8380   35.4180   46.1580 C   0  0  0  0  0  0  0  0  0  0  0  0
   59.4720   34.4960   47.1400 C   0  0  0  0  0  0  0  0  0  0  0  0
   58.5380   33.4800   46.8550 C   0  0  0  0  0  0  0  0  0  0  0  0
   58.1450   32.5300   47.8170 O   0  0  0  0  0  0  0  0  0  0  0  0
   58.9830   31.5270   48.3880 C   0  0  0  0  0  0  0  0  0  0  0  0
   60.4260   31.9570   48.3640 C   0  0  0  0  0  0  0  0  0  0  0  0
   60.9920   32.5780   49.4890 C   0  0  0  0  0  0  0  0  0  0  0  0
   62.3340   32.9740   49.4750 C   0  0  0  0  0  0  0  0  0  0  0  0
   63.1190   32.7570   48.3380 C   0  0  0  0  0  0  0  0  0  0  0  0
   64.4500   33.1660   48.3350 O   0  0  0  0  0  0  0  0  0  0  0  0
   62.5610   32.1350   47.2130 C   0  0  0  0  0  0  0  0  0  0  0  0
   61.2240   31.7280   47.2290 C   0  0  0  0  0  0  0  0  0  0  0  0
   56.6670   30.0340   44.4320 C   0  0  0  0  0  0  0  0  0  0  0  0
   55.4420   29.8110   44.6350 O   0  0  0  0  0  0  0  0  0  0  0  0
   57.5800   28.9320   44.4250 N   0  0  0  0  0  0  0  0  0  0  0  0
   58.3490   28.5290   45.5620 C   0  0  0  0  0  0  0  0  0  0  0  0
   59.6510   29.0140   45.7110 C   0  0  0  0  0  0  0  0  0  0  0  0
   60.3870   28.7290   46.8650 C   0  0  0  0  0  0  0  0  0  0  0  0
   59.8240   27.9610   47.9010 C   0  0  0  0  0  0  0  0  0  0  0  0
   60.5850   27.7280   49.1570 C   0  0  0  0  0  0  0  0  0  0  0  0
   61.1350   26.6100   49.3530 O   0  0  0  0  0  0  0  0  0  0  0  0
   60.6830   28.7350   50.1810 N   0  0  0  0  0  0  0  0  0  0  0  0
   59.4960   29.4360   50.6790 C   0  0  0  0  0  0  0  0  0  0  0  0
   59.4600   29.3350   52.2110 C   0  0  0  0  0  0  0  0  0  0  0  0
   60.6850   29.7770   52.7760 O   0  0  0  0  0  0  0  0  0  0  0  0
   61.7420   28.9180   52.3760 C   0  0  0  0  0  0  0  0  0  0  0  0
   61.9550   28.9890   50.8610 C   0  0  0  0  0  0  0  0  0  0  0  0
   58.5120   27.4840   47.7500 C   0  0  0  0  0  0  0  0  0  0  0  0
   57.7850   27.7540   46.5880 C   0  0  0  0  0  0  0  0  0  0  0  0
   58.8447   32.2456   43.1986 H   0  0  0  0  0  0  0  0  0  0  0  0
   58.0531   30.8540   42.3841 H   0  0  0  0  0  0  0  0  0  0  0  0
   57.2588   32.4651   42.3841 H   0  0  0  0  0  0  0  0  0  0  0  0
   56.1198   32.2447   45.8814 H   0  0  0  0  0  0  0  0  0  0  0  0
   57.8733   34.3131   43.5938 H   0  0  0  0  0  0  0  0  0  0  0  0
   59.5469   36.0883   44.1187 H   0  0  0  0  0  0  0  0  0  0  0  0
   60.5793   36.1978   46.3867 H   0  0  0  0  0  0  0  0  0  0  0  0
   59.9161   34.5630   48.1441 H   0  0  0  0  0  0  0  0  0  0  0  0
   58.6765   31.3514   49.4297 H   0  0  0  0  0  0  0  0  0  0  0  0
   58.8806   30.6046   47.7975 H   0  0  0  0  0  0  0  0  0  0  0  0
   60.3781   32.7538   50.3847 H   0  0  0  0  0  0  0  0  0  0  0  0
   62.7727   33.4572   50.3605 H   0  0  0  0  0  0  0  0  0  0  0  0
   65.1260   32.7590   47.6990 H   0  0  0  0  0  0  0  0  0  0  0  0
   63.1758   31.9669   46.3165 H   0  0  0  0  0  0  0  0  0  0  0  0
   60.7940   31.2262   46.3496 H   0  0  0  0  0  0  0  0  0  0  0  0
   60.1004   29.6248   44.9141 H   0  0  0  0  0  0  0  0  0  0  0  0
   61.4148   29.1083   46.9639 H   0  0  0  0  0  0  0  0  0  0  0  0
   59.5403   30.4937   50.3803 H   0  0  0  0  0  0  0  0  0  0  0  0
   58.5898   28.9783   50.2556 H   0  0  0  0  0  0  0  0  0  0  0  0
   58.6401   29.9603   52.5941 H   0  0  0  0  0  0  0  0  0  0  0  0
   59.3031   28.2828   52.4906 H   0  0  0  0  0  0  0  0  0  0  0  0
   62.6678   29.2237   52.8853 H   0  0  0  0  0  0  0  0  0  0  0  0
   61.4795   27.8849   52.6477 H   0  0  0  0  0  0  0  0  0  0  0  0
   62.3243   29.9886   50.5883 H   0  0  0  0  0  0  0  0  0  0  0  0
   62.6931   28.2322   50.5568 H   0  0  0  0  0  0  0  0  0  0  0  0
   58.0520   26.8918   48.5548 H   0  0  0  0  0  0  0  0  0  0  0  0
   56.7651   27.3573   46.4763 H   0  0  0  0  0  0  0  0  0  0  0  0
  1  2  1  0
  2  3  2  3
  3  4  1  0
  4  5  2  0
  5  6  1  0
  6  7  2  0
  7  8  1  0
  8  9  2  0
  9 10  1  0
 10 11  1  0
 11 12  1  0
 12 13  2  0
 13 14  1  0
 14 15  2  0
 15 16  1  0
 15 17  1  0
 17 18  2  0
  2 19  1  0
 19 20  2  0
 19 21  1  0
 21 22  1  0
 22 23  2  0
 23 24  1  0
 24 25  2  0
 25 26  1  0
 26 27  2  0
 26 28  1  0
 28 29  1  0
 29 30  1  0
 30 31  1  0
 31 32  1  0
 32 33  1  0
 25 34  1  0
 34 35  2  0
  9  4  1  0
 18 12  1  0
 35 22  1  0
 33 28  1  0
  1 36  1  0
  1 37  1  0
  1 38  1  0
  3 39  1  0
  5 40  1  0
  6 41  1  0
  7 42  1  0
  8 43  1  0
 11 44  1  0
 11 45  1  0
 13 46  1  0
 14 47  1  0
 16 48  1  0
 17 49  1  0
 18 50  1  0
 23 51  1  0
 24 52  1  0
 29 53  1  0
 29 54  1  0
 30 55  1  0
 30 56  1  0
 32 57  1  0
 32 58  1  0
 33 59  1  0
 33 60  1  0
 34 61  1  0
 35 62  1  0
M  CHG  1  21  -1
M  END
>  <UniqueID>  (81) 
76

>  <SMILES>  (81) 
CC(=Cc1ccccc1OCc1ccc(O)cc1)C(=O)[N-]c1ccc(C(=O)N2CCOCC2)cc1

>  <Energy>  (81) 
86.49057160180656

>  <Genealogy>  (81) 
CC(=Cc1ccccc1OCc1ccc(O)cc1)C(=O)[N-]c1ccc(C(=O)N2CCOCC2)cc1 (protonated)
CC(=Cc1ccccc1OCc1ccc(O)cc1)C(=O)[N-]c1ccc(C(=O)N2CCOCC2)cc1 (3D coordinates assigned)
CC(=Cc1ccccc1OCc1ccc(O)cc1)C(=O)[N-]c1ccc(C(=O)N2CCOCC2)cc1 (nonaromatic ring conformer: 86.49057160180656 kcal/mol)

>  <smiles>  (81) 
CC(=Cc1ccccc1OCc1ccc(O)cc1)C(=O)Nc1ccc(C(=O)N2CCOCC2)cc1

>  <score_type>  (81) 
oracle

>  <origin>  (81) 
adg

>  <m_score__min__energy>  (81) 
-12.06

>  <m_primary>  (81) 
energy

$$$$
81:0
     RDKit          3D

 61 64  0  0  0  0  0  0  0  0999 V2000
   60.7696   30.0765   45.4905 H   0  0  0  0  0  0  0  0  0  0  0  0
   60.7020   30.3990   46.5400 C   0  0  0  0  0  0  0  0  0  0  0  0
   61.6730   31.2540   47.0660 C   0  0  0  0  0  0  0  0  0  0  0  0
   62.5035   31.5947   46.4302 H   0  0  0  0  0  0  0  0  0  0  0  0
   61.5960   31.6800   48.3970 C   0  0  0  0  0  0  0  0  0  0  0  0
   62.8110   32.7760   49.0550 S   0  0  0  0  0  0  0  0  0  0  0  0
   62.1660   34.0980   49.3630 O   0  0  0  0  0  0  0  0  0  0  0  0
   63.8640   33.0140   48.0070 O   0  0  0  0  0  0  0  0  0  0  0  0
   63.5740   32.1500   50.5020 N   0  0  0  0  0  0  0  0  0  0  0  0
   64.9870   31.7910   50.2880 C   0  0  0  0  0  0  0  0  0  0  0  0
   65.2812   31.0563   51.0519 H   0  0  0  0  0  0  0  0  0  0  0  0
   65.0714   31.3826   49.2701 H   0  0  0  0  0  0  0  0  0  0  0  0
   65.9420   33.0060   50.3790 C   0  0  0  0  0  0  0  0  0  0  0  0
   66.7697   32.7495   51.0565 H   0  0  0  0  0  0  0  0  0  0  0  0
   66.2929   33.2217   49.3590 H   0  0  0  0  0  0  0  0  0  0  0  0
   65.3130   34.1770   50.8620 O   0  0  0  0  0  0  0  0  0  0  0  0
   64.5800   33.8780   52.0270 C   0  0  0  0  0  0  0  0  0  0  0  0
   65.2248   33.3310   52.7305 H   0  0  0  0  0  0  0  0  0  0  0  0
   64.2353   34.8179   52.4828 H   0  0  0  0  0  0  0  0  0  0  0  0
   63.3560   33.0120   51.6830 C   0  0  0  0  0  0  0  0  0  0  0  0
   63.1253   32.3715   52.5471 H   0  0  0  0  0  0  0  0  0  0  0  0
   62.5261   33.6936   51.4451 H   0  0  0  0  0  0  0  0  0  0  0  0
   60.5450   31.2270   49.2050 C   0  0  0  0  0  0  0  0  0  0  0  0
   60.4848   31.5476   50.2555 H   0  0  0  0  0  0  0  0  0  0  0  0
   59.5730   30.3700   48.6830 C   0  0  0  0  0  0  0  0  0  0  0  0
   58.7501   30.0229   49.3252 H   0  0  0  0  0  0  0  0  0  0  0  0
   59.6380   29.9470   47.3420 C   0  0  0  0  0  0  0  0  0  0  0  0
   58.6030   29.0400   46.7860 C   0  0  0  0  0  0  0  0  0  0  0  0
   57.7820   29.4650   45.7890 N   0  0  0  0  0  0  0  0  0  0  0  0
   56.8320   28.6400   45.2750 C   0  0  0  0  0  0  0  0  0  0  0  0
   56.0420   29.0400   44.3250 N   0  0  0  0  0  0  0  0  0  0  0  0
   55.6520   30.4340   44.1180 C   0  0  0  0  0  0  0  0  0  0  0  0
   54.6878   30.4670   43.5896 H   0  0  0  0  0  0  0  0  0  0  0  0
   55.5615   30.9305   45.0954 H   0  0  0  0  0  0  0  0  0  0  0  0
   56.7100   31.1600   43.2850 C   0  0  0  0  0  0  0  0  0  0  0  0
   57.3669   30.4149   42.8125 H   0  0  0  0  0  0  0  0  0  0  0  0
   56.1961   31.7655   42.5239 H   0  0  0  0  0  0  0  0  0  0  0  0
   57.5450   32.0790   44.1380 C   0  0  0  0  0  0  0  0  0  0  0  0
   57.3740   32.1000   45.5320 C   0  0  0  0  0  0  0  0  0  0  0  0
   56.6470   31.4235   46.0051 H   0  0  0  0  0  0  0  0  0  0  0  0
   58.1240   32.9770   46.3200 C   0  0  0  0  0  0  0  0  0  0  0  0
   57.9871   32.9855   47.4114 H   0  0  0  0  0  0  0  0  0  0  0  0
   59.0490   33.8450   45.7270 C   0  0  0  0  0  0  0  0  0  0  0  0
   59.9770   34.9590   46.7240 S   0  0  0  0  0  0  0  0  0  0  0  0
   61.4230   34.5510   46.7250 O   0  0  0  0  0  0  0  0  0  0  0  0
   59.8710   36.3510   46.1710 O   0  0  0  0  0  0  0  0  0  0  0  0
   59.3670   34.9380   48.3420 N   0  0  0  0  0  0  0  0  0  0  0  0
   58.9430   35.8760   48.5190 H   0  0  0  0  0  0  0  0  0  0  0  0
   60.1930   34.8550   48.9770 H   0  0  0  0  0  0  0  0  0  0  0  0
   59.2080   33.8400   44.3350 C   0  0  0  0  0  0  0  0  0  0  0  0
   59.9243   34.5282   43.8624 H   0  0  0  0  0  0  0  0  0  0  0  0
   58.4590   32.9630   43.5450 C   0  0  0  0  0  0  0  0  0  0  0  0
   58.5869   32.9660   42.4525 H   0  0  0  0  0  0  0  0  0  0  0  0
   56.7040   27.3810   45.7610 N   0  0  0  0  0  0  0  0  0  0  0  0
   57.5190   26.9450   46.7580 C   0  0  0  0  0  0  0  0  0  0  0  0
   57.3980   25.6500   47.2690 O   0  0  0  0  0  0  0  0  0  0  0  0
   57.3490   24.4970   46.4380 C   0  0  0  0  0  0  0  0  0  0  0  0
   57.3106   23.5942   47.0653 H   0  0  0  0  0  0  0  0  0  0  0  0
   56.4519   24.5406   45.8029 H   0  0  0  0  0  0  0  0  0  0  0  0
   58.2466   24.4643   45.8029 H   0  0  0  0  0  0  0  0  0  0  0  0
   58.4650   27.7760   47.2660 N   0  0  0  0  0  0  0  0  0  0  0  0
  1  2  1  0
  2  3  2  0
  3  4  1  0
  3  5  1  0
  5  6  1  0
  6  7  2  0
  6  8  2  0
  6  9  1  0
  9 10  1  0
 10 11  1  0
 10 12  1  0
 10 13  1  0
 13 14  1  0
 13 15  1  0
 13 16  1  0
 16 17  1  0
 17 18  1  0
 17 19  1  0
 17 20  1  0
 20 21  1  0
 20 22  1  0
  5 23  2  0
 23 24  1  0
 23 25  1  0
 25 26  1  0
 25 27  2  0
 27 28  1  0
 28 29  2  0
 29 30  1  0
 30 31  2  0
 31 32  1  0
 32 33  1  0
 32 34  1  0
 32 35  1  0
 35 36  1  0
 35 37  1  0
 35 38  1  0
 38 39  2  0
 39 40  1  0
 39 41  1  0
 41 42  1  0
 41 43  2  0
 43 44  1  0
 44 45  2  0
 44 46  2  0
 44 47  1  0
 47 48  1  0
 47 49  1  0
 43 50  1  0
 50 51  1  0
 50 52  2  0
 52 53  1  0
 30 54  1  0
 54 55  2  0
 55 56  1  0
 56 57  1  0
 57 58  1  0
 57 59  1  0
 57 60  1  0
 55 61  1  0
 27  2  1  0
 61 28  1  0
 20  9  1  0
 52 38  1  0
M  CHG  1  61  -1
M  END
>  <UniqueID>  (82) 
77

>  <SMILES>  (82) 
COc1n/c(=N/CCc2ccc(S(N)(=O)=O)cc2)nc(-c2ccc(S(=O)(=O)N3CCOCC3)cc2)[n-]1

>  <Energy>  (82) 
69.43100003357142

>  <Genealogy>  (82) 
COc1nc(=NCCc2ccc(S(N)(=O)=O)cc2)nc(-c2ccc(S(=O)(=O)N3CCOCC3)cc2)[n-]1 (protonated)
COc1n/c(=N/CCc2ccc(S(N)(=O)=O)cc2)nc(-c2ccc(S(=O)(=O)N3CCOCC3)cc2)[n-]1 (cis-trans isomerization)
COc1n/c(=N/CCc2ccc(S(N)(=O)=O)cc2)nc(-c2ccc(S(=O)(=O)N3CCOCC3)cc2)[n-]1 (3D coordinates assigned)
COc1n/c(=N/CCc2ccc(S(N)(=O)=O)cc2)nc(-c2ccc(S(=O)(=O)N3CCOCC3)cc2)[n-]1 (nonaromatic ring conformer: 69.43100003357142 kcal/mol)

>  <smiles>  (82) 
COc1nc(=NCCc2ccc(S(N)(=O)=O)cc2)nc(-c2ccc(S(=O)(=O)N3CCOCC3)cc2)[nH]1

>  <score_type>  (82) 
oracle

>  <origin>  (82) 
adg

>  <m_score__min__energy>  (82) 
-10.48

>  <m_primary>  (82) 
energy

$$$$
82:0
     RDKit          3D

 39 41  0  0  0  0  0  0  0  0999 V2000
   56.2540   30.3810   42.8820 O   0  0  0  0  0  0  0  0  0  0  0  0
   56.5700   30.2130   44.0920 C   0  0  0  0  0  0  0  0  0  0  0  0
   56.1220   29.0400   44.7890 N   0  0  0  0  0  0  0  0  0  0  0  0
   56.8280   28.0850   45.3320 C   0  0  0  0  0  0  0  0  0  0  0  0
   58.1840   28.1750   45.2410 N   0  0  0  0  0  0  0  0  0  0  0  0
   59.0180   27.2460   45.7770 C   0  0  0  0  0  0  0  0  0  0  0  0
   58.4950   26.1440   46.4490 C   0  0  0  0  0  0  0  0  0  0  0  0
   57.1120   25.9970   46.5410 C   0  0  0  0  0  0  0  0  0  0  0  0
   56.2630   26.9490   45.9700 C   0  0  0  0  0  0  0  0  0  0  0  0
   54.8940   26.7160   46.0060 O   0  0  0  0  0  0  0  0  0  0  0  0
   57.2980   31.2790   44.8220 C   0  0  0  0  0  0  0  0  0  0  0  0
   57.4470   32.5540   44.2570 C   0  0  0  0  0  0  0  0  0  0  0  0
   58.1290   33.5570   44.9470 C   0  0  0  0  0  0  0  0  0  0  0  0
   58.6760   33.3100   46.2100 C   0  0  0  0  0  0  0  0  0  0  0  0
   59.6010   34.7670   47.0510 Br  0  0  0  0  0  0  0  0  0  0  0  0
   58.5380   32.0290   46.7960 C   0  0  0  0  0  0  0  0  0  0  0  0
   59.1970   31.6260   48.3970 S   0  0  0  0  0  0  0  0  0  0  0  0
   58.6700   32.5750   49.4350 O   0  0  0  0  0  0  0  0  0  0  0  0
   58.7250   30.2480   48.7750 O   0  0  0  0  0  0  0  0  0  0  0  0
   60.9440   31.6450   48.4410 N   0  0  0  0  0  0  0  0  0  0  0  0
   61.4730   32.7810   49.1890 C   0  0  0  0  0  0  0  0  0  0  0  0
   62.8880   32.9950   48.6800 C   0  0  0  0  0  0  0  0  0  0  0  0
   62.8980   32.3960   47.2800 C   0  0  0  0  0  0  0  0  0  0  0  0
   61.5250   31.7590   47.1030 C   0  0  0  0  0  0  0  0  0  0  0  0
   57.8440   31.0300   46.0930 C   0  0  0  0  0  0  0  0  0  0  0  0
   60.1073   27.3644   45.6801 H   0  0  0  0  0  0  0  0  0  0  0  0
   59.1653   25.3985   46.9017 H   0  0  0  0  0  0  0  0  0  0  0  0
   56.6871   25.1282   47.0651 H   0  0  0  0  0  0  0  0  0  0  0  0
   57.0236   32.7646   43.2638 H   0  0  0  0  0  0  0  0  0  0  0  0
   58.2375   34.5528   44.4924 H   0  0  0  0  0  0  0  0  0  0  0  0
   60.8615   33.6770   49.0064 H   0  0  0  0  0  0  0  0  0  0  0  0
   61.4589   32.5918   50.2725 H   0  0  0  0  0  0  0  0  0  0  0  0
   63.1275   34.0680   48.6432 H   0  0  0  0  0  0  0  0  0  0  0  0
   63.6379   32.5273   49.3349 H   0  0  0  0  0  0  0  0  0  0  0  0
   63.0581   33.1812   46.5265 H   0  0  0  0  0  0  0  0  0  0  0  0
   63.7085   31.6630   47.1543 H   0  0  0  0  0  0  0  0  0  0  0  0
   60.8910   32.3935   46.4663 H   0  0  0  0  0  0  0  0  0  0  0  0
   61.6028   30.7747   46.6181 H   0  0  0  0  0  0  0  0  0  0  0  0
   57.7257   30.0345   46.5457 H   0  0  0  0  0  0  0  0  0  0  0  0
  1  2  2  0
  2  3  1  0
  3  4  2  3
  4  5  1  0
  5  6  1  0
  6  7  2  0
  7  8  1  0
  8  9  2  0
  9 10  1  0
  2 11  1  0
 11 12  2  0
 12 13  1  0
 13 14  2  0
 14 15  1  0
 14 16  1  0
 16 17  1  0
 17 18  2  0
 17 19  2  0
 17 20  1  0
 20 21  1  0
 21 22  1  0
 22 23  1  0
 23 24  1  0
 16 25  2  0
  9  4  1  0
 25 11  1  0
 24 20  1  0
  6 26  1  0
  7 27  1  0
  8 28  1  0
 12 29  1  0
 13 30  1  0
 21 31  1  0
 21 32  1  0
 22 33  1  0
 22 34  1  0
 23 35  1  0
 23 36  1  0
 24 37  1  0
 24 38  1  0
 25 39  1  0
M  CHG  2   5  -1  10  -1
M  END
>  <UniqueID>  (83) 
78

>  <SMILES>  (83) 
O=C(N=c1[n-]cccc1[O-])c1ccc(Br)c(S(=O)(=O)N2CCCC2)c1

>  <Energy>  (83) 
58.43132810464843

>  <Genealogy>  (83) 
O=C(N=c1[n-]cccc1[O-])c1ccc(Br)c(S(=O)(=O)N2CCCC2)c1 (protonated)
O=C(N=c1[n-]cccc1[O-])c1ccc(Br)c(S(=O)(=O)N2CCCC2)c1 (3D coordinates assigned)
O=C(N=c1[n-]cccc1[O-])c1ccc(Br)c(S(=O)(=O)N2CCCC2)c1 (nonaromatic ring conformer: 58.43132810464843 kcal/mol)

>  <smiles>  (83) 
O=C(N=c1[nH]cccc1O)c1ccc(Br)c(S(=O)(=O)N2CCCC2)c1

>  <score_type>  (83) 
oracle

>  <origin>  (83) 
adg

>  <m_score__min__energy>  (83) 
-14.529999999999999

>  <m_primary>  (83) 
energy

$$$$
83:0
     RDKit          3D

 62 65  0  0  0  0  0  0  0  0999 V2000
   58.5623   30.5154   45.5004 H   0  0  0  0  0  0  0  0  0  0  0  0
   58.1890   29.4980   45.3120 C   0  0  0  0  0  0  0  0  0  0  0  0
   57.5042   29.3102   44.4719 H   0  0  0  0  0  0  0  0  0  0  0  0
   58.5690   28.4860   46.1070 C   0  0  0  0  0  0  0  0  0  0  0  0
   58.1780   27.1480   45.9900 C   0  0  0  0  0  0  0  0  0  0  0  0
   57.4100   26.6020   45.0270 C   0  0  0  0  0  0  0  0  0  0  0  0
   57.3624   27.1107   44.0529 H   0  0  0  0  0  0  0  0  0  0  0  0
   56.6300   25.3640   45.2010 C   0  0  0  0  0  0  0  0  0  0  0  0
   57.0990   24.1520   44.8440 N   0  0  0  0  0  0  0  0  0  0  0  0
   56.0970   23.2780   45.0870 C   0  0  0  0  0  0  0  0  0  0  0  0
   56.2330   21.8120   44.8270 C   0  0  0  0  0  0  0  0  0  0  0  0
   56.2830   21.2729   45.7845 H   0  0  0  0  0  0  0  0  0  0  0  0
   55.3637   21.4593   44.2526 H   0  0  0  0  0  0  0  0  0  0  0  0
   57.1523   21.6252   44.2526 H   0  0  0  0  0  0  0  0  0  0  0  0
   54.9700   23.9280   45.5850 C   0  0  0  0  0  0  0  0  0  0  0  0
   53.6670   23.3240   45.9560 C   0  0  0  0  0  0  0  0  0  0  0  0
   52.7430   23.2490   45.1030 O   0  0  0  0  0  0  0  0  0  0  0  0
   53.4170   22.8010   47.3360 C   0  0  0  0  0  0  0  0  0  0  0  0
   53.7681   23.5356   48.0757 H   0  0  0  0  0  0  0  0  0  0  0  0
   52.3392   22.6289   47.4732 H   0  0  0  0  0  0  0  0  0  0  0  0
   53.9599   21.8542   47.4732 H   0  0  0  0  0  0  0  0  0  0  0  0
   55.3210   25.2630   45.6330 C   0  0  0  0  0  0  0  0  0  0  0  0
   54.4980   26.3230   45.9960 O   0  0  0  0  0  0  0  0  0  0  0  0
   58.7800   26.4730   47.0440 C   0  0  0  0  0  0  0  0  0  0  0  0
   58.6967   25.3995   47.2693 H   0  0  0  0  0  0  0  0  0  0  0  0
   59.5030   27.4100   47.7540 C   0  0  0  0  0  0  0  0  0  0  0  0
   60.3130   27.1110   48.9790 C   0  0  0  0  0  0  0  0  0  0  0  0
   59.7159   27.3314   49.8762 H   0  0  0  0  0  0  0  0  0  0  0  0
   60.5978   26.0485   48.9800 H   0  0  0  0  0  0  0  0  0  0  0  0
   61.2198   27.7336   48.9800 H   0  0  0  0  0  0  0  0  0  0  0  0
   59.3710   28.6320   47.1920 N   0  0  0  0  0  0  0  0  0  0  0  0
   59.9900   29.8410   47.6620 C   0  0  0  0  0  0  0  0  0  0  0  0
   61.0890   30.3830   46.9800 C   0  0  0  0  0  0  0  0  0  0  0  0
   61.4859   29.8738   46.0894 H   0  0  0  0  0  0  0  0  0  0  0  0
   61.6820   31.5660   47.4260 C   0  0  0  0  0  0  0  0  0  0  0  0
   62.5506   31.9779   46.8914 H   0  0  0  0  0  0  0  0  0  0  0  0
   61.1750   32.2330   48.5540 C   0  0  0  0  0  0  0  0  0  0  0  0
   61.8050   33.4830   49.0360 C   0  0  0  0  0  0  0  0  0  0  0  0
   61.2420   34.5850   48.7920 O   0  0  0  0  0  0  0  0  0  0  0  0
   63.0420   33.4660   49.7740 N   0  0  0  0  0  0  0  0  0  0  0  0
   64.1080   32.5190   49.4050 C   0  0  0  0  0  0  0  0  0  0  0  0
   63.9610   31.5785   49.9563 H   0  0  0  0  0  0  0  0  0  0  0  0
   64.0596   32.3401   48.3207 H   0  0  0  0  0  0  0  0  0  0  0  0
   65.4880   33.0900   49.7460 C   0  0  0  0  0  0  0  0  0  0  0  0
   66.2533   32.3353   49.5122 H   0  0  0  0  0  0  0  0  0  0  0  0
   65.6374   34.0023   49.1499 H   0  0  0  0  0  0  0  0  0  0  0  0
   65.5990   33.4690   51.2410 C   0  0  0  0  0  0  0  0  0  0  0  0
   65.7996   32.5399   51.7946 H   0  0  0  0  0  0  0  0  0  0  0  0
   66.7640   34.4430   51.4560 C   0  0  0  0  0  0  0  0  0  0  0  0
   66.9310   34.5826   52.5343 H   0  0  0  0  0  0  0  0  0  0  0  0
   67.6744   34.0334   50.9940 H   0  0  0  0  0  0  0  0  0  0  0  0
   66.5222   35.4115   50.9940 H   0  0  0  0  0  0  0  0  0  0  0  0
   64.2770   34.0380   51.8250 C   0  0  0  0  0  0  0  0  0  0  0  0
   63.7759   33.2448   52.3992 H   0  0  0  0  0  0  0  0  0  0  0  0
   64.5373   34.8976   52.4601 H   0  0  0  0  0  0  0  0  0  0  0  0
   63.3180   34.5380   50.7400 C   0  0  0  0  0  0  0  0  0  0  0  0
   62.3750   34.8575   51.2076 H   0  0  0  0  0  0  0  0  0  0  0  0
   63.7818   35.3852   50.2135 H   0  0  0  0  0  0  0  0  0  0  0  0
   60.0850   31.6800   49.2460 C   0  0  0  0  0  0  0  0  0  0  0  0
   59.6953   32.1813   50.1443 H   0  0  0  0  0  0  0  0  0  0  0  0
   59.4930   30.4950   48.7980 C   0  0  0  0  0  0  0  0  0  0  0  0
   58.6331   30.0740   49.3396 H   0  0  0  0  0  0  0  0  0  0  0  0
  1  2  1  0
  2  3  1  0
  2  4  2  0
  4  5  1  0
  5  6  2  0
  6  7  1  0
  6  8  1  0
  8  9  1  0
  9 10  1  0
 10 11  1  0
 11 12  1  0
 11 13  1  0
 11 14  1  0
 10 15  2  0
 15 16  1  0
 16 17  2  0
 16 18  1  0
 18 19  1  0
 18 20  1  0
 18 21  1  0
 15 22  1  0
 22 23  1  0
  5 24  1  0
 24 25  1  0
 24 26  2  0
 26 27  1  0
 27 28  1  0
 27 29  1  0
 27 30  1  0
 26 31  1  0
 31 32  1  0
 32 33  2  0
 33 34  1  0
 33 35  1  0
 35 36  1  0
 35 37  2  0
 37 38  1  0
 38 39  2  0
 38 40  1  0
 40 41  1  0
 41 42  1  0
 41 43  1  0
 41 44  1  0
 44 45  1  0
 44 46  1  0
 44 47  1  0
 47 48  1  0
 47 49  1  0
 49 50  1  0
 49 51  1  0
 49 52  1  0
 47 53  1  0
 53 54  1  0
 53 55  1  0
 53 56  1  0
 56 57  1  0
 56 58  1  0
 37 59  1  0
 59 60  1  0
 59 61  2  0
 61 62  1  0
 31  4  1  0
 61 32  1  0
 22  8  2  0
 56 40  1  0
M  CHG  2   9  -1  23  -1
M  END
>  <UniqueID>  (84) 
79

>  <SMILES>  (84) 
C=c1/c(=C/c2[n-]c(C)c(C(C)=O)c2[O-])cc(C)n1-c1ccc(C(=O)N2CCC(C)CC2)cc1

>  <Energy>  (84) 
136.10027744615888

>  <Genealogy>  (84) 
C=c1c(=Cc2[n-]c(C)c(C(C)=O)c2[O-])cc(C)n1-c1ccc(C(=O)N2CCC(C)CC2)cc1 (protonated)
C=c1/c(=C/c2[n-]c(C)c(C(C)=O)c2[O-])cc(C)n1-c1ccc(C(=O)N2CCC(C)CC2)cc1 (cis-trans isomerization)
C=c1/c(=C/c2[n-]c(C)c(C(C)=O)c2[O-])cc(C)n1-c1ccc(C(=O)N2CCC(C)CC2)cc1 (3D coordinates assigned)
C=c1/c(=C/c2[n-]c(C)c(C(C)=O)c2[O-])cc(C)n1-c1ccc(C(=O)N2CCC(C)CC2)cc1 (nonaromatic ring conformer: 136.10027744615888 kcal/mol)

>  <smiles>  (84) 
C=c1c(=Cc2[nH]c(C)c(C(C)=O)c2O)cc(C)n1-c1ccc(C(=O)N2CCC(C)CC2)cc1

>  <score_type>  (84) 
oracle

>  <origin>  (84) 
adg

>  <m_score__min__energy>  (84) 
-14.369999999999999

>  <m_primary>  (84) 
energy

$$$$
84:0
     RDKit          3D

 54 57  0  0  0  0  0  0  0  0999 V2000
   56.4470   29.4640   44.3330 C   0  0  0  0  0  0  0  0  0  0  0  0
   57.6410   29.0110   44.7430 C   0  0  0  0  0  0  0  0  0  0  0  0
   58.0980   27.6830   44.7190 C   0  0  0  0  0  0  0  0  0  0  0  0
   57.4380   26.5250   44.5190 C   0  0  0  0  0  0  0  0  0  0  0  0
   56.9450   25.6290   45.5780 C   0  0  0  0  0  0  0  0  0  0  0  0
   57.5600   24.5000   45.9780 N   0  0  0  0  0  0  0  0  0  0  0  0
   56.6870   23.9640   46.8570 C   0  0  0  0  0  0  0  0  0  0  0  0
   56.9180   22.8910   47.4710 O   0  0  0  0  0  0  0  0  0  0  0  0
   55.5440   24.6660   47.0200 N   0  0  0  0  0  0  0  0  0  0  0  0
   55.7190   25.7070   46.1920 C   0  0  0  0  0  0  0  0  0  0  0  0
   54.7760   26.7080   45.9990 O   0  0  0  0  0  0  0  0  0  0  0  0
   59.4570   27.7360   44.9840 C   0  0  0  0  0  0  0  0  0  0  0  0
   59.7640   29.0560   45.2380 C   0  0  0  0  0  0  0  0  0  0  0  0
   61.1270   29.5560   45.6110 C   0  0  0  0  0  0  0  0  0  0  0  0
   58.6670   29.8300   45.0890 N   0  0  0  0  0  0  0  0  0  0  0  0
   58.6130   31.2590   45.2590 C   0  0  0  0  0  0  0  0  0  0  0  0
   59.1640   31.8440   46.4080 C   0  0  0  0  0  0  0  0  0  0  0  0
   59.1000   33.2330   46.6030 C   0  0  0  0  0  0  0  0  0  0  0  0
   59.6780   33.8350   47.8250 C   0  0  0  0  0  0  0  0  0  0  0  0
   59.3710   35.0200   48.1240 O   0  0  0  0  0  0  0  0  0  0  0  0
   60.6050   33.1080   48.6570 N   0  0  0  0  0  0  0  0  0  0  0  0
   60.7350   33.4400   50.0830 C   0  0  0  0  0  0  0  0  0  0  0  0
   62.1180   34.0480   50.3770 C   0  0  0  0  0  0  0  0  0  0  0  0
   63.2340   33.5010   49.4470 C   0  0  0  0  0  0  0  0  0  0  0  0
   64.6070   33.5010   50.1420 C   0  0  0  0  0  0  0  0  0  0  0  0
   65.5450   32.7420   49.4240 O   0  0  0  0  0  0  0  0  0  0  0  0
   62.8750   32.1120   48.8860 C   0  0  0  0  0  0  0  0  0  0  0  0
   61.5890   32.1970   48.0480 C   0  0  0  0  0  0  0  0  0  0  0  0
   58.5090   34.0370   45.6150 C   0  0  0  0  0  0  0  0  0  0  0  0
   57.9570   33.4560   44.4700 C   0  0  0  0  0  0  0  0  0  0  0  0
   58.0000   32.0710   44.2930 C   0  0  0  0  0  0  0  0  0  0  0  0
   57.4270   31.5200   43.1940 F   0  0  0  0  0  0  0  0  0  0  0  0
   56.2108   30.5359   44.4058 H   0  0  0  0  0  0  0  0  0  0  0  0
   55.7039   28.7636   43.9239 H   0  0  0  0  0  0  0  0  0  0  0  0
   57.2522   26.2242   43.4774 H   0  0  0  0  0  0  0  0  0  0  0  0
   60.1570   26.8875   44.9905 H   0  0  0  0  0  0  0  0  0  0  0  0
   61.2181   29.5894   46.7067 H   0  0  0  0  0  0  0  0  0  0  0  0
   61.8909   28.8795   45.2000 H   0  0  0  0  0  0  0  0  0  0  0  0
   61.2722   30.5659   45.2000 H   0  0  0  0  0  0  0  0  0  0  0  0
   59.6506   31.2093   47.1632 H   0  0  0  0  0  0  0  0  0  0  0  0
   59.9557   34.1664   50.3570 H   0  0  0  0  0  0  0  0  0  0  0  0
   60.6219   32.5180   50.6721 H   0  0  0  0  0  0  0  0  0  0  0  0
   62.0561   35.1384   50.2457 H   0  0  0  0  0  0  0  0  0  0  0  0
   62.3853   33.7717   51.4076 H   0  0  0  0  0  0  0  0  0  0  0  0
   63.3086   34.1866   48.5901 H   0  0  0  0  0  0  0  0  0  0  0  0
   64.9689   34.5369   50.2194 H   0  0  0  0  0  0  0  0  0  0  0  0
   64.4899   33.0526   51.1396 H   0  0  0  0  0  0  0  0  0  0  0  0
   65.3500   32.8810   48.4620 H   0  0  0  0  0  0  0  0  0  0  0  0
   63.6989   31.7514   48.2526 H   0  0  0  0  0  0  0  0  0  0  0  0
   62.7141   31.4163   49.7228 H   0  0  0  0  0  0  0  0  0  0  0  0
   61.8416   32.5647   47.0425 H   0  0  0  0  0  0  0  0  0  0  0  0
   61.1435   31.1925   47.9981 H   0  0  0  0  0  0  0  0  0  0  0  0
   58.4804   35.1292   45.7428 H   0  0  0  0  0  0  0  0  0  0  0  0
   57.4869   34.0918   43.7053 H   0  0  0  0  0  0  0  0  0  0  0  0
  1  2  2  0
  2  3  1  0
  3  4  2  3
  4  5  1  0
  5  6  1  0
  6  7  1  0
  7  8  2  0
  7  9  1  0
  9 10  1  0
 10 11  1  0
  3 12  1  0
 12 13  2  0
 13 14  1  0
 13 15  1  0
 15 16  1  0
 16 17  2  0
 17 18  1  0
 18 19  1  0
 19 20  2  0
 19 21  1  0
 21 22  1  0
 22 23  1  0
 23 24  1  0
 24 25  1  0
 25 26  1  0
 24 27  1  0
 27 28  1  0
 18 29  2  0
 29 30  1  0
 30 31  2  0
 31 32  1  0
 15  2  1  0
 31 16  1  0
 10  5  2  0
 28 21  1  0
  1 33  1  0
  1 34  1  0
  4 35  1  0
 12 36  1  0
 14 37  1  0
 14 38  1  0
 14 39  1  0
 17 40  1  0
 22 41  1  0
 22 42  1  0
 23 43  1  0
 23 44  1  0
 24 45  1  0
 25 46  1  0
 25 47  1  0
 26 48  1  0
 27 49  1  0
 27 50  1  0
 28 51  1  0
 28 52  1  0
 29 53  1  0
 30 54  1  0
M  CHG  3   6  -1   9  -1  11  -1
M  END
>  <UniqueID>  (85) 
80

>  <SMILES>  (85) 
C=c1c(=Cc2[n-]c(=O)[n-]c2[O-])cc(C)n1-c1cc(C(=O)N2CCC(CO)CC2)ccc1F

>  <Energy>  (85) 
138.6155452253384

>  <Genealogy>  (85) 
C=c1c(=Cc2[n-]c(=O)[n-]c2[O-])cc(C)n1-c1cc(C(=O)N2CCC(CO)CC2)ccc1F (protonated)
C=c1c(=Cc2[n-]c(=O)[n-]c2[O-])cc(C)n1-c1cc(C(=O)N2CCC(CO)CC2)ccc1F (3D coordinates assigned)
C=c1c(=Cc2[n-]c(=O)[n-]c2[O-])cc(C)n1-c1cc(C(=O)N2CCC(CO)CC2)ccc1F (nonaromatic ring conformer: 138.6155452253384 kcal/mol)

>  <smiles>  (85) 
C=c1c(=Cc2[nH]c(=O)[nH]c2O)cc(C)n1-c1cc(C(=O)N2CCC(CO)CC2)ccc1F

>  <score_type>  (85) 
oracle

>  <origin>  (85) 
adg

>  <m_score__min__energy>  (85) 
-17.18

>  <m_primary>  (85) 
energy

$$$$
85:0
     RDKit          3D

 30 31  0  0  0  0  0  0  0  0999 V2000
   55.4880   29.8180   43.2500 O   0  0  0  0  0  0  0  0  0  0  0  0
   56.2540   29.5660   44.2190 C   0  0  0  0  0  0  0  0  0  0  0  0
   57.5840   30.2360   44.3020 C   0  0  0  0  0  0  0  0  0  0  0  0
   57.5360   31.7850   43.3480 S   0  0  0  0  0  0  0  0  0  0  0  0
   58.0730   32.7940   44.7300 C   0  0  0  0  0  0  0  0  0  0  0  0
   58.8320   33.9490   44.5040 C   0  0  0  0  0  0  0  0  0  0  0  0
   59.2520   34.7330   45.5830 C   0  0  0  0  0  0  0  0  0  0  0  0
   58.9170   34.3640   46.8890 C   0  0  0  0  0  0  0  0  0  0  0  0
   58.1620   33.2080   47.1180 C   0  0  0  0  0  0  0  0  0  0  0  0
   57.7410   32.4230   46.0400 C   0  0  0  0  0  0  0  0  0  0  0  0
   55.8610   28.6500   45.2490 N   0  0  0  0  0  0  0  0  0  0  0  0
   56.5820   27.4850   45.6770 C   0  0  0  0  0  0  0  0  0  0  0  0
   57.9860   27.4810   45.7890 C   0  0  0  0  0  0  0  0  0  0  0  0
   58.6560   26.3320   46.2340 C   0  0  0  0  0  0  0  0  0  0  0  0
   60.0450   26.3180   46.3420 O   0  0  0  0  0  0  0  0  0  0  0  0
   57.9280   25.1910   46.5800 C   0  0  0  0  0  0  0  0  0  0  0  0
   56.5340   25.1970   46.4950 C   0  0  0  0  0  0  0  0  0  0  0  0
   55.8600   26.3410   46.0520 C   0  0  0  0  0  0  0  0  0  0  0  0
   54.4720   26.3340   45.9800 O   0  0  0  0  0  0  0  0  0  0  0  0
   57.8185   30.4588   45.3534 H   0  0  0  0  0  0  0  0  0  0  0  0
   58.3580   29.5722   43.8892 H   0  0  0  0  0  0  0  0  0  0  0  0
   59.0980   34.2397   43.4770 H   0  0  0  0  0  0  0  0  0  0  0  0
   59.8466   35.6410   45.4039 H   0  0  0  0  0  0  0  0  0  0  0  0
   59.2468   34.9823   47.7369 H   0  0  0  0  0  0  0  0  0  0  0  0
   57.8998   32.9169   48.1459 H   0  0  0  0  0  0  0  0  0  0  0  0
   57.1489   31.5137   46.2204 H   0  0  0  0  0  0  0  0  0  0  0  0
   58.5592   28.3824   45.5265 H   0  0  0  0  0  0  0  0  0  0  0  0
   60.5590   27.1220   46.6820 H   0  0  0  0  0  0  0  0  0  0  0  0
   58.4535   24.2864   46.9199 H   0  0  0  0  0  0  0  0  0  0  0  0
   55.9638   24.2996   46.7771 H   0  0  0  0  0  0  0  0  0  0  0  0
  1  2  2  0
  2  3  1  0
  3  4  1  0
  4  5  1  0
  5  6  2  0
  6  7  1  0
  7  8  2  0
  8  9  1  0
  9 10  2  0
  2 11  1  0
 11 12  1  0
 12 13  2  0
 13 14  1  0
 14 15  1  0
 14 16  2  0
 16 17  1  0
 17 18  2  0
 18 19  1  0
 10  5  1  0
 18 12  1  0
  3 20  1  0
  3 21  1  0
  6 22  1  0
  7 23  1  0
  8 24  1  0
  9 25  1  0
 10 26  1  0
 13 27  1  0
 15 28  1  0
 16 29  1  0
 17 30  1  0
M  CHG  2  11  -1  19  -1
M  END
>  <UniqueID>  (86) 
81

>  <SMILES>  (86) 
O=C(CSc1ccccc1)[N-]c1cc(O)ccc1[O-]

>  <Energy>  (86) 
28.713275200158055

>  <Genealogy>  (86) 
O=C(CSc1ccccc1)[N-]c1cc(O)ccc1[O-] (protonated)
O=C(CSc1ccccc1)[N-]c1cc(O)ccc1[O-] (3D coordinates assigned)
O=C(CSc1ccccc1)[N-]c1cc(O)ccc1[O-] (optimized conformer: 28.713275200158055 kcal/mol)

>  <smiles>  (86) 
O=C(CSc1ccccc1)Nc1cc(O)ccc1O

>  <score_type>  (86) 
oracle

>  <origin>  (86) 
adg

>  <m_score__min__energy>  (86) 
-13.16

>  <m_primary>  (86) 
energy

$$$$
