0:0
     RDKit          3D

 52 56  0  0  0  0  0  0  0  0999 V2000
   58.7370   34.1350   44.5610 C   0  0  0  0  0  0  0  0  0  0  0  0
   59.2750   34.8410   45.6400 C   0  0  0  0  0  0  0  0  0  0  0  0
   59.2270   34.2980   46.9270 C   0  0  0  0  0  0  0  0  0  0  0  0
   58.6350   33.0430   47.1440 C   0  0  0  0  0  0  0  0  0  0  0  0
   58.6110   32.4380   48.5230 C   0  0  0  0  0  0  0  0  0  0  0  0
   59.8420   31.6790   48.7930 N   0  0  0  0  0  0  0  0  0  0  0  0
   59.8000   30.2290   48.9440 C   0  0  0  0  0  0  0  0  0  0  0  0
   59.6540   29.6140   47.5960 C   0  0  0  0  0  0  0  0  0  0  0  0
   58.5380   28.8050   47.3200 C   0  0  0  0  0  0  0  0  0  0  0  0
   58.3730   28.2120   46.0660 C   0  0  0  0  0  0  0  0  0  0  0  0
   57.2360   27.4130   45.8540 O   0  0  0  0  0  0  0  0  0  0  0  0
   57.2010   26.2210   45.0690 C   0  0  0  0  0  0  0  0  0  0  0  0
   57.0320   25.0110   45.9410 C   0  0  0  0  0  0  0  0  0  0  0  0
   57.9870   23.9850   45.9450 C   0  0  0  0  0  0  0  0  0  0  0  0
   57.8070   22.9040   46.7500 N   0  0  0  0  0  0  0  0  0  0  0  0
   56.7180   22.8050   47.5580 C   0  0  0  0  0  0  0  0  0  0  0  0
   55.7700   23.8300   47.5640 C   0  0  0  0  0  0  0  0  0  0  0  0
   55.9480   24.9090   46.7580 N   0  0  0  0  0  0  0  0  0  0  0  0
   59.3400   28.4350   45.0730 C   0  0  0  0  0  0  0  0  0  0  0  0
   60.4500   29.2380   45.3410 C   0  0  0  0  0  0  0  0  0  0  0  0
   60.6150   29.8470   46.5910 C   0  0  0  0  0  0  0  0  0  0  0  0
   61.7770   30.6230   46.7700 O   0  0  0  0  0  0  0  0  0  0  0  0
   62.0390   31.7160   47.6190 C   0  0  0  0  0  0  0  0  0  0  0  0
   63.3080   32.3010   47.4940 C   0  0  0  0  0  0  0  0  0  0  0  0
   63.6570   33.4320   48.2340 C   0  0  0  0  0  0  0  0  0  0  0  0
   62.7410   33.9970   49.1150 C   0  0  0  0  0  0  0  0  0  0  0  0
   61.4790   33.4250   49.2690 C   0  0  0  0  0  0  0  0  0  0  0  0
   61.1150   32.2830   48.5360 C   0  0  0  0  0  0  0  0  0  0  0  0
   58.1000   32.3360   46.0540 C   0  0  0  0  0  0  0  0  0  0  0  0
   58.1500   32.8830   44.7680 C   0  0  0  0  0  0  0  0  0  0  0  0
   58.7752   34.5641   43.5489 H   0  0  0  0  0  0  0  0  0  0  0  0
   59.7371   35.8257   45.4763 H   0  0  0  0  0  0  0  0  0  0  0  0
   59.6546   34.8558   47.7732 H   0  0  0  0  0  0  0  0  0  0  0  0
   58.5157   33.2432   49.2664 H   0  0  0  0  0  0  0  0  0  0  0  0
   57.7561   31.7486   48.5858 H   0  0  0  0  0  0  0  0  0  0  0  0
   60.7315   29.8782   49.4122 H   0  0  0  0  0  0  0  0  0  0  0  0
   58.9504   29.9425   49.5813 H   0  0  0  0  0  0  0  0  0  0  0  0
   57.7838   28.6365   48.1028 H   0  0  0  0  0  0  0  0  0  0  0  0
   56.3580   26.2781   44.3647 H   0  0  0  0  0  0  0  0  0  0  0  0
   58.1518   26.1312   44.5232 H   0  0  0  0  0  0  0  0  0  0  0  0
   58.8762   24.0539   45.3012 H   0  0  0  0  0  0  0  0  0  0  0  0
   58.5170   22.1380   46.7480 H   0  0  0  0  0  0  0  0  0  0  0  0
   56.5848   21.9236   48.2024 H   0  0  0  0  0  0  0  0  0  0  0  0
   54.8864   23.7644   48.2159 H   0  0  0  0  0  0  0  0  0  0  0  0
   59.2226   27.9755   44.0805 H   0  0  0  0  0  0  0  0  0  0  0  0
   61.2067   29.3947   44.5581 H   0  0  0  0  0  0  0  0  0  0  0  0
   64.0404   31.8610   46.8011 H   0  0  0  0  0  0  0  0  0  0  0  0
   64.6567   33.8765   48.1203 H   0  0  0  0  0  0  0  0  0  0  0  0
   63.0122   34.8947   49.6900 H   0  0  0  0  0  0  0  0  0  0  0  0
   60.7607   33.8725   49.9717 H   0  0  0  0  0  0  0  0  0  0  0  0
   57.6405   31.3493   46.2127 H   0  0  0  0  0  0  0  0  0  0  0  0
   57.7269   32.3275   43.9181 H   0  0  0  0  0  0  0  0  0  0  0  0
  1  2  2  0
  2  3  1  0
  3  4  2  0
  4  5  1  0
  5  6  1  0
  6  7  1  0
  7  8  1  0
  8  9  2  0
  9 10  1  0
 10 11  1  0
 11 12  1  0
 12 13  1  0
 13 14  2  0
 14 15  1  0
 15 16  2  0
 16 17  1  0
 17 18  2  0
 10 19  2  0
 19 20  1  0
 20 21  2  0
 21 22  1  0
 22 23  1  0
 23 24  2  0
 24 25  1  0
 25 26  2  0
 26 27  1  0
 27 28  2  0
  4 29  1  0
 29 30  2  0
 30  1  1  0
 28  6  1  0
 21  8  1  0
 28 23  1  0
 18 13  1  0
  1 31  1  0
  2 32  1  0
  3 33  1  0
  5 34  1  0
  5 35  1  0
  7 36  1  0
  7 37  1  0
  9 38  1  0
 12 39  1  0
 12 40  1  0
 14 41  1  0
 15 42  1  0
 16 43  1  0
 17 44  1  0
 19 45  1  0
 20 46  1  0
 24 47  1  0
 25 48  1  0
 26 49  1  0
 27 50  1  0
 29 51  1  0
 30 52  1  0
M  CHG  1  15   1
M  END
>  <UniqueID>  (1) 
1

>  <SMILES>  (1) 
c1ccc(CN2Cc3cc(OCc4c[nH+]ccn4)ccc3Oc3ccccc32)cc1

>  <Energy>  (1) 
73.7498923744731

>  <Genealogy>  (1) 
c1ccc(CN2Cc3cc(OCc4c[nH+]ccn4)ccc3Oc3ccccc32)cc1 (protonated)
c1ccc(CN2Cc3cc(OCc4c[nH+]ccn4)ccc3Oc3ccccc32)cc1 (3D coordinates assigned)
c1ccc(CN2Cc3cc(OCc4c[nH+]ccn4)ccc3Oc3ccccc32)cc1 (nonaromatic ring conformer: 73.7498923744731 kcal/mol)

>  <smiles>  (1) 
c1ccc(CN2Cc3cc(OCc4cnccn4)ccc3Oc3ccccc32)cc1

>  <score_type>  (1) 
oracle

>  <origin>  (1) 
adg

>  <m_score__min__energy>  (1) 
-7.9000000000000004

>  <m_primary>  (1) 
energy

$$$$
1:0
     RDKit          3D

 43 45  0  0  1  0  0  0  0  0999 V2000
   59.8690   30.9250   48.8370 C   0  0  0  0  0  0  0  0  0  0  0  0
   59.8530   30.1720   47.5840 N   0  0  0  0  0  0  0  0  0  0  0  0
   58.8760   29.2850   47.3090 C   0  0  0  0  0  0  0  0  0  0  0  0
   59.1810   28.7680   46.0510 C   0  0  0  0  0  0  0  0  0  0  0  0
   58.3410   27.7440   45.3740 C   0  0  0  0  0  0  0  0  0  0  0  0
   57.8900   28.3000   44.0180 C   0  0  0  0  0  0  0  0  0  0  0  0
   57.7210   33.4130   46.3110 N   0  0  0  0  0  0  0  0  0  0  0  0
   57.7380   32.6920   45.2660 C   0  0  0  0  0  0  0  0  0  0  0  0
   57.7290   31.0520   43.1080 N   0  0  0  0  0  0  0  0  0  0  0  0
   58.1420   32.3330   42.9810 C   0  0  0  0  0  0  0  0  0  0  0  0
   58.1510   33.1750   44.0670 C   0  0  0  0  0  0  0  0  0  0  0  0
   57.3170   30.5690   44.3040 C   0  0  0  0  0  0  0  0  0  0  0  0
   56.9400   29.3570   44.3630 N   0  0  0  0  0  0  0  0  0  0  0  0
   58.5440   34.5810   46.5260 C   0  0  0  0  0  0  0  0  0  0  0  0
   59.8830   34.2430   47.1050 C   0  0  0  0  0  0  0  0  0  0  0  0
   60.1550   34.3080   48.4510 C   0  0  0  0  0  0  0  0  0  0  0  0
   61.3930   33.9950   48.9870 C   0  0  0  0  0  0  0  0  0  0  0  0
   62.4170   33.5980   48.1540 C   0  0  0  0  0  0  0  0  0  0  0  0
   62.1820   33.5200   46.7960 C   0  0  0  0  0  0  0  0  0  0  0  0
   60.9420   33.8370   46.2840 C   0  0  0  0  0  0  0  0  0  0  0  0
   57.3330   31.4070   45.3570 N   0  0  0  0  0  0  0  0  0  0  0  0
   60.3450   29.3710   45.6100 C   0  0  0  0  0  0  0  0  0  0  0  0
   60.7200   30.2280   46.5880 N   0  0  0  0  0  0  0  0  0  0  0  0
   59.8541   30.2252   49.6856 H   0  0  0  0  0  0  0  0  0  0  0  0
   60.7804   31.5391   48.8841 H   0  0  0  0  0  0  0  0  0  0  0  0
   58.9845   31.5773   48.8841 H   0  0  0  0  0  0  0  0  0  0  0  0
   58.0172   29.0237   47.9447 H   0  0  0  0  0  0  0  0  0  0  0  0
   58.9271   26.8257   45.2216 H   0  0  0  0  0  0  0  0  0  0  0  0
   57.4636   27.5079   45.9940 H   0  0  0  0  0  0  0  0  0  0  0  0
   58.7449   28.7103   43.4605 H   0  0  0  0  0  0  0  0  0  0  0  0
   57.4460   27.5281   43.3722 H   0  0  0  0  0  0  0  0  0  0  0  0
   57.7410   30.4490   42.2400 H   0  0  0  0  0  0  0  0  0  0  0  0
   58.4736   32.7044   42.0001 H   0  0  0  0  0  0  0  0  0  0  0  0
   58.4858   34.2180   43.9666 H   0  0  0  0  0  0  0  0  0  0  0  0
   58.6950   35.0880   45.5616 H   0  0  0  0  0  0  0  0  0  0  0  0
   58.0228   35.2278   47.2471 H   0  0  0  0  0  0  0  0  0  0  0  0
   59.3522   34.6232   49.1338 H   0  0  0  0  0  0  0  0  0  0  0  0
   61.5584   34.0629   50.0724 H   0  0  0  0  0  0  0  0  0  0  0  0
   63.4060   33.3472   48.5650 H   0  0  0  0  0  0  0  0  0  0  0  0
   62.9887   33.2031   46.1186 H   0  0  0  0  0  0  0  0  0  0  0  0
   60.7797   33.7690   45.1982 H   0  0  0  0  0  0  0  0  0  0  0  0
   57.0200   31.0510   46.2770 H   0  0  0  0  0  0  0  0  0  0  0  0
   60.8620   29.1903   44.6561 H   0  0  0  0  0  0  0  0  0  0  0  0
  1  2  1  0
  2  3  1  0
  3  4  2  0
  4  5  1  0
  5  6  1  0
  6  7  1  0
  7  8  2  0
  8  9  1  0
  9 10  1  0
 10 11  2  0
 11 12  1  0
 12 13  2  0
 13 14  1  0
 14 15  1  0
 15 16  2  0
 16 17  1  0
 17 18  2  0
 18 19  1  0
 19 20  2  0
 12 21  1  0
  4 22  1  0
 22 23  2  0
 23  2  1  0
 21  8  1  0
 20 15  1  0
  1 24  1  0
  1 25  1  0
  1 26  1  0
  3 27  1  0
  5 28  1  0
  5 29  1  0
  6 30  1  0
  6 31  1  0
  9 32  1  0
 10 33  1  0
 11 34  1  0
 14 35  1  0
 14 36  1  0
 16 37  1  0
 17 38  1  0
 18 39  1  0
 19 40  1  0
 20 41  1  0
 21 42  1  0
 22 43  1  0
M  END
>  <smiles>  (2) 
Cn1cc(CCN=c2[nH]ccc(=NCc3ccccc3)[nH]2)cn1

>  <score_type>  (2) 
oracle

>  <origin>  (2) 
adg

>  <m_score__min__energy>  (2) 
-8.2599999999999998

>  <m_primary>  (2) 
energy

$$$$
2:0
     RDKit          3D

 26 28  0  0  0  0  0  0  0  0999 V2000
   59.5870   35.3360   46.5920 C   0  0  0  0  0  0  0  0  0  0  0  0
   59.2700   34.3460   47.5270 C   0  0  0  0  0  0  0  0  0  0  0  0
   58.6390   33.1680   47.1160 C   0  0  0  0  0  0  0  0  0  0  0  0
   58.3190   32.9690   45.7610 C   0  0  0  0  0  0  0  0  0  0  0  0
   57.6520   31.7240   45.3220 C   0  0  0  0  0  0  0  0  0  0  0  0
   56.3890   31.6720   44.8550 N   0  0  0  0  0  0  0  0  0  0  0  0
   56.1420   30.4070   44.5650 N   0  0  0  0  0  0  0  0  0  0  0  0
   57.2590   29.7170   44.8620 C   0  0  0  0  0  0  0  0  0  0  0  0
   57.3980   28.2560   44.6820 C   0  0  0  0  0  0  0  0  0  0  0  0
   57.7750   27.7230   43.4390 C   0  0  0  0  0  0  0  0  0  0  0  0
   57.9010   26.3390   43.2910 C   0  0  0  0  0  0  0  0  0  0  0  0
   57.6570   25.5150   44.3440 N   0  0  0  0  0  0  0  0  0  0  0  0
   57.2910   26.0010   45.5590 C   0  0  0  0  0  0  0  0  0  0  0  0
   57.1540   27.3770   45.7510 C   0  0  0  0  0  0  0  0  0  0  0  0
   58.2380   30.5100   45.3430 N   0  0  0  0  0  0  0  0  0  0  0  0
   58.6420   33.9710   44.8280 C   0  0  0  0  0  0  0  0  0  0  0  0
   59.2730   35.1470   45.2440 C   0  0  0  0  0  0  0  0  0  0  0  0
   60.0829   36.2624   46.9174 H   0  0  0  0  0  0  0  0  0  0  0  0
   59.5176   34.4943   48.5885 H   0  0  0  0  0  0  0  0  0  0  0  0
   58.3916   32.3929   47.8562 H   0  0  0  0  0  0  0  0  0  0  0  0
   57.9700   28.3907   42.5868 H   0  0  0  0  0  0  0  0  0  0  0  0
   58.1983   25.9157   42.3202 H   0  0  0  0  0  0  0  0  0  0  0  0
   57.1023   25.3089   46.3929 H   0  0  0  0  0  0  0  0  0  0  0  0
   56.8566   27.7711   46.7340 H   0  0  0  0  0  0  0  0  0  0  0  0
   58.3967   33.8284   43.7652 H   0  0  0  0  0  0  0  0  0  0  0  0
   59.5229   35.9254   44.5081 H   0  0  0  0  0  0  0  0  0  0  0  0
  1  2  2  0
  2  3  1  0
  3  4  2  0
  4  5  1  0
  5  6  2  0
  6  7  1  0
  7  8  1  0
  8  9  1  0
  9 10  2  0
 10 11  1  0
 11 12  2  0
 12 13  1  0
 13 14  2  0
  8 15  2  0
  4 16  1  0
 16 17  2  0
 17  1  1  0
 15  5  1  0
 14  9  1  0
  1 18  1  0
  2 19  1  0
  3 20  1  0
 10 21  1  0
 11 22  1  0
 13 23  1  0
 14 24  1  0
 16 25  1  0
 17 26  1  0
M  CHG  1   7  -1
M  END
>  <UniqueID>  (3) 
2

>  <SMILES>  (3) 
c1ccc(-c2n[n-]c(-c3ccncc3)n2)cc1

>  <Energy>  (3) 
62.61107682160953

>  <Genealogy>  (3) 
c1ccc(-c2n[n-]c(-c3ccncc3)n2)cc1 (protonated)
c1ccc(-c2n[n-]c(-c3ccncc3)n2)cc1 (3D coordinates assigned)
c1ccc(-c2n[n-]c(-c3ccncc3)n2)cc1 (optimized conformer: 62.61107682160953 kcal/mol)

>  <smiles>  (3) 
c1ccc(-c2n[nH]c(-c3ccncc3)n2)cc1

>  <score_type>  (3) 
oracle

>  <origin>  (3) 
adg

>  <m_score__min__energy>  (3) 
-8.1300000000000008

>  <m_primary>  (3) 
energy

$$$$
3:0
     RDKit          3D

 39 42  0  0  0  0  0  0  0  0999 V2000
   58.2441   35.5104   44.6920 H   0  0  0  0  0  0  0  0  0  0  0  0
   58.2260   34.4410   44.9490 C   0  0  0  0  0  0  0  0  0  0  0  0
   58.1310   34.0450   46.2870 C   0  0  0  0  0  0  0  0  0  0  0  0
   58.0728   34.8032   47.0818 H   0  0  0  0  0  0  0  0  0  0  0  0
   58.1100   32.6860   46.6150 C   0  0  0  0  0  0  0  0  0  0  0  0
   58.0330   32.3769   47.6679 H   0  0  0  0  0  0  0  0  0  0  0  0
   58.1870   31.7150   45.6040 C   0  0  0  0  0  0  0  0  0  0  0  0
   58.1630   30.3160   45.9390 N   0  0  0  0  0  0  0  0  0  0  0  0
   59.2200   29.7410   46.6220 C   0  0  0  0  0  0  0  0  0  0  0  0
   60.6780   30.7010   47.0760 S   0  0  0  0  0  0  0  0  0  0  0  0
   60.1800   30.8510   48.8190 C   0  0  0  0  0  0  0  0  0  0  0  0
   61.0312   30.5946   49.4669 H   0  0  0  0  0  0  0  0  0  0  0  0
   59.8629   31.8845   49.0221 H   0  0  0  0  0  0  0  0  0  0  0  0
   59.3448   30.1646   49.0221 H   0  0  0  0  0  0  0  0  0  0  0  0
   59.1900   28.4150   46.9500 N   0  0  0  0  0  0  0  0  0  0  0  0
   59.9860   27.9750   47.4630 H   0  0  0  0  0  0  0  0  0  0  0  0
   58.1200   27.6720   46.5930 C   0  0  0  0  0  0  0  0  0  0  0  0
   57.8650   26.0360   46.8720 S   0  0  0  0  0  0  0  0  0  0  0  0
   56.3610   26.0950   46.0930 C   0  0  0  0  0  0  0  0  0  0  0  0
   55.6080   25.0480   45.9280 N   0  0  0  0  0  0  0  0  0  0  0  0
   55.9530   23.8480   45.2150 C   0  0  0  0  0  0  0  0  0  0  0  0
   55.8740   23.7640   43.8100 C   0  0  0  0  0  0  0  0  0  0  0  0
   55.5640   24.6425   43.2250 H   0  0  0  0  0  0  0  0  0  0  0  0
   56.1880   22.5690   43.1580 C   0  0  0  0  0  0  0  0  0  0  0  0
   56.1381   22.5133   42.0605 H   0  0  0  0  0  0  0  0  0  0  0  0
   56.5650   21.4450   43.8960 C   0  0  0  0  0  0  0  0  0  0  0  0
   56.8210   20.5083   43.3792 H   0  0  0  0  0  0  0  0  0  0  0  0
   56.6170   21.5100   45.2900 C   0  0  0  0  0  0  0  0  0  0  0  0
   56.9051   20.6216   45.8712 H   0  0  0  0  0  0  0  0  0  0  0  0
   56.3030   22.7040   45.9480 C   0  0  0  0  0  0  0  0  0  0  0  0
   56.3520   22.7520   47.3040 F   0  0  0  0  0  0  0  0  0  0  0  0
   56.0610   27.3300   45.6130 N   0  0  0  0  0  0  0  0  0  0  0  0
   57.0560   28.2050   45.9070 C   0  0  0  0  0  0  0  0  0  0  0  0
   57.0770   29.5540   45.5740 C   0  0  0  0  0  0  0  0  0  0  0  0
   56.1040   30.0640   44.9520 O   0  0  0  0  0  0  0  0  0  0  0  0
   58.2770   32.1180   44.2630 C   0  0  0  0  0  0  0  0  0  0  0  0
   58.3312   31.3624   43.4654 H   0  0  0  0  0  0  0  0  0  0  0  0
   58.2980   33.4780   43.9380 C   0  0  0  0  0  0  0  0  0  0  0  0
   58.3712   33.7904   42.8858 H   0  0  0  0  0  0  0  0  0  0  0  0
  1  2  1  0
  2  3  2  0
  3  4  1  0
  3  5  1  0
  5  6  1  0
  5  7  2  0
  7  8  1  0
  8  9  1  0
  9 10  1  0
 10 11  1  0
 11 12  1  0
 11 13  1  0
 11 14  1  0
  9 15  2  0
 15 16  1  0
 15 17  1  0
 17 18  1  0
 18 19  1  0
 19 20  2  0
 20 21  1  0
 21 22  2  0
 22 23  1  0
 22 24  1  0
 24 25  1  0
 24 26  2  0
 26 27  1  0
 26 28  1  0
 28 29  1  0
 28 30  2  0
 30 31  1  0
 19 32  1  0
 32 33  1  0
 33 34  1  0
 34 35  2  0
  7 36  1  0
 36 37  1  0
 36 38  2  0
 38 39  1  0
 38  2  1  0
 34  8  1  0
 33 17  2  0
 30 21  1  0
M  CHG  2  15   1  32  -1
M  END
>  <UniqueID>  (4) 
3

>  <SMILES>  (4) 
CSc1[nH+]c2s/c(=N/c3ccccc3F)[n-]c2c(=O)n1-c1ccccc1

>  <Energy>  (4) 
91.78277977448766

>  <Genealogy>  (4) 
CSc1[nH+]c2sc(=Nc3ccccc3F)[n-]c2c(=O)n1-c1ccccc1 (protonated)
CSc1[nH+]c2s/c(=N/c3ccccc3F)[n-]c2c(=O)n1-c1ccccc1 (cis-trans isomerization)
CSc1[nH+]c2s/c(=N/c3ccccc3F)[n-]c2c(=O)n1-c1ccccc1 (3D coordinates assigned)
CSc1[nH+]c2s/c(=N/c3ccccc3F)[n-]c2c(=O)n1-c1ccccc1 (optimized conformer: 91.78277977448766 kcal/mol)

>  <smiles>  (4) 
CSc1nc2sc(=Nc3ccccc3F)[nH]c2c(=O)n1-c1ccccc1

>  <score_type>  (4) 
oracle

>  <origin>  (4) 
adg

>  <m_score__min__energy>  (4) 
-8.3200000000000003

>  <m_primary>  (4) 
energy

$$$$
4:0
     RDKit          3D

 38 39  0  0  0  0  0  0  0  0999 V2000
   65.6850   32.6510   49.7370 C   0  0  0  0  0  0  0  0  0  0  0  0
   64.3550   32.4280   49.1370 N   0  0  0  0  0  0  0  0  0  0  0  0
   63.5400   31.6150   50.0570 C   0  0  0  0  0  0  0  0  0  0  0  0
   63.6760   33.7170   48.8320 C   0  0  0  0  0  0  0  0  0  0  0  0
   63.2740   33.8450   47.3470 C   0  0  0  0  0  0  0  0  0  0  0  0
   61.9360   33.2860   47.0870 N   0  0  0  0  0  0  0  0  0  0  0  0
   60.8940   34.1400   46.8420 C   0  0  0  0  0  0  0  0  0  0  0  0
   59.6070   33.6480   46.6190 C   0  0  0  0  0  0  0  0  0  0  0  0
   59.3730   32.2750   46.6550 C   0  0  0  0  0  0  0  0  0  0  0  0
   58.0730   31.8030   46.4230 O   0  0  0  0  0  0  0  0  0  0  0  0
   57.6590   31.0870   45.2900 C   0  0  0  0  0  0  0  0  0  0  0  0
   57.4680   31.7810   44.0880 C   0  0  0  0  0  0  0  0  0  0  0  0
   57.0420   31.1060   42.9400 C   0  0  0  0  0  0  0  0  0  0  0  0
   56.7920   29.7310   42.9900 C   0  0  0  0  0  0  0  0  0  0  0  0
   56.9610   29.0340   44.1880 C   0  0  0  0  0  0  0  0  0  0  0  0
   57.3880   29.7070   45.3370 C   0  0  0  0  0  0  0  0  0  0  0  0
   60.4510   31.4060   46.8760 C   0  0  0  0  0  0  0  0  0  0  0  0
   61.7300   31.9280   47.0960 C   0  0  0  0  0  0  0  0  0  0  0  0
   62.6880   31.1330   47.2970 O   0  0  0  0  0  0  0  0  0  0  0  0
   65.5996   32.6367   50.8336 H   0  0  0  0  0  0  0  0  0  0  0  0
   66.3718   31.8555   49.4123 H   0  0  0  0  0  0  0  0  0  0  0  0
   66.0748   33.6270   49.4123 H   0  0  0  0  0  0  0  0  0  0  0  0
   64.4820   31.8660   48.2620 H   0  0  0  0  0  0  0  0  0  0  0  0
   63.7956   31.8700   51.0961 H   0  0  0  0  0  0  0  0  0  0  0  0
   62.4737   31.8199   49.8808 H   0  0  0  0  0  0  0  0  0  0  0  0
   63.7423   30.5482   49.8808 H   0  0  0  0  0  0  0  0  0  0  0  0
   62.7686   33.7908   49.4493 H   0  0  0  0  0  0  0  0  0  0  0  0
   64.3873   34.5264   49.0534 H   0  0  0  0  0  0  0  0  0  0  0  0
   63.2742   34.9094   47.0696 H   0  0  0  0  0  0  0  0  0  0  0  0
   64.0014   33.2775   46.7481 H   0  0  0  0  0  0  0  0  0  0  0  0
   61.0731   35.2251   46.8207 H   0  0  0  0  0  0  0  0  0  0  0  0
   58.7790   34.3429   46.4152 H   0  0  0  0  0  0  0  0  0  0  0  0
   57.6545   32.8643   44.0471 H   0  0  0  0  0  0  0  0  0  0  0  0
   56.9035   31.6564   41.9977 H   0  0  0  0  0  0  0  0  0  0  0  0
   56.4623   29.1986   42.0857 H   0  0  0  0  0  0  0  0  0  0  0  0
   56.7579   27.9537   44.2280 H   0  0  0  0  0  0  0  0  0  0  0  0
   57.5125   29.1558   46.2807 H   0  0  0  0  0  0  0  0  0  0  0  0
   60.2915   30.3176   46.8764 H   0  0  0  0  0  0  0  0  0  0  0  0
  1  2  1  0
  2  3  1  0
  2  4  1  0
  4  5  1  0
  5  6  1  0
  6  7  1  0
  7  8  2  0
  8  9  1  0
  9 10  1  0
 10 11  1  0
 11 12  2  0
 12 13  1  0
 13 14  2  0
 14 15  1  0
 15 16  2  0
  9 17  2  0
 17 18  1  0
 18 19  2  0
 18  6  1  0
 16 11  1  0
  1 20  1  0
  1 21  1  0
  1 22  1  0
  2 23  1  0
  3 24  1  0
  3 25  1  0
  3 26  1  0
  4 27  1  0
  4 28  1  0
  5 29  1  0
  5 30  1  0
  7 31  1  0
  8 32  1  0
 12 33  1  0
 13 34  1  0
 14 35  1  0
 15 36  1  0
 16 37  1  0
 17 38  1  0
M  CHG  1   2   1
M  END
>  <UniqueID>  (5) 
4

>  <SMILES>  (5) 
C[NH+](C)CCn1ccc(Oc2ccccc2)cc1=O

>  <Energy>  (5) 
47.563249270088996

>  <Genealogy>  (5) 
C[NH+](C)CCn1ccc(Oc2ccccc2)cc1=O (protonated)
C[NH+](C)CCn1ccc(Oc2ccccc2)cc1=O (3D coordinates assigned)
C[NH+](C)CCn1ccc(Oc2ccccc2)cc1=O (optimized conformer: 47.563249270088996 kcal/mol)

>  <smiles>  (5) 
CN(C)CCn1ccc(Oc2ccccc2)cc1=O

>  <score_type>  (5) 
oracle

>  <origin>  (5) 
adg

>  <m_score__min__energy>  (5) 
-4.2400000000000002

>  <m_primary>  (5) 
energy

$$$$
5:0
     RDKit          3D

 66 69  0  0  0  0  0  0  0  0999 V2000
   56.3360   23.0910   43.0100 C   0  0  0  0  0  0  0  0  0  0  0  0
   55.9840   23.1580   44.4920 C   0  0  0  0  0  0  0  0  0  0  0  0
   55.5170   24.4620   44.8380 O   0  0  0  0  0  0  0  0  0  0  0  0
   56.2570   25.3670   45.6080 C   0  0  0  0  0  0  0  0  0  0  0  0
   55.7110   25.9870   46.5600 O   0  0  0  0  0  0  0  0  0  0  0  0
   57.6330   25.5970   45.2790 N   0  0  0  0  0  0  0  0  0  0  0  0
   58.5270   26.4050   46.0610 C   0  0  0  0  0  0  0  0  0  0  0  0
   59.7770   25.9190   46.4840 C   0  0  0  0  0  0  0  0  0  0  0  0
   60.6340   26.7320   47.2290 C   0  0  0  0  0  0  0  0  0  0  0  0
   60.2580   28.0380   47.5520 C   0  0  0  0  0  0  0  0  0  0  0  0
   59.0250   28.5460   47.1180 C   0  0  0  0  0  0  0  0  0  0  0  0
   58.5880   29.9270   47.5180 C   0  0  0  0  0  0  0  0  0  0  0  0
   59.0890   30.9140   46.5490 N   0  0  0  0  0  0  0  0  0  0  0  0
   60.2970   31.6220   46.8510 C   0  0  0  0  0  0  0  0  0  0  0  0
   61.3890   30.9960   46.8820 O   0  0  0  0  0  0  0  0  0  0  0  0
   60.2780   33.0830   47.1820 C   0  0  2  0  0  0  0  0  0  0  0  0
   59.2910   33.3120   48.2330 N   0  0  0  0  0  0  0  0  0  0  0  0
   59.5990   33.2800   49.6330 C   0  0  0  0  0  0  0  0  0  0  0  0
   58.8280   32.6950   50.4380 O   0  0  0  0  0  0  0  0  0  0  0  0
   60.7400   33.9770   50.1450 N   0  0  0  0  0  0  0  0  0  0  0  0
   62.0880   33.4900   50.1200 C   0  0  0  0  0  0  0  0  0  0  0  0
   62.6060   32.8730   51.2640 C   0  0  0  0  0  0  0  0  0  0  0  0
   63.9170   32.3870   51.2730 C   0  0  0  0  0  0  0  0  0  0  0  0
   64.7170   32.4860   50.1240 C   0  0  0  0  0  0  0  0  0  0  0  0
   66.1460   32.0110   50.1440 C   0  0  0  0  0  0  0  0  0  0  0  0
   67.0560   33.0670   49.7110 N   0  0  0  0  0  0  0  0  0  0  0  0
   64.1890   33.0830   48.9700 C   0  0  0  0  0  0  0  0  0  0  0  0
   62.8790   33.5720   48.9630 C   0  0  0  0  0  0  0  0  0  0  0  0
   59.9350   33.9380   45.9520 C   0  0  0  0  0  0  0  0  0  0  0  0
   58.4770   33.7670   45.5200 C   0  0  0  0  0  0  0  0  0  0  0  0
   58.0890   32.4650   44.8360 C   0  0  0  0  0  0  0  0  0  0  0  0
   57.4160   32.6030   43.6070 C   0  0  0  0  0  0  0  0  0  0  0  0
   57.0540   31.4880   42.8530 C   0  0  0  0  0  0  0  0  0  0  0  0
   57.3730   30.2120   43.3010 C   0  0  0  0  0  0  0  0  0  0  0  0
   58.0450   30.0450   44.5100 C   0  0  0  0  0  0  0  0  0  0  0  0
   58.4030   31.1530   45.3030 C   0  0  0  0  0  0  0  0  0  0  0  0
   58.1680   27.7260   46.3660 C   0  0  0  0  0  0  0  0  0  0  0  0
   57.4109   22.8864   42.8973 H   0  0  0  0  0  0  0  0  0  0  0  0
   55.7576   22.2868   42.5317 H   0  0  0  0  0  0  0  0  0  0  0  0
   56.0935   24.0514   42.5317 H   0  0  0  0  0  0  0  0  0  0  0  0
   55.1963   22.4219   44.7103 H   0  0  0  0  0  0  0  0  0  0  0  0
   56.8857   22.9357   45.0816 H   0  0  0  0  0  0  0  0  0  0  0  0
   57.9700   25.2410   44.3550 H   0  0  0  0  0  0  0  0  0  0  0  0
   60.0812   24.8936   46.2269 H   0  0  0  0  0  0  0  0  0  0  0  0
   61.6075   26.3430   47.5623 H   0  0  0  0  0  0  0  0  0  0  0  0
   60.9316   28.6703   48.1490 H   0  0  0  0  0  0  0  0  0  0  0  0
   57.4891   29.9679   47.5444 H   0  0  0  0  0  0  0  0  0  0  0  0
   58.9942   30.1600   48.5133 H   0  0  0  0  0  0  0  0  0  0  0  0
   61.2810   33.3793   47.5230 H   0  0  0  0  0  0  0  0  0  0  0  0
   61.9783   32.7697   52.1614 H   0  0  0  0  0  0  0  0  0  0  0  0
   64.3233   31.9249   52.1848 H   0  0  0  0  0  0  0  0  0  0  0  0
   66.4094   31.7070   51.1678 H   0  0  0  0  0  0  0  0  0  0  0  0
   66.2418   31.1612   49.4521 H   0  0  0  0  0  0  0  0  0  0  0  0
   67.1360   33.0350   48.6670 H   0  0  0  0  0  0  0  0  0  0  0  0
   66.6450   33.9950   49.9710 H   0  0  0  0  0  0  0  0  0  0  0  0
   64.8089   33.1670   48.0652 H   0  0  0  0  0  0  0  0  0  0  0  0
   62.4669   34.0224   48.0480 H   0  0  0  0  0  0  0  0  0  0  0  0
   60.1109   34.9962   46.1955 H   0  0  0  0  0  0  0  0  0  0  0  0
   60.5753   33.6077   45.1208 H   0  0  0  0  0  0  0  0  0  0  0  0
   57.8541   33.8625   46.4216 H   0  0  0  0  0  0  0  0  0  0  0  0
   58.3224   34.5401   44.7530 H   0  0  0  0  0  0  0  0  0  0  0  0
   57.1715   33.6090   43.2352 H   0  0  0  0  0  0  0  0  0  0  0  0
   56.5155   31.6183   41.9027 H   0  0  0  0  0  0  0  0  0  0  0  0
   57.0948   29.3332   42.7008 H   0  0  0  0  0  0  0  0  0  0  0  0
   58.3003   29.0309   44.8511 H   0  0  0  0  0  0  0  0  0  0  0  0
   57.2053   28.1239   46.0126 H   0  0  0  0  0  0  0  0  0  0  0  0
  1  2  1  0
  2  3  1  0
  3  4  1  0
  4  5  2  0
  4  6  1  0
  6  7  1  0
  7  8  2  0
  8  9  1  0
  9 10  2  0
 10 11  1  0
 11 12  1  0
 12 13  1  0
 13 14  1  0
 14 15  2  0
 14 16  1  0
 16 17  1  0
 17 18  1  0
 18 19  2  0
 18 20  1  0
 20 21  1  0
 21 22  2  0
 22 23  1  0
 23 24  2  0
 24 25  1  0
 25 26  1  0
 24 27  1  0
 27 28  2  0
 16 29  1  0
 29 30  1  0
 30 31  1  0
 31 32  2  0
 32 33  1  0
 33 34  2  0
 34 35  1  0
 35 36  2  0
 11 37  2  0
 37  7  1  0
 36 13  1  0
 28 21  1  0
 36 31  1  0
  1 38  1  0
  1 39  1  0
  1 40  1  0
  2 41  1  0
  2 42  1  0
  6 43  1  0
  8 44  1  0
  9 45  1  0
 10 46  1  0
 12 47  1  0
 12 48  1  0
 16 49  1  1
 22 50  1  0
 23 51  1  0
 25 52  1  0
 25 53  1  0
 26 54  1  0
 26 55  1  0
 27 56  1  0
 28 57  1  0
 29 58  1  0
 29 59  1  0
 30 60  1  0
 30 61  1  0
 32 62  1  0
 33 63  1  0
 34 64  1  0
 35 65  1  0
 37 66  1  0
M  CHG  2  17  -1  20  -1
M  END
>  <UniqueID>  (6) 
5

>  <SMILES>  (6) 
CCOC(=O)Nc1cccc(CN2C(=O)[C@H]([N-]C(=O)[N-]c3ccc(CN)cc3)CCc3ccccc32)c1

>  <Energy>  (6) 
81.30363903659848

>  <Genealogy>  (6) 
CCOC(=O)Nc1cccc(CN2C(=O)C([N-]C(=O)[N-]c3ccc(CN)cc3)CCc3ccccc32)c1 (protonated)
CCOC(=O)Nc1cccc(CN2C(=O)[C@H]([N-]C(=O)[N-]c3ccc(CN)cc3)CCc3ccccc32)c1 (chirality)
CCOC(=O)Nc1cccc(CN2C(=O)[C@H]([N-]C(=O)[N-]c3ccc(CN)cc3)CCc3ccccc32)c1 (3D coordinates assigned)
CCOC(=O)Nc1cccc(CN2C(=O)[C@H]([N-]C(=O)[N-]c3ccc(CN)cc3)CCc3ccccc32)c1 (nonaromatic ring conformer: 81.30363903659848 kcal/mol)

>  <smiles>  (6) 
CCOC(=O)Nc1cccc(CN2C(=O)C(NC(=O)Nc3ccc(CN)cc3)CCc3ccccc32)c1

>  <score_type>  (6) 
oracle

>  <origin>  (6) 
adg

>  <m_score__min__energy>  (6) 
-10.5

>  <m_primary>  (6) 
energy

$$$$
6:0
     RDKit          3D

 57 61  0  0  0  0  0  0  0  0999 V2000
   58.0910   32.2820   42.2060 O   0  0  0  0  0  0  0  0  0  0  0  0
   57.7830   32.3060   43.4280 C   0  0  0  0  0  0  0  0  0  0  0  0
   57.7770   33.5670   44.1150 N   0  0  0  0  0  0  0  0  0  0  0  0
   58.9170   34.1680   44.8050 C   0  0  0  0  0  0  0  0  0  0  0  0
   58.9180   33.7920   46.2540 C   0  0  0  0  0  0  0  0  0  0  0  0
   59.5940   34.4540   47.2610 C   0  0  0  0  0  0  0  0  0  0  0  0
   59.2890   33.7750   48.4200 C   0  0  0  0  0  0  0  0  0  0  0  0
   58.4530   32.7400   48.0490 C   0  0  0  0  0  0  0  0  0  0  0  0
   58.2520   32.7760   46.7520 O   0  0  0  0  0  0  0  0  0  0  0  0
   57.4990   31.0370   44.1210 C   0  0  0  0  0  0  0  0  0  0  0  0
   56.1990   30.5290   44.1210 C   0  0  0  0  0  0  0  0  0  0  0  0
   55.9280   29.2990   44.7120 C   0  0  0  0  0  0  0  0  0  0  0  0
   56.9560   28.5570   45.3250 C   0  0  0  0  0  0  0  0  0  0  0  0
   56.7000   27.2990   45.8820 C   0  0  0  0  0  0  0  0  0  0  0  0
   55.5290   26.8240   45.8420 O   0  0  0  0  0  0  0  0  0  0  0  0
   57.7110   26.5810   46.4590 N   0  0  0  0  0  0  0  0  0  0  0  0
   57.4410   25.2150   46.9620 C   0  0  0  0  0  0  0  0  0  0  0  0
   57.4340   24.2300   45.8200 C   0  0  0  0  0  0  0  0  0  0  0  0
   56.3040   24.1110   44.9940 C   0  0  0  0  0  0  0  0  0  0  0  0
   56.2810   23.1670   43.9630 C   0  0  0  0  0  0  0  0  0  0  0  0
   57.3820   22.3340   43.7500 C   0  0  0  0  0  0  0  0  0  0  0  0
   58.5090   22.4440   44.5690 C   0  0  0  0  0  0  0  0  0  0  0  0
   58.5360   23.3860   45.6020 C   0  0  0  0  0  0  0  0  0  0  0  0
   58.9820   27.0970   46.5130 C   0  0  0  0  0  0  0  0  0  0  0  0
   59.9030   26.4190   47.0510 O   0  0  0  0  0  0  0  0  0  0  0  0
   59.2700   28.3360   45.9830 N   0  0  0  0  0  0  0  0  0  0  0  0
   60.6660   28.8380   46.0460 C   0  0  0  0  0  0  0  0  0  0  0  0
   60.8840   29.7130   47.2580 C   0  0  0  0  0  0  0  0  0  0  0  0
   61.7220   30.8370   47.1720 C   0  0  0  0  0  0  0  0  0  0  0  0
   61.9180   31.6600   48.2850 C   0  0  0  0  0  0  0  0  0  0  0  0
   61.2700   31.3750   49.4890 C   0  0  0  0  0  0  0  0  0  0  0  0
   60.4130   30.2760   49.5770 C   0  0  0  0  0  0  0  0  0  0  0  0
   60.2110   29.4520   48.4660 C   0  0  0  0  0  0  0  0  0  0  0  0
   58.2720   29.0690   45.3710 C   0  0  0  0  0  0  0  0  0  0  0  0
   58.5210   30.3280   44.7650 C   0  0  0  0  0  0  0  0  0  0  0  0
   59.8484   33.8134   44.3395 H   0  0  0  0  0  0  0  0  0  0  0  0
   58.8419   35.2624   44.7241 H   0  0  0  0  0  0  0  0  0  0  0  0
   60.2404   35.3381   47.1586 H   0  0  0  0  0  0  0  0  0  0  0  0
   59.6402   34.0096   49.4357 H   0  0  0  0  0  0  0  0  0  0  0  0
   58.0209   31.9977   48.7363 H   0  0  0  0  0  0  0  0  0  0  0  0
   55.3861   31.1030   43.6522 H   0  0  0  0  0  0  0  0  0  0  0  0
   54.9019   28.9027   44.7003 H   0  0  0  0  0  0  0  0  0  0  0  0
   58.2236   24.9316   47.6812 H   0  0  0  0  0  0  0  0  0  0  0  0
   56.4566   25.2018   47.4527 H   0  0  0  0  0  0  0  0  0  0  0  0
   55.4337   24.7632   45.1590 H   0  0  0  0  0  0  0  0  0  0  0  0
   55.3941   23.0800   43.3182 H   0  0  0  0  0  0  0  0  0  0  0  0
   57.3619   21.5920   42.9382 H   0  0  0  0  0  0  0  0  0  0  0  0
   59.3762   21.7885   44.4008 H   0  0  0  0  0  0  0  0  0  0  0  0
   59.4236   23.4666   46.2467 H   0  0  0  0  0  0  0  0  0  0  0  0
   61.3527   27.9801   46.0960 H   0  0  0  0  0  0  0  0  0  0  0  0
   60.8578   29.4403   45.1457 H   0  0  0  0  0  0  0  0  0  0  0  0
   62.2271   31.0711   46.2233 H   0  0  0  0  0  0  0  0  0  0  0  0
   62.5833   32.5330   48.2124 H   0  0  0  0  0  0  0  0  0  0  0  0
   61.4347   32.0160   50.3676 H   0  0  0  0  0  0  0  0  0  0  0  0
   59.8956   30.0581   50.5229 H   0  0  0  0  0  0  0  0  0  0  0  0
   59.5234   28.5963   48.5363 H   0  0  0  0  0  0  0  0  0  0  0  0
   59.5343   30.7544   44.8017 H   0  0  0  0  0  0  0  0  0  0  0  0
  1  2  2  0
  2  3  1  0
  3  4  1  0
  4  5  1  0
  5  6  2  0
  6  7  1  0
  7  8  2  0
  8  9  1  0
  2 10  1  0
 10 11  2  0
 11 12  1  0
 12 13  2  0
 13 14  1  0
 14 15  2  0
 14 16  1  0
 16 17  1  0
 17 18  1  0
 18 19  2  0
 19 20  1  0
 20 21  2  0
 21 22  1  0
 22 23  2  0
 16 24  1  0
 24 25  2  0
 24 26  1  0
 26 27  1  0
 27 28  1  0
 28 29  2  0
 29 30  1  0
 30 31  2  0
 31 32  1  0
 32 33  2  0
 26 34  1  0
 34 35  2  0
  9  5  1  0
 35 10  1  0
 34 13  1  0
 23 18  1  0
 33 28  1  0
  4 36  1  0
  4 37  1  0
  6 38  1  0
  7 39  1  0
  8 40  1  0
 11 41  1  0
 12 42  1  0
 17 43  1  0
 17 44  1  0
 19 45  1  0
 20 46  1  0
 21 47  1  0
 22 48  1  0
 23 49  1  0
 27 50  1  0
 27 51  1  0
 29 52  1  0
 30 53  1  0
 31 54  1  0
 32 55  1  0
 33 56  1  0
 35 57  1  0
M  CHG  1   3  -1
M  END
>  <UniqueID>  (7) 
6

>  <SMILES>  (7) 
O=C([N-]Cc1ccco1)c1ccc2c(=O)n(Cc3ccccc3)c(=O)n(Cc3ccccc3)c2c1

>  <Energy>  (7) 
102.61662668031751

>  <Genealogy>  (7) 
O=C([N-]Cc1ccco1)c1ccc2c(=O)n(Cc3ccccc3)c(=O)n(Cc3ccccc3)c2c1 (protonated)
O=C([N-]Cc1ccco1)c1ccc2c(=O)n(Cc3ccccc3)c(=O)n(Cc3ccccc3)c2c1 (3D coordinates assigned)
O=C([N-]Cc1ccco1)c1ccc2c(=O)n(Cc3ccccc3)c(=O)n(Cc3ccccc3)c2c1 (optimized conformer: 102.61662668031751 kcal/mol)

>  <smiles>  (7) 
O=C(NCc1ccco1)c1ccc2c(=O)n(Cc3ccccc3)c(=O)n(Cc3ccccc3)c2c1

>  <score_type>  (7) 
oracle

>  <origin>  (7) 
adg

>  <m_score__min__energy>  (7) 
-11.94

>  <m_primary>  (7) 
energy

$$$$
7:0
     RDKit          3D

 52 55  0  0  0  0  0  0  0  0999 V2000
   60.0100   29.6400   47.0510 C   0  0  0  0  0  0  0  0  0  0  0  0
   58.7690   29.3690   46.2410 C   0  0  0  0  0  0  0  0  0  0  0  0
   58.1830   28.0940   46.3030 C   0  0  0  0  0  0  0  0  0  0  0  0
   56.9900   27.8070   45.6120 C   0  0  0  0  0  0  0  0  0  0  0  0
   56.3730   26.4560   45.6650 C   0  0  0  0  0  0  0  0  0  0  0  0
   55.1660   26.3450   46.0310 O   0  0  0  0  0  0  0  0  0  0  0  0
   57.1200   25.2280   45.2980 C   0  0  0  0  0  0  0  0  0  0  0  0
   58.2860   24.8550   45.9910 C   0  0  0  0  0  0  0  0  0  0  0  0
   58.9770   23.6910   45.6380 C   0  0  0  0  0  0  0  0  0  0  0  0
   58.5070   22.8840   44.6000 C   0  0  0  0  0  0  0  0  0  0  0  0
   57.3380   23.2360   43.9200 C   0  0  0  0  0  0  0  0  0  0  0  0
   56.6430   24.3980   44.2700 C   0  0  0  0  0  0  0  0  0  0  0  0
   56.4030   28.8110   44.8270 C   0  0  0  0  0  0  0  0  0  0  0  0
   56.9940   30.0720   44.7340 C   0  0  0  0  0  0  0  0  0  0  0  0
   58.1890   30.3560   45.4100 C   0  0  0  0  0  0  0  0  0  0  0  0
   58.7740   31.6570   45.2600 N   0  0  0  0  0  0  0  0  0  0  0  0
   57.9970   32.8650   45.3110 C   0  0  0  0  0  0  0  0  0  0  0  0
   56.7660   32.8190   45.5890 O   0  0  0  0  0  0  0  0  0  0  0  0
   58.6400   34.1930   45.0380 C   0  0  0  0  0  0  0  0  0  0  0  0
   59.3300   34.7410   46.3010 C   0  0  0  0  0  0  0  0  0  0  0  0
   60.0560   33.6720   47.0830 C   0  0  0  0  0  0  0  0  0  0  0  0
   61.0050   33.0470   46.5380 O   0  0  0  0  0  0  0  0  0  0  0  0
   59.6460   33.3010   48.4630 C   0  0  0  0  0  0  0  0  0  0  0  0
   60.0590   34.1080   49.5640 C   0  0  0  0  0  0  0  0  0  0  0  0
   59.6880   33.7730   50.8790 C   0  0  0  0  0  0  0  0  0  0  0  0
   58.9120   32.6340   51.0670 C   0  0  0  0  0  0  0  0  0  0  0  0
   58.5120   31.8570   50.0280 C   0  0  0  0  0  0  0  0  0  0  0  0
   58.8540   32.1500   48.7110 C   0  0  0  0  0  0  0  0  0  0  0  0
   57.7620   30.8020   50.5070 O   0  0  0  0  0  0  0  0  0  0  0  0
   57.6890   30.9200   51.9350 C   0  0  0  0  0  0  0  0  0  0  0  0
   58.4310   32.1060   52.2490 O   0  0  0  0  0  0  0  0  0  0  0  0
   59.7673   29.5870   48.1226 H   0  0  0  0  0  0  0  0  0  0  0  0
   60.7760   28.8880   46.8109 H   0  0  0  0  0  0  0  0  0  0  0  0
   60.3928   30.6429   46.8109 H   0  0  0  0  0  0  0  0  0  0  0  0
   58.6641   27.3063   46.9014 H   0  0  0  0  0  0  0  0  0  0  0  0
   58.6565   25.4822   46.8152 H   0  0  0  0  0  0  0  0  0  0  0  0
   59.8927   23.4109   46.1794 H   0  0  0  0  0  0  0  0  0  0  0  0
   59.0557   21.9732   44.3181 H   0  0  0  0  0  0  0  0  0  0  0  0
   56.9633   22.5970   43.1068 H   0  0  0  0  0  0  0  0  0  0  0  0
   55.7178   24.6635   43.7374 H   0  0  0  0  0  0  0  0  0  0  0  0
   55.4709   28.6029   44.2813 H   0  0  0  0  0  0  0  0  0  0  0  0
   56.5165   30.8523   44.1231 H   0  0  0  0  0  0  0  0  0  0  0  0
   59.8190   31.7300   45.2960 H   0  0  0  0  0  0  0  0  0  0  0  0
   59.3894   34.0731   44.2418 H   0  0  0  0  0  0  0  0  0  0  0  0
   57.8596   34.9036   44.7282 H   0  0  0  0  0  0  0  0  0  0  0  0
   60.0565   35.5097   45.9989 H   0  0  0  0  0  0  0  0  0  0  0  0
   58.5463   35.1535   46.9535 H   0  0  0  0  0  0  0  0  0  0  0  0
   60.6741   35.0018   49.3831 H   0  0  0  0  0  0  0  0  0  0  0  0
   60.0018   34.3925   51.7320 H   0  0  0  0  0  0  0  0  0  0  0  0
   58.5192   31.5063   47.8842 H   0  0  0  0  0  0  0  0  0  0  0  0
   56.6434   31.0206   52.2614 H   0  0  0  0  0  0  0  0  0  0  0  0
   58.0943   30.0329   52.4436 H   0  0  0  0  0  0  0  0  0  0  0  0
  1  2  1  0
  2  3  2  0
  3  4  1  0
  4  5  1  0
  5  6  2  0
  5  7  1  0
  7  8  2  0
  8  9  1  0
  9 10  2  0
 10 11  1  0
 11 12  2  0
  4 13  2  0
 13 14  1  0
 14 15  2  0
 15 16  1  0
 16 17  1  0
 17 18  2  0
 17 19  1  0
 19 20  1  0
 20 21  1  0
 21 22  2  0
 21 23  1  0
 23 24  2  0
 24 25  1  0
 25 26  2  0
 26 27  1  0
 27 28  2  0
 27 29  1  0
 29 30  1  0
 30 31  1  0
 15  2  1  0
 28 23  1  0
 12  7  1  0
 31 26  1  0
  1 32  1  0
  1 33  1  0
  1 34  1  0
  3 35  1  0
  8 36  1  0
  9 37  1  0
 10 38  1  0
 11 39  1  0
 12 40  1  0
 13 41  1  0
 14 42  1  0
 16 43  1  0
 19 44  1  0
 19 45  1  0
 20 46  1  0
 20 47  1  0
 24 48  1  0
 25 49  1  0
 28 50  1  0
 30 51  1  0
 30 52  1  0
M  END
>  <UniqueID>  (8) 
7

>  <SMILES>  (8) 
Cc1cc(C(=O)c2ccccc2)ccc1NC(=O)CCC(=O)c1ccc2c(c1)OCO2

>  <Energy>  (8) 
95.63392192011125

>  <Genealogy>  (8) 
Cc1cc(C(=O)c2ccccc2)ccc1NC(=O)CCC(=O)c1ccc2c(c1)OCO2 (3D coordinates assigned)
Cc1cc(C(=O)c2ccccc2)ccc1NC(=O)CCC(=O)c1ccc2c(c1)OCO2 (nonaromatic ring conformer: 95.63392192011125 kcal/mol)

>  <smiles>  (8) 
Cc1cc(C(=O)c2ccccc2)ccc1NC(=O)CCC(=O)c1ccc2c(c1)OCO2

>  <score_type>  (8) 
oracle

>  <origin>  (8) 
adg

>  <m_score__min__energy>  (8) 
-9.5700000000000003

>  <m_primary>  (8) 
energy

$$$$
8:0
     RDKit          3D

 39 41  0  0  0  0  0  0  0  0999 V2000
   56.3280   29.7710   43.2440 C   0  0  0  0  0  0  0  0  0  0  0  0
   56.2750   30.4740   44.4820 O   0  0  0  0  0  0  0  0  0  0  0  0
   57.3760   31.0990   45.0870 C   0  0  0  0  0  0  0  0  0  0  0  0
   58.2650   30.3090   45.8220 C   0  0  0  0  0  0  0  0  0  0  0  0
   59.3820   30.8770   46.4390 C   0  0  0  0  0  0  0  0  0  0  0  0
   59.6250   32.2570   46.3360 C   0  0  0  0  0  0  0  0  0  0  0  0
   58.7240   33.0620   45.6080 C   0  0  0  0  0  0  0  0  0  0  0  0
   57.6150   32.4810   44.9760 C   0  0  0  0  0  0  0  0  0  0  0  0
   59.0150   34.5310   45.4330 C   0  0  0  0  0  0  0  0  0  0  0  0
   59.7360   35.0760   46.6710 C   0  0  0  0  0  0  0  0  0  0  0  0
   60.8560   34.2120   47.0450 N   0  0  0  0  0  0  0  0  0  0  0  0
   60.8100   32.9120   46.9650 C   0  0  0  0  0  0  0  0  0  0  0  0
   62.0170   32.1270   47.4080 C   0  0  0  0  0  0  0  0  0  0  0  0
   63.2790   32.9950   47.3690 C   0  0  0  0  0  0  0  0  0  0  0  0
   63.7400   33.3210   48.7640 C   0  0  0  0  0  0  0  0  0  0  0  0
   62.9830   34.1800   49.5780 C   0  0  0  0  0  0  0  0  0  0  0  0
   63.3960   34.4560   50.8860 C   0  0  0  0  0  0  0  0  0  0  0  0
   64.5590   33.8690   51.3920 C   0  0  0  0  0  0  0  0  0  0  0  0
   65.3100   33.0020   50.5920 C   0  0  0  0  0  0  0  0  0  0  0  0
   64.9000   32.7240   49.2840 C   0  0  0  0  0  0  0  0  0  0  0  0
   56.4094   28.6914   43.4386 H   0  0  0  0  0  0  0  0  0  0  0  0
   55.4122   29.9719   42.6688 H   0  0  0  0  0  0  0  0  0  0  0  0
   57.2034   30.1069   42.6688 H   0  0  0  0  0  0  0  0  0  0  0  0
   58.0828   29.2282   45.9154 H   0  0  0  0  0  0  0  0  0  0  0  0
   60.0751   30.2405   47.0086 H   0  0  0  0  0  0  0  0  0  0  0  0
   56.9281   33.1094   44.3901 H   0  0  0  0  0  0  0  0  0  0  0  0
   59.6533   34.6726   44.5484 H   0  0  0  0  0  0  0  0  0  0  0  0
   58.0668   35.0727   45.3008 H   0  0  0  0  0  0  0  0  0  0  0  0
   60.1167   36.0844   46.4514 H   0  0  0  0  0  0  0  0  0  0  0  0
   59.0225   35.1087   47.5076 H   0  0  0  0  0  0  0  0  0  0  0  0
   61.8570   31.7703   48.4362 H   0  0  0  0  0  0  0  0  0  0  0  0
   62.1540   31.2772   46.7231 H   0  0  0  0  0  0  0  0  0  0  0  0
   64.0765   32.4502   46.8426 H   0  0  0  0  0  0  0  0  0  0  0  0
   63.0484   33.9332   46.8430 H   0  0  0  0  0  0  0  0  0  0  0  0
   62.0626   34.6371   49.1858 H   0  0  0  0  0  0  0  0  0  0  0  0
   62.8046   35.1359   51.5169 H   0  0  0  0  0  0  0  0  0  0  0  0
   64.8837   34.0890   52.4197 H   0  0  0  0  0  0  0  0  0  0  0  0
   66.2239   32.5383   50.9917 H   0  0  0  0  0  0  0  0  0  0  0  0
   65.4884   32.0351   48.6602 H   0  0  0  0  0  0  0  0  0  0  0  0
  1  2  1  0
  2  3  1  0
  3  4  2  0
  4  5  1  0
  5  6  2  0
  6  7  1  0
  7  8  2  0
  7  9  1  0
  9 10  1  0
 10 11  1  0
 11 12  2  0
 12 13  1  0
 13 14  1  0
 14 15  1  0
 15 16  2  0
 16 17  1  0
 17 18  2  0
 18 19  1  0
 19 20  2  0
  8  3  1  0
 20 15  1  0
 12  6  1  0
  1 21  1  0
  1 22  1  0
  1 23  1  0
  4 24  1  0
  5 25  1  0
  8 26  1  0
  9 27  1  0
  9 28  1  0
 10 29  1  0
 10 30  1  0
 13 31  1  0
 13 32  1  0
 14 33  1  0
 14 34  1  0
 16 35  1  0
 17 36  1  0
 18 37  1  0
 19 38  1  0
 20 39  1  0
M  END
>  <UniqueID>  (9) 
8

>  <SMILES>  (9) 
COc1ccc2c(c1)CCN=C2CCc1ccccc1

>  <Energy>  (9) 
39.61740158344248

>  <Genealogy>  (9) 
COc1ccc2c(c1)CCN=C2CCc1ccccc1 (3D coordinates assigned)
COc1ccc2c(c1)CCN=C2CCc1ccccc1 (nonaromatic ring conformer: 39.61740158344248 kcal/mol)

>  <smiles>  (9) 
COc1ccc2c(c1)CCN=C2CCc1ccccc1

>  <score_type>  (9) 
oracle

>  <origin>  (9) 
adg

>  <m_score__min__energy>  (9) 
-7.2800000000000002

>  <m_primary>  (9) 
energy

$$$$
9:0
     RDKit          3D

 29 32  0  0  0  0  0  0  0  0999 V2000
   56.6440   30.5440   42.2550 C   0  0  0  0  0  0  0  0  0  0  0  0
   56.3280   29.6470   43.3000 C   0  0  0  0  0  0  0  0  0  0  0  0
   56.7730   29.8970   44.6120 C   0  0  0  0  0  0  0  0  0  0  0  0
   57.5250   31.0480   44.8330 C   0  0  0  0  0  0  0  0  0  0  0  0
   58.0330   31.4710   45.9630 O   0  0  0  0  0  0  0  0  0  0  0  0
   58.6720   32.6050   45.7260 C   0  0  0  0  0  0  0  0  0  0  0  0
   59.3640   33.3470   46.8030 C   0  0  0  0  0  0  0  0  0  0  0  0
   58.7910   34.4210   47.4820 C   0  0  0  0  0  0  0  0  0  0  0  0
   59.6370   34.9110   48.4120 N   0  0  0  0  0  0  0  0  0  0  0  0
   60.7480   34.1610   48.3360 C   0  0  0  0  0  0  0  0  0  0  0  0
   61.8980   34.3030   49.1110 C   0  0  0  0  0  0  0  0  0  0  0  0
   62.9610   33.4150   48.8800 C   0  0  0  0  0  0  0  0  0  0  0  0
   62.8520   32.4180   47.8910 C   0  0  0  0  0  0  0  0  0  0  0  0
   61.6810   32.2970   47.1220 C   0  0  0  0  0  0  0  0  0  0  0  0
   60.6310   33.1910   47.3660 C   0  0  0  0  0  0  0  0  0  0  0  0
   58.5720   32.9350   44.3710 C   0  0  0  0  0  0  0  0  0  0  0  0
   57.8280   31.9160   43.8220 C   0  0  0  0  0  0  0  0  0  0  0  0
   57.4040   31.6990   42.5130 C   0  0  0  0  0  0  0  0  0  0  0  0
   56.2933   30.3377   41.2330 H   0  0  0  0  0  0  0  0  0  0  0  0
   55.7308   28.7481   43.0871 H   0  0  0  0  0  0  0  0  0  0  0  0
   56.5348   29.2066   45.4346 H   0  0  0  0  0  0  0  0  0  0  0  0
   57.7834   34.8164   47.2858 H   0  0  0  0  0  0  0  0  0  0  0  0
   59.4590   35.7120   49.0580 H   0  0  0  0  0  0  0  0  0  0  0  0
   61.9705   35.0864   49.8797 H   0  0  0  0  0  0  0  0  0  0  0  0
   63.8830   33.4984   49.4741 H   0  0  0  0  0  0  0  0  0  0  0  0
   63.6908   31.7276   47.7186 H   0  0  0  0  0  0  0  0  0  0  0  0
   61.5920   31.5200   46.3485 H   0  0  0  0  0  0  0  0  0  0  0  0
   58.9936   33.8124   43.8588 H   0  0  0  0  0  0  0  0  0  0  0  0
   57.6549   32.4065   41.7089 H   0  0  0  0  0  0  0  0  0  0  0  0
  1  2  2  0
  2  3  1  0
  3  4  2  0
  4  5  1  0
  5  6  1  0
  6  7  1  0
  7  8  2  0
  8  9  1  0
  9 10  1  0
 10 11  2  0
 11 12  1  0
 12 13  2  0
 13 14  1  0
 14 15  2  0
  6 16  2  0
 16 17  1  0
 17 18  2  0
 18  1  1  0
 17  4  1  0
 15  7  1  0
 15 10  1  0
  1 19  1  0
  2 20  1  0
  3 21  1  0
  8 22  1  0
  9 23  1  0
 11 24  1  0
 12 25  1  0
 13 26  1  0
 14 27  1  0
 16 28  1  0
 18 29  1  0
M  END
>  <UniqueID>  (10) 
9

>  <SMILES>  (10) 
c1ccc2oc(-c3c[nH]c4ccccc34)cc2c1

>  <Energy>  (10) 
103.74908597461675

>  <Genealogy>  (10) 
c1ccc2oc(-c3c[nH]c4ccccc34)cc2c1 (3D coordinates assigned)
c1ccc2oc(-c3c[nH]c4ccccc34)cc2c1 (optimized conformer: 103.74908597461675 kcal/mol)

>  <smiles>  (10) 
c1ccc2oc(-c3c[nH]c4ccccc34)cc2c1

>  <score_type>  (10) 
oracle

>  <origin>  (10) 
adg

>  <m_score__min__energy>  (10) 
-6.9100000000000001

>  <m_primary>  (10) 
energy

$$$$
10:0
     RDKit          3D

 42 44  0  0  0  0  0  0  0  0999 V2000
   56.6000   30.3540   44.8690 O   0  0  0  0  0  0  0  0  0  0  0  0
   57.8730   29.5800   45.0670 S   0  0  0  0  0  0  0  0  0  0  0  0
   58.9240   30.1520   44.1560 O   0  0  0  0  0  0  0  0  0  0  0  0
   58.3770   29.7210   46.7250 N   0  0  0  0  0  0  0  0  0  0  0  0
   59.8370   29.8050   46.7950 C   0  0  0  0  0  0  0  0  0  0  0  0
   60.3050   31.2680   46.7620 C   0  0  0  0  0  0  0  0  0  0  0  0
   59.2170   32.2620   46.8760 N   0  0  0  0  0  0  0  0  0  0  0  0
   59.2410   33.1480   48.0580 C   0  0  0  0  0  0  0  0  0  0  0  0
   59.6520   34.5840   47.7060 C   0  0  0  0  0  0  0  0  0  0  0  0
   58.8930   35.0740   46.6230 O   0  0  0  0  0  0  0  0  0  0  0  0
   59.2040   34.3280   45.4660 C   0  0  0  0  0  0  0  0  0  0  0  0
   58.7410   32.8730   45.6180 C   0  0  0  0  0  0  0  0  0  0  0  0
   57.5870   27.8870   44.6700 C   0  0  0  0  0  0  0  0  0  0  0  0
   57.0450   27.0250   45.6290 C   0  0  0  0  0  0  0  0  0  0  0  0
   56.8700   25.6680   45.3420 C   0  0  0  0  0  0  0  0  0  0  0  0
   57.2350   25.1510   44.0840 C   0  0  0  0  0  0  0  0  0  0  0  0
   57.0720   23.7520   43.7710 N   0  0  0  0  0  0  0  0  0  0  0  0
   56.0860   23.1660   43.0610 C   0  0  0  0  0  0  0  0  0  0  0  0
   56.2640   21.8330   42.9840 N   0  0  0  0  0  0  0  0  0  0  0  0
   57.4040   21.6490   43.6820 C   0  0  0  0  0  0  0  0  0  0  0  0
   57.9030   22.8030   44.1640 N   0  0  0  0  0  0  0  0  0  0  0  0
   57.7660   26.0280   43.1220 C   0  0  0  0  0  0  0  0  0  0  0  0
   57.9410   27.3840   43.4130 C   0  0  0  0  0  0  0  0  0  0  0  0
   57.9790   30.6170   47.0880 H   0  0  0  0  0  0  0  0  0  0  0  0
   60.1800   29.3383   47.7302 H   0  0  0  0  0  0  0  0  0  0  0  0
   60.2609   29.2811   45.9256 H   0  0  0  0  0  0  0  0  0  0  0  0
   61.0025   31.4246   47.5980 H   0  0  0  0  0  0  0  0  0  0  0  0
   60.7709   31.4254   45.7781 H   0  0  0  0  0  0  0  0  0  0  0  0
   58.2360   33.1679   48.5047 H   0  0  0  0  0  0  0  0  0  0  0  0
   59.9873   32.7488   48.7606 H   0  0  0  0  0  0  0  0  0  0  0  0
   59.4891   35.2300   48.5813 H   0  0  0  0  0  0  0  0  0  0  0  0
   60.7141   34.5852   47.4197 H   0  0  0  0  0  0  0  0  0  0  0  0
   58.6990   34.7789   44.5991 H   0  0  0  0  0  0  0  0  0  0  0  0
   60.2943   34.3388   45.3208 H   0  0  0  0  0  0  0  0  0  0  0  0
   57.6413   32.8486   45.6068 H   0  0  0  0  0  0  0  0  0  0  0  0
   59.1640   32.2961   44.7824 H   0  0  0  0  0  0  0  0  0  0  0  0
   56.7547   27.4172   46.6149 H   0  0  0  0  0  0  0  0  0  0  0  0
   56.4441   24.9992   46.1044 H   0  0  0  0  0  0  0  0  0  0  0  0
   55.2446   23.7072   42.6036 H   0  0  0  0  0  0  0  0  0  0  0  0
   57.8730   20.6666   43.8396 H   0  0  0  0  0  0  0  0  0  0  0  0
   58.0466   25.6433   42.1304 H   0  0  0  0  0  0  0  0  0  0  0  0
   58.3586   28.0584   42.6509 H   0  0  0  0  0  0  0  0  0  0  0  0
  1  2  2  0
  2  3  2  0
  2  4  1  0
  4  5  1  0
  5  6  1  0
  6  7  1  0
  7  8  1  0
  8  9  1  0
  9 10  1  0
 10 11  1  0
 11 12  1  0
  2 13  1  0
 13 14  2  0
 14 15  1  0
 15 16  2  0
 16 17  1  0
 17 18  1  0
 18 19  2  0
 19 20  1  0
 20 21  2  0
 16 22  1  0
 22 23  2  0
 12  7  1  0
 23 13  1  0
 21 17  1  0
  4 24  1  0
  5 25  1  0
  5 26  1  0
  6 27  1  0
  6 28  1  0
  8 29  1  0
  8 30  1  0
  9 31  1  0
  9 32  1  0
 11 33  1  0
 11 34  1  0
 12 35  1  0
 12 36  1  0
 14 37  1  0
 15 38  1  0
 18 39  1  0
 20 40  1  0
 22 41  1  0
 23 42  1  0
M  END
>  <UniqueID>  (11) 
10

>  <SMILES>  (11) 
O=S(=O)(NCCN1CCOCC1)c1ccc(-n2cncn2)cc1

>  <Energy>  (11) 
84.01168978396598

>  <Genealogy>  (11) 
O=S(=O)(NCCN1CCOCC1)c1ccc(-n2cncn2)cc1 (3D coordinates assigned)
O=S(=O)(NCCN1CCOCC1)c1ccc(-n2cncn2)cc1 (nonaromatic ring conformer: 84.01168978396598 kcal/mol)

>  <smiles>  (11) 
O=S(=O)(NCCN1CCOCC1)c1ccc(-n2cncn2)cc1

>  <score_type>  (11) 
oracle

>  <origin>  (11) 
adg

>  <m_score__min__energy>  (11) 
-7.7999999999999998

>  <m_primary>  (11) 
energy

$$$$
11:0
     RDKit          3D

 40 42  0  0  0  0  0  0  0  0999 V2000
   63.3960   34.0530   46.3100 C   0  0  0  0  0  0  0  0  0  0  0  0
   63.1270   33.0220   47.3670 C   0  0  0  0  0  0  0  0  0  0  0  0
   63.8450   33.0420   48.5720 C   0  0  0  0  0  0  0  0  0  0  0  0
   63.5760   32.0980   49.5650 C   0  0  0  0  0  0  0  0  0  0  0  0
   62.5760   31.1410   49.3730 C   0  0  0  0  0  0  0  0  0  0  0  0
   61.8220   31.1320   48.1860 C   0  0  0  0  0  0  0  0  0  0  0  0
   60.7960   30.1480   47.9580 N   0  0  0  0  0  0  0  0  0  0  0  0
   60.5080   29.5800   46.6700 C   0  0  0  0  0  0  0  0  0  0  0  0
   61.3900   29.5970   45.7680 O   0  0  0  0  0  0  0  0  0  0  0  0
   59.2040   28.9260   46.4020 C   0  0  0  0  0  0  0  0  0  0  0  0
   58.9010   27.6650   46.9480 C   0  0  0  0  0  0  0  0  0  0  0  0
   57.6660   27.0620   46.6960 C   0  0  0  0  0  0  0  0  0  0  0  0
   56.7140   27.7090   45.9040 C   0  0  0  0  0  0  0  0  0  0  0  0
   55.4930   27.0920   45.6590 O   0  0  0  0  0  0  0  0  0  0  0  0
   56.9960   28.9720   45.3660 C   0  0  0  0  0  0  0  0  0  0  0  0
   55.7820   29.8290   44.3570 S   0  0  0  0  0  0  0  0  0  0  0  0
   56.8390   31.2590   44.1280 C   0  0  0  0  0  0  0  0  0  0  0  0
   57.4910   31.4630   42.9050 C   0  0  0  0  0  0  0  0  0  0  0  0
   58.3110   32.5810   42.7270 C   0  0  0  0  0  0  0  0  0  0  0  0
   58.4850   33.4950   43.7710 C   0  0  0  0  0  0  0  0  0  0  0  0
   57.8400   33.2900   44.9950 C   0  0  0  0  0  0  0  0  0  0  0  0
   57.0190   32.1720   45.1750 C   0  0  0  0  0  0  0  0  0  0  0  0
   58.2360   29.5740   45.6120 C   0  0  0  0  0  0  0  0  0  0  0  0
   62.1120   32.0700   47.1830 C   0  0  0  0  0  0  0  0  0  0  0  0
   63.6461   35.0116   46.7880 H   0  0  0  0  0  0  0  0  0  0  0  0
   64.2386   33.7248   45.6836 H   0  0  0  0  0  0  0  0  0  0  0  0
   62.5005   34.1783   45.6836 H   0  0  0  0  0  0  0  0  0  0  0  0
   64.6220   33.8034   48.7350 H   0  0  0  0  0  0  0  0  0  0  0  0
   64.1531   32.1077   50.5014 H   0  0  0  0  0  0  0  0  0  0  0  0
   62.3778   30.3917   50.1535 H   0  0  0  0  0  0  0  0  0  0  0  0
   60.3140   29.7440   48.7920 H   0  0  0  0  0  0  0  0  0  0  0  0
   59.6417   27.1503   47.5777 H   0  0  0  0  0  0  0  0  0  0  0  0
   57.4422   26.0733   47.1231 H   0  0  0  0  0  0  0  0  0  0  0  0
   57.3576   30.7429   42.0842 H   0  0  0  0  0  0  0  0  0  0  0  0
   58.8197   32.7419   41.7651 H   0  0  0  0  0  0  0  0  0  0  0  0
   59.1292   34.3753   43.6295 H   0  0  0  0  0  0  0  0  0  0  0  0
   57.9785   34.0084   45.8165 H   0  0  0  0  0  0  0  0  0  0  0  0
   56.5146   32.0097   46.1390 H   0  0  0  0  0  0  0  0  0  0  0  0
   58.4558   30.5630   45.1837 H   0  0  0  0  0  0  0  0  0  0  0  0
   61.5387   32.0590   46.2443 H   0  0  0  0  0  0  0  0  0  0  0  0
  1  2  1  0
  2  3  2  0
  3  4  1  0
  4  5  2  0
  5  6  1  0
  6  7  1  0
  7  8  1  0
  8  9  2  0
  8 10  1  0
 10 11  2  0
 11 12  1  0
 12 13  2  0
 13 14  1  0
 13 15  1  0
 15 16  1  0
 16 17  1  0
 17 18  2  0
 18 19  1  0
 19 20  2  0
 20 21  1  0
 21 22  2  0
 15 23  2  0
  6 24  2  0
 24  2  1  0
 23 10  1  0
 22 17  1  0
  1 25  1  0
  1 26  1  0
  1 27  1  0
  3 28  1  0
  4 29  1  0
  5 30  1  0
  7 31  1  0
 11 32  1  0
 12 33  1  0
 18 34  1  0
 19 35  1  0
 20 36  1  0
 21 37  1  0
 22 38  1  0
 23 39  1  0
 24 40  1  0
M  CHG  1  14  -1
M  END
>  <UniqueID>  (12) 
11

>  <SMILES>  (12) 
Cc1cccc(NC(=O)c2ccc([O-])c(Sc3ccccc3)c2)c1

>  <Energy>  (12) 
43.35319888168139

>  <Genealogy>  (12) 
Cc1cccc(NC(=O)c2ccc([O-])c(Sc3ccccc3)c2)c1 (protonated)
Cc1cccc(NC(=O)c2ccc([O-])c(Sc3ccccc3)c2)c1 (3D coordinates assigned)
Cc1cccc(NC(=O)c2ccc([O-])c(Sc3ccccc3)c2)c1 (optimized conformer: 43.35319888168139 kcal/mol)

>  <smiles>  (12) 
Cc1cccc(NC(=O)c2ccc(O)c(Sc3ccccc3)c2)c1

>  <score_type>  (12) 
oracle

>  <origin>  (12) 
adg

>  <m_score__min__energy>  (12) 
-11.279999999999999

>  <m_primary>  (12) 
energy

$$$$
12:0
     RDKit          3D

 38 39  0  0  0  0  0  0  0  0999 V2000
   61.0280   28.9580   50.0180 C   0  0  0  0  0  0  0  0  0  0  0  0
   61.0590   28.5360   48.6580 O   0  0  0  0  0  0  0  0  0  0  0  0
   60.0410   28.7810   47.7210 C   0  0  0  0  0  0  0  0  0  0  0  0
   58.8440   28.0360   47.7180 C   0  0  0  0  0  0  0  0  0  0  0  0
   57.8490   28.3020   46.7760 C   0  0  0  0  0  0  0  0  0  0  0  0
   58.0300   29.3130   45.8290 C   0  0  0  0  0  0  0  0  0  0  0  0
   56.7610   29.6870   44.6670 S   0  0  0  0  0  0  0  0  0  0  0  0
   57.2500   29.3450   43.2870 O   0  0  0  0  0  0  0  0  0  0  0  0
   55.5180   28.8910   44.9580 O   0  0  0  0  0  0  0  0  0  0  0  0
   56.3810   31.3780   44.7340 N   0  0  0  0  0  0  0  0  0  0  0  0
   57.2990   32.4170   45.1030 C   0  0  0  0  0  0  0  0  0  0  0  0
   57.3730   32.9080   46.4220 C   0  0  0  0  0  0  0  0  0  0  0  0
   58.2830   33.9170   46.7490 C   0  0  0  0  0  0  0  0  0  0  0  0
   59.1240   34.4470   45.7690 C   0  0  0  0  0  0  0  0  0  0  0  0
   59.0550   33.9720   44.4560 C   0  0  0  0  0  0  0  0  0  0  0  0
   58.1460   32.9630   44.1200 C   0  0  0  0  0  0  0  0  0  0  0  0
   58.0890   32.3330   42.3130 Br  0  0  0  0  0  0  0  0  0  0  0  0
   59.2180   30.0510   45.8190 C   0  0  0  0  0  0  0  0  0  0  0  0
   60.2340   29.7900   46.7550 C   0  0  0  0  0  0  0  0  0  0  0  0
   61.4540   30.5530   46.7550 N   0  0  0  0  0  0  0  0  0  0  0  0
   61.5990   32.1300   47.4690 S   0  0  0  0  0  0  0  0  0  0  0  0
   63.0410   32.2070   48.5100 C   0  0  0  0  0  0  0  0  0  0  0  0
   60.3870   32.3920   48.3180 O   0  0  0  0  0  0  0  0  0  0  0  0
   61.6770   33.1770   46.3930 O   0  0  0  0  0  0  0  0  0  0  0  0
   61.0926   28.0790   50.6762 H   0  0  0  0  0  0  0  0  0  0  0  0
   61.8795   29.6262   50.2141 H   0  0  0  0  0  0  0  0  0  0  0  0
   60.0880   29.4946   50.2141 H   0  0  0  0  0  0  0  0  0  0  0  0
   58.6934   27.2404   48.4625 H   0  0  0  0  0  0  0  0  0  0  0  0
   56.9195   27.7138   46.7793 H   0  0  0  0  0  0  0  0  0  0  0  0
   56.7114   32.4951   47.1977 H   0  0  0  0  0  0  0  0  0  0  0  0
   58.3367   34.2943   47.7809 H   0  0  0  0  0  0  0  0  0  0  0  0
   59.8415   35.2389   46.0300 H   0  0  0  0  0  0  0  0  0  0  0  0
   59.7172   34.3927   43.6850 H   0  0  0  0  0  0  0  0  0  0  0  0
   59.3590   30.8445   45.0704 H   0  0  0  0  0  0  0  0  0  0  0  0
   62.2690   30.2200   46.1930 H   0  0  0  0  0  0  0  0  0  0  0  0
   62.7324   32.1905   49.5657 H   0  0  0  0  0  0  0  0  0  0  0  0
   63.6887   31.3422   48.3038 H   0  0  0  0  0  0  0  0  0  0  0  0
   63.5929   33.1359   48.3038 H   0  0  0  0  0  0  0  0  0  0  0  0
  1  2  1  0
  2  3  1  0
  3  4  2  0
  4  5  1  0
  5  6  2  0
  6  7  1  0
  7  8  2  0
  7  9  2  0
  7 10  1  0
 10 11  1  0
 11 12  2  0
 12 13  1  0
 13 14  2  0
 14 15  1  0
 15 16  2  0
 16 17  1  0
  6 18  1  0
 18 19  2  0
 19 20  1  0
 20 21  1  0
 21 22  1  0
 21 23  2  0
 21 24  2  0
 19  3  1  0
 16 11  1  0
  1 25  1  0
  1 26  1  0
  1 27  1  0
  4 28  1  0
  5 29  1  0
 12 30  1  0
 13 31  1  0
 14 32  1  0
 15 33  1  0
 18 34  1  0
 20 35  1  0
 22 36  1  0
 22 37  1  0
 22 38  1  0
M  CHG  1  10  -1
M  END
>  <UniqueID>  (13) 
12

>  <SMILES>  (13) 
COc1ccc(S(=O)(=O)[N-]c2ccccc2Br)cc1NS(C)(=O)=O

>  <Energy>  (13) 
40.26204155247895

>  <Genealogy>  (13) 
COc1ccc(S(=O)(=O)[N-]c2ccccc2Br)cc1NS(C)(=O)=O (protonated)
COc1ccc(S(=O)(=O)[N-]c2ccccc2Br)cc1NS(C)(=O)=O (3D coordinates assigned)
COc1ccc(S(=O)(=O)[N-]c2ccccc2Br)cc1NS(C)(=O)=O (optimized conformer: 40.26204155247895 kcal/mol)

>  <smiles>  (13) 
COc1ccc(S(=O)(=O)Nc2ccccc2Br)cc1NS(C)(=O)=O

>  <score_type>  (13) 
oracle

>  <origin>  (13) 
adg

>  <m_score__min__energy>  (13) 
-10.01

>  <m_primary>  (13) 
energy

$$$$
13:0
     RDKit          3D

 55 58  0  0  0  0  0  0  0  0999 V2000
   59.9080   28.4070   48.8300 O   0  0  0  0  0  0  0  0  0  0  0  0
   60.4870   29.1380   47.9800 C   0  0  0  0  0  0  0  0  0  0  0  0
   60.4570   28.7640   46.5950 N   0  0  0  0  0  0  0  0  0  0  0  0
   59.4020   27.9620   46.0400 C   0  0  0  0  0  0  0  0  0  0  0  0
   59.5330   26.5660   46.0480 C   0  0  0  0  0  0  0  0  0  0  0  0
   58.5030   25.7490   45.5650 C   0  0  0  0  0  0  0  0  0  0  0  0
   58.6540   23.9900   45.6370 S   0  0  0  0  0  0  0  0  0  0  0  0
   57.7930   23.4660   46.7520 O   0  0  0  0  0  0  0  0  0  0  0  0
   60.0810   23.6290   45.9420 O   0  0  0  0  0  0  0  0  0  0  0  0
   58.1730   23.2410   44.1320 N   0  0  0  0  0  0  0  0  0  0  0  0
   58.3210   21.7690   44.1820 C   0  0  0  0  0  0  0  0  0  0  0  0
   56.9630   21.0570   44.3340 C   0  0  0  0  0  0  0  0  0  0  0  0
   56.0520   21.3570   43.2840 O   0  0  0  0  0  0  0  0  0  0  0  0
   56.1840   22.6760   42.7660 C   0  0  0  0  0  0  0  0  0  0  0  0
   56.8150   23.6730   43.7510 C   0  0  0  0  0  0  0  0  0  0  0  0
   57.3440   26.3360   45.0410 C   0  0  0  0  0  0  0  0  0  0  0  0
   57.2170   27.7260   44.9990 C   0  0  0  0  0  0  0  0  0  0  0  0
   58.2420   28.5490   45.4840 C   0  0  0  0  0  0  0  0  0  0  0  0
   58.1210   29.9770   45.3630 N   0  0  0  0  0  0  0  0  0  0  0  0
   58.1860   30.8030   46.5720 C   0  0  0  0  0  0  0  0  0  0  0  0
   57.8860   32.2640   46.2370 C   0  0  0  0  0  0  0  0  0  0  0  0
   56.8840   32.3230   45.2450 O   0  0  0  0  0  0  0  0  0  0  0  0
   57.4240   31.9370   43.9930 C   0  0  0  0  0  0  0  0  0  0  0  0
   58.2010   30.5990   44.0370 C   0  0  0  0  0  0  0  0  0  0  0  0
   61.1920   30.3640   48.4260 C   0  0  0  0  0  0  0  0  0  0  0  0
   61.8210   31.2170   47.4990 C   0  0  0  0  0  0  0  0  0  0  0  0
   62.4570   32.3850   47.9280 C   0  0  0  0  0  0  0  0  0  0  0  0
   62.4710   32.7210   49.2840 C   0  0  0  0  0  0  0  0  0  0  0  0
   63.2670   34.1890   49.8180 Cl  0  0  0  0  0  0  0  0  0  0  0  0
   61.8450   31.8850   50.2130 C   0  0  0  0  0  0  0  0  0  0  0  0
   61.2070   30.7170   49.7880 C   0  0  0  0  0  0  0  0  0  0  0  0
   61.3080   28.9350   46.0120 H   0  0  0  0  0  0  0  0  0  0  0  0
   60.4540   26.1078   46.4376 H   0  0  0  0  0  0  0  0  0  0  0  0
   58.7984   21.4283   43.2514 H   0  0  0  0  0  0  0  0  0  0  0  0
   58.9357   21.5190   45.0593 H   0  0  0  0  0  0  0  0  0  0  0  0
   57.1372   19.9709   44.3459 H   0  0  0  0  0  0  0  0  0  0  0  0
   56.5103   21.4135   45.2710 H   0  0  0  0  0  0  0  0  0  0  0  0
   56.8146   22.6328   41.8657 H   0  0  0  0  0  0  0  0  0  0  0  0
   55.1673   23.0382   42.5533 H   0  0  0  0  0  0  0  0  0  0  0  0
   56.8712   24.6635   43.2759 H   0  0  0  0  0  0  0  0  0  0  0  0
   56.1915   23.7186   44.6561 H   0  0  0  0  0  0  0  0  0  0  0  0
   56.5310   25.6997   44.6613 H   0  0  0  0  0  0  0  0  0  0  0  0
   56.3052   28.1783   44.5819 H   0  0  0  0  0  0  0  0  0  0  0  0
   57.4459   30.4388   47.2998 H   0  0  0  0  0  0  0  0  0  0  0  0
   59.1987   30.7352   46.9960 H   0  0  0  0  0  0  0  0  0  0  0  0
   57.5373   32.7835   47.1417 H   0  0  0  0  0  0  0  0  0  0  0  0
   58.7999   32.7499   45.8644 H   0  0  0  0  0  0  0  0  0  0  0  0
   56.5972   31.8351   43.2746 H   0  0  0  0  0  0  0  0  0  0  0  0
   58.1420   32.7165   43.6983 H   0  0  0  0  0  0  0  0  0  0  0  0
   57.7724   29.9116   43.2928 H   0  0  0  0  0  0  0  0  0  0  0  0
   59.2584   30.8052   43.8146 H   0  0  0  0  0  0  0  0  0  0  0  0
   61.8117   30.9620   46.4290 H   0  0  0  0  0  0  0  0  0  0  0  0
   62.9484   33.0422   47.1954 H   0  0  0  0  0  0  0  0  0  0  0  0
   61.8547   32.1473   51.2812 H   0  0  0  0  0  0  0  0  0  0  0  0
   60.7119   30.0674   50.5248 H   0  0  0  0  0  0  0  0  0  0  0  0
  1  2  2  0
  2  3  1  0
  3  4  1  0
  4  5  2  0
  5  6  1  0
  6  7  1  0
  7  8  2  0
  7  9  2  0
  7 10  1  0
 10 11  1  0
 11 12  1  0
 12 13  1  0
 13 14  1  0
 14 15  1  0
  6 16  2  0
 16 17  1  0
 17 18  2  0
 18 19  1  0
 19 20  1  0
 20 21  1  0
 21 22  1  0
 22 23  1  0
 23 24  1  0
  2 25  1  0
 25 26  2  0
 26 27  1  0
 27 28  2  0
 28 29  1  0
 28 30  1  0
 30 31  2  0
 18  4  1  0
 24 19  1  0
 31 25  1  0
 15 10  1  0
  3 32  1  0
  5 33  1  0
 11 34  1  0
 11 35  1  0
 12 36  1  0
 12 37  1  0
 14 38  1  0
 14 39  1  0
 15 40  1  0
 15 41  1  0
 16 42  1  0
 17 43  1  0
 20 44  1  0
 20 45  1  0
 21 46  1  0
 21 47  1  0
 23 48  1  0
 23 49  1  0
 24 50  1  0
 24 51  1  0
 26 52  1  0
 27 53  1  0
 30 54  1  0
 31 55  1  0
M  END
>  <UniqueID>  (14) 
13

>  <SMILES>  (14) 
O=C(Nc1cc(S(=O)(=O)N2CCOCC2)ccc1N1CCOCC1)c1ccc(Cl)cc1

>  <Energy>  (14) 
84.2972768762479

>  <Genealogy>  (14) 
O=C(Nc1cc(S(=O)(=O)N2CCOCC2)ccc1N1CCOCC1)c1ccc(Cl)cc1 (3D coordinates assigned)
O=C(Nc1cc(S(=O)(=O)N2CCOCC2)ccc1N1CCOCC1)c1ccc(Cl)cc1 (nonaromatic ring conformer: 84.2972768762479 kcal/mol)

>  <smiles>  (14) 
O=C(Nc1cc(S(=O)(=O)N2CCOCC2)ccc1N1CCOCC1)c1ccc(Cl)cc1

>  <score_type>  (14) 
oracle

>  <origin>  (14) 
adg

>  <m_score__min__energy>  (14) 
-8.5199999999999996

>  <m_primary>  (14) 
energy

$$$$
14:0
     RDKit          3D

 61 65  0  0  0  0  0  0  0  0999 V2000
   55.8062   29.1904   43.3834 H   0  0  0  0  0  0  0  0  0  0  0  0
   56.4160   29.7300   44.1230 C   0  0  0  0  0  0  0  0  0  0  0  0
   56.2590   31.0680   44.2840 N   0  0  0  0  0  0  0  0  0  0  0  0
   57.0120   31.7600   45.1780 C   0  0  0  0  0  0  0  0  0  0  0  0
   56.8060   33.0360   45.3260 N   0  0  0  0  0  0  0  0  0  0  0  0
   57.8230   34.0490   45.3360 C   0  0  0  0  0  0  0  0  0  0  0  0
   57.7010   35.0360   44.5630 O   0  0  0  0  0  0  0  0  0  0  0  0
   59.0270   33.9390   46.1910 C   0  0  0  0  0  0  0  0  0  0  0  0
   60.2670   33.5890   45.6370 C   0  0  0  0  0  0  0  0  0  0  0  0
   60.3500   33.4009   44.5564 H   0  0  0  0  0  0  0  0  0  0  0  0
   61.3980   33.4780   46.4510 C   0  0  0  0  0  0  0  0  0  0  0  0
   62.3653   33.2023   46.0057 H   0  0  0  0  0  0  0  0  0  0  0  0
   61.3100   33.7150   47.8300 C   0  0  0  0  0  0  0  0  0  0  0  0
   62.5010   33.5210   48.6890 C   0  0  0  0  0  0  0  0  0  0  0  0
   62.3660   33.5270   50.0870 C   0  0  0  0  0  0  0  0  0  0  0  0
   61.3712   33.6586   50.5376 H   0  0  0  0  0  0  0  0  0  0  0  0
   63.4860   33.3670   50.9130 C   0  0  0  0  0  0  0  0  0  0  0  0
   63.3150   33.3960   52.4230 C   0  0  0  0  0  0  0  0  0  0  0  0
   64.0142   34.2146   52.6490 H   0  0  0  0  0  0  0  0  0  0  0  0
   63.4690   32.0360   53.1020 C   0  0  0  0  0  0  0  0  0  0  0  0
   63.6747   31.2078   52.4079 H   0  0  0  0  0  0  0  0  0  0  0  0
   64.2811   31.8614   53.8232 H   0  0  0  0  0  0  0  0  0  0  0  0
   62.0200   32.1100   53.5720 C   0  0  0  0  0  0  0  0  0  0  0  0
   61.3727   31.3254   53.1533 H   0  0  0  0  0  0  0  0  0  0  0  0
   61.7761   31.9879   54.6377 H   0  0  0  0  0  0  0  0  0  0  0  0
   61.8630   33.4690   52.8990 C   0  0  0  0  0  0  0  0  0  0  0  0
   61.1232   33.4850   52.0851 H   0  0  0  0  0  0  0  0  0  0  0  0
   61.5063   34.3377   53.4718 H   0  0  0  0  0  0  0  0  0  0  0  0
   64.7440   33.2000   50.3050 C   0  0  0  0  0  0  0  0  0  0  0  0
   65.6414   33.0847   50.9306 H   0  0  0  0  0  0  0  0  0  0  0  0
   64.8590   33.1800   48.9500 N   0  0  0  0  0  0  0  0  0  0  0  0
   65.8020   33.0420   48.5230 H   0  0  0  0  0  0  0  0  0  0  0  0
   63.7790   33.3310   48.1370 C   0  0  0  0  0  0  0  0  0  0  0  0
   63.9460   33.2680   46.7930 F   0  0  0  0  0  0  0  0  0  0  0  0
   60.0680   34.0780   48.3860 C   0  0  0  0  0  0  0  0  0  0  0  0
   59.9330   34.2620   49.7230 F   0  0  0  0  0  0  0  0  0  0  0  0
   58.9410   34.1990   47.5670 C   0  0  0  0  0  0  0  0  0  0  0  0
   57.9784   34.5008   48.0056 H   0  0  0  0  0  0  0  0  0  0  0  0
   57.9290   31.0990   45.9390 N   0  0  0  0  0  0  0  0  0  0  0  0
   58.1110   29.7540   45.8250 C   0  0  0  0  0  0  0  0  0  0  0  0
   59.0660   29.0890   46.6690 N   0  0  0  0  0  0  0  0  0  0  0  0
   59.9870   28.1070   46.2370 C   0  0  0  0  0  0  0  0  0  0  0  0
   60.2090   27.8310   45.0280 O   0  0  0  0  0  0  0  0  0  0  0  0
   60.6180   27.4710   47.2820 O   0  0  0  0  0  0  0  0  0  0  0  0
   60.1160   27.9740   48.5160 C   0  0  0  0  0  0  0  0  0  0  0  0
   60.9405   28.3416   49.1445 H   0  0  0  0  0  0  0  0  0  0  0  0
   59.5954   27.1943   49.0914 H   0  0  0  0  0  0  0  0  0  0  0  0
   59.1580   29.1460   48.1340 C   0  0  1  0  0  0  0  0  0  0  0  0
   58.1708   29.0456   48.6086 H   0  0  0  0  0  0  0  0  0  0  0  0
   59.7010   30.5190   48.6330 C   0  0  0  0  0  0  0  0  0  0  0  0
   59.6148   31.1973   47.7713 H   0  0  0  0  0  0  0  0  0  0  0  0
   61.1780   30.4410   49.0460 C   0  0  0  0  0  0  0  0  0  0  0  0
   61.2521   30.4371   50.1435 H   0  0  0  0  0  0  0  0  0  0  0  0
   61.6226   29.5181   48.6452 H   0  0  0  0  0  0  0  0  0  0  0  0
   61.7173   31.3119   48.6452 H   0  0  0  0  0  0  0  0  0  0  0  0
   58.8640   31.1120   49.7800 C   0  0  0  0  0  0  0  0  0  0  0  0
   59.2953   30.8064   50.7447 H   0  0  0  0  0  0  0  0  0  0  0  0
   58.8684   32.2096   49.7076 H   0  0  0  0  0  0  0  0  0  0  0  0
   57.8299   30.7439   49.7076 H   0  0  0  0  0  0  0  0  0  0  0  0
   57.3470   29.0400   44.8920 C   0  0  0  0  0  0  0  0  0  0  0  0
   57.4811   27.9550   44.7703 H   0  0  0  0  0  0  0  0  0  0  0  0
  1  2  1  0
  2  3  1  0
  3  4  1  0
  4  5  2  0
  5  6  1  0
  6  7  2  0
  6  8  1  0
  8  9  2  0
  9 10  1  0
  9 11  1  0
 11 12  1  0
 11 13  2  0
 13 14  1  0
 14 15  2  0
 15 16  1  0
 15 17  1  0
 17 18  1  0
 18 19  1  0
 18 20  1  0
 20 21  1  0
 20 22  1  0
 20 23  1  0
 23 24  1  0
 23 25  1  0
 23 26  1  0
 26 27  1  0
 26 28  1  0
 17 29  2  0
 29 30  1  0
 29 31  1  0
 31 32  1  0
 31 33  2  0
 33 34  1  0
 13 35  1  0
 35 36  1  0
 35 37  2  0
 37 38  1  0
  4 39  1  0
 39 40  2  0
 40 41  1  0
 41 42  1  0
 42 43  2  0
 42 44  1  0
 44 45  1  0
 45 46  1  0
 45 47  1  0
 45 48  1  0
 48 49  1  1
 48 50  1  0
 50 51  1  0
 50 52  1  0
 52 53  1  0
 52 54  1  0
 52 55  1  0
 50 56  1  0
 56 57  1  0
 56 58  1  0
 56 59  1  0
 40 60  1  0
 60 61  1  0
 60  2  2  0
 37  8  1  0
 48 41  1  0
 33 14  1  0
 26 18  1  0
M  CHG  2   3  -1  31   1
M  END
>  <UniqueID>  (15) 
14

>  <SMILES>  (15) 
CC(C)[C@@H]1COC(=O)N1c1cc[n-]/c(=N/C(=O)c2ccc(-c3cc(C4CCC4)c[nH+]c3F)c(F)c2)n1

>  <Energy>  (15) 
155.75960542104366

>  <Genealogy>  (15) 
CC(C)C1COC(=O)N1c1cc[n-]c(=NC(=O)c2ccc(-c3cc(C4CCC4)c[nH+]c3F)c(F)c2)n1 (protonated)
CC(C)[C@@H]1COC(=O)N1c1cc[n-]c(=NC(=O)c2ccc(-c3cc(C4CCC4)c[nH+]c3F)c(F)c2)n1 (chirality)
CC(C)[C@@H]1COC(=O)N1c1cc[n-]/c(=N/C(=O)c2ccc(-c3cc(C4CCC4)c[nH+]c3F)c(F)c2)n1 (cis-trans isomerization)
CC(C)[C@@H]1COC(=O)N1c1cc[n-]/c(=N/C(=O)c2ccc(-c3cc(C4CCC4)c[nH+]c3F)c(F)c2)n1 (3D coordinates assigned)
CC(C)[C@@H]1COC(=O)N1c1cc[n-]/c(=N/C(=O)c2ccc(-c3cc(C4CCC4)c[nH+]c3F)c(F)c2)n1 (nonaromatic ring conformer: 155.75960542104366 kcal/mol)

>  <smiles>  (15) 
CC(C)C1COC(=O)N1c1cc[nH]c(=NC(=O)c2ccc(-c3cc(C4CCC4)cnc3F)c(F)c2)n1

>  <score_type>  (15) 
oracle

>  <origin>  (15) 
adg

>  <m_score__min__energy>  (15) 
-9.2799999999999994

>  <m_primary>  (15) 
energy

$$$$
15:0
     RDKit          3D

 42 43  0  0  0  0  0  0  0  0999 V2000
   59.7100   29.0040   44.5110 C   0  0  0  0  0  0  0  0  0  0  0  0
   59.5960   29.0740   46.0110 C   0  0  0  0  0  0  0  0  0  0  0  0
   59.7900   27.9070   46.7670 C   0  0  0  0  0  0  0  0  0  0  0  0
   59.7060   27.9430   48.1570 C   0  0  0  0  0  0  0  0  0  0  0  0
   59.4210   29.1400   48.8130 C   0  0  0  0  0  0  0  0  0  0  0  0
   59.2030   30.3170   48.0790 C   0  0  0  0  0  0  0  0  0  0  0  0
   58.8710   31.5940   48.8020 C   0  0  0  0  0  0  0  0  0  0  0  0
   59.2720   30.2830   46.6690 C   0  0  0  0  0  0  0  0  0  0  0  0
   59.0400   31.4820   45.9150 N   0  0  0  0  0  0  0  0  0  0  0  0
   57.8760   31.6510   45.0950 C   0  0  0  0  0  0  0  0  0  0  0  0
   56.9580   30.7850   45.1180 O   0  0  0  0  0  0  0  0  0  0  0  0
   57.7750   32.8180   44.1510 C   0  0  0  0  0  0  0  0  0  0  0  0
   57.7760   34.1730   44.8760 C   0  0  0  0  0  0  0  0  0  0  0  0
   59.1690   34.6390   45.3220 C   0  0  0  0  0  0  0  0  0  0  0  0
   59.4060   34.3060   46.6920 O   0  0  0  0  0  0  0  0  0  0  0  0
   60.6470   33.9990   47.2740 C   0  0  0  0  0  0  0  0  0  0  0  0
   60.7900   34.1970   48.6540 C   0  0  0  0  0  0  0  0  0  0  0  0
   62.0020   33.9130   49.2910 C   0  0  0  0  0  0  0  0  0  0  0  0
   63.0820   33.4210   48.5540 C   0  0  0  0  0  0  0  0  0  0  0  0
   64.6030   33.0660   49.3520 Cl  0  0  0  0  0  0  0  0  0  0  0  0
   62.9470   33.2060   47.1800 C   0  0  0  0  0  0  0  0  0  0  0  0
   61.7340   33.4880   46.5410 C   0  0  0  0  0  0  0  0  0  0  0  0
   60.6180   28.4464   44.2379 H   0  0  0  0  0  0  0  0  0  0  0  0
   58.8276   28.4918   44.0997 H   0  0  0  0  0  0  0  0  0  0  0  0
   59.7676   30.0226   44.0997 H   0  0  0  0  0  0  0  0  0  0  0  0
   60.0100   26.9571   46.2579 H   0  0  0  0  0  0  0  0  0  0  0  0
   59.8651   27.0235   48.7394 H   0  0  0  0  0  0  0  0  0  0  0  0
   59.3667   29.1623   49.9114 H   0  0  0  0  0  0  0  0  0  0  0  0
   58.9155   31.4229   49.8877 H   0  0  0  0  0  0  0  0  0  0  0  0
   59.5966   32.3724   48.5234 H   0  0  0  0  0  0  0  0  0  0  0  0
   57.8581   31.9204   48.5234 H   0  0  0  0  0  0  0  0  0  0  0  0
   59.7200   32.2690   46.0110 H   0  0  0  0  0  0  0  0  0  0  0  0
   58.6318   32.7876   43.4619 H   0  0  0  0  0  0  0  0  0  0  0  0
   56.8177   32.7294   43.6165 H   0  0  0  0  0  0  0  0  0  0  0  0
   57.3589   34.9301   44.1957 H   0  0  0  0  0  0  0  0  0  0  0  0
   57.1742   34.0474   45.7882 H   0  0  0  0  0  0  0  0  0  0  0  0
   59.9296   34.1496   44.6960 H   0  0  0  0  0  0  0  0  0  0  0  0
   59.2249   35.7321   45.2121 H   0  0  0  0  0  0  0  0  0  0  0  0
   59.9417   34.5790   49.2410 H   0  0  0  0  0  0  0  0  0  0  0  0
   62.1052   34.0772   50.3738 H   0  0  0  0  0  0  0  0  0  0  0  0
   63.7954   32.8145   46.5995 H   0  0  0  0  0  0  0  0  0  0  0  0
   61.6300   33.3093   45.4606 H   0  0  0  0  0  0  0  0  0  0  0  0
  1  2  1  0
  2  3  2  0
  3  4  1  0
  4  5  2  0
  5  6  1  0
  6  7  1  0
  6  8  2  0
  8  9  1  0
  9 10  1  0
 10 11  2  0
 10 12  1  0
 12 13  1  0
 13 14  1  0
 14 15  1  0
 15 16  1  0
 16 17  2  0
 17 18  1  0
 18 19  2  0
 19 20  1  0
 19 21  1  0
 21 22  2  0
  8  2  1  0
 22 16  1  0
  1 23  1  0
  1 24  1  0
  1 25  1  0
  3 26  1  0
  4 27  1  0
  5 28  1  0
  7 29  1  0
  7 30  1  0
  7 31  1  0
  9 32  1  0
 12 33  1  0
 12 34  1  0
 13 35  1  0
 13 36  1  0
 14 37  1  0
 14 38  1  0
 17 39  1  0
 18 40  1  0
 21 41  1  0
 22 42  1  0
M  END
>  <UniqueID>  (16) 
15

>  <SMILES>  (16) 
Cc1cccc(C)c1NC(=O)CCCOc1ccc(Cl)cc1

>  <Energy>  (16) 
45.140246308797

>  <Genealogy>  (16) 
Cc1cccc(C)c1NC(=O)CCCOc1ccc(Cl)cc1 (3D coordinates assigned)
Cc1cccc(C)c1NC(=O)CCCOc1ccc(Cl)cc1 (optimized conformer: 45.140246308797 kcal/mol)

>  <smiles>  (16) 
Cc1cccc(C)c1NC(=O)CCCOc1ccc(Cl)cc1

>  <score_type>  (16) 
oracle

>  <origin>  (16) 
adg

>  <m_score__min__energy>  (16) 
-7.6500000000000004

>  <m_primary>  (16) 
energy

$$$$
16:0
     RDKit          3D

 49 51  0  0  0  0  0  0  0  0999 V2000
   55.1680   29.3160   44.8670 O   0  0  0  0  0  0  0  0  0  0  0  0
   56.4230   29.4160   44.8160 C   0  0  0  0  0  0  0  0  0  0  0  0
   57.2500   28.4070   45.4110 N   0  0  0  0  0  0  0  0  0  0  0  0
   58.4580   28.6160   46.1550 C   0  0  0  0  0  0  0  0  0  0  0  0
   58.4470   28.3960   47.5350 C   0  0  0  0  0  0  0  0  0  0  0  0
   59.5990   28.6180   48.2920 C   0  0  0  0  0  0  0  0  0  0  0  0
   60.7540   29.0790   47.6560 C   0  0  0  0  0  0  0  0  0  0  0  0
   60.7460   29.3130   46.3170 N   0  0  0  0  0  0  0  0  0  0  0  0
   59.6380   29.0980   45.5580 C   0  0  0  0  0  0  0  0  0  0  0  0
   57.0450   30.6070   44.1900 C   0  0  0  0  0  0  0  0  0  0  0  0
   57.0290   30.7690   42.7920 C   0  0  0  0  0  0  0  0  0  0  0  0
   57.6150   31.8920   42.2030 C   0  0  0  0  0  0  0  0  0  0  0  0
   58.2180   32.8680   42.9990 C   0  0  0  0  0  0  0  0  0  0  0  0
   58.2410   32.7250   44.3910 C   0  0  0  0  0  0  0  0  0  0  0  0
   58.9530   33.9970   45.3820 S   0  0  0  0  0  0  0  0  0  0  0  0
   58.5680   35.3330   44.8110 O   0  0  0  0  0  0  0  0  0  0  0  0
   60.4530   33.8900   45.3690 O   0  0  0  0  0  0  0  0  0  0  0  0
   58.3580   33.8850   47.0690 C   0  0  0  0  0  0  0  0  0  0  0  0
   59.1110   32.8410   47.9090 C   0  0  0  0  0  0  0  0  0  0  0  0
   60.4110   33.3710   48.5380 C   0  0  0  0  0  0  0  0  0  0  0  0
   61.4730   32.3380   48.5090 N   0  0  0  0  0  0  0  0  0  0  0  0
   62.4890   32.5460   49.5600 C   0  0  0  0  0  0  0  0  0  0  0  0
   63.4000   33.7590   49.2510 C   0  0  0  0  0  0  0  0  0  0  0  0
   63.2230   34.2530   47.9350 O   0  0  0  0  0  0  0  0  0  0  0  0
   63.3060   33.1920   47.0080 C   0  0  0  0  0  0  0  0  0  0  0  0
   62.1150   32.2170   47.1780 C   0  0  0  0  0  0  0  0  0  0  0  0
   57.6560   31.5960   44.9840 C   0  0  0  0  0  0  0  0  0  0  0  0
   57.5272   28.0466   48.0268 H   0  0  0  0  0  0  0  0  0  0  0  0
   59.5970   28.4321   49.3762 H   0  0  0  0  0  0  0  0  0  0  0  0
   61.6705   29.2528   48.2390 H   0  0  0  0  0  0  0  0  0  0  0  0
   59.6641   29.3009   44.4772 H   0  0  0  0  0  0  0  0  0  0  0  0
   56.5519   30.0063   42.1590 H   0  0  0  0  0  0  0  0  0  0  0  0
   57.6014   32.0077   41.1092 H   0  0  0  0  0  0  0  0  0  0  0  0
   58.6762   33.7516   42.5307 H   0  0  0  0  0  0  0  0  0  0  0  0
   58.4752   34.8688   47.5470 H   0  0  0  0  0  0  0  0  0  0  0  0
   57.3050   33.5702   47.0238 H   0  0  0  0  0  0  0  0  0  0  0  0
   58.4471   32.5025   48.7181 H   0  0  0  0  0  0  0  0  0  0  0  0
   59.3940   32.0251   47.2277 H   0  0  0  0  0  0  0  0  0  0  0  0
   60.7505   34.2523   47.9740 H   0  0  0  0  0  0  0  0  0  0  0  0
   60.2102   33.6387   49.5859 H   0  0  0  0  0  0  0  0  0  0  0  0
   61.9784   32.7199   50.5187 H   0  0  0  0  0  0  0  0  0  0  0  0
   63.1218   31.6473   49.6048 H   0  0  0  0  0  0  0  0  0  0  0  0
   63.1680   34.5642   49.9636 H   0  0  0  0  0  0  0  0  0  0  0  0
   64.4435   33.4235   49.3430 H   0  0  0  0  0  0  0  0  0  0  0  0
   63.2925   33.6030   45.9877 H   0  0  0  0  0  0  0  0  0  0  0  0
   64.2407   32.6405   47.1870 H   0  0  0  0  0  0  0  0  0  0  0  0
   61.3657   32.4356   46.4029 H   0  0  0  0  0  0  0  0  0  0  0  0
   62.5036   31.1922   47.0842 H   0  0  0  0  0  0  0  0  0  0  0  0
   57.6749   31.4827   46.0780 H   0  0  0  0  0  0  0  0  0  0  0  0
  1  2  2  0
  2  3  1  0
  3  4  1  0
  4  5  2  0
  5  6  1  0
  6  7  2  0
  7  8  1  0
  8  9  2  0
  2 10  1  0
 10 11  2  0
 11 12  1  0
 12 13  2  0
 13 14  1  0
 14 15  1  0
 15 16  2  0
 15 17  2  0
 15 18  1  0
 18 19  1  0
 19 20  1  0
 20 21  1  0
 21 22  1  0
 22 23  1  0
 23 24  1  0
 24 25  1  0
 25 26  1  0
 14 27  2  0
  9  4  1  0
 27 10  1  0
 26 21  1  0
  5 28  1  0
  6 29  1  0
  7 30  1  0
  9 31  1  0
 11 32  1  0
 12 33  1  0
 13 34  1  0
 18 35  1  0
 18 36  1  0
 19 37  1  0
 19 38  1  0
 20 39  1  0
 20 40  1  0
 22 41  1  0
 22 42  1  0
 23 43  1  0
 23 44  1  0
 25 45  1  0
 25 46  1  0
 26 47  1  0
 26 48  1  0
 27 49  1  0
M  CHG  1   3  -1
M  END
>  <UniqueID>  (17) 
16

>  <SMILES>  (17) 
O=C([N-]c1cccnc1)c1cccc(S(=O)(=O)CCCN2CCOCC2)c1

>  <Energy>  (17) 
62.01528497208242

>  <Genealogy>  (17) 
O=C([N-]c1cccnc1)c1cccc(S(=O)(=O)CCCN2CCOCC2)c1 (protonated)
O=C([N-]c1cccnc1)c1cccc(S(=O)(=O)CCCN2CCOCC2)c1 (3D coordinates assigned)
O=C([N-]c1cccnc1)c1cccc(S(=O)(=O)CCCN2CCOCC2)c1 (nonaromatic ring conformer: 62.01528497208242 kcal/mol)

>  <smiles>  (17) 
O=C(Nc1cccnc1)c1cccc(S(=O)(=O)CCCN2CCOCC2)c1

>  <score_type>  (17) 
oracle

>  <origin>  (17) 
adg

>  <m_score__min__energy>  (17) 
-11.039999999999999

>  <m_primary>  (17) 
energy

$$$$
17:0
     RDKit          3D

 44 46  0  0  0  0  0  0  0  0999 V2000
   55.9670   25.4800   45.6820 C   0  0  0  0  0  0  0  0  0  0  0  0
   56.3200   26.7840   46.1460 O   0  0  0  0  0  0  0  0  0  0  0  0
   57.6280   27.2490   46.3430 C   0  0  0  0  0  0  0  0  0  0  0  0
   58.3650   26.9400   47.5040 C   0  0  0  0  0  0  0  0  0  0  0  0
   59.6830   27.3890   47.6450 C   0  0  0  0  0  0  0  0  0  0  0  0
   60.2680   28.1680   46.6450 C   0  0  0  0  0  0  0  0  0  0  0  0
   59.5360   28.5020   45.4990 C   0  0  0  0  0  0  0  0  0  0  0  0
   58.2210   28.0290   45.3340 C   0  0  0  0  0  0  0  0  0  0  0  0
   57.4670   28.3030   44.1430 N   0  0  0  0  0  0  0  0  0  0  0  0
   56.4080   29.6630   43.9520 S   0  0  0  0  0  0  0  0  0  0  0  0
   55.2370   29.5330   44.8930 O   0  0  0  0  0  0  0  0  0  0  0  0
   55.8970   29.6990   42.5370 O   0  0  0  0  0  0  0  0  0  0  0  0
   57.3160   31.1430   44.2520 C   0  0  0  0  0  0  0  0  0  0  0  0
   57.6280   31.9860   43.1790 C   0  0  0  0  0  0  0  0  0  0  0  0
   58.4170   33.1200   43.3820 C   0  0  0  0  0  0  0  0  0  0  0  0
   58.9000   33.4190   44.6590 C   0  0  0  0  0  0  0  0  0  0  0  0
   58.5780   32.5920   45.7510 C   0  0  0  0  0  0  0  0  0  0  0  0
   59.1110   32.8420   47.0640 N   0  0  0  0  0  0  0  0  0  0  0  0
   59.5160   34.1350   47.5460 C   0  0  0  0  0  0  0  0  0  0  0  0
   59.0880   35.1830   46.9900 O   0  0  0  0  0  0  0  0  0  0  0  0
   60.3450   34.2250   48.7190 N   0  0  0  0  0  0  0  0  0  0  0  0
   61.7290   33.8350   48.8130 C   0  0  0  0  0  0  0  0  0  0  0  0
   62.4310   33.5370   47.6400 C   0  0  0  0  0  0  0  0  0  0  0  0
   63.7750   33.1610   47.7060 C   0  0  0  0  0  0  0  0  0  0  0  0
   64.4080   33.0890   48.9520 C   0  0  0  0  0  0  0  0  0  0  0  0
   63.7240   33.4110   50.0820 N   0  0  0  0  0  0  0  0  0  0  0  0
   62.4160   33.7880   50.0430 C   0  0  0  0  0  0  0  0  0  0  0  0
   57.7920   31.4490   45.5360 C   0  0  0  0  0  0  0  0  0  0  0  0
   55.7884   24.8201   46.5437 H   0  0  0  0  0  0  0  0  0  0  0  0
   55.0535   25.5425   45.0725 H   0  0  0  0  0  0  0  0  0  0  0  0
   56.7873   25.0732   45.0725 H   0  0  0  0  0  0  0  0  0  0  0  0
   57.9019   26.3429   48.3034 H   0  0  0  0  0  0  0  0  0  0  0  0
   60.2589   27.1277   48.5451 H   0  0  0  0  0  0  0  0  0  0  0  0
   61.3043   28.5195   46.7574 H   0  0  0  0  0  0  0  0  0  0  0  0
   59.9909   29.1369   44.7244 H   0  0  0  0  0  0  0  0  0  0  0  0
   57.2502   31.7543   42.1722 H   0  0  0  0  0  0  0  0  0  0  0  0
   58.6589   33.7792   42.5353 H   0  0  0  0  0  0  0  0  0  0  0  0
   59.5346   34.3046   44.8111 H   0  0  0  0  0  0  0  0  0  0  0  0
   59.2060   32.0350   47.7230 H   0  0  0  0  0  0  0  0  0  0  0  0
   61.9246   33.5988   46.6655 H   0  0  0  0  0  0  0  0  0  0  0  0
   64.3306   32.9237   46.7868 H   0  0  0  0  0  0  0  0  0  0  0  0
   65.4593   32.7718   49.0172 H   0  0  0  0  0  0  0  0  0  0  0  0
   61.8943   34.0565   50.9735 H   0  0  0  0  0  0  0  0  0  0  0  0
   57.5473   30.7881   46.3806 H   0  0  0  0  0  0  0  0  0  0  0  0
  1  2  1  0
  2  3  1  0
  3  4  2  0
  4  5  1  0
  5  6  2  0
  6  7  1  0
  7  8  2  0
  8  9  1  0
  9 10  1  0
 10 11  2  0
 10 12  2  0
 10 13  1  0
 13 14  2  0
 14 15  1  0
 15 16  2  0
 16 17  1  0
 17 18  1  0
 18 19  1  0
 19 20  2  0
 19 21  1  0
 21 22  1  0
 22 23  2  0
 23 24  1  0
 24 25  2  0
 25 26  1  0
 26 27  2  0
 17 28  2  0
  8  3  1  0
 28 13  1  0
 27 22  1  0
  1 29  1  0
  1 30  1  0
  1 31  1  0
  4 32  1  0
  5 33  1  0
  6 34  1  0
  7 35  1  0
 14 36  1  0
 15 37  1  0
 16 38  1  0
 18 39  1  0
 23 40  1  0
 24 41  1  0
 25 42  1  0
 27 43  1  0
 28 44  1  0
M  CHG  2   9  -1  21  -1
M  END
>  <UniqueID>  (18) 
17

>  <SMILES>  (18) 
COc1ccccc1[N-]S(=O)(=O)c1cccc(NC(=O)[N-]c2cccnc2)c1

>  <Energy>  (18) 
58.07716167737798

>  <Genealogy>  (18) 
COc1ccccc1[N-]S(=O)(=O)c1cccc(NC(=O)[N-]c2cccnc2)c1 (protonated)
COc1ccccc1[N-]S(=O)(=O)c1cccc(NC(=O)[N-]c2cccnc2)c1 (3D coordinates assigned)
COc1ccccc1[N-]S(=O)(=O)c1cccc(NC(=O)[N-]c2cccnc2)c1 (optimized conformer: 58.07716167737798 kcal/mol)

>  <smiles>  (18) 
COc1ccccc1NS(=O)(=O)c1cccc(NC(=O)Nc2cccnc2)c1

>  <score_type>  (18) 
oracle

>  <origin>  (18) 
adg

>  <m_score__min__energy>  (18) 
-12.18

>  <m_primary>  (18) 
energy

$$$$
18:0
     RDKit          3D

 39 41  0  0  0  0  0  0  0  0999 V2000
   57.0840   31.4350   43.3000 C   0  0  0  0  0  0  0  0  0  0  0  0
   57.8270   31.0880   44.5550 C   0  0  0  0  0  0  0  0  0  0  0  0
   58.8740   31.8470   44.9890 N   0  0  0  0  0  0  0  0  0  0  0  0
   59.4230   31.3770   46.1320 C   0  0  0  0  0  0  0  0  0  0  0  0
   60.5540   31.9790   46.7920 N   0  0  0  0  0  0  0  0  0  0  0  0
   61.3380   31.2000   47.5970 C   0  0  0  0  0  0  0  0  0  0  0  0
   62.4510   31.7370   48.2490 C   0  0  0  0  0  0  0  0  0  0  0  0
   62.7660   33.0920   48.0830 C   0  0  0  0  0  0  0  0  0  0  0  0
   63.8660   33.7000   48.7080 O   0  0  0  0  0  0  0  0  0  0  0  0
   64.1000   33.7320   50.1170 C   0  0  0  0  0  0  0  0  0  0  0  0
   65.1680   32.7430   50.5050 C   0  0  0  0  0  0  0  0  0  0  0  0
   64.8110   31.4520   50.9280 C   0  0  0  0  0  0  0  0  0  0  0  0
   65.7980   30.5340   51.2990 C   0  0  0  0  0  0  0  0  0  0  0  0
   67.1460   30.9010   51.2580 C   0  0  0  0  0  0  0  0  0  0  0  0
   67.5080   32.1870   50.8510 C   0  0  0  0  0  0  0  0  0  0  0  0
   66.5240   33.1090   50.4800 C   0  0  0  0  0  0  0  0  0  0  0  0
   61.9530   33.8770   47.2630 C   0  0  0  0  0  0  0  0  0  0  0  0
   60.8430   33.3110   46.6280 C   0  0  0  0  0  0  0  0  0  0  0  0
   60.1030   34.0520   45.9240 O   0  0  0  0  0  0  0  0  0  0  0  0
   58.6380   29.9820   46.6510 S   0  0  0  0  0  0  0  0  0  0  0  0
   57.5390   29.9820   45.3710 C   0  0  0  0  0  0  0  0  0  0  0  0
   56.4870   28.9610   45.1950 C   0  0  0  0  0  0  0  0  0  0  0  0
   55.1460   29.3290   44.8780 N   0  0  0  0  0  0  0  0  0  0  0  0
   56.7760   27.7420   45.3250 O   0  0  0  0  0  0  0  0  0  0  0  0
   56.1157   31.8872   43.5603 H   0  0  0  0  0  0  0  0  0  0  0  0
   57.6756   32.1500   42.7094 H   0  0  0  0  0  0  0  0  0  0  0  0
   56.9155   30.5224   42.7094 H   0  0  0  0  0  0  0  0  0  0  0  0
   59.2320   32.6820   44.4750 H   0  0  0  0  0  0  0  0  0  0  0  0
   61.0894   30.1371   47.7330 H   0  0  0  0  0  0  0  0  0  0  0  0
   63.0771   31.0987   48.8898 H   0  0  0  0  0  0  0  0  0  0  0  0
   64.4228   34.7431   50.4060 H   0  0  0  0  0  0  0  0  0  0  0  0
   63.1673   33.4648   50.6353 H   0  0  0  0  0  0  0  0  0  0  0  0
   63.7506   31.1621   50.9675 H   0  0  0  0  0  0  0  0  0  0  0  0
   65.5135   29.5222   51.6234 H   0  0  0  0  0  0  0  0  0  0  0  0
   67.9220   30.1767   51.5464 H   0  0  0  0  0  0  0  0  0  0  0  0
   68.5692   32.4753   50.8222 H   0  0  0  0  0  0  0  0  0  0  0  0
   66.8127   34.1235   50.1678 H   0  0  0  0  0  0  0  0  0  0  0  0
   62.1859   34.9420   47.1163 H   0  0  0  0  0  0  0  0  0  0  0  0
   54.4110   29.3650   45.6170 H   0  0  0  0  0  0  0  0  0  0  0  0
  1  2  1  0
  2  3  1  0
  3  4  2  0
  4  5  1  0
  5  6  1  0
  6  7  2  0
  7  8  1  0
  8  9  1  0
  9 10  1  0
 10 11  1  0
 11 12  2  0
 12 13  1  0
 13 14  2  0
 14 15  1  0
 15 16  2  0
  8 17  2  0
 17 18  1  0
 18 19  2  0
  4 20  1  0
 20 21  1  0
 21 22  1  0
 22 23  1  0
 22 24  2  0
 21  2  2  0
 18  5  1  0
 16 11  1  0
  1 25  1  0
  1 26  1  0
  1 27  1  0
  3 28  1  0
  6 29  1  0
  7 30  1  0
 10 31  1  0
 10 32  1  0
 12 33  1  0
 13 34  1  0
 14 35  1  0
 15 36  1  0
 16 37  1  0
 17 38  1  0
 23 39  1  0
M  CHG  2   3   1  23  -1
M  END
>  <UniqueID>  (19) 
18

>  <SMILES>  (19) 
Cc1[nH+]c(-n2ccc(OCc3ccccc3)cc2=O)sc1C([NH-])=O

>  <Energy>  (19) 
77.27738575386128

>  <Genealogy>  (19) 
Cc1[nH+]c(-n2ccc(OCc3ccccc3)cc2=O)sc1C([NH-])=O (protonated)
Cc1[nH+]c(-n2ccc(OCc3ccccc3)cc2=O)sc1C([NH-])=O (3D coordinates assigned)
Cc1[nH+]c(-n2ccc(OCc3ccccc3)cc2=O)sc1C([NH-])=O (optimized conformer: 77.27738575386128 kcal/mol)

>  <smiles>  (19) 
Cc1nc(-n2ccc(OCc3ccccc3)cc2=O)sc1C(N)=O

>  <score_type>  (19) 
oracle

>  <origin>  (19) 
adg

>  <m_score__min__energy>  (19) 
-8.4600000000000009

>  <m_primary>  (19) 
energy

$$$$
19:0
     RDKit          3D

 33 35  0  0  0  0  0  0  0  0999 V2000
   60.0260   34.5840   48.8530 C   0  0  0  0  0  0  0  0  0  0  0  0
   59.4550   34.8980   47.5880 O   0  0  0  0  0  0  0  0  0  0  0  0
   58.9600   33.9460   46.6850 C   0  0  0  0  0  0  0  0  0  0  0  0
   58.4390   32.7380   47.2050 C   0  0  0  0  0  0  0  0  0  0  0  0
   57.9270   31.7440   46.3520 C   0  0  0  0  0  0  0  0  0  0  0  0
   57.9510   31.9890   44.9780 C   0  0  0  0  0  0  0  0  0  0  0  0
   58.4550   33.1560   44.4670 C   0  0  0  0  0  0  0  0  0  0  0  0
   58.3480   33.0900   43.0930 C   0  0  0  0  0  0  0  0  0  0  0  0
   57.7690   31.8530   42.8280 C   0  0  0  0  0  0  0  0  0  0  0  0
   57.5300   31.1880   43.9820 N   0  0  0  0  0  0  0  0  0  0  0  0
   56.8470   29.6010   44.1250 S   0  0  0  0  0  0  0  0  0  0  0  0
   56.6060   29.0230   42.7600 O   0  0  0  0  0  0  0  0  0  0  0  0
   55.5360   29.7010   44.8540 O   0  0  0  0  0  0  0  0  0  0  0  0
   57.9610   28.5570   45.0010 C   0  0  0  0  0  0  0  0  0  0  0  0
   59.3440   28.7680   44.9010 C   0  0  0  0  0  0  0  0  0  0  0  0
   60.2310   27.9460   45.6010 C   0  0  0  0  0  0  0  0  0  0  0  0
   59.7430   26.9090   46.4010 C   0  0  0  0  0  0  0  0  0  0  0  0
   58.3650   26.6910   46.4990 C   0  0  0  0  0  0  0  0  0  0  0  0
   57.4750   27.5120   45.8000 C   0  0  0  0  0  0  0  0  0  0  0  0
   58.9680   34.1590   45.2850 C   0  0  0  0  0  0  0  0  0  0  0  0
   59.3653   34.9473   49.6539 H   0  0  0  0  0  0  0  0  0  0  0  0
   60.1443   33.4940   48.9415 H   0  0  0  0  0  0  0  0  0  0  0  0
   61.0098   35.0680   48.9415 H   0  0  0  0  0  0  0  0  0  0  0  0
   58.4343   32.5737   48.2927 H   0  0  0  0  0  0  0  0  0  0  0  0
   57.5209   30.8042   46.7544 H   0  0  0  0  0  0  0  0  0  0  0  0
   58.6551   33.8530   42.3626 H   0  0  0  0  0  0  0  0  0  0  0  0
   57.5383   31.4699   41.8230 H   0  0  0  0  0  0  0  0  0  0  0  0
   59.7310   29.5820   44.2704 H   0  0  0  0  0  0  0  0  0  0  0  0
   61.3150   28.1153   45.5223 H   0  0  0  0  0  0  0  0  0  0  0  0
   60.4426   26.2645   46.9534 H   0  0  0  0  0  0  0  0  0  0  0  0
   57.9812   25.8731   47.1264 H   0  0  0  0  0  0  0  0  0  0  0  0
   56.3916   27.3379   45.8769 H   0  0  0  0  0  0  0  0  0  0  0  0
   59.3679   35.0898   44.8563 H   0  0  0  0  0  0  0  0  0  0  0  0
  1  2  1  0
  2  3  1  0
  3  4  2  0
  4  5  1  0
  5  6  2  0
  6  7  1  0
  7  8  1  0
  8  9  2  0
  9 10  1  0
 10 11  1  0
 11 12  2  0
 11 13  2  0
 11 14  1  0
 14 15  2  0
 15 16  1  0
 16 17  2  0
 17 18  1  0
 18 19  2  0
  7 20  2  0
 20  3  1  0
 10  6  1  0
 19 14  1  0
  1 21  1  0
  1 22  1  0
  1 23  1  0
  4 24  1  0
  5 25  1  0
  8 26  1  0
  9 27  1  0
 15 28  1  0
 16 29  1  0
 17 30  1  0
 18 31  1  0
 19 32  1  0
 20 33  1  0
M  END
>  <UniqueID>  (20) 
19

>  <SMILES>  (20) 
COc1ccc2c(ccn2S(=O)(=O)c2ccccc2)c1

>  <Energy>  (20) 
69.61258777701885

>  <Genealogy>  (20) 
COc1ccc2c(ccn2S(=O)(=O)c2ccccc2)c1 (3D coordinates assigned)
COc1ccc2c(ccn2S(=O)(=O)c2ccccc2)c1 (optimized conformer: 69.61258777701885 kcal/mol)

>  <smiles>  (20) 
COc1ccc2c(ccn2S(=O)(=O)c2ccccc2)c1

>  <score_type>  (20) 
oracle

>  <origin>  (20) 
adg

>  <m_score__min__energy>  (20) 
-7.2999999999999998

>  <m_primary>  (20) 
energy

$$$$
20:0
     RDKit          3D

 67 71  0  0  0  0  0  0  0  0999 V2000
   63.3056   34.0064   45.9625 H   0  0  0  0  0  0  0  0  0  0  0  0
   62.5020   33.7540   46.6700 C   0  0  0  0  0  0  0  0  0  0  0  0
   61.1800   34.0970   46.3750 C   0  0  0  0  0  0  0  0  0  0  0  0
   60.9441   34.6060   45.4288 H   0  0  0  0  0  0  0  0  0  0  0  0
   60.1500   33.7940   47.2830 C   0  0  0  0  0  0  0  0  0  0  0  0
   58.7760   34.0830   46.9930 N   0  0  0  0  0  0  0  0  0  0  0  0
   58.1030   33.9430   45.7340 C   0  0  0  0  0  0  0  0  0  0  0  0
   58.1740   34.8870   44.9040 O   0  0  0  0  0  0  0  0  0  0  0  0
   57.3660   32.6890   45.3430 C   0  0  0  0  0  0  0  0  0  0  0  0
   57.1453   32.1047   46.2485 H   0  0  0  0  0  0  0  0  0  0  0  0
   56.4352   32.9756   44.8317 H   0  0  0  0  0  0  0  0  0  0  0  0
   58.1750   31.8620   44.4190 N   0  0  0  0  0  0  0  0  0  0  0  0
   57.5000   31.6890   43.1230 C   0  0  0  0  0  0  0  0  0  0  0  0
   56.8591   32.5588   42.9164 H   0  0  0  0  0  0  0  0  0  0  0  0
   58.2404   31.6021   42.3141 H   0  0  0  0  0  0  0  0  0  0  0  0
   56.6500   30.4270   43.2020 C   0  0  0  0  0  0  0  0  0  0  0  0
   55.5897   30.6856   43.3393 H   0  0  0  0  0  0  0  0  0  0  0  0
   56.7175   29.8309   42.2800 H   0  0  0  0  0  0  0  0  0  0  0  0
   57.1700   29.6630   44.4060 C   0  0  0  0  0  0  0  0  0  0  0  0
   56.3844   29.5656   45.1698 H   0  0  0  0  0  0  0  0  0  0  0  0
   57.4832   28.6423   44.1414 H   0  0  0  0  0  0  0  0  0  0  0  0
   58.3300   30.4950   44.9360 C   0  0  0  0  0  0  0  0  0  0  0  0
   58.3107   30.5064   46.0358 H   0  0  0  0  0  0  0  0  0  0  0  0
   59.2899   30.0675   44.6106 H   0  0  0  0  0  0  0  0  0  0  0  0
   60.4570   33.1070   48.4640 C   0  0  0  0  0  0  0  0  0  0  0  0
   59.6500   32.8287   49.1578 H   0  0  0  0  0  0  0  0  0  0  0  0
   61.7850   32.7700   48.7710 C   0  0  0  0  0  0  0  0  0  0  0  0
   62.0960   31.9990   50.0270 C   0  0  0  0  0  0  0  0  0  0  0  0
   62.7794   31.1719   49.7845 H   0  0  0  0  0  0  0  0  0  0  0  0
   62.5659   32.6772   50.7545 H   0  0  0  0  0  0  0  0  0  0  0  0
   60.8640   31.4530   50.6120 N   0  0  0  0  0  0  0  0  0  0  0  0
   60.9730   31.3590   51.6490 H   0  0  0  0  0  0  0  0  0  0  0  0
   60.0730   32.1140   50.4330 H   0  0  0  0  0  0  0  0  0  0  0  0
   60.5690   30.1630   50.0410 C   0  0  0  0  0  0  0  0  0  0  0  0
   61.2460   29.0040   50.4950 C   0  0  0  0  0  0  0  0  0  0  0  0
   62.0013   29.0929   51.2897 H   0  0  0  0  0  0  0  0  0  0  0  0
   60.9650   27.7420   49.9430 C   0  0  0  0  0  0  0  0  0  0  0  0
   61.5010   26.8466   50.2909 H   0  0  0  0  0  0  0  0  0  0  0  0
   59.9940   27.6460   48.9460 C   0  0  0  0  0  0  0  0  0  0  0  0
   59.6350   26.4880   48.3320 N   0  0  0  0  0  0  0  0  0  0  0  0
   58.6610   26.7060   47.4160 C   0  0  0  0  0  0  0  0  0  0  0  0
   58.1760   25.7370   46.6950 N   0  0  0  0  0  0  0  0  0  0  0  0
   56.8920   25.6860   46.0500 C   0  0  0  0  0  0  0  0  0  0  0  0
   55.9320   26.4000   46.4450 O   0  0  0  0  0  0  0  0  0  0  0  0
   56.6960   24.7900   44.8560 C   0  0  0  0  0  0  0  0  0  0  0  0
   56.7728   25.4118   43.9519 H   0  0  0  0  0  0  0  0  0  0  0  0
   57.8020   23.7100   44.8040 C   0  0  0  0  0  0  0  0  0  0  0  0
   58.6940   24.1472   44.3316 H   0  0  0  0  0  0  0  0  0  0  0  0
   57.9929   23.3914   45.8394 H   0  0  0  0  0  0  0  0  0  0  0  0
   57.3950   22.4520   44.0090 C   0  0  0  0  0  0  0  0  0  0  0  0
   58.2883   22.0354   43.5206 H   0  0  0  0  0  0  0  0  0  0  0  0
   56.9557   21.7305   44.7136 H   0  0  0  0  0  0  0  0  0  0  0  0
   56.3470   22.7680   42.9380 C   0  0  0  0  0  0  0  0  0  0  0  0
   56.7638   23.5072   42.2381 H   0  0  0  0  0  0  0  0  0  0  0  0
   56.0945   21.8324   42.4176 H   0  0  0  0  0  0  0  0  0  0  0  0
   55.0540   23.3390   43.5580 C   0  0  0  0  0  0  0  0  0  0  0  0
   54.5742   23.9969   42.8185 H   0  0  0  0  0  0  0  0  0  0  0  0
   54.4188   22.4826   43.8282 H   0  0  0  0  0  0  0  0  0  0  0  0
   55.2970   24.1500   44.8490 C   0  0  0  0  0  0  0  0  0  0  0  0
   54.5397   24.9447   44.9201 H   0  0  0  0  0  0  0  0  0  0  0  0
   55.2260   23.4646   45.7064 H   0  0  0  0  0  0  0  0  0  0  0  0
   58.2130   28.3450   47.3310 S   0  0  0  0  0  0  0  0  0  0  0  0
   59.3180   28.7770   48.5190 C   0  0  0  0  0  0  0  0  0  0  0  0
   59.5810   30.0400   49.0390 C   0  0  0  0  0  0  0  0  0  0  0  0
   59.0323   30.9225   48.6783 H   0  0  0  0  0  0  0  0  0  0  0  0
   62.8050   33.0910   47.8620 C   0  0  0  0  0  0  0  0  0  0  0  0
   63.8466   32.8197   48.0888 H   0  0  0  0  0  0  0  0  0  0  0  0
  1  2  1  0
  2  3  2  0
  3  4  1  0
  3  5  1  0
  5  6  1  0
  6  7  1  0
  7  8  2  0
  7  9  1  0
  9 10  1  0
  9 11  1  0
  9 12  1  0
 12 13  1  0
 13 14  1  0
 13 15  1  0
 13 16  1  0
 16 17  1  0
 16 18  1  0
 16 19  1  0
 19 20  1  0
 19 21  1  0
 19 22  1  0
 22 23  1  0
 22 24  1  0
  5 25  2  0
 25 26  1  0
 25 27  1  0
 27 28  1  0
 28 29  1  0
 28 30  1  0
 28 31  1  0
 31 32  1  0
 31 33  1  0
 31 34  1  0
 34 35  2  0
 35 36  1  0
 35 37  1  0
 37 38  1  0
 37 39  2  0
 39 40  1  0
 40 41  1  0
 41 42  2  0
 42 43  1  0
 43 44  2  0
 43 45  1  0
 45 46  1  0
 45 47  1  0
 47 48  1  0
 47 49  1  0
 47 50  1  0
 50 51  1  0
 50 52  1  0
 50 53  1  0
 53 54  1  0
 53 55  1  0
 53 56  1  0
 56 57  1  0
 56 58  1  0
 56 59  1  0
 59 60  1  0
 59 61  1  0
 41 62  1  0
 62 63  1  0
 63 64  2  0
 64 65  1  0
 27 66  2  0
 66 67  1  0
 66  2  1  0
 22 12  1  0
 64 34  1  0
 63 39  1  0
 59 45  1  0
M  CHG  3   6  -1  31   1  40  -1
M  END
>  <UniqueID>  (21) 
20

>  <SMILES>  (21) 
O=C(CN1CCCC1)[N-]c1cccc(C[NH2+]c2ccc3[n-]/c(=N/C(=O)C4CCCCC4)sc3c2)c1

>  <Energy>  (21) 
117.0821781598585

>  <Genealogy>  (21) 
O=C(CN1CCCC1)[N-]c1cccc(C[NH2+]c2ccc3[n-]c(=NC(=O)C4CCCCC4)sc3c2)c1 (protonated)
O=C(CN1CCCC1)[N-]c1cccc(C[NH2+]c2ccc3[n-]/c(=N/C(=O)C4CCCCC4)sc3c2)c1 (cis-trans isomerization)
O=C(CN1CCCC1)[N-]c1cccc(C[NH2+]c2ccc3[n-]/c(=N/C(=O)C4CCCCC4)sc3c2)c1 (3D coordinates assigned)
O=C(CN1CCCC1)[N-]c1cccc(C[NH2+]c2ccc3[n-]/c(=N/C(=O)C4CCCCC4)sc3c2)c1 (nonaromatic ring conformer: 117.0821781598585 kcal/mol)

>  <smiles>  (21) 
O=C(CN1CCCC1)Nc1cccc(CNc2ccc3[nH]c(=NC(=O)C4CCCCC4)sc3c2)c1

>  <score_type>  (21) 
oracle

>  <origin>  (21) 
adg

>  <m_score__min__energy>  (21) 
-12.5

>  <m_primary>  (21) 
energy

$$$$
21:0
     RDKit          3D

 31 32  0  0  0  0  0  0  0  0999 V2000
   59.0450   32.5230   49.4450 C   0  0  0  0  0  0  0  0  0  0  0  0
   59.0740   32.0590   48.0540 N   0  0  0  0  0  0  0  0  0  0  0  0
   59.4040   30.6590   47.7620 C   0  0  0  0  0  0  0  0  0  0  0  0
   58.8490   30.2400   46.4340 C   0  0  0  0  0  0  0  0  0  0  0  0
   59.5790   29.9430   45.3010 C   0  0  0  0  0  0  0  0  0  0  0  0
   58.7130   29.5940   44.3360 N   0  0  0  0  0  0  0  0  0  0  0  0
   57.4990   29.6790   44.9130 C   0  0  0  0  0  0  0  0  0  0  0  0
   56.2120   29.4050   44.2030 C   0  0  0  0  0  0  0  0  0  0  0  0
   55.1450   29.4470   45.1100 O   0  0  0  0  0  0  0  0  0  0  0  0
   57.5750   30.0660   46.1670 O   0  0  0  0  0  0  0  0  0  0  0  0
   58.8040   32.9900   46.9860 C   0  0  0  0  0  0  0  0  0  0  0  0
   57.4890   33.1630   46.5150 C   0  0  0  0  0  0  0  0  0  0  0  0
   57.2170   34.0680   45.4840 C   0  0  0  0  0  0  0  0  0  0  0  0
   58.2530   34.8090   44.9120 C   0  0  0  0  0  0  0  0  0  0  0  0
   59.5620   34.6450   45.3680 C   0  0  0  0  0  0  0  0  0  0  0  0
   59.8420   33.7420   46.3990 C   0  0  0  0  0  0  0  0  0  0  0  0
   61.1290   33.5820   46.7970 F   0  0  0  0  0  0  0  0  0  0  0  0
   59.0991   31.6573   50.1215 H   0  0  0  0  0  0  0  0  0  0  0  0
   59.9035   33.1859   49.6284 H   0  0  0  0  0  0  0  0  0  0  0  0
   58.1107   33.0738   49.6284 H   0  0  0  0  0  0  0  0  0  0  0  0
   60.4978   30.5432   47.7471 H   0  0  0  0  0  0  0  0  0  0  0  0
   58.9590   30.0247   48.5428 H   0  0  0  0  0  0  0  0  0  0  0  0
   60.6741   29.9847   45.2056 H   0  0  0  0  0  0  0  0  0  0  0  0
   58.9360   29.3190   43.3530 H   0  0  0  0  0  0  0  0  0  0  0  0
   56.0573   30.1654   43.4233 H   0  0  0  0  0  0  0  0  0  0  0  0
   56.2579   28.4054   43.7461 H   0  0  0  0  0  0  0  0  0  0  0  0
   55.5280   29.7190   45.9850 H   0  0  0  0  0  0  0  0  0  0  0  0
   56.6687   32.5818   46.9614 H   0  0  0  0  0  0  0  0  0  0  0  0
   56.1857   34.1962   45.1233 H   0  0  0  0  0  0  0  0  0  0  0  0
   58.0377   35.5218   44.1023 H   0  0  0  0  0  0  0  0  0  0  0  0
   60.3769   35.2284   44.9146 H   0  0  0  0  0  0  0  0  0  0  0  0
  1  2  1  0
  2  3  1  0
  3  4  1  0
  4  5  2  0
  5  6  1  0
  6  7  2  0
  7  8  1  0
  8  9  1  0
  7 10  1  0
  2 11  1  0
 11 12  2  0
 12 13  1  0
 13 14  2  0
 14 15  1  0
 15 16  2  0
 16 17  1  0
 10  4  1  0
 16 11  1  0
  1 18  1  0
  1 19  1  0
  1 20  1  0
  3 21  1  0
  3 22  1  0
  5 23  1  0
  6 24  1  0
  8 25  1  0
  8 26  1  0
  9 27  1  0
 12 28  1  0
 13 29  1  0
 14 30  1  0
 15 31  1  0
M  CHG  1   6   1
M  END
>  <UniqueID>  (22) 
21

>  <SMILES>  (22) 
CN(Cc1c[nH+]c(CO)o1)c1ccccc1F

>  <Energy>  (22) 
63.10526856793358

>  <Genealogy>  (22) 
CN(Cc1c[nH+]c(CO)o1)c1ccccc1F (protonated)
CN(Cc1c[nH+]c(CO)o1)c1ccccc1F (3D coordinates assigned)
CN(Cc1c[nH+]c(CO)o1)c1ccccc1F (optimized conformer: 63.10526856793358 kcal/mol)

>  <smiles>  (22) 
CN(Cc1cnc(CO)o1)c1ccccc1F

>  <score_type>  (22) 
oracle

>  <origin>  (22) 
adg

>  <m_score__min__energy>  (22) 
-5.3300000000000001

>  <m_primary>  (22) 
energy

$$$$
22:0
     RDKit          3D

 44 47  0  0  0  0  0  0  0  0999 V2000
   60.5630   28.1470   45.6060 C   0  0  0  0  0  0  0  0  0  0  0  0
   59.6850   26.9580   45.8200 C   0  0  0  0  0  0  0  0  0  0  0  0
   60.3260   25.7560   45.9670 N   0  0  0  0  0  0  0  0  0  0  0  0
   59.6760   24.5900   46.0610 N   0  0  0  0  0  0  0  0  0  0  0  0
   58.3210   24.5300   45.9950 C   0  0  0  0  0  0  0  0  0  0  0  0
   57.7240   23.4240   46.0760 O   0  0  0  0  0  0  0  0  0  0  0  0
   57.6300   25.7190   45.8370 C   0  0  0  0  0  0  0  0  0  0  0  0
   56.2860   25.9620   45.7410 C   0  0  0  0  0  0  0  0  0  0  0  0
   56.1150   27.2900   45.6240 N   0  0  0  0  0  0  0  0  0  0  0  0
   57.2990   27.9010   45.6330 N   0  0  0  0  0  0  0  0  0  0  0  0
   57.3340   29.3760   45.6100 C   0  0  0  0  0  0  0  0  0  0  0  0
   58.1500   29.9850   46.7700 C   0  0  0  0  0  0  0  0  0  0  0  0
   58.7940   31.3390   46.4050 C   0  0  0  0  0  0  0  0  0  0  0  0
   57.9520   32.1140   45.4760 N   0  0  0  0  0  0  0  0  0  0  0  0
   57.7970   33.5400   45.6400 C   0  0  0  0  0  0  0  0  0  0  0  0
   57.0490   34.1820   44.8530 O   0  0  0  0  0  0  0  0  0  0  0  0
   58.4520   34.2210   46.7200 N   0  0  0  0  0  0  0  0  0  0  0  0
   59.8330   34.1080   47.0900 C   0  0  0  0  0  0  0  0  0  0  0  0
   60.1690   34.1220   48.4510 C   0  0  0  0  0  0  0  0  0  0  0  0
   61.5010   33.9950   48.8540 C   0  0  0  0  0  0  0  0  0  0  0  0
   62.5090   33.8380   47.8990 C   0  0  0  0  0  0  0  0  0  0  0  0
   62.1840   33.7980   46.5410 C   0  0  0  0  0  0  0  0  0  0  0  0
   60.8510   33.9250   46.1340 C   0  0  0  0  0  0  0  0  0  0  0  0
   57.4020   31.4830   44.2610 C   0  0  0  0  0  0  0  0  0  0  0  0
   57.6490   29.9680   44.2310 C   0  0  0  0  0  0  0  0  0  0  0  0
   58.2650   26.9350   45.7580 C   0  0  0  0  0  0  0  0  0  0  0  0
   60.8668   28.5585   46.5798 H   0  0  0  0  0  0  0  0  0  0  0  0
   61.4569   27.8456   45.0403 H   0  0  0  0  0  0  0  0  0  0  0  0
   60.0119   28.9127   45.0403 H   0  0  0  0  0  0  0  0  0  0  0  0
   55.4881   25.2050   45.7568 H   0  0  0  0  0  0  0  0  0  0  0  0
   56.2990   29.6950   45.8026 H   0  0  0  0  0  0  0  0  0  0  0  0
   57.4801   30.1353   47.6294 H   0  0  0  0  0  0  0  0  0  0  0  0
   58.9649   29.2842   47.0039 H   0  0  0  0  0  0  0  0  0  0  0  0
   58.9395   31.9235   47.3254 H   0  0  0  0  0  0  0  0  0  0  0  0
   59.7545   31.1374   45.9081 H   0  0  0  0  0  0  0  0  0  0  0  0
   59.3782   34.2338   49.2074 H   0  0  0  0  0  0  0  0  0  0  0  0
   61.7562   34.0186   49.9237 H   0  0  0  0  0  0  0  0  0  0  0  0
   63.5581   33.7459   48.2165 H   0  0  0  0  0  0  0  0  0  0  0  0
   62.9771   33.6665   45.7903 H   0  0  0  0  0  0  0  0  0  0  0  0
   60.5976   33.8818   45.0645 H   0  0  0  0  0  0  0  0  0  0  0  0
   56.3178   31.6658   44.2268 H   0  0  0  0  0  0  0  0  0  0  0  0
   57.9105   31.9251   43.3915 H   0  0  0  0  0  0  0  0  0  0  0  0
   56.9984   29.5045   43.4748 H   0  0  0  0  0  0  0  0  0  0  0  0
   58.7010   29.7710   43.9769 H   0  0  0  0  0  0  0  0  0  0  0  0
  1  2  1  0
  2  3  2  0
  3  4  1  0
  4  5  1  0
  5  6  2  0
  5  7  1  0
  7  8  1  0
  8  9  2  0
  9 10  1  0
 10 11  1  0
 11 12  1  0
 12 13  1  0
 13 14  1  0
 14 15  1  0
 15 16  2  0
 15 17  1  0
 17 18  1  0
 18 19  2  0
 19 20  1  0
 20 21  2  0
 21 22  1  0
 22 23  2  0
 14 24  1  0
 24 25  1  0
 10 26  1  0
 26  2  1  0
 26  7  2  0
 25 11  1  0
 23 18  1  0
  1 27  1  0
  1 28  1  0
  1 29  1  0
  8 30  1  0
 11 31  1  0
 12 32  1  0
 12 33  1  0
 13 34  1  0
 13 35  1  0
 19 36  1  0
 20 37  1  0
 21 38  1  0
 22 39  1  0
 23 40  1  0
 24 41  1  0
 24 42  1  0
 25 43  1  0
 25 44  1  0
M  CHG  2   4  -1  17  -1
M  END
>  <UniqueID>  (23) 
22

>  <SMILES>  (23) 
Cc1n[n-]c(=O)c2cnn(C3CCN(C(=O)[N-]c4ccccc4)CC3)c12

>  <Energy>  (23) 
108.23062458932344

>  <Genealogy>  (23) 
Cc1n[n-]c(=O)c2cnn(C3CCN(C(=O)[N-]c4ccccc4)CC3)c12 (protonated)
Cc1n[n-]c(=O)c2cnn(C3CCN(C(=O)[N-]c4ccccc4)CC3)c12 (3D coordinates assigned)
Cc1n[n-]c(=O)c2cnn(C3CCN(C(=O)[N-]c4ccccc4)CC3)c12 (nonaromatic ring conformer: 108.23062458932344 kcal/mol)

>  <smiles>  (23) 
Cc1n[nH]c(=O)c2cnn(C3CCN(C(=O)Nc4ccccc4)CC3)c12

>  <score_type>  (23) 
oracle

>  <origin>  (23) 
adg

>  <m_score__min__energy>  (23) 
-10.050000000000001

>  <m_primary>  (23) 
energy

$$$$
23:0
     RDKit          3D

 66 70  0  0  0  0  0  0  0  0999 V2000
   56.7090   30.2030   43.5680 C   0  0  0  0  0  0  0  0  0  0  0  0
   56.5930   30.8740   44.8210 O   0  0  0  0  0  0  0  0  0  0  0  0
   57.4410   31.9040   45.2580 C   0  0  0  0  0  0  0  0  0  0  0  0
   56.9610   33.2090   45.4920 C   0  0  0  0  0  0  0  0  0  0  0  0
   57.8130   34.1960   45.9940 C   0  0  0  0  0  0  0  0  0  0  0  0
   59.1490   33.8960   46.2650 C   0  0  0  0  0  0  0  0  0  0  0  0
   59.6400   32.6110   46.0260 C   0  0  0  0  0  0  0  0  0  0  0  0
   58.8050   31.6180   45.4970 C   0  0  0  0  0  0  0  0  0  0  0  0
   59.3560   30.3090   45.2730 N   0  0  0  0  0  0  0  0  0  0  0  0
   59.2450   29.2930   46.0790 C   0  0  0  0  0  0  0  0  0  0  0  0
   58.7710   28.0980   45.6400 N   0  0  0  0  0  0  0  0  0  0  0  0
   58.6610   27.0420   46.4880 C   0  0  0  0  0  0  0  0  0  0  0  0
   58.1400   25.7420   46.0040 C   0  0  0  0  0  0  0  0  0  0  0  0
   58.9470   24.6800   45.8740 C   0  0  0  0  0  0  0  0  0  0  0  0
   58.3620   23.3780   45.4320 C   0  0  0  0  0  0  0  0  0  0  0  0
   57.4780   23.6190   44.2820 N   0  0  0  0  0  0  0  0  0  0  0  0
   56.8430   22.1050   43.6800 S   0  0  0  0  0  0  0  0  0  0  0  0
   55.8410   22.3800   42.5940 O   0  0  0  0  0  0  0  0  0  0  0  0
   57.9640   21.3000   43.0850 O   0  0  0  0  0  0  0  0  0  0  0  0
   56.0830   21.1690   44.9710 C   0  0  0  0  0  0  0  0  0  0  0  0
   56.2420   19.7750   45.0310 C   0  0  0  0  0  0  0  0  0  0  0  0
   55.5890   19.0310   46.0210 C   0  0  0  0  0  0  0  0  0  0  0  0
   54.7680   19.6710   46.9610 C   0  0  0  0  0  0  0  0  0  0  0  0
   54.0870   18.8710   48.0330 C   0  0  0  0  0  0  0  0  0  0  0  0
   54.6400   21.0710   46.9240 C   0  0  0  0  0  0  0  0  0  0  0  0
   55.2900   21.8130   45.9300 C   0  0  0  0  0  0  0  0  0  0  0  0
   56.3840   24.5850   44.5660 C   0  0  0  0  0  0  0  0  0  0  0  0
   56.6630   25.5420   45.7560 C   0  0  0  0  0  0  0  0  0  0  0  0
   59.0480   27.1880   47.7820 N   0  0  0  0  0  0  0  0  0  0  0  0
   59.5430   28.3720   48.2310 C   0  0  0  0  0  0  0  0  0  0  0  0
   59.9730   28.5120   49.6030 N   0  0  0  0  0  0  0  0  0  0  0  0
   59.3470   29.5280   50.4620 C   0  0  0  0  0  0  0  0  0  0  0  0
   60.2750   29.8970   51.6240 C   0  0  0  0  0  0  0  0  0  0  0  0
   60.7490   28.7410   52.2830 O   0  0  0  0  0  0  0  0  0  0  0  0
   61.5740   28.0010   51.4040 C   0  0  0  0  0  0  0  0  0  0  0  0
   60.7570   27.4420   50.2380 C   0  0  0  0  0  0  0  0  0  0  0  0
   59.6390   29.4220   47.3700 N   0  0  0  0  0  0  0  0  0  0  0  0
   56.8941   29.1326   43.7411 H   0  0  0  0  0  0  0  0  0  0  0  0
   55.7762   30.3264   42.9982 H   0  0  0  0  0  0  0  0  0  0  0  0
   57.5462   30.6324   42.9982 H   0  0  0  0  0  0  0  0  0  0  0  0
   55.9096   33.4514   45.2781 H   0  0  0  0  0  0  0  0  0  0  0  0
   57.4303   35.2111   46.1760 H   0  0  0  0  0  0  0  0  0  0  0  0
   59.8158   34.6729   46.6673 H   0  0  0  0  0  0  0  0  0  0  0  0
   60.6901   32.3765   46.2547 H   0  0  0  0  0  0  0  0  0  0  0  0
   60.0224   24.7654   46.0891 H   0  0  0  0  0  0  0  0  0  0  0  0
   59.1695   22.6907   45.1394 H   0  0  0  0  0  0  0  0  0  0  0  0
   57.7879   22.9286   46.2557 H   0  0  0  0  0  0  0  0  0  0  0  0
   56.8828   19.2651   44.2965 H   0  0  0  0  0  0  0  0  0  0  0  0
   55.7204   17.9396   46.0618 H   0  0  0  0  0  0  0  0  0  0  0  0
   54.4008   19.2396   49.0208 H   0  0  0  0  0  0  0  0  0  0  0  0
   52.9967   18.9757   47.9319 H   0  0  0  0  0  0  0  0  0  0  0  0
   54.3645   17.8114   47.9319 H   0  0  0  0  0  0  0  0  0  0  0  0
   54.0269   21.5852   47.6788 H   0  0  0  0  0  0  0  0  0  0  0  0
   55.1775   22.9069   45.9020 H   0  0  0  0  0  0  0  0  0  0  0  0
   56.2220   25.1951   43.6652 H   0  0  0  0  0  0  0  0  0  0  0  0
   55.5036   23.9874   44.8449 H   0  0  0  0  0  0  0  0  0  0  0  0
   56.2066   26.5187   45.5376 H   0  0  0  0  0  0  0  0  0  0  0  0
   56.2312   25.0865   46.6594 H   0  0  0  0  0  0  0  0  0  0  0  0
   59.1396   30.4283   49.8650 H   0  0  0  0  0  0  0  0  0  0  0  0
   58.4114   29.1191   50.8712 H   0  0  0  0  0  0  0  0  0  0  0  0
   61.1323   30.4645   51.2329 H   0  0  0  0  0  0  0  0  0  0  0  0
   59.7073   30.5026   52.3458 H   0  0  0  0  0  0  0  0  0  0  0  0
   62.3629   28.6585   51.0098 H   0  0  0  0  0  0  0  0  0  0  0  0
   62.0187   27.1617   51.9588 H   0  0  0  0  0  0  0  0  0  0  0  0
   61.4390   27.0025   49.4952 H   0  0  0  0  0  0  0  0  0  0  0  0
   60.0689   26.6735   50.6200 H   0  0  0  0  0  0  0  0  0  0  0  0
  1  2  1  0
  2  3  1  0
  3  4  2  0
  4  5  1  0
  5  6  2  0
  6  7  1  0
  7  8  2  0
  8  9  1  0
  9 10  2  3
 10 11  1  0
 11 12  2  0
 12 13  1  0
 13 14  2  0
 14 15  1  0
 15 16  1  0
 16 17  1  0
 17 18  2  0
 17 19  2  0
 17 20  1  0
 20 21  2  0
 21 22  1  0
 22 23  2  0
 23 24  1  0
 23 25  1  0
 25 26  2  0
 16 27  1  0
 27 28  1  0
 12 29  1  0
 29 30  1  0
 30 31  1  0
 31 32  1  0
 32 33  1  0
 33 34  1  0
 34 35  1  0
 35 36  1  0
 30 37  2  0
  8  3  1  0
 37 10  1  0
 28 13  1  0
 36 31  1  0
 26 20  1  0
  1 38  1  0
  1 39  1  0
  1 40  1  0
  4 41  1  0
  5 42  1  0
  6 43  1  0
  7 44  1  0
 14 45  1  0
 15 46  1  0
 15 47  1  0
 21 48  1  0
 22 49  1  0
 24 50  1  0
 24 51  1  0
 24 52  1  0
 25 53  1  0
 26 54  1  0
 27 55  1  0
 27 56  1  0
 28 57  1  0
 28 58  1  0
 32 59  1  0
 32 60  1  0
 33 61  1  0
 33 62  1  0
 35 63  1  0
 35 64  1  0
 36 65  1  0
 36 66  1  0
M  CHG  1  29  -1
M  END
>  <UniqueID>  (24) 
23

>  <SMILES>  (24) 
COc1ccccc1N=c1nc(C2=CCN(S(=O)(=O)c3ccc(C)cc3)CC2)[n-]c(N2CCOCC2)n1

>  <Energy>  (24) 
84.0599495200306

>  <Genealogy>  (24) 
COc1ccccc1N=c1nc(C2=CCN(S(=O)(=O)c3ccc(C)cc3)CC2)[n-]c(N2CCOCC2)n1 (protonated)
COc1ccccc1N=c1nc(C2=CCN(S(=O)(=O)c3ccc(C)cc3)CC2)[n-]c(N2CCOCC2)n1 (3D coordinates assigned)
COc1ccccc1N=c1nc(C2=CCN(S(=O)(=O)c3ccc(C)cc3)CC2)[n-]c(N2CCOCC2)n1 (nonaromatic ring conformer: 84.0599495200306 kcal/mol)

>  <smiles>  (24) 
COc1ccccc1N=c1nc(C2=CCN(S(=O)(=O)c3ccc(C)cc3)CC2)[nH]c(N2CCOCC2)n1

>  <score_type>  (24) 
oracle

>  <origin>  (24) 
adg

>  <m_score__min__energy>  (24) 
-10.140000000000001

>  <m_primary>  (24) 
energy

$$$$
24:0
     RDKit          3D

 48 51  0  0  0  0  0  0  0  0999 V2000
   66.1140   32.5830   50.1810 C   0  0  0  0  0  0  0  0  0  0  0  0
   65.2300   33.0850   49.1840 O   0  0  0  0  0  0  0  0  0  0  0  0
   63.8310   32.9840   49.2400 C   0  0  0  0  0  0  0  0  0  0  0  0
   63.1590   32.4750   50.3590 C   0  0  0  0  0  0  0  0  0  0  0  0
   61.7660   32.3940   50.3700 C   0  0  0  0  0  0  0  0  0  0  0  0
   61.0050   32.8260   49.2590 C   0  0  0  0  0  0  0  0  0  0  0  0
   61.6840   33.3320   48.1310 C   0  0  0  0  0  0  0  0  0  0  0  0
   63.0920   33.4080   48.1330 C   0  0  0  0  0  0  0  0  0  0  0  0
   60.9330   33.7460   47.0210 C   0  0  0  0  0  0  0  0  0  0  0  0
   61.5260   34.1990   46.0020 O   0  0  0  0  0  0  0  0  0  0  0  0
   59.5650   33.6590   47.0410 N   0  0  0  0  0  0  0  0  0  0  0  0
   58.7790   34.0550   45.8520 C   0  0  0  0  0  0  0  0  0  0  0  0
   58.3770   32.8380   45.0570 C   0  0  0  0  0  0  0  0  0  0  0  0
   58.1830   31.6050   45.6990 C   0  0  0  0  0  0  0  0  0  0  0  0
   57.7790   30.4830   44.9670 C   0  0  0  0  0  0  0  0  0  0  0  0
   57.5620   30.5870   43.5910 C   0  0  0  0  0  0  0  0  0  0  0  0
   57.7500   31.8110   42.9440 C   0  0  0  0  0  0  0  0  0  0  0  0
   58.1540   32.9340   43.6720 C   0  0  0  0  0  0  0  0  0  0  0  0
   58.9240   33.1660   48.1490 C   0  0  0  0  0  0  0  0  0  0  0  0
   57.6610   33.0920   48.1620 O   0  0  0  0  0  0  0  0  0  0  0  0
   59.6330   32.7570   49.2480 N   0  0  0  0  0  0  0  0  0  0  0  0
   58.9050   32.2540   50.3880 C   0  0  0  0  0  0  0  0  0  0  0  0
   58.5790   33.1100   51.4480 C   0  0  0  0  0  0  0  0  0  0  0  0
   57.8730   32.6240   52.5520 C   0  0  0  0  0  0  0  0  0  0  0  0
   57.4930   31.2740   52.6090 C   0  0  0  0  0  0  0  0  0  0  0  0
   56.7010   30.7610   53.7750 C   0  0  0  0  0  0  0  0  0  0  0  0
   57.8020   30.4240   51.5360 C   0  0  0  0  0  0  0  0  0  0  0  0
   58.5100   30.9100   50.4330 C   0  0  0  0  0  0  0  0  0  0  0  0
   65.7102   32.8123   51.1782 H   0  0  0  0  0  0  0  0  0  0  0  0
   66.2139   31.4934   50.0675 H   0  0  0  0  0  0  0  0  0  0  0  0
   67.1009   33.0554   50.0675 H   0  0  0  0  0  0  0  0  0  0  0  0
   63.7331   32.1371   51.2344 H   0  0  0  0  0  0  0  0  0  0  0  0
   61.2530   31.9887   51.2546 H   0  0  0  0  0  0  0  0  0  0  0  0
   63.6153   33.8064   47.2513 H   0  0  0  0  0  0  0  0  0  0  0  0
   57.8747   34.5901   46.1773 H   0  0  0  0  0  0  0  0  0  0  0  0
   59.3970   34.7071   45.2173 H   0  0  0  0  0  0  0  0  0  0  0  0
   58.3494   31.5203   46.7830 H   0  0  0  0  0  0  0  0  0  0  0  0
   57.6322   29.5186   45.4753 H   0  0  0  0  0  0  0  0  0  0  0  0
   57.2430   29.7048   43.0166 H   0  0  0  0  0  0  0  0  0  0  0  0
   57.5799   31.8911   41.8602 H   0  0  0  0  0  0  0  0  0  0  0  0
   58.2980   33.8965   43.1593 H   0  0  0  0  0  0  0  0  0  0  0  0
   58.8795   34.1675   51.4113 H   0  0  0  0  0  0  0  0  0  0  0  0
   57.6143   33.3017   53.3789 H   0  0  0  0  0  0  0  0  0  0  0  0
   57.1840   31.0739   54.7124 H   0  0  0  0  0  0  0  0  0  0  0  0
   55.6808   31.1703   53.7338 H   0  0  0  0  0  0  0  0  0  0  0  0
   56.6574   29.6626   53.7338 H   0  0  0  0  0  0  0  0  0  0  0  0
   57.4857   29.3708   51.5630 H   0  0  0  0  0  0  0  0  0  0  0  0
   58.7575   30.2366   49.5991 H   0  0  0  0  0  0  0  0  0  0  0  0
  1  2  1  0
  2  3  1  0
  3  4  2  0
  4  5  1  0
  5  6  2  0
  6  7  1  0
  7  8  2  0
  7  9  1  0
  9 10  2  0
  9 11  1  0
 11 12  1  0
 12 13  1  0
 13 14  2  0
 14 15  1  0
 15 16  2  0
 16 17  1  0
 17 18  2  0
 11 19  1  0
 19 20  2  0
 19 21  1  0
 21 22  1  0
 22 23  2  0
 23 24  1  0
 24 25  2  0
 25 26  1  0
 25 27  1  0
 27 28  2  0
  8  3  1  0
 18 13  1  0
 28 22  1  0
 21  6  1  0
  1 29  1  0
  1 30  1  0
  1 31  1  0
  4 32  1  0
  5 33  1  0
  8 34  1  0
 12 35  1  0
 12 36  1  0
 14 37  1  0
 15 38  1  0
 16 39  1  0
 17 40  1  0
 18 41  1  0
 23 42  1  0
 24 43  1  0
 26 44  1  0
 26 45  1  0
 26 46  1  0
 27 47  1  0
 28 48  1  0
M  END
>  <UniqueID>  (25) 
24

>  <SMILES>  (25) 
COc1ccc2c(c1)c(=O)n(Cc1ccccc1)c(=O)n2-c1ccc(C)cc1

>  <Energy>  (25) 
71.10685391681585

>  <Genealogy>  (25) 
COc1ccc2c(c1)c(=O)n(Cc1ccccc1)c(=O)n2-c1ccc(C)cc1 (3D coordinates assigned)
COc1ccc2c(c1)c(=O)n(Cc1ccccc1)c(=O)n2-c1ccc(C)cc1 (optimized conformer: 71.10685391681585 kcal/mol)

>  <smiles>  (25) 
COc1ccc2c(c1)c(=O)n(Cc1ccccc1)c(=O)n2-c1ccc(C)cc1

>  <score_type>  (25) 
oracle

>  <origin>  (25) 
adg

>  <m_score__min__energy>  (25) 
-7.4800000000000004

>  <m_primary>  (25) 
energy

$$$$
25:0
     RDKit          3D

 21 22  0  0  0  0  0  0  0  0999 V2000
   57.3470   22.9300   47.1890 O   0  0  0  0  0  0  0  0  0  0  0  0
   57.3890   24.1300   46.8100 C   0  0  0  0  0  0  0  0  0  0  0  0
   56.2350   24.8140   46.6080 N   0  0  0  0  0  0  0  0  0  0  0  0
   56.2450   26.1100   46.2020 C   0  0  0  0  0  0  0  0  0  0  0  0
   55.1490   26.7000   46.0030 O   0  0  0  0  0  0  0  0  0  0  0  0
   57.4700   26.7700   45.9900 C   0  0  0  0  0  0  0  0  0  0  0  0
   57.5400   28.1880   45.5570 C   0  0  0  0  0  0  0  0  0  0  0  0
   58.1080   29.1600   46.4010 C   0  0  0  0  0  0  0  0  0  0  0  0
   58.1670   30.4980   45.9980 C   0  0  0  0  0  0  0  0  0  0  0  0
   57.6570   30.8790   44.7550 C   0  0  0  0  0  0  0  0  0  0  0  0
   57.0840   29.9240   43.9130 C   0  0  0  0  0  0  0  0  0  0  0  0
   57.0230   28.5840   44.3100 C   0  0  0  0  0  0  0  0  0  0  0  0
   58.6470   26.0350   46.1970 C   0  0  0  0  0  0  0  0  0  0  0  0
   58.5870   24.7390   46.6020 N   0  0  0  0  0  0  0  0  0  0  0  0
   58.5077   28.8661   47.3828 H   0  0  0  0  0  0  0  0  0  0  0  0
   58.6160   31.2518   46.6615 H   0  0  0  0  0  0  0  0  0  0  0  0
   57.7067   31.9315   44.4393 H   0  0  0  0  0  0  0  0  0  0  0  0
   56.6797   30.2259   42.9355 H   0  0  0  0  0  0  0  0  0  0  0  0
   56.5684   27.8361   43.6437 H   0  0  0  0  0  0  0  0  0  0  0  0
   59.6247   26.5107   46.0304 H   0  0  0  0  0  0  0  0  0  0  0  0
   59.4750   24.2110   46.7580 H   0  0  0  0  0  0  0  0  0  0  0  0
  1  2  2  0
  2  3  1  0
  3  4  1  0
  4  5  2  0
  4  6  1  0
  6  7  1  0
  7  8  2  0
  8  9  1  0
  9 10  2  0
 10 11  1  0
 11 12  2  0
  6 13  2  0
 13 14  1  0
 14  2  1  0
 12  7  1  0
  8 15  1  0
  9 16  1  0
 10 17  1  0
 11 18  1  0
 12 19  1  0
 13 20  1  0
 14 21  1  0
M  CHG  1   3  -1
M  END
>  <UniqueID>  (26) 
25

>  <SMILES>  (26) 
O=c1[n-]c(=O)c(-c2ccccc2)c[nH]1

>  <Energy>  (26) 
29.414104734210532

>  <Genealogy>  (26) 
O=c1[n-]c(=O)c(-c2ccccc2)c[nH]1 (protonated)
O=c1[n-]c(=O)c(-c2ccccc2)c[nH]1 (3D coordinates assigned)
O=c1[n-]c(=O)c(-c2ccccc2)c[nH]1 (optimized conformer: 29.414104734210532 kcal/mol)

>  <smiles>  (26) 
O=c1[nH]cc(-c2ccccc2)c(=O)[nH]1

>  <score_type>  (26) 
oracle

>  <origin>  (26) 
adg

>  <m_score__min__energy>  (26) 
-7.4400000000000004

>  <m_primary>  (26) 
energy

$$$$
26:0
     RDKit          3D

 48 51  0  0  0  0  0  0  0  0999 V2000
   58.9140   34.8320   46.9200 N   0  0  0  0  0  0  0  0  0  0  0  0
   58.6120   34.0650   46.1090 C   0  0  0  0  0  0  0  0  0  0  0  0
   58.2350   33.1110   45.0980 C   0  0  0  0  0  0  0  0  0  0  0  0
   58.4930   33.3810   43.7490 C   0  0  0  0  0  0  0  0  0  0  0  0
   58.1320   32.4540   42.7690 C   0  0  0  0  0  0  0  0  0  0  0  0
   57.5110   31.2550   43.1310 C   0  0  0  0  0  0  0  0  0  0  0  0
   57.2440   30.9760   44.4820 C   0  0  0  0  0  0  0  0  0  0  0  0
   56.6150   29.6640   44.8720 C   0  0  0  0  0  0  0  0  0  0  0  0
   57.6550   28.6770   45.2010 N   0  0  0  0  0  0  0  0  0  0  0  0
   57.6070   27.3600   44.6110 C   0  0  0  0  0  0  0  0  0  0  0  0
   57.6800   27.2300   43.3580 O   0  0  0  0  0  0  0  0  0  0  0  0
   57.4520   26.1460   45.4440 C   0  0  0  0  0  0  0  0  0  0  0  0
   58.5440   25.2790   45.6120 C   0  0  0  0  0  0  0  0  0  0  0  0
   58.4120   24.1140   46.3730 C   0  0  0  0  0  0  0  0  0  0  0  0
   57.1930   23.8060   46.9840 C   0  0  0  0  0  0  0  0  0  0  0  0
   57.0750   22.6390   47.7340 O   0  0  0  0  0  0  0  0  0  0  0  0
   56.1040   24.6750   46.8380 C   0  0  0  0  0  0  0  0  0  0  0  0
   56.2300   25.8450   46.0800 C   0  0  0  0  0  0  0  0  0  0  0  0
   55.1470   26.7120   45.9910 O   0  0  0  0  0  0  0  0  0  0  0  0
   58.5630   28.9510   46.2890 C   0  0  0  0  0  0  0  0  0  0  0  0
   59.7530   29.6560   46.0560 C   0  0  0  0  0  0  0  0  0  0  0  0
   60.6390   29.9180   47.1040 C   0  0  0  0  0  0  0  0  0  0  0  0
   60.3540   29.4770   48.4100 C   0  0  0  0  0  0  0  0  0  0  0  0
   61.2890   29.7500   49.5330 C   0  0  0  0  0  0  0  0  0  0  0  0
   62.1440   30.8440   49.6660 C   0  0  0  0  0  0  0  0  0  0  0  0
   62.9060   30.8230   50.8410 C   0  0  0  0  0  0  0  0  0  0  0  0
   62.6620   29.7210   51.6470 C   0  0  0  0  0  0  0  0  0  0  0  0
   61.4980   28.7740   50.8930 S   0  0  0  0  0  0  0  0  0  0  0  0
   59.1620   28.7640   48.6360 C   0  0  0  0  0  0  0  0  0  0  0  0
   58.2770   28.5040   47.5870 C   0  0  0  0  0  0  0  0  0  0  0  0
   57.6140   31.9090   45.4650 C   0  0  0  0  0  0  0  0  0  0  0  0
   58.9804   34.3240   43.4606 H   0  0  0  0  0  0  0  0  0  0  0  0
   58.3368   32.6678   41.7096 H   0  0  0  0  0  0  0  0  0  0  0  0
   57.2303   30.5273   42.3553 H   0  0  0  0  0  0  0  0  0  0  0  0
   55.9698   29.8176   45.7496 H   0  0  0  0  0  0  0  0  0  0  0  0
   56.0191   29.2878   44.0274 H   0  0  0  0  0  0  0  0  0  0  0  0
   59.5092   25.5182   45.1418 H   0  0  0  0  0  0  0  0  0  0  0  0
   59.2707   23.4369   46.4916 H   0  0  0  0  0  0  0  0  0  0  0  0
   56.2320   22.0780   47.7120 H   0  0  0  0  0  0  0  0  0  0  0  0
   55.1451   24.4367   47.3214 H   0  0  0  0  0  0  0  0  0  0  0  0
   59.9905   30.0053   45.0403 H   0  0  0  0  0  0  0  0  0  0  0  0
   61.5675   30.4738   46.9068 H   0  0  0  0  0  0  0  0  0  0  0  0
   62.2133   31.6478   48.9183 H   0  0  0  0  0  0  0  0  0  0  0  0
   63.6312   31.6083   51.1007 H   0  0  0  0  0  0  0  0  0  0  0  0
   63.1460   29.5052   52.6109 H   0  0  0  0  0  0  0  0  0  0  0  0
   58.9247   28.4077   49.6493 H   0  0  0  0  0  0  0  0  0  0  0  0
   57.3496   27.9449   47.7804 H   0  0  0  0  0  0  0  0  0  0  0  0
   57.4158   31.6957   46.5258 H   0  0  0  0  0  0  0  0  0  0  0  0
  1  2  3  0
  2  3  1  0
  3  4  2  0
  4  5  1  0
  5  6  2  0
  6  7  1  0
  7  8  1  0
  8  9  1  0
  9 10  1  0
 10 11  2  0
 10 12  1  0
 12 13  2  0
 13 14  1  0
 14 15  2  0
 15 16  1  0
 15 17  1  0
 17 18  2  0
 18 19  1  0
  9 20  1  0
 20 21  2  0
 21 22  1  0
 22 23  2  0
 23 24  1  0
 24 25  2  0
 25 26  1  0
 26 27  2  0
 27 28  1  0
 23 29  1  0
 29 30  2  0
  7 31  2  0
 31  3  1  0
 18 12  1  0
 30 20  1  0
 28 24  1  0
  4 32  1  0
  5 33  1  0
  6 34  1  0
  8 35  1  0
  8 36  1  0
 13 37  1  0
 14 38  1  0
 16 39  1  0
 17 40  1  0
 21 41  1  0
 22 42  1  0
 25 43  1  0
 26 44  1  0
 27 45  1  0
 29 46  1  0
 30 47  1  0
 31 48  1  0
M  CHG  1  19  -1
M  END
>  <UniqueID>  (27) 
26

>  <SMILES>  (27) 
N#Cc1cccc(CN(C(=O)c2ccc(O)cc2[O-])c2ccc(-c3cccs3)cc2)c1

>  <Energy>  (27) 
88.83566366692823

>  <Genealogy>  (27) 
N#Cc1cccc(CN(C(=O)c2ccc(O)cc2[O-])c2ccc(-c3cccs3)cc2)c1 (protonated)
N#Cc1cccc(CN(C(=O)c2ccc(O)cc2[O-])c2ccc(-c3cccs3)cc2)c1 (3D coordinates assigned)
N#Cc1cccc(CN(C(=O)c2ccc(O)cc2[O-])c2ccc(-c3cccs3)cc2)c1 (optimized conformer: 88.83566366692823 kcal/mol)

>  <smiles>  (27) 
N#Cc1cccc(CN(C(=O)c2ccc(O)cc2O)c2ccc(-c3cccs3)cc2)c1

>  <score_type>  (27) 
oracle

>  <origin>  (27) 
adg

>  <m_score__min__energy>  (27) 
-12.77

>  <m_primary>  (27) 
energy

$$$$
27:0
     RDKit          3D

 56 58  0  0  0  0  0  0  0  0999 V2000
   58.6933   20.9935   43.4819 H   0  0  0  0  0  0  0  0  0  0  0  0
   57.9820   21.7460   43.8530 C   0  0  0  0  0  0  0  0  0  0  0  0
   58.2640   22.4570   45.0230 C   0  0  0  0  0  0  0  0  0  0  0  0
   59.1970   22.2633   45.5726 H   0  0  0  0  0  0  0  0  0  0  0  0
   57.3610   23.4140   45.4950 C   0  0  0  0  0  0  0  0  0  0  0  0
   57.5820   23.9654   46.4208 H   0  0  0  0  0  0  0  0  0  0  0  0
   56.1730   23.6750   44.7930 C   0  0  0  0  0  0  0  0  0  0  0  0
   55.2130   24.7330   45.2750 C   0  0  0  0  0  0  0  0  0  0  0  0
   54.2798   24.2506   45.6011 H   0  0  0  0  0  0  0  0  0  0  0  0
   55.0167   25.4315   44.4483 H   0  0  0  0  0  0  0  0  0  0  0  0
   55.7810   25.4840   46.3960 N   0  0  0  0  0  0  0  0  0  0  0  0
   56.4490   26.5940   46.2850 C   0  0  0  0  0  0  0  0  0  0  0  0
   57.6960   26.7170   46.8120 N   0  0  0  0  0  0  0  0  0  0  0  0
   58.3930   27.8740   46.6650 C   0  0  0  0  0  0  0  0  0  0  0  0
   59.5940   27.9970   47.1430 N   0  0  0  0  0  0  0  0  0  0  0  0
   59.9070   28.6680   48.4020 C   0  0  0  0  0  0  0  0  0  0  0  0
   59.8674   27.9372   49.2232 H   0  0  0  0  0  0  0  0  0  0  0  0
   60.9149   29.1037   48.3366 H   0  0  0  0  0  0  0  0  0  0  0  0
   58.8960   29.7840   48.6690 C   0  0  0  0  0  0  0  0  0  0  0  0
   57.9781   29.5824   48.0974 H   0  0  0  0  0  0  0  0  0  0  0  0
   58.6797   29.8111   49.7472 H   0  0  0  0  0  0  0  0  0  0  0  0
   59.4500   31.1230   48.2560 C   0  0  0  0  0  0  0  0  0  0  0  0
   60.6420   31.1950   47.5140 C   0  0  0  0  0  0  0  0  0  0  0  0
   61.1903   30.2740   47.2668 H   0  0  0  0  0  0  0  0  0  0  0  0
   61.1330   32.4340   47.0890 C   0  0  0  0  0  0  0  0  0  0  0  0
   62.0703   32.4861   46.5157 H   0  0  0  0  0  0  0  0  0  0  0  0
   60.4340   33.6060   47.3920 C   0  0  0  0  0  0  0  0  0  0  0  0
   60.8227   34.5797   47.0591 H   0  0  0  0  0  0  0  0  0  0  0  0
   59.2410   33.5410   48.1180 C   0  0  0  0  0  0  0  0  0  0  0  0
   58.6899   34.4637   48.3522 H   0  0  0  0  0  0  0  0  0  0  0  0
   58.7470   32.3050   48.5470 C   0  0  0  0  0  0  0  0  0  0  0  0
   57.8055   32.2576   49.1139 H   0  0  0  0  0  0  0  0  0  0  0  0
   57.8340   28.9100   45.9930 N   0  0  0  0  0  0  0  0  0  0  0  0
   56.5840   28.8030   45.4730 C   0  0  0  0  0  0  0  0  0  0  0  0
   56.0270   29.7910   44.8350 N   0  0  0  0  0  0  0  0  0  0  0  0
   56.5320   30.5520   43.6800 C   0  0  2  0  0  0  0  0  0  0  0  0
   55.7842   31.3359   43.4898 H   0  0  0  0  0  0  0  0  0  0  0  0
   56.5530   29.7470   42.3710 C   0  0  0  0  0  0  0  0  0  0  0  0
   56.5810   28.6719   42.6021 H   0  0  0  0  0  0  0  0  0  0  0  0
   55.6487   29.9730   41.7870 H   0  0  0  0  0  0  0  0  0  0  0  0
   57.4443   30.0199   41.7870 H   0  0  0  0  0  0  0  0  0  0  0  0
   57.8350   31.3350   43.9860 C   0  0  0  0  0  0  0  0  0  0  0  0
   58.0518   31.9637   43.1098 H   0  0  0  0  0  0  0  0  0  0  0  0
   58.5772   30.5548   44.2105 H   0  0  0  0  0  0  0  0  0  0  0  0
   57.8560   32.2530   45.2250 C   0  0  0  0  0  0  0  0  0  0  0  0
   58.8149   32.1106   45.7447 H   0  0  0  0  0  0  0  0  0  0  0  0
   56.9921   31.9707   45.8447 H   0  0  0  0  0  0  0  0  0  0  0  0
   57.7010   33.7390   44.9010 C   0  0  0  0  0  0  0  0  0  0  0  0
   57.6410   34.3140   45.8368 H   0  0  0  0  0  0  0  0  0  0  0  0
   58.5685   34.0793   44.3165 H   0  0  0  0  0  0  0  0  0  0  0  0
   56.7819   33.8929   44.3165 H   0  0  0  0  0  0  0  0  0  0  0  0
   55.8990   27.6410   45.6190 N   0  0  0  0  0  0  0  0  0  0  0  0
   55.8930   22.9510   43.6210 C   0  0  0  0  0  0  0  0  0  0  0  0
   54.9605   23.1400   43.0690 H   0  0  0  0  0  0  0  0  0  0  0  0
   56.7970   21.9910   43.1550 C   0  0  0  0  0  0  0  0  0  0  0  0
   56.5744   21.4276   42.2368 H   0  0  0  0  0  0  0  0  0  0  0  0
  1  2  1  0
  2  3  2  0
  3  4  1  0
  3  5  1  0
  5  6  1  0
  5  7  2  0
  7  8  1  0
  8  9  1  0
  8 10  1  0
  8 11  1  0
 11 12  2  0
 12 13  1  0
 13 14  1  0
 14 15  2  3
 15 16  1  0
 16 17  1  0
 16 18  1  0
 16 19  1  0
 19 20  1  0
 19 21  1  0
 19 22  1  0
 22 23  2  0
 23 24  1  0
 23 25  1  0
 25 26  1  0
 25 27  2  0
 27 28  1  0
 27 29  1  0
 29 30  1  0
 29 31  2  0
 31 32  1  0
 14 33  1  0
 33 34  1  0
 34 35  2  0
 35 36  1  0
 36 37  1  6
 36 38  1  0
 38 39  1  0
 38 40  1  0
 38 41  1  0
 36 42  1  0
 42 43  1  0
 42 44  1  0
 42 45  1  0
 45 46  1  0
 45 47  1  0
 45 48  1  0
 48 49  1  0
 48 50  1  0
 48 51  1  0
 34 52  1  0
  7 53  1  0
 53 54  1  0
 53 55  2  0
 55 56  1  0
 55  2  1  0
 52 12  1  0
 31 22  1  0
M  CHG  3  13  -1  33  -1  52  -1
M  END
>  <UniqueID>  (28) 
27

>  <SMILES>  (28) 
CCC[C@@H](C)/N=c1\[n-]c(=NCCc2ccccc2)[n-]/c(=N\Cc2ccccc2)[n-]1

>  <Energy>  (28) 
54.01045289211981

>  <Genealogy>  (28) 
CCCC(C)N=c1[n-]c(=NCCc2ccccc2)[n-]c(=NCc2ccccc2)[n-]1 (protonated)
CCC[C@@H](C)N=c1[n-]c(=NCCc2ccccc2)[n-]c(=NCc2ccccc2)[n-]1 (chirality)
CCC[C@@H](C)/N=c1\[n-]c(=NCCc2ccccc2)[n-]/c(=N\Cc2ccccc2)[n-]1 (cis-trans isomerization)
CCC[C@@H](C)/N=c1\[n-]c(=NCCc2ccccc2)[n-]/c(=N\Cc2ccccc2)[n-]1 (3D coordinates assigned)
CCC[C@@H](C)/N=c1\[n-]c(=NCCc2ccccc2)[n-]/c(=N\Cc2ccccc2)[n-]1 (optimized conformer: 54.01045289211981 kcal/mol)

>  <smiles>  (28) 
CCCC(C)N=c1[nH]c(=NCCc2ccccc2)[nH]c(=NCc2ccccc2)[nH]1

>  <score_type>  (28) 
oracle

>  <origin>  (28) 
adg

>  <m_score__min__energy>  (28) 
-13.26

>  <m_primary>  (28) 
energy

$$$$
28:0
     RDKit          3D

 62 65  0  0  1  0  0  0  0  0999 V2000
   56.8610   29.5850   43.8940 C   0  0  0  0  0  0  0  0  0  0  0  0
   56.7770   29.5990   45.2980 O   0  0  0  0  0  0  0  0  0  0  0  0
   57.8670   29.1690   46.0350 C   0  0  0  0  0  0  0  0  0  0  0  0
   58.5100   30.1190   46.7930 C   0  0  0  0  0  0  0  0  0  0  0  0
   59.5940   29.7220   47.5310 C   0  0  0  0  0  0  0  0  0  0  0  0
   60.3810   30.6660   48.3970 C   0  0  0  0  0  0  0  0  0  0  0  0
   61.3030   31.4760   47.5270 C   0  0  0  0  0  0  0  0  0  0  0  0
   62.2610   30.8290   47.0250 O   0  0  0  0  0  0  0  0  0  0  0  0
   61.1070   32.8650   47.2930 N   0  0  0  0  0  0  0  0  0  0  0  0
   59.9100   33.2750   46.6250 C   0  0  1  0  0  0  0  0  0  0  0  0
   58.6770   33.3370   47.4660 C   0  0  0  0  0  0  0  0  0  0  0  0
   57.4860   33.5010   46.5720 C   0  0  0  0  0  0  0  0  0  0  0  0
   57.7200   34.0200   45.2120 C   0  0  2  0  0  0  0  0  0  0  0  0
   57.4000   32.9720   44.1350 C   0  0  0  0  0  0  0  0  0  0  0  0
   58.9910   34.7190   44.9150 C   0  0  0  0  0  0  0  0  0  0  0  0
   60.0270   34.6540   46.0020 C   0  0  0  0  0  0  0  0  0  0  0  0
   62.1460   33.7600   47.7350 C   0  0  0  0  0  0  0  0  0  0  0  0
   63.3510   33.8370   46.8420 C   0  0  0  0  0  0  0  0  0  0  0  0
   63.4470   33.2740   48.2410 C   0  0  0  0  0  0  0  0  0  0  0  0
   60.0540   28.4200   47.5370 C   0  0  0  0  0  0  0  0  0  0  0  0
   59.3970   27.5040   46.7790 C   0  0  0  0  0  0  0  0  0  0  0  0
   58.2640   27.8360   45.9850 C   0  0  0  0  0  0  0  0  0  0  0  0
   57.7200   26.8880   45.3040 O   0  0  0  0  0  0  0  0  0  0  0  0
   57.1730   25.8460   44.8050 C   0  0  0  0  0  0  0  0  0  0  0  0
   57.5420   25.4740   43.4780 C   0  0  0  0  0  0  0  0  0  0  0  0
   57.0280   24.4100   42.8770 N   0  0  0  0  0  0  0  0  0  0  0  0
   56.1350   23.6680   43.5400 C   0  0  0  0  0  0  0  0  0  0  0  0
   55.6560   22.6400   42.8860 N   0  0  0  0  0  0  0  0  0  0  0  0
   55.7220   23.9310   44.7880 N   0  0  0  0  0  0  0  0  0  0  0  0
   56.2490   25.0110   45.3880 C   0  0  0  0  0  0  0  0  0  0  0  0
   55.8400   25.2490   46.5900 N   0  0  0  0  0  0  0  0  0  0  0  0
   57.9040   29.4111   43.5908 H   0  0  0  0  0  0  0  0  0  0  0  0
   56.2247   28.7805   43.4966 H   0  0  0  0  0  0  0  0  0  0  0  0
   56.5200   30.5524   43.4966 H   0  0  0  0  0  0  0  0  0  0  0  0
   58.1654   31.1635   46.8065 H   0  0  0  0  0  0  0  0  0  0  0  0
   59.6925   31.3379   48.9305 H   0  0  0  0  0  0  0  0  0  0  0  0
   60.9689   30.0947   49.1305 H   0  0  0  0  0  0  0  0  0  0  0  0
   59.8035   32.4747   45.8779 H   0  0  0  0  0  0  0  0  0  0  0  0
   58.7424   34.1926   48.1542 H   0  0  0  0  0  0  0  0  0  0  0  0
   58.5785   32.4106   48.0509 H   0  0  0  0  0  0  0  0  0  0  0  0
   56.7912   34.1913   47.0727 H   0  0  0  0  0  0  0  0  0  0  0  0
   57.1079   32.4793   46.4200 H   0  0  0  0  0  0  0  0  0  0  0  0
   56.9962   34.8478   45.1813 H   0  0  0  0  0  0  0  0  0  0  0  0
   57.1113   32.0266   44.6176 H   0  0  0  0  0  0  0  0  0  0  0  0
   56.5708   33.3318   43.5082 H   0  0  0  0  0  0  0  0  0  0  0  0
   58.2888   32.8073   43.5082 H   0  0  0  0  0  0  0  0  0  0  0  0
   58.7609   35.7782   44.7273 H   0  0  0  0  0  0  0  0  0  0  0  0
   59.4271   34.2031   44.0468 H   0  0  0  0  0  0  0  0  0  0  0  0
   59.8347   35.4301   46.7574 H   0  0  0  0  0  0  0  0  0  0  0  0
   61.0367   34.8254   45.6007 H   0  0  0  0  0  0  0  0  0  0  0  0
   61.4064   34.4514   48.1651 H   0  0  0  0  0  0  0  0  0  0  0  0
   63.4374   33.1714   45.9705 H   0  0  0  0  0  0  0  0  0  0  0  0
   63.8614   34.6324   46.2791 H   0  0  0  0  0  0  0  0  0  0  0  0
   63.6107   32.1964   48.3893 H   0  0  0  0  0  0  0  0  0  0  0  0
   64.0662   33.4908   49.1239 H   0  0  0  0  0  0  0  0  0  0  0  0
   60.9285   28.1325   48.1391 H   0  0  0  0  0  0  0  0  0  0  0  0
   59.7553   26.4640   46.7791 H   0  0  0  0  0  0  0  0  0  0  0  0
   58.2758   26.0892   42.9367 H   0  0  0  0  0  0  0  0  0  0  0  0
   57.3260   24.1700   41.8880 H   0  0  0  0  0  0  0  0  0  0  0  0
   55.9200   22.5890   41.8430 H   0  0  0  0  0  0  0  0  0  0  0  0
   55.0240   23.3120   45.2510 H   0  0  0  0  0  0  0  0  0  0  0  0
   56.1510   26.0470   47.1860 H   0  0  0  0  0  0  0  0  0  0  0  0
  1  2  1  0
  2  3  1  0
  3  4  2  0
  4  5  1  0
  5  6  1  0
  6  7  1  0
  7  8  2  0
  7  9  1  0
  9 10  1  0
 10 11  1  0
 11 12  1  0
 12 13  1  0
 13 14  1  0
 13 15  1  0
 15 16  1  0
  9 17  1  0
 17 18  1  0
 18 19  1  0
  5 20  2  0
 20 21  1  0
 21 22  2  0
 22 23  1  0
 23 24  1  0
 24 25  2  0
 25 26  1  0
 26 27  1  0
 27 28  2  3
 27 29  1  0
 29 30  1  0
 30 31  2  3
 22  3  1  0
 30 24  1  0
 16 10  1  0
 19 17  1  0
  1 32  1  0
  1 33  1  0
  1 34  1  0
  4 35  1  0
  6 36  1  0
  6 37  1  0
 10 38  1  6
 11 39  1  0
 11 40  1  0
 12 41  1  0
 12 42  1  0
 13 43  1  6
 14 44  1  0
 14 45  1  0
 14 46  1  0
 15 47  1  0
 15 48  1  0
 16 49  1  0
 16 50  1  0
 17 51  1  0
 18 52  1  0
 18 53  1  0
 19 54  1  0
 19 55  1  0
 20 56  1  0
 21 57  1  0
 25 58  1  0
 26 59  1  0
 28 60  1  0
 29 61  1  0
 31 62  1  0
M  END
>  <smiles>  (29) 
COc1cc(CC(=O)N(C2CCC(C)CC2)C2CC2)ccc1Oc1c[nH]c(=N)[nH]c1=N

>  <score_type>  (29) 
oracle

>  <origin>  (29) 
adg

>  <m_score__min__energy>  (29) 
-10.449999999999999

>  <m_primary>  (29) 
energy

$$$$
29:0
     RDKit          3D

 59 63  0  0  0  0  0  0  0  0999 V2000
   56.6410   30.4200   43.9090 O   0  0  0  0  0  0  0  0  0  0  0  0
   56.3980   29.5940   44.8290 C   0  0  0  0  0  0  0  0  0  0  0  0
   55.1470   28.9880   44.8750 O   0  0  0  0  0  0  0  0  0  0  0  0
   57.4250   29.2700   45.8440 C   0  0  0  0  0  0  0  0  0  0  0  0
   57.6360   27.9430   46.2300 C   0  0  0  0  0  0  0  0  0  0  0  0
   58.5250   27.6460   47.2550 C   0  0  0  0  0  0  0  0  0  0  0  0
   59.2750   28.6570   47.8580 C   0  0  0  0  0  0  0  0  0  0  0  0
   59.1910   30.0000   47.4060 C   0  0  0  0  0  0  0  0  0  0  0  0
   58.1700   30.2900   46.4640 C   0  0  0  0  0  0  0  0  0  0  0  0
   60.0100   31.1020   48.1480 C   0  0  1  0  0  0  0  0  0  0  0  0
   61.5730   30.8500   48.0450 C   0  0  0  0  0  0  0  0  0  0  0  0
   62.4100   31.6960   48.9240 N   0  0  0  0  0  0  0  0  0  0  0  0
   62.6100   33.0040   48.5830 C   0  0  0  0  0  0  0  0  0  0  0  0
   63.4020   33.8290   49.3670 C   0  0  0  0  0  0  0  0  0  0  0  0
   63.9720   33.3100   50.5220 C   0  0  0  0  0  0  0  0  0  0  0  0
   64.7100   34.0560   51.2210 O   0  0  0  0  0  0  0  0  0  0  0  0
   63.7250   32.0130   50.8930 N   0  0  0  0  0  0  0  0  0  0  0  0
   64.3500   31.4510   52.1070 C   0  0  0  0  0  0  0  0  0  0  0  0
   65.3190   30.3570   51.7390 C   0  0  0  0  0  0  0  0  0  0  0  0
   64.9880   29.0120   51.9740 C   0  0  0  0  0  0  0  0  0  0  0  0
   65.8890   27.9960   51.6450 C   0  0  0  0  0  0  0  0  0  0  0  0
   67.1270   28.3120   51.0790 C   0  0  0  0  0  0  0  0  0  0  0  0
   68.2480   27.0310   50.6520 Cl  0  0  0  0  0  0  0  0  0  0  0  0
   67.4680   29.6490   50.8490 C   0  0  0  0  0  0  0  0  0  0  0  0
   66.5720   30.6680   51.1850 C   0  0  0  0  0  0  0  0  0  0  0  0
   62.9230   31.2200   50.1060 C   0  0  0  0  0  0  0  0  0  0  0  0
   62.6420   30.0500   50.4850 O   0  0  0  0  0  0  0  0  0  0  0  0
   59.7620   32.5350   47.5690 C   0  0  0  0  0  0  0  0  0  0  0  0
   59.3970   33.6390   48.3840 C   0  0  0  0  0  0  0  0  0  0  0  0
   59.2510   34.9220   47.8470 C   0  0  0  0  0  0  0  0  0  0  0  0
   59.4890   35.1500   46.4950 C   0  0  0  0  0  0  0  0  0  0  0  0
   59.8830   34.0970   45.6740 C   0  0  0  0  0  0  0  0  0  0  0  0
   60.0290   32.8140   46.2030 C   0  0  0  0  0  0  0  0  0  0  0  0
   59.5580   31.0120   49.6780 C   0  0  2  0  0  0  0  0  0  0  0  0
   60.4710   31.6600   50.5350 O   0  0  0  0  0  0  0  0  0  0  0  0
   59.2150   29.5950   50.2370 C   0  0  0  0  0  0  0  0  0  0  0  0
   60.1200   28.2660   49.3870 S   0  0  0  0  0  0  0  0  0  0  0  0
   57.0962   27.1314   45.7202 H   0  0  0  0  0  0  0  0  0  0  0  0
   58.6389   26.6058   47.5942 H   0  0  0  0  0  0  0  0  0  0  0  0
   57.9555   31.3391   46.2121 H   0  0  0  0  0  0  0  0  0  0  0  0
   61.7652   29.7980   48.3028 H   0  0  0  0  0  0  0  0  0  0  0  0
   61.8554   31.1104   47.0142 H   0  0  0  0  0  0  0  0  0  0  0  0
   62.1369   33.4074   47.6755 H   0  0  0  0  0  0  0  0  0  0  0  0
   63.5758   34.8763   49.0791 H   0  0  0  0  0  0  0  0  0  0  0  0
   64.8886   32.2484   52.6400 H   0  0  0  0  0  0  0  0  0  0  0  0
   63.5641   31.0304   52.7516 H   0  0  0  0  0  0  0  0  0  0  0  0
   64.0148   28.7575   52.4192 H   0  0  0  0  0  0  0  0  0  0  0  0
   65.6232   26.9451   51.8319 H   0  0  0  0  0  0  0  0  0  0  0  0
   68.4422   29.8988   50.4033 H   0  0  0  0  0  0  0  0  0  0  0  0
   66.8494   31.7187   51.0148 H   0  0  0  0  0  0  0  0  0  0  0  0
   59.2257   33.4820   49.4592 H   0  0  0  0  0  0  0  0  0  0  0  0
   58.9463   35.7555   48.4969 H   0  0  0  0  0  0  0  0  0  0  0  0
   59.3661   36.1597   46.0761 H   0  0  0  0  0  0  0  0  0  0  0  0
   60.0795   34.2766   44.6067 H   0  0  0  0  0  0  0  0  0  0  0  0
   60.3596   31.9975   45.5443 H   0  0  0  0  0  0  0  0  0  0  0  0
   58.5946   31.5428   49.6667 H   0  0  0  0  0  0  0  0  0  0  0  0
   60.8330   30.9850   51.1670 H   0  0  0  0  0  0  0  0  0  0  0  0
   59.4715   29.5671   51.3063 H   0  0  0  0  0  0  0  0  0  0  0  0
   58.1411   29.4239   50.0712 H   0  0  0  0  0  0  0  0  0  0  0  0
  1  2  2  0
  2  3  1  0
  2  4  1  0
  4  5  2  0
  5  6  1  0
  6  7  2  0
  7  8  1  0
  8  9  2  0
  8 10  1  0
 10 11  1  1
 11 12  1  0
 12 13  1  0
 13 14  2  0
 14 15  1  0
 15 16  2  0
 15 17  1  0
 17 18  1  0
 18 19  1  0
 19 20  2  0
 20 21  1  0
 21 22  2  0
 22 23  1  0
 22 24  1  0
 24 25  2  0
 17 26  1  0
 26 27  2  0
 10 28  1  0
 28 29  2  0
 29 30  1  0
 30 31  2  0
 31 32  1  0
 32 33  2  0
 10 34  1  0
 34 35  1  0
 34 36  1  0
 36 37  1  0
  9  4  1  0
 26 12  1  0
 33 28  1  0
 37  7  1  0
 25 19  1  0
  5 38  1  0
  6 39  1  0
  9 40  1  0
 11 41  1  0
 11 42  1  0
 13 43  1  0
 14 44  1  0
 18 45  1  0
 18 46  1  0
 20 47  1  0
 21 48  1  0
 24 49  1  0
 25 50  1  0
 29 51  1  0
 30 52  1  0
 31 53  1  0
 32 54  1  0
 33 55  1  0
 34 56  1  6
 35 57  1  0
 36 58  1  0
 36 59  1  0
M  CHG  1   3  -1
M  END
>  <UniqueID>  (30) 
28

>  <SMILES>  (30) 
O=C([O-])c1ccc2c(c1)[C@@](Cn1ccc(=O)n(Cc3ccc(Cl)cc3)c1=O)(c1ccccc1)[C@H](O)CS2

>  <Energy>  (30) 
102.55243224601448

>  <Genealogy>  (30) 
O=C([O-])c1ccc2c(c1)C(Cn1ccc(=O)n(Cc3ccc(Cl)cc3)c1=O)(c1ccccc1)C(O)CS2 (protonated)
O=C([O-])c1ccc2c(c1)[C@@](Cn1ccc(=O)n(Cc3ccc(Cl)cc3)c1=O)(c1ccccc1)[C@H](O)CS2 (chirality)
O=C([O-])c1ccc2c(c1)[C@@](Cn1ccc(=O)n(Cc3ccc(Cl)cc3)c1=O)(c1ccccc1)[C@H](O)CS2 (3D coordinates assigned)
O=C([O-])c1ccc2c(c1)[C@@](Cn1ccc(=O)n(Cc3ccc(Cl)cc3)c1=O)(c1ccccc1)[C@H](O)CS2 (nonaromatic ring conformer: 102.55243224601448 kcal/mol)

>  <smiles>  (30) 
O=C(O)c1ccc2c(c1)C(Cn1ccc(=O)n(Cc3ccc(Cl)cc3)c1=O)(c1ccccc1)C(O)CS2

>  <score_type>  (30) 
oracle

>  <origin>  (30) 
adg

>  <m_score__min__energy>  (30) 
-11.15

>  <m_primary>  (30) 
energy

$$$$
30:0
     RDKit          3D

 38 40  0  0  0  0  0  0  0  0999 V2000
   56.8090   33.9290   44.9900 O   0  0  0  0  0  0  0  0  0  0  0  0
   57.8750   33.5680   45.5570 C   0  0  0  0  0  0  0  0  0  0  0  0
   58.3790   34.3420   46.6500 N   0  0  0  0  0  0  0  0  0  0  0  0
   59.5160   34.0140   47.4610 C   0  0  0  0  0  0  0  0  0  0  0  0
   59.3140   33.7250   48.8160 C   0  0  0  0  0  0  0  0  0  0  0  0
   60.3920   33.3700   49.6310 C   0  0  0  0  0  0  0  0  0  0  0  0
   61.6790   33.2930   49.0960 C   0  0  0  0  0  0  0  0  0  0  0  0
   61.9040   33.5780   47.7380 C   0  0  0  0  0  0  0  0  0  0  0  0
   63.2810   33.4260   47.1420 C   0  0  0  0  0  0  0  0  0  0  0  0
   63.4960   32.0970   46.8250 F   0  0  0  0  0  0  0  0  0  0  0  0
   63.4020   34.1890   45.9940 F   0  0  0  0  0  0  0  0  0  0  0  0
   64.2510   33.8380   48.0400 F   0  0  0  0  0  0  0  0  0  0  0  0
   60.8090   33.9060   46.9180 C   0  0  0  0  0  0  0  0  0  0  0  0
   58.5890   32.4200   45.0830 N   0  0  0  0  0  0  0  0  0  0  0  0
   58.2000   31.0690   45.3620 C   0  0  0  0  0  0  0  0  0  0  0  0
   57.0450   30.5800   44.7530 C   0  0  0  0  0  0  0  0  0  0  0  0
   56.6380   29.2650   44.9520 C   0  0  0  0  0  0  0  0  0  0  0  0
   57.3690   28.4010   45.7780 C   0  0  0  0  0  0  0  0  0  0  0  0
   56.7960   26.7320   45.9650 S   0  0  0  0  0  0  0  0  0  0  0  0
   57.2910   25.8980   44.8170 O   0  0  0  0  0  0  0  0  0  0  0  0
   57.3060   26.1400   47.2490 O   0  0  0  0  0  0  0  0  0  0  0  0
   55.1170   26.7140   46.0000 O   0  0  0  0  0  0  0  0  0  0  0  0
   58.5260   28.8870   46.4420 C   0  0  0  0  0  0  0  0  0  0  0  0
   59.2810   28.0710   47.3140 C   0  0  0  0  0  0  0  0  0  0  0  0
   60.3950   28.5790   47.9820 C   0  0  0  0  0  0  0  0  0  0  0  0
   60.7730   29.9070   47.8080 C   0  0  0  0  0  0  0  0  0  0  0  0
   60.0490   30.7350   46.9510 C   0  0  0  0  0  0  0  0  0  0  0  0
   58.9360   30.2390   46.2420 C   0  0  0  0  0  0  0  0  0  0  0  0
   58.3009   33.7777   49.2413 H   0  0  0  0  0  0  0  0  0  0  0  0
   60.2262   33.1508   50.6961 H   0  0  0  0  0  0  0  0  0  0  0  0
   62.5228   33.0074   49.7414 H   0  0  0  0  0  0  0  0  0  0  0  0
   60.9653   34.0795   45.8431 H   0  0  0  0  0  0  0  0  0  0  0  0
   56.4488   31.2419   44.1077 H   0  0  0  0  0  0  0  0  0  0  0  0
   55.7288   28.8979   44.4535 H   0  0  0  0  0  0  0  0  0  0  0  0
   58.9866   27.0224   47.4679 H   0  0  0  0  0  0  0  0  0  0  0  0
   60.9775   27.9270   48.6495 H   0  0  0  0  0  0  0  0  0  0  0  0
   61.6451   30.3044   48.3479 H   0  0  0  0  0  0  0  0  0  0  0  0
   60.3493   31.7859   46.8269 H   0  0  0  0  0  0  0  0  0  0  0  0
  1  2  2  0
  2  3  1  0
  3  4  1  0
  4  5  2  0
  5  6  1  0
  6  7  2  0
  7  8  1  0
  8  9  1  0
  9 10  1  0
  9 11  1  0
  9 12  1  0
  8 13  2  0
  2 14  1  0
 14 15  1  0
 15 16  2  0
 16 17  1  0
 17 18  2  0
 18 19  1  0
 19 20  2  0
 19 21  2  0
 19 22  1  0
 18 23  1  0
 23 24  2  0
 24 25  1  0
 25 26  2  0
 26 27  1  0
 27 28  2  0
 13  4  1  0
 28 15  1  0
 28 23  1  0
  5 29  1  0
  6 30  1  0
  7 31  1  0
 13 32  1  0
 16 33  1  0
 17 34  1  0
 24 35  1  0
 25 36  1  0
 26 37  1  0
 27 38  1  0
M  CHG  3   3  -1  14  -1  22  -1
M  END
>  <UniqueID>  (31) 
29

>  <SMILES>  (31) 
O=C([N-]c1cccc(C(F)(F)F)c1)[N-]c1ccc(S(=O)(=O)[O-])c2ccccc12

>  <Energy>  (31) 
59.85202306664885

>  <Genealogy>  (31) 
O=C([N-]c1cccc(C(F)(F)F)c1)[N-]c1ccc(S(=O)(=O)[O-])c2ccccc12 (protonated)
O=C([N-]c1cccc(C(F)(F)F)c1)[N-]c1ccc(S(=O)(=O)[O-])c2ccccc12 (3D coordinates assigned)
O=C([N-]c1cccc(C(F)(F)F)c1)[N-]c1ccc(S(=O)(=O)[O-])c2ccccc12 (optimized conformer: 59.85202306664885 kcal/mol)

>  <smiles>  (31) 
O=C(Nc1cccc(C(F)(F)F)c1)Nc1ccc(S(=O)(=O)O)c2ccccc12

>  <score_type>  (31) 
oracle

>  <origin>  (31) 
adg

>  <m_score__min__energy>  (31) 
-13.35

>  <m_primary>  (31) 
energy

$$$$
31:0
     RDKit          3D

 51 54  0  0  1  0  0  0  0  0999 V2000
   60.0140   29.5620   46.9570 C   0  0  0  0  0  0  0  0  0  0  0  0
   58.5350   29.8200   47.1620 C   0  0  0  0  0  0  0  0  0  0  0  0
   57.9970   30.1800   45.8630 N   0  0  0  0  0  0  0  0  0  0  0  0
   57.3720   29.2190   45.1590 C   0  0  0  0  0  0  0  0  0  0  0  0
   57.2660   28.0550   45.6180 O   0  0  0  0  0  0  0  0  0  0  0  0
   56.8440   29.5370   43.9040 C   0  0  0  0  0  0  0  0  0  0  0  0
   56.9590   30.8140   43.3930 C   0  0  0  0  0  0  0  0  0  0  0  0
   57.6080   31.7530   44.1630 C   0  0  0  0  0  0  0  0  0  0  0  0
   57.7780   33.0740   43.7380 C   0  0  0  0  0  0  0  0  0  0  0  0
   58.4250   33.9560   44.5350 N   0  0  0  0  0  0  0  0  0  0  0  0
   58.9140   33.6010   45.7310 C   0  0  0  0  0  0  0  0  0  0  0  0
   59.5100   34.4800   46.4260 N   0  0  0  0  0  0  0  0  0  0  0  0
   60.6290   34.1930   47.2190 C   0  0  0  0  0  0  0  0  0  0  0  0
   60.4890   34.2720   48.5920 C   0  0  0  0  0  0  0  0  0  0  0  0
   61.5420   34.0050   49.4390 C   0  0  0  0  0  0  0  0  0  0  0  0
   62.8060   33.6390   48.9590 C   0  0  0  0  0  0  0  0  0  0  0  0
   63.8710   33.3690   49.8520 N   0  0  0  0  0  0  0  0  0  0  0  0
   64.8520   32.3220   49.6560 C   0  0  0  0  0  0  0  0  0  0  0  0
   66.2410   32.7370   50.1080 C   0  0  0  0  0  0  0  0  0  0  0  0
   66.2690   33.4180   51.3640 N   0  0  0  0  0  0  0  0  0  0  0  0
   67.2760   32.9740   52.2770 C   0  0  0  0  0  0  0  0  0  0  0  0
   64.9710   33.5220   51.9890 C   0  0  0  0  0  0  0  0  0  0  0  0
   63.9860   34.1930   51.0460 C   0  0  0  0  0  0  0  0  0  0  0  0
   62.9170   33.5680   47.5870 C   0  0  0  0  0  0  0  0  0  0  0  0
   61.8590   33.8370   46.7350 C   0  0  0  0  0  0  0  0  0  0  0  0
   58.7720   32.3390   46.1780 N   0  0  0  0  0  0  0  0  0  0  0  0
   58.1300   31.4390   45.4020 C   0  0  0  0  0  0  0  0  0  0  0  0
   60.5101   29.4755   47.9350 H   0  0  0  0  0  0  0  0  0  0  0  0
   60.1484   28.6268   46.3936 H   0  0  0  0  0  0  0  0  0  0  0  0
   60.4571   30.3964   46.3936 H   0  0  0  0  0  0  0  0  0  0  0  0
   58.0398   28.9137   47.5408 H   0  0  0  0  0  0  0  0  0  0  0  0
   58.3685   30.6204   47.8979 H   0  0  0  0  0  0  0  0  0  0  0  0
   56.3311   28.7607   43.3172 H   0  0  0  0  0  0  0  0  0  0  0  0
   56.5471   31.0722   42.4063 H   0  0  0  0  0  0  0  0  0  0  0  0
   57.3879   33.3949   42.7608 H   0  0  0  0  0  0  0  0  0  0  0  0
   58.5300   34.9280   44.1840 H   0  0  0  0  0  0  0  0  0  0  0  0
   59.5148   34.5544   49.0177 H   0  0  0  0  0  0  0  0  0  0  0  0
   61.3855   34.0815   50.5251 H   0  0  0  0  0  0  0  0  0  0  0  0
   64.5433   31.4367   50.2313 H   0  0  0  0  0  0  0  0  0  0  0  0
   64.9009   32.1062   48.5785 H   0  0  0  0  0  0  0  0  0  0  0  0
   66.8611   31.8323   50.1922 H   0  0  0  0  0  0  0  0  0  0  0  0
   66.6199   33.4448   49.3560 H   0  0  0  0  0  0  0  0  0  0  0  0
   66.9283   33.1273   53.3093 H   0  0  0  0  0  0  0  0  0  0  0  0
   67.4748   31.9048   52.1120 H   0  0  0  0  0  0  0  0  0  0  0  0
   68.1995   33.5484   52.1120 H   0  0  0  0  0  0  0  0  0  0  0  0
   64.6063   32.5147   52.2386 H   0  0  0  0  0  0  0  0  0  0  0  0
   65.0607   34.1266   52.9036 H   0  0  0  0  0  0  0  0  0  0  0  0
   63.0041   34.2819   51.5338 H   0  0  0  0  0  0  0  0  0  0  0  0
   64.3378   35.2010   50.7812 H   0  0  0  0  0  0  0  0  0  0  0  0
   63.8865   33.2859   47.1506 H   0  0  0  0  0  0  0  0  0  0  0  0
   62.0099   33.7632   45.6479 H   0  0  0  0  0  0  0  0  0  0  0  0
  1  2  1  0
  2  3  1  0
  3  4  1  0
  4  5  2  0
  4  6  1  0
  6  7  2  0
  7  8  1  0
  8  9  2  0
  9 10  1  0
 10 11  1  0
 11 12  2  0
 12 13  1  0
 13 14  2  0
 14 15  1  0
 15 16  2  0
 16 17  1  0
 17 18  1  0
 18 19  1  0
 19 20  1  0
 20 21  1  0
 20 22  1  0
 22 23  1  0
 16 24  1  0
 24 25  2  0
 11 26  1  0
 26 27  2  0
 27  3  1  0
 27  8  1  0
 25 13  1  0
 23 17  1  0
  1 28  1  0
  1 29  1  0
  1 30  1  0
  2 31  1  0
  2 32  1  0
  6 33  1  0
  7 34  1  0
  9 35  1  0
 10 36  1  0
 14 37  1  0
 15 38  1  0
 18 39  1  0
 18 40  1  0
 19 41  1  0
 19 42  1  0
 21 43  1  0
 21 44  1  0
 21 45  1  0
 22 46  1  0
 22 47  1  0
 23 48  1  0
 23 49  1  0
 24 50  1  0
 25 51  1  0
M  END
>  <smiles>  (32) 
CCn1c(=O)ccc2c[nH]c(=Nc3ccc(N4CCN(C)CC4)cc3)nc21

>  <score_type>  (32) 
oracle

>  <origin>  (32) 
adg

>  <m_score__min__energy>  (32) 
-7.4500000000000002

>  <m_primary>  (32) 
energy

$$$$
32:0
     RDKit          3D

 43 46  0  0  0  0  0  0  0  0999 V2000
   57.3120   26.0200   46.0240 C   0  0  0  0  0  0  0  0  0  0  0  0
   57.0770   27.4610   45.7150 C   0  0  0  0  0  0  0  0  0  0  0  0
   57.9790   28.4860   45.9050 C   0  0  0  0  0  0  0  0  0  0  0  0
   57.2730   29.6110   45.5430 C   0  0  0  0  0  0  0  0  0  0  0  0
   57.7770   30.9860   45.5600 C   0  0  0  0  0  0  0  0  0  0  0  0
   58.9860   31.3390   46.0430 N   0  0  0  0  0  0  0  0  0  0  0  0
   59.0600   32.6490   45.8740 N   0  0  0  0  0  0  0  0  0  0  0  0
   60.2150   33.4550   46.2730 C   0  0  0  0  0  0  0  0  0  0  0  0
   60.6570   33.0720   47.6270 N   0  0  0  0  0  0  0  0  0  0  0  0
   61.1550   34.2560   48.3630 C   0  0  0  0  0  0  0  0  0  0  0  0
   62.0140   33.8660   49.5690 C   0  0  0  0  0  0  0  0  0  0  0  0
   63.1570   33.0570   49.1300 N   0  0  0  0  0  0  0  0  0  0  0  0
   64.3480   33.0020   49.9410 C   0  0  0  0  0  0  0  0  0  0  0  0
   64.2380   32.9470   51.2980 N   0  0  0  0  0  0  0  0  0  0  0  0
   65.3350   32.8950   52.0940 C   0  0  0  0  0  0  0  0  0  0  0  0
   66.6050   32.9010   51.5260 C   0  0  0  0  0  0  0  0  0  0  0  0
   66.7110   32.9660   50.1380 C   0  0  0  0  0  0  0  0  0  0  0  0
   65.5900   33.0180   49.3700 N   0  0  0  0  0  0  0  0  0  0  0  0
   63.0570   32.3070   47.8720 C   0  0  0  0  0  0  0  0  0  0  0  0
   61.5960   31.9180   47.6000 C   0  0  0  0  0  0  0  0  0  0  0  0
   57.9050   33.0500   45.3050 C   0  0  0  0  0  0  0  0  0  0  0  0
   57.5220   34.5910   44.9020 S   0  0  0  0  0  0  0  0  0  0  0  0
   57.1100   32.0260   45.1080 O   0  0  0  0  0  0  0  0  0  0  0  0
   56.0220   29.2710   45.1720 N   0  0  0  0  0  0  0  0  0  0  0  0
   55.9020   27.9570   45.2850 N   0  0  0  0  0  0  0  0  0  0  0  0
   57.3352   25.8779   47.1145 H   0  0  0  0  0  0  0  0  0  0  0  0
   56.5006   25.4154   45.5926 H   0  0  0  0  0  0  0  0  0  0  0  0
   58.2735   25.7046   45.5926 H   0  0  0  0  0  0  0  0  0  0  0  0
   59.0175   28.4205   46.2616 H   0  0  0  0  0  0  0  0  0  0  0  0
   61.0374   33.2895   45.5614 H   0  0  0  0  0  0  0  0  0  0  0  0
   59.9294   34.5173   46.2746 H   0  0  0  0  0  0  0  0  0  0  0  0
   61.7608   34.8693   47.6797 H   0  0  0  0  0  0  0  0  0  0  0  0
   60.2834   34.8147   48.7348 H   0  0  0  0  0  0  0  0  0  0  0  0
   62.3812   34.7768   50.0646 H   0  0  0  0  0  0  0  0  0  0  0  0
   61.4046   33.2789   50.2718 H   0  0  0  0  0  0  0  0  0  0  0  0
   65.2207   32.8482   53.1870 H   0  0  0  0  0  0  0  0  0  0  0  0
   67.5044   32.8555   52.1577 H   0  0  0  0  0  0  0  0  0  0  0  0
   67.7031   32.9753   49.6629 H   0  0  0  0  0  0  0  0  0  0  0  0
   65.7030   33.0930   48.3350 H   0  0  0  0  0  0  0  0  0  0  0  0
   63.4261   32.9325   47.0459 H   0  0  0  0  0  0  0  0  0  0  0  0
   63.6629   31.3923   47.9507 H   0  0  0  0  0  0  0  0  0  0  0  0
   61.5405   31.4477   46.6071 H   0  0  0  0  0  0  0  0  0  0  0  0
   61.2893   31.2339   48.4049 H   0  0  0  0  0  0  0  0  0  0  0  0
  1  2  1  0
  2  3  2  0
  3  4  1  0
  4  5  1  0
  5  6  2  0
  6  7  1  0
  7  8  1  0
  8  9  1  0
  9 10  1  0
 10 11  1  0
 11 12  1  0
 12 13  1  0
 13 14  2  0
 14 15  1  0
 15 16  2  0
 16 17  1  0
 17 18  2  0
 12 19  1  0
 19 20  1  0
  7 21  1  0
 21 22  2  0
 21 23  1  0
  4 24  2  0
 24 25  1  0
 25  2  1  0
 23  5  1  0
 20  9  1  0
 18 13  1  0
  1 26  1  0
  1 27  1  0
  1 28  1  0
  3 29  1  0
  8 30  1  0
  8 31  1  0
 10 32  1  0
 10 33  1  0
 11 34  1  0
 11 35  1  0
 15 36  1  0
 16 37  1  0
 17 38  1  0
 18 39  1  0
 19 40  1  0
 19 41  1  0
 20 42  1  0
 20 43  1  0
M  CHG  2  18   1  25  -1
M  END
>  <UniqueID>  (33) 
30

>  <SMILES>  (33) 
Cc1cc(-c2nn(CN3CCN(c4nccc[nH+]4)CC3)c(=S)o2)n[n-]1

>  <Energy>  (33) 
119.0165910557797

>  <Genealogy>  (33) 
Cc1cc(-c2nn(CN3CCN(c4nccc[nH+]4)CC3)c(=S)o2)n[n-]1 (protonated)
Cc1cc(-c2nn(CN3CCN(c4nccc[nH+]4)CC3)c(=S)o2)n[n-]1 (3D coordinates assigned)
Cc1cc(-c2nn(CN3CCN(c4nccc[nH+]4)CC3)c(=S)o2)n[n-]1 (nonaromatic ring conformer: 119.0165910557797 kcal/mol)

>  <smiles>  (33) 
Cc1cc(-c2nn(CN3CCN(c4ncccn4)CC3)c(=S)o2)n[nH]1

>  <score_type>  (33) 
oracle

>  <origin>  (33) 
adg

>  <m_score__min__energy>  (33) 
-8.7899999999999991

>  <m_primary>  (33) 
energy

$$$$
33:0
     RDKit          3D

 60 63  0  0  0  0  0  0  0  0999 V2000
   61.4800   29.3780   49.8270 C   0  0  0  0  0  0  0  0  0  0  0  0
   60.5350   29.0540   48.7390 N   0  0  2  0  0  0  0  0  0  0  0  0
   60.0130   27.6600   48.8350 C   0  0  0  0  0  0  0  0  0  0  0  0
   59.7280   26.9610   47.4950 C   0  0  0  0  0  0  0  0  0  0  0  0
   58.6120   27.6220   46.7320 C   0  0  0  0  0  0  0  0  0  0  0  0
   57.4240   26.8910   46.5240 C   0  0  0  0  0  0  0  0  0  0  0  0
   56.3510   27.4520   45.8310 C   0  0  0  0  0  0  0  0  0  0  0  0
   55.1880   26.7170   45.6390 O   0  0  0  0  0  0  0  0  0  0  0  0
   56.4450   28.7500   45.3340 C   0  0  0  0  0  0  0  0  0  0  0  0
   57.6130   29.4900   45.5270 C   0  0  0  0  0  0  0  0  0  0  0  0
   58.7150   28.9460   46.2220 C   0  0  0  0  0  0  0  0  0  0  0  0
   59.9440   29.8420   46.3640 C   0  0  1  0  0  0  0  0  0  0  0  0
   59.5210   31.2830   46.5840 C   0  0  0  0  0  0  0  0  0  0  0  0
   59.2110   32.1160   45.4940 C   0  0  0  0  0  0  0  0  0  0  0  0
   58.8090   33.4370   45.7040 C   0  0  0  0  0  0  0  0  0  0  0  0
   58.7180   33.9430   47.0030 C   0  0  0  0  0  0  0  0  0  0  0  0
   59.0270   33.1370   48.1040 C   0  0  0  0  0  0  0  0  0  0  0  0
   58.9270   33.6970   49.3870 O   0  0  0  0  0  0  0  0  0  0  0  0
   60.0340   33.9400   50.2510 C   0  0  0  0  0  0  0  0  0  0  0  0
   61.3010   34.1090   49.4160 C   0  0  0  0  0  0  0  0  0  0  0  0
   61.9610   32.7990   49.2160 N   0  0  0  0  0  0  0  0  0  0  0  0
   62.8210   32.3900   50.3510 C   0  0  0  0  0  0  0  0  0  0  0  0
   64.1610   33.1470   50.3970 C   0  0  0  0  0  0  0  0  0  0  0  0
   64.8870   33.0690   49.0530 C   0  0  0  0  0  0  0  0  0  0  0  0
   63.9710   33.5240   47.9190 C   0  0  0  0  0  0  0  0  0  0  0  0
   62.6740   32.7040   47.9240 C   0  0  0  0  0  0  0  0  0  0  0  0
   59.4250   31.8030   47.8900 C   0  0  0  0  0  0  0  0  0  0  0  0
   61.0370   29.4410   47.3960 C   0  0  0  0  0  0  0  0  0  0  0  0
   60.9920   29.2107   50.7985 H   0  0  0  0  0  0  0  0  0  0  0  0
   62.3672   28.7327   49.7464 H   0  0  0  0  0  0  0  0  0  0  0  0
   61.7846   30.4319   49.7464 H   0  0  0  0  0  0  0  0  0  0  0  0
   59.7090   29.6780   48.9100 H   0  0  0  0  0  0  0  0  0  0  0  0
   60.7554   27.0578   49.3792 H   0  0  0  0  0  0  0  0  0  0  0  0
   59.0416   27.7380   49.3452 H   0  0  0  0  0  0  0  0  0  0  0  0
   60.6404   26.9875   46.8811 H   0  0  0  0  0  0  0  0  0  0  0  0
   59.4205   25.9277   47.7132 H   0  0  0  0  0  0  0  0  0  0  0  0
   57.3424   25.8654   46.9132 H   0  0  0  0  0  0  0  0  0  0  0  0
   55.5981   29.1923   44.7889 H   0  0  0  0  0  0  0  0  0  0  0  0
   57.6758   30.5143   45.1309 H   0  0  0  0  0  0  0  0  0  0  0  0
   60.4565   29.7005   45.4010 H   0  0  0  0  0  0  0  0  0  0  0  0
   59.2857   31.7243   44.4688 H   0  0  0  0  0  0  0  0  0  0  0  0
   58.5638   34.0797   44.8456 H   0  0  0  0  0  0  0  0  0  0  0  0
   58.4006   34.9842   47.1615 H   0  0  0  0  0  0  0  0  0  0  0  0
   59.8522   34.8564   50.8317 H   0  0  0  0  0  0  0  0  0  0  0  0
   60.1574   33.0900   50.9383 H   0  0  0  0  0  0  0  0  0  0  0  0
   61.0367   34.5357   48.4372 H   0  0  0  0  0  0  0  0  0  0  0  0
   61.9921   34.7816   49.9451 H   0  0  0  0  0  0  0  0  0  0  0  0
   62.2782   32.5818   51.2883 H   0  0  0  0  0  0  0  0  0  0  0  0
   63.0517   31.3225   50.2196 H   0  0  0  0  0  0  0  0  0  0  0  0
   63.9687   34.2024   50.6401 H   0  0  0  0  0  0  0  0  0  0  0  0
   64.7975   32.6819   51.1641 H   0  0  0  0  0  0  0  0  0  0  0  0
   65.7743   33.7184   49.0834 H   0  0  0  0  0  0  0  0  0  0  0  0
   65.1845   32.0257   48.8711 H   0  0  0  0  0  0  0  0  0  0  0  0
   63.7284   34.5885   48.0528 H   0  0  0  0  0  0  0  0  0  0  0  0
   64.4867   33.3741   46.9590 H   0  0  0  0  0  0  0  0  0  0  0  0
   62.0148   33.0780   47.1267 H   0  0  0  0  0  0  0  0  0  0  0  0
   62.9394   31.6491   47.7603 H   0  0  0  0  0  0  0  0  0  0  0  0
   59.6632   31.1609   48.7508 H   0  0  0  0  0  0  0  0  0  0  0  0
   61.5958   28.5878   46.9840 H   0  0  0  0  0  0  0  0  0  0  0  0
   61.6519   30.3399   47.5502 H   0  0  0  0  0  0  0  0  0  0  0  0
  1  2  1  0
  2  3  1  0
  3  4  1  0
  4  5  1  0
  5  6  2  0
  6  7  1  0
  7  8  1  0
  7  9  2  0
  9 10  1  0
 10 11  2  0
 11 12  1  0
 12 13  1  0
 13 14  2  0
 14 15  1  0
 15 16  2  0
 16 17  1  0
 17 18  1  0
 18 19  1  0
 19 20  1  0
 20 21  1  0
 21 22  1  0
 22 23  1  0
 23 24  1  0
 24 25  1  0
 25 26  1  0
 17 27  2  0
 12 28  1  0
 28  2  1  0
 11  5  1  0
 27 13  1  0
 26 21  1  0
  1 29  1  0
  1 30  1  0
  1 31  1  0
  2 32  1  1
  3 33  1  0
  3 34  1  0
  4 35  1  0
  4 36  1  0
  6 37  1  0
  9 38  1  0
 10 39  1  0
 12 40  1  6
 14 41  1  0
 15 42  1  0
 16 43  1  0
 19 44  1  0
 19 45  1  0
 20 46  1  0
 20 47  1  0
 22 48  1  0
 22 49  1  0
 23 50  1  0
 23 51  1  0
 24 52  1  0
 24 53  1  0
 25 54  1  0
 25 55  1  0
 26 56  1  0
 26 57  1  0
 27 58  1  0
 28 59  1  0
 28 60  1  0
M  CHG  2   2   1   8  -1
M  END
>  <UniqueID>  (34) 
31

>  <SMILES>  (34) 
C[N@@H+]1CCc2cc([O-])ccc2[C@@H](c2cccc(OCCN3CCCCC3)c2)C1

>  <Energy>  (34) 
79.97938907851018

>  <Genealogy>  (34) 
C[NH+]1CCc2cc([O-])ccc2C(c2cccc(OCCN3CCCCC3)c2)C1 (protonated)
C[N@@H+]1CCc2cc([O-])ccc2[C@@H](c2cccc(OCCN3CCCCC3)c2)C1 (chirality)
C[N@@H+]1CCc2cc([O-])ccc2[C@@H](c2cccc(OCCN3CCCCC3)c2)C1 (3D coordinates assigned)
C[N@@H+]1CCc2cc([O-])ccc2[C@@H](c2cccc(OCCN3CCCCC3)c2)C1 (nonaromatic ring conformer: 79.97938907851018 kcal/mol)

>  <smiles>  (34) 
CN1CCc2cc(O)ccc2C(c2cccc(OCCN3CCCCC3)c2)C1

>  <score_type>  (34) 
oracle

>  <origin>  (34) 
adg

>  <m_score__min__energy>  (34) 
-8.3000000000000007

>  <m_primary>  (34) 
energy

$$$$
34:0
     RDKit          3D

 41 42  0  0  0  0  0  0  0  0999 V2000
   57.0870   21.1320   43.0510 C   0  0  0  0  0  0  0  0  0  0  0  0
   56.0180   21.8460   43.6610 O   0  0  0  0  0  0  0  0  0  0  0  0
   56.1340   23.1360   44.2010 C   0  0  0  0  0  0  0  0  0  0  0  0
   57.2140   23.9310   43.7970 C   0  0  0  0  0  0  0  0  0  0  0  0
   57.3770   25.2210   44.3080 C   0  0  0  0  0  0  0  0  0  0  0  0
   56.4650   25.7320   45.2430 C   0  0  0  0  0  0  0  0  0  0  0  0
   56.6200   27.0960   45.7840 C   0  0  0  0  0  0  0  0  0  0  0  0
   57.4260   27.2900   46.7310 O   0  0  0  0  0  0  0  0  0  0  0  0
   55.8980   28.2160   45.2530 N   0  0  0  0  0  0  0  0  0  0  0  0
   56.4020   29.1770   44.2720 C   0  0  0  0  0  0  0  0  0  0  0  0
   57.7240   28.7110   43.6480 C   0  0  0  0  0  0  0  0  0  0  0  0
   58.9290   29.0130   44.5520 C   0  0  0  0  0  0  0  0  0  0  0  0
   58.4830   29.4560   45.8800 N   0  0  0  0  0  0  0  0  0  0  0  0
   58.7650   30.8610   46.0530 C   0  0  0  0  0  0  0  0  0  0  0  0
   59.9220   31.2760   46.7370 C   0  0  0  0  0  0  0  0  0  0  0  0
   60.1790   32.6360   46.9290 C   0  0  0  0  0  0  0  0  0  0  0  0
   59.2800   33.5950   46.4510 C   0  0  0  0  0  0  0  0  0  0  0  0
   59.6030   35.3010   46.6970 Cl  0  0  0  0  0  0  0  0  0  0  0  0
   58.1200   33.1910   45.7810 C   0  0  0  0  0  0  0  0  0  0  0  0
   57.8600   31.8310   45.5870 C   0  0  0  0  0  0  0  0  0  0  0  0
   55.3680   24.9480   45.6320 C   0  0  0  0  0  0  0  0  0  0  0  0
   55.2070   23.6560   45.1230 C   0  0  0  0  0  0  0  0  0  0  0  0
   57.7322   20.7011   43.8308 H   0  0  0  0  0  0  0  0  0  0  0  0
   56.6788   20.3246   42.4253 H   0  0  0  0  0  0  0  0  0  0  0  0
   57.6765   21.8184   42.4253 H   0  0  0  0  0  0  0  0  0  0  0  0
   57.9401   23.5363   43.0711 H   0  0  0  0  0  0  0  0  0  0  0  0
   58.2243   25.8386   43.9756 H   0  0  0  0  0  0  0  0  0  0  0  0
   55.6542   29.2974   43.4743 H   0  0  0  0  0  0  0  0  0  0  0  0
   56.5843   30.1307   44.7888 H   0  0  0  0  0  0  0  0  0  0  0  0
   57.6722   27.6256   43.4771 H   0  0  0  0  0  0  0  0  0  0  0  0
   57.8638   29.2579   42.7039 H   0  0  0  0  0  0  0  0  0  0  0  0
   59.5366   28.1024   44.6602 H   0  0  0  0  0  0  0  0  0  0  0  0
   59.5239   29.8160   44.0923 H   0  0  0  0  0  0  0  0  0  0  0  0
   58.9750   28.9040   46.6220 H   0  0  0  0  0  0  0  0  0  0  0  0
   57.4540   29.2900   45.9820 H   0  0  0  0  0  0  0  0  0  0  0  0
   60.6282   30.5260   47.1228 H   0  0  0  0  0  0  0  0  0  0  0  0
   61.0903   32.9531   47.4572 H   0  0  0  0  0  0  0  0  0  0  0  0
   57.4116   33.9445   45.4063 H   0  0  0  0  0  0  0  0  0  0  0  0
   56.9425   31.5182   45.0670 H   0  0  0  0  0  0  0  0  0  0  0  0
   54.6308   25.3523   46.3413 H   0  0  0  0  0  0  0  0  0  0  0  0
   54.3520   23.0433   45.4447 H   0  0  0  0  0  0  0  0  0  0  0  0
  1  2  1  0
  2  3  1  0
  3  4  2  0
  4  5  1  0
  5  6  2  0
  6  7  1  0
  7  8  2  0
  7  9  1  0
  9 10  1  0
 10 11  1  0
 11 12  1  0
 12 13  1  0
 13 14  1  0
 14 15  2  0
 15 16  1  0
 16 17  2  0
 17 18  1  0
 17 19  1  0
 19 20  2  0
  6 21  1  0
 21 22  2  0
 22  3  1  0
 20 14  1  0
  1 23  1  0
  1 24  1  0
  1 25  1  0
  4 26  1  0
  5 27  1  0
 10 28  1  0
 10 29  1  0
 11 30  1  0
 11 31  1  0
 12 32  1  0
 12 33  1  0
 13 34  1  0
 13 35  1  0
 15 36  1  0
 16 37  1  0
 19 38  1  0
 20 39  1  0
 21 40  1  0
 22 41  1  0
M  CHG  2   9  -1  13   1
M  END
>  <UniqueID>  (35) 
32

>  <SMILES>  (35) 
COc1ccc(C(=O)[N-]CCC[NH2+]c2ccc(Cl)cc2)cc1

>  <Energy>  (35) 
40.970731120246114

>  <Genealogy>  (35) 
COc1ccc(C(=O)[N-]CCC[NH2+]c2ccc(Cl)cc2)cc1 (protonated)
COc1ccc(C(=O)[N-]CCC[NH2+]c2ccc(Cl)cc2)cc1 (3D coordinates assigned)
COc1ccc(C(=O)[N-]CCC[NH2+]c2ccc(Cl)cc2)cc1 (optimized conformer: 40.970731120246114 kcal/mol)

>  <smiles>  (35) 
COc1ccc(C(=O)NCCCNc2ccc(Cl)cc2)cc1

>  <score_type>  (35) 
oracle

>  <origin>  (35) 
adg

>  <m_score__min__energy>  (35) 
-6.8700000000000001

>  <m_primary>  (35) 
energy

$$$$
35:0
     RDKit          3D

 62 65  0  0  0  0  0  0  0  0999 V2000
   60.5330   34.6160   49.8390 H   0  0  0  0  0  0  0  0  0  0  0  0
   60.1090   33.9160   50.4330 O   0  0  0  0  0  0  0  0  0  0  0  0
   60.0900   32.5490   50.1440 C   0  0  0  0  0  0  0  0  0  0  0  0
   60.8450   32.0610   49.0590 C   0  0  0  0  0  0  0  0  0  0  0  0
   61.7400   33.1630   47.9490 S   0  0  0  0  0  0  0  0  0  0  0  0
   60.2380   33.6330   47.0790 C   0  0  0  0  0  0  0  0  0  0  0  0
   60.3030   34.5180   45.9980 C   0  0  0  0  0  0  0  0  0  0  0  0
   61.2651   34.9717   45.7175 H   0  0  0  0  0  0  0  0  0  0  0  0
   59.1470   34.8280   45.2720 C   0  0  0  0  0  0  0  0  0  0  0  0
   59.2012   35.5318   44.4283 H   0  0  0  0  0  0  0  0  0  0  0  0
   57.9190   34.2430   45.6180 C   0  0  0  0  0  0  0  0  0  0  0  0
   56.6780   34.5770   44.8500 C   0  0  0  0  0  0  0  0  0  0  0  0
   55.8603   34.7971   45.5522 H   0  0  0  0  0  0  0  0  0  0  0  0
   56.8643   35.4570   44.2168 H   0  0  0  0  0  0  0  0  0  0  0  0
   56.3975   33.7224   44.2168 H   0  0  0  0  0  0  0  0  0  0  0  0
   57.8530   33.3890   46.7300 C   0  0  0  0  0  0  0  0  0  0  0  0
   56.8866   32.9597   47.0331 H   0  0  0  0  0  0  0  0  0  0  0  0
   59.0070   33.0810   47.4540 C   0  0  0  0  0  0  0  0  0  0  0  0
   58.9488   32.4044   48.3193 H   0  0  0  0  0  0  0  0  0  0  0  0
   60.9030   30.6960   48.7990 C   0  0  0  0  0  0  0  0  0  0  0  0
   61.5190   30.3286   47.9650 H   0  0  0  0  0  0  0  0  0  0  0  0
   60.1910   29.7860   49.5810 C   0  0  0  0  0  0  0  0  0  0  0  0
   60.3280   28.3440   49.2770 C   0  0  0  0  0  0  0  0  0  0  0  0
   60.6454   27.6747   50.0902 H   0  0  0  0  0  0  0  0  0  0  0  0
   60.0900   27.8000   48.0730 C   0  0  0  0  0  0  0  0  0  0  0  0
   60.8404   27.0994   47.6779 H   0  0  0  0  0  0  0  0  0  0  0  0
   58.8960   28.0670   47.2310 C   0  0  0  0  0  0  0  0  0  0  0  0
   57.8800   27.1160   47.0610 C   0  0  0  0  0  0  0  0  0  0  0  0
   57.9394   26.1546   47.5922 H   0  0  0  0  0  0  0  0  0  0  0  0
   56.7870   27.3790   46.2190 C   0  0  0  0  0  0  0  0  0  0  0  0
   55.8010   26.4110   45.9670 O   0  0  0  0  0  0  0  0  0  0  0  0
   56.0650   25.0600   45.6050 C   0  0  0  0  0  0  0  0  0  0  0  0
   56.1836   24.4531   46.5147 H   0  0  0  0  0  0  0  0  0  0  0  0
   55.2262   24.6692   45.0103 H   0  0  0  0  0  0  0  0  0  0  0  0
   56.9892   25.0137   45.0103 H   0  0  0  0  0  0  0  0  0  0  0  0
   56.6540   28.6380   45.6150 C   0  0  0  0  0  0  0  0  0  0  0  0
   55.5190   28.8380   44.8080 O   0  0  0  0  0  0  0  0  0  0  0  0
   55.4350   29.7160   43.6870 C   0  0  0  0  0  0  0  0  0  0  0  0
   55.3358   30.7530   44.0401 H   0  0  0  0  0  0  0  0  0  0  0  0
   56.3463   29.6216   43.0782 H   0  0  0  0  0  0  0  0  0  0  0  0
   54.5582   29.4505   43.0782 H   0  0  0  0  0  0  0  0  0  0  0  0
   57.6440   29.6320   45.8330 C   0  0  0  0  0  0  0  0  0  0  0  0
   57.5110   30.8920   45.2290 O   0  0  0  0  0  0  0  0  0  0  0  0
   58.1540   31.2940   44.0210 C   0  0  0  0  0  0  0  0  0  0  0  0
   59.0641   31.8630   44.2618 H   0  0  0  0  0  0  0  0  0  0  0  0
   58.4230   30.4030   43.4348 H   0  0  0  0  0  0  0  0  0  0  0  0
   57.4708   31.9261   43.4348 H   0  0  0  0  0  0  0  0  0  0  0  0
   58.7560   29.3300   46.6410 C   0  0  0  0  0  0  0  0  0  0  0  0
   59.5262   30.0965   46.8118 H   0  0  0  0  0  0  0  0  0  0  0  0
   59.3700   30.2530   50.6350 C   0  0  0  0  0  0  0  0  0  0  0  0
   58.6340   29.3410   51.4200 C   0  0  0  0  0  0  0  0  0  0  0  0
   58.6783   28.2666   51.1882 H   0  0  0  0  0  0  0  0  0  0  0  0
   57.8560   29.7800   52.4790 C   0  0  0  0  0  0  0  0  0  0  0  0
   57.2903   29.0541   53.0815 H   0  0  0  0  0  0  0  0  0  0  0  0
   57.7880   31.1320   52.7820 C   0  0  0  0  0  0  0  0  0  0  0  0
   57.1633   31.4651   53.6239 H   0  0  0  0  0  0  0  0  0  0  0  0
   58.5010   32.0840   52.0350 C   0  0  0  0  0  0  0  0  0  0  0  0
   58.3670   33.5270   52.4560 C   0  0  0  0  0  0  0  0  0  0  0  0
   58.3612   33.5895   53.5542 H   0  0  0  0  0  0  0  0  0  0  0  0
   59.2154   34.1047   52.0603 H   0  0  0  0  0  0  0  0  0  0  0  0
   57.4268   33.9386   52.0603 H   0  0  0  0  0  0  0  0  0  0  0  0
   59.3190   31.6510   50.9390 C   0  0  0  0  0  0  0  0  0  0  0  0
  1  2  1  0
  2  3  1  0
  3  4  2  0
  4  5  1  0
  5  6  1  0
  6  7  2  0
  7  8  1  0
  7  9  1  0
  9 10  1  0
  9 11  2  0
 11 12  1  0
 12 13  1  0
 12 14  1  0
 12 15  1  0
 11 16  1  0
 16 17  1  0
 16 18  2  0
 18 19  1  0
  4 20  1  0
 20 21  1  0
 20 22  2  0
 22 23  1  0
 23 24  1  0
 23 25  2  0
 25 26  1  0
 25 27  1  0
 27 28  2  0
 28 29  1  0
 28 30  1  0
 30 31  1  0
 31 32  1  0
 32 33  1  0
 32 34  1  0
 32 35  1  0
 30 36  2  0
 36 37  1  0
 37 38  1  0
 38 39  1  0
 38 40  1  0
 38 41  1  0
 36 42  1  0
 42 43  1  0
 43 44  1  0
 44 45  1  0
 44 46  1  0
 44 47  1  0
 42 48  2  0
 48 49  1  0
 22 50  1  0
 50 51  2  0
 51 52  1  0
 51 53  1  0
 53 54  1  0
 53 55  2  0
 55 56  1  0
 55 57  1  0
 57 58  1  0
 58 59  1  0
 58 60  1  0
 58 61  1  0
 57 62  2  0
 62  3  1  0
 18  6  1  0
 48 27  1  0
 62 50  1  0
M  END
>  <UniqueID>  (36) 
33

>  <SMILES>  (36) 
COc1cc(/C=C\c2cc(Sc3ccc(C)cc3)c(O)c3c(C)cccc23)cc(OC)c1OC

>  <Energy>  (36) 
84.53893010044216

>  <Genealogy>  (36) 
COc1cc(/C=C\c2cc(Sc3ccc(C)cc3)c(O)c3c(C)cccc23)cc(OC)c1OC (cis-trans isomerization)
COc1cc(/C=C\c2cc(Sc3ccc(C)cc3)c(O)c3c(C)cccc23)cc(OC)c1OC (3D coordinates assigned)
COc1cc(/C=C\c2cc(Sc3ccc(C)cc3)c(O)c3c(C)cccc23)cc(OC)c1OC (optimized conformer: 84.53893010044216 kcal/mol)

>  <smiles>  (36) 
COc1cc(C=Cc2cc(Sc3ccc(C)cc3)c(O)c3c(C)cccc23)cc(OC)c1OC

>  <score_type>  (36) 
oracle

>  <origin>  (36) 
adg

>  <m_score__min__energy>  (36) 
-9.6400000000000006

>  <m_primary>  (36) 
energy

$$$$
36:0
     RDKit          3D

 47 47  0  0  0  0  0  0  0  0999 V2000
   54.1480   26.7180   46.7390 H   0  0  0  0  0  0  0  0  0  0  0  0
   54.8150   26.4240   46.0360 O   0  0  0  0  0  0  0  0  0  0  0  0
   56.1360   26.1810   46.3510 N   0  0  0  0  0  0  0  0  0  0  0  0
   57.0730   26.2370   45.4600 C   0  0  0  0  0  0  0  0  0  0  0  0
   57.0964   25.4819   44.6605 H   0  0  0  0  0  0  0  0  0  0  0  0
   58.1160   27.2910   45.4870 C   0  0  0  0  0  0  0  0  0  0  0  0
   59.4010   27.0440   45.8350 N   0  0  0  0  0  0  0  0  0  0  0  0
   59.9820   25.7800   46.2800 C   0  0  0  0  0  0  0  0  0  0  0  0
   59.9959   25.7498   47.3795 H   0  0  0  0  0  0  0  0  0  0  0  0
   59.3778   24.9440   45.8978 H   0  0  0  0  0  0  0  0  0  0  0  0
   61.0099   25.6942   45.8978 H   0  0  0  0  0  0  0  0  0  0  0  0
   60.0440   28.2240   45.7610 C   0  0  0  0  0  0  0  0  0  0  0  0
   61.1079   28.3926   45.9837 H   0  0  0  0  0  0  0  0  0  0  0  0
   59.1430   29.1840   45.3590 C   0  0  0  0  0  0  0  0  0  0  0  0
   59.3702   30.2488   45.2020 H   0  0  0  0  0  0  0  0  0  0  0  0
   57.9360   28.6060   45.1890 N   0  0  0  0  0  0  0  0  0  0  0  0
   56.7370   29.3050   44.7110 C   0  0  0  0  0  0  0  0  0  0  0  0
   56.6959   30.3028   45.1722 H   0  0  0  0  0  0  0  0  0  0  0  0
   55.8539   28.7114   44.9900 H   0  0  0  0  0  0  0  0  0  0  0  0
   56.7550   29.4600   43.1830 C   0  0  0  0  0  0  0  0  0  0  0  0
   55.8965   28.9170   42.7609 H   0  0  0  0  0  0  0  0  0  0  0  0
   57.7063   29.0514   42.8114 H   0  0  0  0  0  0  0  0  0  0  0  0
   56.6710   30.9300   42.7530 C   0  0  0  0  0  0  0  0  0  0  0  0
   55.7700   31.3831   43.1923 H   0  0  0  0  0  0  0  0  0  0  0  0
   56.6257   30.9735   41.6548 H   0  0  0  0  0  0  0  0  0  0  0  0
   57.9070   31.7090   43.2250 C   0  0  0  0  0  0  0  0  0  0  0  0
   58.3642   32.2027   42.3548 H   0  0  0  0  0  0  0  0  0  0  0  0
   58.5930   30.9878   43.6934 H   0  0  0  0  0  0  0  0  0  0  0  0
   57.5730   32.7800   44.2780 C   0  0  0  0  0  0  0  0  0  0  0  0
   56.6981   32.4351   44.8486 H   0  0  0  0  0  0  0  0  0  0  0  0
   57.3945   33.7112   43.7204 H   0  0  0  0  0  0  0  0  0  0  0  0
   58.7040   33.0910   45.2800 C   0  0  0  0  0  0  0  0  0  0  0  0
   59.6192   32.5884   44.9338 H   0  0  0  0  0  0  0  0  0  0  0  0
   58.3642   32.7297   46.2618 H   0  0  0  0  0  0  0  0  0  0  0  0
   59.0100   34.5950   45.4430 C   0  0  0  0  0  0  0  0  0  0  0  0
   58.0797   35.1173   45.7109 H   0  0  0  0  0  0  0  0  0  0  0  0
   59.4173   34.9588   44.4881 H   0  0  0  0  0  0  0  0  0  0  0  0
   60.0590   34.8670   46.5320 C   0  0  0  0  0  0  0  0  0  0  0  0
   59.5523   35.2438   47.4327 H   0  0  0  0  0  0  0  0  0  0  0  0
   60.7737   35.6110   46.1503 H   0  0  0  0  0  0  0  0  0  0  0  0
   60.8290   33.5910   46.8880 C   0  0  0  0  0  0  0  0  0  0  0  0
   60.5087   32.7791   46.2185 H   0  0  0  0  0  0  0  0  0  0  0  0
   60.6151   33.3337   47.9359 H   0  0  0  0  0  0  0  0  0  0  0  0
   62.3330   33.7990   46.7360 C   0  0  0  0  0  0  0  0  0  0  0  0
   62.7967   33.8631   47.7314 H   0  0  0  0  0  0  0  0  0  0  0  0
   62.7663   32.9522   46.1835 H   0  0  0  0  0  0  0  0  0  0  0  0
   62.5202   34.7316   46.1835 H   0  0  0  0  0  0  0  0  0  0  0  0
  1  2  1  0
  2  3  1  0
  3  4  2  0
  4  5  1  0
  4  6  1  0
  6  7  1  0
  7  8  1  0
  8  9  1  0
  8 10  1  0
  8 11  1  0
  7 12  1  0
 12 13  1  0
 12 14  2  0
 14 15  1  0
 14 16  1  0
 16 17  1  0
 17 18  1  0
 17 19  1  0
 17 20  1  0
 20 21  1  0
 20 22  1  0
 20 23  1  0
 23 24  1  0
 23 25  1  0
 23 26  1  0
 26 27  1  0
 26 28  1  0
 26 29  1  0
 29 30  1  0
 29 31  1  0
 29 32  1  0
 32 33  1  0
 32 34  1  0
 32 35  1  0
 35 36  1  0
 35 37  1  0
 35 38  1  0
 38 39  1  0
 38 40  1  0
 38 41  1  0
 41 42  1  0
 41 43  1  0
 41 44  1  0
 44 45  1  0
 44 46  1  0
 44 47  1  0
 16  6  2  0
M  CHG  1  16   1
M  END
>  <UniqueID>  (37) 
34

>  <SMILES>  (37) 
CCCCCCCCCC[n+]1ccn(C)c1/C=N/O

>  <Energy>  (37) 
57.520973016333414

>  <Genealogy>  (37) 
CCCCCCCCCC[n+]1ccn(C)c1/C=N/O (cis-trans isomerization)
CCCCCCCCCC[n+]1ccn(C)c1/C=N/O (3D coordinates assigned)
CCCCCCCCCC[n+]1ccn(C)c1/C=N/O (optimized conformer: 57.520973016333414 kcal/mol)

>  <smiles>  (37) 
CCCCCCCCCC[n+]1ccn(C)c1C=NO

>  <score_type>  (37) 
oracle

>  <origin>  (37) 
adg

>  <m_score__min__energy>  (37) 
-5.5199999999999996

>  <m_primary>  (37) 
energy

$$$$
37:0
     RDKit          3D

 36 38  0  0  0  0  0  0  0  0999 V2000
   56.2390   29.7180   42.9920 C   0  0  0  0  0  0  0  0  0  0  0  0
   57.0350   30.9370   43.4610 C   0  0  0  0  0  0  0  0  0  0  0  0
   57.4130   31.8190   42.2710 C   0  0  0  0  0  0  0  0  0  0  0  0
   58.5620   30.4090   44.3220 S   0  0  0  0  0  0  0  0  0  0  0  0
   58.0330   28.7170   44.5720 C   0  0  0  0  0  0  0  0  0  0  0  0
   57.2100   28.3350   45.5700 N   0  0  0  0  0  0  0  0  0  0  0  0
   56.9740   26.9940   45.5510 C   0  0  0  0  0  0  0  0  0  0  0  0
   56.1230   26.3430   46.5110 N   0  0  0  0  0  0  0  0  0  0  0  0
   55.5060   25.2060   46.3710 C   0  0  0  0  0  0  0  0  0  0  0  0
   55.9980   24.1050   46.9990 N   0  0  0  0  0  0  0  0  0  0  0  0
   55.3890   22.8970   46.8810 C   0  0  0  0  0  0  0  0  0  0  0  0
   54.2370   22.7710   46.1060 C   0  0  0  0  0  0  0  0  0  0  0  0
   53.7410   23.9070   45.4670 C   0  0  0  0  0  0  0  0  0  0  0  0
   54.3800   25.0970   45.6100 N   0  0  0  0  0  0  0  0  0  0  0  0
   57.6260   26.2920   44.5280 C   0  0  0  0  0  0  0  0  0  0  0  0
   57.5600   24.8350   44.2620 C   0  0  0  0  0  0  0  0  0  0  0  0
   58.3730   23.9310   44.9670 C   0  0  0  0  0  0  0  0  0  0  0  0
   58.2850   22.5650   44.6900 C   0  0  0  0  0  0  0  0  0  0  0  0
   57.3930   22.1080   43.7190 C   0  0  0  0  0  0  0  0  0  0  0  0
   56.5990   23.0300   43.0360 C   0  0  0  0  0  0  0  0  0  0  0  0
   56.7000   24.3560   43.3190 N   0  0  0  0  0  0  0  0  0  0  0  0
   58.5170   27.4130   43.6330 S   0  0  0  0  0  0  0  0  0  0  0  0
   55.8743   29.1595   43.8667 H   0  0  0  0  0  0  0  0  0  0  0  0
   55.3831   30.0500   42.3860 H   0  0  0  0  0  0  0  0  0  0  0  0
   56.8871   29.0678   42.3860 H   0  0  0  0  0  0  0  0  0  0  0  0
   56.4023   31.5105   44.1544 H   0  0  0  0  0  0  0  0  0  0  0  0
   57.8217   32.7726   42.6366 H   0  0  0  0  0  0  0  0  0  0  0  0
   58.1702   31.3057   41.6601 H   0  0  0  0  0  0  0  0  0  0  0  0
   56.5191   32.0133   41.6601 H   0  0  0  0  0  0  0  0  0  0  0  0
   55.8043   22.0185   47.3965 H   0  0  0  0  0  0  0  0  0  0  0  0
   53.7318   21.7995   46.0011 H   0  0  0  0  0  0  0  0  0  0  0  0
   52.8340   23.8394   44.8483 H   0  0  0  0  0  0  0  0  0  0  0  0
   59.0739   24.2969   45.7318 H   0  0  0  0  0  0  0  0  0  0  0  0
   58.9179   21.8503   45.2365 H   0  0  0  0  0  0  0  0  0  0  0  0
   57.3167   21.0338   43.4947 H   0  0  0  0  0  0  0  0  0  0  0  0
   55.8912   22.6839   42.2684 H   0  0  0  0  0  0  0  0  0  0  0  0
  1  2  1  0
  2  3  1  0
  2  4  1  0
  4  5  1  0
  5  6  2  0
  6  7  1  0
  7  8  1  0
  8  9  2  3
  9 10  1  0
 10 11  2  0
 11 12  1  0
 12 13  2  0
 13 14  1  0
  7 15  2  0
 15 16  1  0
 16 17  2  0
 17 18  1  0
 18 19  2  0
 19 20  1  0
 20 21  2  0
 15 22  1  0
 22  5  1  0
 14  9  1  0
 21 16  1  0
  1 23  1  0
  1 24  1  0
  1 25  1  0
  2 26  1  0
  3 27  1  0
  3 28  1  0
  3 29  1  0
 11 30  1  0
 12 31  1  0
 13 32  1  0
 17 33  1  0
 18 34  1  0
 19 35  1  0
 20 36  1  0
M  CHG  1  14  -1
M  END
>  <UniqueID>  (38) 
35

>  <SMILES>  (38) 
CC(C)Sc1nc(N=c2nccc[n-]2)c(-c2ccccn2)s1

>  <Energy>  (38) 
66.08847780397686

>  <Genealogy>  (38) 
CC(C)Sc1nc(N=c2nccc[n-]2)c(-c2ccccn2)s1 (protonated)
CC(C)Sc1nc(N=c2nccc[n-]2)c(-c2ccccn2)s1 (3D coordinates assigned)
CC(C)Sc1nc(N=c2nccc[n-]2)c(-c2ccccn2)s1 (optimized conformer: 66.08847780397686 kcal/mol)

>  <smiles>  (38) 
CC(C)Sc1nc(N=c2nccc[nH]2)c(-c2ccccn2)s1

>  <score_type>  (38) 
oracle

>  <origin>  (38) 
adg

>  <m_score__min__energy>  (38) 
-8.5500000000000007

>  <m_primary>  (38) 
energy

$$$$
38:0
     RDKit          3D

 51 55  0  0  0  0  0  0  0  0999 V2000
   58.5330   33.0730   52.0150 Cl  0  0  0  0  0  0  0  0  0  0  0  0
   59.0310   31.5990   51.2030 C   0  0  0  0  0  0  0  0  0  0  0  0
   59.6970   30.5990   51.9180 C   0  0  0  0  0  0  0  0  0  0  0  0
   60.0910   29.4250   51.2720 C   0  0  0  0  0  0  0  0  0  0  0  0
   59.8220   29.2450   49.9130 C   0  0  0  0  0  0  0  0  0  0  0  0
   59.1520   30.2450   49.1810 C   0  0  0  0  0  0  0  0  0  0  0  0
   58.8660   30.0590   47.7350 C   0  0  0  0  0  0  0  0  0  0  0  0
   58.8250   31.1690   46.8590 C   0  0  0  0  0  0  0  0  0  0  0  0
   58.5500   31.0040   45.4850 C   0  0  0  0  0  0  0  0  0  0  0  0
   58.5290   32.1180   44.5730 N   0  0  0  0  0  0  0  0  0  0  0  0
   57.4390   33.0930   44.5060 C   0  0  0  0  0  0  0  0  0  0  0  0
   57.8250   34.4020   45.2160 C   0  0  2  0  0  0  0  0  0  0  0  0
   59.2420   34.8550   44.8850 C   0  0  0  0  0  0  0  0  0  0  0  0
   60.0440   34.3040   46.0200 C   0  0  0  0  0  0  0  0  0  0  0  0
   59.0320   34.2290   47.1460 C   0  0  0  0  0  0  0  0  0  0  0  0
   57.7270   34.2130   46.6100 O   0  0  0  0  0  0  0  0  0  0  0  0
   58.3400   29.6950   45.0310 C   0  0  0  0  0  0  0  0  0  0  0  0
   58.0380   29.3150   43.7710 N   0  0  0  0  0  0  0  0  0  0  0  0
   57.8910   27.9740   43.8340 C   0  0  0  0  0  0  0  0  0  0  0  0
   58.1160   27.5590   45.1370 C   0  0  0  0  0  0  0  0  0  0  0  0
   57.9640   26.1590   45.6540 C   0  0  0  0  0  0  0  0  0  0  0  0
   56.5190   25.7760   45.6790 C   0  0  0  0  0  0  0  0  0  0  0  0
   56.0060   24.5190   45.4430 C   0  0  0  0  0  0  0  0  0  0  0  0
   54.6520   24.6690   45.6390 C   0  0  0  0  0  0  0  0  0  0  0  0
   54.3840   25.9440   45.9800 N   0  0  0  0  0  0  0  0  0  0  0  0
   55.5230   26.6190   46.0090 N   0  0  0  0  0  0  0  0  0  0  0  0
   58.3860   28.6520   45.8780 N   0  0  0  0  0  0  0  0  0  0  0  0
   58.6350   28.7750   47.2080 C   0  0  0  0  0  0  0  0  0  0  0  0
   58.7590   31.4240   49.8420 C   0  0  0  0  0  0  0  0  0  0  0  0
   59.9105   30.7367   52.9883 H   0  0  0  0  0  0  0  0  0  0  0  0
   60.6152   28.6391   51.8355 H   0  0  0  0  0  0  0  0  0  0  0  0
   60.1351   28.3173   49.4117 H   0  0  0  0  0  0  0  0  0  0  0  0
   59.0107   32.1780   47.2558 H   0  0  0  0  0  0  0  0  0  0  0  0
   59.2630   32.1780   43.8330 H   0  0  0  0  0  0  0  0  0  0  0  0
   57.2140   33.3089   43.4511 H   0  0  0  0  0  0  0  0  0  0  0  0
   56.5579   32.6683   45.0092 H   0  0  0  0  0  0  0  0  0  0  0  0
   57.1337   35.1821   44.8645 H   0  0  0  0  0  0  0  0  0  0  0  0
   59.5768   34.4365   43.9244 H   0  0  0  0  0  0  0  0  0  0  0  0
   59.3348   35.9458   44.7775 H   0  0  0  0  0  0  0  0  0  0  0  0
   60.4402   33.3070   45.7771 H   0  0  0  0  0  0  0  0  0  0  0  0
   60.9238   34.9163   46.2672 H   0  0  0  0  0  0  0  0  0  0  0  0
   59.1998   33.3110   47.7283 H   0  0  0  0  0  0  0  0  0  0  0  0
   59.1474   35.1062   47.7996 H   0  0  0  0  0  0  0  0  0  0  0  0
   57.9100   29.9130   42.9260 H   0  0  0  0  0  0  0  0  0  0  0  0
   57.6345   27.3181   42.9890 H   0  0  0  0  0  0  0  0  0  0  0  0
   58.5127   25.4671   44.9981 H   0  0  0  0  0  0  0  0  0  0  0  0
   58.3689   26.1058   46.6754 H   0  0  0  0  0  0  0  0  0  0  0  0
   56.5525   23.6064   45.1627 H   0  0  0  0  0  0  0  0  0  0  0  0
   53.9034   23.8699   45.5333 H   0  0  0  0  0  0  0  0  0  0  0  0
   58.6556   27.8889   47.8595 H   0  0  0  0  0  0  0  0  0  0  0  0
   58.2341   32.2136   49.2842 H   0  0  0  0  0  0  0  0  0  0  0  0
  1  2  1  0
  2  3  2  0
  3  4  1  0
  4  5  2  0
  5  6  1  0
  6  7  1  0
  7  8  1  0
  8  9  2  0
  9 10  1  0
 10 11  1  0
 11 12  1  0
 12 13  1  0
 13 14  1  0
 14 15  1  0
 15 16  1  0
  9 17  1  0
 17 18  2  0
 18 19  1  0
 19 20  2  0
 20 21  1  0
 21 22  1  0
 22 23  1  0
 23 24  2  0
 24 25  1  0
 25 26  1  0
 20 27  1  0
 27 28  1  0
  6 29  2  0
 29  2  1  0
 28  7  2  0
 16 12  1  0
 27 17  1  0
 26 22  2  0
  3 30  1  0
  4 31  1  0
  5 32  1  0
  8 33  1  0
 10 34  1  0
 11 35  1  0
 11 36  1  0
 12 37  1  6
 13 38  1  0
 13 39  1  0
 14 40  1  0
 14 41  1  0
 15 42  1  0
 15 43  1  0
 18 44  1  0
 19 45  1  0
 21 46  1  0
 21 47  1  0
 23 48  1  0
 24 49  1  0
 28 50  1  0
 29 51  1  0
M  CHG  2  18   1  25  -1
M  END
>  <UniqueID>  (39) 
36

>  <SMILES>  (39) 
Clc1cccc(-c2cc(NC[C@@H]3CCCO3)c3[nH+]cc(Cc4cc[n-]n4)n3c2)c1

>  <Energy>  (39) 
123.65695288374634

>  <Genealogy>  (39) 
Clc1cccc(-c2cc(NCC3CCCO3)c3[nH+]cc(Cc4cc[n-]n4)n3c2)c1 (protonated)
Clc1cccc(-c2cc(NC[C@@H]3CCCO3)c3[nH+]cc(Cc4cc[n-]n4)n3c2)c1 (chirality)
Clc1cccc(-c2cc(NC[C@@H]3CCCO3)c3[nH+]cc(Cc4cc[n-]n4)n3c2)c1 (3D coordinates assigned)
Clc1cccc(-c2cc(NC[C@@H]3CCCO3)c3[nH+]cc(Cc4cc[n-]n4)n3c2)c1 (nonaromatic ring conformer: 123.65695288374634 kcal/mol)

>  <smiles>  (39) 
Clc1cccc(-c2cc(NCC3CCCO3)c3ncc(Cc4cc[nH]n4)n3c2)c1

>  <score_type>  (39) 
oracle

>  <origin>  (39) 
adg

>  <m_score__min__energy>  (39) 
-10.07

>  <m_primary>  (39) 
energy

$$$$
39:0
     RDKit          3D

 37 38  0  0  0  0  0  0  0  0999 V2000
   59.2720   34.8920   47.2270 C   0  0  0  0  0  0  0  0  0  0  0  0
   58.2260   33.9340   47.2260 O   0  0  0  0  0  0  0  0  0  0  0  0
   58.4260   32.6330   46.7420 C   0  0  0  0  0  0  0  0  0  0  0  0
   58.8410   31.5970   47.5470 C   0  0  0  0  0  0  0  0  0  0  0  0
   59.0960   31.8380   48.9970 C   0  0  0  0  0  0  0  0  0  0  0  0
   59.0200   30.3270   47.0060 C   0  0  0  0  0  0  0  0  0  0  0  0
   58.7870   30.1030   45.6720 C   0  0  0  0  0  0  0  0  0  0  0  0
   58.9430   28.7870   45.0060 C   0  0  0  0  0  0  0  0  0  0  0  0
   57.9650   27.7930   45.4380 C   0  0  0  0  0  0  0  0  0  0  0  0
   58.4150   26.5150   45.7890 C   0  0  0  0  0  0  0  0  0  0  0  0
   57.5940   25.5470   46.1880 N   0  0  0  0  0  0  0  0  0  0  0  0
   56.2760   25.7650   46.2690 C   0  0  0  0  0  0  0  0  0  0  0  0
   55.5240   24.7990   46.6580 N   0  0  0  0  0  0  0  0  0  0  0  0
   55.7930   26.9750   45.9430 N   0  0  0  0  0  0  0  0  0  0  0  0
   56.6060   27.9870   45.5320 C   0  0  0  0  0  0  0  0  0  0  0  0
   56.1230   29.1400   45.2280 N   0  0  0  0  0  0  0  0  0  0  0  0
   58.3720   31.1580   44.8850 C   0  0  0  0  0  0  0  0  0  0  0  0
   58.1830   32.4360   45.3940 C   0  0  0  0  0  0  0  0  0  0  0  0
   57.7350   33.5730   44.5370 C   0  0  0  0  0  0  0  0  0  0  0  0
   59.5419   35.1392   48.2644 H   0  0  0  0  0  0  0  0  0  0  0  0
   60.1493   34.4776   46.7087 H   0  0  0  0  0  0  0  0  0  0  0  0
   58.9361   35.8022   46.7087 H   0  0  0  0  0  0  0  0  0  0  0  0
   58.4261   31.2049   49.5973 H   0  0  0  0  0  0  0  0  0  0  0  0
   60.1419   31.5907   49.2314 H   0  0  0  0  0  0  0  0  0  0  0  0
   58.9081   32.8962   49.2314 H   0  0  0  0  0  0  0  0  0  0  0  0
   59.3498   29.4989   47.6506 H   0  0  0  0  0  0  0  0  0  0  0  0
   58.8355   28.9317   43.9209 H   0  0  0  0  0  0  0  0  0  0  0  0
   59.9363   28.4025   45.2809 H   0  0  0  0  0  0  0  0  0  0  0  0
   59.4927   26.3019   45.7326 H   0  0  0  0  0  0  0  0  0  0  0  0
   58.0120   24.6250   46.4310 H   0  0  0  0  0  0  0  0  0  0  0  0
   55.1600   24.8100   47.6190 H   0  0  0  0  0  0  0  0  0  0  0  0
   54.7710   27.1790   45.9960 H   0  0  0  0  0  0  0  0  0  0  0  0
   55.7590   29.7370   45.9930 H   0  0  0  0  0  0  0  0  0  0  0  0
   58.1842   30.9800   43.8159 H   0  0  0  0  0  0  0  0  0  0  0  0
   57.4067   34.4063   45.1756 H   0  0  0  0  0  0  0  0  0  0  0  0
   58.5697   33.9046   43.9019 H   0  0  0  0  0  0  0  0  0  0  0  0
   56.8985   33.2461   43.9019 H   0  0  0  0  0  0  0  0  0  0  0  0
  1  2  1  0
  2  3  1  0
  3  4  2  0
  4  5  1  0
  4  6  1  0
  6  7  2  0
  7  8  1  0
  8  9  1  0
  9 10  2  0
 10 11  1  0
 11 12  1  0
 12 13  2  3
 12 14  1  0
 14 15  1  0
 15 16  2  3
  7 17  1  0
 17 18  2  0
 18 19  1  0
 18  3  1  0
 15  9  1  0
  1 20  1  0
  1 21  1  0
  1 22  1  0
  5 23  1  0
  5 24  1  0
  5 25  1  0
  6 26  1  0
  8 27  1  0
  8 28  1  0
 10 29  1  0
 11 30  1  0
 13 31  1  0
 14 32  1  0
 16 33  1  0
 17 34  1  0
 19 35  1  0
 19 36  1  0
 19 37  1  0
M  END
>  <smiles>  (40) 
COc1c(C)cc(Cc2c[nH]c(=N)[nH]c2=N)cc1C

>  <score_type>  (40) 
oracle

>  <origin>  (40) 
adg

>  <m_score__min__energy>  (40) 
-6.8499999999999996

>  <m_primary>  (40) 
energy

$$$$
40:0
     RDKit          3D

 33 34  0  0  0  0  0  0  0  0999 V2000
   58.3840   33.7940   44.3910 C   0  0  0  0  0  0  0  0  0  0  0  0
   57.8740   32.4540   43.9400 C   0  0  0  0  0  0  0  0  0  0  0  0
   58.1330   32.0720   42.8090 O   0  0  0  0  0  0  0  0  0  0  0  0
   57.0230   31.5690   44.8230 C   0  0  0  0  0  0  0  0  0  0  0  0
   57.8030   30.4980   45.4650 N   0  0  0  0  0  0  0  0  0  0  0  0
   57.3650   29.1240   45.3360 C   0  0  0  0  0  0  0  0  0  0  0  0
   56.3050   28.8590   44.7040 O   0  0  0  0  0  0  0  0  0  0  0  0
   58.1670   28.0120   45.9750 C   0  0  1  0  0  0  0  0  0  0  0  0
   57.7400   26.6010   45.5260 C   0  0  0  0  0  0  0  0  0  0  0  0
   56.5170   26.1260   46.2560 C   0  0  0  0  0  0  0  0  0  0  0  0
   55.2420   26.7110   45.9870 N   0  0  0  0  0  0  0  0  0  0  0  0
   56.6110   25.2020   47.1080 O   0  0  0  0  0  0  0  0  0  0  0  0
   59.9090   28.2760   45.5220 S   0  0  0  0  0  0  0  0  0  0  0  0
   59.9970   29.8350   46.4080 C   0  0  0  0  0  0  0  0  0  0  0  0
   61.0780   30.0740   47.2650 C   0  0  0  0  0  0  0  0  0  0  0  0
   61.1890   31.2960   47.9300 C   0  0  0  0  0  0  0  0  0  0  0  0
   60.2150   32.2790   47.7500 C   0  0  0  0  0  0  0  0  0  0  0  0
   59.1180   32.0380   46.9180 C   0  0  0  0  0  0  0  0  0  0  0  0
   58.9890   30.8070   46.2420 C   0  0  0  0  0  0  0  0  0  0  0  0
   58.3977   33.8301   45.4903 H   0  0  0  0  0  0  0  0  0  0  0  0
   59.4032   33.9468   44.0064 H   0  0  0  0  0  0  0  0  0  0  0  0
   57.7244   34.5858   44.0064 H   0  0  0  0  0  0  0  0  0  0  0  0
   56.5636   32.1894   45.6066 H   0  0  0  0  0  0  0  0  0  0  0  0
   56.2622   31.0935   44.1865 H   0  0  0  0  0  0  0  0  0  0  0  0
   57.9975   28.0519   47.0611 H   0  0  0  0  0  0  0  0  0  0  0  0
   57.5247   26.6212   44.4475 H   0  0  0  0  0  0  0  0  0  0  0  0
   58.5631   25.9077   45.7538 H   0  0  0  0  0  0  0  0  0  0  0  0
   55.1470   27.4850   45.2920 H   0  0  0  0  0  0  0  0  0  0  0  0
   54.3910   26.3720   46.4880 H   0  0  0  0  0  0  0  0  0  0  0  0
   61.8418   29.2967   47.4146 H   0  0  0  0  0  0  0  0  0  0  0  0
   62.0441   31.4842   48.5959 H   0  0  0  0  0  0  0  0  0  0  0  0
   60.3108   33.2465   48.2645 H   0  0  0  0  0  0  0  0  0  0  0  0
   58.3494   32.8144   46.7895 H   0  0  0  0  0  0  0  0  0  0  0  0
  1  2  1  0
  2  3  2  0
  2  4  1  0
  4  5  1  0
  5  6  1  0
  6  7  2  0
  6  8  1  0
  8  9  1  0
  9 10  1  0
 10 11  1  0
 10 12  2  0
  8 13  1  0
 13 14  1  0
 14 15  2  0
 15 16  1  0
 16 17  2  0
 17 18  1  0
 18 19  2  0
 19  5  1  0
 19 14  1  0
  1 20  1  0
  1 21  1  0
  1 22  1  0
  4 23  1  0
  4 24  1  0
  8 25  1  1
  9 26  1  0
  9 27  1  0
 11 28  1  0
 11 29  1  0
 15 30  1  0
 16 31  1  0
 17 32  1  0
 18 33  1  0
M  END
>  <UniqueID>  (41) 
37

>  <SMILES>  (41) 
CC(=O)CN1C(=O)[C@@H](CC(N)=O)Sc2ccccc21

>  <Energy>  (41) 
35.16086574899405

>  <Genealogy>  (41) 
CC(=O)CN1C(=O)[C@@H](CC(N)=O)Sc2ccccc21 (chirality)
CC(=O)CN1C(=O)[C@@H](CC(N)=O)Sc2ccccc21 (3D coordinates assigned)
CC(=O)CN1C(=O)[C@@H](CC(N)=O)Sc2ccccc21 (nonaromatic ring conformer: 35.16086574899405 kcal/mol)

>  <smiles>  (41) 
CC(=O)CN1C(=O)C(CC(N)=O)Sc2ccccc21

>  <score_type>  (41) 
oracle

>  <origin>  (41) 
adg

>  <m_score__min__energy>  (41) 
-7.2400000000000002

>  <m_primary>  (41) 
energy

$$$$
41:0
     RDKit          3D

 27 29  0  0  0  0  0  0  0  0999 V2000
   55.5230   27.2120   45.6220 O   0  0  0  0  0  0  0  0  0  0  0  0
   56.2820   26.4100   46.2270 C   0  0  0  0  0  0  0  0  0  0  0  0
   55.7660   25.2080   46.6930 O   0  0  0  0  0  0  0  0  0  0  0  0
   57.6970   26.7580   46.4480 C   0  0  0  0  0  0  0  0  0  0  0  0
   58.6080   26.0150   47.1750 C   0  0  0  0  0  0  0  0  0  0  0  0
   59.8330   26.5760   47.1260 N   0  0  0  0  0  0  0  0  0  0  0  0
   59.7060   27.6830   46.3680 C   0  0  0  0  0  0  0  0  0  0  0  0
   58.4020   27.8360   45.9420 C   0  0  0  0  0  0  0  0  0  0  0  0
   57.9030   28.9300   45.0840 C   0  0  0  0  0  0  0  0  0  0  0  0
   57.3760   28.5960   43.8270 C   0  0  0  0  0  0  0  0  0  0  0  0
   56.8670   29.5830   42.9830 C   0  0  0  0  0  0  0  0  0  0  0  0
   56.8830   30.9200   43.3760 C   0  0  0  0  0  0  0  0  0  0  0  0
   57.4230   31.2860   44.6160 C   0  0  0  0  0  0  0  0  0  0  0  0
   57.4520   32.6370   44.9990 C   0  0  0  0  0  0  0  0  0  0  0  0
   58.0080   33.0080   46.2240 C   0  0  0  0  0  0  0  0  0  0  0  0
   58.5430   32.0400   47.0740 C   0  0  0  0  0  0  0  0  0  0  0  0
   58.5210   30.6920   46.7080 C   0  0  0  0  0  0  0  0  0  0  0  0
   57.9500   30.2910   45.4820 C   0  0  0  0  0  0  0  0  0  0  0  0
   58.3662   25.0906   47.7200 H   0  0  0  0  0  0  0  0  0  0  0  0
   60.5288   28.3705   46.1224 H   0  0  0  0  0  0  0  0  0  0  0  0
   57.3642   27.5446   43.5038 H   0  0  0  0  0  0  0  0  0  0  0  0
   56.4513   29.3050   42.0033 H   0  0  0  0  0  0  0  0  0  0  0  0
   56.4698   31.6915   42.7096 H   0  0  0  0  0  0  0  0  0  0  0  0
   57.0351   33.4052   44.3311 H   0  0  0  0  0  0  0  0  0  0  0  0
   58.0244   34.0672   46.5203 H   0  0  0  0  0  0  0  0  0  0  0  0
   58.9840   32.3393   48.0363 H   0  0  0  0  0  0  0  0  0  0  0  0
   58.9526   29.9369   47.3815 H   0  0  0  0  0  0  0  0  0  0  0  0
  1  2  2  0
  2  3  1  0
  2  4  1  0
  4  5  2  0
  5  6  1  0
  6  7  1  0
  7  8  2  0
  8  9  1  0
  9 10  2  0
 10 11  1  0
 11 12  2  0
 12 13  1  0
 13 14  2  0
 14 15  1  0
 15 16  2  0
 16 17  1  0
 17 18  2  0
  8  4  1  0
 18  9  1  0
 18 13  1  0
  5 19  1  0
  7 20  1  0
 10 21  1  0
 11 22  1  0
 12 23  1  0
 14 24  1  0
 15 25  1  0
 16 26  1  0
 17 27  1  0
M  CHG  2   3  -1   6  -1
M  END
>  <UniqueID>  (42) 
38

>  <SMILES>  (42) 
O=C([O-])c1c[n-]cc1-c1cccc2ccccc12

>  <Energy>  (42) 
66.56044641853916

>  <Genealogy>  (42) 
O=C([O-])c1c[n-]cc1-c1cccc2ccccc12 (protonated)
O=C([O-])c1c[n-]cc1-c1cccc2ccccc12 (3D coordinates assigned)
O=C([O-])c1c[n-]cc1-c1cccc2ccccc12 (optimized conformer: 66.56044641853916 kcal/mol)

>  <smiles>  (42) 
O=C(O)c1c[nH]cc1-c1cccc2ccccc12

>  <score_type>  (42) 
oracle

>  <origin>  (42) 
adg

>  <m_score__min__energy>  (42) 
-10.67

>  <m_primary>  (42) 
energy

$$$$
42:0
     RDKit          3D

 50 52  0  0  0  0  0  0  0  0999 V2000
   56.1210   30.2720   43.9960 C   0  0  0  0  0  0  0  0  0  0  0  0
   56.8330   29.8110   45.1240 O   0  0  0  0  0  0  0  0  0  0  0  0
   58.1360   29.3940   44.7560 C   0  0  0  0  0  0  0  0  0  0  0  0
   59.1590   29.7510   45.8530 C   0  0  0  0  0  0  0  0  0  0  0  0
   58.5470   30.4860   46.9920 N   0  0  1  0  0  0  0  0  0  0  0  0
   58.8420   29.9080   48.2760 C   0  0  0  0  0  0  0  0  0  0  0  0
   58.8940   28.7020   48.4720 O   0  0  0  0  0  0  0  0  0  0  0  0
   58.9860   30.8890   49.3740 C   0  0  0  0  0  0  0  0  0  0  0  0
   58.6800   32.1990   48.6640 C   0  0  0  0  0  0  0  0  0  0  0  0
   58.9590   31.9190   47.1590 C   0  0  2  0  0  0  0  0  0  0  0  0
   58.0680   32.8240   46.2700 C   0  0  0  0  0  0  0  0  0  0  0  0
   57.8100   34.0500   46.9240 O   0  0  0  0  0  0  0  0  0  0  0  0
   58.8690   34.9640   46.7440 C   0  0  0  0  0  0  0  0  0  0  0  0
   60.1610   34.5560   47.4760 C   0  0  0  0  0  0  0  0  0  0  0  0
   60.9630   33.5530   46.7460 N   0  0  0  0  0  0  0  0  0  0  0  0
   62.4150   33.7960   46.6650 C   0  0  0  0  0  0  0  0  0  0  0  0
   63.0720   33.4740   47.9800 C   0  0  0  0  0  0  0  0  0  0  0  0
   62.9190   34.3430   49.0730 C   0  0  0  0  0  0  0  0  0  0  0  0
   63.5060   34.0370   50.3040 C   0  0  0  0  0  0  0  0  0  0  0  0
   64.2450   32.8590   50.4550 C   0  0  0  0  0  0  0  0  0  0  0  0
   64.8110   32.5630   51.6510 F   0  0  0  0  0  0  0  0  0  0  0  0
   64.3940   31.9860   49.3740 C   0  0  0  0  0  0  0  0  0  0  0  0
   63.8100   32.2890   48.1410 C   0  0  0  0  0  0  0  0  0  0  0  0
   60.5040   32.1480   46.8620 C   0  0  0  0  0  0  0  0  0  0  0  0
   55.2402   30.8423   44.3262 H   0  0  0  0  0  0  0  0  0  0  0  0
   56.7720   30.9204   43.3913 H   0  0  0  0  0  0  0  0  0  0  0  0
   55.7958   29.4126   43.3913 H   0  0  0  0  0  0  0  0  0  0  0  0
   58.1360   28.3045   44.6045 H   0  0  0  0  0  0  0  0  0  0  0  0
   58.4213   29.9112   43.8280 H   0  0  0  0  0  0  0  0  0  0  0  0
   59.6055   28.8206   46.2339 H   0  0  0  0  0  0  0  0  0  0  0  0
   59.9148   30.4098   45.4005 H   0  0  0  0  0  0  0  0  0  0  0  0
   57.5040   30.4410   46.9020 H   0  0  0  0  0  0  0  0  0  0  0  0
   58.2658   30.6939   50.1822 H   0  0  0  0  0  0  0  0  0  0  0  0
   59.9707   30.8676   49.8638 H   0  0  0  0  0  0  0  0  0  0  0  0
   57.6284   32.4838   48.8154 H   0  0  0  0  0  0  0  0  0  0  0  0
   59.2907   33.0290   49.0490 H   0  0  0  0  0  0  0  0  0  0  0  0
   58.5850   33.0213   45.3193 H   0  0  0  0  0  0  0  0  0  0  0  0
   57.1135   32.3114   46.0796 H   0  0  0  0  0  0  0  0  0  0  0  0
   59.0864   35.0381   45.6682 H   0  0  0  0  0  0  0  0  0  0  0  0
   58.5443   35.9248   47.1701 H   0  0  0  0  0  0  0  0  0  0  0  0
   60.7774   35.4555   47.6209 H   0  0  0  0  0  0  0  0  0  0  0  0
   59.8603   34.0967   48.4292 H   0  0  0  0  0  0  0  0  0  0  0  0
   62.8462   33.1595   45.8783 H   0  0  0  0  0  0  0  0  0  0  0  0
   62.5880   34.8563   46.4285 H   0  0  0  0  0  0  0  0  0  0  0  0
   62.3348   35.2681   48.9596 H   0  0  0  0  0  0  0  0  0  0  0  0
   63.3867   34.7235   51.1552 H   0  0  0  0  0  0  0  0  0  0  0  0
   64.9724   31.0580   49.4939 H   0  0  0  0  0  0  0  0  0  0  0  0
   63.9284   31.5976   47.2937 H   0  0  0  0  0  0  0  0  0  0  0  0
   60.7388   31.6422   45.9138 H   0  0  0  0  0  0  0  0  0  0  0  0
   61.0281   31.7465   47.7419 H   0  0  0  0  0  0  0  0  0  0  0  0
  1  2  1  0
  2  3  1  0
  3  4  1  0
  4  5  1  0
  5  6  1  0
  6  7  2  0
  6  8  1  0
  8  9  1  0
 10  9  1  1
 10 11  1  0
 11 12  1  0
 12 13  1  0
 13 14  1  0
 14 15  1  0
 15 16  1  0
 16 17  1  0
 17 18  2  0
 18 19  1  0
 19 20  2  0
 20 21  1  0
 20 22  1  0
 22 23  2  0
 15 24  1  0
 10  5  1  0
 23 17  1  0
 24 10  1  0
  1 25  1  0
  1 26  1  0
  1 27  1  0
  3 28  1  0
  3 29  1  0
  4 30  1  0
  4 31  1  0
  5 32  1  6
  8 33  1  0
  8 34  1  0
  9 35  1  0
  9 36  1  0
 11 37  1  0
 11 38  1  0
 13 39  1  0
 13 40  1  0
 14 41  1  0
 14 42  1  0
 16 43  1  0
 16 44  1  0
 18 45  1  0
 19 46  1  0
 22 47  1  0
 23 48  1  0
 24 49  1  0
 24 50  1  0
M  CHG  1   5   1
M  END
>  <UniqueID>  (43) 
39

>  <SMILES>  (43) 
COCC[N@H+]1C(=O)CC[C@]12COCCN(Cc1ccc(F)cc1)C2

>  <Energy>  (43) 
86.56920852943192

>  <Genealogy>  (43) 
COCC[NH+]1C(=O)CCC12COCCN(Cc1ccc(F)cc1)C2 (protonated)
COCC[N@H+]1C(=O)CC[C@]12COCCN(Cc1ccc(F)cc1)C2 (chirality)
COCC[N@H+]1C(=O)CC[C@]12COCCN(Cc1ccc(F)cc1)C2 (3D coordinates assigned)
COCC[N@H+]1C(=O)CC[C@]12COCCN(Cc1ccc(F)cc1)C2 (nonaromatic ring conformer: 86.56920852943192 kcal/mol)

>  <smiles>  (43) 
COCCN1C(=O)CCC12COCCN(Cc1ccc(F)cc1)C2

>  <score_type>  (43) 
oracle

>  <origin>  (43) 
adg

>  <m_score__min__energy>  (43) 
-3.1299999999999999

>  <m_primary>  (43) 
energy

$$$$
43:0
     RDKit          3D

 34 35  0  0  0  0  0  0  0  0999 V2000
   57.8426   31.1393   42.9573 H   0  0  0  0  0  0  0  0  0  0  0  0
   57.3050   31.3390   43.8960 C   0  0  0  0  0  0  0  0  0  0  0  0
   56.4380   30.2840   44.4550 C   0  0  0  0  0  0  0  0  0  0  0  0
   55.1920   30.4750   44.4580 O   0  0  0  0  0  0  0  0  0  0  0  0
   56.9630   29.0070   44.9840 C   0  0  0  0  0  0  0  0  0  0  0  0
   58.2810   28.7730   45.3320 C   0  0  0  0  0  0  0  0  0  0  0  0
   59.1235   29.4735   45.2345 H   0  0  0  0  0  0  0  0  0  0  0  0
   58.3280   27.4850   45.8260 C   0  0  0  0  0  0  0  0  0  0  0  0
   59.2190   26.9536   46.1916 H   0  0  0  0  0  0  0  0  0  0  0  0
   57.0400   26.9940   45.7720 C   0  0  0  0  0  0  0  0  0  0  0  0
   56.7350   25.9883   46.0970 H   0  0  0  0  0  0  0  0  0  0  0  0
   56.2110   27.9240   45.2640 N   0  0  0  0  0  0  0  0  0  0  0  0
   55.1780   27.8240   45.1530 H   0  0  0  0  0  0  0  0  0  0  0  0
   57.4630   32.5320   44.4880 C   0  0  0  0  0  0  0  0  0  0  0  0
   56.6846   33.2934   44.3321 H   0  0  0  0  0  0  0  0  0  0  0  0
   58.6250   32.8870   45.3410 C   0  0  0  0  0  0  0  0  0  0  0  0
   59.0700   34.2120   45.5080 C   0  0  0  0  0  0  0  0  0  0  0  0
   58.5528   35.0317   44.9877 H   0  0  0  0  0  0  0  0  0  0  0  0
   60.1640   34.4930   46.3300 C   0  0  0  0  0  0  0  0  0  0  0  0
   60.5085   35.5315   46.4435 H   0  0  0  0  0  0  0  0  0  0  0  0
   60.8260   33.4630   47.0110 C   0  0  0  0  0  0  0  0  0  0  0  0
   61.9430   33.7750   47.8580 N   0  0  0  0  0  0  0  0  0  0  0  0
   61.7110   34.1290   49.2570 C   0  0  0  0  0  0  0  0  0  0  0  0
   62.1969   33.3876   49.9083 H   0  0  0  0  0  0  0  0  0  0  0  0
   62.1319   35.1252   49.4578 H   0  0  0  0  0  0  0  0  0  0  0  0
   60.6295   34.1406   49.4578 H   0  0  0  0  0  0  0  0  0  0  0  0
   63.3090   33.7160   47.3370 C   0  0  0  0  0  0  0  0  0  0  0  0
   64.0202   33.6853   48.1756 H   0  0  0  0  0  0  0  0  0  0  0  0
   63.4281   32.8119   46.7219 H   0  0  0  0  0  0  0  0  0  0  0  0
   63.5056   34.6065   46.7219 H   0  0  0  0  0  0  0  0  0  0  0  0
   60.3820   32.1370   46.8560 C   0  0  0  0  0  0  0  0  0  0  0  0
   61.2080   30.8000   47.6460 Cl  0  0  0  0  0  0  0  0  0  0  0  0
   59.2860   31.8580   46.0310 C   0  0  0  0  0  0  0  0  0  0  0  0
   58.9384   30.8201   45.9219 H   0  0  0  0  0  0  0  0  0  0  0  0
  1  2  1  0
  2  3  1  0
  3  4  2  0
  3  5  1  0
  5  6  2  0
  6  7  1  0
  6  8  1  0
  8  9  1  0
  8 10  2  0
 10 11  1  0
 10 12  1  0
 12 13  1  0
  2 14  2  0
 14 15  1  0
 14 16  1  0
 16 17  2  0
 17 18  1  0
 17 19  1  0
 19 20  1  0
 19 21  2  0
 21 22  1  0
 22 23  1  0
 23 24  1  0
 23 25  1  0
 23 26  1  0
 22 27  1  0
 27 28  1  0
 27 29  1  0
 27 30  1  0
 21 31  1  0
 31 32  1  0
 31 33  2  0
 33 34  1  0
 12  5  1  0
 33 16  1  0
M  END
>  <UniqueID>  (44) 
40

>  <SMILES>  (44) 
CN(C)c1ccc(/C=C/C(=O)c2ccc[nH]2)cc1Cl

>  <Energy>  (44) 
68.3757755017541

>  <Genealogy>  (44) 
CN(C)c1ccc(/C=C/C(=O)c2ccc[nH]2)cc1Cl (cis-trans isomerization)
CN(C)c1ccc(/C=C/C(=O)c2ccc[nH]2)cc1Cl (3D coordinates assigned)
CN(C)c1ccc(/C=C/C(=O)c2ccc[nH]2)cc1Cl (optimized conformer: 68.3757755017541 kcal/mol)

>  <smiles>  (44) 
CN(C)c1ccc(C=CC(=O)c2ccc[nH]2)cc1Cl

>  <score_type>  (44) 
oracle

>  <origin>  (44) 
adg

>  <m_score__min__energy>  (44) 
-7.3899999999999997

>  <m_primary>  (44) 
energy

$$$$
44:0
     RDKit          3D

 34 36  0  0  0  0  0  0  0  0999 V2000
   57.4210   26.2240   44.0980 N   0  0  0  0  0  0  0  0  0  0  0  0
   57.1570   26.9550   45.6650 S   0  0  0  0  0  0  0  0  0  0  0  0
   57.9360   26.2670   46.7330 O   0  0  0  0  0  0  0  0  0  0  0  0
   55.6890   26.7960   45.9760 O   0  0  0  0  0  0  0  0  0  0  0  0
   57.5320   28.6650   45.6120 C   0  0  0  0  0  0  0  0  0  0  0  0
   57.1440   29.4420   44.5460 C   0  0  0  0  0  0  0  0  0  0  0  0
   57.4470   30.7960   44.5070 C   0  0  0  0  0  0  0  0  0  0  0  0
   58.1550   31.4160   45.5420 C   0  0  0  0  0  0  0  0  0  0  0  0
   58.4500   32.8330   45.4520 C   0  0  0  0  0  0  0  0  0  0  0  0
   57.6440   33.7070   44.7880 N   0  0  0  0  0  0  0  0  0  0  0  0
   58.1370   34.9320   44.8680 N   0  0  0  0  0  0  0  0  0  0  0  0
   59.2550   34.8950   45.5710 C   0  0  0  0  0  0  0  0  0  0  0  0
   59.4740   33.5680   45.9540 C   0  0  0  0  0  0  0  0  0  0  0  0
   60.6390   33.1820   46.7430 C   0  0  0  0  0  0  0  0  0  0  0  0
   61.9360   33.4810   46.3710 C   0  0  0  0  0  0  0  0  0  0  0  0
   63.0250   33.0940   47.1580 C   0  0  0  0  0  0  0  0  0  0  0  0
   62.8390   32.4040   48.3280 C   0  0  0  0  0  0  0  0  0  0  0  0
   63.9320   32.0470   49.0630 F   0  0  0  0  0  0  0  0  0  0  0  0
   61.5500   32.0970   48.7160 C   0  0  0  0  0  0  0  0  0  0  0  0
   60.4650   32.4770   47.9430 C   0  0  0  0  0  0  0  0  0  0  0  0
   58.5210   30.5990   46.5850 C   0  0  0  0  0  0  0  0  0  0  0  0
   58.2280   29.2530   46.6420 C   0  0  0  0  0  0  0  0  0  0  0  0
   57.3300   27.0170   43.4090 H   0  0  0  0  0  0  0  0  0  0  0  0
   56.6140   25.5710   43.8770 H   0  0  0  0  0  0  0  0  0  0  0  0
   56.5871   28.9853   43.7146 H   0  0  0  0  0  0  0  0  0  0  0  0
   57.1232   31.3948   43.6430 H   0  0  0  0  0  0  0  0  0  0  0  0
   56.7650   33.4960   44.2790 H   0  0  0  0  0  0  0  0  0  0  0  0
   59.8983   35.7541   45.8119 H   0  0  0  0  0  0  0  0  0  0  0  0
   62.1151   34.0344   45.4373 H   0  0  0  0  0  0  0  0  0  0  0  0
   64.0453   33.3467   46.8338 H   0  0  0  0  0  0  0  0  0  0  0  0
   61.3823   31.5432   49.6515 H   0  0  0  0  0  0  0  0  0  0  0  0
   59.4484   32.2212   48.2764 H   0  0  0  0  0  0  0  0  0  0  0  0
   59.0793   31.0443   47.4216 H   0  0  0  0  0  0  0  0  0  0  0  0
   58.5491   28.6530   47.5062 H   0  0  0  0  0  0  0  0  0  0  0  0
  1  2  1  0
  2  3  2  0
  2  4  2  0
  2  5  1  0
  5  6  2  0
  6  7  1  0
  7  8  2  0
  8  9  1  0
  9 10  1  0
 10 11  1  0
 11 12  2  0
 12 13  1  0
 13 14  1  0
 14 15  2  0
 15 16  1  0
 16 17  2  0
 17 18  1  0
 17 19  1  0
 19 20  2  0
  8 21  1  0
 21 22  2  0
 22  5  1  0
 13  9  2  0
 20 14  1  0
  1 23  1  0
  1 24  1  0
  6 25  1  0
  7 26  1  0
 10 27  1  0
 12 28  1  0
 15 29  1  0
 16 30  1  0
 19 31  1  0
 20 32  1  0
 21 33  1  0
 22 34  1  0
M  END
>  <smiles>  (45) 
NS(=O)(=O)c1ccc(-c2[nH]ncc2-c2ccc(F)cc2)cc1

>  <score_type>  (45) 
oracle

>  <origin>  (45) 
adg

>  <m_score__min__energy>  (45) 
-7.9000000000000004

>  <m_primary>  (45) 
energy

$$$$
45:0
     RDKit          3D

 45 48  0  0  0  0  0  0  0  0999 V2000
   58.8490   25.5230   46.5590 O   0  0  0  0  0  0  0  0  0  0  0  0
   57.6240   25.7010   46.3310 C   0  0  0  0  0  0  0  0  0  0  0  0
   56.7010   24.6470   46.6380 N   0  0  0  0  0  0  0  0  0  0  0  0
   55.6990   24.1080   45.7220 C   0  0  0  0  0  0  0  0  0  0  0  0
   56.2810   23.0540   44.8180 C   0  0  0  0  0  0  0  0  0  0  0  0
   56.0240   23.0660   43.4390 C   0  0  0  0  0  0  0  0  0  0  0  0
   56.5840   22.0860   42.6170 C   0  0  0  0  0  0  0  0  0  0  0  0
   57.4110   21.1120   43.1780 C   0  0  0  0  0  0  0  0  0  0  0  0
   57.6760   21.1260   44.5120 N   0  0  0  0  0  0  0  0  0  0  0  0
   57.1390   22.0690   45.3350 C   0  0  0  0  0  0  0  0  0  0  0  0
   57.1820   26.9950   45.7920 C   0  0  0  0  0  0  0  0  0  0  0  0
   57.9920   28.0560   45.4580 C   0  0  0  0  0  0  0  0  0  0  0  0
   57.1100   29.0380   45.0460 C   0  0  0  0  0  0  0  0  0  0  0  0
   57.4650   30.3920   44.5400 C   0  0  0  0  0  0  0  0  0  0  0  0
   57.3040   30.6960   43.1740 C   0  0  0  0  0  0  0  0  0  0  0  0
   57.6060   31.9680   42.6830 C   0  0  0  0  0  0  0  0  0  0  0  0
   57.3860   32.3250   40.9790 Cl  0  0  0  0  0  0  0  0  0  0  0  0
   58.0840   32.9540   43.5460 C   0  0  0  0  0  0  0  0  0  0  0  0
   58.2550   32.6730   44.9010 C   0  0  0  0  0  0  0  0  0  0  0  0
   57.9370   31.4010   45.4140 C   0  0  0  0  0  0  0  0  0  0  0  0
   58.1390   31.1140   46.7730 O   0  0  0  0  0  0  0  0  0  0  0  0
   59.1200   31.6980   47.5890 C   0  0  0  0  0  0  0  0  0  0  0  0
   60.4480   31.2770   47.4500 C   0  0  0  0  0  0  0  0  0  0  0  0
   61.4520   31.8260   48.2560 C   0  0  0  0  0  0  0  0  0  0  0  0
   62.7370   31.4220   48.1070 F   0  0  0  0  0  0  0  0  0  0  0  0
   61.1300   32.7940   49.2140 C   0  0  0  0  0  0  0  0  0  0  0  0
   59.8040   33.2060   49.3720 C   0  0  0  0  0  0  0  0  0  0  0  0
   59.4900   34.1360   50.3070 F   0  0  0  0  0  0  0  0  0  0  0  0
   58.7990   32.6570   48.5690 C   0  0  0  0  0  0  0  0  0  0  0  0
   55.8490   28.5740   45.1620 N   0  0  0  0  0  0  0  0  0  0  0  0
   55.8920   27.3340   45.6260 N   0  0  0  0  0  0  0  0  0  0  0  0
   54.8821   23.6628   46.3090 H   0  0  0  0  0  0  0  0  0  0  0  0
   55.3294   24.9323   45.0943 H   0  0  0  0  0  0  0  0  0  0  0  0
   55.3818   23.8468   43.0056 H   0  0  0  0  0  0  0  0  0  0  0  0
   56.3752   22.0818   41.5370 H   0  0  0  0  0  0  0  0  0  0  0  0
   57.8497   20.3309   42.5397 H   0  0  0  0  0  0  0  0  0  0  0  0
   58.3010   20.3930   44.9170 H   0  0  0  0  0  0  0  0  0  0  0  0
   57.3780   22.0593   46.4087 H   0  0  0  0  0  0  0  0  0  0  0  0
   59.0895   28.1105   45.5074 H   0  0  0  0  0  0  0  0  0  0  0  0
   56.9357   29.9215   42.4852 H   0  0  0  0  0  0  0  0  0  0  0  0
   58.3263   33.9541   43.1573 H   0  0  0  0  0  0  0  0  0  0  0  0
   58.6416   33.4517   45.5749 H   0  0  0  0  0  0  0  0  0  0  0  0
   60.7037   30.5107   46.7034 H   0  0  0  0  0  0  0  0  0  0  0  0
   61.9203   33.2304   49.8424 H   0  0  0  0  0  0  0  0  0  0  0  0
   57.7547   32.9753   48.7034 H   0  0  0  0  0  0  0  0  0  0  0  0
  1  2  2  0
  2  3  1  0
  3  4  1  0
  4  5  1  0
  5  6  2  0
  6  7  1  0
  7  8  2  0
  8  9  1  0
  9 10  2  0
  2 11  1  0
 11 12  1  0
 12 13  2  0
 13 14  1  0
 14 15  2  0
 15 16  1  0
 16 17  1  0
 16 18  2  0
 18 19  1  0
 19 20  2  0
 20 21  1  0
 21 22  1  0
 22 23  2  0
 23 24  1  0
 24 25  1  0
 24 26  2  0
 26 27  1  0
 27 28  1  0
 27 29  2  0
 13 30  1  0
 30 31  1  0
 10  5  1  0
 31 11  2  0
 20 14  1  0
 29 22  1  0
  4 32  1  0
  4 33  1  0
  6 34  1  0
  7 35  1  0
  8 36  1  0
  9 37  1  0
 10 38  1  0
 12 39  1  0
 15 40  1  0
 18 41  1  0
 19 42  1  0
 23 43  1  0
 26 44  1  0
 29 45  1  0
M  CHG  3   3  -1   9   1  30  -1
M  END
>  <UniqueID>  (46) 
41

>  <SMILES>  (46) 
O=C([N-]Cc1ccc[nH+]c1)c1cc(-c2cc(Cl)ccc2Oc2cc(F)cc(F)c2)[n-]n1

>  <Energy>  (46) 
90.97891995185088

>  <Genealogy>  (46) 
O=C([N-]Cc1ccc[nH+]c1)c1cc(-c2cc(Cl)ccc2Oc2cc(F)cc(F)c2)[n-]n1 (protonated)
O=C([N-]Cc1ccc[nH+]c1)c1cc(-c2cc(Cl)ccc2Oc2cc(F)cc(F)c2)[n-]n1 (3D coordinates assigned)
O=C([N-]Cc1ccc[nH+]c1)c1cc(-c2cc(Cl)ccc2Oc2cc(F)cc(F)c2)[n-]n1 (optimized conformer: 90.97891995185088 kcal/mol)

>  <smiles>  (46) 
O=C(NCc1cccnc1)c1cc(-c2cc(Cl)ccc2Oc2cc(F)cc(F)c2)[nH]n1

>  <score_type>  (46) 
oracle

>  <origin>  (46) 
adg

>  <m_score__min__energy>  (46) 
-11.550000000000001

>  <m_primary>  (46) 
energy

$$$$
46:0
     RDKit          3D

 82 87  0  0  0  0  0  0  0  0999 V2000
   58.6166   33.4670   41.5392 H   0  0  0  0  0  0  0  0  0  0  0  0
   58.0850   32.7160   42.1420 C   0  0  0  0  0  0  0  0  0  0  0  0
   58.1430   32.7700   43.5380 C   0  0  0  0  0  0  0  0  0  0  0  0
   58.7390   33.5515   44.0321 H   0  0  0  0  0  0  0  0  0  0  0  0
   57.2030   23.5580   46.2850 C   0  0  0  0  0  0  0  0  0  0  0  0
   57.6342   23.8100   47.2651 H   0  0  0  0  0  0  0  0  0  0  0  0
   56.2690   24.4250   45.6850 C   0  0  0  0  0  0  0  0  0  0  0  0
   55.9590   29.8410   44.4320 N   0  0  0  0  0  0  0  0  0  0  0  0
   56.4670   28.9670   45.2500 C   0  0  0  0  0  0  0  0  0  0  0  0
   57.5090   29.2830   46.0650 N   0  0  0  0  0  0  0  0  0  0  0  0
   57.9980   28.3670   46.9420 C   0  0  0  0  0  0  0  0  0  0  0  0
   59.0650   28.7240   47.8350 N   0  0  0  0  0  0  0  0  0  0  0  0
   59.3650   27.8680   48.3600 H   0  0  0  0  0  0  0  0  0  0  0  0
   58.7230   29.4370   48.5190 H   0  0  0  0  0  0  0  0  0  0  0  0
   60.2010   29.2530   47.0650 C   0  0  0  0  0  0  0  0  0  0  0  0
   61.0669   29.3610   47.7347 H   0  0  0  0  0  0  0  0  0  0  0  0
   59.9076   30.2254   46.6426 H   0  0  0  0  0  0  0  0  0  0  0  0
   60.5830   28.3150   45.8990 C   0  0  0  0  0  0  0  0  0  0  0  0
   61.6399   28.4846   45.6457 H   0  0  0  0  0  0  0  0  0  0  0  0
   59.9138   28.5495   45.0580 H   0  0  0  0  0  0  0  0  0  0  0  0
   60.3930   26.8240   46.2330 C   0  0  0  0  0  0  0  0  0  0  0  0
   60.7422   26.2267   45.3778 H   0  0  0  0  0  0  0  0  0  0  0  0
   59.3233   26.6678   46.4361 H   0  0  0  0  0  0  0  0  0  0  0  0
   61.1620   26.3840   47.4800 C   0  0  0  0  0  0  0  0  0  0  0  0
   62.0848   26.9764   47.5667 H   0  0  0  0  0  0  0  0  0  0  0  0
   61.4109   25.3161   47.3925 H   0  0  0  0  0  0  0  0  0  0  0  0
   60.3620   26.5840   48.6420 O   0  0  0  0  0  0  0  0  0  0  0  0
   60.8010   27.3180   49.7470 C   0  0  0  0  0  0  0  0  0  0  0  0
   61.6040   26.7230   50.6650 N   0  0  0  0  0  0  0  0  0  0  0  0
   62.0590   27.4240   51.7330 C   0  0  0  0  0  0  0  0  0  0  0  0
   62.8450   26.8470   52.5890 N   0  0  0  0  0  0  0  0  0  0  0  0
   64.0130   27.4890   53.1840 C   0  0  0  0  0  0  0  0  0  0  0  0
   63.7823   28.5427   53.3996 H   0  0  0  0  0  0  0  0  0  0  0  0
   64.2787   26.9733   54.1186 H   0  0  0  0  0  0  0  0  0  0  0  0
   65.1690   27.4150   52.2240 C   0  0  0  0  0  0  0  0  0  0  0  0
   65.5520   26.1660   51.7030 C   0  0  0  0  0  0  0  0  0  0  0  0
   64.9958   25.2608   51.9883 H   0  0  0  0  0  0  0  0  0  0  0  0
   66.6350   26.0680   50.8250 C   0  0  0  0  0  0  0  0  0  0  0  0
   66.9215   25.0889   50.4137 H   0  0  0  0  0  0  0  0  0  0  0  0
   67.3540   27.2110   50.4690 C   0  0  0  0  0  0  0  0  0  0  0  0
   68.2032   27.1316   49.7744 H   0  0  0  0  0  0  0  0  0  0  0  0
   66.9960   28.4550   50.9940 C   0  0  0  0  0  0  0  0  0  0  0  0
   67.5673   29.3524   50.7140 H   0  0  0  0  0  0  0  0  0  0  0  0
   65.9120   28.5650   51.8760 C   0  0  0  0  0  0  0  0  0  0  0  0
   65.4960   30.3010   52.5800 Br  0  0  0  0  0  0  0  0  0  0  0  0
   61.6990   28.7260   51.8850 N   0  0  0  0  0  0  0  0  0  0  0  0
   60.8980   29.3320   50.9700 C   0  0  0  0  0  0  0  0  0  0  0  0
   60.5290   30.5720   51.1120 N   0  0  0  0  0  0  0  0  0  0  0  0
   60.3840   31.5490   50.0640 C   0  0  0  0  0  0  0  0  0  0  0  0
   61.4540   31.8530   49.1980 C   0  0  0  0  0  0  0  0  0  0  0  0
   62.4240   31.3514   49.3305 H   0  0  0  0  0  0  0  0  0  0  0  0
   61.2900   32.7870   48.1730 C   0  0  0  0  0  0  0  0  0  0  0  0
   62.1357   33.0320   47.5137 H   0  0  0  0  0  0  0  0  0  0  0  0
   60.0570   33.4100   47.9830 C   0  0  0  0  0  0  0  0  0  0  0  0
   59.9339   34.1511   47.1795 H   0  0  0  0  0  0  0  0  0  0  0  0
   58.9780   33.0940   48.8120 C   0  0  0  0  0  0  0  0  0  0  0  0
   58.0054   33.5829   48.6539 H   0  0  0  0  0  0  0  0  0  0  0  0
   59.1280   32.1550   49.8470 C   0  0  0  0  0  0  0  0  0  0  0  0
   57.9590   31.8280   50.7340 C   0  0  0  0  0  0  0  0  0  0  0  0
   58.2632   31.9131   51.7877 H   0  0  0  0  0  0  0  0  0  0  0  0
   57.1373   32.5308   50.5317 H   0  0  0  0  0  0  0  0  0  0  0  0
   57.6212   30.8009   50.5317 H   0  0  0  0  0  0  0  0  0  0  0  0
   60.4460   28.6210   49.9060 N   0  0  0  0  0  0  0  0  0  0  0  0
   57.4270   27.1370   47.0190 N   0  0  0  0  0  0  0  0  0  0  0  0
   56.3880   26.8110   46.2100 C   0  0  0  0  0  0  0  0  0  0  0  0
   55.8390   25.6380   46.3260 N   0  0  0  0  0  0  0  0  0  0  0  0
   56.6730   30.8380   43.6820 C   0  0  0  0  0  0  0  0  0  0  0  0
   56.6540   30.7680   42.2810 C   0  0  0  0  0  0  0  0  0  0  0  0
   56.0866   29.9686   41.7820 H   0  0  0  0  0  0  0  0  0  0  0  0
   57.3510   31.7070   41.5140 C   0  0  0  0  0  0  0  0  0  0  0  0
   57.3212   31.6510   40.4158 H   0  0  0  0  0  0  0  0  0  0  0  0
   57.0260   22.0440   44.4010 C   0  0  0  0  0  0  0  0  0  0  0  0
   57.3347   21.1209   43.8886 H   0  0  0  0  0  0  0  0  0  0  0  0
   56.0750   22.8850   43.8150 C   0  0  0  0  0  0  0  0  0  0  0  0
   55.5270   22.5580   42.6190 F   0  0  0  0  0  0  0  0  0  0  0  0
   57.4460   31.8340   44.3080 C   0  0  0  0  0  0  0  0  0  0  0  0
   57.5018   31.8760   45.4058 H   0  0  0  0  0  0  0  0  0  0  0  0
   55.9040   27.7360   45.3360 N   0  0  0  0  0  0  0  0  0  0  0  0
   55.6890   24.0650   44.4610 C   0  0  0  0  0  0  0  0  0  0  0  0
   54.9261   24.7135   44.0055 H   0  0  0  0  0  0  0  0  0  0  0  0
   57.5840   22.3770   45.6380 C   0  0  0  0  0  0  0  0  0  0  0  0
   58.3240   21.7098   46.1040 H   0  0  0  0  0  0  0  0  0  0  0  0
  1  2  1  0
  2  3  2  0
  3  4  1  0
  3  5  1  0
  5  6  1  0
  5  7  2  0
  7  8  1  0
  8  9  2  0
  9 10  1  0
 10 11  1  0
 11 12  1  0
 12 13  1  0
 12 14  1  0
 12 15  1  0
 15 16  1  0
 15 17  1  0
 15 18  1  0
 18 19  1  0
 18 20  1  0
 18 21  1  0
 21 22  1  0
 21 23  1  0
 21 24  1  0
 24 25  1  0
 24 26  1  0
 24 27  1  0
 27 28  1  0
 28 29  2  0
 29 30  1  0
 30 31  2  3
 31 32  1  0
 32 33  1  0
 32 34  1  0
 32 35  1  0
 35 36  2  0
 36 37  1  0
 36 38  1  0
 38 39  1  0
 38 40  2  0
 40 41  1  0
 40 42  1  0
 42 43  1  0
 42 44  2  0
 44 45  1  0
 30 46  1  0
 46 47  1  0
 47 48  2  3
 48 49  1  0
 49 50  2  0
 50 51  1  0
 50 52  1  0
 52 53  1  0
 52 54  2  0
 54 55  1  0
 54 56  1  0
 56 57  1  0
 56 58  2  0
 58 59  1  0
 59 60  1  0
 59 61  1  0
 59 62  1  0
 47 63  1  0
 11 64  2  0
 64 65  1  0
 65 66  2  0
 66 67  1  0
 67 68  2  0
 68 69  1  0
 68 70  1  0
 70 71  1  0
 70 72  2  0
 72 73  1  0
 72 74  1  0
 74 75  1  0
 74 76  2  0
 76 77  1  0
 65 78  1  0
  7 79  1  0
 79 80  1  0
 79 81  2  0
 81 82  1  0
 81  2  1  0
 78  9  1  0
 63 28  1  0
 76 67  1  0
 44 35  1  0
 58 49  1  0
M  CHG  5  10  -1  12   1  46  -1  63  -1  78  -1
M  END
>  <UniqueID>  (47) 
42

>  <SMILES>  (47) 
Cc1ccccc1N=c1[n-]c(OCCCC[NH2+]c2n/c(=N/c3cccc(F)c3)[n-]/c(=N/c3ccccc3)[n-]2)nc(=NCc2ccccc2Br)[n-]1

>  <Energy>  (47) 
105.28551158494459

>  <Genealogy>  (47) 
Cc1ccccc1N=c1[n-]c(OCCCC[NH2+]c2nc(=Nc3cccc(F)c3)[n-]c(=Nc3ccccc3)[n-]2)nc(=NCc2ccccc2Br)[n-]1 (protonated)
Cc1ccccc1N=c1[n-]c(OCCCC[NH2+]c2n/c(=N/c3cccc(F)c3)[n-]/c(=N/c3ccccc3)[n-]2)nc(=NCc2ccccc2Br)[n-]1 (cis-trans isomerization)
Cc1ccccc1N=c1[n-]c(OCCCC[NH2+]c2n/c(=N/c3cccc(F)c3)[n-]/c(=N/c3ccccc3)[n-]2)nc(=NCc2ccccc2Br)[n-]1 (3D coordinates assigned)
Cc1ccccc1N=c1[n-]c(OCCCC[NH2+]c2n/c(=N/c3cccc(F)c3)[n-]/c(=N/c3ccccc3)[n-]2)nc(=NCc2ccccc2Br)[n-]1 (optimized conformer: 105.28551158494459 kcal/mol)

>  <smiles>  (47) 
Cc1ccccc1N=c1[nH]c(OCCCCNc2nc(=Nc3cccc(F)c3)[nH]c(=Nc3ccccc3)[nH]2)nc(=NCc2ccccc2Br)[nH]1

>  <score_type>  (47) 
oracle

>  <origin>  (47) 
adg

>  <m_score__min__energy>  (47) 
-15.4

>  <m_primary>  (47) 
energy

$$$$
47:0
     RDKit          3D

 31 32  0  0  1  0  0  0  0  0999 V2000
   63.2980   32.7700   47.1050 C   0  0  0  0  0  0  0  0  0  0  0  0
   62.0730   33.5630   46.9420 C   0  0  0  0  0  0  0  0  0  0  0  0
   61.0730   34.2010   46.8060 C   0  0  0  0  0  0  0  0  0  0  0  0
   59.8520   35.0090   46.6280 C   0  0  0  0  0  0  0  0  0  0  0  0
   59.2640   34.6870   45.4090 O   0  0  0  0  0  0  0  0  0  0  0  0
   58.6750   33.4760   45.0690 C   0  0  0  0  0  0  0  0  0  0  0  0
   58.4030   32.6000   46.1010 C   0  0  0  0  0  0  0  0  0  0  0  0
   57.8160   31.3780   45.8100 C   0  0  0  0  0  0  0  0  0  0  0  0
   57.4870   30.9940   44.5260 C   0  0  0  0  0  0  0  0  0  0  0  0
   56.7440   29.4480   44.1630 S   0  0  0  0  0  0  0  0  0  0  0  0
   55.3950   29.3480   44.8200 O   0  0  0  0  0  0  0  0  0  0  0  0
   56.4690   29.3280   42.6720 O   0  0  0  0  0  0  0  0  0  0  0  0
   57.7560   28.1190   44.5770 N   0  0  0  0  0  0  0  0  0  0  0  0
   57.2060   27.1840   45.3090 C   0  0  0  0  0  0  0  0  0  0  0  0
   55.9820   26.8920   45.6370 N   0  0  0  0  0  0  0  0  0  0  0  0
   55.7410   25.8860   46.3910 N   0  0  0  0  0  0  0  0  0  0  0  0
   56.6270   25.1030   46.8770 C   0  0  0  0  0  0  0  0  0  0  0  0
   58.2020   25.8850   46.1590 S   0  0  0  0  0  0  0  0  0  0  0  0
   57.7740   31.8940   43.5180 C   0  0  0  0  0  0  0  0  0  0  0  0
   58.3620   33.1280   43.7690 C   0  0  0  0  0  0  0  0  0  0  0  0
   63.5073   32.6345   48.1764 H   0  0  0  0  0  0  0  0  0  0  0  0
   63.1642   31.7867   46.6304 H   0  0  0  0  0  0  0  0  0  0  0  0
   64.1403   33.2947   46.6304 H   0  0  0  0  0  0  0  0  0  0  0  0
   59.1468   34.7948   47.4446 H   0  0  0  0  0  0  0  0  0  0  0  0
   60.1109   36.0780   46.6425 H   0  0  0  0  0  0  0  0  0  0  0  0
   58.6485   32.8677   47.1393 H   0  0  0  0  0  0  0  0  0  0  0  0
   57.6036   30.6853   46.6377 H   0  0  0  0  0  0  0  0  0  0  0  0
   55.1550   27.5040   45.2710 H   0  0  0  0  0  0  0  0  0  0  0  0
   56.5101   24.2239   47.5278 H   0  0  0  0  0  0  0  0  0  0  0  0
   57.5285   31.6244   42.4802 H   0  0  0  0  0  0  0  0  0  0  0  0
   58.5760   33.8203   42.9414 H   0  0  0  0  0  0  0  0  0  0  0  0
  1  2  1  0
  2  3  3  0
  3  4  1  0
  4  5  1  0
  5  6  1  0
  6  7  2  0
  7  8  1  0
  8  9  2  0
  9 10  1  0
 10 11  2  0
 10 12  2  0
 10 13  1  0
 13 14  2  0
 14 15  1  0
 15 16  1  0
 16 17  2  0
 17 18  1  0
  9 19  1  0
 19 20  2  0
 20  6  1  0
 18 14  1  0
  1 21  1  0
  1 22  1  0
  1 23  1  0
  4 24  1  0
  4 25  1  0
  7 26  1  0
  8 27  1  0
 15 28  1  0
 17 29  1  0
 19 30  1  0
 20 31  1  0
M  END
>  <smiles>  (48) 
CC#CCOc1ccc(S(=O)(=O)N=c2[nH]ncs2)cc1

>  <score_type>  (48) 
oracle

>  <origin>  (48) 
adg

>  <m_score__min__energy>  (48) 
-7.8200000000000003

>  <m_primary>  (48) 
energy

$$$$
48:0
     RDKit          3D

 41 43  0  0  0  0  0  0  0  0999 V2000
   58.1700   33.2135   42.7235 H   0  0  0  0  0  0  0  0  0  0  0  0
   57.7670   32.3190   43.2210 C   0  0  0  0  0  0  0  0  0  0  0  0
   57.3580   31.2550   42.4850 N   0  0  0  0  0  0  0  0  0  0  0  0
   56.8450   30.1460   43.0730 C   0  0  0  0  0  0  0  0  0  0  0  0
   56.5345   29.2886   42.4578 H   0  0  0  0  0  0  0  0  0  0  0  0
   56.7120   30.0960   44.4650 C   0  0  0  0  0  0  0  0  0  0  0  0
   56.2090   29.0220   45.0090 N   0  0  0  0  0  0  0  0  0  0  0  0
   56.9010   27.8070   45.3340 C   0  0  0  0  0  0  0  0  0  0  0  0
   56.2430   26.7420   45.9710 C   0  0  0  0  0  0  0  0  0  0  0  0
   55.1893   26.8488   46.2682 H   0  0  0  0  0  0  0  0  0  0  0  0
   56.9210   25.5470   46.2290 C   0  0  0  0  0  0  0  0  0  0  0  0
   56.4044   24.7241   46.7447 H   0  0  0  0  0  0  0  0  0  0  0  0
   58.2630   25.3930   45.8310 C   0  0  0  0  0  0  0  0  0  0  0  0
   58.9890   24.2170   46.0700 O   0  0  0  0  0  0  0  0  0  0  0  0
   58.9470   23.0630   45.2370 C   0  0  0  0  0  0  0  0  0  0  0  0
   58.9141   22.1595   45.8636 H   0  0  0  0  0  0  0  0  0  0  0  0
   58.0497   23.1017   44.6019 H   0  0  0  0  0  0  0  0  0  0  0  0
   59.8448   23.0363   44.6019 H   0  0  0  0  0  0  0  0  0  0  0  0
   58.9020   26.4460   45.1650 C   0  0  0  0  0  0  0  0  0  0  0  0
   59.9474   26.3325   44.8421 H   0  0  0  0  0  0  0  0  0  0  0  0
   58.2230   27.6400   44.9070 C   0  0  0  0  0  0  0  0  0  0  0  0
   58.7302   28.4523   44.3657 H   0  0  0  0  0  0  0  0  0  0  0  0
   57.1500   31.1580   45.2110 N   0  0  0  0  0  0  0  0  0  0  0  0
   57.1400   31.1130   46.2520 H   0  0  0  0  0  0  0  0  0  0  0  0
   57.6730   32.2720   44.6200 C   0  0  0  0  0  0  0  0  0  0  0  0
   58.0940   33.3930   45.4230 N   0  0  0  0  0  0  0  0  0  0  0  0
   57.6840   33.5170   46.8280 C   0  0  0  0  0  0  0  0  0  0  0  0
   57.0662   34.4193   46.9466 H   0  0  0  0  0  0  0  0  0  0  0  0
   57.1081   32.6236   47.1110 H   0  0  0  0  0  0  0  0  0  0  0  0
   58.9160   33.6240   47.7400 C   0  0  0  0  0  0  0  0  0  0  0  0
   58.6179   34.1268   48.6718 H   0  0  0  0  0  0  0  0  0  0  0  0
   59.2788   32.6010   47.9185 H   0  0  0  0  0  0  0  0  0  0  0  0
   60.0800   34.4180   47.1050 C   0  0  0  0  0  0  0  0  0  0  0  0
   60.5208   35.0711   47.8725 H   0  0  0  0  0  0  0  0  0  0  0  0
   60.8106   33.6896   46.7233 H   0  0  0  0  0  0  0  0  0  0  0  0
   59.6280   35.2850   45.9230 C   0  0  0  0  0  0  0  0  0  0  0  0
   58.8973   36.0274   46.2765 H   0  0  0  0  0  0  0  0  0  0  0  0
   60.5057   35.7924   45.4962 H   0  0  0  0  0  0  0  0  0  0  0  0
   58.9790   34.4130   44.8370 C   0  0  0  0  0  0  0  0  0  0  0  0
   58.3892   35.0560   44.1671 H   0  0  0  0  0  0  0  0  0  0  0  0
   59.7784   33.8996   44.2826 H   0  0  0  0  0  0  0  0  0  0  0  0
  1  2  1  0
  2  3  1  0
  3  4  2  0
  4  5  1  0
  4  6  1  0
  6  7  2  0
  7  8  1  0
  8  9  2  0
  9 10  1  0
  9 11  1  0
 11 12  1  0
 11 13  2  0
 13 14  1  0
 14 15  1  0
 15 16  1  0
 15 17  1  0
 15 18  1  0
 13 19  1  0
 19 20  1  0
 19 21  2  0
 21 22  1  0
  6 23  1  0
 23 24  1  0
 23 25  1  0
 25 26  1  0
 26 27  1  0
 27 28  1  0
 27 29  1  0
 27 30  1  0
 30 31  1  0
 30 32  1  0
 30 33  1  0
 33 34  1  0
 33 35  1  0
 33 36  1  0
 36 37  1  0
 36 38  1  0
 36 39  1  0
 39 40  1  0
 39 41  1  0
 25  2  2  0
 39 26  1  0
 21  8  1  0
M  END
>  <UniqueID>  (49) 
43

>  <SMILES>  (49) 
COc1ccc(/N=c2/cncc(N3CCCCC3)[nH]2)cc1

>  <Energy>  (49) 
56.38576488090081

>  <Genealogy>  (49) 
COc1ccc(/N=c2/cncc(N3CCCCC3)[nH]2)cc1 (cis-trans isomerization)
COc1ccc(/N=c2/cncc(N3CCCCC3)[nH]2)cc1 (3D coordinates assigned)
COc1ccc(/N=c2/cncc(N3CCCCC3)[nH]2)cc1 (nonaromatic ring conformer: 56.38576488090081 kcal/mol)

>  <smiles>  (49) 
COc1ccc(N=c2cncc(N3CCCCC3)[nH]2)cc1

>  <score_type>  (49) 
oracle

>  <origin>  (49) 
adg

>  <m_score__min__energy>  (49) 
-6.7300000000000004

>  <m_primary>  (49) 
energy

$$$$
49:0
     RDKit          3D

 50 53  0  0  0  0  0  0  0  0999 V2000
   58.0291   30.5176   43.4242 H   0  0  0  0  0  0  0  0  0  0  0  0
   57.7790   30.3550   44.4830 C   0  0  0  0  0  0  0  0  0  0  0  0
   57.3890   31.3810   45.1840 N   0  0  0  0  0  0  0  0  0  0  0  0
   58.0770   32.6330   45.3490 C   0  0  0  0  0  0  0  0  0  0  0  0
   57.8850   33.7280   44.5050 C   0  0  0  0  0  0  0  0  0  0  0  0
   57.2103   33.7659   43.6370 H   0  0  0  0  0  0  0  0  0  0  0  0
   58.8660   34.9770   45.0490 S   0  0  0  0  0  0  0  0  0  0  0  0
   59.4680   34.1070   46.3510 C   0  0  0  0  0  0  0  0  0  0  0  0
   60.3140   34.6280   47.1980 N   0  0  0  0  0  0  0  0  0  0  0  0
   61.4410   33.9940   47.8120 C   0  0  0  0  0  0  0  0  0  0  0  0
   61.4600   33.8020   49.1980 C   0  0  0  0  0  0  0  0  0  0  0  0
   60.5959   34.1087   49.8056 H   0  0  0  0  0  0  0  0  0  0  0  0
   62.5730   33.2220   49.8130 C   0  0  0  0  0  0  0  0  0  0  0  0
   62.5885   33.0877   50.9047 H   0  0  0  0  0  0  0  0  0  0  0  0
   63.6720   32.8100   49.0410 C   0  0  0  0  0  0  0  0  0  0  0  0
   64.8650   32.1830   49.6990 C   0  0  0  0  0  0  0  0  0  0  0  0
   64.7539   32.2414   50.7918 H   0  0  0  0  0  0  0  0  0  0  0  0
   64.9402   31.1288   49.3939 H   0  0  0  0  0  0  0  0  0  0  0  0
   65.7759   32.7189   49.3939 H   0  0  0  0  0  0  0  0  0  0  0  0
   63.6170   32.9320   47.6440 C   0  0  0  0  0  0  0  0  0  0  0  0
   64.4531   32.5681   47.0287 H   0  0  0  0  0  0  0  0  0  0  0  0
   62.5040   33.5140   47.0320 C   0  0  0  0  0  0  0  0  0  0  0  0
   62.4610   33.5961   45.9359 H   0  0  0  0  0  0  0  0  0  0  0  0
   58.9470   32.8420   46.3830 N   0  0  0  0  0  0  0  0  0  0  0  0
   59.3540   31.7720   47.2510 C   0  0  0  0  0  0  0  0  0  0  0  0
   60.3640   30.8850   46.8520 C   0  0  0  0  0  0  0  0  0  0  0  0
   60.8759   31.0337   45.8898 H   0  0  0  0  0  0  0  0  0  0  0  0
   60.7220   29.8130   47.6730 C   0  0  0  0  0  0  0  0  0  0  0  0
   61.5090   29.1164   47.3485 H   0  0  0  0  0  0  0  0  0  0  0  0
   60.0870   29.6180   48.9060 C   0  0  0  0  0  0  0  0  0  0  0  0
   60.4530   28.5050   49.6760 O   0  0  0  0  0  0  0  0  0  0  0  0
   61.1770   28.5770   50.8990 C   0  0  0  0  0  0  0  0  0  0  0  0
   60.4766   28.5073   51.7444 H   0  0  0  0  0  0  0  0  0  0  0  0
   61.8959   27.7459   50.9490 H   0  0  0  0  0  0  0  0  0  0  0  0
   61.7181   29.5334   50.9490 H   0  0  0  0  0  0  0  0  0  0  0  0
   59.1080   30.5390   49.3280 C   0  0  0  0  0  0  0  0  0  0  0  0
   58.6201   30.4111   50.3055 H   0  0  0  0  0  0  0  0  0  0  0  0
   58.7550   31.6140   48.5090 C   0  0  0  0  0  0  0  0  0  0  0  0
   58.0035   32.3401   48.8525 H   0  0  0  0  0  0  0  0  0  0  0  0
   57.9060   28.9850   45.0240 C   0  0  0  0  0  0  0  0  0  0  0  0
   59.1780   28.4000   45.1060 C   0  0  0  0  0  0  0  0  0  0  0  0
   60.0630   28.9654   44.7787 H   0  0  0  0  0  0  0  0  0  0  0  0
   59.3260   27.1010   45.6020 C   0  0  0  0  0  0  0  0  0  0  0  0
   60.3278   26.6534   45.6797 H   0  0  0  0  0  0  0  0  0  0  0  0
   58.2030   26.3710   45.9990 C   0  0  0  0  0  0  0  0  0  0  0  0
   58.3225   25.3526   46.3971 H   0  0  0  0  0  0  0  0  0  0  0  0
   56.9280   26.9330   45.8910 C   0  0  0  0  0  0  0  0  0  0  0  0
   55.8390   26.2130   46.2550 F   0  0  0  0  0  0  0  0  0  0  0  0
   56.7740   28.2330   45.3950 C   0  0  0  0  0  0  0  0  0  0  0  0
   55.5240   28.7430   45.2480 F   0  0  0  0  0  0  0  0  0  0  0  0
  1  2  1  0
  2  3  2  0
  3  4  1  0
  4  5  2  0
  5  6  1  0
  5  7  1  0
  7  8  1  0
  8  9  2  0
  9 10  1  0
 10 11  2  0
 11 12  1  0
 11 13  1  0
 13 14  1  0
 13 15  2  0
 15 16  1  0
 16 17  1  0
 16 18  1  0
 16 19  1  0
 15 20  1  0
 20 21  1  0
 20 22  2  0
 22 23  1  0
  8 24  1  0
 24 25  1  0
 25 26  2  0
 26 27  1  0
 26 28  1  0
 28 29  1  0
 28 30  2  0
 30 31  1  0
 31 32  1  0
 32 33  1  0
 32 34  1  0
 32 35  1  0
 30 36  1  0
 36 37  1  0
 36 38  2  0
 38 39  1  0
  2 40  1  0
 40 41  2  0
 41 42  1  0
 41 43  1  0
 43 44  1  0
 43 45  2  0
 45 46  1  0
 45 47  1  0
 47 48  1  0
 47 49  2  0
 49 50  1  0
 24  4  1  0
 38 25  1  0
 49 40  1  0
 22 10  1  0
M  END
>  <UniqueID>  (50) 
44

>  <SMILES>  (50) 
COc1ccc(-n2c(/N=C\c3cccc(F)c3F)cs/c2=N/c2ccc(C)cc2)cc1

>  <Energy>  (50) 
111.23367134500015

>  <Genealogy>  (50) 
COc1ccc(-n2c(/N=C\c3cccc(F)c3F)cs/c2=N/c2ccc(C)cc2)cc1 (cis-trans isomerization)
COc1ccc(-n2c(/N=C\c3cccc(F)c3F)cs/c2=N/c2ccc(C)cc2)cc1 (3D coordinates assigned)
COc1ccc(-n2c(/N=C\c3cccc(F)c3F)cs/c2=N/c2ccc(C)cc2)cc1 (optimized conformer: 111.23367134500015 kcal/mol)

>  <smiles>  (50) 
COc1ccc(-n2c(N=Cc3cccc(F)c3F)csc2=Nc2ccc(C)cc2)cc1

>  <score_type>  (50) 
oracle

>  <origin>  (50) 
adg

>  <m_score__min__energy>  (50) 
-8.9100000000000001

>  <m_primary>  (50) 
energy

$$$$
50:0
     RDKit          3D

 38 40  0  0  1  0  0  0  0  0999 V2000
   55.2380   29.5290   44.7590 N   0  0  0  0  0  0  0  0  0  0  0  0
   56.3430   29.5180   43.8640 C   0  0  0  0  0  0  0  0  0  0  0  0
   56.2110   29.7100   42.6210 O   0  0  0  0  0  0  0  0  0  0  0  0
   57.6760   29.2710   44.4220 C   0  0  0  0  0  0  0  0  0  0  0  0
   58.4440   28.1770   44.0110 C   0  0  0  0  0  0  0  0  0  0  0  0
   59.6850   27.9950   44.5680 C   0  0  0  0  0  0  0  0  0  0  0  0
   60.2260   28.8290   45.5140 C   0  0  0  0  0  0  0  0  0  0  0  0
   59.4520   29.9180   45.9180 C   0  0  0  0  0  0  0  0  0  0  0  0
   58.1970   30.1370   45.3810 C   0  0  0  0  0  0  0  0  0  0  0  0
   60.0120   34.1940   47.9750 N   0  0  0  0  0  0  0  0  0  0  0  0
   59.2710   33.9480   46.9480 C   0  0  0  0  0  0  0  0  0  0  0  0
   57.6870   33.3570   44.8000 C   0  0  0  0  0  0  0  0  0  0  0  0
   58.2950   34.5880   44.9290 C   0  0  0  0  0  0  0  0  0  0  0  0
   59.0860   34.9010   45.9890 N   0  0  0  0  0  0  0  0  0  0  0  0
   57.8940   32.4150   45.7860 C   0  0  0  0  0  0  0  0  0  0  0  0
   57.3730   31.2350   45.7640 N   0  0  0  0  0  0  0  0  0  0  0  0
   61.4060   33.8940   47.9960 C   0  0  0  0  0  0  0  0  0  0  0  0
   62.0940   33.7810   46.7820 C   0  0  0  0  0  0  0  0  0  0  0  0
   63.4300   33.4950   46.7140 C   0  0  0  0  0  0  0  0  0  0  0  0
   64.1200   33.3130   47.8810 C   0  0  0  0  0  0  0  0  0  0  0  0
   63.4730   33.4170   49.0910 C   0  0  0  0  0  0  0  0  0  0  0  0
   64.4450   33.1600   50.7130 Br  0  0  0  0  0  0  0  0  0  0  0  0
   62.1080   33.7080   49.1790 C   0  0  0  0  0  0  0  0  0  0  0  0
   58.6870   32.7320   46.8480 N   0  0  0  0  0  0  0  0  0  0  0  0
   54.3680   28.9730   44.6040 H   0  0  0  0  0  0  0  0  0  0  0  0
   55.3490   30.1460   45.6090 H   0  0  0  0  0  0  0  0  0  0  0  0
   58.0606   27.4755   43.2554 H   0  0  0  0  0  0  0  0  0  0  0  0
   60.2801   27.1311   44.2372 H   0  0  0  0  0  0  0  0  0  0  0  0
   61.2257   28.6473   45.9354 H   0  0  0  0  0  0  0  0  0  0  0  0
   59.8463   30.6121   46.6747 H   0  0  0  0  0  0  0  0  0  0  0  0
   57.0516   33.1315   43.9308 H   0  0  0  0  0  0  0  0  0  0  0  0
   58.1340   35.3436   44.1460 H   0  0  0  0  0  0  0  0  0  0  0  0
   59.5320   35.8240   46.0680 H   0  0  0  0  0  0  0  0  0  0  0  0
   61.5376   33.9282   45.8446 H   0  0  0  0  0  0  0  0  0  0  0  0
   63.9384   33.4132   45.7420 H   0  0  0  0  0  0  0  0  0  0  0  0
   65.1953   33.0828   47.8521 H   0  0  0  0  0  0  0  0  0  0  0  0
   61.6065   33.7870   50.1548 H   0  0  0  0  0  0  0  0  0  0  0  0
   58.8330   31.9990   47.5920 H   0  0  0  0  0  0  0  0  0  0  0  0
  1  2  1  0
  2  3  2  0
  2  4  1  0
  4  5  2  0
  5  6  1  0
  6  7  2  0
  7  8  1  0
  8  9  2  0
  9 10  1  0
 10 11  2  0
 11 12  1  0
 12 13  2  0
 13 14  1  0
 14 15  1  0
 15 16  2  0
 16 17  1  0
 17 18  2  0
 18 19  1  0
 19 20  2  0
 20 21  1  0
 21 22  1  0
 21 23  2  0
 15 24  1  0
  9  4  1  0
 24 11  1  0
 23 17  1  0
  1 25  1  0
  1 26  1  0
  5 27  1  0
  6 28  1  0
  7 29  1  0
  8 30  1  0
 12 31  1  0
 13 32  1  0
 14 33  1  0
 18 34  1  0
 19 35  1  0
 20 36  1  0
 23 37  1  0
 24 38  1  0
M  END
>  <smiles>  (51) 
NC(=O)c1ccccc1N=c1cc[nH]c(=Nc2cccc(Br)c2)[nH]1

>  <score_type>  (51) 
oracle

>  <origin>  (51) 
adg

>  <m_score__min__energy>  (51) 
-9.4499999999999993

>  <m_primary>  (51) 
energy

$$$$
51:0
     RDKit          3D

 51 53  0  0  0  0  0  0  0  0999 V2000
   52.0250   32.4780   50.7110 O   0  0  0  0  0  0  0  0  0  0  0  0
   51.3350   32.2100   51.7300 C   0  0  0  0  0  0  0  0  0  0  0  0
   50.2570   33.0190   52.0630 O   0  0  0  0  0  0  0  0  0  0  0  0
   51.6540   31.0050   52.5610 C   0  0  0  0  0  0  0  0  0  0  0  0
   52.7910   30.1850   51.9410 C   0  0  0  0  0  0  0  0  0  0  0  0
   54.0260   30.9660   51.8440 N   0  0  0  0  0  0  0  0  0  0  0  0
   55.3110   30.3470   52.0140 C   0  0  0  0  0  0  0  0  0  0  0  0
   55.3780   29.1600   52.4360 O   0  0  0  0  0  0  0  0  0  0  0  0
   56.5630   31.0840   51.7150 C   0  0  0  0  0  0  0  0  0  0  0  0
   57.6210   30.4690   51.0230 C   0  0  0  0  0  0  0  0  0  0  0  0
   58.8020   31.1720   50.7620 C   0  0  0  0  0  0  0  0  0  0  0  0
   58.9550   32.4960   51.2020 C   0  0  0  0  0  0  0  0  0  0  0  0
   60.2140   33.2290   50.9260 C   0  0  0  0  0  0  0  0  0  0  0  0
   60.7890   33.8430   51.8630 O   0  0  0  0  0  0  0  0  0  0  0  0
   60.8330   33.2190   49.6310 N   0  0  0  0  0  0  0  0  0  0  0  0
   60.1900   32.9090   48.3870 C   0  0  0  0  0  0  0  0  0  0  0  0
   59.1190   33.6770   47.8960 C   0  0  0  0  0  0  0  0  0  0  0  0
   58.5190   33.3510   46.6770 C   0  0  0  0  0  0  0  0  0  0  0  0
   58.9970   32.2720   45.9190 C   0  0  0  0  0  0  0  0  0  0  0  0
   58.3470   31.9170   44.6370 C   0  0  0  0  0  0  0  0  0  0  0  0
   58.4360   32.8280   43.5710 C   0  0  0  0  0  0  0  0  0  0  0  0
   57.7900   32.5730   42.3610 C   0  0  0  0  0  0  0  0  0  0  0  0
   57.0430   31.4080   42.2020 C   0  0  0  0  0  0  0  0  0  0  0  0
   56.9540   30.4840   43.2440 C   0  0  0  0  0  0  0  0  0  0  0  0
   57.6260   30.7050   44.4610 C   0  0  0  0  0  0  0  0  0  0  0  0
   57.5220   29.6640   45.5570 C   0  0  0  0  0  0  0  0  0  0  0  0
   56.2480   29.0750   45.5650 O   0  0  0  0  0  0  0  0  0  0  0  0
   60.0770   31.5170   46.4020 C   0  0  0  0  0  0  0  0  0  0  0  0
   60.6750   31.8420   47.6220 C   0  0  0  0  0  0  0  0  0  0  0  0
   57.8960   33.1130   51.8870 C   0  0  0  0  0  0  0  0  0  0  0  0
   56.7160   32.4120   52.1490 C   0  0  0  0  0  0  0  0  0  0  0  0
   51.9561   31.3331   53.5665 H   0  0  0  0  0  0  0  0  0  0  0  0
   50.7566   30.3709   52.6113 H   0  0  0  0  0  0  0  0  0  0  0  0
   52.9762   29.3001   52.5676 H   0  0  0  0  0  0  0  0  0  0  0  0
   52.4891   29.8899   50.9253 H   0  0  0  0  0  0  0  0  0  0  0  0
   53.9720   31.9980   51.6970 H   0  0  0  0  0  0  0  0  0  0  0  0
   57.5195   29.4274   50.6843 H   0  0  0  0  0  0  0  0  0  0  0  0
   59.6169   30.6834   50.2077 H   0  0  0  0  0  0  0  0  0  0  0  0
   58.7521   34.5379   48.4741 H   0  0  0  0  0  0  0  0  0  0  0  0
   57.6678   33.9433   46.3101 H   0  0  0  0  0  0  0  0  0  0  0  0
   59.0210   33.7517   43.6917 H   0  0  0  0  0  0  0  0  0  0  0  0
   57.8705   33.2920   41.5324 H   0  0  0  0  0  0  0  0  0  0  0  0
   56.5219   31.2159   41.2525 H   0  0  0  0  0  0  0  0  0  0  0  0
   56.3520   29.5728   43.1129 H   0  0  0  0  0  0  0  0  0  0  0  0
   58.2789   28.8842   45.3868 H   0  0  0  0  0  0  0  0  0  0  0  0
   57.6898   30.1549   46.5270 H   0  0  0  0  0  0  0  0  0  0  0  0
   55.6310   29.7170   46.0020 H   0  0  0  0  0  0  0  0  0  0  0  0
   60.4544   30.6653   45.8171 H   0  0  0  0  0  0  0  0  0  0  0  0
   61.5325   31.2556   47.9837 H   0  0  0  0  0  0  0  0  0  0  0  0
   57.9961   34.1566   52.2201 H   0  0  0  0  0  0  0  0  0  0  0  0
   55.9002   32.9035   52.6994 H   0  0  0  0  0  0  0  0  0  0  0  0
  1  2  2  0
  2  3  1  0
  2  4  1  0
  4  5  1  0
  5  6  1  0
  6  7  1  0
  7  8  2  0
  7  9  1  0
  9 10  2  0
 10 11  1  0
 11 12  2  0
 12 13  1  0
 13 14  2  0
 13 15  1  0
 15 16  1  0
 16 17  2  0
 17 18  1  0
 18 19  2  0
 19 20  1  0
 20 21  2  0
 21 22  1  0
 22 23  2  0
 23 24  1  0
 24 25  2  0
 25 26  1  0
 26 27  1  0
 19 28  1  0
 28 29  2  0
 12 30  1  0
 30 31  2  0
 31  9  1  0
 29 16  1  0
 25 20  1  0
  4 32  1  0
  4 33  1  0
  5 34  1  0
  5 35  1  0
  6 36  1  0
 10 37  1  0
 11 38  1  0
 17 39  1  0
 18 40  1  0
 21 41  1  0
 22 42  1  0
 23 43  1  0
 24 44  1  0
 26 45  1  0
 26 46  1  0
 27 47  1  0
 28 48  1  0
 29 49  1  0
 30 50  1  0
 31 51  1  0
M  CHG  2   3  -1  15  -1
M  END
>  <UniqueID>  (52) 
45

>  <SMILES>  (52) 
O=C([O-])CCNC(=O)c1ccc(C(=O)[N-]c2ccc(-c3ccccc3CO)cc2)cc1

>  <Energy>  (52) 
67.09188235091162

>  <Genealogy>  (52) 
O=C([O-])CCNC(=O)c1ccc(C(=O)[N-]c2ccc(-c3ccccc3CO)cc2)cc1 (protonated)
O=C([O-])CCNC(=O)c1ccc(C(=O)[N-]c2ccc(-c3ccccc3CO)cc2)cc1 (3D coordinates assigned)
O=C([O-])CCNC(=O)c1ccc(C(=O)[N-]c2ccc(-c3ccccc3CO)cc2)cc1 (optimized conformer: 67.09188235091162 kcal/mol)

>  <smiles>  (52) 
O=C(O)CCNC(=O)c1ccc(C(=O)Nc2ccc(-c3ccccc3CO)cc2)cc1

>  <score_type>  (52) 
oracle

>  <origin>  (52) 
adg

>  <m_score__min__energy>  (52) 
-14.529999999999999

>  <m_primary>  (52) 
energy

$$$$
52:0
     RDKit          3D

 41 43  0  0  0  0  0  0  0  0999 V2000
   58.3640   26.6100   47.5510 C   0  0  0  0  0  0  0  0  0  0  0  0
   58.9860   27.4150   46.4520 C   0  0  0  0  0  0  0  0  0  0  0  0
   60.3380   27.4490   46.2940 N   0  0  0  0  0  0  0  0  0  0  0  0
   60.7220   28.2450   45.2730 C   0  0  0  0  0  0  0  0  0  0  0  0
   59.3910   28.9460   44.5260 S   0  0  0  0  0  0  0  0  0  0  0  0
   58.2700   28.1990   45.5360 C   0  0  0  0  0  0  0  0  0  0  0  0
   56.8160   28.4220   45.4610 C   0  0  0  0  0  0  0  0  0  0  0  0
   56.0330   27.4470   45.6230 O   0  0  0  0  0  0  0  0  0  0  0  0
   56.2810   29.7290   45.2250 N   0  0  0  0  0  0  0  0  0  0  0  0
   56.9260   30.7180   44.4150 C   0  0  0  0  0  0  0  0  0  0  0  0
   56.7440   30.6790   43.0290 C   0  0  0  0  0  0  0  0  0  0  0  0
   57.3570   31.6300   42.2110 C   0  0  0  0  0  0  0  0  0  0  0  0
   58.1330   32.6430   42.7750 C   0  0  0  0  0  0  0  0  0  0  0  0
   58.2980   32.7170   44.1620 C   0  0  0  0  0  0  0  0  0  0  0  0
   59.2630   34.2070   44.8880 Br  0  0  0  0  0  0  0  0  0  0  0  0
   57.7020   31.7480   44.9930 C   0  0  0  0  0  0  0  0  0  0  0  0
   57.7750   31.8700   46.4200 N   0  0  0  0  0  0  0  0  0  0  0  0
   58.9190   31.4240   47.1680 C   0  0  0  0  0  0  0  0  0  0  0  0
   59.9920   31.1590   46.5610 O   0  0  0  0  0  0  0  0  0  0  0  0
   58.8570   31.2490   48.6400 C   0  0  0  0  0  0  0  0  0  0  0  0
   59.0030   29.9680   49.2000 C   0  0  0  0  0  0  0  0  0  0  0  0
   58.9190   29.7820   50.5820 C   0  0  0  0  0  0  0  0  0  0  0  0
   58.6590   30.8680   51.4340 C   0  0  0  0  0  0  0  0  0  0  0  0
   58.6100   30.6740   52.9290 C   0  0  0  0  0  0  0  0  0  0  0  0
   58.0020   29.4710   53.2460 F   0  0  0  0  0  0  0  0  0  0  0  0
   59.8870   30.6650   53.4630 F   0  0  0  0  0  0  0  0  0  0  0  0
   57.8910   31.7070   53.4990 F   0  0  0  0  0  0  0  0  0  0  0  0
   58.5300   32.1500   50.8790 C   0  0  0  0  0  0  0  0  0  0  0  0
   58.6200   32.3390   49.4980 C   0  0  0  0  0  0  0  0  0  0  0  0
   58.6770   27.0151   48.5246 H   0  0  0  0  0  0  0  0  0  0  0  0
   57.2683   26.6609   47.4678 H   0  0  0  0  0  0  0  0  0  0  0  0
   58.6897   25.5626   47.4678 H   0  0  0  0  0  0  0  0  0  0  0  0
   61.7665   28.4119   44.9710 H   0  0  0  0  0  0  0  0  0  0  0  0
   56.1150   29.8955   42.5812 H   0  0  0  0  0  0  0  0  0  0  0  0
   57.2279   31.5805   41.1197 H   0  0  0  0  0  0  0  0  0  0  0  0
   58.6174   33.3872   42.1257 H   0  0  0  0  0  0  0  0  0  0  0  0
   56.9080   32.1710   46.9160 H   0  0  0  0  0  0  0  0  0  0  0  0
   59.1851   29.1040   48.5440 H   0  0  0  0  0  0  0  0  0  0  0  0
   59.0576   28.7767   51.0065 H   0  0  0  0  0  0  0  0  0  0  0  0
   58.3564   33.0140   51.5373 H   0  0  0  0  0  0  0  0  0  0  0  0
   58.5046   33.3488   49.0773 H   0  0  0  0  0  0  0  0  0  0  0  0
  1  2  1  0
  2  3  1  0
  3  4  2  0
  4  5  1  0
  5  6  1  0
  6  7  1  0
  7  8  2  0
  7  9  1  0
  9 10  1  0
 10 11  2  0
 11 12  1  0
 12 13  2  0
 13 14  1  0
 14 15  1  0
 14 16  2  0
 16 17  1  0
 17 18  1  0
 18 19  2  0
 18 20  1  0
 20 21  2  0
 21 22  1  0
 22 23  2  0
 23 24  1  0
 24 25  1  0
 24 26  1  0
 24 27  1  0
 23 28  1  0
 28 29  2  0
  6  2  2  0
 16 10  1  0
 29 20  1  0
  1 30  1  0
  1 31  1  0
  1 32  1  0
  4 33  1  0
 11 34  1  0
 12 35  1  0
 13 36  1  0
 17 37  1  0
 21 38  1  0
 22 39  1  0
 28 40  1  0
 29 41  1  0
M  CHG  1   9  -1
M  END
>  <UniqueID>  (53) 
46

>  <SMILES>  (53) 
Cc1ncsc1C(=O)[N-]c1cccc(Br)c1NC(=O)c1ccc(C(F)(F)F)cc1

>  <Energy>  (53) 
86.52733381895463

>  <Genealogy>  (53) 
Cc1ncsc1C(=O)[N-]c1cccc(Br)c1NC(=O)c1ccc(C(F)(F)F)cc1 (protonated)
Cc1ncsc1C(=O)[N-]c1cccc(Br)c1NC(=O)c1ccc(C(F)(F)F)cc1 (3D coordinates assigned)
Cc1ncsc1C(=O)[N-]c1cccc(Br)c1NC(=O)c1ccc(C(F)(F)F)cc1 (optimized conformer: 86.52733381895463 kcal/mol)

>  <smiles>  (53) 
Cc1ncsc1C(=O)Nc1cccc(Br)c1NC(=O)c1ccc(C(F)(F)F)cc1

>  <score_type>  (53) 
oracle

>  <origin>  (53) 
adg

>  <m_score__min__energy>  (53) 
-9.1600000000000001

>  <m_primary>  (53) 
energy

$$$$
53:0
     RDKit          3D

 47 50  0  0  0  0  0  0  0  0999 V2000
   56.9440   22.2520   46.9790 H   0  0  0  0  0  0  0  0  0  0  0  0
   57.3410   23.0260   47.5570 N   0  0  0  0  0  0  0  0  0  0  0  0
   57.3820   24.2420   47.1210 C   0  0  0  0  0  0  0  0  0  0  0  0
   58.5740   24.8800   47.0130 N   0  0  0  0  0  0  0  0  0  0  0  0
   58.6590   26.1600   46.5640 C   0  0  0  0  0  0  0  0  0  0  0  0
   59.9440   26.7960   46.5540 N   0  0  0  0  0  0  0  0  0  0  0  0
   60.7300   26.2450   46.1400 H   0  0  0  0  0  0  0  0  0  0  0  0
   60.2970   27.7900   47.5730 C   0  0  2  0  0  0  0  0  0  0  0  0
   61.1960   27.4477   48.1065 H   0  0  0  0  0  0  0  0  0  0  0  0
   59.1610   27.9330   48.5940 C   0  0  0  0  0  0  0  0  0  0  0  0
   58.2559   28.2879   48.0794 H   0  0  0  0  0  0  0  0  0  0  0  0
   58.9777   26.9525   49.0577 H   0  0  0  0  0  0  0  0  0  0  0  0
   59.5410   28.9360   49.6950 C   0  0  0  0  0  0  0  0  0  0  0  0
   58.6207   29.3912   50.0898 H   0  0  0  0  0  0  0  0  0  0  0  0
   60.0872   28.3843   50.4742 H   0  0  0  0  0  0  0  0  0  0  0  0
   60.4670   30.0590   49.1810 C   0  0  0  0  0  0  0  0  0  0  0  0
   60.2632   30.9796   49.7475 H   0  0  0  0  0  0  0  0  0  0  0  0
   61.5108   29.7411   49.3203 H   0  0  0  0  0  0  0  0  0  0  0  0
   60.2450   30.3180   47.7460 N   0  0  1  0  0  0  0  0  0  0  0  0
   59.2320   30.5380   47.5940 H   0  0  0  0  0  0  0  0  0  0  0  0
   61.1490   31.7300   47.2520 S   0  0  0  0  0  0  0  0  0  0  0  0
   60.5100   32.3580   46.0440 O   0  0  0  0  0  0  0  0  0  0  0  0
   62.5570   31.3310   46.9130 O   0  0  0  0  0  0  0  0  0  0  0  0
   61.2010   32.9230   48.5740 C   0  0  0  0  0  0  0  0  0  0  0  0
   61.1782   32.3997   49.5413 H   0  0  0  0  0  0  0  0  0  0  0  0
   62.1258   33.5139   48.4985 H   0  0  0  0  0  0  0  0  0  0  0  0
   60.3312   33.5921   48.4985 H   0  0  0  0  0  0  0  0  0  0  0  0
   60.6200   29.1530   46.9070 C   0  0  0  0  0  0  0  0  0  0  0  0
   60.0708   29.2161   45.9560 H   0  0  0  0  0  0  0  0  0  0  0  0
   61.7093   29.1942   46.7592 H   0  0  0  0  0  0  0  0  0  0  0  0
   57.4840   26.8380   46.1660 C   0  0  0  0  0  0  0  0  0  0  0  0
   57.5240   28.1900   45.5680 C   0  0  0  0  0  0  0  0  0  0  0  0
   57.6500   29.3230   46.3040 N   0  0  0  0  0  0  0  0  0  0  0  0
   57.6430   30.4260   45.5120 C   0  0  0  0  0  0  0  0  0  0  0  0
   57.7650   31.7350   45.9810 C   0  0  0  0  0  0  0  0  0  0  0  0
   57.8746   31.9377   47.0566 H   0  0  0  0  0  0  0  0  0  0  0  0
   57.7450   32.7890   45.0510 C   0  0  0  0  0  0  0  0  0  0  0  0
   57.8408   33.8275   45.4008 H   0  0  0  0  0  0  0  0  0  0  0  0
   57.6030   32.5250   43.6730 C   0  0  0  0  0  0  0  0  0  0  0  0
   57.5878   33.3579   42.9546 H   0  0  0  0  0  0  0  0  0  0  0  0
   57.4810   31.2040   43.2140 C   0  0  0  0  0  0  0  0  0  0  0  0
   57.3712   30.9854   42.1415 H   0  0  0  0  0  0  0  0  0  0  0  0
   57.5030   30.1780   44.1560 C   0  0  0  0  0  0  0  0  0  0  0  0
   57.3780   28.5250   43.9110 S   0  0  0  0  0  0  0  0  0  0  0  0
   56.2590   26.1600   46.3100 C   0  0  0  0  0  0  0  0  0  0  0  0
   55.1740   26.7120   45.9850 O   0  0  0  0  0  0  0  0  0  0  0  0
   56.2370   24.8870   46.7800 N   0  0  0  0  0  0  0  0  0  0  0  0
  1  2  1  0
  2  3  2  0
  3  4  1  0
  4  5  1  0
  5  6  1  0
  6  7  1  0
  6  8  1  0
  8  9  1  1
  8 10  1  0
 10 11  1  0
 10 12  1  0
 10 13  1  0
 13 14  1  0
 13 15  1  0
 13 16  1  0
 16 17  1  0
 16 18  1  0
 16 19  1  0
 19 20  1  1
 19 21  1  0
 21 22  2  0
 21 23  2  0
 21 24  1  0
 24 25  1  0
 24 26  1  0
 24 27  1  0
 19 28  1  0
 28 29  1  0
 28 30  1  0
  5 31  2  0
 31 32  1  0
 32 33  2  0
 33 34  1  0
 34 35  2  0
 35 36  1  0
 35 37  1  0
 37 38  1  0
 37 39  2  0
 39 40  1  0
 39 41  1  0
 41 42  1  0
 41 43  2  0
 43 44  1  0
 31 45  1  0
 45 46  2  0
 45 47  1  0
 47  3  1  0
 28  8  1  0
 44 32  1  0
 43 34  1  0
M  CHG  3   4  -1  19   1  47  -1
M  END
>  <UniqueID>  (54) 
47

>  <SMILES>  (54) 
[H]/N=c1/[n-]c(N[C@@H]2CCC[N@@H+](S(C)(=O)=O)C2)c(-c2nc3ccccc3s2)c(=O)[n-]1

>  <Energy>  (54) 
93.11090327929715

>  <Genealogy>  (54) 
CS(=O)(=O)[NH+]1CCCC(Nc2[n-]c(=N)[n-]c(=O)c2-c2nc3ccccc3s2)C1 (protonated)
CS(=O)(=O)[N@@H+]1CCC[C@@H](Nc2[n-]c(=N)[n-]c(=O)c2-c2nc3ccccc3s2)C1 (chirality)
[H]/N=c1/[n-]c(N[C@@H]2CCC[N@@H+](S(C)(=O)=O)C2)c(-c2nc3ccccc3s2)c(=O)[n-]1 (cis-trans isomerization)
[H]/N=c1/[n-]c(N[C@@H]2CCC[N@@H+](S(C)(=O)=O)C2)c(-c2nc3ccccc3s2)c(=O)[n-]1 (3D coordinates assigned)
[H]/N=c1/[n-]c(N[C@@H]2CCC[N@@H+](S(C)(=O)=O)C2)c(-c2nc3ccccc3s2)c(=O)[n-]1 (nonaromatic ring conformer: 93.11090327929715 kcal/mol)

>  <smiles>  (54) 
CS(=O)(=O)N1CCCC(Nc2[nH]c(=N)[nH]c(=O)c2-c2nc3ccccc3s2)C1

>  <score_type>  (54) 
oracle

>  <origin>  (54) 
adg

>  <m_score__min__energy>  (54) 
-10.9

>  <m_primary>  (54) 
energy

$$$$
54:0
     RDKit          3D

 23 24  0  0  0  0  0  0  0  0999 V2000
   65.0020   33.1950   49.8440 C   0  0  0  0  0  0  0  0  0  0  0  0
   63.7640   33.1760   48.9970 C   0  0  0  0  0  0  0  0  0  0  0  0
   62.5640   33.6970   49.4880 C   0  0  0  0  0  0  0  0  0  0  0  0
   61.4360   33.7030   48.6710 C   0  0  0  0  0  0  0  0  0  0  0  0
   61.5300   33.1990   47.3660 C   0  0  0  0  0  0  0  0  0  0  0  0
   60.3740   33.1760   46.4460 C   0  0  0  0  0  0  0  0  0  0  0  0
   59.7780   34.2660   45.8060 C   0  0  0  0  0  0  0  0  0  0  0  0
   58.6930   33.9130   44.9950 C   0  0  0  0  0  0  0  0  0  0  0  0
   58.4370   32.5480   44.9970 C   0  0  0  0  0  0  0  0  0  0  0  0
   57.3960   31.8930   44.2650 N   0  0  0  0  0  0  0  0  0  0  0  0
   56.4910   31.2790   44.8650 O   0  0  0  0  0  0  0  0  0  0  0  0
   57.3870   31.9370   42.8910 O   0  0  0  0  0  0  0  0  0  0  0  0
   59.5450   31.7760   45.9970 S   0  0  0  0  0  0  0  0  0  0  0  0
   62.7300   32.7220   46.9360 N   0  0  0  0  0  0  0  0  0  0  0  0
   63.8120   32.7130   47.7170 N   0  0  0  0  0  0  0  0  0  0  0  0
   64.7191   33.1907   50.9070 H   0  0  0  0  0  0  0  0  0  0  0  0
   65.6111   32.3061   49.6230 H   0  0  0  0  0  0  0  0  0  0  0  0
   65.5836   34.1022   49.6230 H   0  0  0  0  0  0  0  0  0  0  0  0
   62.5107   34.0988   50.5106 H   0  0  0  0  0  0  0  0  0  0  0  0
   60.4808   34.0992   49.0459 H   0  0  0  0  0  0  0  0  0  0  0  0
   60.1278   35.3018   45.9278 H   0  0  0  0  0  0  0  0  0  0  0  0
   58.1047   34.6406   44.4166 H   0  0  0  0  0  0  0  0  0  0  0  0
   64.7070   32.3420   47.3280 H   0  0  0  0  0  0  0  0  0  0  0  0
  1  2  1  0
  2  3  2  0
  3  4  1  0
  4  5  2  0
  5  6  1  0
  6  7  2  0
  7  8  1  0
  8  9  2  0
  9 10  1  0
 10 11  2  0
 10 12  1  0
  9 13  1  0
  5 14  1  0
 14 15  2  0
 15  2  1  0
 13  6  1  0
  1 16  1  0
  1 17  1  0
  1 18  1  0
  3 19  1  0
  4 20  1  0
  7 21  1  0
  8 22  1  0
 15 23  1  0
M  CHG  3  10   1  12  -1  15   1
M  END
>  <UniqueID>  (55) 
48

>  <SMILES>  (55) 
Cc1ccc(-c2ccc([N+](=O)[O-])s2)n[nH+]1

>  <Energy>  (55) 
50.35732720771096

>  <Genealogy>  (55) 
Cc1ccc(-c2ccc([N+](=O)[O-])s2)n[nH+]1 (protonated)
Cc1ccc(-c2ccc([N+](=O)[O-])s2)n[nH+]1 (3D coordinates assigned)
Cc1ccc(-c2ccc([N+](=O)[O-])s2)n[nH+]1 (optimized conformer: 50.35732720771096 kcal/mol)

>  <smiles>  (55) 
Cc1ccc(-c2ccc([N+](=O)[O-])s2)nn1

>  <score_type>  (55) 
oracle

>  <origin>  (55) 
adg

>  <m_score__min__energy>  (55) 
-5.5

>  <m_primary>  (55) 
energy

$$$$
55:0
     RDKit          3D

 29 30  0  0  0  0  0  0  0  0999 V2000
   54.9370   25.2220   45.6250 C   0  0  0  0  0  0  0  0  0  0  0  0
   55.2810   26.5590   45.9720 O   0  0  0  0  0  0  0  0  0  0  0  0
   56.5890   27.0660   45.9690 C   0  0  0  0  0  0  0  0  0  0  0  0
   57.6400   26.4470   46.6680 C   0  0  0  0  0  0  0  0  0  0  0  0
   58.9170   27.0110   46.6300 C   0  0  0  0  0  0  0  0  0  0  0  0
   59.1390   28.1510   45.9250 N   0  0  0  0  0  0  0  0  0  0  0  0
   58.1450   28.7710   45.2310 C   0  0  0  0  0  0  0  0  0  0  0  0
   58.4380   30.0510   44.5060 C   0  0  0  0  0  0  0  0  0  0  0  0
   56.9740   31.1430   44.4980 S   0  0  0  0  0  0  0  0  0  0  0  0
   57.8250   32.5560   45.2080 C   0  0  0  0  0  0  0  0  0  0  0  0
   58.4780   33.4740   44.3740 C   0  0  0  0  0  0  0  0  0  0  0  0
   59.1530   34.5670   44.9270 C   0  0  0  0  0  0  0  0  0  0  0  0
   59.1670   34.7520   46.3130 C   0  0  0  0  0  0  0  0  0  0  0  0
   58.5050   33.8430   47.1460 C   0  0  0  0  0  0  0  0  0  0  0  0
   57.8330   32.7480   46.5950 C   0  0  0  0  0  0  0  0  0  0  0  0
   56.8490   28.2340   45.2460 C   0  0  0  0  0  0  0  0  0  0  0  0
   54.7854   24.6328   46.5414 H   0  0  0  0  0  0  0  0  0  0  0  0
   54.0101   25.2238   45.0327 H   0  0  0  0  0  0  0  0  0  0  0  0
   55.7497   24.7762   45.0327 H   0  0  0  0  0  0  0  0  0  0  0  0
   57.4579   25.5255   47.2405 H   0  0  0  0  0  0  0  0  0  0  0  0
   59.7451   26.5311   47.1722 H   0  0  0  0  0  0  0  0  0  0  0  0
   59.2699   30.5671   45.0076 H   0  0  0  0  0  0  0  0  0  0  0  0
   58.7057   29.8133   43.4659 H   0  0  0  0  0  0  0  0  0  0  0  0
   58.4595   33.3346   43.2830 H   0  0  0  0  0  0  0  0  0  0  0  0
   59.6729   35.2812   44.2716 H   0  0  0  0  0  0  0  0  0  0  0  0
   59.6980   35.6114   46.7482 H   0  0  0  0  0  0  0  0  0  0  0  0
   58.5134   33.9904   48.2361 H   0  0  0  0  0  0  0  0  0  0  0  0
   57.3102   32.0368   47.2514 H   0  0  0  0  0  0  0  0  0  0  0  0
   56.0397   28.7305   44.6905 H   0  0  0  0  0  0  0  0  0  0  0  0
  1  2  1  0
  2  3  1  0
  3  4  2  0
  4  5  1  0
  5  6  2  0
  6  7  1  0
  7  8  1  0
  8  9  1  0
  9 10  1  0
 10 11  2  0
 11 12  1  0
 12 13  2  0
 13 14  1  0
 14 15  2  0
  7 16  2  0
 16  3  1  0
 15 10  1  0
  1 17  1  0
  1 18  1  0
  1 19  1  0
  4 20  1  0
  5 21  1  0
  8 22  1  0
  8 23  1  0
 11 24  1  0
 12 25  1  0
 13 26  1  0
 14 27  1  0
 15 28  1  0
 16 29  1  0
M  END
>  <UniqueID>  (56) 
49

>  <SMILES>  (56) 
COc1ccnc(CSc2ccccc2)c1

>  <Energy>  (56) 
23.86640301685288

>  <Genealogy>  (56) 
COc1ccnc(CSc2ccccc2)c1 (3D coordinates assigned)
COc1ccnc(CSc2ccccc2)c1 (optimized conformer: 23.86640301685288 kcal/mol)

>  <smiles>  (56) 
COc1ccnc(CSc2ccccc2)c1

>  <score_type>  (56) 
oracle

>  <origin>  (56) 
adg

>  <m_score__min__energy>  (56) 
-6.4400000000000004

>  <m_primary>  (56) 
energy

$$$$
56:0
     RDKit          3D

 51 54  0  0  0  0  0  0  0  0999 V2000
   60.5990   27.1370   48.1490 C   0  0  0  0  0  0  0  0  0  0  0  0
   60.0760   28.5600   48.2210 C   0  0  0  0  0  0  0  0  0  0  0  0
   59.0790   29.0270   47.3180 C   0  0  0  0  0  0  0  0  0  0  0  0
   58.6220   28.1760   46.1980 C   0  0  0  0  0  0  0  0  0  0  0  0
   57.6490   27.2550   46.2860 C   0  0  0  0  0  0  0  0  0  0  0  0
   57.9640   25.6450   47.0090 S   0  0  0  0  0  0  0  0  0  0  0  0
   56.2890   25.1780   46.5500 C   0  0  0  0  0  0  0  0  0  0  0  0
   55.5790   23.8570   47.2030 S   0  0  0  0  0  0  0  0  0  0  0  0
   55.5010   26.1990   45.9470 N   0  0  0  0  0  0  0  0  0  0  0  0
   56.2750   27.3690   45.7810 C   0  0  0  0  0  0  0  0  0  0  0  0
   55.7990   28.4040   45.2460 O   0  0  0  0  0  0  0  0  0  0  0  0
   58.6570   30.3790   47.3890 C   0  0  0  0  0  0  0  0  0  0  0  0
   57.6410   30.9220   46.5810 O   0  0  0  0  0  0  0  0  0  0  0  0
   57.8120   31.3670   45.2640 C   0  0  0  0  0  0  0  0  0  0  0  0
   57.4650   30.4780   44.2370 C   0  0  0  0  0  0  0  0  0  0  0  0
   57.4460   30.8980   42.9100 C   0  0  0  0  0  0  0  0  0  0  0  0
   57.7650   32.2140   42.5980 C   0  0  0  0  0  0  0  0  0  0  0  0
   58.1870   33.0920   43.5980 C   0  0  0  0  0  0  0  0  0  0  0  0
   58.3260   32.6670   44.9440 C   0  0  0  0  0  0  0  0  0  0  0  0
   59.0360   33.5900   45.9740 C   0  0  0  0  0  0  0  0  0  0  0  0
   58.2100   33.7370   47.2790 C   0  0  0  0  0  0  0  0  0  0  0  0
   59.2880   34.9750   45.3560 C   0  0  0  0  0  0  0  0  0  0  0  0
   60.4100   33.0060   46.4060 C   0  0  0  0  0  0  0  0  0  0  0  0
   59.2430   31.2120   48.2840 N   0  0  0  0  0  0  0  0  0  0  0  0
   60.1730   30.7980   49.1780 C   0  0  0  0  0  0  0  0  0  0  0  0
   60.7000   31.7170   50.0910 C   0  0  0  0  0  0  0  0  0  0  0  0
   61.6300   31.3040   51.0450 C   0  0  0  0  0  0  0  0  0  0  0  0
   62.0330   29.9710   51.0960 C   0  0  0  0  0  0  0  0  0  0  0  0
   61.5220   29.0460   50.1800 C   0  0  0  0  0  0  0  0  0  0  0  0
   60.5910   29.4490   49.1960 C   0  0  0  0  0  0  0  0  0  0  0  0
   60.7423   26.7471   49.1675 H   0  0  0  0  0  0  0  0  0  0  0  0
   59.8738   26.5065   47.6136 H   0  0  0  0  0  0  0  0  0  0  0  0
   61.5599   27.1261   47.6136 H   0  0  0  0  0  0  0  0  0  0  0  0
   59.1145   28.3070   45.2232 H   0  0  0  0  0  0  0  0  0  0  0  0
   57.2050   29.4377   44.4824 H   0  0  0  0  0  0  0  0  0  0  0  0
   57.1794   30.1905   42.1110 H   0  0  0  0  0  0  0  0  0  0  0  0
   57.6847   32.5654   41.5587 H   0  0  0  0  0  0  0  0  0  0  0  0
   58.4166   34.1355   43.3365 H   0  0  0  0  0  0  0  0  0  0  0  0
   58.8737   33.6189   48.1483 H   0  0  0  0  0  0  0  0  0  0  0  0
   57.7427   34.7324   47.3070 H   0  0  0  0  0  0  0  0  0  0  0  0
   57.4280   32.9639   47.3070 H   0  0  0  0  0  0  0  0  0  0  0  0
   59.4227   35.7155   46.1582 H   0  0  0  0  0  0  0  0  0  0  0  0
   60.1944   34.9395   44.7338 H   0  0  0  0  0  0  0  0  0  0  0  0
   58.4271   35.2610   44.7338 H   0  0  0  0  0  0  0  0  0  0  0  0
   60.4689   32.9810   47.5041 H   0  0  0  0  0  0  0  0  0  0  0  0
   60.5155   31.9853   46.0098 H   0  0  0  0  0  0  0  0  0  0  0  0
   61.2181   33.6384   46.0098 H   0  0  0  0  0  0  0  0  0  0  0  0
   60.3801   32.7689   50.0567 H   0  0  0  0  0  0  0  0  0  0  0  0
   62.0458   32.0313   51.7579 H   0  0  0  0  0  0  0  0  0  0  0  0
   62.7553   29.6453   51.8591 H   0  0  0  0  0  0  0  0  0  0  0  0
   61.8473   27.9962   50.2258 H   0  0  0  0  0  0  0  0  0  0  0  0
  1  2  1  0
  2  3  2  0
  3  4  1  0
  4  5  2  3
  5  6  1  0
  6  7  1  0
  7  8  2  0
  7  9  1  0
  9 10  1  0
 10 11  2  0
  3 12  1  0
 12 13  1  0
 13 14  1  0
 14 15  2  0
 15 16  1  0
 16 17  2  0
 17 18  1  0
 18 19  2  0
 19 20  1  0
 20 21  1  0
 20 22  1  0
 20 23  1  0
 12 24  2  0
 24 25  1  0
 25 26  2  0
 26 27  1  0
 27 28  2  0
 28 29  1  0
 29 30  2  0
 30  2  1  0
 10  5  1  0
 19 14  1  0
 30 25  1  0
  1 31  1  0
  1 32  1  0
  1 33  1  0
  4 34  1  0
 15 35  1  0
 16 36  1  0
 17 37  1  0
 18 38  1  0
 21 39  1  0
 21 40  1  0
 21 41  1  0
 22 42  1  0
 22 43  1  0
 22 44  1  0
 23 45  1  0
 23 46  1  0
 23 47  1  0
 26 48  1  0
 27 49  1  0
 28 50  1  0
 29 51  1  0
M  CHG  1   9  -1
M  END
>  <UniqueID>  (57) 
50

>  <SMILES>  (57) 
Cc1c(C=C2SC(=S)[N-]C2=O)c(Oc2ccccc2C(C)(C)C)nc2ccccc12

>  <Energy>  (57) 
107.90800075121159

>  <Genealogy>  (57) 
Cc1c(C=C2SC(=S)[N-]C2=O)c(Oc2ccccc2C(C)(C)C)nc2ccccc12 (protonated)
Cc1c(C=C2SC(=S)[N-]C2=O)c(Oc2ccccc2C(C)(C)C)nc2ccccc12 (3D coordinates assigned)
Cc1c(C=C2SC(=S)[N-]C2=O)c(Oc2ccccc2C(C)(C)C)nc2ccccc12 (nonaromatic ring conformer: 107.90800075121159 kcal/mol)

>  <smiles>  (57) 
Cc1c(C=C2SC(=S)NC2=O)c(Oc2ccccc2C(C)(C)C)nc2ccccc12

>  <score_type>  (57) 
oracle

>  <origin>  (57) 
adg

>  <m_score__min__energy>  (57) 
-11.31

>  <m_primary>  (57) 
energy

$$$$
57:0
     RDKit          3D

 59 60  0  0  0  0  0  0  0  0999 V2000
   55.9640   29.8040   44.0450 C   0  0  0  0  0  0  0  0  0  0  0  0
   55.6490   28.8410   45.0450 O   0  0  0  0  0  0  0  0  0  0  0  0
   56.5740   27.9470   45.6060 C   0  0  0  0  0  0  0  0  0  0  0  0
   57.9410   28.2610   45.7230 C   0  0  0  0  0  0  0  0  0  0  0  0
   58.8370   27.3510   46.3090 C   0  0  0  0  0  0  0  0  0  0  0  0
   60.2870   27.7230   46.4910 C   0  0  0  0  0  0  0  0  0  0  0  0
   60.6410   27.9010   47.9730 C   0  0  0  0  0  0  0  0  0  0  0  0
   59.5130   28.4230   48.7400 N   0  0  0  0  0  0  0  0  0  0  0  0
   59.0760   29.7870   48.8190 C   0  0  0  0  0  0  0  0  0  0  0  0
   58.4070   30.2580   47.8600 O   0  0  0  0  0  0  0  0  0  0  0  0
   59.3590   30.6750   50.0010 C   0  0  0  0  0  0  0  0  0  0  0  0
   59.2450   32.1570   49.6200 C   0  0  0  0  0  0  0  0  0  0  0  0
   59.9300   33.0280   50.6480 C   0  0  0  0  0  0  0  0  0  0  0  0
   59.1970   33.3540   51.8830 C   0  0  0  0  0  0  0  0  0  0  0  0
   59.6380   34.2240   52.6810 O   0  0  0  0  0  0  0  0  0  0  0  0
   61.1230   33.5320   50.4840 N   0  0  0  0  0  0  0  0  0  0  0  0
   62.2300   33.0370   49.7100 C   0  0  0  0  0  0  0  0  0  0  0  0
   62.8820   32.0190   50.0630 O   0  0  0  0  0  0  0  0  0  0  0  0
   62.5980   33.7520   48.4380 C   0  0  0  0  0  0  0  0  0  0  0  0
   62.5860   32.8410   47.1880 C   0  0  1  0  0  0  0  0  0  0  0  0
   63.7280   31.9240   47.2120 N   0  0  0  0  0  0  0  0  0  0  0  0
   61.2740   32.0350   47.0380 C   0  0  0  0  0  0  0  0  0  0  0  0
   60.1720   32.8360   46.3890 C   0  0  0  0  0  0  0  0  0  0  0  0
   60.2830   34.2340   46.2820 C   0  0  0  0  0  0  0  0  0  0  0  0
   59.2510   34.9800   45.7040 C   0  0  0  0  0  0  0  0  0  0  0  0
   58.1040   34.3400   45.2280 C   0  0  0  0  0  0  0  0  0  0  0  0
   57.9890   32.9500   45.3250 C   0  0  0  0  0  0  0  0  0  0  0  0
   59.0180   32.1990   45.9010 C   0  0  0  0  0  0  0  0  0  0  0  0
   58.3560   26.1220   46.7830 C   0  0  0  0  0  0  0  0  0  0  0  0
   57.0040   25.8000   46.6560 C   0  0  0  0  0  0  0  0  0  0  0  0
   56.1160   26.7070   46.0700 C   0  0  0  0  0  0  0  0  0  0  0  0
   54.7710   26.3760   45.9550 O   0  0  0  0  0  0  0  0  0  0  0  0
   56.2716   30.7444   44.5256 H   0  0  0  0  0  0  0  0  0  0  0  0
   56.7855   29.4266   43.4184 H   0  0  0  0  0  0  0  0  0  0  0  0
   55.0783   29.9851   43.4184 H   0  0  0  0  0  0  0  0  0  0  0  0
   58.3115   29.2281   45.3521 H   0  0  0  0  0  0  0  0  0  0  0  0
   60.9161   26.9267   46.0666 H   0  0  0  0  0  0  0  0  0  0  0  0
   60.4647   28.6791   45.9769 H   0  0  0  0  0  0  0  0  0  0  0  0
   60.9338   26.9257   48.3890 H   0  0  0  0  0  0  0  0  0  0  0  0
   61.4669   28.6242   48.0433 H   0  0  0  0  0  0  0  0  0  0  0  0
   58.6349   30.4526   50.7986 H   0  0  0  0  0  0  0  0  0  0  0  0
   60.3857   30.4812   50.3450 H   0  0  0  0  0  0  0  0  0  0  0  0
   59.7185   32.3151   48.6398 H   0  0  0  0  0  0  0  0  0  0  0  0
   58.1803   32.4302   49.5785 H   0  0  0  0  0  0  0  0  0  0  0  0
   58.2554   32.8331   52.1111 H   0  0  0  0  0  0  0  0  0  0  0  0
   61.8798   34.5698   48.2788 H   0  0  0  0  0  0  0  0  0  0  0  0
   63.6284   34.1170   48.5604 H   0  0  0  0  0  0  0  0  0  0  0  0
   62.6586   33.5090   46.3171 H   0  0  0  0  0  0  0  0  0  0  0  0
   64.0000   31.7560   48.2090 H   0  0  0  0  0  0  0  0  0  0  0  0
   64.5470   32.4040   46.7720 H   0  0  0  0  0  0  0  0  0  0  0  0
   61.4746   31.1470   46.4206 H   0  0  0  0  0  0  0  0  0  0  0  0
   60.9352   31.7590   48.0475 H   0  0  0  0  0  0  0  0  0  0  0  0
   61.1847   34.7423   46.6543 H   0  0  0  0  0  0  0  0  0  0  0  0
   59.3426   36.0733   45.6239 H   0  0  0  0  0  0  0  0  0  0  0  0
   57.2919   34.9293   44.7772 H   0  0  0  0  0  0  0  0  0  0  0  0
   57.0870   32.4462   44.9473 H   0  0  0  0  0  0  0  0  0  0  0  0
   58.9241   31.1054   45.9726 H   0  0  0  0  0  0  0  0  0  0  0  0
   59.0469   25.4091   47.2567 H   0  0  0  0  0  0  0  0  0  0  0  0
   56.6357   24.8289   47.0183 H   0  0  0  0  0  0  0  0  0  0  0  0
  1  2  1  0
  2  3  1  0
  3  4  2  0
  4  5  1  0
  5  6  1  0
  6  7  1  0
  7  8  1  0
  8  9  1  0
  9 10  2  0
  9 11  1  0
 11 12  1  0
 12 13  1  0
 13 14  1  0
 14 15  2  0
 13 16  2  3
 16 17  1  0
 17 18  2  0
 17 19  1  0
 19 20  1  0
 20 21  1  0
 20 22  1  0
 22 23  1  0
 23 24  2  0
 24 25  1  0
 25 26  2  0
 26 27  1  0
 27 28  2  0
  5 29  2  0
 29 30  1  0
 30 31  2  0
 31 32  1  0
 31  3  1  0
 28 23  1  0
  1 33  1  0
  1 34  1  0
  1 35  1  0
  4 36  1  0
  6 37  1  0
  6 38  1  0
  7 39  1  0
  7 40  1  0
 11 41  1  0
 11 42  1  0
 12 43  1  0
 12 44  1  0
 14 45  1  0
 19 46  1  0
 19 47  1  0
 20 48  1  6
 21 49  1  0
 21 50  1  0
 22 51  1  0
 22 52  1  0
 24 53  1  0
 25 54  1  0
 26 55  1  0
 27 56  1  0
 28 57  1  0
 29 58  1  0
 30 59  1  0
M  CHG  2   8  -1  32  -1
M  END
>  <UniqueID>  (58) 
51

>  <SMILES>  (58) 
COc1cc(CC[N-]C(=O)CCC(C=O)=NC(=O)C[C@@H](N)Cc2ccccc2)ccc1[O-]

>  <Energy>  (58) 
49.752892063372705

>  <Genealogy>  (58) 
COc1cc(CC[N-]C(=O)CCC(C=O)=NC(=O)CC(N)Cc2ccccc2)ccc1[O-] (protonated)
COc1cc(CC[N-]C(=O)CCC(C=O)=NC(=O)C[C@@H](N)Cc2ccccc2)ccc1[O-] (chirality)
COc1cc(CC[N-]C(=O)CCC(C=O)=NC(=O)C[C@@H](N)Cc2ccccc2)ccc1[O-] (3D coordinates assigned)
COc1cc(CC[N-]C(=O)CCC(C=O)=NC(=O)C[C@@H](N)Cc2ccccc2)ccc1[O-] (optimized conformer: 49.752892063372705 kcal/mol)

>  <smiles>  (58) 
COc1cc(CCNC(=O)CCC(C=O)=NC(=O)CC(N)Cc2ccccc2)ccc1O

>  <score_type>  (58) 
oracle

>  <origin>  (58) 
adg

>  <m_score__min__energy>  (58) 
-12.380000000000001

>  <m_primary>  (58) 
energy

$$$$
58:0
     RDKit          3D

 38 40  0  0  0  0  0  0  0  0999 V2000
   56.1220   22.1780   47.3210 H   0  0  0  0  0  0  0  0  0  0  0  0
   56.8170   28.8310   45.4620 N   0  0  0  0  0  0  0  0  0  0  0  0
   57.0150   23.9830   46.9120 C   0  0  0  0  0  0  0  0  0  0  0  0
   55.9000   24.7410   46.7380 N   0  0  0  0  0  0  0  0  0  0  0  0
   55.9400   25.9530   46.1240 C   0  0  0  0  0  0  0  0  0  0  0  0
   54.7740   26.7010   46.0180 O   0  0  0  0  0  0  0  0  0  0  0  0
   57.1590   26.4470   45.6260 C   0  0  0  0  0  0  0  0  0  0  0  0
   56.9170   22.8320   47.4990 N   0  0  0  0  0  0  0  0  0  0  0  0
   57.2490   27.7270   44.9800 N   0  0  0  0  0  0  0  0  0  0  0  0
   57.5680   30.0580   45.5480 C   0  0  0  0  0  0  0  0  0  0  0  0
   58.1810   30.4280   46.7540 C   0  0  0  0  0  0  0  0  0  0  0  0
   58.1045   29.7659   47.6291 H   0  0  0  0  0  0  0  0  0  0  0  0
   58.8850   31.6240   46.8550 C   0  0  0  0  0  0  0  0  0  0  0  0
   59.3745   31.8887   47.8038 H   0  0  0  0  0  0  0  0  0  0  0  0
   58.9770   32.4940   45.7620 C   0  0  0  0  0  0  0  0  0  0  0  0
   59.6950   33.7310   45.9070 N   0  0  0  0  0  0  0  0  0  0  0  0
   61.0880   33.6990   46.3490 C   0  0  0  0  0  0  0  0  0  0  0  0
   61.1239   33.6982   47.4484 H   0  0  0  0  0  0  0  0  0  0  0  0
   61.5735   32.7895   45.9656 H   0  0  0  0  0  0  0  0  0  0  0  0
   61.6148   34.5853   45.9656 H   0  0  0  0  0  0  0  0  0  0  0  0
   58.9360   34.9690   46.0760 C   0  0  0  0  0  0  0  0  0  0  0  0
   58.8083   35.1773   47.1485 H   0  0  0  0  0  0  0  0  0  0  0  0
   59.4800   35.8000   45.6033 H   0  0  0  0  0  0  0  0  0  0  0  0
   57.9486   34.8612   45.6033 H   0  0  0  0  0  0  0  0  0  0  0  0
   58.3450   32.1560   44.5440 C   0  0  0  0  0  0  0  0  0  0  0  0
   58.4270   33.0030   43.4210 C   0  0  0  0  0  0  0  0  0  0  0  0
   58.9926   33.9441   43.4876 H   0  0  0  0  0  0  0  0  0  0  0  0
   57.7970   32.6580   42.2260 C   0  0  0  0  0  0  0  0  0  0  0  0
   57.8643   33.3295   41.3573 H   0  0  0  0  0  0  0  0  0  0  0  0
   57.0820   31.4650   42.1280 C   0  0  0  0  0  0  0  0  0  0  0  0
   56.5833   31.2007   41.1838 H   0  0  0  0  0  0  0  0  0  0  0  0
   56.9970   30.6050   43.2240 C   0  0  0  0  0  0  0  0  0  0  0  0
   56.4350   29.6635   43.1364 H   0  0  0  0  0  0  0  0  0  0  0  0
   57.6250   30.9330   44.4410 C   0  0  0  0  0  0  0  0  0  0  0  0
   58.3230   25.7000   45.8300 C   0  0  0  0  0  0  0  0  0  0  0  0
   59.2932   26.0913   45.4901 H   0  0  0  0  0  0  0  0  0  0  0  0
   58.2560   24.4590   46.4640 C   0  0  0  0  0  0  0  0  0  0  0  0
   59.1669   23.8601   46.6110 H   0  0  0  0  0  0  0  0  0  0  0  0
  1  2  1  0
  2  3  2  0
  3  4  1  0
  4  5  1  0
  5  6  1  0
  5  7  2  0
  7  8  1  0
  8  9  2  0
  9 10  1  0
 10 11  2  0
 11 12  1  0
 11 13  1  0
 13 14  1  0
 13 15  2  0
 15 16  1  0
 16 17  1  0
 17 18  1  0
 17 19  1  0
 17 20  1  0
 16 21  1  0
 21 22  1  0
 21 23  1  0
 21 24  1  0
 15 25  1  0
 25 26  2  0
 26 27  1  0
 26 28  1  0
 28 29  1  0
 28 30  2  0
 30 31  1  0
 30 32  1  0
 32 33  1  0
 32 34  2  0
  7 35  1  0
 35 36  1  0
 35 37  2  0
 37 38  1  0
 37  3  1  0
 34 10  1  0
 34 25  1  0
M  CHG  2   4  -1   6  -1
M  END
>  <UniqueID>  (59) 
52

>  <SMILES>  (59) 
[H]/N=c1\ccc(/N=N\c2ccc(N(C)C)c3ccccc23)c([O-])[n-]1

>  <Energy>  (59) 
64.92807316866254

>  <Genealogy>  (59) 
CN(C)c1ccc(N=Nc2ccc(=N)[n-]c2[O-])c2ccccc12 (protonated)
[H]/N=c1\ccc(/N=N\c2ccc(N(C)C)c3ccccc23)c([O-])[n-]1 (cis-trans isomerization)
[H]/N=c1\ccc(/N=N\c2ccc(N(C)C)c3ccccc23)c([O-])[n-]1 (3D coordinates assigned)
[H]/N=c1\ccc(/N=N\c2ccc(N(C)C)c3ccccc23)c([O-])[n-]1 (optimized conformer: 64.92807316866254 kcal/mol)

>  <smiles>  (59) 
CN(C)c1ccc(N=Nc2ccc(=N)[nH]c2O)c2ccccc12

>  <score_type>  (59) 
oracle

>  <origin>  (59) 
adg

>  <m_score__min__energy>  (59) 
-13.27

>  <m_primary>  (59) 
energy

$$$$
59:0
     RDKit          3D

 41 43  0  0  0  0  0  0  0  0999 V2000
   55.7270   22.4000   42.5390 N   0  0  0  0  0  0  0  0  0  0  0  0
   56.5710   22.0560   43.4530 C   0  0  0  0  0  0  0  0  0  0  0  0
   57.1110   20.7420   43.5040 N   0  0  0  0  0  0  0  0  0  0  0  0
   56.9420   23.0700   44.4260 C   0  0  0  0  0  0  0  0  0  0  0  0
   58.1300   22.9350   45.0930 C   0  0  0  0  0  0  0  0  0  0  0  0
   58.5130   23.8790   46.0220 C   0  0  0  0  0  0  0  0  0  0  0  0
   57.7720   24.9860   46.3480 C   0  0  0  0  0  0  0  0  0  0  0  0
   58.1100   25.9800   47.2570 N   0  0  0  0  0  0  0  0  0  0  0  0
   59.3390   26.7130   47.3950 C   0  0  0  0  0  0  0  0  0  0  0  0
   59.2750   28.1040   46.9370 C   0  0  0  0  0  0  0  0  0  0  0  0
   60.1510   29.1100   47.2170 C   0  0  0  0  0  0  0  0  0  0  0  0
   59.9940   30.4180   46.7450 C   0  0  0  0  0  0  0  0  0  0  0  0
   58.8980   30.7020   45.9580 C   0  0  0  0  0  0  0  0  0  0  0  0
   58.6750   31.9500   45.4610 N   0  0  0  0  0  0  0  0  0  0  0  0
   57.5850   32.1690   44.6960 C   0  0  0  0  0  0  0  0  0  0  0  0
   57.3900   33.3720   44.2290 N   0  0  0  0  0  0  0  0  0  0  0  0
   56.7080   31.1750   44.4100 N   0  0  0  0  0  0  0  0  0  0  0  0
   56.9150   29.9190   44.8990 C   0  0  0  0  0  0  0  0  0  0  0  0
   56.0610   28.9910   44.6100 N   0  0  0  0  0  0  0  0  0  0  0  0
   58.0340   29.6670   45.6930 C   0  0  0  0  0  0  0  0  0  0  0  0
   58.2050   28.4350   46.1510 N   0  0  0  0  0  0  0  0  0  0  0  0
   56.5540   25.1010   45.6460 C   0  0  0  0  0  0  0  0  0  0  0  0
   55.6740   26.1950   45.8710 N   0  0  0  0  0  0  0  0  0  0  0  0
   56.1650   24.1650   44.7180 C   0  0  0  0  0  0  0  0  0  0  0  0
   56.1210   22.8120   41.6640 H   0  0  0  0  0  0  0  0  0  0  0  0
   57.6130   20.4260   44.3640 H   0  0  0  0  0  0  0  0  0  0  0  0
   57.0020   20.1050   42.6810 H   0  0  0  0  0  0  0  0  0  0  0  0
   58.7801   22.0718   44.8873 H   0  0  0  0  0  0  0  0  0  0  0  0
   59.4753   23.7349   46.5350 H   0  0  0  0  0  0  0  0  0  0  0  0
   57.3510   26.2530   47.9690 H   0  0  0  0  0  0  0  0  0  0  0  0
   59.6199   26.7146   48.4585 H   0  0  0  0  0  0  0  0  0  0  0  0
   60.0768   26.2077   46.7545 H   0  0  0  0  0  0  0  0  0  0  0  0
   61.0248   28.8824   47.8452 H   0  0  0  0  0  0  0  0  0  0  0  0
   60.7263   31.1997   46.9954 H   0  0  0  0  0  0  0  0  0  0  0  0
   59.3680   32.6980   45.6980 H   0  0  0  0  0  0  0  0  0  0  0  0
   56.6180   33.9410   44.6270 H   0  0  0  0  0  0  0  0  0  0  0  0
   55.8710   31.3370   43.8240 H   0  0  0  0  0  0  0  0  0  0  0  0
   56.3590   27.9910   44.4870 H   0  0  0  0  0  0  0  0  0  0  0  0
   55.1260   26.2920   46.7710 H   0  0  0  0  0  0  0  0  0  0  0  0
   55.5830   26.9200   45.0990 H   0  0  0  0  0  0  0  0  0  0  0  0
   55.2061   24.2959   44.1951 H   0  0  0  0  0  0  0  0  0  0  0  0
  1  2  2  3
  2  3  1  0
  2  4  1  0
  4  5  2  0
  5  6  1  0
  6  7  2  0
  7  8  1  0
  8  9  1  0
  9 10  1  0
 10 11  2  0
 11 12  1  0
 12 13  2  0
 13 14  1  0
 14 15  1  0
 15 16  2  3
 15 17  1  0
 17 18  1  0
 18 19  2  3
 18 20  1  0
 20 21  2  0
  7 22  1  0
 22 23  1  0
 22 24  2  0
 24  4  1  0
 21 10  1  0
 20 13  1  0
  1 25  1  0
  3 26  1  0
  3 27  1  0
  5 28  1  0
  6 29  1  0
  8 30  1  0
  9 31  1  0
  9 32  1  0
 11 33  1  0
 12 34  1  0
 14 35  1  0
 16 36  1  0
 17 37  1  0
 19 38  1  0
 23 39  1  0
 23 40  1  0
 24 41  1  0
M  END
>  <smiles>  (60) 
N=C(N)c1ccc(NCc2ccc3[nH]c(=N)[nH]c(=N)c3n2)c(N)c1

>  <score_type>  (60) 
oracle

>  <origin>  (60) 
adg

>  <m_score__min__energy>  (60) 
-7.4100000000000001

>  <m_primary>  (60) 
energy

$$$$
60:0
     RDKit          3D

 40 42  0  0  0  0  0  0  0  0999 V2000
   58.4250   31.7360   43.5490 C   0  0  0  0  0  0  0  0  0  0  0  0
   57.0800   31.9680   44.2490 C   0  0  2  0  0  0  0  0  0  0  0  0
   57.0160   33.3450   44.9380 C   0  0  0  0  0  0  0  0  0  0  0  0
   58.1560   33.5830   45.9010 C   0  0  0  0  0  0  0  0  0  0  0  0
   59.2910   34.3020   45.4900 C   0  0  0  0  0  0  0  0  0  0  0  0
   60.3400   34.5350   46.3860 C   0  0  0  0  0  0  0  0  0  0  0  0
   60.2610   34.0580   47.6970 C   0  0  0  0  0  0  0  0  0  0  0  0
   59.1340   33.3440   48.1130 C   0  0  0  0  0  0  0  0  0  0  0  0
   58.0850   33.1050   47.2210 C   0  0  0  0  0  0  0  0  0  0  0  0
   56.8300   30.9080   45.2230 N   0  0  0  0  0  0  0  0  0  0  0  0
   56.3890   29.5930   44.8710 C   0  0  0  0  0  0  0  0  0  0  0  0
   55.1580   29.3210   44.8280 O   0  0  0  0  0  0  0  0  0  0  0  0
   57.3930   28.5570   44.4850 C   0  0  0  0  0  0  0  0  0  0  0  0
   58.0300   27.9930   45.7180 C   0  0  0  0  0  0  0  0  0  0  0  0
   57.9610   26.6780   46.1640 C   0  0  0  0  0  0  0  0  0  0  0  0
   58.7360   26.5170   47.2210 O   0  0  0  0  0  0  0  0  0  0  0  0
   59.3150   27.6660   47.4720 C   0  0  0  0  0  0  0  0  0  0  0  0
   60.2260   27.9570   48.4850 C   0  0  0  0  0  0  0  0  0  0  0  0
   60.7380   29.2660   48.5530 C   0  0  0  0  0  0  0  0  0  0  0  0
   60.3310   30.2440   47.6190 C   0  0  0  0  0  0  0  0  0  0  0  0
   59.4090   29.9210   46.6060 C   0  0  0  0  0  0  0  0  0  0  0  0
   58.9180   28.6170   46.5680 C   0  0  0  0  0  0  0  0  0  0  0  0
   59.2129   31.6001   44.3045 H   0  0  0  0  0  0  0  0  0  0  0  0
   58.3606   30.8357   42.9203 H   0  0  0  0  0  0  0  0  0  0  0  0
   58.6660   32.6058   42.9203 H   0  0  0  0  0  0  0  0  0  0  0  0
   56.2983   31.9482   43.4754 H   0  0  0  0  0  0  0  0  0  0  0  0
   57.0444   34.1252   44.1631 H   0  0  0  0  0  0  0  0  0  0  0  0
   56.0839   33.3754   45.5213 H   0  0  0  0  0  0  0  0  0  0  0  0
   59.3551   34.6831   44.4601 H   0  0  0  0  0  0  0  0  0  0  0  0
   61.2284   35.0946   46.0579 H   0  0  0  0  0  0  0  0  0  0  0  0
   61.0853   34.2444   48.4011 H   0  0  0  0  0  0  0  0  0  0  0  0
   59.0724   32.9691   49.1453 H   0  0  0  0  0  0  0  0  0  0  0  0
   57.2009   32.5410   47.5530 H   0  0  0  0  0  0  0  0  0  0  0  0
   56.8921   27.7503   43.9296 H   0  0  0  0  0  0  0  0  0  0  0  0
   58.1660   29.0149   43.8504 H   0  0  0  0  0  0  0  0  0  0  0  0
   57.3502   25.8874   45.7037 H   0  0  0  0  0  0  0  0  0  0  0  0
   60.5352   27.1882   49.2085 H   0  0  0  0  0  0  0  0  0  0  0  0
   61.4606   29.5294   49.3395 H   0  0  0  0  0  0  0  0  0  0  0  0
   60.7371   31.2643   47.6837 H   0  0  0  0  0  0  0  0  0  0  0  0
   59.0869   30.6718   45.8695 H   0  0  0  0  0  0  0  0  0  0  0  0
  1  2  1  0
  2  3  1  0
  3  4  1  0
  4  5  2  0
  5  6  1  0
  6  7  2  0
  7  8  1  0
  8  9  2  0
  2 10  1  0
 10 11  1  0
 11 12  2  0
 11 13  1  0
 13 14  1  0
 14 15  2  0
 15 16  1  0
 16 17  1  0
 17 18  2  0
 18 19  1  0
 19 20  2  0
 20 21  1  0
 21 22  2  0
  9  4  1  0
 22 14  1  0
 22 17  1  0
  1 23  1  0
  1 24  1  0
  1 25  1  0
  2 26  1  6
  3 27  1  0
  3 28  1  0
  5 29  1  0
  6 30  1  0
  7 31  1  0
  8 32  1  0
  9 33  1  0
 13 34  1  0
 13 35  1  0
 15 36  1  0
 18 37  1  0
 19 38  1  0
 20 39  1  0
 21 40  1  0
M  CHG  1  10  -1
M  END
>  <UniqueID>  (61) 
53

>  <SMILES>  (61) 
C[C@H](Cc1ccccc1)[N-]C(=O)Cc1coc2ccccc12

>  <Energy>  (61) 
65.63816198215508

>  <Genealogy>  (61) 
CC(Cc1ccccc1)[N-]C(=O)Cc1coc2ccccc12 (protonated)
C[C@H](Cc1ccccc1)[N-]C(=O)Cc1coc2ccccc12 (chirality)
C[C@H](Cc1ccccc1)[N-]C(=O)Cc1coc2ccccc12 (3D coordinates assigned)
C[C@H](Cc1ccccc1)[N-]C(=O)Cc1coc2ccccc12 (optimized conformer: 65.63816198215508 kcal/mol)

>  <smiles>  (61) 
CC(Cc1ccccc1)NC(=O)Cc1coc2ccccc12

>  <score_type>  (61) 
oracle

>  <origin>  (61) 
adg

>  <m_score__min__energy>  (61) 
-9.5399999999999991

>  <m_primary>  (61) 
energy

$$$$
61:0
     RDKit          3D

 47 51  0  0  0  0  0  0  0  0999 V2000
   56.6450   30.1000   45.9930 H   0  0  0  0  0  0  0  0  0  0  0  0
   57.1690   30.6300   45.2610 N   0  0  0  0  0  0  0  0  0  0  0  0
   57.7270   31.7740   45.5080 C   0  0  0  0  0  0  0  0  0  0  0  0
   59.0010   31.8520   46.0890 C   0  0  0  0  0  0  0  0  0  0  0  0
   59.8810   30.8660   46.5110 C   0  0  0  0  0  0  0  0  0  0  0  0
   59.6640   29.4080   46.5640 C   0  0  0  0  0  0  0  0  0  0  0  0
   60.1530   28.5790   45.5440 C   0  0  0  0  0  0  0  0  0  0  0  0
   60.7263   29.0149   44.7125 H   0  0  0  0  0  0  0  0  0  0  0  0
   59.9160   27.2020   45.5780 C   0  0  0  0  0  0  0  0  0  0  0  0
   60.3234   26.5576   44.7850 H   0  0  0  0  0  0  0  0  0  0  0  0
   59.1640   26.6380   46.6140 C   0  0  0  0  0  0  0  0  0  0  0  0
   58.9620   25.2500   46.6210 O   0  0  0  0  0  0  0  0  0  0  0  0
   58.3040   24.5190   45.6200 C   0  0  0  0  0  0  0  0  0  0  0  0
   58.6240   23.1660   45.4540 C   0  0  0  0  0  0  0  0  0  0  0  0
   59.3702   22.6961   46.1115 H   0  0  0  0  0  0  0  0  0  0  0  0
   58.0010   22.4090   44.4580 C   0  0  0  0  0  0  0  0  0  0  0  0
   58.2520   21.3446   44.3393 H   0  0  0  0  0  0  0  0  0  0  0  0
   57.0600   23.0020   43.6130 C   0  0  0  0  0  0  0  0  0  0  0  0
   56.5662   22.4033   42.8335 H   0  0  0  0  0  0  0  0  0  0  0  0
   56.7460   24.3560   43.7580 C   0  0  0  0  0  0  0  0  0  0  0  0
   56.0080   24.8238   43.0898 H   0  0  0  0  0  0  0  0  0  0  0  0
   57.3700   25.1170   44.7530 C   0  0  0  0  0  0  0  0  0  0  0  0
   57.1300   26.1854   44.8579 H   0  0  0  0  0  0  0  0  0  0  0  0
   58.6710   27.4670   47.6370 C   0  0  0  0  0  0  0  0  0  0  0  0
   58.0968   27.0293   48.4669 H   0  0  0  0  0  0  0  0  0  0  0  0
   58.9070   28.8460   47.6050 C   0  0  0  0  0  0  0  0  0  0  0  0
   58.4180   29.6250   48.6040 F   0  0  0  0  0  0  0  0  0  0  0  0
   61.0240   31.4520   46.9280 N   0  0  0  0  0  0  0  0  0  0  0  0
   60.8250   32.7810   46.7700 C   0  0  0  0  0  0  0  0  0  0  0  0
   61.9080   33.7750   47.1370 C   0  0  0  0  0  0  0  0  0  0  0  0
   61.4002   34.6569   46.7193 H   0  0  0  0  0  0  0  0  0  0  0  0
   62.3590   33.7760   48.5930 C   0  0  0  0  0  0  0  0  0  0  0  0
   62.2213   34.7389   49.1067 H   0  0  0  0  0  0  0  0  0  0  0  0
   61.8735   33.1196   49.3302 H   0  0  0  0  0  0  0  0  0  0  0  0
   63.7910   33.5090   48.1390 C   0  0  0  0  0  0  0  0  0  0  0  0
   64.4862   34.3377   48.3391 H   0  0  0  0  0  0  0  0  0  0  0  0
   64.3685   32.6849   48.5832 H   0  0  0  0  0  0  0  0  0  0  0  0
   63.3240   33.4260   46.6880 C   0  0  0  0  0  0  0  0  0  0  0  0
   63.7831   34.1725   46.0231 H   0  0  0  0  0  0  0  0  0  0  0  0
   63.5159   32.5244   46.0877 H   0  0  0  0  0  0  0  0  0  0  0  0
   59.5940   33.0480   46.2610 N   0  0  0  0  0  0  0  0  0  0  0  0
   58.9800   34.2150   45.9310 C   0  0  0  0  0  0  0  0  0  0  0  0
   59.4802   35.1816   46.0908 H   0  0  0  0  0  0  0  0  0  0  0  0
   57.6930   34.1530   45.3820 C   0  0  0  0  0  0  0  0  0  0  0  0
   57.1634   35.0795   45.1153 H   0  0  0  0  0  0  0  0  0  0  0  0
   57.0960   32.9420   45.1780 N   0  0  0  0  0  0  0  0  0  0  0  0
   56.1430   32.9220   44.7490 H   0  0  0  0  0  0  0  0  0  0  0  0
  1  2  1  0
  2  3  2  0
  3  4  1  0
  4  5  2  0
  5  6  1  0
  6  7  2  0
  7  8  1  0
  7  9  1  0
  9 10  1  0
  9 11  2  0
 11 12  1  0
 12 13  1  0
 13 14  2  0
 14 15  1  0
 14 16  1  0
 16 17  1  0
 16 18  2  0
 18 19  1  0
 18 20  1  0
 20 21  1  0
 20 22  2  0
 22 23  1  0
 11 24  1  0
 24 25  1  0
 24 26  2  0
 26 27  1  0
  5 28  1  0
 28 29  2  0
 29 30  1  0
 30 31  1  0
 30 32  1  0
 32 33  1  0
 32 34  1  0
 32 35  1  0
 35 36  1  0
 35 37  1  0
 35 38  1  0
 38 39  1  0
 38 40  1  0
 29 41  1  0
 41 42  1  0
 42 43  1  0
 42 44  2  0
 44 45  1  0
 44 46  1  0
 46 47  1  0
 46  3  1  0
 41  4  1  0
 26  6  1  0
 38 30  1  0
 22 13  1  0
M  END
>  <UniqueID>  (62) 
54

>  <SMILES>  (62) 
[H]/N=c1\[nH]ccn2c(C3CCC3)nc(-c3ccc(Oc4ccccc4)cc3F)c12

>  <Energy>  (62) 
166.59005112716537

>  <Genealogy>  (62) 
[H]/N=c1\[nH]ccn2c(C3CCC3)nc(-c3ccc(Oc4ccccc4)cc3F)c12 (cis-trans isomerization)
[H]/N=c1\[nH]ccn2c(C3CCC3)nc(-c3ccc(Oc4ccccc4)cc3F)c12 (3D coordinates assigned)
[H]/N=c1\[nH]ccn2c(C3CCC3)nc(-c3ccc(Oc4ccccc4)cc3F)c12 (nonaromatic ring conformer: 166.59005112716537 kcal/mol)

>  <smiles>  (62) 
N=c1[nH]ccn2c(C3CCC3)nc(-c3ccc(Oc4ccccc4)cc3F)c12

>  <score_type>  (62) 
oracle

>  <origin>  (62) 
adg

>  <m_score__min__energy>  (62) 
-8.1300000000000008

>  <m_primary>  (62) 
energy

$$$$
62:0
     RDKit          3D

 42 43  0  0  0  0  0  0  0  0999 V2000
   60.6690   28.5800   49.9260 C   0  0  0  0  0  0  0  0  0  0  0  0
   60.5410   27.2330   49.2320 C   0  0  0  0  0  0  0  0  0  0  0  0
   60.7970   27.3900   47.8390 O   0  0  0  0  0  0  0  0  0  0  0  0
   59.9030   27.9650   46.9200 C   0  0  0  0  0  0  0  0  0  0  0  0
   59.8040   29.3560   46.7610 C   0  0  0  0  0  0  0  0  0  0  0  0
   58.9130   29.9050   45.8430 C   0  0  0  0  0  0  0  0  0  0  0  0
   58.0910   29.0870   45.0570 C   0  0  0  0  0  0  0  0  0  0  0  0
   56.9910   29.8570   43.8990 S   0  0  0  0  0  0  0  0  0  0  0  0
   56.8290   28.9470   42.7130 O   0  0  0  0  0  0  0  0  0  0  0  0
   55.6390   30.0730   44.5230 O   0  0  0  0  0  0  0  0  0  0  0  0
   57.6450   31.4000   43.3930 N   0  0  0  0  0  0  0  0  0  0  0  0
   57.0990   31.7600   42.0710 C   0  0  0  0  0  0  0  0  0  0  0  0
   58.1880   32.3570   41.1820 C   0  0  0  0  0  0  0  0  0  0  0  0
   57.3770   32.4390   44.4150 C   0  0  0  0  0  0  0  0  0  0  0  0
   58.5170   33.4490   44.4240 C   0  0  0  0  0  0  0  0  0  0  0  0
   58.1710   27.6790   45.2000 C   0  0  0  0  0  0  0  0  0  0  0  0
   57.3940   26.8350   44.4470 N   0  0  0  0  0  0  0  0  0  0  0  0
   57.4720   25.4830   44.5720 C   0  0  0  0  0  0  0  0  0  0  0  0
   58.3540   24.9080   45.4810 C   0  0  0  0  0  0  0  0  0  0  0  0
   59.1620   25.7280   46.2640 C   0  0  0  0  0  0  0  0  0  0  0  0
   59.0860   27.1240   46.1370 C   0  0  0  0  0  0  0  0  0  0  0  0
   60.6551   28.4336   51.0161 H   0  0  0  0  0  0  0  0  0  0  0  0
   61.6164   29.0554   49.6319 H   0  0  0  0  0  0  0  0  0  0  0  0
   59.8281   29.2253   49.6319 H   0  0  0  0  0  0  0  0  0  0  0  0
   61.2687   26.5287   49.6614 H   0  0  0  0  0  0  0  0  0  0  0  0
   59.5231   26.8417   49.3759 H   0  0  0  0  0  0  0  0  0  0  0  0
   60.4372   30.0195   47.3683 H   0  0  0  0  0  0  0  0  0  0  0  0
   58.8535   30.9979   45.7331 H   0  0  0  0  0  0  0  0  0  0  0  0
   56.6941   30.8576   41.5895 H   0  0  0  0  0  0  0  0  0  0  0  0
   56.3045   32.5083   42.2081 H   0  0  0  0  0  0  0  0  0  0  0  0
   58.9788   32.7905   41.8119 H   0  0  0  0  0  0  0  0  0  0  0  0
   58.6165   31.5677   40.5469 H   0  0  0  0  0  0  0  0  0  0  0  0
   57.7530   33.1428   40.5469 H   0  0  0  0  0  0  0  0  0  0  0  0
   56.4339   32.9528   44.1769 H   0  0  0  0  0  0  0  0  0  0  0  0
   57.2978   31.9670   45.4054 H   0  0  0  0  0  0  0  0  0  0  0  0
   58.7869   33.6881   45.4632 H   0  0  0  0  0  0  0  0  0  0  0  0
   59.3893   33.0219   43.9076 H   0  0  0  0  0  0  0  0  0  0  0  0
   58.1981   34.3664   43.9076 H   0  0  0  0  0  0  0  0  0  0  0  0
   56.7160   27.1990   43.7460 H   0  0  0  0  0  0  0  0  0  0  0  0
   56.8329   24.8394   43.9497 H   0  0  0  0  0  0  0  0  0  0  0  0
   58.4126   23.8141   45.5804 H   0  0  0  0  0  0  0  0  0  0  0  0
   59.8623   25.2805   46.9846 H   0  0  0  0  0  0  0  0  0  0  0  0
  1  2  1  0
  2  3  1  0
  3  4  1  0
  4  5  2  0
  5  6  1  0
  6  7  2  0
  7  8  1  0
  8  9  2  0
  8 10  2  0
  8 11  1  0
 11 12  1  0
 12 13  1  0
 11 14  1  0
 14 15  1  0
  7 16  1  0
 16 17  2  0
 17 18  1  0
 18 19  2  0
 19 20  1  0
 20 21  2  0
 21  4  1  0
 21 16  1  0
  1 22  1  0
  1 23  1  0
  1 24  1  0
  2 25  1  0
  2 26  1  0
  5 27  1  0
  6 28  1  0
 12 29  1  0
 12 30  1  0
 13 31  1  0
 13 32  1  0
 13 33  1  0
 14 34  1  0
 14 35  1  0
 15 36  1  0
 15 37  1  0
 15 38  1  0
 17 39  1  0
 18 40  1  0
 19 41  1  0
 20 42  1  0
M  CHG  1  17   1
M  END
>  <UniqueID>  (63) 
55

>  <SMILES>  (63) 
CCOc1ccc(S(=O)(=O)N(CC)CC)c2[nH+]cccc12

>  <Energy>  (63) 
40.931787961542774

>  <Genealogy>  (63) 
CCOc1ccc(S(=O)(=O)N(CC)CC)c2[nH+]cccc12 (protonated)
CCOc1ccc(S(=O)(=O)N(CC)CC)c2[nH+]cccc12 (3D coordinates assigned)
CCOc1ccc(S(=O)(=O)N(CC)CC)c2[nH+]cccc12 (optimized conformer: 40.931787961542774 kcal/mol)

>  <smiles>  (63) 
CCOc1ccc(S(=O)(=O)N(CC)CC)c2ncccc12

>  <score_type>  (63) 
oracle

>  <origin>  (63) 
adg

>  <m_score__min__energy>  (63) 
-5.3099999999999996

>  <m_primary>  (63) 
energy

$$$$
63:0
     RDKit          3D

 34 37  0  0  0  0  0  0  0  0999 V2000
   57.4284   23.6392   46.6668 H   0  0  0  0  0  0  0  0  0  0  0  0
   57.0300   24.2770   45.8640 C   0  0  0  0  0  0  0  0  0  0  0  0
   57.8800   24.9830   45.1700 N   0  0  0  0  0  0  0  0  0  0  0  0
   58.1150   26.3950   45.2620 C   0  0  0  0  0  0  0  0  0  0  0  0
   58.4960   26.9950   46.4730 C   0  0  0  0  0  0  0  0  0  0  0  0
   58.6513   26.3728   47.3667 H   0  0  0  0  0  0  0  0  0  0  0  0
   58.6790   28.3790   46.5490 C   0  0  0  0  0  0  0  0  0  0  0  0
   58.9973   28.8364   47.4974 H   0  0  0  0  0  0  0  0  0  0  0  0
   58.4590   29.1910   45.4210 C   0  0  0  0  0  0  0  0  0  0  0  0
   58.6520   30.6580   45.4870 C   0  0  0  0  0  0  0  0  0  0  0  0
   59.3480   31.2700   46.4800 N   0  0  0  0  0  0  0  0  0  0  0  0
   59.3740   32.6170   46.3080 C   0  0  0  0  0  0  0  0  0  0  0  0
   60.0150   33.5090   47.1700 C   0  0  0  0  0  0  0  0  0  0  0  0
   60.5474   33.1442   48.0608 H   0  0  0  0  0  0  0  0  0  0  0  0
   59.9660   34.8830   46.8760 C   0  0  0  0  0  0  0  0  0  0  0  0
   60.4636   35.6023   47.5430 H   0  0  0  0  0  0  0  0  0  0  0  0
   59.2840   35.3450   45.7330 C   0  0  0  0  0  0  0  0  0  0  0  0
   59.2529   36.4224   45.5132 H   0  0  0  0  0  0  0  0  0  0  0  0
   58.6440   34.4390   44.8730 C   0  0  0  0  0  0  0  0  0  0  0  0
   58.1090   34.7887   43.9777 H   0  0  0  0  0  0  0  0  0  0  0  0
   58.7070   33.0830   45.1880 C   0  0  0  0  0  0  0  0  0  0  0  0
   58.0490   31.7810   44.3630 S   0  0  0  0  0  0  0  0  0  0  0  0
   58.0410   28.5860   44.2210 C   0  0  0  0  0  0  0  0  0  0  0  0
   57.8551   29.2078   43.3328 H   0  0  0  0  0  0  0  0  0  0  0  0
   57.8600   27.2020   44.1480 C   0  0  0  0  0  0  0  0  0  0  0  0
   57.5150   26.7445   43.2090 H   0  0  0  0  0  0  0  0  0  0  0  0
   55.5690   24.2760   45.6450 C   0  0  0  0  0  0  0  0  0  0  0  0
   54.7480   25.3820   45.6680 C   0  0  0  0  0  0  0  0  0  0  0  0
   55.1430   26.6750   45.9870 O   0  0  0  0  0  0  0  0  0  0  0  0
   53.5210   25.0530   45.3400 O   0  0  0  0  0  0  0  0  0  0  0  0
   53.4960   23.7650   45.0810 C   0  0  0  0  0  0  0  0  0  0  0  0
   52.6028   23.1987   44.7787 H   0  0  0  0  0  0  0  0  0  0  0  0
   54.7600   23.2270   45.2450 C   0  0  0  0  0  0  0  0  0  0  0  0
   55.0603   22.1803   45.0894 H   0  0  0  0  0  0  0  0  0  0  0  0
  1  2  1  0
  2  3  2  0
  3  4  1  0
  4  5  2  0
  5  6  1  0
  5  7  1  0
  7  8  1  0
  7  9  2  0
  9 10  1  0
 10 11  2  0
 11 12  1  0
 12 13  2  0
 13 14  1  0
 13 15  1  0
 15 16  1  0
 15 17  2  0
 17 18  1  0
 17 19  1  0
 19 20  1  0
 19 21  2  0
 21 22  1  0
  9 23  1  0
 23 24  1  0
 23 25  2  0
 25 26  1  0
  2 27  1  0
 27 28  2  0
 28 29  1  0
 28 30  1  0
 30 31  1  0
 31 32  1  0
 31 33  2  0
 33 34  1  0
 25  4  1  0
 33 27  1  0
 22 10  1  0
 21 12  1  0
M  CHG  1  29  -1
M  END
>  <UniqueID>  (64) 
56

>  <SMILES>  (64) 
[O-]c1occc1/C=N\c1ccc(-c2nc3ccccc3s2)cc1

>  <Energy>  (64) 
111.69530597613186

>  <Genealogy>  (64) 
[O-]c1occc1C=Nc1ccc(-c2nc3ccccc3s2)cc1 (protonated)
[O-]c1occc1/C=N\c1ccc(-c2nc3ccccc3s2)cc1 (cis-trans isomerization)
[O-]c1occc1/C=N\c1ccc(-c2nc3ccccc3s2)cc1 (3D coordinates assigned)
[O-]c1occc1/C=N\c1ccc(-c2nc3ccccc3s2)cc1 (optimized conformer: 111.69530597613186 kcal/mol)

>  <smiles>  (64) 
Oc1occc1C=Nc1ccc(-c2nc3ccccc3s2)cc1

>  <score_type>  (64) 
oracle

>  <origin>  (64) 
adg

>  <m_score__min__energy>  (64) 
-10.44

>  <m_primary>  (64) 
energy

$$$$
64:0
     RDKit          3D

 35 37  0  0  1  0  0  0  0  0999 V2000
   59.8090   34.3260   48.4080 C   0  0  0  0  0  0  0  0  0  0  0  0
   59.0270   34.6040   47.2620 N   0  0  0  0  0  0  0  0  0  0  0  0
   59.6470   35.3020   46.2030 C   0  0  0  0  0  0  0  0  0  0  0  0
   57.9700   33.7370   46.9400 C   0  0  0  0  0  0  0  0  0  0  0  0
   57.8040   33.6680   45.3570 C   0  0  0  0  0  0  0  0  0  0  0  0
   58.7710   32.7020   45.0850 N   0  0  0  0  0  0  0  0  0  0  0  0
   59.2650   31.8160   45.7680 C   0  0  0  0  0  0  0  0  0  0  0  0
   60.4390   32.0540   46.3870 N   0  0  0  0  0  0  0  0  0  0  0  0
   61.0800   31.1680   47.1610 C   0  0  0  0  0  0  0  0  0  0  0  0
   60.4950   29.9700   47.3150 N   0  0  0  0  0  0  0  0  0  0  0  0
   59.3230   29.7000   46.7100 C   0  0  0  0  0  0  0  0  0  0  0  0
   58.8070   28.4390   46.9350 C   0  0  0  0  0  0  0  0  0  0  0  0
   57.6100   28.1800   46.3100 C   0  0  0  0  0  0  0  0  0  0  0  0
   56.9460   29.0620   45.5230 C   0  0  0  0  0  0  0  0  0  0  0  0
   55.7760   28.8950   44.8740 N   0  0  0  0  0  0  0  0  0  0  0  0
   55.5220   30.0430   44.2260 C   0  0  0  0  0  0  0  0  0  0  0  0
   56.5250   30.8380   44.5010 N   0  0  0  0  0  0  0  0  0  0  0  0
   57.4600   30.3610   45.2830 C   0  0  0  0  0  0  0  0  0  0  0  0
   58.6480   30.6080   45.9060 C   0  0  0  0  0  0  0  0  0  0  0  0
   59.2202   34.5353   49.3133 H   0  0  0  0  0  0  0  0  0  0  0  0
   60.1065   33.2670   48.4008 H   0  0  0  0  0  0  0  0  0  0  0  0
   60.7082   34.9595   48.4008 H   0  0  0  0  0  0  0  0  0  0  0  0
   60.3247   36.0649   46.6138 H   0  0  0  0  0  0  0  0  0  0  0  0
   60.2212   34.5960   45.5850 H   0  0  0  0  0  0  0  0  0  0  0  0
   58.8782   35.7889   45.5850 H   0  0  0  0  0  0  0  0  0  0  0  0
   58.1883   32.7319   47.3301 H   0  0  0  0  0  0  0  0  0  0  0  0
   57.0387   34.1106   47.3906 H   0  0  0  0  0  0  0  0  0  0  0  0
   56.7968   33.3399   45.0606 H   0  0  0  0  0  0  0  0  0  0  0  0
   57.9225   34.6230   44.8241 H   0  0  0  0  0  0  0  0  0  0  0  0
   60.9010   32.9850   46.2720 H   0  0  0  0  0  0  0  0  0  0  0  0
   62.0373   31.4102   47.6457 H   0  0  0  0  0  0  0  0  0  0  0  0
   59.3159   27.6967   47.5674 H   0  0  0  0  0  0  0  0  0  0  0  0
   57.1595   27.1876   46.4590 H   0  0  0  0  0  0  0  0  0  0  0  0
   55.1470   28.0670   44.8430 H   0  0  0  0  0  0  0  0  0  0  0  0
   54.6505   30.2691   43.5941 H   0  0  0  0  0  0  0  0  0  0  0  0
  1  2  1  0
  2  3  1  0
  2  4  1  0
  4  5  1  0
  5  6  1  0
  6  7  2  0
  7  8  1  0
  8  9  1  0
  9 10  2  0
 10 11  1  0
 11 12  2  0
 12 13  1  0
 13 14  2  0
 14 15  1  0
 15 16  1  0
 16 17  2  0
 17 18  1  0
 18 19  2  0
 19  7  1  0
 19 11  1  0
 18 14  1  0
  1 20  1  0
  1 21  1  0
  1 22  1  0
  3 23  1  0
  3 24  1  0
  3 25  1  0
  4 26  1  0
  4 27  1  0
  5 28  1  0
  5 29  1  0
  8 30  1  0
  9 31  1  0
 12 32  1  0
 13 33  1  0
 15 34  1  0
 16 35  1  0
M  END
>  <smiles>  (65) 
CN(C)CCN=c1[nH]cnc2ccc3[nH]cnc3c12

>  <score_type>  (65) 
oracle

>  <origin>  (65) 
adg

>  <m_score__min__energy>  (65) 
-6.0800000000000001

>  <m_primary>  (65) 
energy

$$$$
65:0
     RDKit          3D

 23 24  0  0  0  0  0  0  0  0999 V2000
   58.7830   25.6000   44.6010 H   0  0  0  0  0  0  0  0  0  0  0  0
   58.1650   25.0350   45.2230 N   0  0  0  0  0  0  0  0  0  0  0  0
   56.9020   25.2840   45.3800 C   0  0  0  0  0  0  0  0  0  0  0  0
   55.9030   24.3450   45.2650 C   0  0  0  0  0  0  0  0  0  0  0  0
   55.9899   23.2908   44.9631 H   0  0  0  0  0  0  0  0  0  0  0  0
   54.7630   25.0440   45.6200 C   0  0  0  0  0  0  0  0  0  0  0  0
   53.3740   24.4990   45.6190 C   0  0  0  0  0  0  0  0  0  0  0  0
   53.0320   24.3648   46.6558 H   0  0  0  0  0  0  0  0  0  0  0  0
   52.7049   25.2013   45.1002 H   0  0  0  0  0  0  0  0  0  0  0  0
   53.3610   23.5291   45.1002 H   0  0  0  0  0  0  0  0  0  0  0  0
   55.0680   26.3280   45.9030 N   0  0  0  0  0  0  0  0  0  0  0  0
   56.3760   26.4730   45.7550 N   0  0  0  0  0  0  0  0  0  0  0  0
   57.0510   27.7240   45.9590 C   0  0  0  0  0  0  0  0  0  0  0  0
   58.0600   27.8470   46.9290 C   0  0  0  0  0  0  0  0  0  0  0  0
   58.3221   26.9846   47.5595 H   0  0  0  0  0  0  0  0  0  0  0  0
   58.7330   29.0630   47.0960 C   0  0  0  0  0  0  0  0  0  0  0  0
   59.5134   29.1582   47.8653 H   0  0  0  0  0  0  0  0  0  0  0  0
   58.4140   30.1560   46.2860 C   0  0  0  0  0  0  0  0  0  0  0  0
   58.9399   31.1126   46.4218 H   0  0  0  0  0  0  0  0  0  0  0  0
   57.4270   30.0350   45.3030 C   0  0  0  0  0  0  0  0  0  0  0  0
   57.1250   31.0920   44.5110 F   0  0  0  0  0  0  0  0  0  0  0  0
   56.7530   28.8200   45.1340 C   0  0  0  0  0  0  0  0  0  0  0  0
   55.9863   28.7235   44.3511 H   0  0  0  0  0  0  0  0  0  0  0  0
  1  2  1  0
  2  3  2  0
  3  4  1  0
  4  5  1  0
  4  6  2  0
  6  7  1  0
  7  8  1  0
  7  9  1  0
  7 10  1  0
  6 11  1  0
 11 12  1  0
 12 13  1  0
 13 14  2  0
 14 15  1  0
 14 16  1  0
 16 17  1  0
 16 18  2  0
 18 19  1  0
 18 20  1  0
 20 21  1  0
 20 22  2  0
 22 23  1  0
 12  3  1  0
 22 13  1  0
M  CHG  1  11  -1
M  END
>  <UniqueID>  (66) 
57

>  <SMILES>  (66) 
[H]/N=c1/cc(C)[n-]n1-c1cccc(F)c1

>  <Energy>  (66) 
59.815984949973526

>  <Genealogy>  (66) 
Cc1cc(=N)n(-c2cccc(F)c2)[n-]1 (protonated)
[H]/N=c1/cc(C)[n-]n1-c1cccc(F)c1 (cis-trans isomerization)
[H]/N=c1/cc(C)[n-]n1-c1cccc(F)c1 (3D coordinates assigned)
[H]/N=c1/cc(C)[n-]n1-c1cccc(F)c1 (optimized conformer: 59.815984949973526 kcal/mol)

>  <smiles>  (66) 
Cc1cc(=N)n(-c2cccc(F)c2)[nH]1

>  <score_type>  (66) 
oracle

>  <origin>  (66) 
adg

>  <m_score__min__energy>  (66) 
-6.1799999999999997

>  <m_primary>  (66) 
energy

$$$$
66:0
     RDKit          3D

 63 67  0  0  0  0  0  0  0  0999 V2000
   55.9810   31.0960   44.7960 O   0  0  0  0  0  0  0  0  0  0  0  0
   57.0640   31.1770   44.1580 C   0  0  0  0  0  0  0  0  0  0  0  0
   57.7100   32.4510   44.0510 N   0  0  0  0  0  0  0  0  0  0  0  0
   58.2490   33.2180   45.1360 C   0  0  0  0  0  0  0  0  0  0  0  0
   57.9820   32.8890   46.4780 C   0  0  0  0  0  0  0  0  0  0  0  0
   58.4940   33.6800   47.5100 C   0  0  0  0  0  0  0  0  0  0  0  0
   59.2580   34.8120   47.2140 C   0  0  0  0  0  0  0  0  0  0  0  0
   59.5040   35.1600   45.8830 C   0  0  0  0  0  0  0  0  0  0  0  0
   58.9940   34.3700   44.8480 C   0  0  0  0  0  0  0  0  0  0  0  0
   57.5930   30.0210   43.4890 N   0  0  0  0  0  0  0  0  0  0  0  0
   57.0430   28.6800   43.6890 C   0  0  0  0  0  0  0  0  0  0  0  0
   57.9640   27.6160   43.0890 C   0  0  0  0  0  0  0  0  0  0  0  0
   57.7850   26.0170   43.9610 S   0  0  0  0  0  0  0  0  0  0  0  0
   58.5930   26.5630   45.4690 C   0  0  0  0  0  0  0  0  0  0  0  0
   58.2090   26.0180   46.6990 C   0  0  0  0  0  0  0  0  0  0  0  0
   58.8360   26.4340   47.8770 C   0  0  0  0  0  0  0  0  0  0  0  0
   59.8630   27.3870   47.8350 C   0  0  0  0  0  0  0  0  0  0  0  0
   60.4770   27.7890   49.0670 N   0  0  0  0  0  0  0  0  0  0  0  0
   60.3380   29.0610   49.7150 C   0  0  0  0  0  0  0  0  0  0  0  0
   59.3940   29.2560   50.5290 O   0  0  0  0  0  0  0  0  0  0  0  0
   61.2640   30.1730   49.3720 C   0  0  0  0  0  0  0  0  0  0  0  0
   61.0530   30.9450   48.2170 C   0  0  0  0  0  0  0  0  0  0  0  0
   59.9890   30.6510   47.3660 O   0  0  0  0  0  0  0  0  0  0  0  0
   61.9230   31.9990   47.9050 C   0  0  0  0  0  0  0  0  0  0  0  0
   61.7220   32.7790   46.7500 C   0  0  0  0  0  0  0  0  0  0  0  0
   62.5950   33.8220   46.4390 C   0  0  0  0  0  0  0  0  0  0  0  0
   63.6790   34.0960   47.2690 C   0  0  0  0  0  0  0  0  0  0  0  0
   63.8960   33.3330   48.4170 C   0  0  0  0  0  0  0  0  0  0  0  0
   63.0200   32.2730   48.7600 C   0  0  0  0  0  0  0  0  0  0  0  0
   63.2150   31.5090   49.8900 N   0  0  0  0  0  0  0  0  0  0  0  0
   64.3090   31.7840   50.7890 C   0  0  0  0  0  0  0  0  0  0  0  0
   64.0940   32.5400   51.9510 C   0  0  0  0  0  0  0  0  0  0  0  0
   65.1570   32.8100   52.8190 C   0  0  0  0  0  0  0  0  0  0  0  0
   66.4370   32.3280   52.5280 C   0  0  0  0  0  0  0  0  0  0  0  0
   66.6580   31.5780   51.3680 C   0  0  0  0  0  0  0  0  0  0  0  0
   65.5970   31.3060   50.4990 C   0  0  0  0  0  0  0  0  0  0  0  0
   62.3650   30.4780   50.2000 C   0  0  0  0  0  0  0  0  0  0  0  0
   62.5540   29.8040   51.2530 O   0  0  0  0  0  0  0  0  0  0  0  0
   60.2200   27.9600   46.5990 C   0  0  0  0  0  0  0  0  0  0  0  0
   59.5870   27.5480   45.4230 C   0  0  0  0  0  0  0  0  0  0  0  0
   57.3688   32.0071   46.7152 H   0  0  0  0  0  0  0  0  0  0  0  0
   58.2951   33.4109   48.5579 H   0  0  0  0  0  0  0  0  0  0  0  0
   59.6656   35.4290   48.0283 H   0  0  0  0  0  0  0  0  0  0  0  0
   60.0988   36.0554   45.6495 H   0  0  0  0  0  0  0  0  0  0  0  0
   59.1785   34.6543   43.8015 H   0  0  0  0  0  0  0  0  0  0  0  0
   58.3430   30.1450   42.7740 H   0  0  0  0  0  0  0  0  0  0  0  0
   56.9322   28.4935   44.7674 H   0  0  0  0  0  0  0  0  0  0  0  0
   56.0663   28.6227   43.1863 H   0  0  0  0  0  0  0  0  0  0  0  0
   57.7080   27.4768   42.0283 H   0  0  0  0  0  0  0  0  0  0  0  0
   59.0046   27.9561   43.1957 H   0  0  0  0  0  0  0  0  0  0  0  0
   57.4122   25.2607   46.7391 H   0  0  0  0  0  0  0  0  0  0  0  0
   58.5216   26.0110   48.8425 H   0  0  0  0  0  0  0  0  0  0  0  0
   60.8702   32.5644   46.0879 H   0  0  0  0  0  0  0  0  0  0  0  0
   62.4267   34.4286   45.5370 H   0  0  0  0  0  0  0  0  0  0  0  0
   64.3669   34.9171   47.0187 H   0  0  0  0  0  0  0  0  0  0  0  0
   64.7573   33.5569   49.0635 H   0  0  0  0  0  0  0  0  0  0  0  0
   63.0878   32.9211   52.1799 H   0  0  0  0  0  0  0  0  0  0  0  0
   64.9861   33.4015   53.7306 H   0  0  0  0  0  0  0  0  0  0  0  0
   67.2718   32.5390   53.2126 H   0  0  0  0  0  0  0  0  0  0  0  0
   67.6663   31.2023   51.1396 H   0  0  0  0  0  0  0  0  0  0  0  0
   65.7716   30.7166   49.5868 H   0  0  0  0  0  0  0  0  0  0  0  0
   60.9999   28.7347   46.5590 H   0  0  0  0  0  0  0  0  0  0  0  0
   59.8701   27.9982   44.4601 H   0  0  0  0  0  0  0  0  0  0  0  0
  1  2  2  0
  2  3  1  0
  3  4  1  0
  4  5  2  0
  5  6  1  0
  6  7  2  0
  7  8  1  0
  8  9  2  0
  2 10  1  0
 10 11  1  0
 11 12  1  0
 12 13  1  0
 13 14  1  0
 14 15  2  0
 15 16  1  0
 16 17  2  0
 17 18  1  0
 18 19  1  0
 19 20  2  0
 19 21  1  0
 21 22  2  0
 22 23  1  0
 22 24  1  0
 24 25  2  0
 25 26  1  0
 26 27  2  0
 27 28  1  0
 28 29  2  0
 29 30  1  0
 30 31  1  0
 31 32  2  0
 32 33  1  0
 33 34  2  0
 34 35  1  0
 35 36  2  0
 30 37  1  0
 37 38  2  0
 17 39  1  0
 39 40  2  0
  9  4  1  0
 40 14  1  0
 37 21  1  0
 29 24  1  0
 36 31  1  0
  5 41  1  0
  6 42  1  0
  7 43  1  0
  8 44  1  0
  9 45  1  0
 10 46  1  0
 11 47  1  0
 11 48  1  0
 12 49  1  0
 12 50  1  0
 15 51  1  0
 16 52  1  0
 25 53  1  0
 26 54  1  0
 27 55  1  0
 28 56  1  0
 32 57  1  0
 33 58  1  0
 34 59  1  0
 35 60  1  0
 36 61  1  0
 39 62  1  0
 40 63  1  0
M  CHG  3   3  -1  18  -1  23  -1
M  END
>  <UniqueID>  (67) 
58

>  <SMILES>  (67) 
O=C([N-]c1ccccc1)NCCSc1ccc([N-]C(=O)c2c([O-])c3ccccc3n(-c3ccccc3)c2=O)cc1

>  <Energy>  (67) 
91.5706635815213

>  <Genealogy>  (67) 
O=C([N-]c1ccccc1)NCCSc1ccc([N-]C(=O)c2c([O-])c3ccccc3n(-c3ccccc3)c2=O)cc1 (protonated)
O=C([N-]c1ccccc1)NCCSc1ccc([N-]C(=O)c2c([O-])c3ccccc3n(-c3ccccc3)c2=O)cc1 (3D coordinates assigned)
O=C([N-]c1ccccc1)NCCSc1ccc([N-]C(=O)c2c([O-])c3ccccc3n(-c3ccccc3)c2=O)cc1 (optimized conformer: 91.5706635815213 kcal/mol)

>  <smiles>  (67) 
O=C(NCCSc1ccc(NC(=O)c2c(O)c3ccccc3n(-c3ccccc3)c2=O)cc1)Nc1ccccc1

>  <score_type>  (67) 
oracle

>  <origin>  (67) 
adg

>  <m_score__min__energy>  (67) 
-13.93

>  <m_primary>  (67) 
energy

$$$$
67:0
     RDKit          3D

 47 49  0  0  1  0  0  0  0  0999 V2000
   57.0330   24.2710   43.7430 C   0  0  0  0  0  0  0  0  0  0  0  0
   56.3390   24.4290   44.7180 C   0  0  0  0  0  0  0  0  0  0  0  0
   55.5010   24.6440   45.9060 C   0  0  0  0  0  0  0  0  0  0  0  0
   55.5230   26.0010   46.3070 O   0  0  0  0  0  0  0  0  0  0  0  0
   56.6850   26.7270   46.1550 C   0  0  0  0  0  0  0  0  0  0  0  0
   57.7650   26.5120   46.9230 N   0  0  0  0  0  0  0  0  0  0  0  0
   58.8910   27.2360   46.7560 C   0  0  0  0  0  0  0  0  0  0  0  0
   59.9290   27.0650   47.4590 N   0  0  0  0  0  0  0  0  0  0  0  0
   60.1990   27.5250   48.7870 C   0  0  0  0  0  0  0  0  0  0  0  0
   60.0160   29.0170   48.7580 C   0  0  0  0  0  0  0  0  0  0  0  0
   59.0300   29.6690   49.4260 C   0  0  0  0  0  0  0  0  0  0  0  0
   58.8940   31.0590   49.3730 C   0  0  0  0  0  0  0  0  0  0  0  0
   59.8110   31.7550   48.6060 C   0  0  0  0  0  0  0  0  0  0  0  0
   60.8300   31.1420   47.9090 C   0  0  0  0  0  0  0  0  0  0  0  0
   60.9130   29.7630   48.0000 C   0  0  0  0  0  0  0  0  0  0  0  0
   58.9070   28.2000   45.7790 C   0  0  0  0  0  0  0  0  0  0  0  0
   57.8010   28.4000   45.0140 C   0  0  0  0  0  0  0  0  0  0  0  0
   57.8640   29.4240   43.9970 N   0  0  0  0  0  0  0  0  0  0  0  0
   58.0030   30.7850   44.3830 C   0  0  0  0  0  0  0  0  0  0  0  0
   58.0040   31.1870   45.6880 C   0  0  0  0  0  0  0  0  0  0  0  0
   58.1340   32.5300   45.9930 C   0  0  0  0  0  0  0  0  0  0  0  0
   58.2620   33.4810   45.0310 C   0  0  0  0  0  0  0  0  0  0  0  0
   58.3960   34.8410   45.2740 O   0  0  0  0  0  0  0  0  0  0  0  0
   59.5820   35.3130   45.8590 C   0  0  0  0  0  0  0  0  0  0  0  0
   58.2650   33.0970   43.6950 C   0  0  0  0  0  0  0  0  0  0  0  0
   58.1360   31.7680   43.4030 C   0  0  0  0  0  0  0  0  0  0  0  0
   56.6800   27.6770   45.1830 N   0  0  0  0  0  0  0  0  0  0  0  0
   57.6654   24.1270   42.8545 H   0  0  0  0  0  0  0  0  0  0  0  0
   54.4656   24.3554   45.6722 H   0  0  0  0  0  0  0  0  0  0  0  0
   55.8974   24.0305   46.7285 H   0  0  0  0  0  0  0  0  0  0  0  0
   59.4962   27.0682   49.4993 H   0  0  0  0  0  0  0  0  0  0  0  0
   61.2150   27.2514   49.1077 H   0  0  0  0  0  0  0  0  0  0  0  0
   58.3168   29.0857   50.0269 H   0  0  0  0  0  0  0  0  0  0  0  0
   58.0916   31.5776   49.9182 H   0  0  0  0  0  0  0  0  0  0  0  0
   59.7228   32.8500   48.5496 H   0  0  0  0  0  0  0  0  0  0  0  0
   61.5451   31.7224   47.3075 H   0  0  0  0  0  0  0  0  0  0  0  0
   61.7135   29.2406   47.4557 H   0  0  0  0  0  0  0  0  0  0  0  0
   59.8096   28.8073   45.6159 H   0  0  0  0  0  0  0  0  0  0  0  0
   57.8130   29.2170   42.9910 H   0  0  0  0  0  0  0  0  0  0  0  0
   57.9018   30.4454   46.4940 H   0  0  0  0  0  0  0  0  0  0  0  0
   58.1337   32.8381   47.0490 H   0  0  0  0  0  0  0  0  0  0  0  0
   59.4902   35.2765   46.9546 H   0  0  0  0  0  0  0  0  0  0  0  0
   60.4245   34.6817   45.5404 H   0  0  0  0  0  0  0  0  0  0  0  0
   59.7603   36.3506   45.5404 H   0  0  0  0  0  0  0  0  0  0  0  0
   58.3685   33.8434   42.8936 H   0  0  0  0  0  0  0  0  0  0  0  0
   58.1372   31.4599   42.3470 H   0  0  0  0  0  0  0  0  0  0  0  0
   55.8590   27.8550   44.5860 H   0  0  0  0  0  0  0  0  0  0  0  0
  1  2  3  0
  2  3  1  0
  3  4  1  0
  4  5  1  0
  5  6  2  0
  6  7  1  0
  7  8  2  0
  8  9  1  0
  9 10  1  0
 10 11  2  0
 11 12  1  0
 12 13  2  0
 13 14  1  0
 14 15  2  0
  7 16  1  0
 16 17  2  0
 17 18  1  0
 18 19  1  0
 19 20  2  0
 20 21  1  0
 21 22  2  0
 22 23  1  0
 23 24  1  0
 22 25  1  0
 25 26  2  0
 17 27  1  0
 27  5  1  0
 15 10  1  0
 26 19  1  0
  1 28  1  0
  3 29  1  0
  3 30  1  0
  9 31  1  0
  9 32  1  0
 11 33  1  0
 12 34  1  0
 13 35  1  0
 14 36  1  0
 15 37  1  0
 16 38  1  0
 18 39  1  0
 20 40  1  0
 21 41  1  0
 24 42  1  0
 24 43  1  0
 24 44  1  0
 25 45  1  0
 26 46  1  0
 27 47  1  0
M  END
>  <smiles>  (68) 
C#CCOc1nc(=NCc2ccccc2)cc(Nc2ccc(OC)cc2)[nH]1

>  <score_type>  (68) 
oracle

>  <origin>  (68) 
adg

>  <m_score__min__energy>  (68) 
-8.25

>  <m_primary>  (68) 
energy

$$$$
68:0
     RDKit          3D

 64 67  0  0  0  0  0  0  0  0999 V2000
   55.4780   23.3420   44.1940 C   0  0  0  0  0  0  0  0  0  0  0  0
   56.0110   24.5600   44.9600 C   0  0  0  0  0  0  0  0  0  0  0  0
   55.5210   24.6770   46.3570 N   0  0  0  0  0  0  0  0  0  0  0  0
   54.6200   23.5690   46.7170 C   0  0  0  0  0  0  0  0  0  0  0  0
   56.5810   24.8370   47.3760 C   0  0  0  0  0  0  0  0  0  0  0  0
   57.9750   24.9390   46.7430 C   0  0  0  0  0  0  0  0  0  0  0  0
   58.2590   26.3230   46.3770 N   0  0  0  0  0  0  0  0  0  0  0  0
   57.6930   26.9510   45.3410 N   0  0  0  0  0  0  0  0  0  0  0  0
   58.1320   28.2320   45.3720 C   0  0  0  0  0  0  0  0  0  0  0  0
   58.9550   28.3970   46.4340 C   0  0  0  0  0  0  0  0  0  0  0  0
   59.5570   29.5640   46.8590 C   0  0  0  0  0  0  0  0  0  0  0  0
   60.3280   29.4770   48.0610 C   0  0  0  0  0  0  0  0  0  0  0  0
   61.0120   30.6310   48.5910 N   0  0  0  0  0  0  0  0  0  0  0  0
   61.9650   30.5880   49.7040 C   0  0  0  0  0  0  0  0  0  0  0  0
   62.9250   31.7930   49.7100 C   0  0  0  0  0  0  0  0  0  0  0  0
   62.7010   32.7710   48.6210 N   0  0  0  0  0  0  0  0  0  0  0  0
   63.7650   32.8300   47.5980 C   0  0  0  0  0  0  0  0  0  0  0  0
   63.3580   33.7370   46.4410 C   0  0  0  0  0  0  0  0  0  0  0  0
   62.0640   34.0490   49.0250 C   0  0  0  0  0  0  0  0  0  0  0  0
   60.5990   34.2010   48.5960 C   0  0  0  0  0  0  0  0  0  0  0  0
   60.4170   28.2110   48.7290 C   0  0  0  0  0  0  0  0  0  0  0  0
   59.7550   27.0640   48.2340 C   0  0  0  0  0  0  0  0  0  0  0  0
   59.0230   27.2070   47.0590 C   0  0  0  0  0  0  0  0  0  0  0  0
   59.2590   30.7730   46.0220 C   0  0  0  0  0  0  0  0  0  0  0  0
   59.7400   31.9000   46.3080 O   0  0  0  0  0  0  0  0  0  0  0  0
   58.3550   30.6310   44.8240 C   0  0  0  0  0  0  0  0  0  0  0  0
   58.0480   31.7360   44.0110 C   0  0  0  0  0  0  0  0  0  0  0  0
   57.2000   31.5860   42.9090 C   0  0  0  0  0  0  0  0  0  0  0  0
   56.6490   30.3380   42.6040 C   0  0  0  0  0  0  0  0  0  0  0  0
   56.9420   29.2260   43.3990 C   0  0  0  0  0  0  0  0  0  0  0  0
   57.7910   29.3650   44.5030 C   0  0  0  0  0  0  0  0  0  0  0  0
   55.1431   22.5766   44.9096 H   0  0  0  0  0  0  0  0  0  0  0  0
   54.6316   23.6482   43.5616 H   0  0  0  0  0  0  0  0  0  0  0  0
   56.2772   22.9280   43.5616 H   0  0  0  0  0  0  0  0  0  0  0  0
   57.1088   24.4949   44.9862 H   0  0  0  0  0  0  0  0  0  0  0  0
   55.6430   25.4485   44.4260 H   0  0  0  0  0  0  0  0  0  0  0  0
   54.5556   23.4898   47.8123 H   0  0  0  0  0  0  0  0  0  0  0  0
   53.6189   23.7615   46.3038 H   0  0  0  0  0  0  0  0  0  0  0  0
   55.0125   22.6282   46.3038 H   0  0  0  0  0  0  0  0  0  0  0  0
   56.3845   25.7532   47.9522 H   0  0  0  0  0  0  0  0  0  0  0  0
   56.5662   23.9487   48.0246 H   0  0  0  0  0  0  0  0  0  0  0  0
   58.7288   24.5914   47.4648 H   0  0  0  0  0  0  0  0  0  0  0  0
   58.0067   24.3135   45.8387 H   0  0  0  0  0  0  0  0  0  0  0  0
   60.9130   31.5480   48.1080 H   0  0  0  0  0  0  0  0  0  0  0  0
   61.4024   30.5812   50.6492 H   0  0  0  0  0  0  0  0  0  0  0  0
   62.5729   29.6788   49.5867 H   0  0  0  0  0  0  0  0  0  0  0  0
   62.8098   32.3175   50.6700 H   0  0  0  0  0  0  0  0  0  0  0  0
   63.9350   31.3850   49.5568 H   0  0  0  0  0  0  0  0  0  0  0  0
   64.6845   33.2223   48.0569 H   0  0  0  0  0  0  0  0  0  0  0  0
   63.9333   31.8157   47.2070 H   0  0  0  0  0  0  0  0  0  0  0  0
   62.9381   34.6727   46.8388 H   0  0  0  0  0  0  0  0  0  0  0  0
   64.2406   33.9639   45.8250 H   0  0  0  0  0  0  0  0  0  0  0  0
   62.6018   33.2285   45.8250 H   0  0  0  0  0  0  0  0  0  0  0  0
   62.1089   34.1221   50.1217 H   0  0  0  0  0  0  0  0  0  0  0  0
   62.6210   34.8480   48.5138 H   0  0  0  0  0  0  0  0  0  0  0  0
   59.9604   34.2673   49.4892 H   0  0  0  0  0  0  0  0  0  0  0  0
   60.4858   35.1157   47.9956 H   0  0  0  0  0  0  0  0  0  0  0  0
   60.3004   33.3290   47.9956 H   0  0  0  0  0  0  0  0  0  0  0  0
   61.0149   28.1304   49.6488 H   0  0  0  0  0  0  0  0  0  0  0  0
   59.8160   26.0979   48.7563 H   0  0  0  0  0  0  0  0  0  0  0  0
   58.4764   32.7224   44.2425 H   0  0  0  0  0  0  0  0  0  0  0  0
   56.9650   32.4559   42.2780 H   0  0  0  0  0  0  0  0  0  0  0  0
   55.9826   30.2305   41.7355 H   0  0  0  0  0  0  0  0  0  0  0  0
   56.5067   28.2450   43.1577 H   0  0  0  0  0  0  0  0  0  0  0  0
  1  2  1  0
  2  3  1  0
  3  4  1  0
  3  5  1  0
  5  6  1  0
  6  7  1  0
  7  8  1  0
  8  9  2  0
  9 10  1  0
 10 11  2  0
 11 12  1  0
 12 13  1  0
 13 14  1  0
 14 15  1  0
 15 16  1  0
 16 17  1  0
 17 18  1  0
 16 19  1  0
 19 20  1  0
 12 21  2  0
 21 22  1  0
 22 23  2  0
 11 24  1  0
 24 25  2  0
 24 26  1  0
 26 27  2  0
 27 28  1  0
 28 29  2  0
 29 30  1  0
 30 31  2  0
 23  7  1  0
 31 26  1  0
 31  9  1  0
 23 10  1  0
  1 32  1  0
  1 33  1  0
  1 34  1  0
  2 35  1  0
  2 36  1  0
  4 37  1  0
  4 38  1  0
  4 39  1  0
  5 40  1  0
  5 41  1  0
  6 42  1  0
  6 43  1  0
 13 44  1  0
 14 45  1  0
 14 46  1  0
 15 47  1  0
 15 48  1  0
 17 49  1  0
 17 50  1  0
 18 51  1  0
 18 52  1  0
 18 53  1  0
 19 54  1  0
 19 55  1  0
 20 56  1  0
 20 57  1  0
 20 58  1  0
 21 59  1  0
 22 60  1  0
 27 61  1  0
 28 62  1  0
 29 63  1  0
 30 64  1  0
M  END
>  <UniqueID>  (69) 
59

>  <SMILES>  (69) 
CCN(C)CCn1nc2c3c(c(NCCN(CC)CC)ccc31)C(=O)c1ccccc1-2

>  <Energy>  (69) 
125.8368518909647

>  <Genealogy>  (69) 
CCN(C)CCn1nc2c3c(c(NCCN(CC)CC)ccc31)C(=O)c1ccccc1-2 (3D coordinates assigned)
CCN(C)CCn1nc2c3c(c(NCCN(CC)CC)ccc31)C(=O)c1ccccc1-2 (nonaromatic ring conformer: 125.8368518909647 kcal/mol)

>  <smiles>  (69) 
CCN(C)CCn1nc2c3c(c(NCCN(CC)CC)ccc31)C(=O)c1ccccc1-2

>  <score_type>  (69) 
oracle

>  <origin>  (69) 
adg

>  <m_score__min__energy>  (69) 
-7.4000000000000004

>  <m_primary>  (69) 
energy

$$$$
69:0
     RDKit          3D

 57 62  0  0  0  0  0  0  0  0999 V2000
   66.8960   28.7178   52.1947 H   0  0  0  0  0  0  0  0  0  0  0  0
   66.5410   29.6500   51.7310 C   0  0  0  0  0  0  0  0  0  0  0  0
   67.4600   30.5750   51.2300 C   0  0  0  0  0  0  0  0  0  0  0  0
   68.5386   30.3700   51.2971 H   0  0  0  0  0  0  0  0  0  0  0  0
   67.0090   31.7620   50.6430 C   0  0  0  0  0  0  0  0  0  0  0  0
   67.7363   32.4932   50.2605 H   0  0  0  0  0  0  0  0  0  0  0  0
   65.6340   32.0260   50.5390 C   0  0  0  0  0  0  0  0  0  0  0  0
   65.2180   33.2350   49.9650 O   0  0  0  0  0  0  0  0  0  0  0  0
   64.0420   33.4100   49.2200 C   0  0  0  0  0  0  0  0  0  0  0  0
   62.9170   33.9520   49.8490 C   0  0  0  0  0  0  0  0  0  0  0  0
   62.9717   34.2445   50.9080 H   0  0  0  0  0  0  0  0  0  0  0  0
   61.7240   34.1250   49.1430 C   0  0  0  0  0  0  0  0  0  0  0  0
   60.8375   34.5243   49.6575 H   0  0  0  0  0  0  0  0  0  0  0  0
   61.6490   33.7920   47.7790 C   0  0  0  0  0  0  0  0  0  0  0  0
   60.3830   33.9930   47.0370 C   0  0  0  0  0  0  0  0  0  0  0  0
   60.2180   33.6740   45.7340 N   0  0  0  0  0  0  0  0  0  0  0  0
   58.9350   34.0080   45.4830 C   0  0  0  0  0  0  0  0  0  0  0  0
   58.3450   33.8350   44.3370 N   0  0  0  0  0  0  0  0  0  0  0  0
   57.8080   32.6040   43.8240 C   0  0  0  0  0  0  0  0  0  0  0  0
   57.6140   32.3890   42.4470 C   0  0  0  0  0  0  0  0  0  0  0  0
   57.9312   33.1534   41.7224 H   0  0  0  0  0  0  0  0  0  0  0  0
   57.0200   31.2080   41.9980 C   0  0  0  0  0  0  0  0  0  0  0  0
   56.8768   31.0417   40.9201 H   0  0  0  0  0  0  0  0  0  0  0  0
   56.6070   30.2370   42.9130 C   0  0  0  0  0  0  0  0  0  0  0  0
   56.1298   29.3132   42.5539 H   0  0  0  0  0  0  0  0  0  0  0  0
   56.7980   30.4350   44.2840 C   0  0  0  0  0  0  0  0  0  0  0  0
   56.3650   29.4230   45.2040 N   0  0  0  0  0  0  0  0  0  0  0  0
   57.2350   28.5890   45.9800 C   0  0  0  0  0  0  0  0  0  0  0  0
   56.9470   27.3700   46.1090 O   0  0  0  0  0  0  0  0  0  0  0  0
   58.4790   29.1140   46.5900 C   0  0  0  0  0  0  0  0  0  0  0  0
   59.5840   29.4600   45.7680 C   0  0  0  0  0  0  0  0  0  0  0  0
   59.5133   29.3334   44.6776 H   0  0  0  0  0  0  0  0  0  0  0  0
   60.7700   29.9640   46.3370 C   0  0  0  0  0  0  0  0  0  0  0  0
   61.6332   30.2282   45.7085 H   0  0  0  0  0  0  0  0  0  0  0  0
   60.8150   30.1170   47.7190 C   0  0  0  0  0  0  0  0  0  0  0  0
   59.7610   29.7990   48.5120 C   0  0  0  0  0  0  0  0  0  0  0  0
   58.5710   29.3000   47.9910 C   0  0  0  0  0  0  0  0  0  0  0  0
   57.7244   29.0565   48.6497 H   0  0  0  0  0  0  0  0  0  0  0  0
   60.0830   30.0580   49.8300 O   0  0  0  0  0  0  0  0  0  0  0  0
   61.4230   30.5700   49.8680 C   0  0  0  0  0  0  0  0  0  0  0  0
   61.4370   31.5853   50.2909 H   0  0  0  0  0  0  0  0  0  0  0  0
   62.0818   29.9562   50.4999 H   0  0  0  0  0  0  0  0  0  0  0  0
   61.8530   30.5880   48.5000 O   0  0  0  0  0  0  0  0  0  0  0  0
   57.3740   31.6340   44.7350 C   0  0  0  0  0  0  0  0  0  0  0  0
   57.4851   31.8125   45.8147 H   0  0  0  0  0  0  0  0  0  0  0  0
   58.2900   34.4990   46.5570 N   0  0  0  0  0  0  0  0  0  0  0  0
   57.2940   34.8060   46.6170 H   0  0  0  0  0  0  0  0  0  0  0  0
   59.1990   34.4980   47.5420 C   0  0  0  0  0  0  0  0  0  0  0  0
   59.0319   34.8399   48.5741 H   0  0  0  0  0  0  0  0  0  0  0  0
   62.7910   33.2740   47.1390 C   0  0  0  0  0  0  0  0  0  0  0  0
   62.7502   33.0161   46.0704 H   0  0  0  0  0  0  0  0  0  0  0  0
   63.9760   33.0860   47.8550 C   0  0  0  0  0  0  0  0  0  0  0  0
   64.8633   32.6814   47.3461 H   0  0  0  0  0  0  0  0  0  0  0  0
   64.7150   31.0950   51.0570 C   0  0  0  0  0  0  0  0  0  0  0  0
   63.6358   31.3003   51.0010 H   0  0  0  0  0  0  0  0  0  0  0  0
   65.1700   29.9090   51.6430 C   0  0  0  0  0  0  0  0  0  0  0  0
   64.4473   29.1785   52.0355 H   0  0  0  0  0  0  0  0  0  0  0  0
  1  2  1  0
  2  3  2  0
  3  4  1  0
  3  5  1  0
  5  6  1  0
  5  7  2  0
  7  8  1  0
  8  9  1  0
  9 10  2  0
 10 11  1  0
 10 12  1  0
 12 13  1  0
 12 14  2  0
 14 15  1  0
 15 16  1  0
 16 17  1  0
 17 18  2  0
 18 19  1  0
 19 20  2  0
 20 21  1  0
 20 22  1  0
 22 23  1  0
 22 24  2  0
 24 25  1  0
 24 26  1  0
 26 27  1  0
 27 28  1  0
 28 29  2  0
 28 30  1  0
 30 31  2  0
 31 32  1  0
 31 33  1  0
 33 34  1  0
 33 35  2  0
 35 36  1  0
 36 37  2  0
 37 38  1  0
 36 39  1  0
 39 40  1  0
 40 41  1  0
 40 42  1  0
 40 43  1  0
 26 44  2  0
 44 45  1  0
 17 46  1  0
 46 47  1  0
 46 48  1  0
 48 49  1  0
 14 50  1  0
 50 51  1  0
 50 52  2  0
 52 53  1  0
  7 54  1  0
 54 55  1  0
 54 56  2  0
 56 57  1  0
 56  2  1  0
 52  9  1  0
 48 15  2  0
 44 19  1  0
 37 30  1  0
 43 35  1  0
M  CHG  2  16  -1  27  -1
M  END
>  <UniqueID>  (70) 
60

>  <SMILES>  (70) 
O=C([N-]c1cccc(/N=c2\[n-]c(-c3ccc(Oc4ccccc4)cc3)c[nH]2)c1)c1ccc2c(c1)OCO2

>  <Energy>  (70) 
142.97258816446302

>  <Genealogy>  (70) 
O=C([N-]c1cccc(N=c2[n-]c(-c3ccc(Oc4ccccc4)cc3)c[nH]2)c1)c1ccc2c(c1)OCO2 (protonated)
O=C([N-]c1cccc(/N=c2\[n-]c(-c3ccc(Oc4ccccc4)cc3)c[nH]2)c1)c1ccc2c(c1)OCO2 (cis-trans isomerization)
O=C([N-]c1cccc(/N=c2\[n-]c(-c3ccc(Oc4ccccc4)cc3)c[nH]2)c1)c1ccc2c(c1)OCO2 (3D coordinates assigned)
O=C([N-]c1cccc(/N=c2\[n-]c(-c3ccc(Oc4ccccc4)cc3)c[nH]2)c1)c1ccc2c(c1)OCO2 (nonaromatic ring conformer: 142.97258816446302 kcal/mol)

>  <smiles>  (70) 
O=C(Nc1cccc(N=c2[nH]cc(-c3ccc(Oc4ccccc4)cc3)[nH]2)c1)c1ccc2c(c1)OCO2

>  <score_type>  (70) 
oracle

>  <origin>  (70) 
adg

>  <m_score__min__energy>  (70) 
-12.83

>  <m_primary>  (70) 
energy

$$$$
70:0
     RDKit          3D

 51 54  0  0  0  0  0  0  0  0999 V2000
   59.6810   27.3840   47.7910 C   0  0  0  0  0  0  0  0  0  0  0  0
   59.4160   28.0290   46.4730 C   0  0  0  0  0  0  0  0  0  0  0  0
   60.3720   28.5370   45.6120 C   0  0  0  0  0  0  0  0  0  0  0  0
   59.6560   28.9410   44.5050 C   0  0  0  0  0  0  0  0  0  0  0  0
   58.3540   28.6750   44.7220 N   0  0  0  0  0  0  0  0  0  0  0  0
   57.2650   28.8700   43.7700 C   0  0  0  0  0  0  0  0  0  0  0  0
   56.0190   29.3950   44.4920 C   0  0  0  0  0  0  0  0  0  0  0  0
   56.1010   30.8410   44.6920 N   0  0  0  0  0  0  0  0  0  0  0  0
   57.2150   31.6640   44.3130 C   0  0  0  0  0  0  0  0  0  0  0  0
   57.3750   31.9480   43.0970 O   0  0  0  0  0  0  0  0  0  0  0  0
   58.1980   32.1490   45.3010 C   0  0  0  0  0  0  0  0  0  0  0  0
   58.8480   33.3740   45.0960 C   0  0  0  0  0  0  0  0  0  0  0  0
   59.8240   33.8120   45.9960 C   0  0  0  0  0  0  0  0  0  0  0  0
   60.1650   33.0330   47.1120 C   0  0  0  0  0  0  0  0  0  0  0  0
   61.1800   33.4990   48.0160 N   0  0  0  0  0  0  0  0  0  0  0  0
   62.5210   32.9790   48.0450 C   0  0  0  0  0  0  0  0  0  0  0  0
   62.9260   32.2220   47.1220 O   0  0  0  0  0  0  0  0  0  0  0  0
   63.4230   33.3430   49.1020 N   0  0  0  0  0  0  0  0  0  0  0  0
   64.8070   32.8670   49.1750 C   0  0  0  0  0  0  0  0  0  0  0  0
   65.3000   33.4630   50.4400 C   0  0  0  0  0  0  0  0  0  0  0  0
   66.5680   33.3390   51.0090 C   0  0  0  0  0  0  0  0  0  0  0  0
   66.8230   33.9930   52.2250 C   0  0  0  0  0  0  0  0  0  0  0  0
   65.8150   34.7530   52.8480 C   0  0  0  0  0  0  0  0  0  0  0  0
   64.5460   34.8640   52.2570 C   0  0  0  0  0  0  0  0  0  0  0  0
   64.3140   34.2060   51.0480 C   0  0  0  0  0  0  0  0  0  0  0  0
   63.0660   34.1830   50.2470 C   0  0  0  0  0  0  0  0  0  0  0  0
   59.4660   31.8360   47.3480 C   0  0  0  0  0  0  0  0  0  0  0  0
   58.4900   31.3990   46.4480 C   0  0  0  0  0  0  0  0  0  0  0  0
   58.1970   28.1010   45.9040 N   0  0  0  0  0  0  0  0  0  0  0  0
   59.3978   28.0733   48.6001 H   0  0  0  0  0  0  0  0  0  0  0  0
   59.0896   26.4601   47.8726 H   0  0  0  0  0  0  0  0  0  0  0  0
   60.7511   27.1428   47.8726 H   0  0  0  0  0  0  0  0  0  0  0  0
   61.4580   28.6036   45.7738 H   0  0  0  0  0  0  0  0  0  0  0  0
   60.0767   29.4020   43.5992 H   0  0  0  0  0  0  0  0  0  0  0  0
   57.5761   29.5978   43.0061 H   0  0  0  0  0  0  0  0  0  0  0  0
   57.0260   27.9068   43.2955 H   0  0  0  0  0  0  0  0  0  0  0  0
   55.1291   29.1651   43.8876 H   0  0  0  0  0  0  0  0  0  0  0  0
   55.9522   28.9078   45.4760 H   0  0  0  0  0  0  0  0  0  0  0  0
   58.5892   33.9927   44.2241 H   0  0  0  0  0  0  0  0  0  0  0  0
   60.3286   34.7749   45.8279 H   0  0  0  0  0  0  0  0  0  0  0  0
   60.9620   34.3380   48.5980 H   0  0  0  0  0  0  0  0  0  0  0  0
   64.8454   31.7684   49.2146 H   0  0  0  0  0  0  0  0  0  0  0  0
   65.4091   33.1508   48.2993 H   0  0  0  0  0  0  0  0  0  0  0  0
   67.3499   32.7425   50.5162 H   0  0  0  0  0  0  0  0  0  0  0  0
   67.8151   33.9111   52.6931 H   0  0  0  0  0  0  0  0  0  0  0  0
   66.0221   35.2617   53.8011 H   0  0  0  0  0  0  0  0  0  0  0  0
   63.7525   35.4563   52.7361 H   0  0  0  0  0  0  0  0  0  0  0  0
   62.2375   33.7398   50.8190 H   0  0  0  0  0  0  0  0  0  0  0  0
   62.7194   35.1858   49.9568 H   0  0  0  0  0  0  0  0  0  0  0  0
   59.6885   31.2404   48.2456 H   0  0  0  0  0  0  0  0  0  0  0  0
   57.9482   30.4613   46.6412 H   0  0  0  0  0  0  0  0  0  0  0  0
  1  2  1  0
  2  3  1  0
  3  4  2  0
  4  5  1  0
  5  6  1  0
  6  7  1  0
  7  8  1  0
  8  9  1  0
  9 10  2  0
  9 11  1  0
 11 12  2  0
 12 13  1  0
 13 14  2  0
 14 15  1  0
 15 16  1  0
 16 17  2  0
 16 18  1  0
 18 19  1  0
 19 20  1  0
 20 21  2  0
 21 22  1  0
 22 23  2  0
 23 24  1  0
 24 25  2  0
 25 26  1  0
 14 27  1  0
 27 28  2  0
  5 29  1  0
 29  2  2  0
 28 11  1  0
 26 18  1  0
 25 20  1  0
  1 30  1  0
  1 31  1  0
  1 32  1  0
  3 33  1  0
  4 34  1  0
  6 35  1  0
  6 36  1  0
  7 37  1  0
  7 38  1  0
 12 39  1  0
 13 40  1  0
 15 41  1  0
 19 42  1  0
 19 43  1  0
 21 44  1  0
 22 45  1  0
 23 46  1  0
 24 47  1  0
 26 48  1  0
 26 49  1  0
 27 50  1  0
 28 51  1  0
M  CHG  1   8  -1
M  END
>  <UniqueID>  (71) 
61

>  <SMILES>  (71) 
Cc1ccn(CC[N-]C(=O)c2ccc(NC(=O)N3Cc4ccccc4C3)cc2)n1

>  <Energy>  (71) 
96.0216998931151

>  <Genealogy>  (71) 
Cc1ccn(CC[N-]C(=O)c2ccc(NC(=O)N3Cc4ccccc4C3)cc2)n1 (protonated)
Cc1ccn(CC[N-]C(=O)c2ccc(NC(=O)N3Cc4ccccc4C3)cc2)n1 (3D coordinates assigned)
Cc1ccn(CC[N-]C(=O)c2ccc(NC(=O)N3Cc4ccccc4C3)cc2)n1 (nonaromatic ring conformer: 96.0216998931151 kcal/mol)

>  <smiles>  (71) 
Cc1ccn(CCNC(=O)c2ccc(NC(=O)N3Cc4ccccc4C3)cc2)n1

>  <score_type>  (71) 
oracle

>  <origin>  (71) 
adg

>  <m_score__min__energy>  (71) 
-9.8900000000000006

>  <m_primary>  (71) 
energy

$$$$
71:0
     RDKit          3D

 42 44  0  0  0  0  0  0  0  0999 V2000
   57.7370   33.2170   44.5860 C   0  0  0  0  0  0  0  0  0  0  0  0
   57.4020   31.9040   43.8890 C   0  0  0  0  0  0  0  0  0  0  0  0
   56.2800   31.2770   44.5070 O   0  0  0  0  0  0  0  0  0  0  0  0
   56.1100   29.8880   44.5730 C   0  0  0  0  0  0  0  0  0  0  0  0
   55.0450   29.3530   44.1580 O   0  0  0  0  0  0  0  0  0  0  0  0
   57.1820   29.0440   45.1230 C   0  0  0  0  0  0  0  0  0  0  0  0
   57.3350   27.7320   44.8270 N   0  0  0  0  0  0  0  0  0  0  0  0
   58.3960   27.3100   45.5400 C   0  0  0  0  0  0  0  0  0  0  0  0
   58.9020   26.0130   45.6030 C   0  0  0  0  0  0  0  0  0  0  0  0
   59.9800   25.7670   46.4710 C   0  0  0  0  0  0  0  0  0  0  0  0
   60.5120   26.8070   47.2640 C   0  0  0  0  0  0  0  0  0  0  0  0
   59.9790   28.1070   47.1870 C   0  0  0  0  0  0  0  0  0  0  0  0
   58.9320   28.3320   46.2910 C   0  0  0  0  0  0  0  0  0  0  0  0
   58.1730   29.4540   46.0110 C   0  0  0  0  0  0  0  0  0  0  0  0
   58.2850   30.7610   46.5860 N   0  0  0  0  0  0  0  0  0  0  0  0
   59.0960   31.1030   47.7150 C   0  0  0  0  0  0  0  0  0  0  0  0
   58.7500   30.7190   48.8660 O   0  0  0  0  0  0  0  0  0  0  0  0
   60.3780   31.8370   47.5340 C   0  0  0  0  0  0  0  0  0  0  0  0
   60.3730   33.0560   46.8260 C   0  0  0  0  0  0  0  0  0  0  0  0
   61.5500   33.7840   46.6480 C   0  0  0  0  0  0  0  0  0  0  0  0
   62.7510   33.3100   47.1690 C   0  0  0  0  0  0  0  0  0  0  0  0
   62.7820   32.1030   47.8670 C   0  0  0  0  0  0  0  0  0  0  0  0
   61.6050   31.3490   48.0550 C   0  0  0  0  0  0  0  0  0  0  0  0
   61.6300   30.1200   48.7360 O   0  0  0  0  0  0  0  0  0  0  0  0
   61.3920   29.9440   50.1290 C   0  0  0  0  0  0  0  0  0  0  0  0
   61.1020   28.6190   50.3940 F   0  0  0  0  0  0  0  0  0  0  0  0
   62.5270   30.3040   50.8280 F   0  0  0  0  0  0  0  0  0  0  0  0
   57.7003   33.0733   45.6760 H   0  0  0  0  0  0  0  0  0  0  0  0
   58.7465   33.5407   44.2926 H   0  0  0  0  0  0  0  0  0  0  0  0
   57.0060   33.9848   44.2926 H   0  0  0  0  0  0  0  0  0  0  0  0
   57.1670   32.1053   42.8334 H   0  0  0  0  0  0  0  0  0  0  0  0
   58.2693   31.2317   43.9656 H   0  0  0  0  0  0  0  0  0  0  0  0
   56.7370   27.1530   44.1940 H   0  0  0  0  0  0  0  0  0  0  0  0
   58.4709   25.2062   44.9920 H   0  0  0  0  0  0  0  0  0  0  0  0
   60.4121   24.7573   46.5328 H   0  0  0  0  0  0  0  0  0  0  0  0
   61.3491   26.5995   47.9468 H   0  0  0  0  0  0  0  0  0  0  0  0
   60.3747   28.9204   47.8130 H   0  0  0  0  0  0  0  0  0  0  0  0
   59.4296   33.4380   46.4087 H   0  0  0  0  0  0  0  0  0  0  0  0
   61.5290   34.7345   46.0948 H   0  0  0  0  0  0  0  0  0  0  0  0
   63.6764   33.8882   47.0299 H   0  0  0  0  0  0  0  0  0  0  0  0
   63.7348   31.7351   48.2754 H   0  0  0  0  0  0  0  0  0  0  0  0
   60.5414   30.5709   50.4348 H   0  0  0  0  0  0  0  0  0  0  0  0
  1  2  1  0
  2  3  1  0
  3  4  1  0
  4  5  2  0
  4  6  1  0
  6  7  1  0
  7  8  1  0
  8  9  2  0
  9 10  1  0
 10 11  2  0
 11 12  1  0
 12 13  2  0
 13 14  1  0
 14 15  1  0
 15 16  1  0
 16 17  2  0
 16 18  1  0
 18 19  2  0
 19 20  1  0
 20 21  2  0
 21 22  1  0
 22 23  2  0
 23 24  1  0
 24 25  1  0
 25 26  1  0
 25 27  1  0
 14  6  2  0
 23 18  1  0
 13  8  1  0
  1 28  1  0
  1 29  1  0
  1 30  1  0
  2 31  1  0
  2 32  1  0
  7 33  1  0
  9 34  1  0
 10 35  1  0
 11 36  1  0
 12 37  1  0
 19 38  1  0
 20 39  1  0
 21 40  1  0
 22 41  1  0
 25 42  1  0
M  CHG  1  15  -1
M  END
>  <UniqueID>  (72) 
62

>  <SMILES>  (72) 
CCOC(=O)c1[nH]c2ccccc2c1[N-]C(=O)c1ccccc1OC(F)F

>  <Energy>  (72) 
80.12133799898203

>  <Genealogy>  (72) 
CCOC(=O)c1[nH]c2ccccc2c1[N-]C(=O)c1ccccc1OC(F)F (protonated)
CCOC(=O)c1[nH]c2ccccc2c1[N-]C(=O)c1ccccc1OC(F)F (3D coordinates assigned)
CCOC(=O)c1[nH]c2ccccc2c1[N-]C(=O)c1ccccc1OC(F)F (optimized conformer: 80.12133799898203 kcal/mol)

>  <smiles>  (72) 
CCOC(=O)c1[nH]c2ccccc2c1NC(=O)c1ccccc1OC(F)F

>  <score_type>  (72) 
oracle

>  <origin>  (72) 
adg

>  <m_score__min__energy>  (72) 
-8.6999999999999993

>  <m_primary>  (72) 
energy

$$$$
72:0
     RDKit          3D

 25 27  0  0  0  0  0  0  0  0999 V2000
   57.3910   32.3340   40.7640 C   0  0  0  0  0  0  0  0  0  0  0  0
   57.4690   32.1340   42.2440 C   0  0  0  0  0  0  0  0  0  0  0  0
   56.7880   31.0600   42.8510 C   0  0  0  0  0  0  0  0  0  0  0  0
   56.8810   30.9000   44.2390 C   0  0  0  0  0  0  0  0  0  0  0  0
   56.2850   29.9500   44.8150 O   0  0  0  0  0  0  0  0  0  0  0  0
   57.6260   31.7860   44.9520 N   0  0  0  0  0  0  0  0  0  0  0  0
   57.7950   31.7460   46.2710 N   0  0  0  0  0  0  0  0  0  0  0  0
   58.5860   32.7520   46.7270 C   0  0  0  0  0  0  0  0  0  0  0  0
   58.9300   32.9320   48.1560 C   0  0  0  0  0  0  0  0  0  0  0  0
   58.5170   31.9990   49.1230 C   0  0  0  0  0  0  0  0  0  0  0  0
   58.8560   32.1970   50.4640 C   0  0  0  0  0  0  0  0  0  0  0  0
   59.5820   33.2850   50.8310 N   0  0  0  0  0  0  0  0  0  0  0  0
   59.9970   34.2040   49.9200 C   0  0  0  0  0  0  0  0  0  0  0  0
   59.6790   34.0460   48.5700 C   0  0  0  0  0  0  0  0  0  0  0  0
   59.1100   33.7480   45.4490 S   0  0  0  0  0  0  0  0  0  0  0  0
   58.2680   32.8050   44.3470 C   0  0  0  0  0  0  0  0  0  0  0  0
   58.2030   32.9950   43.0070 N   0  0  0  0  0  0  0  0  0  0  0  0
   56.9989   33.3392   40.5500 H   0  0  0  0  0  0  0  0  0  0  0  0
   58.3951   32.2313   40.3267 H   0  0  0  0  0  0  0  0  0  0  0  0
   56.7216   31.5786   40.3267 H   0  0  0  0  0  0  0  0  0  0  0  0
   56.1940   30.3598   42.2453 H   0  0  0  0  0  0  0  0  0  0  0  0
   57.9300   31.1176   48.8255 H   0  0  0  0  0  0  0  0  0  0  0  0
   58.5342   31.4701   51.2244 H   0  0  0  0  0  0  0  0  0  0  0  0
   60.5848   35.0743   50.2471 H   0  0  0  0  0  0  0  0  0  0  0  0
   60.0137   34.7910   47.8331 H   0  0  0  0  0  0  0  0  0  0  0  0
  1  2  1  0
  2  3  2  0
  3  4  1  0
  4  5  2  0
  4  6  1  0
  6  7  1  0
  7  8  2  0
  8  9  1  0
  9 10  2  0
 10 11  1  0
 11 12  2  0
 12 13  1  0
 13 14  2  0
  8 15  1  0
 15 16  1  0
 16 17  2  0
 17  2  1  0
 16  6  1  0
 14  9  1  0
  1 18  1  0
  1 19  1  0
  1 20  1  0
  3 21  1  0
 10 22  1  0
 11 23  1  0
 13 24  1  0
 14 25  1  0
M  END
>  <UniqueID>  (73) 
63

>  <SMILES>  (73) 
Cc1cc(=O)n2nc(-c3ccncc3)sc2n1

>  <Energy>  (73) 
66.74031944787244

>  <Genealogy>  (73) 
Cc1cc(=O)n2nc(-c3ccncc3)sc2n1 (3D coordinates assigned)
Cc1cc(=O)n2nc(-c3ccncc3)sc2n1 (optimized conformer: 66.74031944787244 kcal/mol)

>  <smiles>  (73) 
Cc1cc(=O)n2nc(-c3ccncc3)sc2n1

>  <score_type>  (73) 
oracle

>  <origin>  (73) 
adg

>  <m_score__min__energy>  (73) 
-6.4699999999999998

>  <m_primary>  (73) 
energy

$$$$
73:0
     RDKit          3D

 54 57  0  0  0  0  0  0  0  0999 V2000
   59.9630   28.4040   45.9890 C   0  0  0  0  0  0  0  0  0  0  0  0
   58.7710   29.2860   45.6650 C   0  0  0  0  0  0  0  0  0  0  0  0
   57.5530   28.7400   45.1740 C   0  0  0  0  0  0  0  0  0  0  0  0
   57.3460   27.2470   44.9860 C   0  0  0  0  0  0  0  0  0  0  0  0
   56.5710   26.6650   46.1280 C   0  0  0  0  0  0  0  0  0  0  0  0
   57.1670   26.3370   47.1890 O   0  0  0  0  0  0  0  0  0  0  0  0
   55.1600   26.4650   45.9960 N   0  0  0  0  0  0  0  0  0  0  0  0
   54.5570   25.2030   45.5780 C   0  0  0  0  0  0  0  0  0  0  0  0
   55.4250   24.0400   45.9990 C   0  0  0  0  0  0  0  0  0  0  0  0
   55.4530   23.6830   47.3590 C   0  0  0  0  0  0  0  0  0  0  0  0
   56.2290   22.6070   47.7960 C   0  0  0  0  0  0  0  0  0  0  0  0
   56.9840   21.8730   46.8810 C   0  0  0  0  0  0  0  0  0  0  0  0
   56.9670   22.2140   45.5270 C   0  0  0  0  0  0  0  0  0  0  0  0
   56.1910   23.2900   45.0760 C   0  0  0  0  0  0  0  0  0  0  0  0
   56.2240   23.6620   43.3540 Cl  0  0  0  0  0  0  0  0  0  0  0  0
   56.5140   29.6280   44.8220 C   0  0  0  0  0  0  0  0  0  0  0  0
   55.4360   29.1930   44.3350 O   0  0  0  0  0  0  0  0  0  0  0  0
   56.6470   30.9350   44.9940 O   0  0  0  0  0  0  0  0  0  0  0  0
   57.7370   31.4910   45.4980 C   0  0  0  0  0  0  0  0  0  0  0  0
   57.7710   32.8850   45.6630 C   0  0  0  0  0  0  0  0  0  0  0  0
   58.9140   33.4550   46.2080 C   0  0  0  0  0  0  0  0  0  0  0  0
   59.1230   34.7260   46.4380 O   0  0  0  0  0  0  0  0  0  0  0  0
   60.3250   34.8490   46.9640 C   0  0  0  0  0  0  0  0  0  0  0  0
   60.9420   33.5980   47.0860 C   0  0  0  0  0  0  0  0  0  0  0  0
   62.3390   33.3130   47.6440 C   0  0  0  0  0  0  0  0  0  0  0  0
   62.5840   34.1610   48.9090 C   0  0  0  0  0  0  0  0  0  0  0  0
   63.4070   33.6270   46.5770 C   0  0  0  0  0  0  0  0  0  0  0  0
   62.4860   31.8240   48.0360 C   0  0  0  0  0  0  0  0  0  0  0  0
   59.9960   32.7050   46.5840 C   0  0  0  0  0  0  0  0  0  0  0  0
   59.9990   31.3140   46.4300 C   0  0  0  0  0  0  0  0  0  0  0  0
   58.8540   30.6870   45.8690 C   0  0  0  0  0  0  0  0  0  0  0  0
   60.0730   28.3226   47.0805 H   0  0  0  0  0  0  0  0  0  0  0  0
   59.8057   27.4031   45.5607 H   0  0  0  0  0  0  0  0  0  0  0  0
   60.8742   28.8471   45.5607 H   0  0  0  0  0  0  0  0  0  0  0  0
   56.7925   27.0754   44.0510 H   0  0  0  0  0  0  0  0  0  0  0  0
   58.3309   26.7588   44.9457 H   0  0  0  0  0  0  0  0  0  0  0  0
   53.5657   25.1029   46.0442 H   0  0  0  0  0  0  0  0  0  0  0  0
   54.4613   25.1987   44.4822 H   0  0  0  0  0  0  0  0  0  0  0  0
   54.8583   24.2564   48.0853 H   0  0  0  0  0  0  0  0  0  0  0  0
   56.2448   22.3382   48.8625 H   0  0  0  0  0  0  0  0  0  0  0  0
   57.5933   21.0248   47.2264 H   0  0  0  0  0  0  0  0  0  0  0  0
   57.5666   21.6342   44.8099 H   0  0  0  0  0  0  0  0  0  0  0  0
   56.9146   33.5092   45.3682 H   0  0  0  0  0  0  0  0  0  0  0  0
   60.7810   35.8034   47.2658 H   0  0  0  0  0  0  0  0  0  0  0  0
   62.4062   33.5455   49.8032 H   0  0  0  0  0  0  0  0  0  0  0  0
   63.6231   34.5218   48.9130 H   0  0  0  0  0  0  0  0  0  0  0  0
   61.8974   35.0204   48.9130 H   0  0  0  0  0  0  0  0  0  0  0  0
   64.3495   33.9041   47.0720 H   0  0  0  0  0  0  0  0  0  0  0  0
   63.5701   32.7388   45.9489 H   0  0  0  0  0  0  0  0  0  0  0  0
   63.0634   34.4621   45.9489 H   0  0  0  0  0  0  0  0  0  0  0  0
   62.4950   31.7326   49.1322 H   0  0  0  0  0  0  0  0  0  0  0  0
   61.6400   31.2520   47.6273 H   0  0  0  0  0  0  0  0  0  0  0  0
   63.4276   31.4285   47.6273 H   0  0  0  0  0  0  0  0  0  0  0  0
   60.8708   30.7177   46.7373 H   0  0  0  0  0  0  0  0  0  0  0  0
  1  2  1  0
  2  3  2  0
  3  4  1  0
  4  5  1  0
  5  6  2  0
  5  7  1  0
  7  8  1  0
  8  9  1  0
  9 10  2  0
 10 11  1  0
 11 12  2  0
 12 13  1  0
 13 14  2  0
 14 15  1  0
  3 16  1  0
 16 17  2  0
 16 18  1  0
 18 19  1  0
 19 20  2  0
 20 21  1  0
 21 22  1  0
 22 23  1  0
 23 24  2  0
 24 25  1  0
 25 26  1  0
 25 27  1  0
 25 28  1  0
 24 29  1  0
 29 30  1  0
 30 31  2  0
 31  2  1  0
 14  9  1  0
 31 19  1  0
 29 21  2  0
  1 32  1  0
  1 33  1  0
  1 34  1  0
  4 35  1  0
  4 36  1  0
  8 37  1  0
  8 38  1  0
 10 39  1  0
 11 40  1  0
 12 41  1  0
 13 42  1  0
 20 43  1  0
 23 44  1  0
 26 45  1  0
 26 46  1  0
 26 47  1  0
 27 48  1  0
 27 49  1  0
 27 50  1  0
 28 51  1  0
 28 52  1  0
 28 53  1  0
 30 54  1  0
M  CHG  1   7  -1
M  END
>  <UniqueID>  (74) 
64

>  <SMILES>  (74) 
Cc1c(CC(=O)[N-]Cc2ccccc2Cl)c(=O)oc2cc3occ(C(C)(C)C)c3cc12

>  <Energy>  (74) 
98.80882589594101

>  <Genealogy>  (74) 
Cc1c(CC(=O)[N-]Cc2ccccc2Cl)c(=O)oc2cc3occ(C(C)(C)C)c3cc12 (protonated)
Cc1c(CC(=O)[N-]Cc2ccccc2Cl)c(=O)oc2cc3occ(C(C)(C)C)c3cc12 (3D coordinates assigned)
Cc1c(CC(=O)[N-]Cc2ccccc2Cl)c(=O)oc2cc3occ(C(C)(C)C)c3cc12 (optimized conformer: 98.80882589594101 kcal/mol)

>  <smiles>  (74) 
Cc1c(CC(=O)NCc2ccccc2Cl)c(=O)oc2cc3occ(C(C)(C)C)c3cc12

>  <score_type>  (74) 
oracle

>  <origin>  (74) 
adg

>  <m_score__min__energy>  (74) 
-13.140000000000001

>  <m_primary>  (74) 
energy

$$$$
74:0
     RDKit          3D

 46 49  0  0  0  0  0  0  0  0999 V2000
   54.9030   29.3440   44.8230 O   0  0  0  0  0  0  0  0  0  0  0  0
   56.2430   29.0160   44.9890 C   0  0  0  0  0  0  0  0  0  0  0  0
   56.6960   27.8400   45.5730 C   0  0  0  0  0  0  0  0  0  0  0  0
   58.0710   27.9470   45.5450 C   0  0  0  0  0  0  0  0  0  0  0  0
   59.0510   27.0720   46.0080 C   0  0  0  0  0  0  0  0  0  0  0  0
   60.3970   27.4520   45.8590 C   0  0  0  0  0  0  0  0  0  0  0  0
   60.7290   28.6860   45.2580 C   0  0  0  0  0  0  0  0  0  0  0  0
   59.7190   29.5520   44.8010 C   0  0  0  0  0  0  0  0  0  0  0  0
   58.3900   29.1490   44.9590 C   0  0  0  0  0  0  0  0  0  0  0  0
   57.2690   29.8150   44.6110 N   0  0  0  0  0  0  0  0  0  0  0  0
   57.1680   31.1440   44.0030 C   0  0  0  0  0  0  0  0  0  0  0  0
   58.2810   32.0770   44.4970 C   0  0  0  0  0  0  0  0  0  0  0  0
   57.7460   33.0650   45.4650 N   0  0  0  0  0  0  0  0  0  0  0  0
   57.8010   32.5880   46.8740 C   0  0  0  0  0  0  0  0  0  0  0  0
   58.8490   33.2990   47.7540 C   0  0  0  0  0  0  0  0  0  0  0  0
   60.0230   33.6940   46.9660 N   0  0  0  0  0  0  0  0  0  0  0  0
   61.3420   33.6270   47.5420 C   0  0  0  0  0  0  0  0  0  0  0  0
   62.4540   33.3090   46.7420 C   0  0  0  0  0  0  0  0  0  0  0  0
   63.7330   33.2450   47.3020 C   0  0  0  0  0  0  0  0  0  0  0  0
   63.9160   33.4990   48.6620 C   0  0  0  0  0  0  0  0  0  0  0  0
   62.8200   33.8180   49.4690 C   0  0  0  0  0  0  0  0  0  0  0  0
   63.0520   34.1420   51.1770 Cl  0  0  0  0  0  0  0  0  0  0  0  0
   61.5370   33.8810   48.9130 C   0  0  0  0  0  0  0  0  0  0  0  0
   59.8280   34.3980   45.6930 C   0  0  0  0  0  0  0  0  0  0  0  0
   58.3480   34.4040   45.2900 C   0  0  0  0  0  0  0  0  0  0  0  0
   56.0933   27.0094   45.9691 H   0  0  0  0  0  0  0  0  0  0  0  0
   58.7806   26.1137   46.4756 H   0  0  0  0  0  0  0  0  0  0  0  0
   61.1960   26.7838   46.2128 H   0  0  0  0  0  0  0  0  0  0  0  0
   61.7852   28.9722   45.1464 H   0  0  0  0  0  0  0  0  0  0  0  0
   59.9674   30.5164   44.3338 H   0  0  0  0  0  0  0  0  0  0  0  0
   57.2452   31.0435   42.9103 H   0  0  0  0  0  0  0  0  0  0  0  0
   56.2001   31.5810   44.2899 H   0  0  0  0  0  0  0  0  0  0  0  0
   59.0629   31.4783   44.9871 H   0  0  0  0  0  0  0  0  0  0  0  0
   58.6982   32.6173   43.6344 H   0  0  0  0  0  0  0  0  0  0  0  0
   56.8108   32.7431   47.3273 H   0  0  0  0  0  0  0  0  0  0  0  0
   58.0966   31.5293   46.8325 H   0  0  0  0  0  0  0  0  0  0  0  0
   58.3953   34.1977   48.1972 H   0  0  0  0  0  0  0  0  0  0  0  0
   59.1751   32.6018   48.5398 H   0  0  0  0  0  0  0  0  0  0  0  0
   62.3164   33.1094   45.6690 H   0  0  0  0  0  0  0  0  0  0  0  0
   64.5972   32.9939   46.6694 H   0  0  0  0  0  0  0  0  0  0  0  0
   64.9240   33.4481   49.0995 H   0  0  0  0  0  0  0  0  0  0  0  0
   60.6762   34.1304   49.5508 H   0  0  0  0  0  0  0  0  0  0  0  0
   60.1763   35.4360   45.7988 H   0  0  0  0  0  0  0  0  0  0  0  0
   60.4019   33.8769   44.9125 H   0  0  0  0  0  0  0  0  0  0  0  0
   57.8069   35.1266   45.9185 H   0  0  0  0  0  0  0  0  0  0  0  0
   58.2747   34.6854   44.2291 H   0  0  0  0  0  0  0  0  0  0  0  0
  1  2  1  0
  2  3  2  0
  3  4  1  0
  4  5  2  0
  5  6  1  0
  6  7  2  0
  7  8  1  0
  8  9  2  0
  9 10  1  0
 10 11  1  0
 11 12  1  0
 12 13  1  0
 13 14  1  0
 14 15  1  0
 15 16  1  0
 16 17  1  0
 17 18  2  0
 18 19  1  0
 19 20  2  0
 20 21  1  0
 21 22  1  0
 21 23  2  0
 16 24  1  0
 24 25  1  0
 10  2  1  0
 25 13  1  0
  9  4  1  0
 23 17  1  0
  3 26  1  0
  5 27  1  0
  6 28  1  0
  7 29  1  0
  8 30  1  0
 11 31  1  0
 11 32  1  0
 12 33  1  0
 12 34  1  0
 14 35  1  0
 14 36  1  0
 15 37  1  0
 15 38  1  0
 18 39  1  0
 19 40  1  0
 20 41  1  0
 23 42  1  0
 24 43  1  0
 24 44  1  0
 25 45  1  0
 25 46  1  0
M  CHG  1   1  -1
M  END
>  <UniqueID>  (75) 
65

>  <SMILES>  (75) 
[O-]c1cc2ccccc2n1CCN1CCN(c2cccc(Cl)c2)CC1

>  <Energy>  (75) 
93.68352504666656

>  <Genealogy>  (75) 
[O-]c1cc2ccccc2n1CCN1CCN(c2cccc(Cl)c2)CC1 (protonated)
[O-]c1cc2ccccc2n1CCN1CCN(c2cccc(Cl)c2)CC1 (3D coordinates assigned)
[O-]c1cc2ccccc2n1CCN1CCN(c2cccc(Cl)c2)CC1 (nonaromatic ring conformer: 93.68352504666656 kcal/mol)

>  <smiles>  (75) 
Oc1cc2ccccc2n1CCN1CCN(c2cccc(Cl)c2)CC1

>  <score_type>  (75) 
oracle

>  <origin>  (75) 
adg

>  <m_score__min__energy>  (75) 
-12.279999999999999

>  <m_primary>  (75) 
energy

$$$$
75:0
     RDKit          3D

 77 81  0  0  0  0  0  0  0  0999 V2000
   56.0120   22.6790   42.6570 C   0  0  0  0  0  0  0  0  0  0  0  0
   56.6650   21.3420   43.0090 C   0  0  0  0  0  0  0  0  0  0  0  0
   58.1560   21.4630   43.3780 C   0  0  0  0  0  0  0  0  0  0  0  0
   58.4280   21.4840   44.8990 C   0  0  0  0  0  0  0  0  0  0  0  0
   57.1660   21.1700   45.7400 C   0  0  0  0  0  0  0  0  0  0  0  0
   56.6810   22.3170   46.6820 C   0  0  1  0  0  0  0  0  0  0  0  0
   56.9900   21.9400   48.0070 O   0  0  0  0  0  0  0  0  0  0  0  0
   57.3590   23.6670   46.4400 C   0  0  0  0  0  0  0  0  0  0  0  0
   57.9800   24.1860   47.4060 O   0  0  0  0  0  0  0  0  0  0  0  0
   57.3170   24.3610   45.1790 N   0  0  0  0  0  0  0  0  0  0  0  0
   57.6240   25.7620   45.0560 C   0  0  0  0  0  0  0  0  0  0  0  0
   57.9760   26.3210   43.8190 C   0  0  0  0  0  0  0  0  0  0  0  0
   58.1310   27.7010   43.6910 C   0  0  0  0  0  0  0  0  0  0  0  0
   57.9830   28.5440   44.8020 C   0  0  0  0  0  0  0  0  0  0  0  0
   57.9960   30.0050   44.6180 C   0  0  0  0  0  0  0  0  0  0  0  0
   57.5700   30.7160   43.5000 C   0  0  0  0  0  0  0  0  0  0  0  0
   57.7680   32.1010   43.6160 C   0  0  0  0  0  0  0  0  0  0  0  0
   58.3860   32.4740   44.8050 C   0  0  0  0  0  0  0  0  0  0  0  0
   58.7750   33.8350   45.2080 C   0  0  0  0  0  0  0  0  0  0  0  0
   58.3930   34.8290   44.5290 O   0  0  0  0  0  0  0  0  0  0  0  0
   59.5870   34.0420   46.4220 C   0  0  0  0  0  0  0  0  0  0  0  0
   60.9540   33.7300   46.4130 C   0  0  0  0  0  0  0  0  0  0  0  0
   61.7110   33.8410   47.5820 C   0  0  0  0  0  0  0  0  0  0  0  0
   61.1200   34.2610   48.7810 C   0  0  0  0  0  0  0  0  0  0  0  0
   61.9340   34.2670   49.9650 N   0  0  0  0  0  0  0  0  0  0  0  0
   61.6450   33.7090   51.2590 C   0  0  0  0  0  0  0  0  0  0  0  0
   62.5180   33.7180   52.1700 O   0  0  0  0  0  0  0  0  0  0  0  0
   60.3280   33.0740   51.5170 C   0  0  0  0  0  0  0  0  0  0  0  0
   59.3680   33.7260   52.3150 C   0  0  0  0  0  0  0  0  0  0  0  0
   58.1360   33.1180   52.5840 C   0  0  0  0  0  0  0  0  0  0  0  0
   57.8420   31.8580   52.0530 C   0  0  0  0  0  0  0  0  0  0  0  0
   56.2970   31.1010   52.3940 Cl  0  0  0  0  0  0  0  0  0  0  0  0
   58.7800   31.2040   51.2460 C   0  0  0  0  0  0  0  0  0  0  0  0
   60.0150   31.8080   50.9780 C   0  0  0  0  0  0  0  0  0  0  0  0
   59.7480   34.5840   48.7890 C   0  0  0  0  0  0  0  0  0  0  0  0
   58.9940   34.4910   47.6140 C   0  0  0  0  0  0  0  0  0  0  0  0
   58.6430   31.0910   45.7250 S   0  0  0  0  0  0  0  0  0  0  0  0
   57.7360   27.9770   46.0610 C   0  0  0  0  0  0  0  0  0  0  0  0
   57.5510   26.5960   46.1840 C   0  0  0  0  0  0  0  0  0  0  0  0
   55.1580   22.4790   46.5740 C   0  0  0  0  0  0  0  0  0  0  0  0
   54.2750   21.7550   47.4130 C   0  0  0  0  0  0  0  0  0  0  0  0
   52.8890   21.9290   47.3140 C   0  0  0  0  0  0  0  0  0  0  0  0
   52.3620   22.8320   46.3910 C   0  0  0  0  0  0  0  0  0  0  0  0
   53.2200   23.5700   45.5700 C   0  0  0  0  0  0  0  0  0  0  0  0
   54.6040   23.4090   45.6680 C   0  0  0  0  0  0  0  0  0  0  0  0
   55.7506   23.2141   43.5818 H   0  0  0  0  0  0  0  0  0  0  0  0
   56.7148   23.2865   42.0680 H   0  0  0  0  0  0  0  0  0  0  0  0
   55.1008   22.4982   42.0680 H   0  0  0  0  0  0  0  0  0  0  0  0
   56.1287   20.9077   43.8656 H   0  0  0  0  0  0  0  0  0  0  0  0
   56.6046   20.7072   42.1127 H   0  0  0  0  0  0  0  0  0  0  0  0
   58.6906   20.6057   42.9429 H   0  0  0  0  0  0  0  0  0  0  0  0
   58.5050   22.4269   42.9792 H   0  0  0  0  0  0  0  0  0  0  0  0
   59.1986   20.7333   45.1284 H   0  0  0  0  0  0  0  0  0  0  0  0
   58.7563   22.5003   45.1622 H   0  0  0  0  0  0  0  0  0  0  0  0
   56.3466   20.9332   45.0454 H   0  0  0  0  0  0  0  0  0  0  0  0
   57.4442   20.3354   46.4003 H   0  0  0  0  0  0  0  0  0  0  0  0
   57.7510   22.4970   48.3210 H   0  0  0  0  0  0  0  0  0  0  0  0
   57.1660   23.8250   44.2960 H   0  0  0  0  0  0  0  0  0  0  0  0
   58.1304   25.6688   42.9468 H   0  0  0  0  0  0  0  0  0  0  0  0
   58.3719   28.1328   42.7084 H   0  0  0  0  0  0  0  0  0  0  0  0
   57.1231   30.2405   42.6145 H   0  0  0  0  0  0  0  0  0  0  0  0
   57.4640   32.8211   42.8420 H   0  0  0  0  0  0  0  0  0  0  0  0
   61.4329   33.3961   45.4807 H   0  0  0  0  0  0  0  0  0  0  0  0
   62.7831   33.5959   47.5609 H   0  0  0  0  0  0  0  0  0  0  0  0
   59.5879   34.7206   52.7301 H   0  0  0  0  0  0  0  0  0  0  0  0
   57.3967   33.6330   53.2151 H   0  0  0  0  0  0  0  0  0  0  0  0
   58.5474   30.2159   50.8223 H   0  0  0  0  0  0  0  0  0  0  0  0
   60.7478   31.2906   50.3414 H   0  0  0  0  0  0  0  0  0  0  0  0
   59.2679   34.9107   49.7232 H   0  0  0  0  0  0  0  0  0  0  0  0
   57.9303   34.7712   47.6235 H   0  0  0  0  0  0  0  0  0  0  0  0
   57.6877   28.6192   46.9527 H   0  0  0  0  0  0  0  0  0  0  0  0
   57.3466   26.1592   47.1727 H   0  0  0  0  0  0  0  0  0  0  0  0
   54.6829   21.0482   48.1506 H   0  0  0  0  0  0  0  0  0  0  0  0
   52.2151   21.3528   47.9650 H   0  0  0  0  0  0  0  0  0  0  0  0
   51.2730   22.9634   46.3090 H   0  0  0  0  0  0  0  0  0  0  0  0
   52.8026   24.2817   44.8425 H   0  0  0  0  0  0  0  0  0  0  0  0
   55.2688   24.0129   45.0329 H   0  0  0  0  0  0  0  0  0  0  0  0
  1  2  1  0
  2  3  1  0
  3  4  1  0
  4  5  1  0
  5  6  1  0
  6  7  1  1
  6  8  1  0
  8  9  2  0
  8 10  1  0
 10 11  1  0
 11 12  2  0
 12 13  1  0
 13 14  2  0
 14 15  1  0
 15 16  2  0
 16 17  1  0
 17 18  2  0
 18 19  1  0
 19 20  2  0
 19 21  1  0
 21 22  2  0
 22 23  1  0
 23 24  2  0
 24 25  1  0
 25 26  1  0
 26 27  2  0
 26 28  1  0
 28 29  2  0
 29 30  1  0
 30 31  2  0
 31 32  1  0
 31 33  1  0
 33 34  2  0
 24 35  1  0
 35 36  2  0
 18 37  1  0
 14 38  1  0
 38 39  2  0
  6 40  1  0
 40 41  2  0
 41 42  1  0
 42 43  2  0
 43 44  1  0
 44 45  2  0
 39 11  1  0
 45 40  1  0
 37 15  1  0
 36 21  1  0
 34 28  1  0
  1 46  1  0
  1 47  1  0
  1 48  1  0
  2 49  1  0
  2 50  1  0
  3 51  1  0
  3 52  1  0
  4 53  1  0
  4 54  1  0
  5 55  1  0
  5 56  1  0
  7 57  1  0
 10 58  1  0
 12 59  1  0
 13 60  1  0
 16 61  1  0
 17 62  1  0
 22 63  1  0
 23 64  1  0
 29 65  1  0
 30 66  1  0
 33 67  1  0
 34 68  1  0
 35 69  1  0
 36 70  1  0
 38 71  1  0
 39 72  1  0
 41 73  1  0
 42 74  1  0
 43 75  1  0
 44 76  1  0
 45 77  1  0
M  CHG  1  25  -1
M  END
>  <UniqueID>  (76) 
66

>  <SMILES>  (76) 
CCCCC[C@@](O)(C(=O)Nc1ccc(-c2ccc(C(=O)c3ccc([N-]C(=O)c4ccc(Cl)cc4)cc3)s2)cc1)c1ccccc1

>  <Energy>  (76) 
132.28351595930087

>  <Genealogy>  (76) 
CCCCCC(O)(C(=O)Nc1ccc(-c2ccc(C(=O)c3ccc([N-]C(=O)c4ccc(Cl)cc4)cc3)s2)cc1)c1ccccc1 (protonated)
CCCCC[C@@](O)(C(=O)Nc1ccc(-c2ccc(C(=O)c3ccc([N-]C(=O)c4ccc(Cl)cc4)cc3)s2)cc1)c1ccccc1 (chirality)
CCCCC[C@@](O)(C(=O)Nc1ccc(-c2ccc(C(=O)c3ccc([N-]C(=O)c4ccc(Cl)cc4)cc3)s2)cc1)c1ccccc1 (3D coordinates assigned)
CCCCC[C@@](O)(C(=O)Nc1ccc(-c2ccc(C(=O)c3ccc([N-]C(=O)c4ccc(Cl)cc4)cc3)s2)cc1)c1ccccc1 (optimized conformer: 132.28351595930087 kcal/mol)

>  <smiles>  (76) 
CCCCCC(O)(C(=O)Nc1ccc(-c2ccc(C(=O)c3ccc(NC(=O)c4ccc(Cl)cc4)cc3)s2)cc1)c1ccccc1

>  <score_type>  (76) 
oracle

>  <origin>  (76) 
adg

>  <m_score__min__energy>  (76) 
-11.029999999999999

>  <m_primary>  (76) 
energy

$$$$
76:0
     RDKit          3D

 39 41  0  0  0  0  0  0  0  0999 V2000
   57.3400   28.6830   46.2010 O   0  0  0  0  0  0  0  0  0  0  0  0
   57.8130   27.7570   46.9110 C   0  0  0  0  0  0  0  0  0  0  0  0
   57.0110   26.5980   47.1590 N   0  0  0  0  0  0  0  0  0  0  0  0
   56.7000   25.5800   46.1960 C   0  0  0  0  0  0  0  0  0  0  0  0
   57.7270   24.7330   45.7590 C   0  0  0  0  0  0  0  0  0  0  0  0
   57.4670   23.7330   44.8180 C   0  0  0  0  0  0  0  0  0  0  0  0
   56.1820   23.5850   44.2920 C   0  0  0  0  0  0  0  0  0  0  0  0
   55.1580   24.4460   44.6960 C   0  0  0  0  0  0  0  0  0  0  0  0
   55.4130   25.4530   45.6330 C   0  0  0  0  0  0  0  0  0  0  0  0
   54.3930   26.3350   45.9730 O   0  0  0  0  0  0  0  0  0  0  0  0
   59.1700   27.8230   47.3790 N   0  0  0  0  0  0  0  0  0  0  0  0
   59.9350   29.0380   47.4600 C   0  0  0  0  0  0  0  0  0  0  0  0
   60.6070   29.3500   48.6510 C   0  0  0  0  0  0  0  0  0  0  0  0
   61.3380   30.5360   48.7630 C   0  0  0  0  0  0  0  0  0  0  0  0
   61.3970   31.4330   47.6880 C   0  0  0  0  0  0  0  0  0  0  0  0
   62.3000   32.9360   47.8360 S   0  0  0  0  0  0  0  0  0  0  0  0
   63.3130   33.0240   46.7300 O   0  0  0  0  0  0  0  0  0  0  0  0
   63.0110   32.9650   49.1610 O   0  0  0  0  0  0  0  0  0  0  0  0
   61.1940   34.2680   47.7310 N   0  0  0  0  0  0  0  0  0  0  0  0
   60.0850   34.2330   47.0580 C   0  0  0  0  0  0  0  0  0  0  0  0
   58.9320   33.7810   47.6260 N   0  0  0  0  0  0  0  0  0  0  0  0
   57.7720   33.7430   46.9220 C   0  0  0  0  0  0  0  0  0  0  0  0
   57.7490   34.1730   45.5970 C   0  0  0  0  0  0  0  0  0  0  0  0
   58.9360   34.6330   45.0280 C   0  0  0  0  0  0  0  0  0  0  0  0
   60.0760   34.6540   45.7650 N   0  0  0  0  0  0  0  0  0  0  0  0
   60.7020   31.1410   46.5070 C   0  0  0  0  0  0  0  0  0  0  0  0
   59.9720   29.9540   46.3930 C   0  0  0  0  0  0  0  0  0  0  0  0
   58.7443   24.8559   46.1591 H   0  0  0  0  0  0  0  0  0  0  0  0
   58.2752   23.0620   44.4915 H   0  0  0  0  0  0  0  0  0  0  0  0
   55.9757   22.7906   43.5596 H   0  0  0  0  0  0  0  0  0  0  0  0
   54.1479   24.3315   44.2757 H   0  0  0  0  0  0  0  0  0  0  0  0
   59.6530   26.9220   47.5980 H   0  0  0  0  0  0  0  0  0  0  0  0
   60.5583   28.6561   49.5032 H   0  0  0  0  0  0  0  0  0  0  0  0
   61.8690   30.7661   49.6985 H   0  0  0  0  0  0  0  0  0  0  0  0
   56.8514   33.3732   47.3970 H   0  0  0  0  0  0  0  0  0  0  0  0
   56.8167   34.1502   45.0137 H   0  0  0  0  0  0  0  0  0  0  0  0
   58.9487   34.9783   43.9837 H   0  0  0  0  0  0  0  0  0  0  0  0
   60.7308   31.8489   45.6656 H   0  0  0  0  0  0  0  0  0  0  0  0
   59.4240   29.7354   45.4646 H   0  0  0  0  0  0  0  0  0  0  0  0
  1  2  2  0
  2  3  1  0
  3  4  1  0
  4  5  2  0
  5  6  1  0
  6  7  2  0
  7  8  1  0
  8  9  2  0
  9 10  1  0
  2 11  1  0
 11 12  1  0
 12 13  2  0
 13 14  1  0
 14 15  2  0
 15 16  1  0
 16 17  2  0
 16 18  2  0
 16 19  1  0
 19 20  2  3
 20 21  1  0
 21 22  2  0
 22 23  1  0
 23 24  2  0
 24 25  1  0
 15 26  1  0
 26 27  2  0
  9  4  1  0
 27 12  1  0
 25 20  1  0
  5 28  1  0
  6 29  1  0
  7 30  1  0
  8 31  1  0
 11 32  1  0
 13 33  1  0
 14 34  1  0
 22 35  1  0
 23 36  1  0
 24 37  1  0
 26 38  1  0
 27 39  1  0
M  CHG  3   3  -1  10  -1  25  -1
M  END
>  <UniqueID>  (77) 
67

>  <SMILES>  (77) 
O=C([N-]c1ccccc1[O-])Nc1ccc(S(=O)(=O)N=c2nccc[n-]2)cc1

>  <Energy>  (77) 
55.50877437480593

>  <Genealogy>  (77) 
O=C([N-]c1ccccc1[O-])Nc1ccc(S(=O)(=O)N=c2nccc[n-]2)cc1 (protonated)
O=C([N-]c1ccccc1[O-])Nc1ccc(S(=O)(=O)N=c2nccc[n-]2)cc1 (3D coordinates assigned)
O=C([N-]c1ccccc1[O-])Nc1ccc(S(=O)(=O)N=c2nccc[n-]2)cc1 (optimized conformer: 55.50877437480593 kcal/mol)

>  <smiles>  (77) 
O=C(Nc1ccc(S(=O)(=O)N=c2nccc[nH]2)cc1)Nc1ccccc1O

>  <score_type>  (77) 
oracle

>  <origin>  (77) 
adg

>  <m_score__min__energy>  (77) 
-14.77

>  <m_primary>  (77) 
energy

$$$$
77:0
     RDKit          3D

 73 78  0  0  0  0  0  0  0  0999 V2000
   53.4190   23.0150   44.3190 H   0  0  0  0  0  0  0  0  0  0  0  0
   54.2500   22.9680   44.9520 N   0  0  0  0  0  0  0  0  0  0  0  0
   55.6330   22.7070   43.9500 S   0  0  0  0  0  0  0  0  0  0  0  0
   55.3520   23.2100   42.5610 O   0  0  0  0  0  0  0  0  0  0  0  0
   55.9250   21.2350   43.8810 O   0  0  0  0  0  0  0  0  0  0  0  0
   57.0150   23.5670   44.6210 C   0  0  0  0  0  0  0  0  0  0  0  0
   58.1330   22.8630   45.0860 C   0  0  0  0  0  0  0  0  0  0  0  0
   58.1533   21.7648   45.0273 H   0  0  0  0  0  0  0  0  0  0  0  0
   59.2220   23.5520   45.6240 C   0  0  0  0  0  0  0  0  0  0  0  0
   60.0983   22.9948   45.9868 H   0  0  0  0  0  0  0  0  0  0  0  0
   59.2020   24.9470   45.7030 C   0  0  0  0  0  0  0  0  0  0  0  0
   60.0658   25.4836   46.1224 H   0  0  0  0  0  0  0  0  0  0  0  0
   58.0830   25.6690   45.2490 C   0  0  0  0  0  0  0  0  0  0  0  0
   58.0530   27.1510   45.3440 C   0  0  0  0  0  0  0  0  0  0  0  0
   56.8370   27.8380   45.4920 C   0  0  0  0  0  0  0  0  0  0  0  0
   55.8927   27.2759   45.5393 H   0  0  0  0  0  0  0  0  0  0  0  0
   56.8220   29.1940   45.5770 N   0  0  0  0  0  0  0  0  0  0  0  0
   57.9610   29.9380   45.5170 C   0  0  0  0  0  0  0  0  0  0  0  0
   57.9070   31.4130   45.6070 C   0  0  0  0  0  0  0  0  0  0  0  0
   56.9568   31.9233   45.3908 H   0  0  0  0  0  0  0  0  0  0  0  0
   58.9760   32.1510   45.9430 C   0  0  0  0  0  0  0  0  0  0  0  0
   59.8336   32.1438   45.2542 H   0  0  0  0  0  0  0  0  0  0  0  0
   59.0950   32.9970   47.2020 C   0  0  2  0  0  0  0  0  0  0  0  0
   58.3237   33.7741   47.0964 H   0  0  0  0  0  0  0  0  0  0  0  0
   60.3880   33.8620   47.3090 C   0  0  2  0  0  0  0  0  0  0  0  0
   60.2283   34.4066   46.3667 H   0  0  0  0  0  0  0  0  0  0  0  0
   61.6650   33.1200   47.5580 C   0  0  0  0  0  0  0  0  0  0  0  0
   62.5370   32.1430   47.1180 C   0  0  0  0  0  0  0  0  0  0  0  0
   62.3316   31.5315   46.2270 H   0  0  0  0  0  0  0  0  0  0  0  0
   63.7140   31.9810   47.8910 C   0  0  0  0  0  0  0  0  0  0  0  0
   64.4472   31.2157   47.5966 H   0  0  0  0  0  0  0  0  0  0  0  0
   63.9730   32.7870   49.0440 C   0  0  0  0  0  0  0  0  0  0  0  0
   64.9026   32.6303   49.6109 H   0  0  0  0  0  0  0  0  0  0  0  0
   63.0610   33.7820   49.4730 C   0  0  0  0  0  0  0  0  0  0  0  0
   63.2740   34.5280   50.5830 F   0  0  0  0  0  0  0  0  0  0  0  0
   61.9210   33.9180   48.7080 C   0  0  0  0  0  0  0  0  0  0  0  0
   60.5910   34.5960   48.5660 C   0  0  2  0  0  0  0  0  0  0  0  0
   60.4747   35.6898   48.5786 H   0  0  0  0  0  0  0  0  0  0  0  0
   59.6270   34.2360   49.7220 C   0  0  0  0  0  0  0  0  0  0  0  0
   60.0645   34.5711   50.6740 H   0  0  0  0  0  0  0  0  0  0  0  0
   58.6634   34.7364   49.5461 H   0  0  0  0  0  0  0  0  0  0  0  0
   59.3900   32.7190   49.7830 C   0  0  1  0  0  0  0  0  0  0  0  0
   60.3834   32.2527   49.8588 H   0  0  0  0  0  0  0  0  0  0  0  0
   58.6230   32.3140   50.9760 N   0  0  0  0  0  0  0  0  0  0  0  0
   57.8090   32.9620   51.1010 H   0  0  0  0  0  0  0  0  0  0  0  0
   58.1020   30.9220   50.9010 C   0  0  2  0  0  0  0  0  0  0  0  0
   57.0582   30.9791   50.5588 H   0  0  0  0  0  0  0  0  0  0  0  0
   58.1850   30.3100   52.2290 N   0  0  0  0  0  0  0  0  0  0  0  0
   59.0440   30.4600   52.8060 H   0  0  0  0  0  0  0  0  0  0  0  0
   57.1180   29.5450   52.7990 C   0  0  0  0  0  0  0  0  0  0  0  0
   56.0320   29.3990   52.1720 O   0  0  0  0  0  0  0  0  0  0  0  0
   57.2880   28.9740   54.0650 O   0  0  0  0  0  0  0  0  0  0  0  0
   57.8700   27.6890   54.2750 C   0  0  0  0  0  0  0  0  0  0  0  0
   57.1946   26.9174   53.8769 H   0  0  0  0  0  0  0  0  0  0  0  0
   58.0231   27.5424   55.3544 H   0  0  0  0  0  0  0  0  0  0  0  0
   59.2170   27.5860   53.5710 C   0  0  0  0  0  0  0  0  0  0  0  0
   60.0191   27.5247   54.3213 H   0  0  0  0  0  0  0  0  0  0  0  0
   59.2338   26.6839   52.9417 H   0  0  0  0  0  0  0  0  0  0  0  0
   59.3708   28.4750   52.9417 H   0  0  0  0  0  0  0  0  0  0  0  0
   58.8620   30.0410   49.8690 C   0  0  0  0  0  0  0  0  0  0  0  0
   59.8979   29.9076   50.2141 H   0  0  0  0  0  0  0  0  0  0  0  0
   58.3328   29.0794   49.7966 H   0  0  0  0  0  0  0  0  0  0  0  0
   58.8870   30.6720   48.4550 C   0  0  0  0  0  0  0  0  0  0  0  0
   59.8541   30.4456   47.9823 H   0  0  0  0  0  0  0  0  0  0  0  0
   58.0524   30.2462   47.8786 H   0  0  0  0  0  0  0  0  0  0  0  0
   58.7010   32.2080   48.5010 C   0  0  2  0  0  0  0  0  0  0  0  0
   57.6216   32.4172   48.5353 H   0  0  0  0  0  0  0  0  0  0  0  0
   59.1950   29.2920   45.3700 C   0  0  0  0  0  0  0  0  0  0  0  0
   60.1241   29.8788   45.3203 H   0  0  0  0  0  0  0  0  0  0  0  0
   59.2390   27.9000   45.2870 C   0  0  0  0  0  0  0  0  0  0  0  0
   60.2061   27.3877   45.1765 H   0  0  0  0  0  0  0  0  0  0  0  0
   56.9900   24.9660   44.7090 C   0  0  0  0  0  0  0  0  0  0  0  0
   56.1083   25.5190   44.3528 H   0  0  0  0  0  0  0  0  0  0  0  0
  1  2  1  0
  2  3  1  0
  3  4  2  0
  3  5  2  0
  3  6  1  0
  6  7  2  0
  7  8  1  0
  7  9  1  0
  9 10  1  0
  9 11  2  0
 11 12  1  0
 11 13  1  0
 13 14  1  0
 14 15  2  0
 15 16  1  0
 15 17  1  0
 17 18  2  0
 18 19  1  0
 19 20  1  0
 19 21  2  0
 21 22  1  0
 21 23  1  0
 23 24  1  6
 23 25  1  0
 25 26  1  6
 25 27  1  0
 27 28  2  0
 28 29  1  0
 28 30  1  0
 30 31  1  0
 30 32  2  0
 32 33  1  0
 32 34  1  0
 34 35  1  0
 34 36  2  0
 36 37  1  0
 37 38  1  6
 37 39  1  0
 39 40  1  0
 39 41  1  0
 39 42  1  0
 42 43  1  1
 42 44  1  0
 44 45  1  0
 44 46  1  0
 46 47  1  6
 46 48  1  0
 48 49  1  0
 48 50  1  0
 50 51  2  0
 50 52  1  0
 52 53  1  0
 53 54  1  0
 53 55  1  0
 53 56  1  0
 56 57  1  0
 56 58  1  0
 56 59  1  0
 46 60  1  0
 60 61  1  0
 60 62  1  0
 60 63  1  0
 63 64  1  0
 63 65  1  0
 63 66  1  0
 66 67  1  1
 18 68  1  0
 68 69  1  0
 68 70  2  0
 70 71  1  0
 13 72  2  0
 72 73  1  0
 72  6  1  0
 70 14  1  0
 66 23  1  0
 37 25  1  0
 66 42  1  0
 36 27  1  0
M  CHG  1   2  -1
M  END
>  <UniqueID>  (78) 
68

>  <SMILES>  (78) 
CCOC(=O)N[C@@H]1CC[C@H]2C(CC3c4c(F)cccc4C3C2/C=C/c2ccc(-c3cccc(S([NH-])(=O)=O)c3)cn2)N1

>  <Energy>  (78) 
152.10288077257593

>  <Genealogy>  (78) 
CCOC(=O)NC1CCC2C(CC3c4c(F)cccc4C3C2C=Cc2ccc(-c3cccc(S([NH-])(=O)=O)c3)cn2)N1 (protonated)
CCOC(=O)N[C@@H]1CC[C@H]2C(CC3c4c(F)cccc4C3C2C=Cc2ccc(-c3cccc(S([NH-])(=O)=O)c3)cn2)N1 (chirality)
CCOC(=O)N[C@@H]1CC[C@H]2C(CC3c4c(F)cccc4C3C2/C=C/c2ccc(-c3cccc(S([NH-])(=O)=O)c3)cn2)N1 (cis-trans isomerization)
CCOC(=O)N[C@@H]1CC[C@H]2C(CC3c4c(F)cccc4C3C2/C=C/c2ccc(-c3cccc(S([NH-])(=O)=O)c3)cn2)N1 (3D coordinates assigned)
CCOC(=O)N[C@@H]1CC[C@H]2C(CC3c4c(F)cccc4C3C2/C=C/c2ccc(-c3cccc(S([NH-])(=O)=O)c3)cn2)N1 (nonaromatic ring conformer: 152.10288077257593 kcal/mol)

>  <smiles>  (78) 
CCOC(=O)NC1CCC2C(CC3c4c(F)cccc4C3C2C=Cc2ccc(-c3cccc(S(N)(=O)=O)c3)cn2)N1

>  <score_type>  (78) 
oracle

>  <origin>  (78) 
adg

>  <m_score__min__energy>  (78) 
-13

>  <m_primary>  (78) 
energy

$$$$
78:0
     RDKit          3D

 65 67  0  0  0  0  0  0  0  0999 V2000
   57.3110   24.7440   44.2630 C   0  0  0  0  0  0  0  0  0  0  0  0
   58.1680   24.8960   45.5150 C   0  0  0  0  0  0  0  0  0  0  0  0
   58.1850   26.3280   45.9820 C   0  0  0  0  0  0  0  0  0  0  0  0
   58.9570   26.7030   47.0920 C   0  0  0  0  0  0  0  0  0  0  0  0
   58.9580   28.0340   47.5410 C   0  0  0  0  0  0  0  0  0  0  0  0
   59.7270   28.4280   48.6910 N   0  0  0  0  0  0  0  0  0  0  0  0
   60.8000   29.3860   48.6610 C   0  0  0  0  0  0  0  0  0  0  0  0
   61.4340   29.7440   49.8590 C   0  0  0  0  0  0  0  0  0  0  0  0
   62.4380   30.7140   49.8660 C   0  0  0  0  0  0  0  0  0  0  0  0
   62.8110   31.3630   48.6830 C   0  0  0  0  0  0  0  0  0  0  0  0
   63.8100   32.3410   48.7540 O   0  0  0  0  0  0  0  0  0  0  0  0
   64.0760   33.3060   47.7370 C   0  0  0  0  0  0  0  0  0  0  0  0
   62.7550   33.8270   47.1820 C   0  0  0  0  0  0  0  0  0  0  0  0
   61.8600   34.2120   48.2790 N   0  0  0  0  0  0  0  0  0  0  0  0
   62.4130   34.8140   49.4920 C   0  0  0  0  0  0  0  0  0  0  0  0
   60.5230   33.6910   48.3160 C   0  0  0  0  0  0  0  0  0  0  0  0
   59.7780   33.6570   47.1300 C   0  0  0  0  0  0  0  0  0  0  0  0
   58.4870   33.1370   47.1200 C   0  0  0  0  0  0  0  0  0  0  0  0
   57.9140   32.6640   48.3000 C   0  0  0  0  0  0  0  0  0  0  0  0
   58.6310   32.7050   49.5110 C   0  0  0  0  0  0  0  0  0  0  0  0
   58.0420   32.2550   50.7430 N   0  0  0  0  0  0  0  0  0  0  0  0
   57.8570   30.6070   51.2480 S   0  0  0  0  0  0  0  0  0  0  0  0
   59.0090   30.2270   52.5520 C   0  0  0  0  0  0  0  0  0  0  0  0
   56.4460   30.3680   51.7080 O   0  0  0  0  0  0  0  0  0  0  0  0
   58.1450   29.7050   50.0800 O   0  0  0  0  0  0  0  0  0  0  0  0
   59.9590   33.1930   49.5160 C   0  0  0  0  0  0  0  0  0  0  0  0
   60.7320   33.2310   50.8140 C   0  0  0  0  0  0  0  0  0  0  0  0
   62.1700   31.0150   47.4770 C   0  0  0  0  0  0  0  0  0  0  0  0
   61.1710   30.0370   47.4690 C   0  0  0  0  0  0  0  0  0  0  0  0
   58.1440   28.9770   46.9020 C   0  0  0  0  0  0  0  0  0  0  0  0
   57.3540   28.6180   45.7960 C   0  0  0  0  0  0  0  0  0  0  0  0
   56.5060   29.6300   45.1200 C   0  0  0  0  0  0  0  0  0  0  0  0
   55.1510   29.3350   44.7880 N   0  0  0  0  0  0  0  0  0  0  0  0
   56.9770   30.7640   44.8280 O   0  0  0  0  0  0  0  0  0  0  0  0
   57.3830   27.2870   45.3420 C   0  0  0  0  0  0  0  0  0  0  0  0
   56.2665   24.5587   44.5539 H   0  0  0  0  0  0  0  0  0  0  0  0
   57.3673   25.6661   43.6659 H   0  0  0  0  0  0  0  0  0  0  0  0
   57.6810   23.8975   43.6659 H   0  0  0  0  0  0  0  0  0  0  0  0
   57.7557   24.2614   46.3133 H   0  0  0  0  0  0  0  0  0  0  0  0
   59.1976   24.5912   45.2762 H   0  0  0  0  0  0  0  0  0  0  0  0
   59.5654   25.9498   47.6140 H   0  0  0  0  0  0  0  0  0  0  0  0
   59.4620   28.0210   49.6180 H   0  0  0  0  0  0  0  0  0  0  0  0
   61.1383   29.2572   50.8001 H   0  0  0  0  0  0  0  0  0  0  0  0
   62.9408   30.9708   50.8101 H   0  0  0  0  0  0  0  0  0  0  0  0
   64.6507   34.1412   48.1637 H   0  0  0  0  0  0  0  0  0  0  0  0
   64.6582   32.8397   46.9285 H   0  0  0  0  0  0  0  0  0  0  0  0
   62.9486   34.7038   46.5466 H   0  0  0  0  0  0  0  0  0  0  0  0
   62.2763   33.0324   46.5908 H   0  0  0  0  0  0  0  0  0  0  0  0
   61.9698   34.3315   50.3756 H   0  0  0  0  0  0  0  0  0  0  0  0
   63.5040   34.6740   49.5063 H   0  0  0  0  0  0  0  0  0  0  0  0
   62.1811   35.8892   49.5063 H   0  0  0  0  0  0  0  0  0  0  0  0
   60.2171   34.0445   46.1989 H   0  0  0  0  0  0  0  0  0  0  0  0
   57.9177   33.0991   46.1796 H   0  0  0  0  0  0  0  0  0  0  0  0
   56.8929   32.2553   48.2846 H   0  0  0  0  0  0  0  0  0  0  0  0
   58.5251   30.3866   53.5268 H   0  0  0  0  0  0  0  0  0  0  0  0
   59.3254   29.1769   52.4673 H   0  0  0  0  0  0  0  0  0  0  0  0
   59.8881   30.8828   52.4673 H   0  0  0  0  0  0  0  0  0  0  0  0
   60.0299   33.1965   51.6601 H   0  0  0  0  0  0  0  0  0  0  0  0
   61.4085   32.3650   50.8634 H   0  0  0  0  0  0  0  0  0  0  0  0
   61.3203   34.1591   50.8634 H   0  0  0  0  0  0  0  0  0  0  0  0
   62.4565   31.5142   46.5396 H   0  0  0  0  0  0  0  0  0  0  0  0
   60.6714   29.7743   46.5249 H   0  0  0  0  0  0  0  0  0  0  0  0
   58.1223   30.0132   47.2705 H   0  0  0  0  0  0  0  0  0  0  0  0
   54.3960   29.3950   45.5070 H   0  0  0  0  0  0  0  0  0  0  0  0
   56.7709   26.9940   44.4763 H   0  0  0  0  0  0  0  0  0  0  0  0
  1  2  1  0
  2  3  1  0
  3  4  2  0
  4  5  1  0
  5  6  1  0
  6  7  1  0
  7  8  2  0
  8  9  1  0
  9 10  2  0
 10 11  1  0
 11 12  1  0
 12 13  1  0
 13 14  1  0
 14 15  1  0
 14 16  1  0
 16 17  2  0
 17 18  1  0
 18 19  2  0
 19 20  1  0
 20 21  1  0
 21 22  1  0
 22 23  1  0
 22 24  2  0
 22 25  2  0
 20 26  2  0
 26 27  1  0
 10 28  1  0
 28 29  2  0
  5 30  2  0
 30 31  1  0
 31 32  1  0
 32 33  1  0
 32 34  2  0
 31 35  2  0
 35  3  1  0
 29  7  1  0
 26 16  1  0
  1 36  1  0
  1 37  1  0
  1 38  1  0
  2 39  1  0
  2 40  1  0
  4 41  1  0
  6 42  1  0
  8 43  1  0
  9 44  1  0
 12 45  1  0
 12 46  1  0
 13 47  1  0
 13 48  1  0
 15 49  1  0
 15 50  1  0
 15 51  1  0
 17 52  1  0
 18 53  1  0
 19 54  1  0
 23 55  1  0
 23 56  1  0
 23 57  1  0
 27 58  1  0
 27 59  1  0
 27 60  1  0
 28 61  1  0
 29 62  1  0
 30 63  1  0
 33 64  1  0
 35 65  1  0
M  CHG  2  21  -1  33  -1
M  END
>  <UniqueID>  (79) 
69

>  <SMILES>  (79) 
CCc1cc(Nc2ccc(OCCN(C)c3cccc([N-]S(C)(=O)=O)c3C)cc2)cc(C([NH-])=O)c1

>  <Energy>  (79) 
69.70102004321596

>  <Genealogy>  (79) 
CCc1cc(Nc2ccc(OCCN(C)c3cccc([N-]S(C)(=O)=O)c3C)cc2)cc(C([NH-])=O)c1 (protonated)
CCc1cc(Nc2ccc(OCCN(C)c3cccc([N-]S(C)(=O)=O)c3C)cc2)cc(C([NH-])=O)c1 (3D coordinates assigned)
CCc1cc(Nc2ccc(OCCN(C)c3cccc([N-]S(C)(=O)=O)c3C)cc2)cc(C([NH-])=O)c1 (optimized conformer: 69.70102004321596 kcal/mol)

>  <smiles>  (79) 
CCc1cc(Nc2ccc(OCCN(C)c3cccc(NS(C)(=O)=O)c3C)cc2)cc(C(N)=O)c1

>  <score_type>  (79) 
oracle

>  <origin>  (79) 
adg

>  <m_score__min__energy>  (79) 
-14.27

>  <m_primary>  (79) 
energy

$$$$
79:0
     RDKit          3D

 39 41  0  0  0  0  0  0  0  0999 V2000
   59.2740   35.3540   44.8830 C   0  0  0  0  0  0  0  0  0  0  0  0
   58.9780   33.9180   45.1990 C   0  0  0  0  0  0  0  0  0  0  0  0
   59.6140   33.2860   46.2770 C   0  0  0  0  0  0  0  0  0  0  0  0
   59.3640   31.9380   46.5530 C   0  0  0  0  0  0  0  0  0  0  0  0
   58.4850   31.1950   45.7460 C   0  0  0  0  0  0  0  0  0  0  0  0
   58.2170   29.7640   46.0400 C   0  0  0  0  0  0  0  0  0  0  0  0
   58.7120   29.1710   47.2150 C   0  0  0  0  0  0  0  0  0  0  0  0
   58.4600   27.8240   47.4920 C   0  0  0  0  0  0  0  0  0  0  0  0
   57.7070   27.0450   46.5970 C   0  0  0  0  0  0  0  0  0  0  0  0
   57.4180   25.6620   46.8440 N   0  0  0  0  0  0  0  0  0  0  0  0
   55.9850   24.8330   46.3270 S   0  0  0  0  0  0  0  0  0  0  0  0
   54.9740   25.8420   45.8590 O   0  0  0  0  0  0  0  0  0  0  0  0
   55.4120   24.0710   47.4880 O   0  0  0  0  0  0  0  0  0  0  0  0
   56.3780   23.6970   45.0410 C   0  0  0  0  0  0  0  0  0  0  0  0
   57.4400   22.7960   45.2040 C   0  0  0  0  0  0  0  0  0  0  0  0
   57.7580   21.8930   44.1860 C   0  0  0  0  0  0  0  0  0  0  0  0
   57.0160   21.8840   43.0030 C   0  0  0  0  0  0  0  0  0  0  0  0
   55.9540   22.7780   42.8350 C   0  0  0  0  0  0  0  0  0  0  0  0
   55.6330   23.6820   43.8530 C   0  0  0  0  0  0  0  0  0  0  0  0
   57.2160   27.6320   45.4270 C   0  0  0  0  0  0  0  0  0  0  0  0
   57.4640   28.9790   45.1490 C   0  0  0  0  0  0  0  0  0  0  0  0
   57.8660   31.8290   44.6530 C   0  0  0  0  0  0  0  0  0  0  0  0
   58.1150   33.1760   44.3800 C   0  0  0  0  0  0  0  0  0  0  0  0
   59.3905   35.9191   45.8196 H   0  0  0  0  0  0  0  0  0  0  0  0
   60.2040   35.4167   44.2988 H   0  0  0  0  0  0  0  0  0  0  0  0
   58.4447   35.7794   44.2988 H   0  0  0  0  0  0  0  0  0  0  0  0
   60.3132   33.8534   46.9089 H   0  0  0  0  0  0  0  0  0  0  0  0
   59.8592   31.4553   47.4084 H   0  0  0  0  0  0  0  0  0  0  0  0
   59.3025   29.7720   47.9222 H   0  0  0  0  0  0  0  0  0  0  0  0
   58.8529   27.3719   48.4146 H   0  0  0  0  0  0  0  0  0  0  0  0
   58.0245   22.8000   46.1359 H   0  0  0  0  0  0  0  0  0  0  0  0
   58.5931   21.1890   44.3166 H   0  0  0  0  0  0  0  0  0  0  0  0
   57.2673   21.1728   42.2023 H   0  0  0  0  0  0  0  0  0  0  0  0
   55.3710   22.7704   41.9022 H   0  0  0  0  0  0  0  0  0  0  0  0
   54.7949   24.3822   43.7215 H   0  0  0  0  0  0  0  0  0  0  0  0
   56.6293   27.0283   44.7190 H   0  0  0  0  0  0  0  0  0  0  0  0
   57.0673   29.4283   44.2266 H   0  0  0  0  0  0  0  0  0  0  0  0
   57.1805   31.2593   44.0084 H   0  0  0  0  0  0  0  0  0  0  0  0
   57.6312   33.6576   43.5174 H   0  0  0  0  0  0  0  0  0  0  0  0
  1  2  1  0
  2  3  2  0
  3  4  1  0
  4  5  2  0
  5  6  1  0
  6  7  2  0
  7  8  1  0
  8  9  2  0
  9 10  1  0
 10 11  1  0
 11 12  2  0
 11 13  2  0
 11 14  1  0
 14 15  2  0
 15 16  1  0
 16 17  2  0
 17 18  1  0
 18 19  2  0
  9 20  1  0
 20 21  2  0
  5 22  1  0
 22 23  2  0
 23  2  1  0
 21  6  1  0
 19 14  1  0
  1 24  1  0
  1 25  1  0
  1 26  1  0
  3 27  1  0
  4 28  1  0
  7 29  1  0
  8 30  1  0
 15 31  1  0
 16 32  1  0
 17 33  1  0
 18 34  1  0
 19 35  1  0
 20 36  1  0
 21 37  1  0
 22 38  1  0
 23 39  1  0
M  CHG  1  10  -1
M  END
>  <UniqueID>  (80) 
70

>  <SMILES>  (80) 
Cc1ccc(-c2ccc([N-]S(=O)(=O)c3ccccc3)cc2)cc1

>  <Energy>  (80) 
49.21093882418494

>  <Genealogy>  (80) 
Cc1ccc(-c2ccc([N-]S(=O)(=O)c3ccccc3)cc2)cc1 (protonated)
Cc1ccc(-c2ccc([N-]S(=O)(=O)c3ccccc3)cc2)cc1 (3D coordinates assigned)
Cc1ccc(-c2ccc([N-]S(=O)(=O)c3ccccc3)cc2)cc1 (optimized conformer: 49.21093882418494 kcal/mol)

>  <smiles>  (80) 
Cc1ccc(-c2ccc(NS(=O)(=O)c3ccccc3)cc2)cc1

>  <score_type>  (80) 
oracle

>  <origin>  (80) 
adg

>  <m_score__min__energy>  (80) 
-9.6899999999999995

>  <m_primary>  (80) 
energy

$$$$
80:0
     RDKit          3D

 56 60  0  0  0  0  0  0  0  0999 V2000
   57.0400   30.3100   51.5620 O   0  0  0  0  0  0  0  0  0  0  0  0
   57.9030   31.0920   51.0800 C   0  0  0  0  0  0  0  0  0  0  0  0
   57.7850   32.5710   51.2960 C   0  0  0  0  0  0  0  0  0  0  0  0
   58.9500   33.1190   52.1250 C   0  0  0  0  0  0  0  0  0  0  0  0
   60.2120   32.9900   51.3800 N   0  0  0  0  0  0  0  0  0  0  0  0
   61.3330   32.2980   51.9620 C   0  0  0  0  0  0  0  0  0  0  0  0
   61.2410   31.8040   53.1210 O   0  0  0  0  0  0  0  0  0  0  0  0
   62.5970   32.1690   51.2020 C   0  0  0  0  0  0  0  0  0  0  0  0
   63.6810   31.4570   51.7390 C   0  0  0  0  0  0  0  0  0  0  0  0
   64.8720   31.3310   51.0230 C   0  0  0  0  0  0  0  0  0  0  0  0
   65.0020   31.9160   49.7640 C   0  0  0  0  0  0  0  0  0  0  0  0
   63.9360   32.6370   49.2080 C   0  0  0  0  0  0  0  0  0  0  0  0
   64.0680   33.2320   47.9450 C   0  0  0  0  0  0  0  0  0  0  0  0
   63.0100   33.9520   47.3950 C   0  0  0  0  0  0  0  0  0  0  0  0
   61.8090   34.0860   48.0940 C   0  0  0  0  0  0  0  0  0  0  0  0
   61.6500   33.4930   49.3600 C   0  0  0  0  0  0  0  0  0  0  0  0
   62.7190   32.7660   49.9280 C   0  0  0  0  0  0  0  0  0  0  0  0
   60.3730   33.6290   50.0990 C   0  0  0  0  0  0  0  0  0  0  0  0
   59.4270   34.3050   49.6050 O   0  0  0  0  0  0  0  0  0  0  0  0
   58.9860   30.5800   50.2940 N   0  0  0  0  0  0  0  0  0  0  0  0
   59.2030   30.8790   48.9060 C   0  0  0  0  0  0  0  0  0  0  0  0
   58.5140   31.9680   48.3550 C   0  0  0  0  0  0  0  0  0  0  0  0
   58.7370   32.3560   47.0310 C   0  0  0  0  0  0  0  0  0  0  0  0
   57.8180   33.8640   46.3040 Br  0  0  0  0  0  0  0  0  0  0  0  0
   59.6440   31.6460   46.2420 C   0  0  0  0  0  0  0  0  0  0  0  0
   60.3120   30.5360   46.7650 C   0  0  0  0  0  0  0  0  0  0  0  0
   60.0840   30.1220   48.0900 C   0  0  0  0  0  0  0  0  0  0  0  0
   60.7300   28.8790   48.5690 C   0  0  0  0  0  0  0  0  0  0  0  0
   61.3770   28.8810   49.6510 O   0  0  0  0  0  0  0  0  0  0  0  0
   60.5670   27.6630   47.8260 N   0  0  0  0  0  0  0  0  0  0  0  0
   59.3330   27.1350   47.3170 C   0  0  0  0  0  0  0  0  0  0  0  0
   58.6010   27.7920   46.3100 C   0  0  0  0  0  0  0  0  0  0  0  0
   57.3800   27.2690   45.8730 C   0  0  0  0  0  0  0  0  0  0  0  0
   56.8620   26.0920   46.4420 C   0  0  0  0  0  0  0  0  0  0  0  0
   55.5670   25.5390   45.9870 C   0  0  0  0  0  0  0  0  0  0  0  0
   55.4850   24.3510   45.5790 O   0  0  0  0  0  0  0  0  0  0  0  0
   54.4220   26.3320   45.9960 O   0  0  0  0  0  0  0  0  0  0  0  0
   57.5880   25.4510   47.4620 C   0  0  0  0  0  0  0  0  0  0  0  0
   58.8080   25.9750   47.8990 C   0  0  0  0  0  0  0  0  0  0  0  0
   57.7763   33.0742   50.3179 H   0  0  0  0  0  0  0  0  0  0  0  0
   56.8527   32.7629   51.8475 H   0  0  0  0  0  0  0  0  0  0  0  0
   58.7680   34.1804   52.3494 H   0  0  0  0  0  0  0  0  0  0  0  0
   59.0258   32.5438   53.0596 H   0  0  0  0  0  0  0  0  0  0  0  0
   63.5908   30.9944   52.7329 H   0  0  0  0  0  0  0  0  0  0  0  0
   65.7126   30.7673   51.4539 H   0  0  0  0  0  0  0  0  0  0  0  0
   65.9438   31.8115   49.2054 H   0  0  0  0  0  0  0  0  0  0  0  0
   65.0103   33.1298   47.3867 H   0  0  0  0  0  0  0  0  0  0  0  0
   63.1214   34.4175   46.4046 H   0  0  0  0  0  0  0  0  0  0  0  0
   60.9809   34.6594   47.6518 H   0  0  0  0  0  0  0  0  0  0  0  0
   57.7906   32.5228   48.9706 H   0  0  0  0  0  0  0  0  0  0  0  0
   59.8332   31.9616   45.2054 H   0  0  0  0  0  0  0  0  0  0  0  0
   61.0226   29.9808   46.1351 H   0  0  0  0  0  0  0  0  0  0  0  0
   58.9907   28.7197   45.8655 H   0  0  0  0  0  0  0  0  0  0  0  0
   56.8201   27.7825   45.0775 H   0  0  0  0  0  0  0  0  0  0  0  0
   57.1932   24.5315   47.9187 H   0  0  0  0  0  0  0  0  0  0  0  0
   59.3599   25.4719   48.7066 H   0  0  0  0  0  0  0  0  0  0  0  0
  1  2  2  0
  2  3  1  0
  3  4  1  0
  4  5  1  0
  5  6  1  0
  6  7  2  0
  6  8  1  0
  8  9  2  0
  9 10  1  0
 10 11  2  0
 11 12  1  0
 12 13  2  0
 13 14  1  0
 14 15  2  0
 15 16  1  0
 16 17  2  0
 16 18  1  0
 18 19  2  0
  2 20  1  0
 20 21  1  0
 21 22  2  0
 22 23  1  0
 23 24  1  0
 23 25  2  0
 25 26  1  0
 26 27  2  0
 27 28  1  0
 28 29  2  0
 28 30  1  0
 30 31  1  0
 31 32  2  0
 32 33  1  0
 33 34  2  0
 34 35  1  0
 35 36  2  0
 35 37  1  0
 34 38  1  0
 38 39  2  0
 18  5  1  0
 27 21  1  0
 39 31  1  0
 17  8  1  0
 17 12  1  0
  3 40  1  0
  3 41  1  0
  4 42  1  0
  4 43  1  0
  9 44  1  0
 10 45  1  0
 11 46  1  0
 13 47  1  0
 14 48  1  0
 15 49  1  0
 22 50  1  0
 25 51  1  0
 26 52  1  0
 32 53  1  0
 33 54  1  0
 38 55  1  0
 39 56  1  0
M  CHG  3  20  -1  30  -1  37  -1
M  END
>  <UniqueID>  (81) 
71

>  <SMILES>  (81) 
O=C(CCN1C(=O)c2cccc3cccc(c23)C1=O)[N-]c1cc(Br)ccc1C(=O)[N-]c1ccc(C(=O)[O-])cc1

>  <Energy>  (81) 
79.69573300513999

>  <Genealogy>  (81) 
O=C(CCN1C(=O)c2cccc3cccc(c23)C1=O)[N-]c1cc(Br)ccc1C(=O)[N-]c1ccc(C(=O)[O-])cc1 (protonated)
O=C(CCN1C(=O)c2cccc3cccc(c23)C1=O)[N-]c1cc(Br)ccc1C(=O)[N-]c1ccc(C(=O)[O-])cc1 (3D coordinates assigned)
O=C(CCN1C(=O)c2cccc3cccc(c23)C1=O)[N-]c1cc(Br)ccc1C(=O)[N-]c1ccc(C(=O)[O-])cc1 (nonaromatic ring conformer: 79.69573300513999 kcal/mol)

>  <smiles>  (81) 
O=C(CCN1C(=O)c2cccc3cccc(c23)C1=O)Nc1cc(Br)ccc1C(=O)Nc1ccc(C(=O)O)cc1

>  <score_type>  (81) 
oracle

>  <origin>  (81) 
adg

>  <m_score__min__energy>  (81) 
-15.49

>  <m_primary>  (81) 
energy

$$$$
81:0
     RDKit          3D

 37 40  0  0  0  0  0  0  0  0999 V2000
   63.4630   33.8200   48.0590 C   0  0  0  0  0  0  0  0  0  0  0  0
   62.6200   33.7680   49.1730 C   0  0  0  0  0  0  0  0  0  0  0  0
   61.7070   32.7180   49.3140 C   0  0  0  0  0  0  0  0  0  0  0  0
   61.6360   31.7080   48.3390 C   0  0  0  0  0  0  0  0  0  0  0  0
   60.6070   30.6140   48.4540 C   0  0  0  0  0  0  0  0  0  0  0  0
   59.1800   31.1700   48.3580 C   0  0  0  0  0  0  0  0  0  0  0  0
   58.8890   31.6480   47.0000 N   0  0  0  0  0  0  0  0  0  0  0  0
   59.0930   32.8960   46.5090 C   0  0  0  0  0  0  0  0  0  0  0  0
   59.6840   33.9870   47.1530 C   0  0  0  0  0  0  0  0  0  0  0  0
   59.7730   35.2030   46.4500 C   0  0  0  0  0  0  0  0  0  0  0  0
   59.2720   35.3110   45.1350 C   0  0  0  0  0  0  0  0  0  0  0  0
   58.6740   34.2050   44.5060 C   0  0  0  0  0  0  0  0  0  0  0  0
   58.6020   33.0120   45.2230 C   0  0  0  0  0  0  0  0  0  0  0  0
   58.0640   31.7870   44.9030 C   0  0  0  0  0  0  0  0  0  0  0  0
   57.4050   31.3350   43.7630 C   0  0  0  0  0  0  0  0  0  0  0  0
   56.9360   30.0110   43.7800 C   0  0  0  0  0  0  0  0  0  0  0  0
   57.1250   29.2210   44.8820 N   0  0  0  0  0  0  0  0  0  0  0  0
   57.7700   29.6690   45.9990 C   0  0  0  0  0  0  0  0  0  0  0  0
   58.2510   30.9820   46.0030 C   0  0  0  0  0  0  0  0  0  0  0  0
   62.4840   31.7690   47.2200 C   0  0  0  0  0  0  0  0  0  0  0  0
   63.3940   32.8220   47.0830 C   0  0  0  0  0  0  0  0  0  0  0  0
   64.1807   34.6465   47.9506 H   0  0  0  0  0  0  0  0  0  0  0  0
   62.6749   34.5545   49.9401 H   0  0  0  0  0  0  0  0  0  0  0  0
   61.0428   32.6825   50.1901 H   0  0  0  0  0  0  0  0  0  0  0  0
   60.7635   29.8895   47.6412 H   0  0  0  0  0  0  0  0  0  0  0  0
   60.7240   30.1328   49.4362 H   0  0  0  0  0  0  0  0  0  0  0  0
   58.4663   30.3749   48.6196 H   0  0  0  0  0  0  0  0  0  0  0  0
   59.0875   32.0169   49.0538 H   0  0  0  0  0  0  0  0  0  0  0  0
   60.0684   33.8976   48.1797 H   0  0  0  0  0  0  0  0  0  0  0  0
   60.2373   36.0772   46.9298 H   0  0  0  0  0  0  0  0  0  0  0  0
   59.3500   36.2679   44.5981 H   0  0  0  0  0  0  0  0  0  0  0  0
   58.2765   34.2787   43.4830 H   0  0  0  0  0  0  0  0  0  0  0  0
   57.2582   31.9855   42.8882 H   0  0  0  0  0  0  0  0  0  0  0  0
   56.4129   29.6059   42.9012 H   0  0  0  0  0  0  0  0  0  0  0  0
   57.9076   29.0145   46.8724 H   0  0  0  0  0  0  0  0  0  0  0  0
   62.4318   30.9859   46.4493 H   0  0  0  0  0  0  0  0  0  0  0  0
   64.0564   32.8648   46.2059 H   0  0  0  0  0  0  0  0  0  0  0  0
  1  2  2  0
  2  3  1  0
  3  4  2  0
  4  5  1  0
  5  6  1  0
  6  7  1  0
  7  8  1  0
  8  9  2  0
  9 10  1  0
 10 11  2  0
 11 12  1  0
 12 13  2  0
 13 14  1  0
 14 15  2  0
 15 16  1  0
 16 17  2  0
 17 18  1  0
 18 19  2  0
  4 20  1  0
 20 21  2  0
 21  1  1  0
 19  7  1  0
 13  8  1  0
 19 14  1  0
  1 22  1  0
  2 23  1  0
  3 24  1  0
  5 25  1  0
  5 26  1  0
  6 27  1  0
  6 28  1  0
  9 29  1  0
 10 30  1  0
 11 31  1  0
 12 32  1  0
 15 33  1  0
 16 34  1  0
 18 35  1  0
 20 36  1  0
 21 37  1  0
M  END
>  <UniqueID>  (82) 
72

>  <SMILES>  (82) 
c1ccc(CCn2c3ccccc3c3ccncc32)cc1

>  <Energy>  (82) 
79.67882655187707

>  <Genealogy>  (82) 
c1ccc(CCn2c3ccccc3c3ccncc32)cc1 (3D coordinates assigned)
c1ccc(CCn2c3ccccc3c3ccncc32)cc1 (optimized conformer: 79.67882655187707 kcal/mol)

>  <smiles>  (82) 
c1ccc(CCn2c3ccccc3c3ccncc32)cc1

>  <score_type>  (82) 
oracle

>  <origin>  (82) 
adg

>  <m_score__min__energy>  (82) 
-7.4299999999999997

>  <m_primary>  (82) 
energy

$$$$
82:0
     RDKit          3D

 31 32  0  0  0  0  0  0  0  0999 V2000
   54.7630   28.4370   44.5040 H   0  0  0  0  0  0  0  0  0  0  0  0
   55.3720   29.1110   44.9530 O   0  0  0  0  0  0  0  0  0  0  0  0
   56.7480   28.9020   45.0520 C   0  0  0  0  0  0  0  0  0  0  0  0
   57.2400   27.8150   45.7900 C   0  0  0  0  0  0  0  0  0  0  0  0
   56.5388   27.1282   46.2866 H   0  0  0  0  0  0  0  0  0  0  0  0
   58.6160   27.6010   45.8970 C   0  0  0  0  0  0  0  0  0  0  0  0
   58.9958   26.7421   46.4697 H   0  0  0  0  0  0  0  0  0  0  0  0
   59.5090   28.4760   45.2780 C   0  0  0  0  0  0  0  0  0  0  0  0
   60.5926   28.3093   45.3678 H   0  0  0  0  0  0  0  0  0  0  0  0
   59.0290   29.5640   44.5440 C   0  0  0  0  0  0  0  0  0  0  0  0
   59.7375   30.2602   44.0714 H   0  0  0  0  0  0  0  0  0  0  0  0
   57.6440   29.7740   44.4060 C   0  0  0  0  0  0  0  0  0  0  0  0
   57.1230   30.9390   43.6530 C   0  0  0  0  0  0  0  0  0  0  0  0
   56.2236   30.7841   43.0389 H   0  0  0  0  0  0  0  0  0  0  0  0
   57.6620   32.1690   43.6610 C   0  0  0  0  0  0  0  0  0  0  0  0
   57.7387   32.6934   42.6971 H   0  0  0  0  0  0  0  0  0  0  0  0
   58.1610   32.8760   44.8610 C   0  0  0  0  0  0  0  0  0  0  0  0
   59.1060   33.8990   44.7080 C   0  0  0  0  0  0  0  0  0  0  0  0
   59.4522   34.1769   43.7016 H   0  0  0  0  0  0  0  0  0  0  0  0
   59.6120   34.5690   45.8260 C   0  0  0  0  0  0  0  0  0  0  0  0
   60.3420   35.3807   45.6910 H   0  0  0  0  0  0  0  0  0  0  0  0
   59.1980   34.2160   47.1150 C   0  0  0  0  0  0  0  0  0  0  0  0
   59.7310   34.9210   48.2040 O   0  0  0  0  0  0  0  0  0  0  0  0
   60.7490   34.4210   49.0640 C   0  0  0  0  0  0  0  0  0  0  0  0
   60.4488   34.5684   50.1119 H   0  0  0  0  0  0  0  0  0  0  0  0
   60.8965   33.3479   48.8724 H   0  0  0  0  0  0  0  0  0  0  0  0
   61.6884   34.9602   48.8724 H   0  0  0  0  0  0  0  0  0  0  0  0
   58.2700   33.1680   47.2750 C   0  0  0  0  0  0  0  0  0  0  0  0
   57.9417   32.8760   48.2834 H   0  0  0  0  0  0  0  0  0  0  0  0
   57.7650   32.4980   46.1570 C   0  0  0  0  0  0  0  0  0  0  0  0
   57.0535   31.6700   46.2913 H   0  0  0  0  0  0  0  0  0  0  0  0
  1  2  1  0
  2  3  1  0
  3  4  2  0
  4  5  1  0
  4  6  1  0
  6  7  1  0
  6  8  2  0
  8  9  1  0
  8 10  1  0
 10 11  1  0
 10 12  2  0
 12 13  1  0
 13 14  1  0
 13 15  2  0
 15 16  1  0
 15 17  1  0
 17 18  2  0
 18 19  1  0
 18 20  1  0
 20 21  1  0
 20 22  2  0
 22 23  1  0
 23 24  1  0
 24 25  1  0
 24 26  1  0
 24 27  1  0
 22 28  1  0
 28 29  1  0
 28 30  2  0
 30 31  1  0
 12  3  1  0
 30 17  1  0
M  END
>  <UniqueID>  (83) 
73

>  <SMILES>  (83) 
COc1ccc(/C=C\c2ccccc2O)cc1

>  <Energy>  (83) 
40.59092494219005

>  <Genealogy>  (83) 
COc1ccc(/C=C\c2ccccc2O)cc1 (cis-trans isomerization)
COc1ccc(/C=C\c2ccccc2O)cc1 (3D coordinates assigned)
COc1ccc(/C=C\c2ccccc2O)cc1 (optimized conformer: 40.59092494219005 kcal/mol)

>  <smiles>  (83) 
COc1ccc(C=Cc2ccccc2O)cc1

>  <score_type>  (83) 
oracle

>  <origin>  (83) 
adg

>  <m_score__min__energy>  (83) 
-7.5300000000000002

>  <m_primary>  (83) 
energy

$$$$
83:0
     RDKit          3D

 49 51  0  0  0  0  0  0  0  0999 V2000
   57.6470   32.3790   41.0790 C   0  0  0  0  0  0  0  0  0  0  0  0
   57.2150   31.4820   42.2340 C   0  0  0  0  0  0  0  0  0  0  0  0
   58.1870   31.4980   43.2820 O   0  0  0  0  0  0  0  0  0  0  0  0
   58.0840   32.2120   44.4840 C   0  0  0  0  0  0  0  0  0  0  0  0
   57.7910   33.5900   44.5180 C   0  0  0  0  0  0  0  0  0  0  0  0
   57.6620   34.2530   45.7390 C   0  0  0  0  0  0  0  0  0  0  0  0
   57.8340   33.5560   46.9340 C   0  0  0  0  0  0  0  0  0  0  0  0
   58.1380   32.1970   46.9140 C   0  0  0  0  0  0  0  0  0  0  0  0
   58.2680   31.5210   45.6970 C   0  0  0  0  0  0  0  0  0  0  0  0
   58.5270   30.1090   45.6960 N   0  0  0  0  0  0  0  0  0  0  0  0
   59.9030   29.6300   45.8440 C   0  0  0  0  0  0  0  0  0  0  0  0
   60.1950   29.3350   47.2860 C   0  0  0  0  0  0  0  0  0  0  0  0
   60.2140   28.1350   47.6750 O   0  0  0  0  0  0  0  0  0  0  0  0
   60.3000   30.3990   48.2480 N   0  0  0  0  0  0  0  0  0  0  0  0
   59.5040   30.3150   49.4790 C   0  0  0  0  0  0  0  0  0  0  0  0
   59.0340   31.6750   49.9160 C   0  0  0  0  0  0  0  0  0  0  0  0
   58.0120   31.7900   50.6540 O   0  0  0  0  0  0  0  0  0  0  0  0
   59.7850   32.8380   49.5600 N   0  0  0  0  0  0  0  0  0  0  0  0
   60.9370   32.7270   48.7120 C   0  0  0  0  0  0  0  0  0  0  0  0
   61.7990   33.8180   48.5400 C   0  0  0  0  0  0  0  0  0  0  0  0
   62.9360   33.6980   47.7430 C   0  0  0  0  0  0  0  0  0  0  0  0
   63.2220   32.4870   47.1180 C   0  0  0  0  0  0  0  0  0  0  0  0
   62.3670   31.3940   47.2780 C   0  0  0  0  0  0  0  0  0  0  0  0
   61.2040   31.5110   48.0610 C   0  0  0  0  0  0  0  0  0  0  0  0
   57.2970   29.0140   45.1390 S   0  0  0  0  0  0  0  0  0  0  0  0
   57.7760   28.1970   43.6250 C   0  0  0  0  0  0  0  0  0  0  0  0
   57.0460   27.9760   46.1980 O   0  0  0  0  0  0  0  0  0  0  0  0
   56.0260   29.7750   44.8770 O   0  0  0  0  0  0  0  0  0  0  0  0
   58.0917   33.3024   41.4784 H   0  0  0  0  0  0  0  0  0  0  0  0
   58.3896   31.8511   40.4627 H   0  0  0  0  0  0  0  0  0  0  0  0
   56.7713   32.6305   40.4627 H   0  0  0  0  0  0  0  0  0  0  0  0
   56.2533   31.8412   42.6290 H   0  0  0  0  0  0  0  0  0  0  0  0
   57.1160   30.4517   41.8615 H   0  0  0  0  0  0  0  0  0  0  0  0
   57.6634   34.1457   43.5773 H   0  0  0  0  0  0  0  0  0  0  0  0
   57.4243   35.3268   45.7586 H   0  0  0  0  0  0  0  0  0  0  0  0
   57.7294   34.0807   47.8951 H   0  0  0  0  0  0  0  0  0  0  0  0
   58.2765   31.6530   47.8600 H   0  0  0  0  0  0  0  0  0  0  0  0
   60.0345   28.7127   45.2513 H   0  0  0  0  0  0  0  0  0  0  0  0
   60.5948   30.4080   45.4888 H   0  0  0  0  0  0  0  0  0  0  0  0
   58.6287   29.6740   49.2974 H   0  0  0  0  0  0  0  0  0  0  0  0
   60.1356   29.8924   50.2743 H   0  0  0  0  0  0  0  0  0  0  0  0
   59.5190   33.7640   49.9730 H   0  0  0  0  0  0  0  0  0  0  0  0
   61.5772   34.7742   49.0365 H   0  0  0  0  0  0  0  0  0  0  0  0
   63.6069   34.5592   47.6078 H   0  0  0  0  0  0  0  0  0  0  0  0
   64.1243   32.3907   46.4962 H   0  0  0  0  0  0  0  0  0  0  0  0
   62.6041   30.4374   46.7895 H   0  0  0  0  0  0  0  0  0  0  0  0
   58.3190   27.2708   43.8641 H   0  0  0  0  0  0  0  0  0  0  0  0
   56.8772   27.9542   43.0391 H   0  0  0  0  0  0  0  0  0  0  0  0
   58.4268   28.8628   43.0391 H   0  0  0  0  0  0  0  0  0  0  0  0
  1  2  1  0
  2  3  1  0
  3  4  1  0
  4  5  2  0
  5  6  1  0
  6  7  2  0
  7  8  1  0
  8  9  2  0
  9 10  1  0
 10 11  1  0
 11 12  1  0
 12 13  2  0
 12 14  1  0
 14 15  1  0
 15 16  1  0
 16 17  2  0
 16 18  1  0
 18 19  1  0
 19 20  2  0
 20 21  1  0
 21 22  2  0
 22 23  1  0
 23 24  2  0
 10 25  1  0
 25 26  1  0
 25 27  2  0
 25 28  2  0
  9  4  1  0
 24 14  1  0
 24 19  1  0
  1 29  1  0
  1 30  1  0
  1 31  1  0
  2 32  1  0
  2 33  1  0
  5 34  1  0
  6 35  1  0
  7 36  1  0
  8 37  1  0
 11 38  1  0
 11 39  1  0
 15 40  1  0
 15 41  1  0
 18 42  1  0
 20 43  1  0
 21 44  1  0
 22 45  1  0
 23 46  1  0
 26 47  1  0
 26 48  1  0
 26 49  1  0
M  END
>  <UniqueID>  (84) 
74

>  <SMILES>  (84) 
CCOc1ccccc1N(CC(=O)N1CC(=O)Nc2ccccc21)S(C)(=O)=O

>  <Energy>  (84) 
52.7262853279056

>  <Genealogy>  (84) 
CCOc1ccccc1N(CC(=O)N1CC(=O)Nc2ccccc21)S(C)(=O)=O (3D coordinates assigned)
CCOc1ccccc1N(CC(=O)N1CC(=O)Nc2ccccc21)S(C)(=O)=O (nonaromatic ring conformer: 52.7262853279056 kcal/mol)

>  <smiles>  (84) 
CCOc1ccccc1N(CC(=O)N1CC(=O)Nc2ccccc21)S(C)(=O)=O

>  <score_type>  (84) 
oracle

>  <origin>  (84) 
adg

>  <m_score__min__energy>  (84) 
-8.4499999999999993

>  <m_primary>  (84) 
energy

$$$$
84:0
     RDKit          3D

 50 53  0  0  0  0  0  0  0  0999 V2000
   57.3620   20.7220   46.4750 C   0  0  0  0  0  0  0  0  0  0  0  0
   57.3890   21.9070   47.2660 O   0  0  0  0  0  0  0  0  0  0  0  0
   57.3460   23.2080   46.7420 C   0  0  0  0  0  0  0  0  0  0  0  0
   56.3780   24.0930   47.2360 C   0  0  0  0  0  0  0  0  0  0  0  0
   56.2960   25.4010   46.7500 C   0  0  0  0  0  0  0  0  0  0  0  0
   57.1850   25.8510   45.7560 C   0  0  0  0  0  0  0  0  0  0  0  0
   57.1280   27.1910   45.2250 N   0  0  0  0  0  0  0  0  0  0  0  0
   58.1750   28.2020   45.3980 C   0  0  0  0  0  0  0  0  0  0  0  0
   57.6920   29.5490   44.9470 C   0  0  0  0  0  0  0  0  0  0  0  0
   56.4150   29.9660   45.0500 N   0  0  0  0  0  0  0  0  0  0  0  0
   56.3870   31.2030   44.5710 N   0  0  0  0  0  0  0  0  0  0  0  0
   57.6500   31.4900   44.2010 C   0  0  0  0  0  0  0  0  0  0  0  0
   58.1610   33.0600   43.4960 S   0  0  0  0  0  0  0  0  0  0  0  0
   57.5190   34.0580   44.8910 C   0  0  0  0  0  0  0  0  0  0  0  0
   58.4300   33.9630   46.0790 C   0  0  0  0  0  0  0  0  0  0  0  0
   58.8890   35.0230   46.5910 O   0  0  0  0  0  0  0  0  0  0  0  0
   58.7290   32.6850   46.6640 N   0  0  0  0  0  0  0  0  0  0  0  0
   59.6330   32.5340   47.7690 C   0  0  0  0  0  0  0  0  0  0  0  0
   59.1320   32.0280   48.9760 C   0  0  0  0  0  0  0  0  0  0  0  0
   59.9770   31.8270   50.0680 C   0  0  0  0  0  0  0  0  0  0  0  0
   61.3380   32.1290   49.9730 C   0  0  0  0  0  0  0  0  0  0  0  0
   61.8610   32.6650   48.7890 C   0  0  0  0  0  0  0  0  0  0  0  0
   63.2270   32.9960   48.7060 C   0  0  0  0  0  0  0  0  0  0  0  0
   63.7430   33.5670   47.5400 C   0  0  0  0  0  0  0  0  0  0  0  0
   62.9030   33.8290   46.4580 C   0  0  0  0  0  0  0  0  0  0  0  0
   61.5440   33.5090   46.5240 C   0  0  0  0  0  0  0  0  0  0  0  0
   61.0060   32.8950   47.6770 C   0  0  0  0  0  0  0  0  0  0  0  0
   58.4560   30.4830   44.4280 O   0  0  0  0  0  0  0  0  0  0  0  0
   58.1460   24.9590   45.2560 C   0  0  0  0  0  0  0  0  0  0  0  0
   58.2340   23.6500   45.7440 C   0  0  0  0  0  0  0  0  0  0  0  0
   57.3419   19.8416   47.1341 H   0  0  0  0  0  0  0  0  0  0  0  0
   56.4637   20.7253   45.8401 H   0  0  0  0  0  0  0  0  0  0  0  0
   58.2595   20.6844   45.8401 H   0  0  0  0  0  0  0  0  0  0  0  0
   55.6765   23.7552   48.0131 H   0  0  0  0  0  0  0  0  0  0  0  0
   55.5307   26.0839   47.1475 H   0  0  0  0  0  0  0  0  0  0  0  0
   56.2660   27.4850   44.7090 H   0  0  0  0  0  0  0  0  0  0  0  0
   58.4531   28.2555   46.4609 H   0  0  0  0  0  0  0  0  0  0  0  0
   59.0457   27.9168   44.7893 H   0  0  0  0  0  0  0  0  0  0  0  0
   57.4442   35.1097   44.5774 H   0  0  0  0  0  0  0  0  0  0  0  0
   56.5291   33.6711   45.1745 H   0  0  0  0  0  0  0  0  0  0  0  0
   58.4630   31.8210   46.1330 H   0  0  0  0  0  0  0  0  0  0  0  0
   58.0623   31.7870   49.0634 H   0  0  0  0  0  0  0  0  0  0  0  0
   59.5695   31.4286   51.0089 H   0  0  0  0  0  0  0  0  0  0  0  0
   62.0012   31.9452   50.8311 H   0  0  0  0  0  0  0  0  0  0  0  0
   63.8903   32.8043   49.5623 H   0  0  0  0  0  0  0  0  0  0  0  0
   64.8138   33.8104   47.4753 H   0  0  0  0  0  0  0  0  0  0  0  0
   63.3124   34.2903   45.5472 H   0  0  0  0  0  0  0  0  0  0  0  0
   60.8879   33.7371   45.6711 H   0  0  0  0  0  0  0  0  0  0  0  0
   58.8394   25.2929   44.4701 H   0  0  0  0  0  0  0  0  0  0  0  0
   58.9984   22.9659   45.3468 H   0  0  0  0  0  0  0  0  0  0  0  0
  1  2  1  0
  2  3  1  0
  3  4  2  0
  4  5  1  0
  5  6  2  0
  6  7  1  0
  7  8  1  0
  8  9  1  0
  9 10  2  0
 10 11  1  0
 11 12  2  0
 12 13  1  0
 13 14  1  0
 14 15  1  0
 15 16  2  0
 15 17  1  0
 17 18  1  0
 18 19  2  0
 19 20  1  0
 20 21  2  0
 21 22  1  0
 22 23  2  0
 23 24  1  0
 24 25  2  0
 25 26  1  0
 26 27  2  0
 12 28  1  0
  6 29  1  0
 29 30  2  0
 30  3  1  0
 28  9  1  0
 27 18  1  0
 27 22  1  0
  1 31  1  0
  1 32  1  0
  1 33  1  0
  4 34  1  0
  5 35  1  0
  7 36  1  0
  8 37  1  0
  8 38  1  0
 14 39  1  0
 14 40  1  0
 17 41  1  0
 19 42  1  0
 20 43  1  0
 21 44  1  0
 23 45  1  0
 24 46  1  0
 25 47  1  0
 26 48  1  0
 29 49  1  0
 30 50  1  0
M  END
>  <UniqueID>  (85) 
75

>  <SMILES>  (85) 
COc1ccc(NCc2nnc(SCC(=O)Nc3cccc4ccccc34)o2)cc1

>  <Energy>  (85) 
92.92891467773744

>  <Genealogy>  (85) 
COc1ccc(NCc2nnc(SCC(=O)Nc3cccc4ccccc34)o2)cc1 (3D coordinates assigned)
COc1ccc(NCc2nnc(SCC(=O)Nc3cccc4ccccc34)o2)cc1 (optimized conformer: 92.92891467773744 kcal/mol)

>  <smiles>  (85) 
COc1ccc(NCc2nnc(SCC(=O)Nc3cccc4ccccc34)o2)cc1

>  <score_type>  (85) 
oracle

>  <origin>  (85) 
adg

>  <m_score__min__energy>  (85) 
-9.9199999999999999

>  <m_primary>  (85) 
energy

$$$$
85:0
     RDKit          3D

 55 58  0  0  0  0  0  0  0  0999 V2000
   60.3960   27.5900   47.7140 C   0  0  0  0  0  0  0  0  0  0  0  0
   60.1800   26.2900   46.9420 C   0  0  0  0  0  0  0  0  0  0  0  0
   58.7290   26.1360   46.5650 C   0  0  0  0  0  0  0  0  0  0  0  0
   58.0600   24.9180   46.7700 C   0  0  0  0  0  0  0  0  0  0  0  0
   56.7100   24.7930   46.4330 C   0  0  0  0  0  0  0  0  0  0  0  0
   56.0100   25.8860   45.9150 C   0  0  0  0  0  0  0  0  0  0  0  0
   56.6490   27.1190   45.7450 C   0  0  0  0  0  0  0  0  0  0  0  0
   55.8900   28.2280   45.2460 N   0  0  0  0  0  0  0  0  0  0  0  0
   56.4560   29.3630   44.0630 S   0  0  0  0  0  0  0  0  0  0  0  0
   57.3510   28.6630   43.0780 O   0  0  0  0  0  0  0  0  0  0  0  0
   55.2790   29.9330   43.3210 O   0  0  0  0  0  0  0  0  0  0  0  0
   57.3110   30.6740   44.8710 C   0  0  0  0  0  0  0  0  0  0  0  0
   57.2160   31.9890   44.3540 C   0  0  0  0  0  0  0  0  0  0  0  0
   57.8200   33.0690   45.0240 C   0  0  0  0  0  0  0  0  0  0  0  0
   58.5080   32.7950   46.2100 C   0  0  0  0  0  0  0  0  0  0  0  0
   58.6090   31.5260   46.7030 C   0  0  0  0  0  0  0  0  0  0  0  0
   58.0290   30.4330   46.0650 C   0  0  0  0  0  0  0  0  0  0  0  0
   59.2760   31.5440   47.8690 N   0  0  0  0  0  0  0  0  0  0  0  0
   59.5730   32.8530   48.0660 C   0  0  0  0  0  0  0  0  0  0  0  0
   60.2600   33.3440   49.3120 C   0  0  0  0  0  0  0  0  0  0  0  0
   61.7570   33.2550   49.1800 C   0  0  0  0  0  0  0  0  0  0  0  0
   62.3560   33.1650   47.9110 C   0  0  0  0  0  0  0  0  0  0  0  0
   63.7460   33.0660   47.7930 C   0  0  0  0  0  0  0  0  0  0  0  0
   64.5480   33.0790   48.9370 C   0  0  0  0  0  0  0  0  0  0  0  0
   63.9630   33.2100   50.1970 C   0  0  0  0  0  0  0  0  0  0  0  0
   62.5730   33.2980   50.3210 C   0  0  0  0  0  0  0  0  0  0  0  0
   59.1160   33.6500   47.0580 N   0  0  0  0  0  0  0  0  0  0  0  0
   59.1450   35.1140   46.9680 C   0  0  0  0  0  0  0  0  0  0  0  0
   59.6540   35.5590   45.5980 C   0  0  0  0  0  0  0  0  0  0  0  0
   58.0170   27.2330   46.0550 C   0  0  0  0  0  0  0  0  0  0  0  0
   60.3619   27.3850   48.7942 H   0  0  0  0  0  0  0  0  0  0  0  0
   61.3768   28.0135   47.4519 H   0  0  0  0  0  0  0  0  0  0  0  0
   59.6048   28.3079   47.4519 H   0  0  0  0  0  0  0  0  0  0  0  0
   60.7920   26.3056   46.0281 H   0  0  0  0  0  0  0  0  0  0  0  0
   60.4739   25.4437   47.5803 H   0  0  0  0  0  0  0  0  0  0  0  0
   58.6005   24.0604   47.1970 H   0  0  0  0  0  0  0  0  0  0  0  0
   56.1962   23.8309   46.5759 H   0  0  0  0  0  0  0  0  0  0  0  0
   54.9507   25.7763   45.6394 H   0  0  0  0  0  0  0  0  0  0  0  0
   56.6645   32.1680   43.4192 H   0  0  0  0  0  0  0  0  0  0  0  0
   57.7532   34.0932   44.6284 H   0  0  0  0  0  0  0  0  0  0  0  0
   58.1259   29.4171   46.4755 H   0  0  0  0  0  0  0  0  0  0  0  0
   59.4800   30.7350   48.4990 H   0  0  0  0  0  0  0  0  0  0  0  0
   59.9771   34.3923   49.4882 H   0  0  0  0  0  0  0  0  0  0  0  0
   59.9466   32.7105   50.1549 H   0  0  0  0  0  0  0  0  0  0  0  0
   61.7287   33.1725   47.0074 H   0  0  0  0  0  0  0  0  0  0  0  0
   64.2083   32.9778   46.7987 H   0  0  0  0  0  0  0  0  0  0  0  0
   65.6401   32.9860   48.8444 H   0  0  0  0  0  0  0  0  0  0  0  0
   64.5971   33.2441   51.0952 H   0  0  0  0  0  0  0  0  0  0  0  0
   62.1173   33.4013   51.3168 H   0  0  0  0  0  0  0  0  0  0  0  0
   58.1285   35.5057   47.1206 H   0  0  0  0  0  0  0  0  0  0  0  0
   59.8232   35.5033   47.7416 H   0  0  0  0  0  0  0  0  0  0  0  0
   60.4763   36.2779   45.7282 H   0  0  0  0  0  0  0  0  0  0  0  0
   60.0172   34.6836   45.0397 H   0  0  0  0  0  0  0  0  0  0  0  0
   58.8349   36.0359   45.0397 H   0  0  0  0  0  0  0  0  0  0  0  0
   58.5334   28.1912   45.8961 H   0  0  0  0  0  0  0  0  0  0  0  0
  1  2  1  0
  2  3  1  0
  3  4  2  0
  4  5  1  0
  5  6  2  0
  6  7  1  0
  7  8  1  0
  8  9  1  0
  9 10  2  0
  9 11  2  0
  9 12  1  0
 12 13  2  0
 13 14  1  0
 14 15  2  0
 15 16  1  0
 16 17  2  0
 16 18  1  0
 18 19  2  0
 19 20  1  0
 20 21  1  0
 21 22  2  0
 22 23  1  0
 23 24  2  0
 24 25  1  0
 25 26  2  0
 19 27  1  0
 27 28  1  0
 28 29  1  0
  7 30  2  0
 30  3  1  0
 17 12  1  0
 26 21  1  0
 27 15  1  0
  1 31  1  0
  1 32  1  0
  1 33  1  0
  2 34  1  0
  2 35  1  0
  4 36  1  0
  5 37  1  0
  6 38  1  0
 13 39  1  0
 14 40  1  0
 17 41  1  0
 18 42  1  0
 20 43  1  0
 20 44  1  0
 22 45  1  0
 23 46  1  0
 24 47  1  0
 25 48  1  0
 26 49  1  0
 28 50  1  0
 28 51  1  0
 29 52  1  0
 29 53  1  0
 29 54  1  0
 30 55  1  0
M  CHG  2   8  -1  18   1
M  END
>  <UniqueID>  (86) 
76

>  <SMILES>  (86) 
CCc1cccc([N-]S(=O)(=O)c2ccc3c(c2)[nH+]c(Cc2ccccc2)n3CC)c1

>  <Energy>  (86) 
89.6782347449229

>  <Genealogy>  (86) 
CCc1cccc([N-]S(=O)(=O)c2ccc3c(c2)[nH+]c(Cc2ccccc2)n3CC)c1 (protonated)
CCc1cccc([N-]S(=O)(=O)c2ccc3c(c2)[nH+]c(Cc2ccccc2)n3CC)c1 (3D coordinates assigned)
CCc1cccc([N-]S(=O)(=O)c2ccc3c(c2)[nH+]c(Cc2ccccc2)n3CC)c1 (optimized conformer: 89.6782347449229 kcal/mol)

>  <smiles>  (86) 
CCc1cccc(NS(=O)(=O)c2ccc3c(c2)nc(Cc2ccccc2)n3CC)c1

>  <score_type>  (86) 
oracle

>  <origin>  (86) 
adg

>  <m_score__min__energy>  (86) 
-9.6300000000000008

>  <m_primary>  (86) 
energy

$$$$
86:0
     RDKit          3D

 49 51  0  0  0  0  0  0  0  0999 V2000
   61.0770   29.8570   49.0150 C   0  0  0  0  0  0  0  0  0  0  0  0
   59.6930   29.5540   49.3960 N   0  0  0  0  0  0  0  0  0  0  0  0
   58.8920   28.6400   48.5710 C   0  0  0  0  0  0  0  0  0  0  0  0
   59.0770   30.1830   50.5420 C   0  0  0  0  0  0  0  0  0  0  0  0
   57.8380   30.0500   50.7350 O   0  0  0  0  0  0  0  0  0  0  0  0
   59.8770   30.9510   51.5610 C   0  0  0  0  0  0  0  0  0  0  0  0
   60.0510   32.6650   51.0740 S   0  0  0  0  0  0  0  0  0  0  0  0
   58.9050   33.0440   50.1800 O   0  0  0  0  0  0  0  0  0  0  0  0
   60.0140   33.5030   52.3200 O   0  0  0  0  0  0  0  0  0  0  0  0
   61.5730   32.9580   50.2270 C   0  0  0  0  0  0  0  0  0  0  0  0
   62.7890   32.3920   50.5610 C   0  0  0  0  0  0  0  0  0  0  0  0
   63.7140   32.8960   49.6680 C   0  0  0  0  0  0  0  0  0  0  0  0
   63.0310   33.7530   48.8300 C   0  0  0  0  0  0  0  0  0  0  0  0
   61.7290   33.7960   49.1740 N   0  0  0  0  0  0  0  0  0  0  0  0
   60.7080   34.6040   48.5010 C   0  0  0  0  0  0  0  0  0  0  0  0
   59.9730   33.7900   47.4670 C   0  0  0  0  0  0  0  0  0  0  0  0
   60.3330   32.4560   47.2220 C   0  0  0  0  0  0  0  0  0  0  0  0
   59.6450   31.7010   46.2700 C   0  0  0  0  0  0  0  0  0  0  0  0
   58.5670   32.2590   45.5620 C   0  0  0  0  0  0  0  0  0  0  0  0
   57.8330   31.4500   44.5600 C   0  0  0  0  0  0  0  0  0  0  0  0
   57.7250   31.9040   43.2330 C   0  0  0  0  0  0  0  0  0  0  0  0
   57.0430   31.1450   42.2790 C   0  0  0  0  0  0  0  0  0  0  0  0
   56.4670   29.9240   42.6360 C   0  0  0  0  0  0  0  0  0  0  0  0
   56.5690   29.4610   43.9490 C   0  0  0  0  0  0  0  0  0  0  0  0
   57.2480   30.2160   44.9110 C   0  0  0  0  0  0  0  0  0  0  0  0
   57.3650   29.7250   46.1720 F   0  0  0  0  0  0  0  0  0  0  0  0
   58.2010   33.5930   45.8150 C   0  0  0  0  0  0  0  0  0  0  0  0
   58.8990   34.3510   46.7590 C   0  0  0  0  0  0  0  0  0  0  0  0
   61.6860   29.9903   49.9213 H   0  0  0  0  0  0  0  0  0  0  0  0
   61.4834   29.0266   48.4190 H   0  0  0  0  0  0  0  0  0  0  0  0
   61.0993   30.7813   48.4190 H   0  0  0  0  0  0  0  0  0  0  0  0
   58.3081   27.9738   49.2231 H   0  0  0  0  0  0  0  0  0  0  0  0
   58.2085   29.2228   47.9360 H   0  0  0  0  0  0  0  0  0  0  0  0
   59.5595   28.0389   47.9360 H   0  0  0  0  0  0  0  0  0  0  0  0
   59.3640   30.9027   52.5329 H   0  0  0  0  0  0  0  0  0  0  0  0
   60.8786   30.5021   51.6334 H   0  0  0  0  0  0  0  0  0  0  0  0
   62.9819   31.6803   51.3773 H   0  0  0  0  0  0  0  0  0  0  0  0
   64.7877   32.6598   49.6319 H   0  0  0  0  0  0  0  0  0  0  0  0
   63.4833   34.3186   48.0020 H   0  0  0  0  0  0  0  0  0  0  0  0
   59.9889   34.9710   49.2482 H   0  0  0  0  0  0  0  0  0  0  0  0
   61.2030   35.4474   47.9974 H   0  0  0  0  0  0  0  0  0  0  0  0
   61.1627   32.0021   47.7837 H   0  0  0  0  0  0  0  0  0  0  0  0
   59.9489   30.6624   46.0729 H   0  0  0  0  0  0  0  0  0  0  0  0
   58.1805   32.8628   42.9447 H   0  0  0  0  0  0  0  0  0  0  0  0
   56.9595   31.5098   41.2446 H   0  0  0  0  0  0  0  0  0  0  0  0
   55.9327   29.3268   41.8824 H   0  0  0  0  0  0  0  0  0  0  0  0
   56.1139   28.4992   44.2280 H   0  0  0  0  0  0  0  0  0  0  0  0
   57.3602   34.0426   45.2665 H   0  0  0  0  0  0  0  0  0  0  0  0
   58.6048   35.3939   46.9483 H   0  0  0  0  0  0  0  0  0  0  0  0
  1  2  1  0
  2  3  1  0
  2  4  1  0
  4  5  2  0
  4  6  1  0
  6  7  1  0
  7  8  2  0
  7  9  2  0
  7 10  1  0
 10 11  2  0
 11 12  1  0
 12 13  2  0
 13 14  1  0
 14 15  1  0
 15 16  1  0
 16 17  2  0
 17 18  1  0
 18 19  2  0
 19 20  1  0
 20 21  2  0
 21 22  1  0
 22 23  2  0
 23 24  1  0
 24 25  2  0
 25 26  1  0
 19 27  1  0
 27 28  2  0
 14 10  1  0
 28 16  1  0
 25 20  1  0
  1 29  1  0
  1 30  1  0
  1 31  1  0
  3 32  1  0
  3 33  1  0
  3 34  1  0
  6 35  1  0
  6 36  1  0
 11 37  1  0
 12 38  1  0
 13 39  1  0
 15 40  1  0
 15 41  1  0
 17 42  1  0
 18 43  1  0
 21 44  1  0
 22 45  1  0
 23 46  1  0
 24 47  1  0
 27 48  1  0
 28 49  1  0
M  END
>  <UniqueID>  (87) 
77

>  <SMILES>  (87) 
CN(C)C(=O)CS(=O)(=O)c1cccn1Cc1ccc(-c2ccccc2F)cc1

>  <Energy>  (87) 
77.18967191604959

>  <Genealogy>  (87) 
CN(C)C(=O)CS(=O)(=O)c1cccn1Cc1ccc(-c2ccccc2F)cc1 (3D coordinates assigned)
CN(C)C(=O)CS(=O)(=O)c1cccn1Cc1ccc(-c2ccccc2F)cc1 (optimized conformer: 77.18967191604959 kcal/mol)

>  <smiles>  (87) 
CN(C)C(=O)CS(=O)(=O)c1cccn1Cc1ccc(-c2ccccc2F)cc1

>  <score_type>  (87) 
oracle

>  <origin>  (87) 
adg

>  <m_score__min__energy>  (87) 
-8.5899999999999999

>  <m_primary>  (87) 
energy

$$$$
87:0
     RDKit          3D

 30 31  0  0  0  0  0  0  0  0999 V2000
   56.9580   33.4940   46.6290 N   0  0  0  0  0  0  0  0  0  0  0  0
   58.2180   34.0240   46.2130 C   0  0  0  0  0  0  0  0  0  0  0  0
   58.7640   34.9370   46.8870 O   0  0  0  0  0  0  0  0  0  0  0  0
   58.8720   33.5330   44.9550 C   0  0  0  0  0  0  0  0  0  0  0  0
   57.8380   33.0780   43.9180 C   0  0  0  0  0  0  0  0  0  0  0  0
   57.4150   31.6600   44.1520 C   0  0  0  0  0  0  0  0  0  0  0  0
   58.1010   30.5880   43.7150 N   0  0  0  0  0  0  0  0  0  0  0  0
   57.3530   29.5810   44.2110 C   0  0  0  0  0  0  0  0  0  0  0  0
   57.7360   28.1400   44.1000 C   0  0  0  0  0  0  0  0  0  0  0  0
   58.4570   27.7050   45.3510 C   0  0  0  0  0  0  0  0  0  0  0  0
   59.7220   28.2480   45.6360 C   0  0  0  0  0  0  0  0  0  0  0  0
   60.3950   27.9020   46.8100 C   0  0  0  0  0  0  0  0  0  0  0  0
   59.8090   27.0190   47.7190 C   0  0  0  0  0  0  0  0  0  0  0  0
   58.5460   26.4830   47.4570 C   0  0  0  0  0  0  0  0  0  0  0  0
   57.8620   26.8230   46.2830 C   0  0  0  0  0  0  0  0  0  0  0  0
   56.2640   26.1330   46.0210 Cl  0  0  0  0  0  0  0  0  0  0  0  0
   56.2900   30.0190   44.9130 N   0  0  0  0  0  0  0  0  0  0  0  0
   56.3610   31.3130   44.8480 O   0  0  0  0  0  0  0  0  0  0  0  0
   56.4950   33.8520   47.4940 H   0  0  0  0  0  0  0  0  0  0  0  0
   56.4800   32.7520   46.0710 H   0  0  0  0  0  0  0  0  0  0  0  0
   59.4736   34.3473   44.5249 H   0  0  0  0  0  0  0  0  0  0  0  0
   59.5031   32.6693   45.2114 H   0  0  0  0  0  0  0  0  0  0  0  0
   56.9547   33.7302   43.9837 H   0  0  0  0  0  0  0  0  0  0  0  0
   58.2976   33.1416   42.9206 H   0  0  0  0  0  0  0  0  0  0  0  0
   56.8297   27.5303   43.9702 H   0  0  0  0  0  0  0  0  0  0  0  0
   58.4000   28.0065   43.2332 H   0  0  0  0  0  0  0  0  0  0  0  0
   60.1857   28.9512   44.9285 H   0  0  0  0  0  0  0  0  0  0  0  0
   61.3883   28.3259   47.0188 H   0  0  0  0  0  0  0  0  0  0  0  0
   60.3420   26.7454   48.6415 H   0  0  0  0  0  0  0  0  0  0  0  0
   58.0860   25.7900   48.1768 H   0  0  0  0  0  0  0  0  0  0  0  0
  1  2  1  0
  2  3  2  0
  2  4  1  0
  4  5  1  0
  5  6  1  0
  6  7  2  0
  7  8  1  0
  8  9  1  0
  9 10  1  0
 10 11  2  0
 11 12  1  0
 12 13  2  0
 13 14  1  0
 14 15  2  0
 15 16  1  0
  8 17  2  0
 17 18  1  0
 18  6  1  0
 15 10  1  0
  1 19  1  0
  1 20  1  0
  4 21  1  0
  4 22  1  0
  5 23  1  0
  5 24  1  0
  9 25  1  0
  9 26  1  0
 11 27  1  0
 12 28  1  0
 13 29  1  0
 14 30  1  0
M  END
>  <UniqueID>  (88) 
78

>  <SMILES>  (88) 
NC(=O)CCc1nc(Cc2ccccc2Cl)no1

>  <Energy>  (88) 
55.96096067596293

>  <Genealogy>  (88) 
NC(=O)CCc1nc(Cc2ccccc2Cl)no1 (3D coordinates assigned)
NC(=O)CCc1nc(Cc2ccccc2Cl)no1 (optimized conformer: 55.96096067596293 kcal/mol)

>  <smiles>  (88) 
NC(=O)CCc1nc(Cc2ccccc2Cl)no1

>  <score_type>  (88) 
oracle

>  <origin>  (88) 
adg

>  <m_score__min__energy>  (88) 
-7.96

>  <m_primary>  (88) 
energy

$$$$
88:0
     RDKit          3D

 52 56  0  0  0  0  0  0  0  0999 V2000
   55.1440   29.3410   44.8310 O   0  0  0  0  0  0  0  0  0  0  0  0
   56.3410   29.7340   44.8270 C   0  0  0  0  0  0  0  0  0  0  0  0
   56.6180   31.0990   44.4880 N   0  0  0  0  0  0  0  0  0  0  0  0
   57.5230   31.9690   45.1830 C   0  0  0  0  0  0  0  0  0  0  0  0
   57.7970   31.8030   46.5510 C   0  0  0  0  0  0  0  0  0  0  0  0
   58.6900   32.6610   47.1980 C   0  0  0  0  0  0  0  0  0  0  0  0
   59.3250   33.6940   46.4880 C   0  0  0  0  0  0  0  0  0  0  0  0
   60.2590   34.5780   47.1310 N   0  0  0  0  0  0  0  0  0  0  0  0
   61.5430   34.1730   47.6360 C   0  0  0  0  0  0  0  0  0  0  0  0
   61.7850   34.2130   49.0180 C   0  0  0  0  0  0  0  0  0  0  0  0
   63.0180   33.7990   49.5320 C   0  0  0  0  0  0  0  0  0  0  0  0
   64.0130   33.3240   48.6720 C   0  0  0  0  0  0  0  0  0  0  0  0
   63.7720   33.2590   47.2970 C   0  0  0  0  0  0  0  0  0  0  0  0
   62.5420   33.6730   46.7790 C   0  0  0  0  0  0  0  0  0  0  0  0
   59.0920   33.8190   45.1110 C   0  0  0  0  0  0  0  0  0  0  0  0
   58.1980   32.9620   44.4640 C   0  0  0  0  0  0  0  0  0  0  0  0
   57.4070   28.7970   45.2280 C   0  0  0  0  0  0  0  0  0  0  0  0
   58.6700   29.2620   45.5120 N   0  0  0  0  0  0  0  0  0  0  0  0
   59.6700   28.4170   45.8910 C   0  0  0  0  0  0  0  0  0  0  0  0
   60.8240   28.8560   46.1410 O   0  0  0  0  0  0  0  0  0  0  0  0
   59.3730   27.0660   45.9910 C   0  0  0  0  0  0  0  0  0  0  0  0
   60.0980   25.9440   46.3280 C   0  0  0  0  0  0  0  0  0  0  0  0
   59.2740   24.8700   46.2420 N   0  0  0  0  0  0  0  0  0  0  0  0
   58.0630   25.2860   45.8780 N   0  0  0  0  0  0  0  0  0  0  0  0
   56.9450   24.3630   45.6240 C   0  0  0  0  0  0  0  0  0  0  0  0
   56.0040   24.2930   46.8410 C   0  0  0  0  0  0  0  0  0  0  0  0
   56.4860   23.3030   47.9290 C   0  0  0  0  0  0  0  0  0  0  0  0
   57.3810   22.2980   47.4760 O   0  0  0  0  0  0  0  0  0  0  0  0
   57.0610   21.8710   46.1720 C   0  0  0  0  0  0  0  0  0  0  0  0
   57.4200   22.9640   45.1590 C   0  0  0  0  0  0  0  0  0  0  0  0
   58.1220   26.6230   45.7150 C   0  0  0  0  0  0  0  0  0  0  0  0
   57.1280   27.4620   45.3390 N   0  0  0  0  0  0  0  0  0  0  0  0
   57.3070   30.9952   47.1143 H   0  0  0  0  0  0  0  0  0  0  0  0
   58.8972   32.5270   48.2700 H   0  0  0  0  0  0  0  0  0  0  0  0
   59.9830   35.5790   47.2460 H   0  0  0  0  0  0  0  0  0  0  0  0
   61.0006   34.5719   49.7005 H   0  0  0  0  0  0  0  0  0  0  0  0
   63.2054   33.8471   50.6148 H   0  0  0  0  0  0  0  0  0  0  0  0
   64.9837   33.0021   49.0771 H   0  0  0  0  0  0  0  0  0  0  0  0
   64.5527   32.8809   46.6206 H   0  0  0  0  0  0  0  0  0  0  0  0
   62.3534   33.6080   45.6972 H   0  0  0  0  0  0  0  0  0  0  0  0
   59.6164   34.5967   44.5364 H   0  0  0  0  0  0  0  0  0  0  0  0
   58.0237   33.0684   43.3831 H   0  0  0  0  0  0  0  0  0  0  0  0
   61.1593   25.9228   46.6163 H   0  0  0  0  0  0  0  0  0  0  0  0
   56.3667   24.7716   44.7822 H   0  0  0  0  0  0  0  0  0  0  0  0
   55.9345   25.2960   47.2872 H   0  0  0  0  0  0  0  0  0  0  0  0
   55.0294   23.9326   46.4801 H   0  0  0  0  0  0  0  0  0  0  0  0
   56.9931   23.8814   48.7153 H   0  0  0  0  0  0  0  0  0  0  0  0
   55.5876   22.7759   48.2827 H   0  0  0  0  0  0  0  0  0  0  0  0
   57.6278   20.9577   45.9385 H   0  0  0  0  0  0  0  0  0  0  0  0
   55.9819   21.6657   46.1141 H   0  0  0  0  0  0  0  0  0  0  0  0
   58.5122   22.9842   45.0302 H   0  0  0  0  0  0  0  0  0  0  0  0
   56.9125   22.7298   44.2116 H   0  0  0  0  0  0  0  0  0  0  0  0
  1  2  2  0
  2  3  1  0
  3  4  1  0
  4  5  2  0
  5  6  1  0
  6  7  2  0
  7  8  1  0
  8  9  1  0
  9 10  2  0
 10 11  1  0
 11 12  2  0
 12 13  1  0
 13 14  2  0
  7 15  1  0
 15 16  2  0
  2 17  1  0
 17 18  2  0
 18 19  1  0
 19 20  2  0
 19 21  1  0
 21 22  1  0
 22 23  2  0
 23 24  1  0
 24 25  1  0
 25 26  1  0
 26 27  1  0
 27 28  1  0
 28 29  1  0
 29 30  1  0
 24 31  1  0
 31 32  1  0
 16  4  1  0
 32 17  1  0
 14  9  1  0
 31 21  2  0
 30 25  1  0
  5 33  1  0
  6 34  1  0
  8 35  1  0
 10 36  1  0
 11 37  1  0
 12 38  1  0
 13 39  1  0
 14 40  1  0
 15 41  1  0
 16 42  1  0
 22 43  1  0
 25 44  1  0
 26 45  1  0
 26 46  1  0
 27 47  1  0
 27 48  1  0
 29 49  1  0
 29 50  1  0
 30 51  1  0
 30 52  1  0
M  CHG  2   3  -1  32  -1
M  END
>  <UniqueID>  (89) 
79

>  <SMILES>  (89) 
O=C([N-]c1ccc(Nc2ccccc2)cc1)c1nc(=O)c2cnn(C3CCOCC3)c2[n-]1

>  <Energy>  (89) 
119.49308660619161

>  <Genealogy>  (89) 
O=C([N-]c1ccc(Nc2ccccc2)cc1)c1nc(=O)c2cnn(C3CCOCC3)c2[n-]1 (protonated)
O=C([N-]c1ccc(Nc2ccccc2)cc1)c1nc(=O)c2cnn(C3CCOCC3)c2[n-]1 (3D coordinates assigned)
O=C([N-]c1ccc(Nc2ccccc2)cc1)c1nc(=O)c2cnn(C3CCOCC3)c2[n-]1 (nonaromatic ring conformer: 119.49308660619161 kcal/mol)

>  <smiles>  (89) 
O=C(Nc1ccc(Nc2ccccc2)cc1)c1nc(=O)c2cnn(C3CCOCC3)c2[nH]1

>  <score_type>  (89) 
oracle

>  <origin>  (89) 
adg

>  <m_score__min__energy>  (89) 
-12.529999999999999

>  <m_primary>  (89) 
energy

$$$$
89:0
     RDKit          3D

 37 39  0  0  0  0  0  0  0  0999 V2000
   60.4670   27.4670   46.2120 O   0  0  0  0  0  0  0  0  0  0  0  0
   59.8000   28.4410   46.6550 C   0  0  0  0  0  0  0  0  0  0  0  0
   60.2200   29.1030   47.8560 N   0  0  0  0  0  0  0  0  0  0  0  0
   60.7320   30.4410   47.9660 C   0  0  0  0  0  0  0  0  0  0  0  0
   61.7640   30.9030   47.1290 C   0  0  0  0  0  0  0  0  0  0  0  0
   62.2280   32.2150   47.2400 C   0  0  0  0  0  0  0  0  0  0  0  0
   61.6610   33.0830   48.1730 C   0  0  0  0  0  0  0  0  0  0  0  0
   60.6170   32.6470   48.9960 C   0  0  0  0  0  0  0  0  0  0  0  0
   59.9190   33.7780   50.1480 Cl  0  0  0  0  0  0  0  0  0  0  0  0
   60.1440   31.3270   48.8890 C   0  0  0  0  0  0  0  0  0  0  0  0
   58.8240   30.7690   49.9160 Cl  0  0  0  0  0  0  0  0  0  0  0  0
   58.5520   28.8590   45.9570 C   0  0  0  0  0  0  0  0  0  0  0  0
   58.4870   30.1130   45.3290 C   0  0  0  0  0  0  0  0  0  0  0  0
   57.3560   30.5210   44.6800 N   0  0  0  0  0  0  0  0  0  0  0  0
   57.3240   31.8590   44.0650 C   0  0  0  0  0  0  0  0  0  0  0  0
   57.9620   32.8700   44.9800 C   0  0  0  0  0  0  0  0  0  0  0  0
   58.8750   33.8120   44.4770 C   0  0  0  0  0  0  0  0  0  0  0  0
   59.4380   34.7700   45.3250 C   0  0  0  0  0  0  0  0  0  0  0  0
   59.0890   34.8000   46.6780 C   0  0  0  0  0  0  0  0  0  0  0  0
   58.1740   33.8720   47.1850 C   0  0  0  0  0  0  0  0  0  0  0  0
   57.6090   32.9120   46.3400 C   0  0  0  0  0  0  0  0  0  0  0  0
   56.2570   29.7040   44.6540 C   0  0  0  0  0  0  0  0  0  0  0  0
   55.1970   30.0650   44.0740 O   0  0  0  0  0  0  0  0  0  0  0  0
   56.2960   28.4900   45.2540 N   0  0  0  0  0  0  0  0  0  0  0  0
   57.4030   28.0470   45.8990 C   0  0  0  0  0  0  0  0  0  0  0  0
   57.3780   26.9090   46.4380 O   0  0  0  0  0  0  0  0  0  0  0  0
   62.2076   30.2270   46.3832 H   0  0  0  0  0  0  0  0  0  0  0  0
   63.0432   32.5652   46.5897 H   0  0  0  0  0  0  0  0  0  0  0  0
   62.0358   34.1134   48.2620 H   0  0  0  0  0  0  0  0  0  0  0  0
   59.3621   30.7788   45.3600 H   0  0  0  0  0  0  0  0  0  0  0  0
   57.8737   31.8338   43.1125 H   0  0  0  0  0  0  0  0  0  0  0  0
   56.2771   32.1467   43.8884 H   0  0  0  0  0  0  0  0  0  0  0  0
   59.1479   33.7956   43.4115 H   0  0  0  0  0  0  0  0  0  0  0  0
   60.1568   35.5013   44.9269 H   0  0  0  0  0  0  0  0  0  0  0  0
   59.5341   35.5537   47.3442 H   0  0  0  0  0  0  0  0  0  0  0  0
   57.8985   33.8973   48.2496 H   0  0  0  0  0  0  0  0  0  0  0  0
   56.8855   32.1869   46.7410 H   0  0  0  0  0  0  0  0  0  0  0  0
  1  2  2  0
  2  3  1  0
  3  4  1  0
  4  5  2  0
  5  6  1  0
  6  7  2  0
  7  8  1  0
  8  9  1  0
  8 10  2  0
 10 11  1  0
  2 12  1  0
 12 13  2  0
 13 14  1  0
 14 15  1  0
 15 16  1  0
 16 17  2  0
 17 18  1  0
 18 19  2  0
 19 20  1  0
 20 21  2  0
 14 22  1  0
 22 23  2  0
 22 24  1  0
 24 25  1  0
 25 26  2  0
 10  4  1  0
 25 12  1  0
 21 16  1  0
  5 27  1  0
  6 28  1  0
  7 29  1  0
 13 30  1  0
 15 31  1  0
 15 32  1  0
 17 33  1  0
 18 34  1  0
 19 35  1  0
 20 36  1  0
 21 37  1  0
M  CHG  2   3  -1  24  -1
M  END
>  <UniqueID>  (90) 
80

>  <SMILES>  (90) 
O=C([N-]c1cccc(Cl)c1Cl)c1cn(Cc2ccccc2)c(=O)[n-]c1=O

>  <Energy>  (90) 
49.620949179368395

>  <Genealogy>  (90) 
O=C([N-]c1cccc(Cl)c1Cl)c1cn(Cc2ccccc2)c(=O)[n-]c1=O (protonated)
O=C([N-]c1cccc(Cl)c1Cl)c1cn(Cc2ccccc2)c(=O)[n-]c1=O (3D coordinates assigned)
O=C([N-]c1cccc(Cl)c1Cl)c1cn(Cc2ccccc2)c(=O)[n-]c1=O (optimized conformer: 49.620949179368395 kcal/mol)

>  <smiles>  (90) 
O=C(Nc1cccc(Cl)c1Cl)c1cn(Cc2ccccc2)c(=O)[nH]c1=O

>  <score_type>  (90) 
oracle

>  <origin>  (90) 
adg

>  <m_score__min__energy>  (90) 
-10.869999999999999

>  <m_primary>  (90) 
energy

$$$$
90:0
     RDKit          3D

 48 51  0  0  0  0  0  0  0  0999 V2000
   55.1550   27.5180   45.2510 H   0  0  0  0  0  0  0  0  0  0  0  0
   55.4230   26.8200   45.9060 O   0  0  0  0  0  0  0  0  0  0  0  0
   56.8010   26.5970   45.7440 C   0  0  2  0  0  0  0  0  0  0  0  0
   57.0855   26.7455   44.6919 H   0  0  0  0  0  0  0  0  0  0  0  0
   57.1410   25.1430   46.0900 C   0  0  0  0  0  0  0  0  0  0  0  0
   57.1690   25.0231   47.1831 H   0  0  0  0  0  0  0  0  0  0  0  0
   56.3744   24.4767   45.6676 H   0  0  0  0  0  0  0  0  0  0  0  0
   58.1235   24.8857   45.6676 H   0  0  0  0  0  0  0  0  0  0  0  0
   57.6080   27.6260   46.5630 C   0  0  0  0  0  0  0  0  0  0  0  0
   57.4344   27.4462   47.6342 H   0  0  0  0  0  0  0  0  0  0  0  0
   58.6731   27.5073   46.3148 H   0  0  0  0  0  0  0  0  0  0  0  0
   57.2090   28.9990   46.2390 N   0  0  0  0  0  0  0  0  0  0  0  0
   57.1250   29.6530   45.1070 C   0  0  0  0  0  0  0  0  0  0  0  0
   57.5650   30.9930   44.9160 C   0  0  0  0  0  0  0  0  0  0  0  0
   58.1050   31.7350   45.9180 N   0  0  0  0  0  0  0  0  0  0  0  0
   58.5330   33.0090   45.7260 C   0  0  0  0  0  0  0  0  0  0  0  0
   59.0260   33.6690   46.7330 N   0  0  0  0  0  0  0  0  0  0  0  0
   60.1980   33.3350   47.4940 C   0  0  0  0  0  0  0  0  0  0  0  0
   60.4290   33.8580   48.7790 C   0  0  0  0  0  0  0  0  0  0  0  0
   59.6842   34.5230   49.2406 H   0  0  0  0  0  0  0  0  0  0  0  0
   61.5990   33.5380   49.4730 C   0  0  0  0  0  0  0  0  0  0  0  0
   61.7607   33.9395   50.4843 H   0  0  0  0  0  0  0  0  0  0  0  0
   62.5710   32.7070   48.8890 C   0  0  0  0  0  0  0  0  0  0  0  0
   63.8150   32.3660   49.6260 C   0  0  0  0  0  0  0  0  0  0  0  0
   63.8290   31.3050   50.5520 C   0  0  0  0  0  0  0  0  0  0  0  0
   62.9122   30.7245   50.7322 H   0  0  0  0  0  0  0  0  0  0  0  0
   65.0020   30.9850   51.2440 C   0  0  0  0  0  0  0  0  0  0  0  0
   65.0052   30.1526   51.9630 H   0  0  0  0  0  0  0  0  0  0  0  0
   66.1690   31.7200   51.0240 C   0  0  0  0  0  0  0  0  0  0  0  0
   67.0892   31.4684   51.5716 H   0  0  0  0  0  0  0  0  0  0  0  0
   66.1670   32.7750   50.1080 C   0  0  0  0  0  0  0  0  0  0  0  0
   67.0869   33.3527   49.9343 H   0  0  0  0  0  0  0  0  0  0  0  0
   64.9990   33.0980   49.4120 C   0  0  0  0  0  0  0  0  0  0  0  0
   65.0044   33.9297   48.6921 H   0  0  0  0  0  0  0  0  0  0  0  0
   62.3510   32.2130   47.5910 C   0  0  0  0  0  0  0  0  0  0  0  0
   63.1063   31.5693   47.1165 H   0  0  0  0  0  0  0  0  0  0  0  0
   61.1790   32.5340   46.8990 C   0  0  0  0  0  0  0  0  0  0  0  0
   61.0270   32.1536   45.8781 H   0  0  0  0  0  0  0  0  0  0  0  0
   58.4000   33.5840   44.4990 N   0  0  0  0  0  0  0  0  0  0  0  0
   57.8630   32.9000   43.4590 C   0  0  0  0  0  0  0  0  0  0  0  0
   57.7688   33.3804   42.4739 H   0  0  0  0  0  0  0  0  0  0  0  0
   57.4290   31.5830   43.6400 C   0  0  0  0  0  0  0  0  0  0  0  0
   56.8650   30.8590   42.5890 C   0  0  0  0  0  0  0  0  0  0  0  0
   56.7612   31.3135   41.5927 H   0  0  0  0  0  0  0  0  0  0  0  0
   56.4360   29.5570   42.8160 C   0  0  0  0  0  0  0  0  0  0  0  0
   55.9857   28.9793   41.9953 H   0  0  0  0  0  0  0  0  0  0  0  0
   56.5690   28.9920   44.0460 N   0  0  0  0  0  0  0  0  0  0  0  0
   56.2360   28.0090   44.1710 H   0  0  0  0  0  0  0  0  0  0  0  0
  1  2  1  0
  2  3  1  0
  3  4  1  6
  3  5  1  0
  5  6  1  0
  5  7  1  0
  5  8  1  0
  3  9  1  0
  9 10  1  0
  9 11  1  0
  9 12  1  0
 12 13  2  0
 13 14  1  0
 14 15  2  0
 15 16  1  0
 16 17  2  0
 17 18  1  0
 18 19  2  0
 19 20  1  0
 19 21  1  0
 21 22  1  0
 21 23  2  0
 23 24  1  0
 24 25  2  0
 25 26  1  0
 25 27  1  0
 27 28  1  0
 27 29  2  0
 29 30  1  0
 29 31  1  0
 31 32  1  0
 31 33  2  0
 33 34  1  0
 23 35  1  0
 35 36  1  0
 35 37  2  0
 37 38  1  0
 16 39  1  0
 39 40  1  0
 40 41  1  0
 40 42  2  0
 42 43  1  0
 43 44  1  0
 43 45  2  0
 45 46  1  0
 45 47  1  0
 47 48  1  0
 47 13  1  0
 42 14  1  0
 37 18  1  0
 33 24  1  0
M  CHG  1  39  -1
M  END
>  <UniqueID>  (91) 
81

>  <SMILES>  (91) 
C[C@@H](O)C/N=c1/[nH]ccc2c[n-]/c(=N\c3ccc(-c4ccccc4)cc3)nc12

>  <Energy>  (91) 
74.64055091496616

>  <Genealogy>  (91) 
CC(O)CN=c1[nH]ccc2c[n-]c(=Nc3ccc(-c4ccccc4)cc3)nc12 (protonated)
C[C@@H](O)CN=c1[nH]ccc2c[n-]c(=Nc3ccc(-c4ccccc4)cc3)nc12 (chirality)
C[C@@H](O)C/N=c1/[nH]ccc2c[n-]/c(=N\c3ccc(-c4ccccc4)cc3)nc12 (cis-trans isomerization)
C[C@@H](O)C/N=c1/[nH]ccc2c[n-]/c(=N\c3ccc(-c4ccccc4)cc3)nc12 (3D coordinates assigned)
C[C@@H](O)C/N=c1/[nH]ccc2c[n-]/c(=N\c3ccc(-c4ccccc4)cc3)nc12 (optimized conformer: 74.64055091496616 kcal/mol)

>  <smiles>  (91) 
CC(O)CN=c1[nH]ccc2c[nH]c(=Nc3ccc(-c4ccccc4)cc3)nc12

>  <score_type>  (91) 
oracle

>  <origin>  (91) 
adg

>  <m_score__min__energy>  (91) 
-10.710000000000001

>  <m_primary>  (91) 
energy

$$$$
91:0
     RDKit          3D

 35 37  0  0  1  0  0  0  0  0999 V2000
   55.5560   25.9380   45.9180 N   0  0  0  0  0  0  0  0  0  0  0  0
   56.4160   26.9120   45.9570 C   0  0  0  0  0  0  0  0  0  0  0  0
   57.6160   26.8110   46.5530 N   0  0  0  0  0  0  0  0  0  0  0  0
   58.5090   27.8040   46.5980 C   0  0  0  0  0  0  0  0  0  0  0  0
   59.7710   27.6310   47.2950 C   0  0  0  0  0  0  0  0  0  0  0  0
   60.3890   26.5360   47.1530 O   0  0  0  0  0  0  0  0  0  0  0  0
   60.3920   28.6230   48.1560 C   0  0  0  0  0  0  0  0  0  0  0  0
   60.7270   29.8970   47.7570 C   0  0  0  0  0  0  0  0  0  0  0  0
   61.2960   30.8300   48.6190 C   0  0  0  0  0  0  0  0  0  0  0  0
   61.5190   30.4240   49.9140 C   0  0  0  0  0  0  0  0  0  0  0  0
   61.2080   29.1630   50.3830 C   0  0  0  0  0  0  0  0  0  0  0  0
   60.6460   28.2830   49.4810 C   0  0  0  0  0  0  0  0  0  0  0  0
   58.1450   28.9620   45.9960 N   0  0  0  0  0  0  0  0  0  0  0  0
   56.9340   29.0970   45.3820 C   0  0  0  0  0  0  0  0  0  0  0  0
   56.6210   30.2090   44.8360 N   0  0  0  0  0  0  0  0  0  0  0  0
   57.3540   31.4030   45.1090 C   0  0  0  0  0  0  0  0  0  0  0  0
   57.6500   32.2250   44.0340 C   0  0  0  0  0  0  0  0  0  0  0  0
   58.3620   33.4050   44.2510 C   0  0  0  0  0  0  0  0  0  0  0  0
   58.7750   33.7660   45.5320 C   0  0  0  0  0  0  0  0  0  0  0  0
   59.6670   35.2530   45.7830 Cl  0  0  0  0  0  0  0  0  0  0  0  0
   58.4760   32.9460   46.5950 C   0  0  0  0  0  0  0  0  0  0  0  0
   57.7660   31.7670   46.3750 C   0  0  0  0  0  0  0  0  0  0  0  0
   56.0640   28.0870   45.3550 N   0  0  0  0  0  0  0  0  0  0  0  0
   55.1460   25.5280   46.7860 H   0  0  0  0  0  0  0  0  0  0  0  0
   60.5372   30.1899   46.7138 H   0  0  0  0  0  0  0  0  0  0  0  0
   61.5551   31.8441   48.2805 H   0  0  0  0  0  0  0  0  0  0  0  0
   61.9696   31.1428   50.6142 H   0  0  0  0  0  0  0  0  0  0  0  0
   61.3993   28.8736   51.4269 H   0  0  0  0  0  0  0  0  0  0  0  0
   60.3880   27.2702   49.8239 H   0  0  0  0  0  0  0  0  0  0  0  0
   58.7460   29.7870   45.9860 H   0  0  0  0  0  0  0  0  0  0  0  0
   57.3268   31.9500   43.0191 H   0  0  0  0  0  0  0  0  0  0  0  0
   58.6006   34.0592   43.3995 H   0  0  0  0  0  0  0  0  0  0  0  0
   58.7950   33.2188   47.6118 H   0  0  0  0  0  0  0  0  0  0  0  0
   57.5292   31.1134   47.2275 H   0  0  0  0  0  0  0  0  0  0  0  0
   55.1540   28.2200   44.8780 H   0  0  0  0  0  0  0  0  0  0  0  0
  1  2  2  3
  2  3  1  0
  3  4  2  0
  4  5  1  0
  5  6  2  0
  5  7  1  0
  7  8  2  0
  8  9  1  0
  9 10  2  0
 10 11  1  0
 11 12  2  0
  4 13  1  0
 13 14  1  0
 14 15  2  0
 15 16  1  0
 16 17  2  0
 17 18  1  0
 18 19  2  0
 19 20  1  0
 19 21  1  0
 21 22  2  0
 14 23  1  0
 23  2  1  0
 12  7  1  0
 22 16  1  0
  1 24  1  0
  8 25  1  0
  9 26  1  0
 10 27  1  0
 11 28  1  0
 12 29  1  0
 13 30  1  0
 17 31  1  0
 18 32  1  0
 21 33  1  0
 22 34  1  0
 23 35  1  0
M  END
>  <smiles>  (92) 
N=c1nc(C(=O)c2ccccc2)[nH]c(=Nc2ccc(Cl)cc2)[nH]1

>  <score_type>  (92) 
oracle

>  <origin>  (92) 
adg

>  <m_score__min__energy>  (92) 
-7.79

>  <m_primary>  (92) 
energy

$$$$
92:0
     RDKit          3D

 42 45  0  0  1  0  0  0  0  0999 V2000
   54.2430   23.7320   45.6590 C   0  0  0  0  0  0  0  0  0  0  0  0
   55.5020   23.6410   46.4490 C   0  0  0  0  0  0  0  0  0  0  0  0
   56.2770   24.9210   46.4530 C   0  0  0  0  0  0  0  0  0  0  0  0
   57.2190   25.3370   47.3180 N   0  0  0  0  0  0  0  0  0  0  0  0
   57.6620   26.5610   46.9450 C   0  0  0  0  0  0  0  0  0  0  0  0
   58.6830   27.3500   47.6290 C   0  0  0  0  0  0  0  0  0  0  0  0
   58.4950   28.6990   47.8070 C   0  0  0  0  0  0  0  0  0  0  0  0
   59.4620   29.4350   48.4530 C   0  0  0  0  0  0  0  0  0  0  0  0
   60.5980   28.7940   48.9060 C   0  0  0  0  0  0  0  0  0  0  0  0
   61.5830   29.4940   49.5540 F   0  0  0  0  0  0  0  0  0  0  0  0
   60.7950   27.4370   48.7310 C   0  0  0  0  0  0  0  0  0  0  0  0
   59.8190   26.7060   48.0820 C   0  0  0  0  0  0  0  0  0  0  0  0
   56.9440   26.8810   45.8040 C   0  0  0  0  0  0  0  0  0  0  0  0
   57.1070   28.1440   45.0520 C   0  0  0  0  0  0  0  0  0  0  0  0
   57.5460   28.2810   43.7790 N   0  0  0  0  0  0  0  0  0  0  0  0
   57.5240   29.5810   43.5410 N   0  0  0  0  0  0  0  0  0  0  0  0
   57.0840   30.2260   44.6340 C   0  0  0  0  0  0  0  0  0  0  0  0
   56.9530   31.4880   44.7100 N   0  0  0  0  0  0  0  0  0  0  0  0
   57.7500   32.2870   45.5470 C   0  0  0  0  0  0  0  0  0  0  0  0
   58.9080   31.6930   46.0650 C   0  0  0  0  0  0  0  0  0  0  0  0
   59.7650   32.3770   46.8960 C   0  0  0  0  0  0  0  0  0  0  0  0
   59.5180   33.6820   47.2520 C   0  0  0  0  0  0  0  0  0  0  0  0
   60.6220   34.5170   48.3030 Cl  0  0  0  0  0  0  0  0  0  0  0  0
   58.3660   34.2790   46.7370 C   0  0  0  0  0  0  0  0  0  0  0  0
   57.5070   33.5770   45.8990 C   0  0  0  0  0  0  0  0  0  0  0  0
   56.8310   29.3370   45.5530 O   0  0  0  0  0  0  0  0  0  0  0  0
   56.0930   25.8630   45.5090 N   0  0  0  0  0  0  0  0  0  0  0  0
   53.3842   23.7941   46.3436 H   0  0  0  0  0  0  0  0  0  0  0  0
   54.2721   24.6304   45.0249 H   0  0  0  0  0  0  0  0  0  0  0  0
   54.1426   22.8388   45.0249 H   0  0  0  0  0  0  0  0  0  0  0  0
   55.2477   23.3807   47.4871 H   0  0  0  0  0  0  0  0  0  0  0  0
   56.1334   22.8726   45.9790 H   0  0  0  0  0  0  0  0  0  0  0  0
   57.5808   29.1861   47.4370 H   0  0  0  0  0  0  0  0  0  0  0  0
   59.3320   30.5165   48.6060 H   0  0  0  0  0  0  0  0  0  0  0  0
   61.7093   26.9498   49.1006 H   0  0  0  0  0  0  0  0  0  0  0  0
   59.9444   25.6241   47.9275 H   0  0  0  0  0  0  0  0  0  0  0  0
   57.8110   30.0080   42.6300 H   0  0  0  0  0  0  0  0  0  0  0  0
   59.1386   30.6506   45.8000 H   0  0  0  0  0  0  0  0  0  0  0  0
   60.6626   31.8716   47.2820 H   0  0  0  0  0  0  0  0  0  0  0  0
   58.1341   35.3220   46.9985 H   0  0  0  0  0  0  0  0  0  0  0  0
   56.6080   34.0783   45.5111 H   0  0  0  0  0  0  0  0  0  0  0  0
   55.4200   25.8290   44.6900 H   0  0  0  0  0  0  0  0  0  0  0  0
  1  2  1  0
  2  3  1  0
  3  4  2  0
  4  5  1  0
  5  6  1  0
  6  7  2  0
  7  8  1  0
  8  9  2  0
  9 10  1  0
  9 11  1  0
 11 12  2  0
  5 13  2  0
 13 14  1  0
 14 15  2  0
 15 16  1  0
 16 17  1  0
 17 18  2  0
 18 19  1  0
 19 20  2  0
 20 21  1  0
 21 22  2  0
 22 23  1  0
 22 24  1  0
 24 25  2  0
 17 26  1  0
 13 27  1  0
 27  3  1  0
 12  6  1  0
 26 14  1  0
 25 19  1  0
  1 28  1  0
  1 29  1  0
  1 30  1  0
  2 31  1  0
  2 32  1  0
  7 33  1  0
  8 34  1  0
 11 35  1  0
 12 36  1  0
 16 37  1  0
 20 38  1  0
 21 39  1  0
 24 40  1  0
 25 41  1  0
 27 42  1  0
M  END
>  <smiles>  (93) 
CCc1nc(-c2ccc(F)cc2)c(-c2n[nH]c(=Nc3ccc(Cl)cc3)o2)[nH]1

>  <score_type>  (93) 
oracle

>  <origin>  (93) 
adg

>  <m_score__min__energy>  (93) 
-8.0700000000000003

>  <m_primary>  (93) 
energy

$$$$
93:0
     RDKit          3D

 45 47  0  0  0  0  0  0  0  0999 V2000
   55.7020   24.8230   46.9240 O   0  0  0  0  0  0  0  0  0  0  0  0
   57.0050   24.1580   46.5780 S   0  0  0  0  0  0  0  0  0  0  0  0
   57.3800   23.2060   47.6790 O   0  0  0  0  0  0  0  0  0  0  0  0
   58.2360   25.3710   46.4190 N   0  0  0  0  0  0  0  0  0  0  0  0
   57.9920   26.6220   45.7590 C   0  0  0  0  0  0  0  0  0  0  0  0
   56.7110   27.1910   45.8070 C   0  0  0  0  0  0  0  0  0  0  0  0
   56.4760   28.4490   45.2490 C   0  0  0  0  0  0  0  0  0  0  0  0
   57.5150   29.1500   44.6240 C   0  0  0  0  0  0  0  0  0  0  0  0
   57.2480   30.7860   44.0200 S   0  0  0  0  0  0  0  0  0  0  0  0
   55.9140   31.2830   44.5040 O   0  0  0  0  0  0  0  0  0  0  0  0
   57.2200   30.7620   42.5160 O   0  0  0  0  0  0  0  0  0  0  0  0
   58.5010   31.8770   44.5710 N   0  0  0  0  0  0  0  0  0  0  0  0
   58.2530   33.2670   44.1130 C   0  0  0  0  0  0  0  0  0  0  0  0
   57.6900   34.1710   45.2210 C   0  0  0  0  0  0  0  0  0  0  0  0
   58.6440   34.2320   46.4270 C   0  0  0  0  0  0  0  0  0  0  0  0
   59.4540   32.9370   46.6110 C   0  0  0  0  0  0  0  0  0  0  0  0
   58.7060   31.7330   46.0290 C   0  0  0  0  0  0  0  0  0  0  0  0
   58.7820   28.5610   44.5250 C   0  0  0  0  0  0  0  0  0  0  0  0
   59.0200   27.3060   45.0890 C   0  0  0  0  0  0  0  0  0  0  0  0
   56.8670   23.2570   45.0700 C   0  0  0  0  0  0  0  0  0  0  0  0
   55.9560   23.6520   44.0810 C   0  0  0  0  0  0  0  0  0  0  0  0
   55.8850   22.9530   42.8710 C   0  0  0  0  0  0  0  0  0  0  0  0
   56.7230   21.8560   42.6470 C   0  0  0  0  0  0  0  0  0  0  0  0
   57.6300   21.4560   43.6310 C   0  0  0  0  0  0  0  0  0  0  0  0
   57.7010   22.1520   44.8420 C   0  0  0  0  0  0  0  0  0  0  0  0
   59.2220   25.0780   46.6030 H   0  0  0  0  0  0  0  0  0  0  0  0
   55.8868   26.6430   46.2870 H   0  0  0  0  0  0  0  0  0  0  0  0
   55.4703   28.8916   45.3005 H   0  0  0  0  0  0  0  0  0  0  0  0
   59.2029   33.6948   43.7599 H   0  0  0  0  0  0  0  0  0  0  0  0
   57.5013   33.2209   43.3112 H   0  0  0  0  0  0  0  0  0  0  0  0
   57.5523   35.1862   44.8206 H   0  0  0  0  0  0  0  0  0  0  0  0
   56.7295   33.7534   45.5571 H   0  0  0  0  0  0  0  0  0  0  0  0
   59.3446   35.0670   46.2793 H   0  0  0  0  0  0  0  0  0  0  0  0
   58.0299   34.3701   47.3291 H   0  0  0  0  0  0  0  0  0  0  0  0
   60.4212   33.0419   46.0976 H   0  0  0  0  0  0  0  0  0  0  0  0
   59.6048   32.7684   47.6875 H   0  0  0  0  0  0  0  0  0  0  0  0
   59.2918   30.8217   46.2196 H   0  0  0  0  0  0  0  0  0  0  0  0
   57.7198   31.6719   46.5125 H   0  0  0  0  0  0  0  0  0  0  0  0
   59.5924   29.0890   44.0011 H   0  0  0  0  0  0  0  0  0  0  0  0
   60.0180   26.8504   45.0082 H   0  0  0  0  0  0  0  0  0  0  0  0
   55.2952   24.5137   44.2564 H   0  0  0  0  0  0  0  0  0  0  0  0
   55.1701   23.2663   42.0959 H   0  0  0  0  0  0  0  0  0  0  0  0
   56.6678   21.3077   41.6950 H   0  0  0  0  0  0  0  0  0  0  0  0
   58.2888   20.5932   43.4534 H   0  0  0  0  0  0  0  0  0  0  0  0
   58.4125   21.8323   45.6176 H   0  0  0  0  0  0  0  0  0  0  0  0
  1  2  2  0
  2  3  2  0
  2  4  1  0
  4  5  1  0
  5  6  2  0
  6  7  1  0
  7  8  2  0
  8  9  1  0
  9 10  2  0
  9 11  2  0
  9 12  1  0
 12 13  1  0
 13 14  1  0
 14 15  1  0
 15 16  1  0
 16 17  1  0
  8 18  1  0
 18 19  2  0
  2 20  1  0
 20 21  2  0
 21 22  1  0
 22 23  2  0
 23 24  1  0
 24 25  2  0
 19  5  1  0
 25 20  1  0
 17 12  1  0
  4 26  1  0
  6 27  1  0
  7 28  1  0
 13 29  1  0
 13 30  1  0
 14 31  1  0
 14 32  1  0
 15 33  1  0
 15 34  1  0
 16 35  1  0
 16 36  1  0
 17 37  1  0
 17 38  1  0
 18 39  1  0
 19 40  1  0
 21 41  1  0
 22 42  1  0
 23 43  1  0
 24 44  1  0
 25 45  1  0
M  END
>  <UniqueID>  (94) 
82

>  <SMILES>  (94) 
O=S(=O)(Nc1ccc(S(=O)(=O)N2CCCCC2)cc1)c1ccccc1

>  <Energy>  (94) 
51.736382127139855

>  <Genealogy>  (94) 
O=S(=O)(Nc1ccc(S(=O)(=O)N2CCCCC2)cc1)c1ccccc1 (3D coordinates assigned)
O=S(=O)(Nc1ccc(S(=O)(=O)N2CCCCC2)cc1)c1ccccc1 (nonaromatic ring conformer: 51.736382127139855 kcal/mol)

>  <smiles>  (94) 
O=S(=O)(Nc1ccc(S(=O)(=O)N2CCCCC2)cc1)c1ccccc1

>  <score_type>  (94) 
oracle

>  <origin>  (94) 
adg

>  <m_score__min__energy>  (94) 
-9.5500000000000007

>  <m_primary>  (94) 
energy

$$$$
94:0
     RDKit          3D

 44 46  0  0  0  0  0  0  0  0999 V2000
   60.5780   30.1490   46.8940 C   0  0  0  0  0  0  0  0  0  0  0  0
   60.0820   30.0420   48.3260 C   0  0  0  0  0  0  0  0  0  0  0  0
   59.0060   30.9540   48.5240 O   0  0  0  0  0  0  0  0  0  0  0  0
   58.8830   31.8120   49.6280 C   0  0  0  0  0  0  0  0  0  0  0  0
   57.9200   31.6020   50.6350 C   0  0  0  0  0  0  0  0  0  0  0  0
   57.8370   32.4760   51.7240 C   0  0  0  0  0  0  0  0  0  0  0  0
   58.7100   33.5600   51.8210 C   0  0  0  0  0  0  0  0  0  0  0  0
   59.6680   33.7770   50.8280 C   0  0  0  0  0  0  0  0  0  0  0  0
   59.7540   32.9130   49.7260 C   0  0  0  0  0  0  0  0  0  0  0  0
   60.7390   33.1550   48.7050 N   0  0  0  0  0  0  0  0  0  0  0  0
   62.0460   32.8280   48.9420 C   0  0  0  0  0  0  0  0  0  0  0  0
   62.4270   32.2600   50.1550 O   0  0  0  0  0  0  0  0  0  0  0  0
   63.0170   33.0570   47.9670 C   0  0  0  0  0  0  0  0  0  0  0  0
   62.6260   33.6160   46.7540 C   0  0  0  0  0  0  0  0  0  0  0  0
   63.4750   33.8320   45.8510 O   0  0  0  0  0  0  0  0  0  0  0  0
   61.3240   33.9300   46.5470 N   0  0  0  0  0  0  0  0  0  0  0  0
   60.3820   33.7140   47.5020 C   0  0  0  0  0  0  0  0  0  0  0  0
   58.6840   34.2070   47.1460 S   0  0  0  0  0  0  0  0  0  0  0  0
   58.2500   32.6550   46.2870 C   0  0  0  0  0  0  0  0  0  0  0  0
   57.4230   32.9330   45.0710 C   0  0  0  0  0  0  0  0  0  0  0  0
   57.0040   34.1030   44.8630 O   0  0  0  0  0  0  0  0  0  0  0  0
   57.0940   31.8540   44.1830 N   0  0  0  0  0  0  0  0  0  0  0  0
   56.7740   30.6360   44.5080 C   0  0  0  0  0  0  0  0  0  0  0  0
   57.6250   29.6180   44.9080 C   0  0  0  0  0  0  0  0  0  0  0  0
   56.7570   28.5750   45.1590 C   0  0  0  0  0  0  0  0  0  0  0  0
   57.1370   27.2040   45.6070 C   0  0  0  0  0  0  0  0  0  0  0  0
   55.5270   28.9660   44.9180 O   0  0  0  0  0  0  0  0  0  0  0  0
   55.4980   30.2080   44.5310 N   0  0  0  0  0  0  0  0  0  0  0  0
   61.6533   30.3810   46.8948 H   0  0  0  0  0  0  0  0  0  0  0  0
   60.4093   29.1938   46.3752 H   0  0  0  0  0  0  0  0  0  0  0  0
   60.0305   30.9497   46.3752 H   0  0  0  0  0  0  0  0  0  0  0  0
   59.7337   29.0164   48.5180 H   0  0  0  0  0  0  0  0  0  0  0  0
   60.9019   30.2857   49.0177 H   0  0  0  0  0  0  0  0  0  0  0  0
   57.2309   30.7475   50.5645 H   0  0  0  0  0  0  0  0  0  0  0  0
   57.0816   32.3082   52.5058 H   0  0  0  0  0  0  0  0  0  0  0  0
   58.6438   34.2441   52.6799 H   0  0  0  0  0  0  0  0  0  0  0  0
   60.3584   34.6294   50.9104 H   0  0  0  0  0  0  0  0  0  0  0  0
   64.0704   32.8009   48.1532 H   0  0  0  0  0  0  0  0  0  0  0  0
   59.1737   32.1399   45.9847 H   0  0  0  0  0  0  0  0  0  0  0  0
   57.6662   32.0239   46.9733 H   0  0  0  0  0  0  0  0  0  0  0  0
   58.7208   29.6367   45.0021 H   0  0  0  0  0  0  0  0  0  0  0  0
   57.1472   27.1672   46.7063 H   0  0  0  0  0  0  0  0  0  0  0  0
   56.4065   26.4770   45.2225 H   0  0  0  0  0  0  0  0  0  0  0  0
   58.1375   26.9568   45.2225 H   0  0  0  0  0  0  0  0  0  0  0  0
  1  2  1  0
  2  3  1  0
  3  4  1  0
  4  5  2  0
  5  6  1  0
  6  7  2  0
  7  8  1  0
  8  9  2  0
  9 10  1  0
 10 11  1  0
 11 12  1  0
 11 13  2  0
 13 14  1  0
 14 15  2  0
 14 16  1  0
 16 17  2  0
 17 18  1  0
 18 19  1  0
 19 20  1  0
 20 21  2  0
 20 22  1  0
 22 23  2  3
 23 24  1  0
 24 25  2  0
 25 26  1  0
 25 27  1  0
 27 28  1  0
  9  4  1  0
 17 10  1  0
 28 23  1  0
  1 29  1  0
  1 30  1  0
  1 31  1  0
  2 32  1  0
  2 33  1  0
  5 34  1  0
  6 35  1  0
  7 36  1  0
  8 37  1  0
 13 38  1  0
 19 39  1  0
 19 40  1  0
 24 41  1  0
 26 42  1  0
 26 43  1  0
 26 44  1  0
M  CHG  2  12  -1  28  -1
M  END
>  <UniqueID>  (95) 
83

>  <SMILES>  (95) 
CCOc1ccccc1-n1c([O-])cc(=O)nc1SCC(=O)N=c1cc(C)o[n-]1

>  <Energy>  (95) 
80.53645862127182

>  <Genealogy>  (95) 
CCOc1ccccc1-n1c([O-])cc(=O)nc1SCC(=O)N=c1cc(C)o[n-]1 (protonated)
CCOc1ccccc1-n1c([O-])cc(=O)nc1SCC(=O)N=c1cc(C)o[n-]1 (3D coordinates assigned)
CCOc1ccccc1-n1c([O-])cc(=O)nc1SCC(=O)N=c1cc(C)o[n-]1 (optimized conformer: 80.53645862127182 kcal/mol)

>  <smiles>  (95) 
CCOc1ccccc1-n1c(O)cc(=O)nc1SCC(=O)N=c1cc(C)o[nH]1

>  <score_type>  (95) 
oracle

>  <origin>  (95) 
adg

>  <m_score__min__energy>  (95) 
-10.91

>  <m_primary>  (95) 
energy

$$$$
95:0
     RDKit          3D

 27 28  0  0  0  0  0  0  0  0999 V2000
   54.1725   24.9503   46.0426 H   0  0  0  0  0  0  0  0  0  0  0  0
   55.1810   25.3110   45.7920 C   0  0  0  0  0  0  0  0  0  0  0  0
   55.5060   26.6160   45.9960 N   0  0  0  0  0  0  0  0  0  0  0  0
   56.7450   27.1040   45.7000 C   0  0  0  0  0  0  0  0  0  0  0  0
   57.0370   28.3520   45.9070 N   0  0  0  0  0  0  0  0  0  0  0  0
   56.6670   29.6270   44.7890 S   0  0  0  0  0  0  0  0  0  0  0  0
   55.1800   29.8460   44.7710 O   0  0  0  0  0  0  0  0  0  0  0  0
   57.1200   29.2280   43.4140 O   0  0  0  0  0  0  0  0  0  0  0  0
   57.5030   31.1030   45.2630 C   0  0  0  0  0  0  0  0  0  0  0  0
   58.6670   31.0290   46.0390 C   0  0  0  0  0  0  0  0  0  0  0  0
   59.0588   30.0484   46.3471 H   0  0  0  0  0  0  0  0  0  0  0  0
   59.3320   32.1960   46.4230 C   0  0  0  0  0  0  0  0  0  0  0  0
   60.2448   32.1311   47.0334 H   0  0  0  0  0  0  0  0  0  0  0  0
   58.8400   33.4500   46.0330 C   0  0  0  0  0  0  0  0  0  0  0  0
   59.5200   34.6450   46.4270 N   0  0  0  0  0  0  0  0  0  0  0  0
   60.5030   34.8260   46.1220 H   0  0  0  0  0  0  0  0  0  0  0  0
   59.0480   35.3560   47.0280 H   0  0  0  0  0  0  0  0  0  0  0  0
   57.6790   33.5240   45.2520 C   0  0  0  0  0  0  0  0  0  0  0  0
   57.2899   34.5046   44.9405 H   0  0  0  0  0  0  0  0  0  0  0  0
   57.0130   32.3560   44.8670 C   0  0  0  0  0  0  0  0  0  0  0  0
   56.1030   32.4202   44.2524 H   0  0  0  0  0  0  0  0  0  0  0  0
   57.7160   26.2470   45.1680 C   0  0  0  0  0  0  0  0  0  0  0  0
   58.7180   26.6284   44.9222 H   0  0  0  0  0  0  0  0  0  0  0  0
   57.4010   24.9030   44.9520 C   0  0  0  0  0  0  0  0  0  0  0  0
   58.1562   24.2199   44.5361 H   0  0  0  0  0  0  0  0  0  0  0  0
   56.1260   24.4290   45.2650 C   0  0  0  0  0  0  0  0  0  0  0  0
   55.8688   23.3726   45.0983 H   0  0  0  0  0  0  0  0  0  0  0  0
  1  2  1  0
  2  3  1  0
  3  4  1  0
  4  5  2  0
  5  6  1  0
  6  7  2  0
  6  8  2  0
  6  9  1  0
  9 10  2  0
 10 11  1  0
 10 12  1  0
 12 13  1  0
 12 14  2  0
 14 15  1  0
 15 16  1  0
 15 17  1  0
 14 18  1  0
 18 19  1  0
 18 20  2  0
 20 21  1  0
  4 22  1  0
 22 23  1  0
 22 24  2  0
 24 25  1  0
 24 26  1  0
 26 27  1  0
 26  2  2  0
 20  9  1  0
M  CHG  1   3  -1
M  END
>  <UniqueID>  (96) 
84

>  <SMILES>  (96) 
Nc1ccc(S(=O)(=O)/N=c2/cccc[n-]2)cc1

>  <Energy>  (96) 
30.375965206541448

>  <Genealogy>  (96) 
Nc1ccc(S(=O)(=O)N=c2cccc[n-]2)cc1 (protonated)
Nc1ccc(S(=O)(=O)/N=c2/cccc[n-]2)cc1 (cis-trans isomerization)
Nc1ccc(S(=O)(=O)/N=c2/cccc[n-]2)cc1 (3D coordinates assigned)
Nc1ccc(S(=O)(=O)/N=c2/cccc[n-]2)cc1 (optimized conformer: 30.375965206541448 kcal/mol)

>  <smiles>  (96) 
Nc1ccc(S(=O)(=O)N=c2cccc[nH]2)cc1

>  <score_type>  (96) 
oracle

>  <origin>  (96) 
adg

>  <m_score__min__energy>  (96) 
-8.2300000000000004

>  <m_primary>  (96) 
energy

$$$$
96:0
     RDKit          3D

 29 30  0  0  0  0  0  0  0  0999 V2000
   57.8700   22.9130   45.5860 C   0  0  0  0  0  0  0  0  0  0  0  0
   57.6170   24.3920   45.6210 C   0  0  0  0  0  0  0  0  0  0  0  0
   58.6590   25.2930   45.3590 C   0  0  0  0  0  0  0  0  0  0  0  0
   58.4170   26.6680   45.3560 C   0  0  0  0  0  0  0  0  0  0  0  0
   57.1320   27.1670   45.6160 C   0  0  0  0  0  0  0  0  0  0  0  0
   56.9130   28.5870   45.5980 N   0  0  0  0  0  0  0  0  0  0  0  0
   57.2330   29.4130   44.4700 C   0  0  0  0  0  0  0  0  0  0  0  0
   57.3470   28.8970   43.3250 O   0  0  0  0  0  0  0  0  0  0  0  0
   57.3690   30.8740   44.6040 C   0  0  0  0  0  0  0  0  0  0  0  0
   57.4110   31.4790   45.7700 O   0  0  0  0  0  0  0  0  0  0  0  0
   57.5340   32.7740   45.5780 C   0  0  0  0  0  0  0  0  0  0  0  0
   57.5700   33.0450   44.2260 C   0  0  0  0  0  0  0  0  0  0  0  0
   57.4510   31.8240   43.5940 C   0  0  0  0  0  0  0  0  0  0  0  0
   57.4090   31.6170   42.1120 C   0  0  0  0  0  0  0  0  0  0  0  0
   56.0740   26.2600   45.8300 C   0  0  0  0  0  0  0  0  0  0  0  0
   54.7710   26.7140   46.0050 O   0  0  0  0  0  0  0  0  0  0  0  0
   56.3210   24.8820   45.8380 C   0  0  0  0  0  0  0  0  0  0  0  0
   57.9359   22.5278   46.6143 H   0  0  0  0  0  0  0  0  0  0  0  0
   57.0445   22.4122   45.0590 H   0  0  0  0  0  0  0  0  0  0  0  0
   58.8151   22.7150   45.0590 H   0  0  0  0  0  0  0  0  0  0  0  0
   59.6716   24.9148   45.1549 H   0  0  0  0  0  0  0  0  0  0  0  0
   59.2412   27.3662   45.1479 H   0  0  0  0  0  0  0  0  0  0  0  0
   56.3240   29.0010   46.3540 H   0  0  0  0  0  0  0  0  0  0  0  0
   57.5985   33.5283   46.3761 H   0  0  0  0  0  0  0  0  0  0  0  0
   57.6725   34.0312   43.7497 H   0  0  0  0  0  0  0  0  0  0  0  0
   57.1946   30.5601   41.8953 H   0  0  0  0  0  0  0  0  0  0  0  0
   56.6206   32.2480   41.6758 H   0  0  0  0  0  0  0  0  0  0  0  0
   58.3810   31.8908   41.6758 H   0  0  0  0  0  0  0  0  0  0  0  0
   55.4935   24.1793   46.0156 H   0  0  0  0  0  0  0  0  0  0  0  0
  1  2  1  0
  2  3  2  0
  3  4  1  0
  4  5  2  0
  5  6  1  0
  6  7  1  0
  7  8  2  0
  7  9  1  0
  9 10  1  0
 10 11  1  0
 11 12  2  0
 12 13  1  0
 13 14  1  0
  5 15  1  0
 15 16  1  0
 15 17  2  0
 17  2  1  0
 13  9  2  0
  1 18  1  0
  1 19  1  0
  1 20  1  0
  3 21  1  0
  4 22  1  0
  6 23  1  0
 11 24  1  0
 12 25  1  0
 14 26  1  0
 14 27  1  0
 14 28  1  0
 17 29  1  0
M  CHG  1  16  -1
M  END
>  <UniqueID>  (97) 
85

>  <SMILES>  (97) 
Cc1ccc(NC(=O)c2occc2C)c([O-])c1

>  <Energy>  (97) 
60.429963590589054

>  <Genealogy>  (97) 
Cc1ccc(NC(=O)c2occc2C)c([O-])c1 (protonated)
Cc1ccc(NC(=O)c2occc2C)c([O-])c1 (3D coordinates assigned)
Cc1ccc(NC(=O)c2occc2C)c([O-])c1 (optimized conformer: 60.429963590589054 kcal/mol)

>  <smiles>  (97) 
Cc1ccc(NC(=O)c2occc2C)c(O)c1

>  <score_type>  (97) 
oracle

>  <origin>  (97) 
adg

>  <m_score__min__energy>  (97) 
-10.19

>  <m_primary>  (97) 
energy

$$$$
97:0
     RDKit          3D

 37 38  0  0  0  0  0  0  0  0999 V2000
   65.9750   32.0800   50.7430 C   0  0  0  0  0  0  0  0  0  0  0  0
   64.5560   32.1930   50.7410 O   0  0  0  0  0  0  0  0  0  0  0  0
   63.7640   32.2130   49.5830 C   0  0  0  0  0  0  0  0  0  0  0  0
   63.9390   33.1690   48.5660 C   0  0  0  0  0  0  0  0  0  0  0  0
   63.1340   33.1380   47.4190 C   0  0  0  0  0  0  0  0  0  0  0  0
   63.3100   34.1730   46.3460 C   0  0  0  0  0  0  0  0  0  0  0  0
   62.1240   32.1720   47.3040 C   0  0  0  0  0  0  0  0  0  0  0  0
   61.9270   31.2190   48.3190 C   0  0  0  0  0  0  0  0  0  0  0  0
   60.8750   30.1800   48.2100 C   0  0  0  0  0  0  0  0  0  0  0  0
   60.0970   29.9960   49.1860 O   0  0  0  0  0  0  0  0  0  0  0  0
   60.7350   29.3820   47.0190 N   0  0  0  0  0  0  0  0  0  0  0  0
   59.6820   28.4250   46.8150 C   0  0  0  0  0  0  0  0  0  0  0  0
   58.4710   28.8460   46.2450 C   0  0  0  0  0  0  0  0  0  0  0  0
   57.4230   27.9400   46.0570 C   0  0  0  0  0  0  0  0  0  0  0  0
   57.5640   26.6050   46.4570 C   0  0  0  0  0  0  0  0  0  0  0  0
   56.2510   25.4600   46.2090 S   0  0  0  0  0  0  0  0  0  0  0  0
   54.7690   26.3200   45.9850 N   0  0  0  0  0  0  0  0  0  0  0  0
   56.5320   24.6170   44.9970 O   0  0  0  0  0  0  0  0  0  0  0  0
   56.1280   24.5570   47.4050 O   0  0  0  0  0  0  0  0  0  0  0  0
   58.7640   26.1830   47.0440 C   0  0  0  0  0  0  0  0  0  0  0  0
   59.8140   27.0870   47.2310 C   0  0  0  0  0  0  0  0  0  0  0  0
   62.7660   31.2420   49.4470 C   0  0  0  0  0  0  0  0  0  0  0  0
   66.3391   32.0510   51.7806 H   0  0  0  0  0  0  0  0  0  0  0  0
   66.2699   31.1555   50.2250 H   0  0  0  0  0  0  0  0  0  0  0  0
   66.4125   32.9461   50.2250 H   0  0  0  0  0  0  0  0  0  0  0  0
   64.7116   33.9449   48.6714 H   0  0  0  0  0  0  0  0  0  0  0  0
   63.4773   35.1566   46.8092 H   0  0  0  0  0  0  0  0  0  0  0  0
   64.1763   33.9098   45.7213 H   0  0  0  0  0  0  0  0  0  0  0  0
   62.4054   34.2110   45.7213 H   0  0  0  0  0  0  0  0  0  0  0  0
   61.4803   32.1597   46.4121 H   0  0  0  0  0  0  0  0  0  0  0  0
   61.4570   29.4540   46.2690 H   0  0  0  0  0  0  0  0  0  0  0  0
   58.3453   29.8965   45.9439 H   0  0  0  0  0  0  0  0  0  0  0  0
   56.4841   28.2768   45.5932 H   0  0  0  0  0  0  0  0  0  0  0  0
   54.7550   27.0900   46.6900 H   0  0  0  0  0  0  0  0  0  0  0  0
   58.8806   25.1356   47.3592 H   0  0  0  0  0  0  0  0  0  0  0  0
   60.7477   26.7509   47.7055 H   0  0  0  0  0  0  0  0  0  0  0  0
   62.6358   30.4851   50.2345 H   0  0  0  0  0  0  0  0  0  0  0  0
  1  2  1  0
  2  3  1  0
  3  4  2  0
  4  5  1  0
  5  6  1  0
  5  7  2  0
  7  8  1  0
  8  9  1  0
  9 10  2  0
  9 11  1  0
 11 12  1  0
 12 13  2  0
 13 14  1  0
 14 15  2  0
 15 16  1  0
 16 17  1  0
 16 18  2  0
 16 19  2  0
 15 20  1  0
 20 21  2  0
  8 22  2  0
 22  3  1  0
 21 12  1  0
  1 23  1  0
  1 24  1  0
  1 25  1  0
  4 26  1  0
  6 27  1  0
  6 28  1  0
  6 29  1  0
  7 30  1  0
 11 31  1  0
 13 32  1  0
 14 33  1  0
 17 34  1  0
 20 35  1  0
 21 36  1  0
 22 37  1  0
M  CHG  1  17  -1
M  END
>  <UniqueID>  (98) 
86

>  <SMILES>  (98) 
COc1cc(C)cc(C(=O)Nc2ccc(S([NH-])(=O)=O)cc2)c1

>  <Energy>  (98) 
42.73520739703783

>  <Genealogy>  (98) 
COc1cc(C)cc(C(=O)Nc2ccc(S([NH-])(=O)=O)cc2)c1 (protonated)
COc1cc(C)cc(C(=O)Nc2ccc(S([NH-])(=O)=O)cc2)c1 (3D coordinates assigned)
COc1cc(C)cc(C(=O)Nc2ccc(S([NH-])(=O)=O)cc2)c1 (optimized conformer: 42.73520739703783 kcal/mol)

>  <smiles>  (98) 
COc1cc(C)cc(C(=O)Nc2ccc(S(N)(=O)=O)cc2)c1

>  <score_type>  (98) 
oracle

>  <origin>  (98) 
adg

>  <m_score__min__energy>  (98) 
-9.7300000000000004

>  <m_primary>  (98) 
energy

$$$$
98:0
     RDKit          3D

 44 46  0  0  0  0  0  0  0  0999 V2000
   58.1340   29.9880   50.0070 O   0  0  0  0  0  0  0  0  0  0  0  0
   59.2530   30.0870   49.4370 C   0  0  0  0  0  0  0  0  0  0  0  0
   59.8880   28.8900   48.9700 N   0  0  0  0  0  0  0  0  0  0  0  0
   59.5730   28.1670   47.7720 C   0  0  0  0  0  0  0  0  0  0  0  0
   60.2430   26.9650   47.5170 C   0  0  0  0  0  0  0  0  0  0  0  0
   59.9310   26.2090   46.3850 C   0  0  0  0  0  0  0  0  0  0  0  0
   58.9400   26.6440   45.5050 C   0  0  0  0  0  0  0  0  0  0  0  0
   58.2550   27.8450   45.7410 C   0  0  0  0  0  0  0  0  0  0  0  0
   57.1910   28.2300   44.8550 N   0  0  0  0  0  0  0  0  0  0  0  0
   56.9340   29.5720   44.4120 C   0  0  0  0  0  0  0  0  0  0  0  0
   55.4660   29.9070   43.7560 S   0  0  0  0  0  0  0  0  0  0  0  0
   57.9910   30.5520   44.3860 N   0  0  0  0  0  0  0  0  0  0  0  0
   57.8340   31.9110   43.8620 C   0  0  0  0  0  0  0  0  0  0  0  0
   58.1970   32.9660   44.8810 C   0  0  0  0  0  0  0  0  0  0  0  0
   57.7760   32.8680   46.2200 C   0  0  0  0  0  0  0  0  0  0  0  0
   58.1670   33.8300   47.1560 C   0  0  0  0  0  0  0  0  0  0  0  0
   58.9910   34.8890   46.7690 C   0  0  0  0  0  0  0  0  0  0  0  0
   59.4300   34.9850   45.4470 C   0  0  0  0  0  0  0  0  0  0  0  0
   59.0400   34.0260   44.5080 C   0  0  0  0  0  0  0  0  0  0  0  0
   58.5630   28.5960   46.8920 C   0  0  0  0  0  0  0  0  0  0  0  0
   59.9070   31.4170   49.3450 C   0  0  0  0  0  0  0  0  0  0  0  0
   59.4260   32.5150   50.0810 C   0  0  0  0  0  0  0  0  0  0  0  0
   60.0240   33.7710   49.9510 C   0  0  0  0  0  0  0  0  0  0  0  0
   61.1000   33.9500   49.0790 C   0  0  0  0  0  0  0  0  0  0  0  0
   61.5810   32.8700   48.3340 C   0  0  0  0  0  0  0  0  0  0  0  0
   63.0600   33.1140   47.1500 Br  0  0  0  0  0  0  0  0  0  0  0  0
   60.9820   31.6110   48.4590 C   0  0  0  0  0  0  0  0  0  0  0  0
   61.0198   26.6137   48.2122 H   0  0  0  0  0  0  0  0  0  0  0  0
   60.4674   25.2693   46.1871 H   0  0  0  0  0  0  0  0  0  0  0  0
   58.6938   26.0404   44.6190 H   0  0  0  0  0  0  0  0  0  0  0  0
   56.5820   27.4690   44.4760 H   0  0  0  0  0  0  0  0  0  0  0  0
   58.9540   30.2600   44.6640 H   0  0  0  0  0  0  0  0  0  0  0  0
   58.4860   32.0287   42.9839 H   0  0  0  0  0  0  0  0  0  0  0  0
   56.7749   32.0490   43.5986 H   0  0  0  0  0  0  0  0  0  0  0  0
   57.1357   32.0298   46.5321 H   0  0  0  0  0  0  0  0  0  0  0  0
   57.8252   33.7527   48.1987 H   0  0  0  0  0  0  0  0  0  0  0  0
   59.2942   35.6475   47.5057 H   0  0  0  0  0  0  0  0  0  0  0  0
   60.0836   35.8164   45.1442 H   0  0  0  0  0  0  0  0  0  0  0  0
   59.3956   34.1018   43.4698 H   0  0  0  0  0  0  0  0  0  0  0  0
   58.0106   29.5233   47.1040 H   0  0  0  0  0  0  0  0  0  0  0  0
   58.5733   32.3839   50.7635 H   0  0  0  0  0  0  0  0  0  0  0  0
   59.6461   34.6215   50.5373 H   0  0  0  0  0  0  0  0  0  0  0  0
   61.5685   34.9402   48.9787 H   0  0  0  0  0  0  0  0  0  0  0  0
   61.3548   30.7672   47.8599 H   0  0  0  0  0  0  0  0  0  0  0  0
  1  2  2  0
  2  3  1  0
  3  4  1  0
  4  5  2  0
  5  6  1  0
  6  7  2  0
  7  8  1  0
  8  9  1  0
  9 10  1  0
 10 11  2  0
 10 12  1  0
 12 13  1  0
 13 14  1  0
 14 15  2  0
 15 16  1  0
 16 17  2  0
 17 18  1  0
 18 19  2  0
  8 20  2  0
  2 21  1  0
 21 22  2  0
 22 23  1  0
 23 24  2  0
 24 25  1  0
 25 26  1  0
 25 27  2  0
 20  4  1  0
 27 21  1  0
 19 14  1  0
  5 28  1  0
  6 29  1  0
  7 30  1  0
  9 31  1  0
 12 32  1  0
 13 33  1  0
 13 34  1  0
 15 35  1  0
 16 36  1  0
 17 37  1  0
 18 38  1  0
 19 39  1  0
 20 40  1  0
 22 41  1  0
 23 42  1  0
 24 43  1  0
 27 44  1  0
M  CHG  1   3  -1
M  END
>  <UniqueID>  (99) 
87

>  <SMILES>  (99) 
O=C([N-]c1cccc(NC(=S)NCc2ccccc2)c1)c1cccc(Br)c1

>  <Energy>  (99) 
51.43686268313056

>  <Genealogy>  (99) 
O=C([N-]c1cccc(NC(=S)NCc2ccccc2)c1)c1cccc(Br)c1 (protonated)
O=C([N-]c1cccc(NC(=S)NCc2ccccc2)c1)c1cccc(Br)c1 (3D coordinates assigned)
O=C([N-]c1cccc(NC(=S)NCc2ccccc2)c1)c1cccc(Br)c1 (optimized conformer: 51.43686268313056 kcal/mol)

>  <smiles>  (99) 
O=C(Nc1cccc(NC(=S)NCc2ccccc2)c1)c1cccc(Br)c1

>  <score_type>  (99) 
oracle

>  <origin>  (99) 
adg

>  <m_score__min__energy>  (99) 
-11.18

>  <m_primary>  (99) 
energy

$$$$
