0:0
     RDKit          3D

 56 59  0  0  0  0  0  0  0  0999 V2000
   58.1490   26.9500   42.9190 C   0  0  0  0  0  0  0  0  0  0  0  0
   58.1870   26.5490   44.3710 C   0  0  0  0  0  0  0  0  0  0  0  0
   57.2590   25.6070   44.8400 C   0  0  0  0  0  0  0  0  0  0  0  0
   57.2360   25.2430   46.1860 C   0  0  0  0  0  0  0  0  0  0  0  0
   58.1530   25.7980   47.0750 C   0  0  0  0  0  0  0  0  0  0  0  0
   59.1170   26.7070   46.6270 C   0  0  0  0  0  0  0  0  0  0  0  0
   60.0740   27.2160   47.5700 N   0  0  0  0  0  0  0  0  0  0  0  0
   59.9810   28.5070   48.1950 C   0  0  0  0  0  0  0  0  0  0  0  0
   58.8570   28.8930   48.9320 C   0  0  0  0  0  0  0  0  0  0  0  0
   58.8250   30.1660   49.5010 C   0  0  0  0  0  0  0  0  0  0  0  0
   57.8060   30.5130   50.1590 O   0  0  0  0  0  0  0  0  0  0  0  0
   59.8840   31.0240   49.3400 N   0  0  0  0  0  0  0  0  0  0  0  0
   59.8400   32.3790   49.9240 C   0  0  0  0  0  0  0  0  0  0  0  0
   59.7680   33.4340   48.8140 C   0  0  0  0  0  0  0  0  0  0  0  0
   58.6910   33.0790   47.7780 C   0  0  0  0  0  0  0  0  0  0  0  0
   59.2990   32.7480   46.4700 N   0  0  0  0  0  0  0  0  0  0  0  0
   58.7570   33.6050   45.3690 C   0  0  0  0  0  0  0  0  0  0  0  0
   58.5090   32.8600   44.0460 C   0  0  0  0  0  0  0  0  0  0  0  0
   57.7000   31.6310   44.3270 C   0  0  0  0  0  0  0  0  0  0  0  0
   56.6200   31.2440   43.5200 C   0  0  0  0  0  0  0  0  0  0  0  0
   55.8990   30.0880   43.8340 C   0  0  0  0  0  0  0  0  0  0  0  0
   56.2600   29.3110   44.9430 C   0  0  0  0  0  0  0  0  0  0  0  0
   55.5430   28.1620   45.2480 O   0  0  0  0  0  0  0  0  0  0  0  0
   57.3460   29.6910   45.7400 C   0  0  0  0  0  0  0  0  0  0  0  0
   58.0630   30.8570   45.4340 C   0  0  0  0  0  0  0  0  0  0  0  0
   59.2770   31.2820   46.2150 C   0  0  0  0  0  0  0  0  0  0  0  0
   60.9600   30.6330   48.5820 C   0  0  0  0  0  0  0  0  0  0  0  0
   61.9290   31.4150   48.3830 O   0  0  0  0  0  0  0  0  0  0  0  0
   60.9940   29.3940   48.0280 N   0  0  0  0  0  0  0  0  0  0  0  0
   59.1320   27.1070   45.2690 C   0  0  0  0  0  0  0  0  0  0  0  0
   60.0660   28.1060   44.8230 N   0  0  0  0  0  0  0  0  0  0  0  0
   59.6870   29.0530   44.1040 O   0  0  0  0  0  0  0  0  0  0  0  0
   61.4000   27.9970   45.1400 O   0  0  0  0  0  0  0  0  0  0  0  0
   58.0455   28.0425   42.8429 H   0  0  0  0  0  0  0  0  0  0  0  0
   59.0810   26.6349   42.4271 H   0  0  0  0  0  0  0  0  0  0  0  0
   57.2928   26.4654   42.4271 H   0  0  0  0  0  0  0  0  0  0  0  0
   56.5433   25.1516   44.1398 H   0  0  0  0  0  0  0  0  0  0  0  0
   56.4926   24.5165   46.5459 H   0  0  0  0  0  0  0  0  0  0  0  0
   58.1189   25.5192   48.1385 H   0  0  0  0  0  0  0  0  0  0  0  0
   60.9430   26.6590   47.7290 H   0  0  0  0  0  0  0  0  0  0  0  0
   58.0104   28.2027   49.0611 H   0  0  0  0  0  0  0  0  0  0  0  0
   58.9525   32.4682   50.5677 H   0  0  0  0  0  0  0  0  0  0  0  0
   60.7525   32.5436   50.5159 H   0  0  0  0  0  0  0  0  0  0  0  0
   59.5274   34.4096   49.2615 H   0  0  0  0  0  0  0  0  0  0  0  0
   60.7423   33.4701   48.3046 H   0  0  0  0  0  0  0  0  0  0  0  0
   58.1183   32.2115   48.1379 H   0  0  0  0  0  0  0  0  0  0  0  0
   58.0318   33.9497   47.6467 H   0  0  0  0  0  0  0  0  0  0  0  0
   57.8021   34.0346   45.7060 H   0  0  0  0  0  0  0  0  0  0  0  0
   59.5213   34.3682   45.1606 H   0  0  0  0  0  0  0  0  0  0  0  0
   57.9600   33.5130   43.3516 H   0  0  0  0  0  0  0  0  0  0  0  0
   59.4698   32.5783   43.5905 H   0  0  0  0  0  0  0  0  0  0  0  0
   56.3414   31.8476   42.6436 H   0  0  0  0  0  0  0  0  0  0  0  0
   55.0456   29.7874   43.2085 H   0  0  0  0  0  0  0  0  0  0  0  0
   57.6366   29.0764   46.6047 H   0  0  0  0  0  0  0  0  0  0  0  0
   59.2791   30.7548   47.1804 H   0  0  0  0  0  0  0  0  0  0  0  0
   60.1663   31.0305   45.6184 H   0  0  0  0  0  0  0  0  0  0  0  0
  1  2  1  0
  2  3  2  0
  3  4  1  0
  4  5  2  0
  5  6  1  0
  6  7  1  0
  7  8  1  0
  8  9  2  0
  9 10  1  0
 10 11  2  0
 10 12  1  0
 12 13  1  0
 13 14  1  0
 14 15  1  0
 15 16  1  0
 16 17  1  0
 17 18  1  0
 18 19  1  0
 19 20  2  0
 20 21  1  0
 21 22  2  0
 22 23  1  0
 22 24  1  0
 24 25  2  0
 25 26  1  0
 12 27  1  0
 27 28  2  0
 27 29  1  0
  6 30  2  0
 30 31  1  0
 31 32  2  0
 31 33  1  0
 30  2  1  0
 29  8  1  0
 26 16  1  0
 25 19  1  0
  1 34  1  0
  1 35  1  0
  1 36  1  0
  3 37  1  0
  4 38  1  0
  5 39  1  0
  7 40  1  0
  9 41  1  0
 13 42  1  0
 13 43  1  0
 14 44  1  0
 14 45  1  0
 15 46  1  0
 15 47  1  0
 17 48  1  0
 17 49  1  0
 18 50  1  0
 18 51  1  0
 20 52  1  0
 21 53  1  0
 24 54  1  0
 26 55  1  0
 26 56  1  0
M  CHG  4  23  -1  29  -1  31   1  33  -1
M  END
>  <UniqueID>  (1) 
1

>  <SMILES>  (1) 
Cc1cccc(Nc2cc(=O)n(CCCN3CCc4ccc([O-])cc4C3)c(=O)[n-]2)c1[N+](=O)[O-]

>  <Energy>  (1) 
85.08380636230713

>  <Genealogy>  (1) 
Cc1cccc(Nc2cc(=O)n(CCCN3CCc4ccc([O-])cc4C3)c(=O)[n-]2)c1[N+](=O)[O-] (protonated)
Cc1cccc(Nc2cc(=O)n(CCCN3CCc4ccc([O-])cc4C3)c(=O)[n-]2)c1[N+](=O)[O-] (3D coordinates assigned)
Cc1cccc(Nc2cc(=O)n(CCCN3CCc4ccc([O-])cc4C3)c(=O)[n-]2)c1[N+](=O)[O-] (nonaromatic ring conformer: 85.08380636230713 kcal/mol)

>  <smiles>  (1) 
Cc1cccc(Nc2cc(=O)n(CCCN3CCc4ccc(O)cc4C3)c(=O)[nH]2)c1[N+](=O)[O-]

>  <score_type>  (1) 
oracle

>  <origin>  (1) 
adg

>  <m_score__min__energy>  (1) 
-13.460000000000001

>  <m_primary>  (1) 
energy

$$$$
1:0
     RDKit          3D

 51 52  0  0  0  0  0  0  0  0999 V2000
   56.6610   30.8240   42.3390 C   0  0  0  0  0  0  0  0  0  0  0  0
   57.7590   31.6810   42.8850 C   0  0  0  0  0  0  0  0  0  0  0  0
   58.3820   32.4420   42.0970 O   0  0  0  0  0  0  0  0  0  0  0  0
   58.1380   31.6510   44.3140 C   0  0  0  0  0  0  0  0  0  0  0  0
   58.6610   30.5810   45.0370 C   0  0  0  0  0  0  0  0  0  0  0  0
   58.9040   29.1810   44.5320 C   0  0  0  0  0  0  0  0  0  0  0  0
   57.5920   28.5370   44.0790 C   0  0  0  0  0  0  0  0  0  0  0  0
   56.6490   28.3990   45.2300 C   0  0  0  0  0  0  0  0  0  0  0  0
   55.5220   28.9580   45.1970 O   0  0  0  0  0  0  0  0  0  0  0  0
   57.0340   27.6940   46.3630 O   0  0  0  0  0  0  0  0  0  0  0  0
   58.7020   30.9950   46.3670 C   0  0  0  0  0  0  0  0  0  0  0  0
   59.1580   30.1600   47.5330 C   0  0  0  0  0  0  0  0  0  0  0  0
   58.2650   32.2740   46.4720 N   0  0  0  0  0  0  0  0  0  0  0  0
   58.1530   33.0630   47.7100 C   0  0  0  0  0  0  0  0  0  0  0  0
   59.1460   34.2350   47.7370 C   0  0  0  0  0  0  0  0  0  0  0  0
   60.2500   34.0270   48.7460 C   0  0  0  0  0  0  0  0  0  0  0  0
   59.9530   33.9000   49.9270 O   0  0  0  0  0  0  0  0  0  0  0  0
   61.6380   33.9280   48.3270 N   0  0  0  0  0  0  0  0  0  0  0  0
   61.7220   33.8200   46.8590 C   0  0  0  0  0  0  0  0  0  0  0  0
   63.1970   33.7080   46.4030 C   0  0  0  0  0  0  0  0  0  0  0  0
   64.0860   33.4690   47.4810 O   0  0  0  0  0  0  0  0  0  0  0  0
   63.6100   32.3940   48.2660 C   0  0  0  0  0  0  0  0  0  0  0  0
   62.3000   32.7790   48.9820 C   0  0  0  0  0  0  0  0  0  0  0  0
   57.9320   32.6800   45.2230 C   0  0  0  0  0  0  0  0  0  0  0  0
   57.3620   34.0280   44.8770 C   0  0  0  0  0  0  0  0  0  0  0  0
   56.0935   30.3811   43.1707 H   0  0  0  0  0  0  0  0  0  0  0  0
   55.9885   31.4384   41.7224 H   0  0  0  0  0  0  0  0  0  0  0  0
   57.0937   30.0224   41.7224 H   0  0  0  0  0  0  0  0  0  0  0  0
   59.6006   29.2192   43.6815 H   0  0  0  0  0  0  0  0  0  0  0  0
   59.3318   28.5790   45.3472 H   0  0  0  0  0  0  0  0  0  0  0  0
   57.1284   29.1667   43.3053 H   0  0  0  0  0  0  0  0  0  0  0  0
   57.8085   27.5366   43.6760 H   0  0  0  0  0  0  0  0  0  0  0  0
   58.8840   30.6618   48.4727 H   0  0  0  0  0  0  0  0  0  0  0  0
   58.6734   29.1735   47.4893 H   0  0  0  0  0  0  0  0  0  0  0  0
   60.2499   30.0344   47.4893 H   0  0  0  0  0  0  0  0  0  0  0  0
   57.1307   33.4618   47.7857 H   0  0  0  0  0  0  0  0  0  0  0  0
   58.3854   32.4010   48.5572 H   0  0  0  0  0  0  0  0  0  0  0  0
   59.5948   34.3416   46.7384 H   0  0  0  0  0  0  0  0  0  0  0  0
   58.5913   35.1397   48.0265 H   0  0  0  0  0  0  0  0  0  0  0  0
   62.1460   34.7990   48.6140 H   0  0  0  0  0  0  0  0  0  0  0  0
   61.1734   32.9249   46.5307 H   0  0  0  0  0  0  0  0  0  0  0  0
   61.2808   34.7229   46.4118 H   0  0  0  0  0  0  0  0  0  0  0  0
   63.2817   32.8779   45.6863 H   0  0  0  0  0  0  0  0  0  0  0  0
   63.4779   34.6690   45.9474 H   0  0  0  0  0  0  0  0  0  0  0  0
   63.4243   31.5266   47.6155 H   0  0  0  0  0  0  0  0  0  0  0  0
   64.3678   32.1477   49.0243 H   0  0  0  0  0  0  0  0  0  0  0  0
   61.6173   31.9167   48.9650 H   0  0  0  0  0  0  0  0  0  0  0  0
   62.5447   33.0665   50.0152 H   0  0  0  0  0  0  0  0  0  0  0  0
   57.1301   34.5764   45.8019 H   0  0  0  0  0  0  0  0  0  0  0  0
   58.0967   34.5966   44.2880 H   0  0  0  0  0  0  0  0  0  0  0  0
   56.4423   33.8970   44.2880 H   0  0  0  0  0  0  0  0  0  0  0  0
  1  2  1  0
  2  3  2  0
  2  4  1  0
  4  5  1  0
  5  6  1  0
  6  7  1  0
  7  8  1  0
  8  9  2  0
  8 10  1  0
  5 11  2  0
 11 12  1  0
 11 13  1  0
 13 14  1  0
 14 15  1  0
 15 16  1  0
 16 17  2  0
 16 18  1  0
 18 19  1  0
 19 20  1  0
 20 21  1  0
 21 22  1  0
 22 23  1  0
 13 24  1  0
 24 25  1  0
 24  4  2  0
 23 18  1  0
  1 26  1  0
  1 27  1  0
  1 28  1  0
  6 29  1  0
  6 30  1  0
  7 31  1  0
  7 32  1  0
 12 33  1  0
 12 34  1  0
 12 35  1  0
 14 36  1  0
 14 37  1  0
 15 38  1  0
 15 39  1  0
 18 40  1  0
 19 41  1  0
 19 42  1  0
 20 43  1  0
 20 44  1  0
 22 45  1  0
 22 46  1  0
 23 47  1  0
 23 48  1  0
 25 49  1  0
 25 50  1  0
 25 51  1  0
M  CHG  2  10  -1  18   1
M  END
>  <UniqueID>  (2) 
2

>  <SMILES>  (2) 
CC(=O)c1c(CCC(=O)[O-])c(C)n(CCC(=O)[NH+]2CCOCC2)c1C

>  <Energy>  (2) 
77.67284714512807

>  <Genealogy>  (2) 
CC(=O)c1c(CCC(=O)[O-])c(C)n(CCC(=O)[NH+]2CCOCC2)c1C (protonated)
CC(=O)c1c(CCC(=O)[O-])c(C)n(CCC(=O)[NH+]2CCOCC2)c1C (3D coordinates assigned)
CC(=O)c1c(CCC(=O)[O-])c(C)n(CCC(=O)[NH+]2CCOCC2)c1C (nonaromatic ring conformer: 77.67284714512807 kcal/mol)

>  <smiles>  (2) 
CC(=O)c1c(CCC(=O)O)c(C)n(CCC(=O)N2CCOCC2)c1C

>  <score_type>  (2) 
oracle

>  <origin>  (2) 
adg

>  <m_score__min__energy>  (2) 
-10.06

>  <m_primary>  (2) 
energy

$$$$
2:0
     RDKit          3D

 50 52  0  0  0  0  0  0  0  0999 V2000
   59.3571   32.2789   48.3101 H   0  0  0  0  0  0  0  0  0  0  0  0
   59.7650   32.6020   47.3410 C   0  0  0  0  0  0  0  0  0  0  0  0
   61.1130   32.6110   47.2240 C   0  0  0  0  0  0  0  0  0  0  0  0
   61.8630   31.3280   47.5140 C   0  0  0  0  0  0  0  0  0  0  0  0
   62.4430   31.0433   46.6237 H   0  0  0  0  0  0  0  0  0  0  0  0
   62.5275   31.5017   48.3732 H   0  0  0  0  0  0  0  0  0  0  0  0
   60.9060   30.1920   47.8680 C   0  0  0  0  0  0  0  0  0  0  0  0
   60.8311   30.1031   48.9618 H   0  0  0  0  0  0  0  0  0  0  0  0
   59.9119   30.4059   47.4486 H   0  0  0  0  0  0  0  0  0  0  0  0
   61.2856   29.2486   47.4486 H   0  0  0  0  0  0  0  0  0  0  0  0
   61.9090   33.8300   46.8060 C   0  0  0  0  0  0  0  0  0  0  0  0
   61.5713   34.1537   45.8104 H   0  0  0  0  0  0  0  0  0  0  0  0
   61.7448   34.6225   47.5509 H   0  0  0  0  0  0  0  0  0  0  0  0
   63.4040   33.5270   46.7490 C   0  0  0  0  0  0  0  0  0  0  0  0
   63.8011   33.4465   47.7717 H   0  0  0  0  0  0  0  0  0  0  0  0
   63.5657   32.5778   46.2171 H   0  0  0  0  0  0  0  0  0  0  0  0
   63.9225   34.3383   46.2171 H   0  0  0  0  0  0  0  0  0  0  0  0
   58.7800   32.9820   46.3000 C   0  0  0  0  0  0  0  0  0  0  0  0
   58.2800   34.2150   46.1060 N   0  0  0  0  0  0  0  0  0  0  0  0
   57.4510   34.0770   45.0510 C   0  0  0  0  0  0  0  0  0  0  0  0
   56.8736   34.9117   44.6268 H   0  0  0  0  0  0  0  0  0  0  0  0
   57.3960   32.8210   44.5650 N   0  0  0  0  0  0  0  0  0  0  0  0
   58.2130   32.1270   45.3730 C   0  0  0  0  0  0  0  0  0  0  0  0
   58.5450   30.7130   45.1540 C   0  0  0  0  0  0  0  0  0  0  0  0
   59.5842   30.4742   44.8838 H   0  0  0  0  0  0  0  0  0  0  0  0
   57.6810   29.6850   45.2570 C   0  0  0  0  0  0  0  0  0  0  0  0
   56.3320   29.5510   44.8880 C   0  0  0  0  0  0  0  0  0  0  0  0
   55.5520   30.4190   44.2420 C   0  0  0  0  0  0  0  0  0  0  0  0
   55.9373   31.4154   43.9800 H   0  0  0  0  0  0  0  0  0  0  0  0
   54.5234   30.1384   43.9713 H   0  0  0  0  0  0  0  0  0  0  0  0
   55.8920   28.3180   45.2260 N   0  0  0  0  0  0  0  0  0  0  0  0
   56.8960   27.6560   45.7790 N   0  0  0  0  0  0  0  0  0  0  0  0
   56.7950   26.3090   46.2710 C   0  0  0  0  0  0  0  0  0  0  0  0
   55.7010   25.8920   46.7410 O   0  0  0  0  0  0  0  0  0  0  0  0
   57.9630   25.3640   46.1570 C   0  0  0  0  0  0  0  0  0  0  0  0
   58.8416   25.9224   45.8017 H   0  0  0  0  0  0  0  0  0  0  0  0
   58.1525   24.9271   47.1486 H   0  0  0  0  0  0  0  0  0  0  0  0
   57.6720   24.2430   45.1930 C   0  0  0  0  0  0  0  0  0  0  0  0
   58.3410   23.0130   45.3130 C   0  0  0  0  0  0  0  0  0  0  0  0
   59.1056   22.8787   46.0923 H   0  0  0  0  0  0  0  0  0  0  0  0
   58.0380   21.9590   44.4450 C   0  0  0  0  0  0  0  0  0  0  0  0
   58.5694   21.0004   44.5385 H   0  0  0  0  0  0  0  0  0  0  0  0
   57.0610   22.1220   43.4590 C   0  0  0  0  0  0  0  0  0  0  0  0
   56.7630   21.0970   42.6240 F   0  0  0  0  0  0  0  0  0  0  0  0
   56.3860   23.3410   43.3400 C   0  0  0  0  0  0  0  0  0  0  0  0
   55.6159   23.4681   42.5649 H   0  0  0  0  0  0  0  0  0  0  0  0
   56.6870   24.3980   44.2030 C   0  0  0  0  0  0  0  0  0  0  0  0
   56.1514   25.3540   44.1071 H   0  0  0  0  0  0  0  0  0  0  0  0
   57.9840   28.4500   45.8010 C   0  0  0  0  0  0  0  0  0  0  0  0
   59.1050   28.1060   46.2660 O   0  0  0  0  0  0  0  0  0  0  0  0
  1  2  1  0
  2  3  2  3
  3  4  1  0
  4  5  1  0
  4  6  1  0
  4  7  1  0
  7  8  1  0
  7  9  1  0
  7 10  1  0
  3 11  1  0
 11 12  1  0
 11 13  1  0
 11 14  1  0
 14 15  1  0
 14 16  1  0
 14 17  1  0
  2 18  1  0
 18 19  1  0
 19 20  1  0
 20 21  1  0
 20 22  2  0
 22 23  1  0
 23 24  1  0
 24 25  1  0
 24 26  2  0
 26 27  1  0
 27 28  2  0
 28 29  1  0
 28 30  1  0
 27 31  1  0
 31 32  1  0
 32 33  1  0
 33 34  2  0
 33 35  1  0
 35 36  1  0
 35 37  1  0
 35 38  1  0
 38 39  2  0
 39 40  1  0
 39 41  1  0
 41 42  1  0
 41 43  2  0
 43 44  1  0
 43 45  1  0
 45 46  1  0
 45 47  2  0
 47 48  1  0
 32 49  1  0
 49 50  2  0
 23 18  2  0
 49 26  1  0
 47 38  1  0
M  CHG  2  19  -1  31  -1
M  END
>  <UniqueID>  (3) 
3

>  <SMILES>  (3) 
C=c1[n-]n(C(=O)Cc2ccc(F)cc2)c(=O)/c1=C/c1nc[n-]c1C=C(CC)CC

>  <Energy>  (3) 
120.7832369612924

>  <Genealogy>  (3) 
C=c1[n-]n(C(=O)Cc2ccc(F)cc2)c(=O)c1=Cc1nc[n-]c1C=C(CC)CC (protonated)
C=c1[n-]n(C(=O)Cc2ccc(F)cc2)c(=O)/c1=C/c1nc[n-]c1C=C(CC)CC (cis-trans isomerization)
C=c1[n-]n(C(=O)Cc2ccc(F)cc2)c(=O)/c1=C/c1nc[n-]c1C=C(CC)CC (3D coordinates assigned)
C=c1[n-]n(C(=O)Cc2ccc(F)cc2)c(=O)/c1=C/c1nc[n-]c1C=C(CC)CC (optimized conformer: 120.7832369612924 kcal/mol)

>  <smiles>  (3) 
C=c1[nH]n(C(=O)Cc2ccc(F)cc2)c(=O)c1=Cc1nc[nH]c1C=C(CC)CC

>  <score_type>  (3) 
oracle

>  <origin>  (3) 
adg

>  <m_score__min__energy>  (3) 
-11.470000000000001

>  <m_primary>  (3) 
energy

$$$$
3:0
     RDKit          3D

 24 25  0  0  0  0  0  0  0  0999 V2000
   57.4092   25.5744   46.4485 H   0  0  0  0  0  0  0  0  0  0  0  0
   56.6040   26.2480   46.1200 C   0  0  0  0  0  0  0  0  0  0  0  0
   55.5550   25.9228   46.1826 H   0  0  0  0  0  0  0  0  0  0  0  0
   56.9000   27.4610   45.6450 C   0  0  0  0  0  0  0  0  0  0  0  0
   55.8910   28.2790   45.2440 N   0  0  0  0  0  0  0  0  0  0  0  0
   56.1190   29.5260   44.7550 C   0  0  0  0  0  0  0  0  0  0  0  0
   55.1370   30.2050   44.3550 O   0  0  0  0  0  0  0  0  0  0  0  0
   57.4500   30.0070   44.6740 C   0  0  0  0  0  0  0  0  0  0  0  0
   57.7990   31.2280   44.2190 C   0  0  0  0  0  0  0  0  0  0  0  0
   57.7701   31.3810   43.1301 H   0  0  0  0  0  0  0  0  0  0  0  0
   58.2160   32.3780   45.0450 C   0  0  0  0  0  0  0  0  0  0  0  0
   58.1370   32.2910   46.4430 C   0  0  0  0  0  0  0  0  0  0  0  0
   57.8073   31.3543   46.9161 H   0  0  0  0  0  0  0  0  0  0  0  0
   58.4760   33.3910   47.2370 C   0  0  0  0  0  0  0  0  0  0  0  0
   58.4280   33.3130   48.3332 H   0  0  0  0  0  0  0  0  0  0  0  0
   58.8760   34.5900   46.6390 C   0  0  0  0  0  0  0  0  0  0  0  0
   59.1505   35.4520   47.2647 H   0  0  0  0  0  0  0  0  0  0  0  0
   58.9270   34.6930   45.2450 C   0  0  0  0  0  0  0  0  0  0  0  0
   59.2337   35.6391   44.7750 H   0  0  0  0  0  0  0  0  0  0  0  0
   58.5890   33.5960   44.4490 C   0  0  0  0  0  0  0  0  0  0  0  0
   58.6147   33.6851   43.3529 H   0  0  0  0  0  0  0  0  0  0  0  0
   58.4540   29.1710   45.0570 N   0  0  0  0  0  0  0  0  0  0  0  0
   58.2240   27.9230   45.5390 C   0  0  0  0  0  0  0  0  0  0  0  0
   59.2000   27.2030   45.8820 O   0  0  0  0  0  0  0  0  0  0  0  0
  1  2  1  0
  2  3  1  0
  2  4  2  0
  4  5  1  0
  5  6  1  0
  6  7  2  0
  6  8  1  0
  8  9  2  0
  9 10  1  0
  9 11  1  0
 11 12  2  0
 12 13  1  0
 12 14  1  0
 14 15  1  0
 14 16  2  0
 16 17  1  0
 16 18  1  0
 18 19  1  0
 18 20  2  0
 20 21  1  0
  8 22  1  0
 22 23  1  0
 23 24  2  0
 23  4  1  0
 20 11  1  0
M  CHG  2   5  -1  22  -1
M  END
>  <UniqueID>  (4) 
4

>  <SMILES>  (4) 
C=c1[n-]c(=O)/c(=C\c2ccccc2)[n-]c1=O

>  <Energy>  (4) 
39.94267065501212

>  <Genealogy>  (4) 
C=c1[n-]c(=O)c(=Cc2ccccc2)[n-]c1=O (protonated)
C=c1[n-]c(=O)/c(=C\c2ccccc2)[n-]c1=O (cis-trans isomerization)
C=c1[n-]c(=O)/c(=C\c2ccccc2)[n-]c1=O (3D coordinates assigned)
C=c1[n-]c(=O)/c(=C\c2ccccc2)[n-]c1=O (optimized conformer: 39.94267065501212 kcal/mol)

>  <smiles>  (4) 
C=c1[nH]c(=O)c(=Cc2ccccc2)[nH]c1=O

>  <score_type>  (4) 
oracle

>  <origin>  (4) 
adg

>  <m_score__min__energy>  (4) 
-10.43

>  <m_primary>  (4) 
energy

$$$$
4:0
     RDKit          3D

 55 58  0  0  0  0  0  0  0  0999 V2000
   59.6670   36.2090   46.2130 O   0  0  0  0  0  0  0  0  0  0  0  0
   59.9160   34.9740   46.1950 C   0  0  0  0  0  0  0  0  0  0  0  0
   61.1400   34.5140   46.7850 N   0  0  0  0  0  0  0  0  0  0  0  0
   61.2630   33.7630   48.0010 C   0  0  0  0  0  0  0  0  0  0  0  0
   62.4200   33.8300   48.7970 C   0  0  0  0  0  0  0  0  0  0  0  0
   62.5130   33.0720   49.9660 C   0  0  0  0  0  0  0  0  0  0  0  0
   61.4640   32.2310   50.3430 C   0  0  0  0  0  0  0  0  0  0  0  0
   60.3130   32.1350   49.5460 C   0  0  0  0  0  0  0  0  0  0  0  0
   59.1840   31.2160   49.9320 C   0  0  0  0  0  0  0  0  0  0  0  0
   59.1390   30.0460   49.0310 N   0  0  0  0  0  0  0  0  0  0  0  0
   60.4780   29.4260   48.9130 C   0  0  0  0  0  0  0  0  0  0  0  0
   60.5860   28.5790   47.6410 C   0  0  0  0  0  0  0  0  0  0  0  0
   60.4580   29.4190   46.4270 N   0  0  0  0  0  0  0  0  0  0  0  0
   60.0600   28.5970   45.2660 C   0  0  0  0  0  0  0  0  0  0  0  0
   58.6720   28.0450   45.4640 C   0  0  0  0  0  0  0  0  0  0  0  0
   58.4970   26.7770   46.0390 C   0  0  0  0  0  0  0  0  0  0  0  0
   57.2130   26.2550   46.2190 C   0  0  0  0  0  0  0  0  0  0  0  0
   56.0930   26.9950   45.8240 C   0  0  0  0  0  0  0  0  0  0  0  0
   54.8190   26.4690   46.0040 O   0  0  0  0  0  0  0  0  0  0  0  0
   56.2590   28.2600   45.2490 C   0  0  0  0  0  0  0  0  0  0  0  0
   55.1500   28.9990   44.8540 O   0  0  0  0  0  0  0  0  0  0  0  0
   57.5430   28.7840   45.0690 C   0  0  0  0  0  0  0  0  0  0  0  0
   59.5680   30.5950   46.6150 C   0  0  0  0  0  0  0  0  0  0  0  0
   58.5210   30.3710   47.7180 C   0  0  0  0  0  0  0  0  0  0  0  0
   60.2240   32.9000   48.3720 C   0  0  0  0  0  0  0  0  0  0  0  0
   58.9700   34.0520   45.5240 C   0  0  0  0  0  0  0  0  0  0  0  0
   57.8990   33.4920   46.2450 C   0  0  0  0  0  0  0  0  0  0  0  0
   57.0000   32.6250   45.6160 C   0  0  0  0  0  0  0  0  0  0  0  0
   57.1550   32.3160   44.2630 C   0  0  0  0  0  0  0  0  0  0  0  0
   58.2050   32.8780   43.5340 C   0  0  0  0  0  0  0  0  0  0  0  0
   59.1060   33.7460   44.1570 C   0  0  0  0  0  0  0  0  0  0  0  0
   63.2544   34.4815   48.4980 H   0  0  0  0  0  0  0  0  0  0  0  0
   63.4153   33.1376   50.5918 H   0  0  0  0  0  0  0  0  0  0  0  0
   61.5402   31.6414   51.2685 H   0  0  0  0  0  0  0  0  0  0  0  0
   59.3348   30.8714   50.9657 H   0  0  0  0  0  0  0  0  0  0  0  0
   58.2343   31.7650   49.8504 H   0  0  0  0  0  0  0  0  0  0  0  0
   61.2393   30.2194   48.8815 H   0  0  0  0  0  0  0  0  0  0  0  0
   60.6364   28.7709   49.7823 H   0  0  0  0  0  0  0  0  0  0  0  0
   61.5635   28.0748   47.6273 H   0  0  0  0  0  0  0  0  0  0  0  0
   59.7699   27.8415   47.6426 H   0  0  0  0  0  0  0  0  0  0  0  0
   60.0767   29.2189   44.3589 H   0  0  0  0  0  0  0  0  0  0  0  0
   60.7657   27.7595   45.1632 H   0  0  0  0  0  0  0  0  0  0  0  0
   59.3746   26.1910   46.3496 H   0  0  0  0  0  0  0  0  0  0  0  0
   57.0827   25.2610   46.6718 H   0  0  0  0  0  0  0  0  0  0  0  0
   57.6702   29.7785   44.6165 H   0  0  0  0  0  0  0  0  0  0  0  0
   60.1850   31.4645   46.8857 H   0  0  0  0  0  0  0  0  0  0  0  0
   59.0284   30.7599   45.6707 H   0  0  0  0  0  0  0  0  0  0  0  0
   57.9217   31.2870   47.8270 H   0  0  0  0  0  0  0  0  0  0  0  0
   57.8988   29.5143   47.4198 H   0  0  0  0  0  0  0  0  0  0  0  0
   59.3292   32.8208   47.7371 H   0  0  0  0  0  0  0  0  0  0  0  0
   57.7683   33.7376   47.3092 H   0  0  0  0  0  0  0  0  0  0  0  0
   56.1694   32.1857   46.1879 H   0  0  0  0  0  0  0  0  0  0  0  0
   56.4498   31.6297   43.7714 H   0  0  0  0  0  0  0  0  0  0  0  0
   58.3233   32.6371   42.4672 H   0  0  0  0  0  0  0  0  0  0  0  0
   59.9261   34.1925   43.5756 H   0  0  0  0  0  0  0  0  0  0  0  0
  1  2  2  0
  2  3  1  0
  3  4  1  0
  4  5  2  0
  5  6  1  0
  6  7  2  0
  7  8  1  0
  8  9  1  0
  9 10  1  0
 10 11  1  0
 11 12  1  0
 12 13  1  0
 13 14  1  0
 14 15  1  0
 15 16  2  0
 16 17  1  0
 17 18  2  0
 18 19  1  0
 18 20  1  0
 20 21  1  0
 20 22  2  0
 13 23  1  0
 23 24  1  0
  8 25  2  0
  2 26  1  0
 26 27  2  0
 27 28  1  0
 28 29  2  0
 29 30  1  0
 30 31  2  0
 25  4  1  0
 31 26  1  0
 24 10  1  0
 22 15  1  0
  5 32  1  0
  6 33  1  0
  7 34  1  0
  9 35  1  0
  9 36  1  0
 11 37  1  0
 11 38  1  0
 12 39  1  0
 12 40  1  0
 14 41  1  0
 14 42  1  0
 16 43  1  0
 17 44  1  0
 22 45  1  0
 23 46  1  0
 23 47  1  0
 24 48  1  0
 24 49  1  0
 25 50  1  0
 27 51  1  0
 28 52  1  0
 29 53  1  0
 30 54  1  0
 31 55  1  0
M  CHG  3   3  -1  19  -1  21  -1
M  END
>  <UniqueID>  (5) 
5

>  <SMILES>  (5) 
O=C([N-]c1cccc(CN2CCN(Cc3ccc([O-])c([O-])c3)CC2)c1)c1ccccc1

>  <Energy>  (5) 
78.46869183176473

>  <Genealogy>  (5) 
O=C([N-]c1cccc(CN2CCN(Cc3ccc([O-])c([O-])c3)CC2)c1)c1ccccc1 (protonated)
O=C([N-]c1cccc(CN2CCN(Cc3ccc([O-])c([O-])c3)CC2)c1)c1ccccc1 (3D coordinates assigned)
O=C([N-]c1cccc(CN2CCN(Cc3ccc([O-])c([O-])c3)CC2)c1)c1ccccc1 (nonaromatic ring conformer: 78.46869183176473 kcal/mol)

>  <smiles>  (5) 
O=C(Nc1cccc(CN2CCN(Cc3ccc(O)c(O)c3)CC2)c1)c1ccccc1

>  <score_type>  (5) 
oracle

>  <origin>  (5) 
adg

>  <m_score__min__energy>  (5) 
-18.899999999999999

>  <m_primary>  (5) 
energy

$$$$
5:0
     RDKit          3D

 53 57  0  0  0  0  0  0  0  0999 V2000
   55.1740   29.2060   44.8610 O   0  0  0  0  0  0  0  0  0  0  0  0
   56.2920   29.7320   44.6110 C   0  0  0  0  0  0  0  0  0  0  0  0
   57.4980   28.8460   44.4550 C   0  0  0  0  0  0  0  0  0  0  0  0
   57.5600   27.8800   45.5030 O   0  0  0  0  0  0  0  0  0  0  0  0
   58.4470   27.9120   46.5910 C   0  0  0  0  0  0  0  0  0  0  0  0
   58.7710   29.1150   47.2530 C   0  0  0  0  0  0  0  0  0  0  0  0
   59.7070   29.1230   48.2900 C   0  0  0  0  0  0  0  0  0  0  0  0
   60.3300   27.9380   48.6770 C   0  0  0  0  0  0  0  0  0  0  0  0
   60.0100   26.7370   48.0380 C   0  0  0  0  0  0  0  0  0  0  0  0
   59.0530   26.7120   47.0160 C   0  0  0  0  0  0  0  0  0  0  0  0
   58.7400   25.4570   46.4010 N   0  0  0  0  0  0  0  0  0  0  0  0
   57.3160   24.5400   46.7800 S   0  0  0  0  0  0  0  0  0  0  0  0
   57.6690   23.3720   47.6580 O   0  0  0  0  0  0  0  0  0  0  0  0
   56.3560   25.4230   47.5260 O   0  0  0  0  0  0  0  0  0  0  0  0
   56.5340   24.0160   45.2840 C   0  0  0  0  0  0  0  0  0  0  0  0
   57.3230   23.4390   44.2720 C   0  0  0  0  0  0  0  0  0  0  0  0
   56.7410   22.9680   43.0870 C   0  0  0  0  0  0  0  0  0  0  0  0
   55.3590   23.0530   42.8890 C   0  0  0  0  0  0  0  0  0  0  0  0
   54.5610   23.6160   43.8850 C   0  0  0  0  0  0  0  0  0  0  0  0
   53.2110   23.7220   43.7690 N   0  0  0  0  0  0  0  0  0  0  0  0
   52.8470   24.4420   45.2130 S   0  0  0  0  0  0  0  0  0  0  0  0
   54.2880   24.6400   45.9960 N   0  0  0  0  0  0  0  0  0  0  0  0
   55.1450   24.1060   45.0870 C   0  0  0  0  0  0  0  0  0  0  0  0
   56.3800   31.1630   44.5440 N   0  0  0  0  0  0  0  0  0  0  0  0
   57.4020   31.9350   43.8410 C   0  0  0  0  0  0  0  0  0  0  0  0
   58.4840   32.4280   44.8100 C   0  0  1  0  0  0  0  0  0  0  0  0
   58.7140   33.9450   44.6610 C   0  0  0  0  0  0  0  0  0  0  0  0
   59.5780   34.4150   45.6980 O   0  0  0  0  0  0  0  0  0  0  0  0
   59.4680   33.9280   47.0050 C   0  0  0  0  0  0  0  0  0  0  0  0
   60.1060   34.5750   48.0670 C   0  0  0  0  0  0  0  0  0  0  0  0
   59.9500   34.0900   49.3710 C   0  0  0  0  0  0  0  0  0  0  0  0
   59.1600   32.9590   49.6100 C   0  0  0  0  0  0  0  0  0  0  0  0
   58.5350   32.3020   48.5440 C   0  0  0  0  0  0  0  0  0  0  0  0
   58.7010   32.7790   47.2410 C   0  0  0  0  0  0  0  0  0  0  0  0
   58.1080   32.1230   46.1570 O   0  0  0  0  0  0  0  0  0  0  0  0
   57.4392   28.3249   43.4881 H   0  0  0  0  0  0  0  0  0  0  0  0
   58.4016   29.4717   44.5004 H   0  0  0  0  0  0  0  0  0  0  0  0
   58.2831   30.0533   46.9504 H   0  0  0  0  0  0  0  0  0  0  0  0
   59.9525   30.0654   48.8015 H   0  0  0  0  0  0  0  0  0  0  0  0
   61.0747   27.9480   49.4866 H   0  0  0  0  0  0  0  0  0  0  0  0
   60.5127   25.8062   48.3395 H   0  0  0  0  0  0  0  0  0  0  0  0
   58.4109   23.3564   44.4126 H   0  0  0  0  0  0  0  0  0  0  0  0
   57.3772   22.5273   42.3053 H   0  0  0  0  0  0  0  0  0  0  0  0
   54.9065   22.6801   41.9583 H   0  0  0  0  0  0  0  0  0  0  0  0
   57.8688   31.2992   43.0743 H   0  0  0  0  0  0  0  0  0  0  0  0
   56.9225   32.8098   43.3775 H   0  0  0  0  0  0  0  0  0  0  0  0
   59.4242   31.9118   44.5658 H   0  0  0  0  0  0  0  0  0  0  0  0
   59.1749   34.1488   43.6832 H   0  0  0  0  0  0  0  0  0  0  0  0
   57.7473   34.4646   44.7347 H   0  0  0  0  0  0  0  0  0  0  0  0
   60.7285   35.4622   47.8789 H   0  0  0  0  0  0  0  0  0  0  0  0
   60.4489   34.5983   50.2092 H   0  0  0  0  0  0  0  0  0  0  0  0
   59.0304   32.5864   50.6368 H   0  0  0  0  0  0  0  0  0  0  0  0
   57.9150   31.4129   48.7312 H   0  0  0  0  0  0  0  0  0  0  0  0
  1  2  2  0
  2  3  1  0
  3  4  1  0
  4  5  1  0
  5  6  2  0
  6  7  1  0
  7  8  2  0
  8  9  1  0
  9 10  2  0
 10 11  1  0
 11 12  1  0
 12 13  2  0
 12 14  2  0
 12 15  1  0
 15 16  2  0
 16 17  1  0
 17 18  2  0
 18 19  1  0
 19 20  2  0
 20 21  1  0
 21 22  1  0
 22 23  2  0
  2 24  1  0
 24 25  1  0
 25 26  1  0
 26 27  1  0
 27 28  1  0
 28 29  1  0
 29 30  2  0
 30 31  1  0
 31 32  2  0
 32 33  1  0
 33 34  2  0
 34 35  1  0
 10  5  1  0
 23 15  1  0
 35 26  1  0
 23 19  1  0
 34 29  1  0
  3 36  1  0
  3 37  1  0
  6 38  1  0
  7 39  1  0
  8 40  1  0
  9 41  1  0
 16 42  1  0
 17 43  1  0
 18 44  1  0
 25 45  1  0
 25 46  1  0
 26 47  1  6
 27 48  1  0
 27 49  1  0
 30 50  1  0
 31 51  1  0
 32 52  1  0
 33 53  1  0
M  CHG  2  11  -1  24  -1
M  END
>  <UniqueID>  (6) 
6

>  <SMILES>  (6) 
O=C(COc1ccccc1[N-]S(=O)(=O)c1cccc2nsnc12)[N-]C[C@H]1COc2ccccc2O1

>  <Energy>  (6) 
102.23454621308

>  <Genealogy>  (6) 
O=C(COc1ccccc1[N-]S(=O)(=O)c1cccc2nsnc12)[N-]CC1COc2ccccc2O1 (protonated)
O=C(COc1ccccc1[N-]S(=O)(=O)c1cccc2nsnc12)[N-]C[C@H]1COc2ccccc2O1 (chirality)
O=C(COc1ccccc1[N-]S(=O)(=O)c1cccc2nsnc12)[N-]C[C@H]1COc2ccccc2O1 (3D coordinates assigned)
O=C(COc1ccccc1[N-]S(=O)(=O)c1cccc2nsnc12)[N-]C[C@H]1COc2ccccc2O1 (nonaromatic ring conformer: 102.23454621308 kcal/mol)

>  <smiles>  (6) 
O=C(COc1ccccc1NS(=O)(=O)c1cccc2nsnc12)NCC1COc2ccccc2O1

>  <score_type>  (6) 
oracle

>  <origin>  (6) 
adg

>  <m_score__min__energy>  (6) 
-12.67

>  <m_primary>  (6) 
energy

$$$$
6:0
     RDKit          3D

 51 54  0  0  0  0  0  0  0  0999 V2000
   59.3550   28.0070   47.8650 C   0  0  0  0  0  0  0  0  0  0  0  0
   58.6650   28.7240   46.9640 C   0  0  0  0  0  0  0  0  0  0  0  0
   58.0970   28.2560   45.7700 C   0  0  0  0  0  0  0  0  0  0  0  0
   57.8740   27.0010   45.3350 C   0  0  0  0  0  0  0  0  0  0  0  0
   57.2160   25.9340   46.1070 C   0  0  0  0  0  0  0  0  0  0  0  0
   57.8490   24.8300   46.5370 N   0  0  0  0  0  0  0  0  0  0  0  0
   56.8570   24.0930   47.0840 C   0  0  0  0  0  0  0  0  0  0  0  0
   57.0610   22.9720   47.6190 O   0  0  0  0  0  0  0  0  0  0  0  0
   55.6280   24.6470   47.0050 N   0  0  0  0  0  0  0  0  0  0  0  0
   55.8680   25.8050   46.3700 C   0  0  0  0  0  0  0  0  0  0  0  0
   54.8750   26.7100   46.0150 O   0  0  0  0  0  0  0  0  0  0  0  0
   57.7440   29.3810   45.0410 C   0  0  0  0  0  0  0  0  0  0  0  0
   58.0280   30.4750   45.8340 C   0  0  0  0  0  0  0  0  0  0  0  0
   57.7510   31.8980   45.4570 C   0  0  0  0  0  0  0  0  0  0  0  0
   58.5700   30.0780   47.0050 N   0  0  0  0  0  0  0  0  0  0  0  0
   58.9520   30.9410   48.0920 C   0  0  0  0  0  0  0  0  0  0  0  0
   58.5320   30.6980   49.2560 O   0  0  0  0  0  0  0  0  0  0  0  0
   59.8210   32.0650   47.8580 N   0  0  0  0  0  0  0  0  0  0  0  0
   59.4320   33.4190   48.2540 C   0  0  0  0  0  0  0  0  0  0  0  0
   60.6410   34.1330   48.8670 C   0  0  0  0  0  0  0  0  0  0  0  0
   61.8370   34.1510   47.9740 N   0  0  0  0  0  0  0  0  0  0  0  0
   63.1470   34.2110   48.6800 C   0  0  0  0  0  0  0  0  0  0  0  0
   64.1390   33.1260   48.2220 C   0  0  0  0  0  0  0  0  0  0  0  0
   64.6280   32.4170   49.4790 C   0  0  0  0  0  0  0  0  0  0  0  0
   63.6100   32.7210   50.5650 C   0  0  0  0  0  0  0  0  0  0  0  0
   63.0120   34.0700   50.2040 C   0  0  0  0  0  0  0  0  0  0  0  0
   61.8420   33.1820   46.8430 C   0  0  0  0  0  0  0  0  0  0  0  0
   61.0600   31.9380   47.1520 C   0  0  0  0  0  0  0  0  0  0  0  0
   61.4870   30.8120   46.7800 O   0  0  0  0  0  0  0  0  0  0  0  0
   59.7520   28.4940   48.7679 H   0  0  0  0  0  0  0  0  0  0  0  0
   59.5234   26.9325   47.7004 H   0  0  0  0  0  0  0  0  0  0  0  0
   58.2117   26.7525   44.3180 H   0  0  0  0  0  0  0  0  0  0  0  0
   57.3195   29.3987   44.0264 H   0  0  0  0  0  0  0  0  0  0  0  0
   57.6333   32.5025   46.3684 H   0  0  0  0  0  0  0  0  0  0  0  0
   58.5897   32.2898   44.8629 H   0  0  0  0  0  0  0  0  0  0  0  0
   56.8265   31.9466   44.8629 H   0  0  0  0  0  0  0  0  0  0  0  0
   59.0856   33.9752   47.3705 H   0  0  0  0  0  0  0  0  0  0  0  0
   58.6195   33.3680   48.9937 H   0  0  0  0  0  0  0  0  0  0  0  0
   60.3562   35.1721   49.0887 H   0  0  0  0  0  0  0  0  0  0  0  0
   60.9215   33.5753   49.7727 H   0  0  0  0  0  0  0  0  0  0  0  0
   63.5319   35.2074   48.4175 H   0  0  0  0  0  0  0  0  0  0  0  0
   63.6360   32.4103   47.5551 H   0  0  0  0  0  0  0  0  0  0  0  0
   64.9790   33.5686   47.6666 H   0  0  0  0  0  0  0  0  0  0  0  0
   64.6872   31.3324   49.3056 H   0  0  0  0  0  0  0  0  0  0  0  0
   65.6327   32.7607   49.7660 H   0  0  0  0  0  0  0  0  0  0  0  0
   62.8278   31.9478   50.5844 H   0  0  0  0  0  0  0  0  0  0  0  0
   64.0737   32.7370   51.5623 H   0  0  0  0  0  0  0  0  0  0  0  0
   61.9524   34.1070   50.4970 H   0  0  0  0  0  0  0  0  0  0  0  0
   63.5288   34.8880   50.7273 H   0  0  0  0  0  0  0  0  0  0  0  0
   61.3999   33.6671   45.9602 H   0  0  0  0  0  0  0  0  0  0  0  0
   62.8853   32.8856   46.6597 H   0  0  0  0  0  0  0  0  0  0  0  0
  1  2  2  0
  2  3  1  0
  3  4  2  3
  4  5  1  0
  5  6  1  0
  6  7  1  0
  7  8  2  0
  7  9  1  0
  9 10  1  0
 10 11  1  0
  3 12  1  0
 12 13  2  0
 13 14  1  0
 13 15  1  0
 15 16  1  0
 16 17  2  0
 16 18  1  0
 18 19  1  0
 19 20  1  0
 20 21  1  0
 21 22  1  0
 22 23  1  0
 23 24  1  0
 24 25  1  0
 25 26  1  0
 21 27  1  0
 27 28  1  0
 28 29  2  0
 15  2  1  0
 28 18  1  0
 10  5  2  0
 26 22  1  0
  1 30  1  0
  1 31  1  0
  4 32  1  0
 12 33  1  0
 14 34  1  0
 14 35  1  0
 14 36  1  0
 19 37  1  0
 19 38  1  0
 20 39  1  0
 20 40  1  0
 22 41  1  0
 23 42  1  0
 23 43  1  0
 24 44  1  0
 24 45  1  0
 25 46  1  0
 25 47  1  0
 26 48  1  0
 26 49  1  0
 27 50  1  0
 27 51  1  0
M  CHG  3   6  -1   9  -1  11  -1
M  END
>  <UniqueID>  (7) 
7

>  <SMILES>  (7) 
C=c1c(=Cc2[n-]c(=O)[n-]c2[O-])cc(C)n1C(=O)N1CCN(C2CCCC2)CC1=O

>  <Energy>  (7) 
141.959955127649

>  <Genealogy>  (7) 
C=c1c(=Cc2[n-]c(=O)[n-]c2[O-])cc(C)n1C(=O)N1CCN(C2CCCC2)CC1=O (protonated)
C=c1c(=Cc2[n-]c(=O)[n-]c2[O-])cc(C)n1C(=O)N1CCN(C2CCCC2)CC1=O (3D coordinates assigned)
C=c1c(=Cc2[n-]c(=O)[n-]c2[O-])cc(C)n1C(=O)N1CCN(C2CCCC2)CC1=O (nonaromatic ring conformer: 141.959955127649 kcal/mol)

>  <smiles>  (7) 
C=c1c(=Cc2[nH]c(=O)[nH]c2O)cc(C)n1C(=O)N1CCN(C2CCCC2)CC1=O

>  <score_type>  (7) 
oracle

>  <origin>  (7) 
adg

>  <m_score__min__energy>  (7) 
-16.559999999999999

>  <m_primary>  (7) 
energy

$$$$
7:0
     RDKit          3D

 38 39  0  0  0  0  0  0  0  0999 V2000
   64.4085   33.5537   46.7711 H   0  0  0  0  0  0  0  0  0  0  0  0
   63.4260   33.1110   46.9920 C   0  0  0  0  0  0  0  0  0  0  0  0
   63.3420   31.8020   47.4690 C   0  0  0  0  0  0  0  0  0  0  0  0
   64.2592   31.2150   47.6242 H   0  0  0  0  0  0  0  0  0  0  0  0
   62.0960   31.2350   47.7500 C   0  0  0  0  0  0  0  0  0  0  0  0
   62.0377   30.2025   48.1248 H   0  0  0  0  0  0  0  0  0  0  0  0
   60.9170   31.9750   47.5570 C   0  0  0  0  0  0  0  0  0  0  0  0
   59.3520   31.2350   47.9200 S   0  0  0  0  0  0  0  0  0  0  0  0
   59.5020   29.7400   47.9060 O   0  0  0  0  0  0  0  0  0  0  0  0
   58.8950   31.6980   49.2750 O   0  0  0  0  0  0  0  0  0  0  0  0
   58.1770   31.7020   46.7310 N   0  0  0  0  0  0  0  0  0  0  0  0
   57.7730   30.9050   45.6110 C   0  0  0  0  0  0  0  0  0  0  0  0
   57.3130   31.5520   44.4590 C   0  0  0  0  0  0  0  0  0  0  0  0
   57.2731   32.6509   44.4296 H   0  0  0  0  0  0  0  0  0  0  0  0
   56.9040   30.8140   43.3460 C   0  0  0  0  0  0  0  0  0  0  0  0
   56.5473   31.3330   42.4441 H   0  0  0  0  0  0  0  0  0  0  0  0
   56.9470   29.4180   43.3760 C   0  0  0  0  0  0  0  0  0  0  0  0
   56.6233   28.8407   42.4974 H   0  0  0  0  0  0  0  0  0  0  0  0
   57.4020   28.7490   44.5240 C   0  0  0  0  0  0  0  0  0  0  0  0
   57.4450   27.2430   44.5550 C   0  0  0  0  0  0  0  0  0  0  0  0
   58.4937   26.9130   44.5172 H   0  0  0  0  0  0  0  0  0  0  0  0
   56.8869   26.8604   43.6878 H   0  0  0  0  0  0  0  0  0  0  0  0
   56.8030   26.7040   45.8140 C   0  0  0  0  0  0  0  0  0  0  0  0
   57.5020   26.2560   46.8190 N   0  0  0  0  0  0  0  0  0  0  0  0
   58.8070   26.7490   47.2460 C   0  0  0  0  0  0  0  0  0  0  0  0
   58.8510   26.7656   48.3450 H   0  0  0  0  0  0  0  0  0  0  0  0
   59.5944   26.0864   46.8575 H   0  0  0  0  0  0  0  0  0  0  0  0
   58.9596   27.7667   46.8575 H   0  0  0  0  0  0  0  0  0  0  0  0
   55.3790   26.7160   45.9230 N   0  0  0  0  0  0  0  0  0  0  0  0
   54.7840   27.0750   45.1440 H   0  0  0  0  0  0  0  0  0  0  0  0
   54.9110   26.3650   46.7880 H   0  0  0  0  0  0  0  0  0  0  0  0
   57.8230   29.4980   45.6360 C   0  0  0  0  0  0  0  0  0  0  0  0
   58.1945   28.9811   46.5331 H   0  0  0  0  0  0  0  0  0  0  0  0
   61.0070   33.3010   47.0730 C   0  0  0  0  0  0  0  0  0  0  0  0
   59.8290   34.1050   46.8580 C   0  0  0  0  0  0  0  0  0  0  0  0
   58.8830   34.7490   46.6840 N   0  0  0  0  0  0  0  0  0  0  0  0
   62.2630   33.8590   46.7950 C   0  0  0  0  0  0  0  0  0  0  0  0
   62.3327   34.8907   46.4200 H   0  0  0  0  0  0  0  0  0  0  0  0
  1  2  1  0
  2  3  2  0
  3  4  1  0
  3  5  1  0
  5  6  1  0
  5  7  2  0
  7  8  1  0
  8  9  2  0
  8 10  2  0
  8 11  1  0
 11 12  1  0
 12 13  2  0
 13 14  1  0
 13 15  1  0
 15 16  1  0
 15 17  2  0
 17 18  1  0
 17 19  1  0
 19 20  1  0
 20 21  1  0
 20 22  1  0
 20 23  1  0
 23 24  2  0
 24 25  1  0
 25 26  1  0
 25 27  1  0
 25 28  1  0
 23 29  1  0
 29 30  1  0
 29 31  1  0
 19 32  2  0
 32 33  1  0
  7 34  1  0
 34 35  1  0
 35 36  3  0
 34 37  2  0
 37 38  1  0
 37  2  1  0
 32 12  1  0
M  CHG  1  11  -1
M  END
>  <UniqueID>  (8) 
8

>  <SMILES>  (8) 
C/N=C(/N)Cc1cccc([N-]S(=O)(=O)c2ccccc2C#N)c1

>  <Energy>  (8) 
39.778166686366696

>  <Genealogy>  (8) 
CN=C(N)Cc1cccc([N-]S(=O)(=O)c2ccccc2C#N)c1 (protonated)
C/N=C(/N)Cc1cccc([N-]S(=O)(=O)c2ccccc2C#N)c1 (cis-trans isomerization)
C/N=C(/N)Cc1cccc([N-]S(=O)(=O)c2ccccc2C#N)c1 (3D coordinates assigned)
C/N=C(/N)Cc1cccc([N-]S(=O)(=O)c2ccccc2C#N)c1 (optimized conformer: 39.778166686366696 kcal/mol)

>  <smiles>  (8) 
CN=C(N)Cc1cccc(NS(=O)(=O)c2ccccc2C#N)c1

>  <score_type>  (8) 
oracle

>  <origin>  (8) 
adg

>  <m_score__min__energy>  (8) 
-10.27

>  <m_primary>  (8) 
energy

$$$$
8:0
     RDKit          3D

 51 55  0  0  1  0  0  0  0  0999 V2000
   60.8170   26.9860   50.0520 O   0  0  0  0  0  0  0  0  0  0  0  0
   60.3940   27.5510   49.0050 C   0  0  0  0  0  0  0  0  0  0  0  0
   60.6510   28.9700   48.7100 C   0  0  0  0  0  0  0  0  0  0  0  0
   59.4260   29.6500   48.2860 N   0  0  0  0  0  0  0  0  0  0  0  0
   59.0280   30.9370   48.7940 C   0  0  0  0  0  0  0  0  0  0  0  0
   59.5560   32.0690   47.9850 C   0  0  0  0  0  0  0  0  0  0  0  0
   58.7250   33.0170   47.4100 C   0  0  0  0  0  0  0  0  0  0  0  0
   59.1980   34.0710   46.6570 C   0  0  0  0  0  0  0  0  0  0  0  0
   60.5520   34.2220   46.4460 C   0  0  0  0  0  0  0  0  0  0  0  0
   61.4090   33.2950   47.0050 C   0  0  0  0  0  0  0  0  0  0  0  0
   63.1360   33.4770   46.7440 Cl  0  0  0  0  0  0  0  0  0  0  0  0
   60.9170   32.2470   47.7550 C   0  0  0  0  0  0  0  0  0  0  0  0
   58.6500   28.9190   47.3160 C   0  0  0  0  0  0  0  0  0  0  0  0
   57.8390   29.6660   46.5470 N   0  0  0  0  0  0  0  0  0  0  0  0
   57.9770   26.9500   46.2490 C   0  0  0  0  0  0  0  0  0  0  0  0
   57.9630   25.7310   46.0400 N   0  0  0  0  0  0  0  0  0  0  0  0
   56.8480   30.7140   43.9730 C   0  0  0  0  0  0  0  0  0  0  0  0
   56.7050   30.6480   42.6010 C   0  0  0  0  0  0  0  0  0  0  0  0
   57.2810   31.6460   41.8130 C   0  0  0  0  0  0  0  0  0  0  0  0
   57.9910   32.6900   42.4150 C   0  0  0  0  0  0  0  0  0  0  0  0
   58.1310   32.7510   43.7970 C   0  0  0  0  0  0  0  0  0  0  0  0
   57.5550   31.7570   44.5600 C   0  0  0  0  0  0  0  0  0  0  0  0
   57.1790   27.7400   45.5010 N   0  0  0  0  0  0  0  0  0  0  0  0
   57.0870   29.0670   45.6200 C   0  0  0  0  0  0  0  0  0  0  0  0
   56.2930   29.7390   44.8560 N   0  0  0  0  0  0  0  0  0  0  0  0
   57.0560   25.0400   45.1840 C   0  0  0  0  0  0  0  0  0  0  0  0
   57.7980   23.7740   44.6120 C   0  0  0  0  0  0  0  0  0  0  0  0
   57.3370   24.8140   43.7200 C   0  0  0  0  0  0  0  0  0  0  0  0
   58.7540   27.5400   47.2020 C   0  0  0  0  0  0  0  0  0  0  0  0
   59.6170   26.8040   48.0240 N   0  0  0  0  0  0  0  0  0  0  0  0
   61.0395   29.4605   49.6147 H   0  0  0  0  0  0  0  0  0  0  0  0
   61.3848   29.0298   47.8927 H   0  0  0  0  0  0  0  0  0  0  0  0
   57.9292   30.9892   48.7950 H   0  0  0  0  0  0  0  0  0  0  0  0
   59.4441   31.0342   49.8076 H   0  0  0  0  0  0  0  0  0  0  0  0
   57.6393   32.9247   47.5609 H   0  0  0  0  0  0  0  0  0  0  0  0
   58.4920   34.7943   46.2229 H   0  0  0  0  0  0  0  0  0  0  0  0
   60.9396   35.0596   45.8476 H   0  0  0  0  0  0  0  0  0  0  0  0
   61.6263   31.5257   48.1870 H   0  0  0  0  0  0  0  0  0  0  0  0
   57.7580   30.7000   46.6300 H   0  0  0  0  0  0  0  0  0  0  0  0
   56.1461   29.8222   42.1365 H   0  0  0  0  0  0  0  0  0  0  0  0
   57.1765   31.6114   40.7185 H   0  0  0  0  0  0  0  0  0  0  0  0
   58.4439   33.4719   41.7877 H   0  0  0  0  0  0  0  0  0  0  0  0
   58.6881   33.5728   44.2706 H   0  0  0  0  0  0  0  0  0  0  0  0
   57.6571   31.7902   45.6548 H   0  0  0  0  0  0  0  0  0  0  0  0
   56.5790   27.2940   44.7650 H   0  0  0  0  0  0  0  0  0  0  0  0
   56.1435   25.3709   45.7016 H   0  0  0  0  0  0  0  0  0  0  0  0
   58.8750   23.6392   44.7909 H   0  0  0  0  0  0  0  0  0  0  0  0
   57.6512   22.6861   44.6829 H   0  0  0  0  0  0  0  0  0  0  0  0
   58.0750   25.4506   43.2099 H   0  0  0  0  0  0  0  0  0  0  0  0
   56.6975   24.8067   42.8250 H   0  0  0  0  0  0  0  0  0  0  0  0
   59.8160   25.8200   48.0620 H   0  0  0  0  0  0  0  0  0  0  0  0
  1  2  2  0
  2  3  1  0
  3  4  1  0
  4  5  1  0
  5  6  1  0
  6  7  2  0
  7  8  1  0
  8  9  2  0
  9 10  1  0
 10 11  1  0
 10 12  2  0
  4 13  1  0
 13 14  1  0
 14 15  1  0
 15 16  2  0
 16 17  1  0
 17 18  2  0
 18 19  1  0
 19 20  2  0
 20 21  1  0
 21 22  2  0
 15 23  1  0
 23 24  1  0
 24 25  2  0
 25 26  1  0
 26 27  1  0
 27 28  1  0
 24 29  1  0
 29 30  1  0
 30  2  1  0
 12  6  1  0
 29 13  2  0
 22 17  1  0
 28 26  1  0
  3 31  1  0
  3 32  1  0
  5 33  1  0
  5 34  1  0
  7 35  1  0
  8 36  1  0
  9 37  1  0
 12 38  1  0
 14 39  1  0
 18 40  1  0
 19 41  1  0
 20 42  1  0
 21 43  1  0
 22 44  1  0
 23 45  1  0
 26 46  1  0
 27 47  1  0
 27 48  1  0
 28 49  1  0
 28 50  1  0
 30 51  1  0
M  END
>  <smiles>  (9) 
O=C1CN(Cc2cccc(Cl)c2)c2[nH]c(=Nc3ccccc3)[nH]c(=NC3CC3)c2N1

>  <score_type>  (9) 
oracle

>  <origin>  (9) 
adg

>  <m_score__min__energy>  (9) 
-8.9399999999999995

>  <m_primary>  (9) 
energy

$$$$
9:0
     RDKit          3D

 39 42  0  0  0  0  0  0  0  0999 V2000
   59.0900   34.3610   51.2220 N   0  0  0  0  0  0  0  0  0  0  0  0
   59.2860   33.2640   50.3240 C   0  0  0  0  0  0  0  0  0  0  0  0
   59.3140   32.0940   50.7900 O   0  0  0  0  0  0  0  0  0  0  0  0
   59.4400   33.4780   48.8640 C   0  0  0  0  0  0  0  0  0  0  0  0
   60.5020   34.2620   48.3810 C   0  0  0  0  0  0  0  0  0  0  0  0
   60.6550   34.4780   47.0090 C   0  0  0  0  0  0  0  0  0  0  0  0
   59.7530   33.9180   46.1040 C   0  0  0  0  0  0  0  0  0  0  0  0
   58.6850   33.1300   46.5620 C   0  0  0  0  0  0  0  0  0  0  0  0
   57.7110   32.5520   45.6070 C   0  0  0  0  0  0  0  0  0  0  0  0
   56.6560   33.1920   45.3420 O   0  0  0  0  0  0  0  0  0  0  0  0
   57.9380   31.2750   44.9780 N   0  0  0  0  0  0  0  0  0  0  0  0
   56.8990   30.6630   44.1370 C   0  0  0  0  0  0  0  0  0  0  0  0
   56.3600   29.3940   44.8140 C   0  0  0  0  0  0  0  0  0  0  0  0
   57.4650   28.6060   45.3640 N   0  0  0  0  0  0  0  0  0  0  0  0
   58.7010   29.0700   45.6190 C   0  0  0  0  0  0  0  0  0  0  0  0
   59.5030   28.1120   46.1170 N   0  0  0  0  0  0  0  0  0  0  0  0
   58.7660   27.0130   46.2100 N   0  0  0  0  0  0  0  0  0  0  0  0
   57.5270   27.3180   45.7660 C   0  0  0  0  0  0  0  0  0  0  0  0
   56.4290   26.3330   45.7430 C   0  0  0  0  0  0  0  0  0  0  0  0
   56.5000   24.9940   45.4090 C   0  0  0  0  0  0  0  0  0  0  0  0
   55.1980   24.5530   45.5050 C   0  0  0  0  0  0  0  0  0  0  0  0
   54.4030   25.5750   45.8670 N   0  0  0  0  0  0  0  0  0  0  0  0
   55.1500   26.6600   46.0070 N   0  0  0  0  0  0  0  0  0  0  0  0
   59.1240   30.4710   45.3090 C   0  0  0  0  0  0  0  0  0  0  0  0
   58.5270   32.9270   47.9450 C   0  0  0  0  0  0  0  0  0  0  0  0
   59.0440   34.1880   52.2510 H   0  0  0  0  0  0  0  0  0  0  0  0
   58.8970   35.3260   50.8770 H   0  0  0  0  0  0  0  0  0  0  0  0
   61.2172   34.7083   49.0876 H   0  0  0  0  0  0  0  0  0  0  0  0
   61.4901   35.0921   46.6410 H   0  0  0  0  0  0  0  0  0  0  0  0
   59.8792   34.0948   45.0257 H   0  0  0  0  0  0  0  0  0  0  0  0
   56.0758   31.3787   43.9953 H   0  0  0  0  0  0  0  0  0  0  0  0
   57.3322   30.3973   43.1614 H   0  0  0  0  0  0  0  0  0  0  0  0
   55.6765   29.6785   45.6275 H   0  0  0  0  0  0  0  0  0  0  0  0
   55.8243   28.7889   44.0677 H   0  0  0  0  0  0  0  0  0  0  0  0
   57.3916   24.4132   45.1303 H   0  0  0  0  0  0  0  0  0  0  0  0
   54.8610   23.5233   45.3147 H   0  0  0  0  0  0  0  0  0  0  0  0
   59.6291   30.9046   46.1847 H   0  0  0  0  0  0  0  0  0  0  0  0
   59.8162   30.4662   44.4541 H   0  0  0  0  0  0  0  0  0  0  0  0
   57.6794   32.3302   48.3130 H   0  0  0  0  0  0  0  0  0  0  0  0
  1  2  1  0
  2  3  2  0
  2  4  1  0
  4  5  2  0
  5  6  1  0
  6  7  2  0
  7  8  1  0
  8  9  1  0
  9 10  2  0
  9 11  1  0
 11 12  1  0
 12 13  1  0
 13 14  1  0
 14 15  1  0
 15 16  2  0
 16 17  1  0
 17 18  2  0
 18 19  1  0
 19 20  1  0
 20 21  2  0
 21 22  1  0
 22 23  1  0
 15 24  1  0
  8 25  2  0
 25  4  1  0
 24 11  1  0
 18 14  1  0
 23 19  2  0
  1 26  1  0
  1 27  1  0
  5 28  1  0
  6 29  1  0
  7 30  1  0
 12 31  1  0
 12 32  1  0
 13 33  1  0
 13 34  1  0
 20 35  1  0
 21 36  1  0
 24 37  1  0
 24 38  1  0
 25 39  1  0
M  CHG  1  22  -1
M  END
>  <UniqueID>  (10) 
9

>  <SMILES>  (10) 
NC(=O)c1cccc(C(=O)N2CCn3c(nnc3-c3cc[n-]n3)C2)c1

>  <Energy>  (10) 
116.89388424756824

>  <Genealogy>  (10) 
NC(=O)c1cccc(C(=O)N2CCn3c(nnc3-c3cc[n-]n3)C2)c1 (protonated)
NC(=O)c1cccc(C(=O)N2CCn3c(nnc3-c3cc[n-]n3)C2)c1 (3D coordinates assigned)
NC(=O)c1cccc(C(=O)N2CCn3c(nnc3-c3cc[n-]n3)C2)c1 (nonaromatic ring conformer: 116.89388424756824 kcal/mol)

>  <smiles>  (10) 
NC(=O)c1cccc(C(=O)N2CCn3c(nnc3-c3cc[nH]n3)C2)c1

>  <score_type>  (10) 
oracle

>  <origin>  (10) 
adg

>  <m_score__min__energy>  (10) 
-11.18

>  <m_primary>  (10) 
energy

$$$$
10:0
     RDKit          3D

 43 46  0  0  0  0  0  0  0  0999 V2000
   57.2180   31.9890   41.1190 C   0  0  0  0  0  0  0  0  0  0  0  0
   57.4650   31.6020   42.5470 C   0  0  0  0  0  0  0  0  0  0  0  0
   57.0300   30.3580   43.0260 C   0  0  0  0  0  0  0  0  0  0  0  0
   57.2120   30.0120   44.3720 C   0  0  0  0  0  0  0  0  0  0  0  0
   56.7870   28.6610   44.8680 C   0  0  0  0  0  0  0  0  0  0  0  0
   57.8520   30.9110   45.2370 C   0  0  0  0  0  0  0  0  0  0  0  0
   58.2820   32.1650   44.7740 C   0  0  0  0  0  0  0  0  0  0  0  0
   58.9340   33.1220   45.7030 C   0  0  0  0  0  0  0  0  0  0  0  0
   59.9040   32.6750   46.6140 C   0  0  0  0  0  0  0  0  0  0  0  0
   60.5230   33.5690   47.5000 C   0  0  0  0  0  0  0  0  0  0  0  0
   61.5800   33.0610   48.4690 C   0  0  2  0  0  0  0  0  0  0  0  0
   62.4540   34.1780   49.0780 C   0  0  0  0  0  0  0  0  0  0  0  0
   63.8600   33.7220   48.6550 C   0  0  1  0  0  0  0  0  0  0  0  0
   64.2600   32.4950   49.4970 C   0  0  0  0  0  0  0  0  0  0  0  0
   63.4100   31.3950   48.8510 C   0  0  0  0  0  0  0  0  0  0  0  0
   62.6540   32.1940   47.7720 C   0  0  2  0  0  0  0  0  0  0  0  0
   63.6260   33.1800   47.3300 N   0  0  0  0  0  0  0  0  0  0  0  0
   60.1540   34.9240   47.4410 C   0  0  0  0  0  0  0  0  0  0  0  0
   59.2200   35.3440   46.5500 N   0  0  0  0  0  0  0  0  0  0  0  0
   58.6060   34.4890   45.6900 C   0  0  0  0  0  0  0  0  0  0  0  0
   57.7070   34.9820   44.8030 F   0  0  0  0  0  0  0  0  0  0  0  0
   58.0710   32.5090   43.4280 C   0  0  0  0  0  0  0  0  0  0  0  0
   56.6264   32.9159   41.0874 H   0  0  0  0  0  0  0  0  0  0  0  0
   58.1803   32.1507   40.6112 H   0  0  0  0  0  0  0  0  0  0  0  0
   56.6661   31.1843   40.6112 H   0  0  0  0  0  0  0  0  0  0  0  0
   56.5426   29.6488   42.3408 H   0  0  0  0  0  0  0  0  0  0  0  0
   56.7860   28.6579   45.9680 H   0  0  0  0  0  0  0  0  0  0  0  0
   55.7750   28.4369   44.4998 H   0  0  0  0  0  0  0  0  0  0  0  0
   57.4885   27.8979   44.4998 H   0  0  0  0  0  0  0  0  0  0  0  0
   58.0187   30.6314   46.2877 H   0  0  0  0  0  0  0  0  0  0  0  0
   60.1820   31.6109   46.6332 H   0  0  0  0  0  0  0  0  0  0  0  0
   60.9718   32.5270   49.2139 H   0  0  0  0  0  0  0  0  0  0  0  0
   62.2046   35.1616   48.6533 H   0  0  0  0  0  0  0  0  0  0  0  0
   62.3291   34.3076   50.1632 H   0  0  0  0  0  0  0  0  0  0  0  0
   64.6089   34.5233   48.7393 H   0  0  0  0  0  0  0  0  0  0  0  0
   65.3347   32.2782   49.4069 H   0  0  0  0  0  0  0  0  0  0  0  0
   64.0924   32.6169   50.5773 H   0  0  0  0  0  0  0  0  0  0  0  0
   64.0383   30.6100   48.4049 H   0  0  0  0  0  0  0  0  0  0  0  0
   62.7571   30.8578   49.5547 H   0  0  0  0  0  0  0  0  0  0  0  0
   62.2297   31.5363   46.9990 H   0  0  0  0  0  0  0  0  0  0  0  0
   64.4900   32.7140   46.9580 H   0  0  0  0  0  0  0  0  0  0  0  0
   60.6251   35.6488   48.1213 H   0  0  0  0  0  0  0  0  0  0  0  0
   58.3839   33.4982   43.0624 H   0  0  0  0  0  0  0  0  0  0  0  0
  1  2  1  0
  2  3  2  0
  3  4  1  0
  4  5  1  0
  4  6  2  0
  6  7  1  0
  7  8  1  0
  8  9  2  0
  9 10  1  0
 10 11  1  0
 11 12  1  0
 12 13  1  0
 13 14  1  0
 14 15  1  0
 15 16  1  0
 16 17  1  0
 10 18  2  0
 18 19  1  0
 19 20  2  0
 20 21  1  0
  7 22  2  0
 22  2  1  0
 20  8  1  0
 16 11  1  0
 17 13  1  0
  1 23  1  0
  1 24  1  0
  1 25  1  0
  3 26  1  0
  5 27  1  0
  5 28  1  0
  5 29  1  0
  6 30  1  0
  9 31  1  0
 11 32  1  1
 12 33  1  0
 12 34  1  0
 13 35  1  6
 14 36  1  0
 14 37  1  0
 15 38  1  0
 15 39  1  0
 16 40  1  6
 17 41  1  0
 18 42  1  0
 22 43  1  0
M  END
>  <UniqueID>  (11) 
10

>  <SMILES>  (11) 
Cc1cc(C)cc(-c2cc([C@@H]3C[C@H]4CCC3N4)cnc2F)c1

>  <Energy>  (11) 
78.53752908953804

>  <Genealogy>  (11) 
Cc1cc(C)cc(-c2cc([C@@H]3C[C@H]4CCC3N4)cnc2F)c1 (chirality)
Cc1cc(C)cc(-c2cc([C@@H]3C[C@H]4CCC3N4)cnc2F)c1 (3D coordinates assigned)
Cc1cc(C)cc(-c2cc([C@@H]3C[C@H]4CCC3N4)cnc2F)c1 (nonaromatic ring conformer: 78.53752908953804 kcal/mol)

>  <smiles>  (11) 
Cc1cc(C)cc(-c2cc(C3CC4CCC3N4)cnc2F)c1

>  <score_type>  (11) 
oracle

>  <origin>  (11) 
adg

>  <m_score__min__energy>  (11) 
-8.5500000000000007

>  <m_primary>  (11) 
energy

$$$$
11:0
     RDKit          3D

 40 42  0  0  0  0  0  0  0  0999 V2000
   57.6600   27.5460   43.2730 O   0  0  0  0  0  0  0  0  0  0  0  0
   57.7130   27.9970   44.4500 C   0  0  0  0  0  0  0  0  0  0  0  0
   57.5770   27.0960   45.5610 N   0  0  0  0  0  0  0  0  0  0  0  0
   56.9820   25.7940   45.4440 C   0  0  0  0  0  0  0  0  0  0  0  0
   57.8010   24.6870   45.1710 C   0  0  0  0  0  0  0  0  0  0  0  0
   57.2490   23.4080   45.0600 C   0  0  0  0  0  0  0  0  0  0  0  0
   55.8770   23.2200   45.2360 C   0  0  0  0  0  0  0  0  0  0  0  0
   55.0550   24.3090   45.5350 C   0  0  0  0  0  0  0  0  0  0  0  0
   55.6000   25.5940   45.6520 C   0  0  0  0  0  0  0  0  0  0  0  0
   54.7700   26.6530   46.0020 O   0  0  0  0  0  0  0  0  0  0  0  0
   57.9460   29.4450   44.6680 C   0  0  0  0  0  0  0  0  0  0  0  0
   57.2000   30.3980   43.9520 C   0  0  0  0  0  0  0  0  0  0  0  0
   57.3840   31.7650   44.1810 C   0  0  0  0  0  0  0  0  0  0  0  0
   58.3150   32.2000   45.1340 C   0  0  0  0  0  0  0  0  0  0  0  0
   58.4800   33.9110   45.5140 S   0  0  0  0  0  0  0  0  0  0  0  0
   59.7850   34.4070   44.9580 O   0  0  0  0  0  0  0  0  0  0  0  0
   57.3640   34.6960   44.8840 O   0  0  0  0  0  0  0  0  0  0  0  0
   58.4650   34.1560   47.2370 N   0  0  0  0  0  0  0  0  0  0  0  0
   59.7380   34.7090   47.7030 C   0  0  0  0  0  0  0  0  0  0  0  0
   60.8220   33.6810   47.6110 C   0  0  0  0  0  0  0  0  0  0  0  0
   62.0330   33.8390   46.9660 C   0  0  0  0  0  0  0  0  0  0  0  0
   62.7080   32.6510   47.1510 C   0  0  0  0  0  0  0  0  0  0  0  0
   61.8650   31.8410   47.8840 C   0  0  0  0  0  0  0  0  0  0  0  0
   60.7480   32.4810   48.1390 O   0  0  0  0  0  0  0  0  0  0  0  0
   59.0670   31.2570   45.8450 C   0  0  0  0  0  0  0  0  0  0  0  0
   58.8840   29.8910   45.6180 C   0  0  0  0  0  0  0  0  0  0  0  0
   58.0850   27.3240   46.4460 H   0  0  0  0  0  0  0  0  0  0  0  0
   58.8846   24.8273   45.0436 H   0  0  0  0  0  0  0  0  0  0  0  0
   57.8966   22.5481   44.8336 H   0  0  0  0  0  0  0  0  0  0  0  0
   55.4431   22.2139   45.1392 H   0  0  0  0  0  0  0  0  0  0  0  0
   53.9752   24.1568   45.6792 H   0  0  0  0  0  0  0  0  0  0  0  0
   56.4648   30.0649   43.2047 H   0  0  0  0  0  0  0  0  0  0  0  0
   56.7967   32.5007   43.6119 H   0  0  0  0  0  0  0  0  0  0  0  0
   60.0064   35.5746   47.0796 H   0  0  0  0  0  0  0  0  0  0  0  0
   59.6285   35.0170   48.7533 H   0  0  0  0  0  0  0  0  0  0  0  0
   62.3851   34.7263   46.4194 H   0  0  0  0  0  0  0  0  0  0  0  0
   63.7153   32.3997   46.7876 H   0  0  0  0  0  0  0  0  0  0  0  0
   62.0944   30.8145   48.2058 H   0  0  0  0  0  0  0  0  0  0  0  0
   59.8062   31.5938   46.5867 H   0  0  0  0  0  0  0  0  0  0  0  0
   59.4770   29.1587   46.1856 H   0  0  0  0  0  0  0  0  0  0  0  0
  1  2  2  0
  2  3  1  0
  3  4  1  0
  4  5  2  0
  5  6  1  0
  6  7  2  0
  7  8  1  0
  8  9  2  0
  9 10  1  0
  2 11  1  0
 11 12  2  0
 12 13  1  0
 13 14  2  0
 14 15  1  0
 15 16  2  0
 15 17  2  0
 15 18  1  0
 18 19  1  0
 19 20  1  0
 20 21  2  0
 21 22  1  0
 22 23  2  0
 23 24  1  0
 14 25  1  0
 25 26  2  0
  9  4  1  0
 26 11  1  0
 24 20  1  0
  3 27  1  0
  5 28  1  0
  6 29  1  0
  7 30  1  0
  8 31  1  0
 12 32  1  0
 13 33  1  0
 19 34  1  0
 19 35  1  0
 21 36  1  0
 22 37  1  0
 23 38  1  0
 25 39  1  0
 26 40  1  0
M  CHG  2  10  -1  18  -1
M  END
>  <UniqueID>  (12) 
11

>  <SMILES>  (12) 
O=C(Nc1ccccc1[O-])c1ccc(S(=O)(=O)[N-]Cc2ccco2)cc1

>  <Energy>  (12) 
71.1495151476928

>  <Genealogy>  (12) 
O=C(Nc1ccccc1[O-])c1ccc(S(=O)(=O)[N-]Cc2ccco2)cc1 (protonated)
O=C(Nc1ccccc1[O-])c1ccc(S(=O)(=O)[N-]Cc2ccco2)cc1 (3D coordinates assigned)
O=C(Nc1ccccc1[O-])c1ccc(S(=O)(=O)[N-]Cc2ccco2)cc1 (optimized conformer: 71.1495151476928 kcal/mol)

>  <smiles>  (12) 
O=C(Nc1ccccc1O)c1ccc(S(=O)(=O)NCc2ccco2)cc1

>  <score_type>  (12) 
oracle

>  <origin>  (12) 
adg

>  <m_score__min__energy>  (12) 
-12.94

>  <m_primary>  (12) 
energy

$$$$
12:0
     RDKit          3D

 49 51  0  0  0  0  0  0  0  0999 V2000
   54.0270   26.3340   46.3880 H   0  0  0  0  0  0  0  0  0  0  0  0
   54.9450   26.4050   45.9670 O   0  0  0  0  0  0  0  0  0  0  0  0
   55.9300   25.4670   46.2550 C   0  0  0  0  0  0  0  0  0  0  0  0
   55.8030   24.5040   47.1840 N   0  0  0  0  0  0  0  0  0  0  0  0
   56.9960   23.8730   47.1210 C   0  0  0  0  0  0  0  0  0  0  0  0
   57.2840   22.8930   47.8550 O   0  0  0  0  0  0  0  0  0  0  0  0
   57.8590   24.3830   46.2150 N   0  0  0  0  0  0  0  0  0  0  0  0
   57.1600   25.3840   45.6480 C   0  0  0  0  0  0  0  0  0  0  0  0
   57.7050   26.3410   44.6710 C   0  0  0  0  0  0  0  0  0  0  0  0
   57.7510   26.0183   43.6204 H   0  0  0  0  0  0  0  0  0  0  0  0
   58.1520   27.5790   44.9570 C   0  0  0  0  0  0  0  0  0  0  0  0
   57.5160   28.7250   44.5210 C   0  0  0  0  0  0  0  0  0  0  0  0
   56.6379   28.7759   43.8604 H   0  0  0  0  0  0  0  0  0  0  0  0
   58.1920   29.7930   45.0720 C   0  0  0  0  0  0  0  0  0  0  0  0
   57.8500   31.2300   44.8100 C   0  0  0  0  0  0  0  0  0  0  0  0
   57.7245   31.7574   45.7671 H   0  0  0  0  0  0  0  0  0  0  0  0
   58.6611   31.7011   44.2354 H   0  0  0  0  0  0  0  0  0  0  0  0
   56.9136   31.2852   44.2354 H   0  0  0  0  0  0  0  0  0  0  0  0
   59.2280   29.3610   45.8340 N   0  0  0  0  0  0  0  0  0  0  0  0
   60.2000   30.2300   46.5250 C   0  0  0  0  0  0  0  0  0  0  0  0
   61.0546   29.6167   46.8469 H   0  0  0  0  0  0  0  0  0  0  0  0
   60.5078   31.0145   45.8180 H   0  0  0  0  0  0  0  0  0  0  0  0
   59.6020   30.9200   47.7520 C   0  0  0  0  0  0  0  0  0  0  0  0
   59.5470   32.3390   47.8330 C   0  0  0  0  0  0  0  0  0  0  0  0
   60.1290   33.2390   46.7740 C   0  0  0  0  0  0  0  0  0  0  0  0
   60.6665   34.0701   47.2540 H   0  0  0  0  0  0  0  0  0  0  0  0
   60.8269   32.6643   46.1474 H   0  0  0  0  0  0  0  0  0  0  0  0
   59.3185   33.6397   46.1474 H   0  0  0  0  0  0  0  0  0  0  0  0
   58.9070   32.9350   48.9240 C   0  0  0  0  0  0  0  0  0  0  0  0
   58.8189   34.0304   48.9722 H   0  0  0  0  0  0  0  0  0  0  0  0
   58.3950   32.1770   49.9210 N   0  0  0  0  0  0  0  0  0  0  0  0
   58.4840   30.8210   49.9230 C   0  0  0  0  0  0  0  0  0  0  0  0
   57.9450   30.0880   50.9900 O   0  0  0  0  0  0  0  0  0  0  0  0
   57.4300   30.6820   52.1810 C   0  0  0  0  0  0  0  0  0  0  0  0
   57.4262   29.9324   52.9860 H   0  0  0  0  0  0  0  0  0  0  0  0
   58.0689   31.5341   52.4563 H   0  0  0  0  0  0  0  0  0  0  0  0
   56.0090   31.1860   51.9600 C   0  0  0  0  0  0  0  0  0  0  0  0
   55.5253   31.3575   52.9329 H   0  0  0  0  0  0  0  0  0  0  0  0
   56.0382   32.1286   51.3938 H   0  0  0  0  0  0  0  0  0  0  0  0
   55.4377   30.4357   51.3938 H   0  0  0  0  0  0  0  0  0  0  0  0
   59.1210   30.1570   48.8560 C   0  0  0  0  0  0  0  0  0  0  0  0
   59.2630   28.6510   48.9000 C   0  0  0  0  0  0  0  0  0  0  0  0
   59.2946   28.3161   49.9473 H   0  0  0  0  0  0  0  0  0  0  0  0
   58.4046   28.1868   48.3923 H   0  0  0  0  0  0  0  0  0  0  0  0
   60.1930   28.3554   48.3923 H   0  0  0  0  0  0  0  0  0  0  0  0
   59.2600   28.0050   45.7050 C   0  0  0  0  0  0  0  0  0  0  0  0
   60.3030   27.2470   46.0780 C   0  0  0  0  0  0  0  0  0  0  0  0
   61.1210   27.6882   46.6664 H   0  0  0  0  0  0  0  0  0  0  0  0
   60.3398   26.1846   45.7953 H   0  0  0  0  0  0  0  0  0  0  0  0
  1  2  1  0
  2  3  1  0
  3  4  1  0
  4  5  1  0
  5  6  2  0
  5  7  1  0
  7  8  1  0
  8  9  1  0
  9 10  1  0
  9 11  2  0
 11 12  1  0
 12 13  1  0
 12 14  2  0
 14 15  1  0
 15 16  1  0
 15 17  1  0
 15 18  1  0
 14 19  1  0
 19 20  1  0
 20 21  1  0
 20 22  1  0
 20 23  1  0
 23 24  2  0
 24 25  1  0
 25 26  1  0
 25 27  1  0
 25 28  1  0
 24 29  1  0
 29 30  1  0
 29 31  2  0
 31 32  1  0
 32 33  1  0
 33 34  1  0
 34 35  1  0
 34 36  1  0
 34 37  1  0
 37 38  1  0
 37 39  1  0
 37 40  1  0
 32 41  2  0
 41 42  1  0
 42 43  1  0
 42 44  1  0
 42 45  1  0
 19 46  1  0
 46 47  2  0
 47 48  1  0
 47 49  1  0
  8  3  2  0
 46 11  1  0
 41 23  1  0
M  CHG  2   4  -1   7  -1
M  END
>  <UniqueID>  (13) 
12

>  <SMILES>  (13) 
C=c1/c(=C\c2[n-]c(=O)[n-]c2O)cc(C)n1Cc1c(C)cnc(OCC)c1C

>  <Energy>  (13) 
120.21089987259755

>  <Genealogy>  (13) 
C=c1c(=Cc2[n-]c(=O)[n-]c2O)cc(C)n1Cc1c(C)cnc(OCC)c1C (protonated)
C=c1/c(=C\c2[n-]c(=O)[n-]c2O)cc(C)n1Cc1c(C)cnc(OCC)c1C (cis-trans isomerization)
C=c1/c(=C\c2[n-]c(=O)[n-]c2O)cc(C)n1Cc1c(C)cnc(OCC)c1C (3D coordinates assigned)
C=c1/c(=C\c2[n-]c(=O)[n-]c2O)cc(C)n1Cc1c(C)cnc(OCC)c1C (optimized conformer: 120.21089987259755 kcal/mol)

>  <smiles>  (13) 
C=c1c(=Cc2[nH]c(=O)[nH]c2O)cc(C)n1Cc1c(C)cnc(OCC)c1C

>  <score_type>  (13) 
oracle

>  <origin>  (13) 
adg

>  <m_score__min__energy>  (13) 
-12.640000000000001

>  <m_primary>  (13) 
energy

$$$$
13:0
     RDKit          3D

 57 61  0  0  0  0  0  0  0  0999 V2000
   57.7430   27.7500   47.2620 O   0  0  0  0  0  0  0  0  0  0  0  0
   57.4700   27.9680   46.0510 C   0  0  0  0  0  0  0  0  0  0  0  0
   57.4910   26.8960   45.1010 N   0  0  0  0  0  0  0  0  0  0  0  0
   57.0170   25.5640   45.3400 C   0  0  0  0  0  0  0  0  0  0  0  0
   57.9020   24.4970   45.1510 C   0  0  0  0  0  0  0  0  0  0  0  0
   57.4890   23.1860   45.3860 C   0  0  0  0  0  0  0  0  0  0  0  0
   56.1760   22.9260   45.7820 C   0  0  0  0  0  0  0  0  0  0  0  0
   55.2560   23.9750   45.9210 C   0  0  0  0  0  0  0  0  0  0  0  0
   53.8620   23.6710   46.3040 C   0  0  0  0  0  0  0  0  0  0  0  0
   52.9220   24.1810   45.6360 O   0  0  0  0  0  0  0  0  0  0  0  0
   53.5580   22.8310   47.4370 N   0  0  0  0  0  0  0  0  0  0  0  0
   52.4010   21.9310   47.4010 C   0  0  0  0  0  0  0  0  0  0  0  0
   51.7720   21.8410   48.7940 C   0  0  0  0  0  0  0  0  0  0  0  0
   52.7470   21.5180   49.7680 O   0  0  0  0  0  0  0  0  0  0  0  0
   53.6880   22.5690   49.8700 C   0  0  0  0  0  0  0  0  0  0  0  0
   54.4830   22.7160   48.5700 C   0  0  0  0  0  0  0  0  0  0  0  0
   55.6800   25.3030   45.7060 C   0  0  0  0  0  0  0  0  0  0  0  0
   54.7750   26.3500   45.8480 O   0  0  0  0  0  0  0  0  0  0  0  0
   57.1780   29.3360   45.5980 C   0  0  0  0  0  0  0  0  0  0  0  0
   57.9320   30.4710   45.8230 C   0  0  0  0  0  0  0  0  0  0  0  0
   57.3040   31.5140   45.2430 N   0  0  0  0  0  0  0  0  0  0  0  0
   57.7340   32.9080   45.2990 C   0  0  0  0  0  0  0  0  0  0  0  0
   58.8960   33.0460   46.2440 C   0  0  0  0  0  0  0  0  0  0  0  0
   58.7350   32.7660   47.6080 C   0  0  0  0  0  0  0  0  0  0  0  0
   59.8030   32.9290   48.4950 C   0  0  0  0  0  0  0  0  0  0  0  0
   61.0530   33.3860   48.0330 C   0  0  0  0  0  0  0  0  0  0  0  0
   62.1670   33.5640   48.9330 N   0  0  0  0  0  0  0  0  0  0  0  0
   62.1640   34.2040   50.1210 C   0  0  0  0  0  0  0  0  0  0  0  0
   63.4290   34.1330   50.6620 C   0  0  0  0  0  0  0  0  0  0  0  0
   64.1670   33.4210   49.7390 C   0  0  0  0  0  0  0  0  0  0  0  0
   63.3800   33.0840   48.7000 N   0  0  0  0  0  0  0  0  0  0  0  0
   61.2000   33.6860   46.6660 C   0  0  0  0  0  0  0  0  0  0  0  0
   60.1300   33.5220   45.7820 C   0  0  0  0  0  0  0  0  0  0  0  0
   56.1780   31.1140   44.6700 N   0  0  0  0  0  0  0  0  0  0  0  0
   56.0930   29.7880   44.8730 C   0  0  0  0  0  0  0  0  0  0  0  0
   55.1400   29.0800   44.4550 O   0  0  0  0  0  0  0  0  0  0  0  0
   58.9307   24.6936   44.8147 H   0  0  0  0  0  0  0  0  0  0  0  0
   58.1990   22.3555   45.2591 H   0  0  0  0  0  0  0  0  0  0  0  0
   55.8611   21.8920   45.9862 H   0  0  0  0  0  0  0  0  0  0  0  0
   51.6579   22.3194   46.6889 H   0  0  0  0  0  0  0  0  0  0  0  0
   52.7287   20.9298   47.0845 H   0  0  0  0  0  0  0  0  0  0  0  0
   51.3171   22.8100   49.0472 H   0  0  0  0  0  0  0  0  0  0  0  0
   51.0085   21.0492   48.7846 H   0  0  0  0  0  0  0  0  0  0  0  0
   53.1567   23.5099   50.0760 H   0  0  0  0  0  0  0  0  0  0  0  0
   54.3877   22.3373   50.6865 H   0  0  0  0  0  0  0  0  0  0  0  0
   55.1094   23.6186   48.6241 H   0  0  0  0  0  0  0  0  0  0  0  0
   55.1222   21.8316   48.4310 H   0  0  0  0  0  0  0  0  0  0  0  0
   58.8802   30.5164   46.3788 H   0  0  0  0  0  0  0  0  0  0  0  0
   58.0394   33.2364   44.2946 H   0  0  0  0  0  0  0  0  0  0  0  0
   56.9004   33.5308   45.6556 H   0  0  0  0  0  0  0  0  0  0  0  0
   57.7619   32.4157   47.9828 H   0  0  0  0  0  0  0  0  0  0  0  0
   59.6664   32.6987   49.5619 H   0  0  0  0  0  0  0  0  0  0  0  0
   61.2963   34.6997   50.5807 H   0  0  0  0  0  0  0  0  0  0  0  0
   63.7744   34.5516   51.6188 H   0  0  0  0  0  0  0  0  0  0  0  0
   65.2330   33.1680   49.8369 H   0  0  0  0  0  0  0  0  0  0  0  0
   62.1662   34.0531   46.2896 H   0  0  0  0  0  0  0  0  0  0  0  0
   60.2574   33.7680   44.7175 H   0  0  0  0  0  0  0  0  0  0  0  0
  1  2  2  0
  2  3  1  0
  3  4  1  0
  4  5  2  0
  5  6  1  0
  6  7  2  0
  7  8  1  0
  8  9  1  0
  9 10  2  0
  9 11  1  0
 11 12  1  0
 12 13  1  0
 13 14  1  0
 14 15  1  0
 15 16  1  0
  8 17  2  0
 17 18  1  0
  2 19  1  0
 19 20  2  0
 20 21  1  0
 21 22  1  0
 22 23  1  0
 23 24  2  0
 24 25  1  0
 25 26  2  0
 26 27  1  0
 27 28  1  0
 28 29  2  0
 29 30  1  0
 30 31  2  0
 26 32  1  0
 32 33  2  0
 21 34  1  0
 34 35  1  0
 35 36  2  0
 17  4  1  0
 35 19  1  0
 16 11  1  0
 33 23  1  0
 31 27  1  0
  5 37  1  0
  6 38  1  0
  7 39  1  0
 12 40  1  0
 12 41  1  0
 13 42  1  0
 13 43  1  0
 15 44  1  0
 15 45  1  0
 16 46  1  0
 16 47  1  0
 20 48  1  0
 22 49  1  0
 22 50  1  0
 24 51  1  0
 25 52  1  0
 28 53  1  0
 29 54  1  0
 30 55  1  0
 32 56  1  0
 33 57  1  0
M  CHG  3   3  -1  18  -1  34  -1
M  END
>  <UniqueID>  (14) 
13

>  <SMILES>  (14) 
O=C([N-]c1cccc(C(=O)N2CCOCC2)c1[O-])c1cn(Cc2ccc(-n3cccn3)cc2)[n-]c1=O

>  <Energy>  (14) 
138.1183151446303

>  <Genealogy>  (14) 
O=C([N-]c1cccc(C(=O)N2CCOCC2)c1[O-])c1cn(Cc2ccc(-n3cccn3)cc2)[n-]c1=O (protonated)
O=C([N-]c1cccc(C(=O)N2CCOCC2)c1[O-])c1cn(Cc2ccc(-n3cccn3)cc2)[n-]c1=O (3D coordinates assigned)
O=C([N-]c1cccc(C(=O)N2CCOCC2)c1[O-])c1cn(Cc2ccc(-n3cccn3)cc2)[n-]c1=O (nonaromatic ring conformer: 138.1183151446303 kcal/mol)

>  <smiles>  (14) 
O=C(Nc1cccc(C(=O)N2CCOCC2)c1O)c1cn(Cc2ccc(-n3cccn3)cc2)[nH]c1=O

>  <score_type>  (14) 
oracle

>  <origin>  (14) 
adg

>  <m_score__min__energy>  (14) 
-17.440000000000001

>  <m_primary>  (14) 
energy

$$$$
14:0
     RDKit          3D

 43 45  0  0  0  0  0  0  0  0999 V2000
   58.8520   28.8230   47.6870 C   0  0  0  0  0  0  0  0  0  0  0  0
   58.1860   29.1280   46.5640 C   0  0  0  0  0  0  0  0  0  0  0  0
   57.6650   28.2500   45.6020 C   0  0  0  0  0  0  0  0  0  0  0  0
   57.8640   26.9300   45.4320 C   0  0  0  0  0  0  0  0  0  0  0  0
   57.2150   25.8550   46.2040 C   0  0  0  0  0  0  0  0  0  0  0  0
   57.8410   24.7550   46.6650 N   0  0  0  0  0  0  0  0  0  0  0  0
   56.8320   23.9920   47.1370 C   0  0  0  0  0  0  0  0  0  0  0  0
   57.0240   22.8620   47.6530 O   0  0  0  0  0  0  0  0  0  0  0  0
   55.6000   24.5230   46.9810 N   0  0  0  0  0  0  0  0  0  0  0  0
   55.8610   25.6960   46.3760 C   0  0  0  0  0  0  0  0  0  0  0  0
   54.8800   26.5960   45.9700 O   0  0  0  0  0  0  0  0  0  0  0  0
   56.8960   28.9500   44.7390 N   0  0  0  0  0  0  0  0  0  0  0  0
   57.0020   30.2270   45.1530 C   0  0  0  0  0  0  0  0  0  0  0  0
   56.4370   31.1830   44.5570 O   0  0  0  0  0  0  0  0  0  0  0  0
   57.7740   30.3800   46.2500 N   0  0  0  0  0  0  0  0  0  0  0  0
   58.1220   31.6490   46.9040 C   0  0  0  0  0  0  0  0  0  0  0  0
   59.2040   32.3430   46.1200 C   0  0  0  0  0  0  0  0  0  0  0  0
   58.8670   33.0030   45.0980 O   0  0  0  0  0  0  0  0  0  0  0  0
   60.6010   32.2360   46.4740 N   0  0  0  0  0  0  0  0  0  0  0  0
   61.1790   30.9440   46.8620 C   0  0  0  0  0  0  0  0  0  0  0  0
   61.4440   33.4420   46.4750 C   0  0  0  0  0  0  0  0  0  0  0  0
   62.2770   33.5150   47.7300 C   0  0  0  0  0  0  0  0  0  0  0  0
   61.7490   34.0760   48.9060 C   0  0  0  0  0  0  0  0  0  0  0  0
   62.5300   34.1450   50.0650 C   0  0  0  0  0  0  0  0  0  0  0  0
   63.8410   33.6570   50.0610 C   0  0  0  0  0  0  0  0  0  0  0  0
   64.3700   33.0970   48.8970 C   0  0  0  0  0  0  0  0  0  0  0  0
   63.5940   33.0250   47.7350 C   0  0  0  0  0  0  0  0  0  0  0  0
   59.2041   29.6248   48.3527 H   0  0  0  0  0  0  0  0  0  0  0  0
   59.0463   27.7709   47.9427 H   0  0  0  0  0  0  0  0  0  0  0  0
   58.5734   26.6265   44.6480 H   0  0  0  0  0  0  0  0  0  0  0  0
   55.1410   27.4890   45.5740 H   0  0  0  0  0  0  0  0  0  0  0  0
   57.2318   32.2937   46.9486 H   0  0  0  0  0  0  0  0  0  0  0  0
   58.4828   31.4470   47.9233 H   0  0  0  0  0  0  0  0  0  0  0  0
   61.2114   30.8715   47.9591 H   0  0  0  0  0  0  0  0  0  0  0  0
   60.5595   30.1293   46.4588 H   0  0  0  0  0  0  0  0  0  0  0  0
   62.1992   30.8628   46.4588 H   0  0  0  0  0  0  0  0  0  0  0  0
   62.1112   33.4158   45.6008 H   0  0  0  0  0  0  0  0  0  0  0  0
   60.7918   34.3268   46.4340 H   0  0  0  0  0  0  0  0  0  0  0  0
   60.7189   34.4618   48.9151 H   0  0  0  0  0  0  0  0  0  0  0  0
   62.1116   34.5845   50.9825 H   0  0  0  0  0  0  0  0  0  0  0  0
   64.4535   33.7144   50.9729 H   0  0  0  0  0  0  0  0  0  0  0  0
   65.4001   32.7111   48.8932 H   0  0  0  0  0  0  0  0  0  0  0  0
   64.0169   32.5827   46.8209 H   0  0  0  0  0  0  0  0  0  0  0  0
  1  2  2  0
  2  3  1  0
  3  4  2  3
  4  5  1  0
  5  6  1  0
  6  7  1  0
  7  8  2  0
  7  9  1  0
  9 10  1  0
 10 11  1  0
  3 12  1  0
 12 13  1  0
 13 14  2  0
 13 15  1  0
 15 16  1  0
 16 17  1  0
 17 18  2  0
 17 19  1  0
 19 20  1  0
 19 21  1  0
 21 22  1  0
 22 23  2  0
 23 24  1  0
 24 25  2  0
 25 26  1  0
 26 27  2  0
 15  2  1  0
 27 22  1  0
 10  5  2  0
  1 28  1  0
  1 29  1  0
  4 30  1  0
 11 31  1  0
 16 32  1  0
 16 33  1  0
 20 34  1  0
 20 35  1  0
 20 36  1  0
 21 37  1  0
 21 38  1  0
 23 39  1  0
 24 40  1  0
 25 41  1  0
 26 42  1  0
 27 43  1  0
M  CHG  3   6  -1   9  -1  12  -1
M  END
>  <UniqueID>  (15) 
14

>  <SMILES>  (15) 
C=c1c(=Cc2[n-]c(=O)[n-]c2O)[n-]c(=O)n1CC(=O)N(C)Cc1ccccc1

>  <Energy>  (15) 
116.25155712039768

>  <Genealogy>  (15) 
C=c1c(=Cc2[n-]c(=O)[n-]c2O)[n-]c(=O)n1CC(=O)N(C)Cc1ccccc1 (protonated)
C=c1c(=Cc2[n-]c(=O)[n-]c2O)[n-]c(=O)n1CC(=O)N(C)Cc1ccccc1 (3D coordinates assigned)
C=c1c(=Cc2[n-]c(=O)[n-]c2O)[n-]c(=O)n1CC(=O)N(C)Cc1ccccc1 (optimized conformer: 116.25155712039768 kcal/mol)

>  <smiles>  (15) 
C=c1c(=Cc2[nH]c(=O)[nH]c2O)[nH]c(=O)n1CC(=O)N(C)Cc1ccccc1

>  <score_type>  (15) 
oracle

>  <origin>  (15) 
adg

>  <m_score__min__energy>  (15) 
-15.050000000000001

>  <m_primary>  (15) 
energy

$$$$
15:0
     RDKit          3D

 48 50  0  0  0  0  0  0  0  0999 V2000
   58.4410   31.9990   48.9630 H   0  0  0  0  0  0  0  0  0  0  0  0
   58.5300   31.0270   49.2400 O   0  0  0  0  0  0  0  0  0  0  0  0
   59.5740   30.2640   48.7610 N   0  0  0  0  0  0  0  0  0  0  0  0
   60.8120   30.4810   49.0920 C   0  0  0  0  0  0  0  0  0  0  0  0
   61.3006   29.7733   49.7779 H   0  0  0  0  0  0  0  0  0  0  0  0
   61.5980   31.6320   48.5930 C   0  0  0  0  0  0  0  0  0  0  0  0
   62.9960   31.5740   48.6960 C   0  0  0  0  0  0  0  0  0  0  0  0
   63.4740   30.7013   49.1650 H   0  0  0  0  0  0  0  0  0  0  0  0
   63.7850   32.6190   48.2060 C   0  0  0  0  0  0  0  0  0  0  0  0
   64.8802   32.5666   48.2943 H   0  0  0  0  0  0  0  0  0  0  0  0
   63.1880   33.7290   47.6050 C   0  0  0  0  0  0  0  0  0  0  0  0
   63.8113   34.5571   47.2366 H   0  0  0  0  0  0  0  0  0  0  0  0
   61.8000   33.7870   47.4720 C   0  0  0  0  0  0  0  0  0  0  0  0
   61.3323   34.6679   47.0079 H   0  0  0  0  0  0  0  0  0  0  0  0
   60.9930   32.7250   47.9280 C   0  0  0  0  0  0  0  0  0  0  0  0
   59.6010   32.7500   47.7380 O   0  0  0  0  0  0  0  0  0  0  0  0
   58.9570   32.8370   46.4960 C   0  0  0  0  0  0  0  0  0  0  0  0
   59.3680   33.8160   45.5920 C   0  0  0  0  0  0  0  0  0  0  0  0
   60.1765   34.5124   45.8593 H   0  0  0  0  0  0  0  0  0  0  0  0
   58.7470   33.9060   44.3470 C   0  0  0  0  0  0  0  0  0  0  0  0
   59.0800   34.6622   43.6209 H   0  0  0  0  0  0  0  0  0  0  0  0
   57.7320   33.0620   44.0290 N   0  0  0  0  0  0  0  0  0  0  0  0
   57.2690   32.1200   44.8930 C   0  0  0  0  0  0  0  0  0  0  0  0
   56.2840   31.3570   44.5030 N   0  0  0  0  0  0  0  0  0  0  0  0
   56.2060   29.9200   44.5100 C   0  0  0  0  0  0  0  0  0  0  0  0
   55.1490   29.3290   44.8630 O   0  0  0  0  0  0  0  0  0  0  0  0
   57.3490   29.1180   43.9670 C   0  0  0  0  0  0  0  0  0  0  0  0
   57.9896   29.7689   43.3538 H   0  0  0  0  0  0  0  0  0  0  0  0
   56.9493   28.2961   43.3549 H   0  0  0  0  0  0  0  0  0  0  0  0
   58.1660   28.5360   45.0950 C   0  0  0  0  0  0  0  0  0  0  0  0
   59.5090   28.9300   45.2350 C   0  0  0  0  0  0  0  0  0  0  0  0
   59.9500   29.6314   44.5114 H   0  0  0  0  0  0  0  0  0  0  0  0
   60.2870   28.4380   46.2850 C   0  0  0  0  0  0  0  0  0  0  0  0
   61.3385   28.7466   46.3805 H   0  0  0  0  0  0  0  0  0  0  0  0
   59.7340   27.5570   47.2120 C   0  0  0  0  0  0  0  0  0  0  0  0
   60.3477   27.1744   48.0409 H   0  0  0  0  0  0  0  0  0  0  0  0
   58.3990   27.1590   47.0890 C   0  0  0  0  0  0  0  0  0  0  0  0
   57.9629   26.4763   47.8331 H   0  0  0  0  0  0  0  0  0  0  0  0
   57.6090   27.6240   46.0220 C   0  0  0  0  0  0  0  0  0  0  0  0
   56.2260   27.2460   45.9140 N   0  0  0  0  0  0  0  0  0  0  0  0
   55.6900   25.9150   45.9750 C   0  0  0  0  0  0  0  0  0  0  0  0
   54.4380   25.7620   45.9940 O   0  0  0  0  0  0  0  0  0  0  0  0
   56.5700   24.7000   45.9910 C   0  0  0  0  0  0  0  0  0  0  0  0
   56.7786   24.4120   47.0319 H   0  0  0  0  0  0  0  0  0  0  0  0
   56.0609   23.8717   45.4764 H   0  0  0  0  0  0  0  0  0  0  0  0
   57.5157   24.9254   45.4764 H   0  0  0  0  0  0  0  0  0  0  0  0
   57.8900   31.9890   46.1540 C   0  0  0  0  0  0  0  0  0  0  0  0
   57.5402   31.2266   46.8656 H   0  0  0  0  0  0  0  0  0  0  0  0
  1  2  1  0
  2  3  1  0
  3  4  2  3
  4  5  1  0
  4  6  1  0
  6  7  2  0
  7  8  1  0
  7  9  1  0
  9 10  1  0
  9 11  2  0
 11 12  1  0
 11 13  1  0
 13 14  1  0
 13 15  2  0
 15 16  1  0
 16 17  1  0
 17 18  1  0
 18 19  1  0
 18 20  2  0
 20 21  1  0
 20 22  1  0
 22 23  1  0
 23 24  2  0
 24 25  1  0
 25 26  2  0
 25 27  1  0
 27 28  1  0
 27 29  1  0
 27 30  1  0
 30 31  2  0
 31 32  1  0
 31 33  1  0
 33 34  1  0
 33 35  2  0
 35 36  1  0
 35 37  1  0
 37 38  1  0
 37 39  2  0
 39 40  1  0
 40 41  1  0
 41 42  2  0
 41 43  1  0
 43 44  1  0
 43 45  1  0
 43 46  1  0
 23 47  1  0
 47 48  1  0
 15  6  1  0
 47 17  2  0
 39 30  1  0
M  CHG  2  22  -1  40  -1
M  END
>  <UniqueID>  (16) 
15

>  <SMILES>  (16) 
CC(=O)[N-]c1ccccc1CC(=O)/N=c1\cc(Oc2ccccc2C=NO)cc[n-]1

>  <Energy>  (16) 
73.56224038033315

>  <Genealogy>  (16) 
CC(=O)[N-]c1ccccc1CC(=O)N=c1cc(Oc2ccccc2C=NO)cc[n-]1 (protonated)
CC(=O)[N-]c1ccccc1CC(=O)/N=c1\cc(Oc2ccccc2C=NO)cc[n-]1 (cis-trans isomerization)
CC(=O)[N-]c1ccccc1CC(=O)/N=c1\cc(Oc2ccccc2C=NO)cc[n-]1 (3D coordinates assigned)
CC(=O)[N-]c1ccccc1CC(=O)/N=c1\cc(Oc2ccccc2C=NO)cc[n-]1 (optimized conformer: 73.56224038033315 kcal/mol)

>  <smiles>  (16) 
CC(=O)Nc1ccccc1CC(=O)N=c1cc(Oc2ccccc2C=NO)cc[nH]1

>  <score_type>  (16) 
oracle

>  <origin>  (16) 
adg

>  <m_score__min__energy>  (16) 
-12.039999999999999

>  <m_primary>  (16) 
energy

$$$$
16:0
     RDKit          3D

 56 59  0  0  0  0  0  0  0  0999 V2000
   59.9960   25.4430   46.1750 O   0  0  0  0  0  0  0  0  0  0  0  0
   59.1850   25.7580   47.0860 C   0  0  0  0  0  0  0  0  0  0  0  0
   59.5450   26.7200   48.0860 N   0  0  0  0  0  0  0  0  0  0  0  0
   60.0580   28.0440   47.8630 C   0  0  0  0  0  0  0  0  0  0  0  0
   60.1840   28.5810   46.5680 C   0  0  0  0  0  0  0  0  0  0  0  0
   60.6940   29.8710   46.3860 C   0  0  0  0  0  0  0  0  0  0  0  0
   61.1000   30.6270   47.4880 C   0  0  0  0  0  0  0  0  0  0  0  0
   61.0060   30.0910   48.7730 C   0  0  0  0  0  0  0  0  0  0  0  0
   60.4960   28.8010   48.9640 C   0  0  0  0  0  0  0  0  0  0  0  0
   60.3960   28.1560   50.5960 Cl  0  0  0  0  0  0  0  0  0  0  0  0
   57.8610   25.2110   47.0890 N   0  0  0  0  0  0  0  0  0  0  0  0
   57.4460   24.2060   46.1560 C   0  0  0  0  0  0  0  0  0  0  0  0
   58.3310   23.1550   45.8600 C   0  0  0  0  0  0  0  0  0  0  0  0
   57.9640   22.1470   44.9700 C   0  0  0  0  0  0  0  0  0  0  0  0
   56.7140   22.1780   44.3590 C   0  0  0  0  0  0  0  0  0  0  0  0
   55.8250   23.2200   44.6340 C   0  0  0  0  0  0  0  0  0  0  0  0
   56.1680   24.2480   45.5360 C   0  0  0  0  0  0  0  0  0  0  0  0
   55.1950   25.3510   45.7700 C   0  0  0  0  0  0  0  0  0  0  0  0
   53.9570   25.1220   45.7890 O   0  0  0  0  0  0  0  0  0  0  0  0
   55.6740   26.6800   46.0250 N   0  0  0  0  0  0  0  0  0  0  0  0
   56.6380   27.4010   45.2450 C   0  0  0  0  0  0  0  0  0  0  0  0
   57.6920   26.7510   44.5810 C   0  0  0  0  0  0  0  0  0  0  0  0
   58.6200   27.4920   43.8440 C   0  0  0  0  0  0  0  0  0  0  0  0
   58.5110   28.8830   43.7720 C   0  0  0  0  0  0  0  0  0  0  0  0
   57.4770   29.5420   44.4480 C   0  0  0  0  0  0  0  0  0  0  0  0
   57.3270   31.2930   44.3130 S   0  0  0  0  0  0  0  0  0  0  0  0
   55.9810   31.6940   44.8460 O   0  0  0  0  0  0  0  0  0  0  0  0
   57.4080   31.7040   42.8680 O   0  0  0  0  0  0  0  0  0  0  0  0
   58.5820   32.0850   45.2450 N   0  0  0  0  0  0  0  0  0  0  0  0
   58.9120   33.4150   44.7050 C   0  0  0  0  0  0  0  0  0  0  0  0
   57.8180   34.4650   45.0170 C   0  0  0  0  0  0  0  0  0  0  0  0
   56.9490   34.0810   46.0680 O   0  0  0  0  0  0  0  0  0  0  0  0
   57.6830   33.4970   47.1210 C   0  0  0  0  0  0  0  0  0  0  0  0
   58.2500   32.1340   46.6850 C   0  0  0  0  0  0  0  0  0  0  0  0
   56.5480   28.7970   45.1900 C   0  0  0  0  0  0  0  0  0  0  0  0
   59.8802   27.9839   45.6955 H   0  0  0  0  0  0  0  0  0  0  0  0
   60.7754   30.2909   45.3726 H   0  0  0  0  0  0  0  0  0  0  0  0
   61.4935   31.6440   47.3431 H   0  0  0  0  0  0  0  0  0  0  0  0
   61.3339   30.6843   49.6393 H   0  0  0  0  0  0  0  0  0  0  0  0
   57.1830   25.5440   47.8120 H   0  0  0  0  0  0  0  0  0  0  0  0
   59.3227   23.1277   46.3352 H   0  0  0  0  0  0  0  0  0  0  0  0
   58.6629   21.3264   44.7504 H   0  0  0  0  0  0  0  0  0  0  0  0
   56.4255   21.3806   43.6583 H   0  0  0  0  0  0  0  0  0  0  0  0
   54.8427   23.2387   44.1394 H   0  0  0  0  0  0  0  0  0  0  0  0
   57.7870   25.6568   44.6413 H   0  0  0  0  0  0  0  0  0  0  0  0
   59.4388   26.9784   43.3189 H   0  0  0  0  0  0  0  0  0  0  0  0
   59.2385   29.4612   43.1834 H   0  0  0  0  0  0  0  0  0  0  0  0
   59.8611   33.7509   45.1481 H   0  0  0  0  0  0  0  0  0  0  0  0
   58.9885   33.3242   43.6114 H   0  0  0  0  0  0  0  0  0  0  0  0
   58.3103   35.4074   45.2991 H   0  0  0  0  0  0  0  0  0  0  0  0
   57.2030   34.5703   44.1111 H   0  0  0  0  0  0  0  0  0  0  0  0
   58.5131   34.1635   47.3981 H   0  0  0  0  0  0  0  0  0  0  0  0
   57.0158   33.3480   47.9827 H   0  0  0  0  0  0  0  0  0  0  0  0
   59.1637   31.9324   47.2633 H   0  0  0  0  0  0  0  0  0  0  0  0
   57.4734   31.3776   46.8715 H   0  0  0  0  0  0  0  0  0  0  0  0
   55.7428   29.3138   45.7327 H   0  0  0  0  0  0  0  0  0  0  0  0
  1  2  2  0
  2  3  1  0
  3  4  1  0
  4  5  2  0
  5  6  1  0
  6  7  2  0
  7  8  1  0
  8  9  2  0
  9 10  1  0
  2 11  1  0
 11 12  1  0
 12 13  2  0
 13 14  1  0
 14 15  2  0
 15 16  1  0
 16 17  2  0
 17 18  1  0
 18 19  2  0
 18 20  1  0
 20 21  1  0
 21 22  2  0
 22 23  1  0
 23 24  2  0
 24 25  1  0
 25 26  1  0
 26 27  2  0
 26 28  2  0
 26 29  1  0
 29 30  1  0
 30 31  1  0
 31 32  1  0
 32 33  1  0
 33 34  1  0
 25 35  2  0
  9  4  1  0
 17 12  1  0
 35 21  1  0
 34 29  1  0
  5 36  1  0
  6 37  1  0
  7 38  1  0
  8 39  1  0
 11 40  1  0
 13 41  1  0
 14 42  1  0
 15 43  1  0
 16 44  1  0
 22 45  1  0
 23 46  1  0
 24 47  1  0
 30 48  1  0
 30 49  1  0
 31 50  1  0
 31 51  1  0
 33 52  1  0
 33 53  1  0
 34 54  1  0
 34 55  1  0
 35 56  1  0
M  CHG  2   3  -1  20  -1
M  END
>  <UniqueID>  (17) 
16

>  <SMILES>  (17) 
O=C([N-]c1ccccc1Cl)Nc1ccccc1C(=O)[N-]c1cccc(S(=O)(=O)N2CCOCC2)c1

>  <Energy>  (17) 
86.9487703027522

>  <Genealogy>  (17) 
O=C([N-]c1ccccc1Cl)Nc1ccccc1C(=O)[N-]c1cccc(S(=O)(=O)N2CCOCC2)c1 (protonated)
O=C([N-]c1ccccc1Cl)Nc1ccccc1C(=O)[N-]c1cccc(S(=O)(=O)N2CCOCC2)c1 (3D coordinates assigned)
O=C([N-]c1ccccc1Cl)Nc1ccccc1C(=O)[N-]c1cccc(S(=O)(=O)N2CCOCC2)c1 (nonaromatic ring conformer: 86.9487703027522 kcal/mol)

>  <smiles>  (17) 
O=C(Nc1ccccc1Cl)Nc1ccccc1C(=O)Nc1cccc(S(=O)(=O)N2CCOCC2)c1

>  <score_type>  (17) 
oracle

>  <origin>  (17) 
adg

>  <m_score__min__energy>  (17) 
-13.880000000000001

>  <m_primary>  (17) 
energy

$$$$
17:0
     RDKit          3D

 52 55  0  0  0  0  0  0  0  0999 V2000
   51.3830   32.7330   48.6210 H   0  0  0  0  0  0  0  0  0  0  0  0
   50.7560   32.3370   49.3580 N   0  0  0  0  0  0  0  0  0  0  0  0
   51.2150   31.9620   50.5070 C   0  0  0  0  0  0  0  0  0  0  0  0
   50.6080   32.3690   51.6540 N   0  0  0  0  0  0  0  0  0  0  0  0
   51.0730   31.9890   52.8730 C   0  0  0  0  0  0  0  0  0  0  0  0
   50.4830   32.3910   53.9110 O   0  0  0  0  0  0  0  0  0  0  0  0
   52.2030   31.1580   52.9590 C   0  0  0  0  0  0  0  0  0  0  0  0
   52.7380   30.7360   54.1880 C   0  0  0  0  0  0  0  0  0  0  0  0
   52.2641   31.0488   55.1302 H   0  0  0  0  0  0  0  0  0  0  0  0
   53.8720   29.9190   54.2140 C   0  0  0  0  0  0  0  0  0  0  0  0
   54.2934   29.6005   55.1789 H   0  0  0  0  0  0  0  0  0  0  0  0
   54.4770   29.5020   53.0180 C   0  0  0  0  0  0  0  0  0  0  0  0
   55.7380   28.6810   53.0640 C   0  0  0  0  0  0  0  0  0  0  0  0
   55.6598   27.9380   53.8714 H   0  0  0  0  0  0  0  0  0  0  0  0
   55.8720   28.1702   52.0991 H   0  0  0  0  0  0  0  0  0  0  0  0
   56.8900   29.5480   53.3130 N   0  0  0  0  0  0  0  0  0  0  0  0
   57.1080   29.7790   54.3090 H   0  0  0  0  0  0  0  0  0  0  0  0
   57.5520   30.2950   52.2770 C   0  0  0  0  0  0  0  0  0  0  0  0
   58.6060   29.7390   51.5320 C   0  0  0  0  0  0  0  0  0  0  0  0
   58.9540   28.7192   51.7531 H   0  0  0  0  0  0  0  0  0  0  0  0
   59.2140   30.4750   50.5120 C   0  0  0  0  0  0  0  0  0  0  0  0
   60.0532   30.0398   49.9496 H   0  0  0  0  0  0  0  0  0  0  0  0
   58.7600   31.7680   50.2000 C   0  0  0  0  0  0  0  0  0  0  0  0
   59.3920   32.5740   49.1300 C   0  0  0  0  0  0  0  0  0  0  0  0
   60.2127   33.2467   49.4198 H   0  0  0  0  0  0  0  0  0  0  0  0
   59.0420   32.5480   47.8350 C   0  0  0  0  0  0  0  0  0  0  0  0
   59.1712   31.6015   47.2896 H   0  0  0  0  0  0  0  0  0  0  0  0
   58.4970   33.6970   47.0920 C   0  0  0  0  0  0  0  0  0  0  0  0
   58.9260   34.8640   47.3070 O   0  0  0  0  0  0  0  0  0  0  0  0
   57.4800   33.4730   46.1120 N   0  0  0  0  0  0  0  0  0  0  0  0
   57.7650   33.0060   44.7580 C   0  0  0  0  0  0  0  0  0  0  0  0
   57.0489   33.4624   44.0588 H   0  0  0  0  0  0  0  0  0  0  0  0
   58.7918   33.2951   44.4893 H   0  0  0  0  0  0  0  0  0  0  0  0
   57.6440   31.5060   44.6840 C   0  0  0  0  0  0  0  0  0  0  0  0
   56.5320   30.9160   44.0600 C   0  0  0  0  0  0  0  0  0  0  0  0
   55.7340   31.5521   43.6494 H   0  0  0  0  0  0  0  0  0  0  0  0
   56.4340   29.5260   43.9580 C   0  0  0  0  0  0  0  0  0  0  0  0
   55.5653   29.0713   43.4594 H   0  0  0  0  0  0  0  0  0  0  0  0
   57.4390   28.7130   44.4890 C   0  0  0  0  0  0  0  0  0  0  0  0
   57.3635   27.6189   44.4040 H   0  0  0  0  0  0  0  0  0  0  0  0
   58.5400   29.2900   45.1280 C   0  0  0  0  0  0  0  0  0  0  0  0
   59.3239   28.6486   45.5570 H   0  0  0  0  0  0  0  0  0  0  0  0
   58.6470   30.6810   45.2230 C   0  0  0  0  0  0  0  0  0  0  0  0
   59.5184   31.1312   45.7209 H   0  0  0  0  0  0  0  0  0  0  0  0
   57.7460   32.3410   50.9790 C   0  0  0  0  0  0  0  0  0  0  0  0
   57.4199   33.3724   50.7790 H   0  0  0  0  0  0  0  0  0  0  0  0
   57.1460   31.6100   52.0090 C   0  0  0  0  0  0  0  0  0  0  0  0
   56.3500   32.0698   52.6132 H   0  0  0  0  0  0  0  0  0  0  0  0
   53.9440   29.9210   51.7890 C   0  0  0  0  0  0  0  0  0  0  0  0
   54.4163   29.6003   50.8487 H   0  0  0  0  0  0  0  0  0  0  0  0
   52.8130   30.7460   51.7560 C   0  0  0  0  0  0  0  0  0  0  0  0
   52.3070   31.1570   50.5650 N   0  0  0  0  0  0  0  0  0  0  0  0
  1  2  1  0
  2  3  2  0
  3  4  1  0
  4  5  1  0
  5  6  2  0
  5  7  1  0
  7  8  2  0
  8  9  1  0
  8 10  1  0
 10 11  1  0
 10 12  2  0
 12 13  1  0
 13 14  1  0
 13 15  1  0
 13 16  1  0
 16 17  1  0
 16 18  1  0
 18 19  2  0
 19 20  1  0
 19 21  1  0
 21 22  1  0
 21 23  2  0
 23 24  1  0
 24 25  1  0
 24 26  2  3
 26 27  1  0
 26 28  1  0
 28 29  2  0
 28 30  1  0
 30 31  1  0
 31 32  1  0
 31 33  1  0
 31 34  1  0
 34 35  2  0
 35 36  1  0
 35 37  1  0
 37 38  1  0
 37 39  2  0
 39 40  1  0
 39 41  1  0
 41 42  1  0
 41 43  2  0
 43 44  1  0
 23 45  1  0
 45 46  1  0
 45 47  2  0
 47 48  1  0
 12 49  1  0
 49 50  1  0
 49 51  2  0
 51 52  1  0
 52  3  1  0
 51  7  1  0
 47 18  1  0
 43 34  1  0
M  CHG  3   4  -1  30  -1  52  -1
M  END
>  <UniqueID>  (18) 
17

>  <SMILES>  (18) 
[H]/N=c1\[n-]c(=O)c2ccc(CNc3ccc(C=CC(=O)[N-]Cc4ccccc4)cc3)cc2[n-]1

>  <Energy>  (18) 
62.21192406832851

>  <Genealogy>  (18) 
N=c1[n-]c(=O)c2ccc(CNc3ccc(C=CC(=O)[N-]Cc4ccccc4)cc3)cc2[n-]1 (protonated)
[H]/N=c1\[n-]c(=O)c2ccc(CNc3ccc(C=CC(=O)[N-]Cc4ccccc4)cc3)cc2[n-]1 (cis-trans isomerization)
[H]/N=c1\[n-]c(=O)c2ccc(CNc3ccc(C=CC(=O)[N-]Cc4ccccc4)cc3)cc2[n-]1 (3D coordinates assigned)
[H]/N=c1\[n-]c(=O)c2ccc(CNc3ccc(C=CC(=O)[N-]Cc4ccccc4)cc3)cc2[n-]1 (optimized conformer: 62.21192406832851 kcal/mol)

>  <smiles>  (18) 
N=c1[nH]c(=O)c2ccc(CNc3ccc(C=CC(=O)NCc4ccccc4)cc3)cc2[nH]1

>  <score_type>  (18) 
oracle

>  <origin>  (18) 
adg

>  <m_score__min__energy>  (18) 
-15.359999999999999

>  <m_primary>  (18) 
energy

$$$$
18:0
     RDKit          3D

 70 74  0  0  0  0  0  0  0  0999 V2000
   57.6010   31.6830   52.1250 C   0  0  0  0  0  0  0  0  0  0  0  0
   58.8190   31.3710   52.8890 N   0  0  0  0  0  0  0  0  0  0  0  0
   58.6940   30.0750   53.6060 C   0  0  0  0  0  0  0  0  0  0  0  0
   59.4830   28.9510   52.9220 C   0  0  0  0  0  0  0  0  0  0  0  0
   60.9230   29.2750   52.8550 N   0  0  0  0  0  0  0  0  0  0  0  0
   61.7170   28.2700   51.6640 S   0  0  0  0  0  0  0  0  0  0  0  0
   61.9860   26.9120   52.2510 O   0  0  0  0  0  0  0  0  0  0  0  0
   63.0370   28.8870   51.2930 O   0  0  0  0  0  0  0  0  0  0  0  0
   60.7290   28.0900   50.2130 C   0  0  0  0  0  0  0  0  0  0  0  0
   59.9280   29.1520   49.7680 C   0  0  0  0  0  0  0  0  0  0  0  0
   59.1970   29.0340   48.5820 C   0  0  0  0  0  0  0  0  0  0  0  0
   59.2500   27.8500   47.8330 C   0  0  0  0  0  0  0  0  0  0  0  0
   58.5330   27.7650   46.5150 C   0  0  0  0  0  0  0  0  0  0  0  0
   58.5840   29.0570   45.8370 N   0  0  0  0  0  0  0  0  0  0  0  0
   57.4700   29.5860   45.1010 C   0  0  0  0  0  0  0  0  0  0  0  0
   56.3820   28.9510   45.0530 O   0  0  0  0  0  0  0  0  0  0  0  0
   57.6090   30.8430   44.3360 C   0  0  0  0  0  0  0  0  0  0  0  0
   57.2260   30.8420   42.9870 C   0  0  0  0  0  0  0  0  0  0  0  0
   57.4380   31.9760   42.2000 C   0  0  0  0  0  0  0  0  0  0  0  0
   57.1100   31.9720   40.9850 O   0  0  0  0  0  0  0  0  0  0  0  0
   58.0070   33.0830   42.7410 N   0  0  0  0  0  0  0  0  0  0  0  0
   58.3720   33.1390   44.0490 C   0  0  0  0  0  0  0  0  0  0  0  0
   58.9490   34.3060   44.5570 C   0  0  0  0  0  0  0  0  0  0  0  0
   59.3100   34.3850   45.9030 C   0  0  0  0  0  0  0  0  0  0  0  0
   59.0740   33.3030   46.7630 C   0  0  0  0  0  0  0  0  0  0  0  0
   59.5440   33.3970   48.4630 S   0  0  0  0  0  0  0  0  0  0  0  0
   58.4880   32.7350   49.3040 O   0  0  0  0  0  0  0  0  0  0  0  0
   59.6300   34.8410   48.8750 O   0  0  0  0  0  0  0  0  0  0  0  0
   61.0920   32.6330   48.7460 N   0  0  0  0  0  0  0  0  0  0  0  0
   61.8790   33.3560   49.7680 C   0  0  0  0  0  0  0  0  0  0  0  0
   63.0120   34.1910   49.1410 C   0  0  0  0  0  0  0  0  0  0  0  0
   63.9230   33.4200   48.3690 O   0  0  0  0  0  0  0  0  0  0  0  0
   63.3300   32.2940   47.7340 C   0  0  0  0  0  0  0  0  0  0  0  0
   61.8220   32.4490   47.4760 C   0  0  0  0  0  0  0  0  0  0  0  0
   58.4770   32.1380   46.2630 C   0  0  0  0  0  0  0  0  0  0  0  0
   58.1610   32.0220   44.8950 C   0  0  0  0  0  0  0  0  0  0  0  0
   60.0350   26.7790   48.2910 C   0  0  0  0  0  0  0  0  0  0  0  0
   60.7640   26.8990   49.4760 C   0  0  0  0  0  0  0  0  0  0  0  0
   61.2050   30.7130   52.6310 C   0  0  0  0  0  0  0  0  0  0  0  0
   60.0100   31.4570   52.0150 C   0  0  0  0  0  0  0  0  0  0  0  0
   56.7757   31.8944   52.8209 H   0  0  0  0  0  0  0  0  0  0  0  0
   57.7812   32.5640   51.4914 H   0  0  0  0  0  0  0  0  0  0  0  0
   57.3354   30.8239   51.4914 H   0  0  0  0  0  0  0  0  0  0  0  0
   59.0734   30.2000   54.6309 H   0  0  0  0  0  0  0  0  0  0  0  0
   57.6316   29.7901   53.6020 H   0  0  0  0  0  0  0  0  0  0  0  0
   59.3506   28.0203   53.4933 H   0  0  0  0  0  0  0  0  0  0  0  0
   59.1039   28.8329   51.8962 H   0  0  0  0  0  0  0  0  0  0  0  0
   59.8747   30.0812   50.3543 H   0  0  0  0  0  0  0  0  0  0  0  0
   58.5774   29.8740   48.2350 H   0  0  0  0  0  0  0  0  0  0  0  0
   59.0163   27.0034   45.8854 H   0  0  0  0  0  0  0  0  0  0  0  0
   57.4827   27.4899   46.6914 H   0  0  0  0  0  0  0  0  0  0  0  0
   59.4960   29.5670   45.8200 H   0  0  0  0  0  0  0  0  0  0  0  0
   56.7585   29.9479   42.5487 H   0  0  0  0  0  0  0  0  0  0  0  0
   59.1195   35.1663   43.8931 H   0  0  0  0  0  0  0  0  0  0  0  0
   59.7817   35.3000   46.2907 H   0  0  0  0  0  0  0  0  0  0  0  0
   61.2079   34.0281   50.3229 H   0  0  0  0  0  0  0  0  0  0  0  0
   62.3361   32.6101   50.4348 H   0  0  0  0  0  0  0  0  0  0  0  0
   62.5623   34.9545   48.4892 H   0  0  0  0  0  0  0  0  0  0  0  0
   63.5840   34.6346   49.9693 H   0  0  0  0  0  0  0  0  0  0  0  0
   63.8325   32.1360   46.7683 H   0  0  0  0  0  0  0  0  0  0  0  0
   63.4518   31.4404   48.4170 H   0  0  0  0  0  0  0  0  0  0  0  0
   61.6538   33.3252   46.8325 H   0  0  0  0  0  0  0  0  0  0  0  0
   61.4517   31.5376   46.9838 H   0  0  0  0  0  0  0  0  0  0  0  0
   58.2527   31.3053   46.9458 H   0  0  0  0  0  0  0  0  0  0  0  0
   60.0756   25.8430   47.7145 H   0  0  0  0  0  0  0  0  0  0  0  0
   61.3696   26.0530   49.8331 H   0  0  0  0  0  0  0  0  0  0  0  0
   61.4512   31.1790   53.5965 H   0  0  0  0  0  0  0  0  0  0  0  0
   62.0439   30.7832   51.9230 H   0  0  0  0  0  0  0  0  0  0  0  0
   60.2782   32.5148   51.8768 H   0  0  0  0  0  0  0  0  0  0  0  0
   59.7683   30.9893   51.0492 H   0  0  0  0  0  0  0  0  0  0  0  0
  1  2  1  0
  2  3  1  0
  3  4  1  0
  4  5  1  0
  5  6  1  0
  6  7  2  0
  6  8  2  0
  6  9  1  0
  9 10  2  0
 10 11  1  0
 11 12  2  0
 12 13  1  0
 13 14  1  0
 14 15  1  0
 15 16  2  0
 15 17  1  0
 17 18  2  0
 18 19  1  0
 19 20  2  0
 19 21  1  0
 21 22  1  0
 22 23  2  0
 23 24  1  0
 24 25  2  0
 25 26  1  0
 26 27  2  0
 26 28  2  0
 26 29  1  0
 29 30  1  0
 30 31  1  0
 31 32  1  0
 32 33  1  0
 33 34  1  0
 25 35  1  0
 35 36  2  0
 12 37  1  0
 37 38  2  0
  5 39  1  0
 39 40  1  0
 40  2  1  0
 38  9  1  0
 36 17  1  0
 36 22  1  0
 34 29  1  0
  1 41  1  0
  1 42  1  0
  1 43  1  0
  3 44  1  0
  3 45  1  0
  4 46  1  0
  4 47  1  0
 10 48  1  0
 11 49  1  0
 13 50  1  0
 13 51  1  0
 14 52  1  0
 18 53  1  0
 23 54  1  0
 24 55  1  0
 30 56  1  0
 30 57  1  0
 31 58  1  0
 31 59  1  0
 33 60  1  0
 33 61  1  0
 34 62  1  0
 34 63  1  0
 35 64  1  0
 37 65  1  0
 38 66  1  0
 39 67  1  0
 39 68  1  0
 40 69  1  0
 40 70  1  0
M  CHG  1  21  -1
M  END
>  <UniqueID>  (19) 
18

>  <SMILES>  (19) 
CN1CCN(S(=O)(=O)c2ccc(CNC(=O)c3cc(=O)[n-]c4ccc(S(=O)(=O)N5CCOCC5)cc34)cc2)CC1

>  <Energy>  (19) 
100.28994362368921

>  <Genealogy>  (19) 
CN1CCN(S(=O)(=O)c2ccc(CNC(=O)c3cc(=O)[n-]c4ccc(S(=O)(=O)N5CCOCC5)cc34)cc2)CC1 (protonated)
CN1CCN(S(=O)(=O)c2ccc(CNC(=O)c3cc(=O)[n-]c4ccc(S(=O)(=O)N5CCOCC5)cc34)cc2)CC1 (3D coordinates assigned)
CN1CCN(S(=O)(=O)c2ccc(CNC(=O)c3cc(=O)[n-]c4ccc(S(=O)(=O)N5CCOCC5)cc34)cc2)CC1 (nonaromatic ring conformer: 100.28994362368921 kcal/mol)

>  <smiles>  (19) 
CN1CCN(S(=O)(=O)c2ccc(CNC(=O)c3cc(=O)[nH]c4ccc(S(=O)(=O)N5CCOCC5)cc34)cc2)CC1

>  <score_type>  (19) 
oracle

>  <origin>  (19) 
adg

>  <m_score__min__energy>  (19) 
-11.44

>  <m_primary>  (19) 
energy

$$$$
19:0
     RDKit          3D

 25 26  0  0  0  0  0  0  0  0999 V2000
   59.6632   36.2361   46.1668 H   0  0  0  0  0  0  0  0  0  0  0  0
   59.3540   35.1810   46.1340 C   0  0  0  0  0  0  0  0  0  0  0  0
   59.3450   34.4210   47.3060 C   0  0  0  0  0  0  0  0  0  0  0  0
   59.6568   34.8750   48.2582 H   0  0  0  0  0  0  0  0  0  0  0  0
   58.9400   33.0840   47.2690 C   0  0  0  0  0  0  0  0  0  0  0  0
   58.9090   32.0510   48.8740 Br  0  0  0  0  0  0  0  0  0  0  0  0
   58.5550   32.5030   46.0550 C   0  0  0  0  0  0  0  0  0  0  0  0
   58.2246   31.4541   46.0314 H   0  0  0  0  0  0  0  0  0  0  0  0
   58.5880   33.2500   44.8690 C   0  0  0  0  0  0  0  0  0  0  0  0
   58.1640   32.6260   43.6490 N   0  0  0  0  0  0  0  0  0  0  0  0
   57.3030   31.4880   43.5360 C   0  0  0  0  0  0  0  0  0  0  0  0
   57.0770   31.0110   42.3930 O   0  0  0  0  0  0  0  0  0  0  0  0
   56.6600   30.9450   44.7010 N   0  0  0  0  0  0  0  0  0  0  0  0
   56.6700   29.7000   45.0780 C   0  0  0  0  0  0  0  0  0  0  0  0
   55.5290   28.9890   45.2160 N   0  0  0  0  0  0  0  0  0  0  0  0
   55.9730   27.7880   45.6190 C   0  0  0  0  0  0  0  0  0  0  0  0
   55.1410   26.7120   45.9060 O   0  0  0  0  0  0  0  0  0  0  0  0
   57.3420   27.7910   45.7050 C   0  0  0  0  0  0  0  0  0  0  0  0
   58.2080   26.6690   46.1730 C   0  0  0  0  0  0  0  0  0  0  0  0
   58.2221   26.6508   47.2728 H   0  0  0  0  0  0  0  0  0  0  0  0
   57.8091   25.7159   45.7956 H   0  0  0  0  0  0  0  0  0  0  0  0
   59.2311   26.8134   45.7956 H   0  0  0  0  0  0  0  0  0  0  0  0
   57.7980   29.0120   45.3750 N   0  0  0  0  0  0  0  0  0  0  0  0
   58.9710   34.6040   44.9190 C   0  0  0  0  0  0  0  0  0  0  0  0
   58.9690   35.2092   44.0005 H   0  0  0  0  0  0  0  0  0  0  0  0
  1  2  1  0
  2  3  2  0
  3  4  1  0
  3  5  1  0
  5  6  1  0
  5  7  2  0
  7  8  1  0
  7  9  1  0
  9 10  1  0
 10 11  1  0
 11 12  2  0
 11 13  1  0
 13 14  2  0
 14 15  1  0
 15 16  1  0
 16 17  1  0
 16 18  2  0
 18 19  1  0
 19 20  1  0
 19 21  1  0
 19 22  1  0
 18 23  1  0
  9 24  2  0
 24 25  1  0
 24  2  1  0
 23 14  1  0
M  CHG  4  10  -1  15  -1  17  -1  23  -1
M  END
>  <UniqueID>  (20) 
19

>  <SMILES>  (20) 
Cc1[n-]/c(=N\C(=O)[N-]c2cccc(Br)c2)[n-]c1[O-]

>  <Energy>  (20) 
58.50875443828288

>  <Genealogy>  (20) 
Cc1[n-]c(=NC(=O)[N-]c2cccc(Br)c2)[n-]c1[O-] (protonated)
Cc1[n-]/c(=N\C(=O)[N-]c2cccc(Br)c2)[n-]c1[O-] (cis-trans isomerization)
Cc1[n-]/c(=N\C(=O)[N-]c2cccc(Br)c2)[n-]c1[O-] (3D coordinates assigned)
Cc1[n-]/c(=N\C(=O)[N-]c2cccc(Br)c2)[n-]c1[O-] (optimized conformer: 58.50875443828288 kcal/mol)

>  <smiles>  (20) 
Cc1[nH]c(=NC(=O)Nc2cccc(Br)c2)[nH]c1O

>  <score_type>  (20) 
oracle

>  <origin>  (20) 
adg

>  <m_score__min__energy>  (20) 
-14.18

>  <m_primary>  (20) 
energy

$$$$
20:0
     RDKit          3D

 51 54  0  0  0  0  0  0  0  0999 V2000
   54.3950   26.7000   46.7780 H   0  0  0  0  0  0  0  0  0  0  0  0
   54.7660   26.3050   45.9230 O   0  0  0  0  0  0  0  0  0  0  0  0
   54.5180   24.9770   45.5890 C   0  0  0  0  0  0  0  0  0  0  0  0
   53.4390   24.2900   45.9980 N   0  0  0  0  0  0  0  0  0  0  0  0
   53.6580   23.0610   45.4810 C   0  0  0  0  0  0  0  0  0  0  0  0
   52.8590   22.1050   45.6480 O   0  0  0  0  0  0  0  0  0  0  0  0
   54.8060   22.9370   44.7810 N   0  0  0  0  0  0  0  0  0  0  0  0
   55.3360   24.1710   44.8290 C   0  0  0  0  0  0  0  0  0  0  0  0
   56.6660   24.5060   44.2990 C   0  0  0  0  0  0  0  0  0  0  0  0
   57.0611   23.8661   43.4962 H   0  0  0  0  0  0  0  0  0  0  0  0
   57.4440   25.5270   44.7090 C   0  0  0  0  0  0  0  0  0  0  0  0
   57.7980   25.7080   46.0330 C   0  0  0  0  0  0  0  0  0  0  0  0
   57.5484   25.0443   46.8739 H   0  0  0  0  0  0  0  0  0  0  0  0
   58.5230   26.8780   46.0990 C   0  0  0  0  0  0  0  0  0  0  0  0
   59.1160   27.4310   47.3590 C   0  0  0  0  0  0  0  0  0  0  0  0
   58.6233   26.9715   48.2286 H   0  0  0  0  0  0  0  0  0  0  0  0
   60.1926   27.2069   47.3867 H   0  0  0  0  0  0  0  0  0  0  0  0
   58.9675   28.5206   47.3867 H   0  0  0  0  0  0  0  0  0  0  0  0
   58.6720   27.4170   44.8650 N   0  0  0  0  0  0  0  0  0  0  0  0
   59.4480   28.6340   44.5680 C   0  0  0  0  0  0  0  0  0  0  0  0
   60.2739   28.7195   45.2896 H   0  0  0  0  0  0  0  0  0  0  0  0
   59.8396   28.5596   43.5428 H   0  0  0  0  0  0  0  0  0  0  0  0
   58.5780   29.8650   44.6640 C   0  0  0  0  0  0  0  0  0  0  0  0
   58.9330   30.9060   45.5390 C   0  0  0  0  0  0  0  0  0  0  0  0
   59.8475   30.8185   46.1440 H   0  0  0  0  0  0  0  0  0  0  0  0
   58.1350   32.0570   45.6510 C   0  0  0  0  0  0  0  0  0  0  0  0
   58.4950   33.1050   46.5720 N   0  0  0  0  0  0  0  0  0  0  0  0
   58.8570   32.7750   47.9570 C   0  0  0  0  0  0  0  0  0  0  0  0
   57.9405   32.5891   48.5362 H   0  0  0  0  0  0  0  0  0  0  0  0
   59.4926   31.8772   47.9542 H   0  0  0  0  0  0  0  0  0  0  0  0
   59.6350   33.9320   48.6000 C   0  0  0  0  0  0  0  0  0  0  0  0
   58.9262   34.7069   48.9274 H   0  0  0  0  0  0  0  0  0  0  0  0
   60.1994   33.5456   49.4615 H   0  0  0  0  0  0  0  0  0  0  0  0
   60.5790   34.5160   47.6370 N   0  0  0  0  0  0  0  0  0  0  0  0
   61.2120   33.7560   47.2920 H   0  0  0  0  0  0  0  0  0  0  0  0
   59.9020   35.1340   46.4780 C   0  0  0  0  0  0  0  0  0  0  0  0
   59.7546   36.2029   46.6921 H   0  0  0  0  0  0  0  0  0  0  0  0
   60.5467   34.9644   45.6030 H   0  0  0  0  0  0  0  0  0  0  0  0
   58.5300   34.5100   46.1520 C   0  0  0  0  0  0  0  0  0  0  0  0
   57.7433   35.0666   46.6824 H   0  0  0  0  0  0  0  0  0  0  0  0
   58.3630   34.5623   45.0660 H   0  0  0  0  0  0  0  0  0  0  0  0
   56.9660   32.1560   44.8820 C   0  0  0  0  0  0  0  0  0  0  0  0
   56.3254   33.0456   44.9725 H   0  0  0  0  0  0  0  0  0  0  0  0
   56.6110   31.1310   44.0020 C   0  0  0  0  0  0  0  0  0  0  0  0
   55.6973   31.2213   43.3961 H   0  0  0  0  0  0  0  0  0  0  0  0
   57.4110   29.9920   43.8880 C   0  0  0  0  0  0  0  0  0  0  0  0
   57.0380   29.0130   43.0250 F   0  0  0  0  0  0  0  0  0  0  0  0
   58.0430   26.5800   43.9940 C   0  0  0  0  0  0  0  0  0  0  0  0
   58.1190   26.6940   42.6570 C   0  0  0  0  0  0  0  0  0  0  0  0
   58.6143   27.5669   42.2067 H   0  0  0  0  0  0  0  0  0  0  0  0
   57.6859   25.9144   42.0130 H   0  0  0  0  0  0  0  0  0  0  0  0
  1  2  1  0
  2  3  1  0
  3  4  1  0
  4  5  1  0
  5  6  2  0
  5  7  1  0
  7  8  1  0
  8  9  1  0
  9 10  1  0
  9 11  2  0
 11 12  1  0
 12 13  1  0
 12 14  2  0
 14 15  1  0
 15 16  1  0
 15 17  1  0
 15 18  1  0
 14 19  1  0
 19 20  1  0
 20 21  1  0
 20 22  1  0
 20 23  1  0
 23 24  2  0
 24 25  1  0
 24 26  1  0
 26 27  1  0
 27 28  1  0
 28 29  1  0
 28 30  1  0
 28 31  1  0
 31 32  1  0
 31 33  1  0
 31 34  1  0
 34 35  1  0
 34 36  1  0
 36 37  1  0
 36 38  1  0
 36 39  1  0
 39 40  1  0
 39 41  1  0
 26 42  2  0
 42 43  1  0
 42 44  1  0
 44 45  1  0
 44 46  2  0
 46 47  1  0
 19 48  1  0
 48 49  2  0
 49 50  1  0
 49 51  1  0
  8  3  2  0
 48 11  1  0
 46 23  1  0
 39 27  1  0
M  CHG  2   4  -1   7  -1
M  END
>  <UniqueID>  (21) 
20

>  <SMILES>  (21) 
C=c1/c(=C\c2[n-]c(=O)[n-]c2O)cc(C)n1Cc1cc(N2CCNCC2)ccc1F

>  <Energy>  (21) 
130.81343831363705

>  <Genealogy>  (21) 
C=c1c(=Cc2[n-]c(=O)[n-]c2O)cc(C)n1Cc1cc(N2CCNCC2)ccc1F (protonated)
C=c1/c(=C\c2[n-]c(=O)[n-]c2O)cc(C)n1Cc1cc(N2CCNCC2)ccc1F (cis-trans isomerization)
C=c1/c(=C\c2[n-]c(=O)[n-]c2O)cc(C)n1Cc1cc(N2CCNCC2)ccc1F (3D coordinates assigned)
C=c1/c(=C\c2[n-]c(=O)[n-]c2O)cc(C)n1Cc1cc(N2CCNCC2)ccc1F (nonaromatic ring conformer: 130.81343831363705 kcal/mol)

>  <smiles>  (21) 
C=c1c(=Cc2[nH]c(=O)[nH]c2O)cc(C)n1Cc1cc(N2CCNCC2)ccc1F

>  <score_type>  (21) 
oracle

>  <origin>  (21) 
adg

>  <m_score__min__energy>  (21) 
-13.59

>  <m_primary>  (21) 
energy

$$$$
21:0
     RDKit          3D

 55 57  0  0  0  0  0  0  0  0999 V2000
   56.8620   30.4750   52.1450 C   0  0  0  0  0  0  0  0  0  0  0  0
   57.6200   30.6250   50.9060 N   0  0  0  0  0  0  0  0  0  0  0  0
   58.5970   31.4610   50.7020 C   0  0  0  0  0  0  0  0  0  0  0  0
   59.7700   31.4560   51.4830 C   0  0  0  0  0  0  0  0  0  0  0  0
   60.7980   32.3570   51.1900 C   0  0  0  0  0  0  0  0  0  0  0  0
   60.6690   33.2320   50.1580 N   0  0  0  0  0  0  0  0  0  0  0  0
   59.5360   33.2780   49.3960 C   0  0  0  0  0  0  0  0  0  0  0  0
   59.4470   34.2280   48.2360 C   0  0  0  0  0  0  0  0  0  0  0  0
   59.9350   33.5720   47.0180 N   0  0  0  0  0  0  0  0  0  0  0  0
   61.2580   33.8950   46.4730 C   0  0  0  0  0  0  0  0  0  0  0  0
   62.3230   33.0240   47.1490 C   0  0  0  0  0  0  0  0  0  0  0  0
   63.7540   33.3240   46.7350 C   0  0  0  0  0  0  0  0  0  0  0  0
   63.2570   33.7470   48.1090 C   0  0  0  0  0  0  0  0  0  0  0  0
   59.1260   32.5710   46.3800 C   0  0  0  0  0  0  0  0  0  0  0  0
   59.5640   31.2390   46.3210 C   0  0  0  0  0  0  0  0  0  0  0  0
   58.7710   30.2630   45.7130 C   0  0  0  0  0  0  0  0  0  0  0  0
   57.5230   30.6030   45.1760 C   0  0  0  0  0  0  0  0  0  0  0  0
   56.6880   29.5810   44.5300 C   0  0  0  0  0  0  0  0  0  0  0  0
   56.4220   29.7050   43.3040 O   0  0  0  0  0  0  0  0  0  0  0  0
   56.1550   28.4510   45.2420 N   0  0  0  0  0  0  0  0  0  0  0  0
   56.8610   27.2560   45.7270 C   0  0  0  0  0  0  0  0  0  0  0  0
   57.7660   27.6890   46.8900 C   0  0  0  0  0  0  0  0  0  0  0  0
   57.7510   26.6710   44.6090 C   0  0  0  0  0  0  0  0  0  0  0  0
   55.8670   26.2390   46.2440 C   0  0  0  0  0  0  0  0  0  0  0  0
   54.6510   26.3190   45.9220 O   0  0  0  0  0  0  0  0  0  0  0  0
   56.2680   25.2060   47.0850 O   0  0  0  0  0  0  0  0  0  0  0  0
   57.0970   31.9390   45.2080 C   0  0  0  0  0  0  0  0  0  0  0  0
   57.8880   32.9140   45.8190 C   0  0  0  0  0  0  0  0  0  0  0  0
   58.4860   32.3810   49.6550 C   0  0  0  0  0  0  0  0  0  0  0  0
   57.5349   30.6082   53.0049 H   0  0  0  0  0  0  0  0  0  0  0  0
   56.0657   31.2330   52.1817 H   0  0  0  0  0  0  0  0  0  0  0  0
   56.4144   29.4709   52.1817 H   0  0  0  0  0  0  0  0  0  0  0  0
   59.8761   30.7477   52.3179 H   0  0  0  0  0  0  0  0  0  0  0  0
   61.7152   32.3578   51.7973 H   0  0  0  0  0  0  0  0  0  0  0  0
   61.4670   33.8760   49.9460 H   0  0  0  0  0  0  0  0  0  0  0  0
   58.3996   34.5320   48.0925 H   0  0  0  0  0  0  0  0  0  0  0  0
   60.0649   35.1140   48.4439 H   0  0  0  0  0  0  0  0  0  0  0  0
   61.2635   33.7042   45.3897 H   0  0  0  0  0  0  0  0  0  0  0  0
   61.4808   34.9553   46.6629 H   0  0  0  0  0  0  0  0  0  0  0  0
   61.6970   32.1215   47.2092 H   0  0  0  0  0  0  0  0  0  0  0  0
   64.4826   32.5052   46.6420 H   0  0  0  0  0  0  0  0  0  0  0  0
   64.2256   33.8405   45.8860 H   0  0  0  0  0  0  0  0  0  0  0  0
   63.6255   33.2338   49.0095 H   0  0  0  0  0  0  0  0  0  0  0  0
   63.2196   34.6953   48.6652 H   0  0  0  0  0  0  0  0  0  0  0  0
   60.5360   30.9624   46.7554 H   0  0  0  0  0  0  0  0  0  0  0  0
   59.1278   29.2241   45.6558 H   0  0  0  0  0  0  0  0  0  0  0  0
   57.2737   27.4534   47.8451 H   0  0  0  0  0  0  0  0  0  0  0  0
   58.7239   27.1516   46.8289 H   0  0  0  0  0  0  0  0  0  0  0  0
   57.9486   28.7720   46.8289 H   0  0  0  0  0  0  0  0  0  0  0  0
   58.5898   26.1196   45.0589 H   0  0  0  0  0  0  0  0  0  0  0  0
   57.1553   25.9878   43.9858 H   0  0  0  0  0  0  0  0  0  0  0  0
   58.1419   27.4888   43.9858 H   0  0  0  0  0  0  0  0  0  0  0  0
   56.1368   32.2195   44.7504 H   0  0  0  0  0  0  0  0  0  0  0  0
   57.5381   33.9560   45.8603 H   0  0  0  0  0  0  0  0  0  0  0  0
   57.5778   32.4025   49.0348 H   0  0  0  0  0  0  0  0  0  0  0  0
  1  2  1  0
  2  3  2  3
  3  4  1  0
  4  5  2  0
  5  6  1  0
  6  7  1  0
  7  8  1  0
  8  9  1  0
  9 10  1  0
 10 11  1  0
 11 12  1  0
 12 13  1  0
  9 14  1  0
 14 15  2  0
 15 16  1  0
 16 17  2  0
 17 18  1  0
 18 19  2  0
 18 20  1  0
 20 21  1  0
 21 22  1  0
 21 23  1  0
 21 24  1  0
 24 25  2  0
 24 26  1  0
 17 27  1  0
 27 28  2  0
  7 29  2  0
 29  3  1  0
 13 11  1  0
 28 14  1  0
  1 30  1  0
  1 31  1  0
  1 32  1  0
  4 33  1  0
  5 34  1  0
  6 35  1  0
  8 36  1  0
  8 37  1  0
 10 38  1  0
 10 39  1  0
 11 40  1  0
 12 41  1  0
 12 42  1  0
 13 43  1  0
 13 44  1  0
 15 45  1  0
 16 46  1  0
 22 47  1  0
 22 48  1  0
 22 49  1  0
 23 50  1  0
 23 51  1  0
 23 52  1  0
 27 53  1  0
 28 54  1  0
 29 55  1  0
M  CHG  2  20  -1  26  -1
M  END
>  <UniqueID>  (22) 
21

>  <SMILES>  (22) 
CN=c1cc[nH]c(CN(CC2CC2)c2ccc(C(=O)[N-]C(C)(C)C(=O)[O-])cc2)c1

>  <Energy>  (22) 
323.89904321967765

>  <Genealogy>  (22) 
CN=c1cc[nH]c(CN(CC2CC2)c2ccc(C(=O)[N-]C(C)(C)C(=O)[O-])cc2)c1 (protonated)
CN=c1cc[nH]c(CN(CC2CC2)c2ccc(C(=O)[N-]C(C)(C)C(=O)[O-])cc2)c1 (3D coordinates assigned)
CN=c1cc[nH]c(CN(CC2CC2)c2ccc(C(=O)[N-]C(C)(C)C(=O)[O-])cc2)c1 (nonaromatic ring conformer: 323.89904321967765 kcal/mol)

>  <smiles>  (22) 
CN=c1cc[nH]c(CN(CC2CC2)c2ccc(C(=O)NC(C)(C)C(=O)O)cc2)c1

>  <score_type>  (22) 
oracle

>  <origin>  (22) 
adg

>  <m_score__min__energy>  (22) 
-13.130000000000001

>  <m_primary>  (22) 
energy

$$$$
22:0
     RDKit          3D

 66 70  0  0  0  0  0  0  0  0999 V2000
   55.0620   29.5050   53.4430 C   0  0  0  0  0  0  0  0  0  0  0  0
   55.9380   30.1210   54.5310 C   0  0  0  0  0  0  0  0  0  0  0  0
   57.4370   29.9560   54.2420 C   0  0  0  0  0  0  0  0  0  0  0  0
   57.9230   30.9880   53.3020 N   0  0  0  0  0  0  0  0  0  0  0  0
   57.8500   30.7770   51.9430 C   0  0  0  0  0  0  0  0  0  0  0  0
   57.3900   29.7030   51.4640 O   0  0  0  0  0  0  0  0  0  0  0  0
   58.2970   31.7760   51.0970 C   0  0  0  0  0  0  0  0  0  0  0  0
   58.3450   31.7810   49.7570 N   0  0  0  0  0  0  0  0  0  0  0  0
   58.8870   33.0020   49.4950 C   0  0  0  0  0  0  0  0  0  0  0  0
   59.1670   33.4650   48.1320 C   0  0  0  0  0  0  0  0  0  0  0  0
   60.4010   33.7680   47.5850 C   0  0  0  0  0  0  0  0  0  0  0  0
   60.2210   34.0920   46.2900 N   0  0  0  0  0  0  0  0  0  0  0  0
   58.9330   33.9970   46.0000 N   0  0  0  0  0  0  0  0  0  0  0  0
   58.3630   34.2440   44.6750 C   0  0  0  0  0  0  0  0  0  0  0  0
   57.9580   32.9460   44.0220 C   0  0  0  0  0  0  0  0  0  0  0  0
   58.0310   32.7940   42.6300 C   0  0  0  0  0  0  0  0  0  0  0  0
   57.5840   31.6170   42.0270 C   0  0  0  0  0  0  0  0  0  0  0  0
   57.0520   30.5870   42.8050 C   0  0  0  0  0  0  0  0  0  0  0  0
   56.9810   30.7160   44.2040 C   0  0  0  0  0  0  0  0  0  0  0  0
   56.3710   29.6480   45.0270 C   0  0  0  0  0  0  0  0  0  0  0  0
   55.1550   29.3470   44.8780 O   0  0  0  0  0  0  0  0  0  0  0  0
   57.1730   28.9220   45.9630 N   0  0  0  0  0  0  0  0  0  0  0  0
   58.6170   29.0870   46.0700 C   0  0  0  0  0  0  0  0  0  0  0  0
   59.0710   28.8440   47.5110 C   0  0  0  0  0  0  0  0  0  0  0  0
   60.2280   29.7380   47.8790 C   0  0  0  0  0  0  0  0  0  0  0  0
   60.6300   29.8600   49.2210 C   0  0  0  0  0  0  0  0  0  0  0  0
   61.7320   30.6560   49.5560 C   0  0  0  0  0  0  0  0  0  0  0  0
   62.4390   31.3300   48.5560 C   0  0  0  0  0  0  0  0  0  0  0  0
   62.0510   31.2060   47.2200 C   0  0  0  0  0  0  0  0  0  0  0  0
   60.9510   30.4110   46.8800 C   0  0  0  0  0  0  0  0  0  0  0  0
   57.4560   31.8950   44.8060 C   0  0  0  0  0  0  0  0  0  0  0  0
   58.2560   33.6330   47.1080 C   0  0  0  0  0  0  0  0  0  0  0  0
   59.1740   33.7420   50.5990 N   0  0  0  0  0  0  0  0  0  0  0  0
   58.7830   32.9300   51.5930 C   0  0  0  0  0  0  0  0  0  0  0  0
   58.8540   33.1750   52.9300 N   0  0  0  0  0  0  0  0  0  0  0  0
   59.4320   34.4250   53.4370 C   0  0  0  0  0  0  0  0  0  0  0  0
   58.4320   32.1820   53.7910 C   0  0  0  0  0  0  0  0  0  0  0  0
   58.5130   32.3670   55.0380 O   0  0  0  0  0  0  0  0  0  0  0  0
   54.2470   28.9319   53.9092 H   0  0  0  0  0  0  0  0  0  0  0  0
   54.6373   30.3043   52.8179 H   0  0  0  0  0  0  0  0  0  0  0  0
   55.6705   28.8349   52.8179 H   0  0  0  0  0  0  0  0  0  0  0  0
   55.7086   31.1944   54.6030 H   0  0  0  0  0  0  0  0  0  0  0  0
   55.7194   29.5968   55.4730 H   0  0  0  0  0  0  0  0  0  0  0  0
   57.9948   30.0411   55.1863 H   0  0  0  0  0  0  0  0  0  0  0  0
   57.5939   28.9688   53.7829 H   0  0  0  0  0  0  0  0  0  0  0  0
   61.3639   33.7478   48.1164 H   0  0  0  0  0  0  0  0  0  0  0  0
   60.9700   34.3620   45.6150 H   0  0  0  0  0  0  0  0  0  0  0  0
   57.4780   34.8894   44.7765 H   0  0  0  0  0  0  0  0  0  0  0  0
   59.1217   34.7353   44.0481 H   0  0  0  0  0  0  0  0  0  0  0  0
   58.4420   33.6051   42.0109 H   0  0  0  0  0  0  0  0  0  0  0  0
   57.6512   31.5007   40.9352 H   0  0  0  0  0  0  0  0  0  0  0  0
   56.6862   29.6693   42.3212 H   0  0  0  0  0  0  0  0  0  0  0  0
   59.1154   28.3659   45.4055 H   0  0  0  0  0  0  0  0  0  0  0  0
   58.8838   30.1134   45.7777 H   0  0  0  0  0  0  0  0  0  0  0  0
   58.2305   29.0477   48.1907 H   0  0  0  0  0  0  0  0  0  0  0  0
   59.3987   27.7977   47.6000 H   0  0  0  0  0  0  0  0  0  0  0  0
   60.0772   29.3286   50.0097 H   0  0  0  0  0  0  0  0  0  0  0  0
   62.0418   30.7511   50.6072 H   0  0  0  0  0  0  0  0  0  0  0  0
   63.3017   31.9586   48.8215 H   0  0  0  0  0  0  0  0  0  0  0  0
   62.6110   31.7340   46.4341 H   0  0  0  0  0  0  0  0  0  0  0  0
   60.6511   30.3125   45.8263 H   0  0  0  0  0  0  0  0  0  0  0  0
   57.4340   31.9946   45.9013 H   0  0  0  0  0  0  0  0  0  0  0  0
   57.1674   33.4941   47.1830 H   0  0  0  0  0  0  0  0  0  0  0  0
   59.4260   34.4121   54.5369 H   0  0  0  0  0  0  0  0  0  0  0  0
   60.4668   34.5230   53.0771 H   0  0  0  0  0  0  0  0  0  0  0  0
   58.8364   35.2769   53.0771 H   0  0  0  0  0  0  0  0  0  0  0  0
  1  2  1  0
  2  3  1  0
  3  4  1  0
  4  5  1  0
  5  6  2  0
  5  7  1  0
  7  8  1  0
  8  9  1  0
  9 10  1  0
 10 11  1  0
 11 12  2  0
 12 13  1  0
 13 14  1  0
 14 15  1  0
 15 16  2  0
 16 17  1  0
 17 18  2  0
 18 19  1  0
 19 20  1  0
 20 21  2  0
 20 22  1  0
 22 23  1  0
 23 24  1  0
 24 25  1  0
 25 26  2  0
 26 27  1  0
 27 28  2  0
 28 29  1  0
 29 30  2  0
 19 31  2  0
 13 32  1  0
  9 33  2  0
 33 34  1  0
 34 35  1  0
 35 36  1  0
 35 37  1  0
 37 38  2  0
 37  4  1  0
 34  7  2  0
 32 10  2  0
 31 15  1  0
 30 25  1  0
  1 39  1  0
  1 40  1  0
  1 41  1  0
  2 42  1  0
  2 43  1  0
  3 44  1  0
  3 45  1  0
 11 46  1  0
 12 47  1  0
 14 48  1  0
 14 49  1  0
 16 50  1  0
 17 51  1  0
 18 52  1  0
 23 53  1  0
 23 54  1  0
 24 55  1  0
 24 56  1  0
 26 57  1  0
 27 58  1  0
 28 59  1  0
 29 60  1  0
 30 61  1  0
 31 62  1  0
 32 63  1  0
 36 64  1  0
 36 65  1  0
 36 66  1  0
M  CHG  3   8  -1  12   1  22  -1
M  END
>  <UniqueID>  (23) 
22

>  <SMILES>  (23) 
CCCn1c(=O)c2[n-]c(-c3c[nH+]n(Cc4cccc(C(=O)[N-]CCc5ccccc5)c4)c3)nc2n(C)c1=O

>  <Energy>  (23) 
135.11902365556563

>  <Genealogy>  (23) 
CCCn1c(=O)c2[n-]c(-c3c[nH+]n(Cc4cccc(C(=O)[N-]CCc5ccccc5)c4)c3)nc2n(C)c1=O (protonated)
CCCn1c(=O)c2[n-]c(-c3c[nH+]n(Cc4cccc(C(=O)[N-]CCc5ccccc5)c4)c3)nc2n(C)c1=O (3D coordinates assigned)
CCCn1c(=O)c2[n-]c(-c3c[nH+]n(Cc4cccc(C(=O)[N-]CCc5ccccc5)c4)c3)nc2n(C)c1=O (optimized conformer: 135.11902365556563 kcal/mol)

>  <smiles>  (23) 
CCCn1c(=O)c2[nH]c(-c3cnn(Cc4cccc(C(=O)NCCc5ccccc5)c4)c3)nc2n(C)c1=O

>  <score_type>  (23) 
oracle

>  <origin>  (23) 
adg

>  <m_score__min__energy>  (23) 
-10.789999999999999

>  <m_primary>  (23) 
energy

$$$$
23:0
     RDKit          3D

 68 71  0  0  0  0  0  0  0  0999 V2000
   56.1570   23.4080   44.4570 C   0  0  0  0  0  0  0  0  0  0  0  0
   56.9610   23.0050   45.6910 C   0  0  0  0  0  0  0  0  0  0  0  0
   58.3140   22.4170   45.2720 C   0  0  0  0  0  0  0  0  0  0  0  0
   57.1610   24.1660   46.5020 O   0  0  0  0  0  0  0  0  0  0  0  0
   57.5700   25.4320   46.0480 C   0  0  0  0  0  0  0  0  0  0  0  0
   58.8970   25.7160   45.6690 C   0  0  0  0  0  0  0  0  0  0  0  0
   59.2450   26.9940   45.2220 C   0  0  0  0  0  0  0  0  0  0  0  0
   58.2850   28.0200   45.1540 C   0  0  0  0  0  0  0  0  0  0  0  0
   58.6840   29.3720   44.6810 C   0  0  0  0  0  0  0  0  0  0  0  0
   59.9070   29.6140   44.4860 O   0  0  0  0  0  0  0  0  0  0  0  0
   57.7150   30.4170   44.4760 N   0  0  0  0  0  0  0  0  0  0  0  0
   58.0990   31.7800   44.1070 C   0  0  0  0  0  0  0  0  0  0  0  0
   57.8220   32.7280   45.2400 C   0  0  0  0  0  0  0  0  0  0  0  0
   56.6440   33.1660   45.3990 O   0  0  0  0  0  0  0  0  0  0  0  0
   58.8810   33.1880   46.1100 N   0  0  0  0  0  0  0  0  0  0  0  0
   60.0350   32.3160   46.3870 C   0  0  0  0  0  0  0  0  0  0  0  0
   60.8660   32.8530   47.5570 C   0  0  0  0  0  0  0  0  0  0  0  0
   60.0100   33.4850   48.5920 N   0  0  0  0  0  0  0  0  0  0  0  0
   59.0250   32.5510   49.2260 C   0  0  2  0  0  0  0  0  0  0  0  0
   58.8410   32.8410   50.7120 C   0  0  0  0  0  0  0  0  0  0  0  0
   57.8030   32.2090   51.4240 C   0  0  0  0  0  0  0  0  0  0  0  0
   57.6360   32.4430   52.7940 C   0  0  0  0  0  0  0  0  0  0  0  0
   58.5060   33.3020   53.4710 C   0  0  0  0  0  0  0  0  0  0  0  0
   59.5480   33.9300   52.7780 C   0  0  0  0  0  0  0  0  0  0  0  0
   59.7160   33.7030   51.4060 C   0  0  0  0  0  0  0  0  0  0  0  0
   59.4330   31.0880   49.0800 C   0  0  0  0  0  0  0  0  0  0  0  0
   60.5740   30.5990   49.7500 C   0  0  0  0  0  0  0  0  0  0  0  0
   60.9600   29.2620   49.6090 C   0  0  0  0  0  0  0  0  0  0  0  0
   60.2200   28.3990   48.7910 C   0  0  0  0  0  0  0  0  0  0  0  0
   60.7130   26.7190   48.6110 Cl  0  0  0  0  0  0  0  0  0  0  0  0
   59.0910   28.8750   48.1160 C   0  0  0  0  0  0  0  0  0  0  0  0
   58.6980   30.2110   48.2580 C   0  0  0  0  0  0  0  0  0  0  0  0
   59.3720   34.7130   48.0410 C   0  0  0  0  0  0  0  0  0  0  0  0
   58.8920   34.5850   46.5760 C   0  0  0  0  0  0  0  0  0  0  0  0
   56.9580   27.7280   45.5210 C   0  0  0  0  0  0  0  0  0  0  0  0
   56.6100   26.4470   45.9680 C   0  0  0  0  0  0  0  0  0  0  0  0
   55.2147   23.8803   44.7715 H   0  0  0  0  0  0  0  0  0  0  0  0
   56.7410   24.1199   43.8553 H   0  0  0  0  0  0  0  0  0  0  0  0
   55.9361   22.5141   43.8553 H   0  0  0  0  0  0  0  0  0  0  0  0
   56.4130   22.2394   46.2598 H   0  0  0  0  0  0  0  0  0  0  0  0
   58.8974   22.1635   46.1695 H   0  0  0  0  0  0  0  0  0  0  0  0
   58.1496   21.5092   44.6730 H   0  0  0  0  0  0  0  0  0  0  0  0
   58.8655   23.1566   44.6730 H   0  0  0  0  0  0  0  0  0  0  0  0
   59.6628   24.9283   45.7251 H   0  0  0  0  0  0  0  0  0  0  0  0
   60.2824   27.1999   44.9197 H   0  0  0  0  0  0  0  0  0  0  0  0
   56.6950   30.2110   44.5460 H   0  0  0  0  0  0  0  0  0  0  0  0
   59.1730   31.8023   43.8702 H   0  0  0  0  0  0  0  0  0  0  0  0
   57.5118   32.0909   43.2303 H   0  0  0  0  0  0  0  0  0  0  0  0
   59.6716   31.3084   46.6375 H   0  0  0  0  0  0  0  0  0  0  0  0
   60.6726   32.2863   45.4911 H   0  0  0  0  0  0  0  0  0  0  0  0
   61.4205   32.0195   48.0129 H   0  0  0  0  0  0  0  0  0  0  0  0
   61.5546   33.6171   47.1672 H   0  0  0  0  0  0  0  0  0  0  0  0
   58.0794   32.7218   48.6905 H   0  0  0  0  0  0  0  0  0  0  0  0
   57.1183   31.5263   50.8995 H   0  0  0  0  0  0  0  0  0  0  0  0
   56.8179   31.9495   53.3391 H   0  0  0  0  0  0  0  0  0  0  0  0
   58.3723   33.4846   54.5475 H   0  0  0  0  0  0  0  0  0  0  0  0
   60.2356   34.6026   53.3117 H   0  0  0  0  0  0  0  0  0  0  0  0
   60.5355   34.2001   50.8662 H   0  0  0  0  0  0  0  0  0  0  0  0
   61.1641   31.2737   50.3876 H   0  0  0  0  0  0  0  0  0  0  0  0
   61.8466   28.8876   50.1417 H   0  0  0  0  0  0  0  0  0  0  0  0
   58.5106   28.1978   47.4721 H   0  0  0  0  0  0  0  0  0  0  0  0
   57.8093   30.5786   47.7242 H   0  0  0  0  0  0  0  0  0  0  0  0
   58.5017   34.9585   48.6674 H   0  0  0  0  0  0  0  0  0  0  0  0
   60.1435   35.4970   48.0498 H   0  0  0  0  0  0  0  0  0  0  0  0
   57.8722   34.9905   46.5015 H   0  0  0  0  0  0  0  0  0  0  0  0
   59.5952   35.1450   45.9420 H   0  0  0  0  0  0  0  0  0  0  0  0
   56.1886   28.5115   45.4563 H   0  0  0  0  0  0  0  0  0  0  0  0
   55.5704   26.2365   46.2594 H   0  0  0  0  0  0  0  0  0  0  0  0
  1  2  1  0
  2  3  1  0
  2  4  1  0
  4  5  1  0
  5  6  2  0
  6  7  1  0
  7  8  2  0
  8  9  1  0
  9 10  2  0
  9 11  1  0
 11 12  1  0
 12 13  1  0
 13 14  2  0
 13 15  1  0
 15 16  1  0
 16 17  1  0
 17 18  1  0
 18 19  1  0
 19 20  1  0
 20 21  2  0
 21 22  1  0
 22 23  2  0
 23 24  1  0
 24 25  2  0
 19 26  1  0
 26 27  2  0
 27 28  1  0
 28 29  2  0
 29 30  1  0
 29 31  1  0
 31 32  2  0
 18 33  1  0
 33 34  1  0
  8 35  1  0
 35 36  2  0
 36  5  1  0
 34 15  1  0
 25 20  1  0
 32 26  1  0
  1 37  1  0
  1 38  1  0
  1 39  1  0
  2 40  1  0
  3 41  1  0
  3 42  1  0
  3 43  1  0
  6 44  1  0
  7 45  1  0
 11 46  1  0
 12 47  1  0
 12 48  1  0
 16 49  1  0
 16 50  1  0
 17 51  1  0
 17 52  1  0
 19 53  1  6
 21 54  1  0
 22 55  1  0
 23 56  1  0
 24 57  1  0
 25 58  1  0
 27 59  1  0
 28 60  1  0
 31 61  1  0
 32 62  1  0
 33 63  1  0
 33 64  1  0
 34 65  1  0
 34 66  1  0
 35 67  1  0
 36 68  1  0
M  END
>  <UniqueID>  (24) 
23

>  <SMILES>  (24) 
CC(C)Oc1ccc(C(=O)NCC(=O)N2CCN([C@H](c3ccccc3)c3ccc(Cl)cc3)CC2)cc1

>  <Energy>  (24) 
81.20157047955409

>  <Genealogy>  (24) 
CC(C)Oc1ccc(C(=O)NCC(=O)N2CCN([C@H](c3ccccc3)c3ccc(Cl)cc3)CC2)cc1 (chirality)
CC(C)Oc1ccc(C(=O)NCC(=O)N2CCN([C@H](c3ccccc3)c3ccc(Cl)cc3)CC2)cc1 (3D coordinates assigned)
CC(C)Oc1ccc(C(=O)NCC(=O)N2CCN([C@H](c3ccccc3)c3ccc(Cl)cc3)CC2)cc1 (nonaromatic ring conformer: 81.20157047955409 kcal/mol)

>  <smiles>  (24) 
CC(C)Oc1ccc(C(=O)NCC(=O)N2CCN(C(c3ccccc3)c3ccc(Cl)cc3)CC2)cc1

>  <score_type>  (24) 
oracle

>  <origin>  (24) 
adg

>  <m_score__min__energy>  (24) 
-9.2899999999999991

>  <m_primary>  (24) 
energy

$$$$
24:0
     RDKit          3D

 27 28  0  0  0  0  0  0  0  0999 V2000
   55.3735   29.5137   53.7209 H   0  0  0  0  0  0  0  0  0  0  0  0
   55.4670   29.7730   52.6560 C   0  0  0  0  0  0  0  0  0  0  0  0
   56.7800   30.2260   52.1500 C   0  0  0  0  0  0  0  0  0  0  0  0
   57.3910   29.4860   51.3330 O   0  0  0  0  0  0  0  0  0  0  0  0
   57.4040   31.5070   52.5540 C   0  0  0  0  0  0  0  0  0  0  0  0
   57.7240   32.5070   51.6150 C   0  0  0  0  0  0  0  0  0  0  0  0
   57.4490   32.3310   50.2640 O   0  0  0  0  0  0  0  0  0  0  0  0
   58.2910   33.6730   52.0290 N   0  0  0  0  0  0  0  0  0  0  0  0
   58.5530   33.9200   53.3390 C   0  0  0  0  0  0  0  0  0  0  0  0
   59.0820   35.0110   53.6770 O   0  0  0  0  0  0  0  0  0  0  0  0
   58.2280   32.9670   54.3070 C   0  0  0  0  0  0  0  0  0  0  0  0
   58.4291   33.1648   55.3702 H   0  0  0  0  0  0  0  0  0  0  0  0
   57.6460   31.7620   53.9130 C   0  0  0  0  0  0  0  0  0  0  0  0
   57.3761   31.0099   54.6690 H   0  0  0  0  0  0  0  0  0  0  0  0
   54.3850   29.6650   51.8710 C   0  0  0  0  0  0  0  0  0  0  0  0
   54.3626   28.8521   51.1302 H   0  0  0  0  0  0  0  0  0  0  0  0
   53.2170   30.5760   51.9420 C   0  0  0  0  0  0  0  0  0  0  0  0
   52.6520   30.8450   53.2010 C   0  0  0  0  0  0  0  0  0  0  0  0
   53.0767   30.3755   54.1006 H   0  0  0  0  0  0  0  0  0  0  0  0
   51.5550   31.7040   53.3200 C   0  0  0  0  0  0  0  0  0  0  0  0
   51.1157   31.8999   54.3092 H   0  0  0  0  0  0  0  0  0  0  0  0
   51.0160   32.3140   52.1840 C   0  0  0  0  0  0  0  0  0  0  0  0
   49.9250   33.1660   52.3090 O   0  0  0  0  0  0  0  0  0  0  0  0
   51.5780   32.0690   50.9270 C   0  0  0  0  0  0  0  0  0  0  0  0
   51.0530   32.6840   49.7960 O   0  0  0  0  0  0  0  0  0  0  0  0
   52.6750   31.2080   50.8040 C   0  0  0  0  0  0  0  0  0  0  0  0
   53.1168   31.0234   49.8137 H   0  0  0  0  0  0  0  0  0  0  0  0
  1  2  1  0
  2  3  1  0
  3  4  2  0
  3  5  1  0
  5  6  2  0
  6  7  1  0
  6  8  1  0
  8  9  1  0
  9 10  2  0
  9 11  1  0
 11 12  1  0
 11 13  2  0
 13 14  1  0
  2 15  2  0
 15 16  1  0
 15 17  1  0
 17 18  2  0
 18 19  1  0
 18 20  1  0
 20 21  1  0
 20 22  2  0
 22 23  1  0
 22 24  1  0
 24 25  1  0
 24 26  2  0
 26 27  1  0
 13  5  1  0
 26 17  1  0
M  CHG  4   7  -1   8  -1  23  -1  25  -1
M  END
>  <UniqueID>  (25) 
24

>  <SMILES>  (25) 
O=C(/C=C/c1ccc([O-])c([O-])c1)c1ccc(=O)[n-]c1[O-]

>  <Energy>  (25) 
37.89291331738525

>  <Genealogy>  (25) 
O=C(C=Cc1ccc([O-])c([O-])c1)c1ccc(=O)[n-]c1[O-] (protonated)
O=C(/C=C/c1ccc([O-])c([O-])c1)c1ccc(=O)[n-]c1[O-] (cis-trans isomerization)
O=C(/C=C/c1ccc([O-])c([O-])c1)c1ccc(=O)[n-]c1[O-] (3D coordinates assigned)
O=C(/C=C/c1ccc([O-])c([O-])c1)c1ccc(=O)[n-]c1[O-] (optimized conformer: 37.89291331738525 kcal/mol)

>  <smiles>  (25) 
O=C(C=Cc1ccc(O)c(O)c1)c1ccc(=O)[nH]c1O

>  <score_type>  (25) 
oracle

>  <origin>  (25) 
adg

>  <m_score__min__energy>  (25) 
-16.73

>  <m_primary>  (25) 
energy

$$$$
25:0
     RDKit          3D

 53 56  0  0  0  0  0  0  0  0999 V2000
   62.0690   31.6430   50.3970 C   0  0  0  0  0  0  0  0  0  0  0  0
   61.3480   30.9120   49.3000 C   0  0  0  0  0  0  0  0  0  0  0  0
   61.3710   31.2860   47.9560 C   0  0  0  0  0  0  0  0  0  0  0  0
   62.0090   32.4920   47.4040 C   0  0  0  0  0  0  0  0  0  0  0  0
   63.1160   32.3940   46.8120 O   0  0  0  0  0  0  0  0  0  0  0  0
   61.3790   33.8430   47.5980 C   0  0  0  0  0  0  0  0  0  0  0  0
   60.0090   33.8700   46.9710 C   0  0  0  0  0  0  0  0  0  0  0  0
   58.8900   33.4420   47.7040 C   0  0  0  0  0  0  0  0  0  0  0  0
   57.6330   33.3710   47.0940 C   0  0  0  0  0  0  0  0  0  0  0  0
   57.4870   33.7190   45.7480 C   0  0  0  0  0  0  0  0  0  0  0  0
   58.5960   34.1420   45.0110 C   0  0  0  0  0  0  0  0  0  0  0  0
   59.8540   34.2150   45.6160 C   0  0  0  0  0  0  0  0  0  0  0  0
   60.4350   30.4900   47.3300 C   0  0  0  0  0  0  0  0  0  0  0  0
   60.0030   30.4670   46.0040 C   0  0  0  0  0  0  0  0  0  0  0  0
   58.9750   29.5760   45.6470 C   0  0  0  0  0  0  0  0  0  0  0  0
   58.5490   29.5640   44.3090 O   0  0  0  0  0  0  0  0  0  0  0  0
   57.3090   29.0320   43.8430 C   0  0  0  0  0  0  0  0  0  0  0  0
   56.1590   29.6930   44.5360 C   0  0  0  0  0  0  0  0  0  0  0  0
   55.1460   29.0200   44.8640 O   0  0  0  0  0  0  0  0  0  0  0  0
   56.2110   31.0480   44.8370 O   0  0  0  0  0  0  0  0  0  0  0  0
   58.4100   28.7300   46.6370 C   0  0  0  0  0  0  0  0  0  0  0  0
   58.8610   28.7790   47.9670 C   0  0  0  0  0  0  0  0  0  0  0  0
   59.8850   29.6760   48.2890 C   0  0  0  0  0  0  0  0  0  0  0  0
   60.4280   29.9300   49.5020 N   0  0  0  0  0  0  0  0  0  0  0  0
   59.9650   29.4180   50.7980 C   0  0  0  0  0  0  0  0  0  0  0  0
   58.7940   30.2280   51.2950 C   0  0  0  0  0  0  0  0  0  0  0  0
   58.6470   31.5710   50.9090 C   0  0  0  0  0  0  0  0  0  0  0  0
   57.5800   32.3330   51.3940 C   0  0  0  0  0  0  0  0  0  0  0  0
   56.6560   31.7630   52.2730 C   0  0  0  0  0  0  0  0  0  0  0  0
   56.7960   30.4300   52.6670 C   0  0  0  0  0  0  0  0  0  0  0  0
   57.8580   29.6630   52.1790 C   0  0  0  0  0  0  0  0  0  0  0  0
   61.7132   31.2823   51.3734 H   0  0  0  0  0  0  0  0  0  0  0  0
   63.1502   31.4602   50.3104 H   0  0  0  0  0  0  0  0  0  0  0  0
   61.8714   32.7216   50.3104 H   0  0  0  0  0  0  0  0  0  0  0  0
   61.2908   34.0522   48.6743 H   0  0  0  0  0  0  0  0  0  0  0  0
   62.0095   34.6065   47.1189 H   0  0  0  0  0  0  0  0  0  0  0  0
   59.0024   33.1616   48.7617 H   0  0  0  0  0  0  0  0  0  0  0  0
   56.7586   33.0410   47.6741 H   0  0  0  0  0  0  0  0  0  0  0  0
   56.4986   33.6598   45.2689 H   0  0  0  0  0  0  0  0  0  0  0  0
   58.4790   34.4181   43.9527 H   0  0  0  0  0  0  0  0  0  0  0  0
   60.7256   34.5433   45.0307 H   0  0  0  0  0  0  0  0  0  0  0  0
   60.4565   31.1314   45.2537 H   0  0  0  0  0  0  0  0  0  0  0  0
   57.2259   29.2044   42.7598 H   0  0  0  0  0  0  0  0  0  0  0  0
   57.2816   27.9539   44.0598 H   0  0  0  0  0  0  0  0  0  0  0  0
   57.6098   28.0279   46.3598 H   0  0  0  0  0  0  0  0  0  0  0  0
   58.4197   28.1280   48.7360 H   0  0  0  0  0  0  0  0  0  0  0  0
   59.6572   28.3681   50.6840 H   0  0  0  0  0  0  0  0  0  0  0  0
   60.7862   29.4941   51.5259 H   0  0  0  0  0  0  0  0  0  0  0  0
   59.3755   32.0253   50.2214 H   0  0  0  0  0  0  0  0  0  0  0  0
   57.4680   33.3822   51.0832 H   0  0  0  0  0  0  0  0  0  0  0  0
   55.8177   32.3640   52.6551 H   0  0  0  0  0  0  0  0  0  0  0  0
   56.0697   29.9834   53.3620 H   0  0  0  0  0  0  0  0  0  0  0  0
   57.9618   28.6124   52.4881 H   0  0  0  0  0  0  0  0  0  0  0  0
  1  2  1  0
  2  3  2  0
  3  4  1  0
  4  5  2  0
  4  6  1  0
  6  7  1  0
  7  8  2  0
  8  9  1  0
  9 10  2  0
 10 11  1  0
 11 12  2  0
  3 13  1  0
 13 14  2  0
 14 15  1  0
 15 16  1  0
 16 17  1  0
 17 18  1  0
 18 19  2  0
 18 20  1  0
 15 21  2  0
 21 22  1  0
 22 23  2  0
 23 24  1  0
 24 25  1  0
 25 26  1  0
 26 27  2  0
 27 28  1  0
 28 29  2  0
 29 30  1  0
 30 31  2  0
 24  2  1  0
 31 26  1  0
 12  7  1  0
 23 13  1  0
  1 32  1  0
  1 33  1  0
  1 34  1  0
  6 35  1  0
  6 36  1  0
  8 37  1  0
  9 38  1  0
 10 39  1  0
 11 40  1  0
 12 41  1  0
 14 42  1  0
 17 43  1  0
 17 44  1  0
 21 45  1  0
 22 46  1  0
 25 47  1  0
 25 48  1  0
 27 49  1  0
 28 50  1  0
 29 51  1  0
 30 52  1  0
 31 53  1  0
M  CHG  1  20  -1
M  END
>  <UniqueID>  (26) 
25

>  <SMILES>  (26) 
Cc1c(C(=O)Cc2ccccc2)c2cc(OCC(=O)[O-])ccc2n1Cc1ccccc1

>  <Energy>  (26) 
89.05923755196667

>  <Genealogy>  (26) 
Cc1c(C(=O)Cc2ccccc2)c2cc(OCC(=O)[O-])ccc2n1Cc1ccccc1 (protonated)
Cc1c(C(=O)Cc2ccccc2)c2cc(OCC(=O)[O-])ccc2n1Cc1ccccc1 (3D coordinates assigned)
Cc1c(C(=O)Cc2ccccc2)c2cc(OCC(=O)[O-])ccc2n1Cc1ccccc1 (optimized conformer: 89.05923755196667 kcal/mol)

>  <smiles>  (26) 
Cc1c(C(=O)Cc2ccccc2)c2cc(OCC(=O)O)ccc2n1Cc1ccccc1

>  <score_type>  (26) 
oracle

>  <origin>  (26) 
adg

>  <m_score__min__energy>  (26) 
-11.279999999999999

>  <m_primary>  (26) 
energy

$$$$
26:0
     RDKit          3D

 50 53  0  0  0  0  0  0  0  0999 V2000
   59.9780   27.7810   45.5700 C   0  0  0  0  0  0  0  0  0  0  0  0
   58.8300   26.8280   45.7390 C   0  0  0  0  0  0  0  0  0  0  0  0
   59.1060   25.5000   45.8340 N   0  0  0  0  0  0  0  0  0  0  0  0
   58.1400   24.5620   46.0070 C   0  0  0  0  0  0  0  0  0  0  0  0
   58.4690   23.3480   46.0790 O   0  0  0  0  0  0  0  0  0  0  0  0
   56.7900   24.9490   46.1010 C   0  0  0  0  0  0  0  0  0  0  0  0
   55.6990   23.9170   46.2610 C   0  0  0  0  0  0  0  0  0  0  0  0
   55.8090   23.2540   47.5960 C   0  0  0  0  0  0  0  0  0  0  0  0
   54.7380   22.8470   48.3080 N   0  0  0  0  0  0  0  0  0  0  0  0
   55.2720   22.2660   49.3950 C   0  0  0  0  0  0  0  0  0  0  0  0
   56.6490   22.3250   49.3120 C   0  0  0  0  0  0  0  0  0  0  0  0
   57.6340   21.7960   50.2870 C   0  0  0  0  0  0  0  0  0  0  0  0
   58.0710   20.4580   50.2350 C   0  0  0  0  0  0  0  0  0  0  0  0
   59.0000   19.9800   51.1630 C   0  0  0  0  0  0  0  0  0  0  0  0
   59.5030   20.8260   52.1530 C   0  0  0  0  0  0  0  0  0  0  0  0
   59.0780   22.1540   52.2160 C   0  0  0  0  0  0  0  0  0  0  0  0
   58.1500   22.6390   51.2890 C   0  0  0  0  0  0  0  0  0  0  0  0
   56.9920   22.9470   48.1670 N   0  0  0  0  0  0  0  0  0  0  0  0
   56.4710   26.3130   45.9740 C   0  0  0  0  0  0  0  0  0  0  0  0
   55.1370   26.7140   45.9950 O   0  0  0  0  0  0  0  0  0  0  0  0
   57.4900   27.2690   45.8010 C   0  0  0  0  0  0  0  0  0  0  0  0
   57.1460   28.7040   45.6830 C   0  0  0  0  0  0  0  0  0  0  0  0
   56.0690   29.0430   45.1220 O   0  0  0  0  0  0  0  0  0  0  0  0
   58.0390   29.7070   46.1890 N   0  0  0  0  0  0  0  0  0  0  0  0
   57.7900   31.1350   46.0110 C   0  0  0  0  0  0  0  0  0  0  0  0
   59.0320   31.9220   46.3330 C   0  0  0  0  0  0  0  0  0  0  0  0
   60.1490   31.2750   46.8840 C   0  0  0  0  0  0  0  0  0  0  0  0
   61.3170   31.9950   47.1550 C   0  0  0  0  0  0  0  0  0  0  0  0
   61.3790   33.3620   46.8740 C   0  0  0  0  0  0  0  0  0  0  0  0
   62.5130   34.0580   47.1370 F   0  0  0  0  0  0  0  0  0  0  0  0
   60.2710   34.0120   46.3220 C   0  0  0  0  0  0  0  0  0  0  0  0
   59.1020   33.2960   46.0500 C   0  0  0  0  0  0  0  0  0  0  0  0
   60.3481   28.0883   46.5592 H   0  0  0  0  0  0  0  0  0  0  0  0
   60.7871   27.2854   45.0135 H   0  0  0  0  0  0  0  0  0  0  0  0
   59.6398   28.6675   45.0135 H   0  0  0  0  0  0  0  0  0  0  0  0
   54.7185   24.4088   46.1790 H   0  0  0  0  0  0  0  0  0  0  0  0
   55.8045   23.1572   45.4726 H   0  0  0  0  0  0  0  0  0  0  0  0
   54.7024   21.8146   50.2207 H   0  0  0  0  0  0  0  0  0  0  0  0
   57.6784   19.7848   49.4587 H   0  0  0  0  0  0  0  0  0  0  0  0
   59.3360   18.9338   51.1133 H   0  0  0  0  0  0  0  0  0  0  0  0
   60.2335   20.4464   52.8826 H   0  0  0  0  0  0  0  0  0  0  0  0
   59.4738   22.8205   52.9964 H   0  0  0  0  0  0  0  0  0  0  0  0
   57.8209   23.6872   51.3434 H   0  0  0  0  0  0  0  0  0  0  0  0
   58.9380   29.4160   46.6350 H   0  0  0  0  0  0  0  0  0  0  0  0
   57.4988   31.3260   44.9676 H   0  0  0  0  0  0  0  0  0  0  0  0
   56.9815   31.4461   46.6888 H   0  0  0  0  0  0  0  0  0  0  0  0
   60.1056   30.1980   47.1034 H   0  0  0  0  0  0  0  0  0  0  0  0
   62.1884   31.4839   47.5902 H   0  0  0  0  0  0  0  0  0  0  0  0
   60.3195   35.0886   46.1015 H   0  0  0  0  0  0  0  0  0  0  0  0
   58.2336   33.8104   45.6127 H   0  0  0  0  0  0  0  0  0  0  0  0
  1  2  1  0
  2  3  1  0
  3  4  1  0
  4  5  2  0
  4  6  1  0
  6  7  1  0
  7  8  1  0
  8  9  2  0
  9 10  1  0
 10 11  2  0
 11 12  1  0
 12 13  2  0
 13 14  1  0
 14 15  2  0
 15 16  1  0
 16 17  2  0
 11 18  1  0
  6 19  2  0
 19 20  1  0
 19 21  1  0
 21 22  1  0
 22 23  2  0
 22 24  1  0
 24 25  1  0
 25 26  1  0
 26 27  2  0
 27 28  1  0
 28 29  2  0
 29 30  1  0
 29 31  1  0
 31 32  2  0
 21  2  2  0
 32 26  1  0
 18  8  1  0
 17 12  1  0
  1 33  1  0
  1 34  1  0
  1 35  1  0
  7 36  1  0
  7 37  1  0
 10 38  1  0
 13 39  1  0
 14 40  1  0
 15 41  1  0
 16 42  1  0
 17 43  1  0
 24 44  1  0
 25 45  1  0
 25 46  1  0
 27 47  1  0
 28 48  1  0
 31 49  1  0
 32 50  1  0
M  CHG  3   3  -1  18  -1  20  -1
M  END
>  <UniqueID>  (27) 
26

>  <SMILES>  (27) 
Cc1[n-]c(=O)c(Cc2ncc(-c3ccccc3)[n-]2)c([O-])c1C(=O)NCc1ccc(F)cc1

>  <Energy>  (27) 
87.10257087409242

>  <Genealogy>  (27) 
Cc1[n-]c(=O)c(Cc2ncc(-c3ccccc3)[n-]2)c([O-])c1C(=O)NCc1ccc(F)cc1 (protonated)
Cc1[n-]c(=O)c(Cc2ncc(-c3ccccc3)[n-]2)c([O-])c1C(=O)NCc1ccc(F)cc1 (3D coordinates assigned)
Cc1[n-]c(=O)c(Cc2ncc(-c3ccccc3)[n-]2)c([O-])c1C(=O)NCc1ccc(F)cc1 (optimized conformer: 87.10257087409242 kcal/mol)

>  <smiles>  (27) 
Cc1[nH]c(=O)c(Cc2ncc(-c3ccccc3)[nH]2)c(O)c1C(=O)NCc1ccc(F)cc1

>  <score_type>  (27) 
oracle

>  <origin>  (27) 
adg

>  <m_score__min__energy>  (27) 
-13.76

>  <m_primary>  (27) 
energy

$$$$
27:0
     RDKit          3D

 46 48  0  0  0  0  0  0  0  0999 V2000
   56.0720   28.6180   44.9670 N   0  0  0  0  0  0  0  0  0  0  0  0
   56.1550   29.8780   44.3000 C   0  0  0  0  0  0  0  0  0  0  0  0
   55.1040   30.4090   43.8510 O   0  0  0  0  0  0  0  0  0  0  0  0
   57.4510   30.5840   44.1710 C   0  0  0  0  0  0  0  0  0  0  0  0
   57.4530   32.0650   43.9140 C   0  0  0  0  0  0  0  0  0  0  0  0
   58.0290   32.8030   45.0920 C   0  0  0  0  0  0  0  0  0  0  0  0
   57.7720   32.3570   46.4000 C   0  0  0  0  0  0  0  0  0  0  0  0
   58.2800   33.0610   47.4960 C   0  0  0  0  0  0  0  0  0  0  0  0
   59.0450   34.2130   47.2950 C   0  0  0  0  0  0  0  0  0  0  0  0
   59.3000   34.6650   45.9970 C   0  0  0  0  0  0  0  0  0  0  0  0
   58.7890   33.9670   44.8990 C   0  0  0  0  0  0  0  0  0  0  0  0
   58.5940   29.9510   44.1430 N   0  0  0  0  0  0  0  0  0  0  0  0
   58.8100   28.5350   44.2350 C   0  0  0  0  0  0  0  0  0  0  0  0
   58.0510   27.7200   43.6430 O   0  0  0  0  0  0  0  0  0  0  0  0
   59.9250   28.0110   45.0830 C   0  0  0  0  0  0  0  0  0  0  0  0
   59.8790   28.6540   46.4520 C   0  0  0  0  0  0  0  0  0  0  0  0
   60.6430   29.8180   46.6530 C   0  0  0  0  0  0  0  0  0  0  0  0
   60.5560   30.5360   47.8460 C   0  0  0  0  0  0  0  0  0  0  0  0
   59.6920   30.1130   48.8520 C   0  0  0  0  0  0  0  0  0  0  0  0
   58.9190   28.9680   48.6740 C   0  0  0  0  0  0  0  0  0  0  0  0
   59.0040   28.2170   47.4870 C   0  0  0  0  0  0  0  0  0  0  0  0
   58.1720   26.9980   47.3890 C   0  0  0  0  0  0  0  0  0  0  0  0
   58.5700   25.9400   47.9480 O   0  0  0  0  0  0  0  0  0  0  0  0
   56.9660   27.0120   46.6090 N   0  0  0  0  0  0  0  0  0  0  0  0
   56.2350   25.9940   46.2600 C   0  0  0  0  0  0  0  0  0  0  0  0
   54.9220   26.1220   45.9780 N   0  0  0  0  0  0  0  0  0  0  0  0
   54.3640   24.9360   45.6180 C   0  0  0  0  0  0  0  0  0  0  0  0
   55.2340   23.8500   45.6050 C   0  0  0  0  0  0  0  0  0  0  0  0
   56.7570   24.4010   46.0590 S   0  0  0  0  0  0  0  0  0  0  0  0
   56.9320   28.1170   45.2830 H   0  0  0  0  0  0  0  0  0  0  0  0
   55.1460   28.1560   45.1010 H   0  0  0  0  0  0  0  0  0  0  0  0
   58.0605   32.2768   43.0218 H   0  0  0  0  0  0  0  0  0  0  0  0
   56.4174   32.4002   43.7557 H   0  0  0  0  0  0  0  0  0  0  0  0
   57.1693   31.4512   46.5618 H   0  0  0  0  0  0  0  0  0  0  0  0
   58.0772   32.7076   48.5178 H   0  0  0  0  0  0  0  0  0  0  0  0
   59.4465   34.7641   48.1581 H   0  0  0  0  0  0  0  0  0  0  0  0
   59.9035   35.5711   45.8395 H   0  0  0  0  0  0  0  0  0  0  0  0
   58.9833   34.3315   43.8795 H   0  0  0  0  0  0  0  0  0  0  0  0
   59.8212   26.9210   45.1886 H   0  0  0  0  0  0  0  0  0  0  0  0
   60.8861   28.2491   44.6039 H   0  0  0  0  0  0  0  0  0  0  0  0
   61.3186   30.1670   45.8582 H   0  0  0  0  0  0  0  0  0  0  0  0
   61.1704   31.4367   47.9917 H   0  0  0  0  0  0  0  0  0  0  0  0
   59.6195   30.6840   49.7894 H   0  0  0  0  0  0  0  0  0  0  0  0
   58.2332   28.6466   49.4717 H   0  0  0  0  0  0  0  0  0  0  0  0
   53.3000   24.8414   45.3555 H   0  0  0  0  0  0  0  0  0  0  0  0
   54.9720   22.8141   45.3439 H   0  0  0  0  0  0  0  0  0  0  0  0
  1  2  1  0
  2  3  2  0
  2  4  1  0
  4  5  1  0
  5  6  1  0
  6  7  2  0
  7  8  1  0
  8  9  2  0
  9 10  1  0
 10 11  2  0
  4 12  2  3
 12 13  1  0
 13 14  2  0
 13 15  1  0
 15 16  1  0
 16 17  2  0
 17 18  1  0
 18 19  2  0
 19 20  1  0
 20 21  2  0
 21 22  1  0
 22 23  2  0
 22 24  1  0
 24 25  2  3
 25 26  1  0
 26 27  1  0
 27 28  2  0
 28 29  1  0
 11  6  1  0
 21 16  1  0
 29 25  1  0
  1 30  1  0
  1 31  1  0
  5 32  1  0
  5 33  1  0
  7 34  1  0
  8 35  1  0
  9 36  1  0
 10 37  1  0
 11 38  1  0
 15 39  1  0
 15 40  1  0
 17 41  1  0
 18 42  1  0
 19 43  1  0
 20 44  1  0
 27 45  1  0
 28 46  1  0
M  CHG  1  26  -1
M  END
>  <UniqueID>  (28) 
27

>  <SMILES>  (28) 
NC(=O)C(Cc1ccccc1)=NC(=O)Cc1ccccc1C(=O)N=c1[n-]ccs1

>  <Energy>  (28) 
90.32561374830291

>  <Genealogy>  (28) 
NC(=O)C(Cc1ccccc1)=NC(=O)Cc1ccccc1C(=O)N=c1[n-]ccs1 (protonated)
NC(=O)C(Cc1ccccc1)=NC(=O)Cc1ccccc1C(=O)N=c1[n-]ccs1 (3D coordinates assigned)
NC(=O)C(Cc1ccccc1)=NC(=O)Cc1ccccc1C(=O)N=c1[n-]ccs1 (optimized conformer: 90.32561374830291 kcal/mol)

>  <smiles>  (28) 
NC(=O)C(Cc1ccccc1)=NC(=O)Cc1ccccc1C(=O)N=c1[nH]ccs1

>  <score_type>  (28) 
oracle

>  <origin>  (28) 
adg

>  <m_score__min__energy>  (28) 
-10.99

>  <m_primary>  (28) 
energy

$$$$
28:0
     RDKit          3D

 62 65  0  0  0  0  0  0  0  0999 V2000
   56.7690   33.6550   45.9300 O   0  0  0  0  0  0  0  0  0  0  0  0
   57.8830   33.8140   45.3620 C   0  0  0  0  0  0  0  0  0  0  0  0
   58.1530   33.1370   44.0570 C   0  0  0  0  0  0  0  0  0  0  0  0
   57.9180   31.6580   44.1900 C   0  0  0  0  0  0  0  0  0  0  0  0
   57.0210   31.0010   43.3340 C   0  0  0  0  0  0  0  0  0  0  0  0
   56.7740   29.6340   43.4870 C   0  0  0  0  0  0  0  0  0  0  0  0
   57.4130   28.9020   44.5000 C   0  0  0  0  0  0  0  0  0  0  0  0
   57.1430   27.4940   44.6220 N   0  0  0  0  0  0  0  0  0  0  0  0
   57.2360   26.6130   46.1150 S   0  0  0  0  0  0  0  0  0  0  0  0
   55.8930   26.0040   46.4010 O   0  0  0  0  0  0  0  0  0  0  0  0
   57.5900   27.5460   47.2380 O   0  0  0  0  0  0  0  0  0  0  0  0
   58.4470   25.3010   46.0000 C   0  0  0  0  0  0  0  0  0  0  0  0
   57.9730   24.2250   45.0610 C   0  0  0  0  0  0  0  0  0  0  0  0
   58.4910   22.9230   45.1590 C   0  0  0  0  0  0  0  0  0  0  0  0
   58.0220   21.9140   44.3120 C   0  0  0  0  0  0  0  0  0  0  0  0
   57.0330   22.1960   43.3660 C   0  0  0  0  0  0  0  0  0  0  0  0
   56.5110   23.4880   43.2640 C   0  0  0  0  0  0  0  0  0  0  0  0
   56.9770   24.5000   44.1080 C   0  0  0  0  0  0  0  0  0  0  0  0
   58.2910   29.5680   45.3730 C   0  0  0  0  0  0  0  0  0  0  0  0
   58.5420   30.9350   45.2180 C   0  0  0  0  0  0  0  0  0  0  0  0
   58.8930   34.6410   45.9510 N   0  0  0  0  0  0  0  0  0  0  0  0
   59.7900   34.2530   47.0010 C   0  0  0  0  0  0  0  0  0  0  0  0
   61.1800   34.1880   46.8000 C   0  0  0  0  0  0  0  0  0  0  0  0
   62.0260   33.8370   47.8560 C   0  0  0  0  0  0  0  0  0  0  0  0
   61.4960   33.5590   49.1180 C   0  0  0  0  0  0  0  0  0  0  0  0
   60.1130   33.6440   49.3350 C   0  0  0  0  0  0  0  0  0  0  0  0
   59.4260   33.2830   50.9160 S   0  0  0  0  0  0  0  0  0  0  0  0
   60.4660   32.6530   51.8020 O   0  0  0  0  0  0  0  0  0  0  0  0
   58.9710   34.5690   51.5490 O   0  0  0  0  0  0  0  0  0  0  0  0
   58.0680   32.2000   50.7270 N   0  0  0  0  0  0  0  0  0  0  0  0
   58.5090   30.8660   50.2590 C   0  0  0  0  0  0  0  0  0  0  0  0
   58.4300   29.8050   51.3700 C   0  0  0  0  0  0  0  0  0  0  0  0
   57.1220   29.6600   51.9010 O   0  0  0  0  0  0  0  0  0  0  0  0
   56.4110   30.8870   52.0190 C   0  0  0  0  0  0  0  0  0  0  0  0
   57.2960   32.1460   51.9820 C   0  0  0  0  0  0  0  0  0  0  0  0
   59.2670   33.9970   48.2750 C   0  0  0  0  0  0  0  0  0  0  0  0
   57.4807   33.5455   43.2881 H   0  0  0  0  0  0  0  0  0  0  0  0
   59.1994   33.3130   43.7672 H   0  0  0  0  0  0  0  0  0  0  0  0
   56.5101   31.5643   42.5392 H   0  0  0  0  0  0  0  0  0  0  0  0
   56.0727   29.1273   42.8077 H   0  0  0  0  0  0  0  0  0  0  0  0
   57.0150   26.9290   43.7530 H   0  0  0  0  0  0  0  0  0  0  0  0
   59.3949   25.7154   45.6262 H   0  0  0  0  0  0  0  0  0  0  0  0
   58.5914   24.8626   46.9985 H   0  0  0  0  0  0  0  0  0  0  0  0
   59.2678   22.6965   45.9042 H   0  0  0  0  0  0  0  0  0  0  0  0
   58.4324   20.8964   44.3906 H   0  0  0  0  0  0  0  0  0  0  0  0
   56.6652   21.4004   42.7013 H   0  0  0  0  0  0  0  0  0  0  0  0
   55.7326   23.7089   42.5188 H   0  0  0  0  0  0  0  0  0  0  0  0
   56.5627   25.5157   44.0261 H   0  0  0  0  0  0  0  0  0  0  0  0
   58.7837   29.0103   46.1831 H   0  0  0  0  0  0  0  0  0  0  0  0
   59.2321   31.4460   45.9054 H   0  0  0  0  0  0  0  0  0  0  0  0
   61.6026   34.4138   45.8098 H   0  0  0  0  0  0  0  0  0  0  0  0
   63.1123   33.7796   47.6926 H   0  0  0  0  0  0  0  0  0  0  0  0
   62.1646   33.2728   49.9433 H   0  0  0  0  0  0  0  0  0  0  0  0
   57.8652   30.5529   49.4238 H   0  0  0  0  0  0  0  0  0  0  0  0
   59.5600   30.9487   49.9452 H   0  0  0  0  0  0  0  0  0  0  0  0
   58.7501   28.8377   50.9554 H   0  0  0  0  0  0  0  0  0  0  0  0
   59.0851   30.1349   52.1897 H   0  0  0  0  0  0  0  0  0  0  0  0
   55.6921   30.9483   51.1887 H   0  0  0  0  0  0  0  0  0  0  0  0
   55.9282   30.8740   53.0073 H   0  0  0  0  0  0  0  0  0  0  0  0
   56.6576   33.0390   52.0526 H   0  0  0  0  0  0  0  0  0  0  0  0
   57.9972   32.1120   52.8289 H   0  0  0  0  0  0  0  0  0  0  0  0
   58.1829   34.0737   48.4449 H   0  0  0  0  0  0  0  0  0  0  0  0
  1  2  2  0
  2  3  1  0
  3  4  1  0
  4  5  2  0
  5  6  1  0
  6  7  2  0
  7  8  1  0
  8  9  1  0
  9 10  2  0
  9 11  2  0
  9 12  1  0
 12 13  1  0
 13 14  2  0
 14 15  1  0
 15 16  2  0
 16 17  1  0
 17 18  2  0
  7 19  1  0
 19 20  2  0
  2 21  1  0
 21 22  1  0
 22 23  2  0
 23 24  1  0
 24 25  2  0
 25 26  1  0
 26 27  1  0
 27 28  2  0
 27 29  2  0
 27 30  1  0
 30 31  1  0
 31 32  1  0
 32 33  1  0
 33 34  1  0
 34 35  1  0
 26 36  2  0
 20  4  1  0
 36 22  1  0
 18 13  1  0
 35 30  1  0
  3 37  1  0
  3 38  1  0
  5 39  1  0
  6 40  1  0
  8 41  1  0
 12 42  1  0
 12 43  1  0
 14 44  1  0
 15 45  1  0
 16 46  1  0
 17 47  1  0
 18 48  1  0
 19 49  1  0
 20 50  1  0
 23 51  1  0
 24 52  1  0
 25 53  1  0
 31 54  1  0
 31 55  1  0
 32 56  1  0
 32 57  1  0
 34 58  1  0
 34 59  1  0
 35 60  1  0
 35 61  1  0
 36 62  1  0
M  CHG  1  21  -1
M  END
>  <UniqueID>  (29) 
28

>  <SMILES>  (29) 
O=C(Cc1ccc(NS(=O)(=O)Cc2ccccc2)cc1)[N-]c1cccc(S(=O)(=O)N2CCOCC2)c1

>  <Energy>  (29) 
75.71346403442706

>  <Genealogy>  (29) 
O=C(Cc1ccc(NS(=O)(=O)Cc2ccccc2)cc1)[N-]c1cccc(S(=O)(=O)N2CCOCC2)c1 (protonated)
O=C(Cc1ccc(NS(=O)(=O)Cc2ccccc2)cc1)[N-]c1cccc(S(=O)(=O)N2CCOCC2)c1 (3D coordinates assigned)
O=C(Cc1ccc(NS(=O)(=O)Cc2ccccc2)cc1)[N-]c1cccc(S(=O)(=O)N2CCOCC2)c1 (nonaromatic ring conformer: 75.71346403442706 kcal/mol)

>  <smiles>  (29) 
O=C(Cc1ccc(NS(=O)(=O)Cc2ccccc2)cc1)Nc1cccc(S(=O)(=O)N2CCOCC2)c1

>  <score_type>  (29) 
oracle

>  <origin>  (29) 
adg

>  <m_score__min__energy>  (29) 
-12.68

>  <m_primary>  (29) 
energy

$$$$
29:0
     RDKit          3D

 55 59  0  0  0  0  0  0  0  0999 V2000
   55.1870   30.0910   45.6440 H   0  0  0  0  0  0  0  0  0  0  0  0
   55.2090   29.1940   45.1750 O   0  0  0  0  0  0  0  0  0  0  0  0
   56.3350   28.3720   45.2230 C   0  0  0  0  0  0  0  0  0  0  0  0
   56.2470   27.0820   45.7630 C   0  0  0  0  0  0  0  0  0  0  0  0
   55.2838   26.7164   46.1485 H   0  0  0  0  0  0  0  0  0  0  0  0
   57.3790   26.2520   45.8160 C   0  0  0  0  0  0  0  0  0  0  0  0
   57.2560   24.8510   46.3570 C   0  0  0  0  0  0  0  0  0  0  0  0
   58.1430   24.6166   46.9639 H   0  0  0  0  0  0  0  0  0  0  0  0
   56.3491   24.7834   46.9759 H   0  0  0  0  0  0  0  0  0  0  0  0
   57.1530   23.8640   45.2250 C   0  0  0  0  0  0  0  0  0  0  0  0
   57.9950   22.7400   45.1820 C   0  0  0  0  0  0  0  0  0  0  0  0
   58.7133   22.5625   45.9960 H   0  0  0  0  0  0  0  0  0  0  0  0
   57.9240   21.8460   44.1090 C   0  0  0  0  0  0  0  0  0  0  0  0
   58.5806   20.9638   44.0846 H   0  0  0  0  0  0  0  0  0  0  0  0
   57.0200   22.0720   43.0680 C   0  0  0  0  0  0  0  0  0  0  0  0
   56.9647   21.3677   42.2249 H   0  0  0  0  0  0  0  0  0  0  0  0
   56.1860   23.1930   43.0980 C   0  0  0  0  0  0  0  0  0  0  0  0
   55.4752   23.3703   42.2774 H   0  0  0  0  0  0  0  0  0  0  0  0
   56.2530   24.0890   44.1680 C   0  0  0  0  0  0  0  0  0  0  0  0
   55.5994   24.9736   44.1837 H   0  0  0  0  0  0  0  0  0  0  0  0
   58.6030   26.7240   45.3090 C   0  0  0  0  0  0  0  0  0  0  0  0
   59.7120   25.9410   45.3310 F   0  0  0  0  0  0  0  0  0  0  0  0
   58.6910   28.0110   44.7700 C   0  0  0  0  0  0  0  0  0  0  0  0
   59.6518   28.3756   44.3778 H   0  0  0  0  0  0  0  0  0  0  0  0
   57.5620   28.8380   44.7270 C   0  0  0  0  0  0  0  0  0  0  0  0
   57.6640   30.1610   44.1650 N   0  0  0  0  0  0  0  0  0  0  0  0
   57.1440   30.3810   42.9120 C   0  0  0  0  0  0  0  0  0  0  0  0
   56.6000   29.4410   42.2690 O   0  0  0  0  0  0  0  0  0  0  0  0
   57.2060   31.6470   42.3290 C   0  0  0  0  0  0  0  0  0  0  0  0
   56.7885   31.8121   41.3248 H   0  0  0  0  0  0  0  0  0  0  0  0
   57.7960   32.6990   43.0190 C   0  0  0  0  0  0  0  0  0  0  0  0
   57.8435   33.6991   42.5634 H   0  0  0  0  0  0  0  0  0  0  0  0
   58.3290   32.4840   44.2930 C   0  0  0  0  0  0  0  0  0  0  0  0
   58.9250   33.5410   44.9980 C   0  0  0  0  0  0  0  0  0  0  0  0
   58.9724   34.5426   44.5458 H   0  0  0  0  0  0  0  0  0  0  0  0
   59.4590   33.3270   46.2730 C   0  0  0  0  0  0  0  0  0  0  0  0
   60.1860   34.6580   47.1690 S   0  0  0  0  0  0  0  0  0  0  0  0
   61.6780   34.4830   47.1680 O   0  0  0  0  0  0  0  0  0  0  0  0
   59.8500   35.9770   46.5320 O   0  0  0  0  0  0  0  0  0  0  0  0
   59.6160   34.6570   48.8120 N   0  0  0  0  0  0  0  0  0  0  0  0
   60.0060   33.8630   49.7670 C   0  0  0  0  0  0  0  0  0  0  0  0
   59.3180   33.8760   50.9410 N   0  0  0  0  0  0  0  0  0  0  0  0
   59.6620   33.0900   51.9960 C   0  0  0  0  0  0  0  0  0  0  0  0
   59.0758   33.1302   52.9259 H   0  0  0  0  0  0  0  0  0  0  0  0
   60.7590   32.2320   51.8990 C   0  0  0  0  0  0  0  0  0  0  0  0
   61.1100   31.4480   52.9470 F   0  0  0  0  0  0  0  0  0  0  0  0
   61.4860   32.1880   50.7100 C   0  0  0  0  0  0  0  0  0  0  0  0
   62.3508   31.5145   50.6180 H   0  0  0  0  0  0  0  0  0  0  0  0
   61.1150   33.0000   49.6360 C   0  0  0  0  0  0  0  0  0  0  0  0
   61.6831   32.9672   48.6947 H   0  0  0  0  0  0  0  0  0  0  0  0
   59.4090   32.0500   46.8410 C   0  0  0  0  0  0  0  0  0  0  0  0
   59.8384   31.8790   47.8392 H   0  0  0  0  0  0  0  0  0  0  0  0
   58.8180   30.9910   46.1500 C   0  0  0  0  0  0  0  0  0  0  0  0
   58.7854   29.9922   46.6097 H   0  0  0  0  0  0  0  0  0  0  0  0
   58.2610   31.1880   44.8660 C   0  0  0  0  0  0  0  0  0  0  0  0
  1  2  1  0
  2  3  1  0
  3  4  2  0
  4  5  1  0
  4  6  1  0
  6  7  1  0
  7  8  1  0
  7  9  1  0
  7 10  1  0
 10 11  2  0
 11 12  1  0
 11 13  1  0
 13 14  1  0
 13 15  2  0
 15 16  1  0
 15 17  1  0
 17 18  1  0
 17 19  2  0
 19 20  1  0
  6 21  2  0
 21 22  1  0
 21 23  1  0
 23 24  1  0
 23 25  2  0
 25 26  1  0
 26 27  1  0
 27 28  2  0
 27 29  1  0
 29 30  1  0
 29 31  2  0
 31 32  1  0
 31 33  1  0
 33 34  2  0
 34 35  1  0
 34 36  1  0
 36 37  1  0
 37 38  2  0
 37 39  2  0
 37 40  1  0
 40 41  2  0
 41 42  1  0
 42 43  1  0
 43 44  1  0
 43 45  2  0
 45 46  1  0
 45 47  1  0
 47 48  1  0
 47 49  2  0
 49 50  1  0
 36 51  2  0
 51 52  1  0
 51 53  1  0
 53 54  1  0
 53 55  2  0
 25  3  1  0
 55 26  1  0
 19 10  1  0
 55 33  1  0
 49 41  1  0
M  CHG  1  42  -1
M  END
>  <UniqueID>  (30) 
29

>  <SMILES>  (30) 
O=c1ccc2cc(S(=O)(=O)/N=c3\ccc(F)c[n-]3)ccc2n1-c1cc(F)c(Cc2ccccc2)cc1O

>  <Energy>  (30) 
81.97141082323303

>  <Genealogy>  (30) 
O=c1ccc2cc(S(=O)(=O)N=c3ccc(F)c[n-]3)ccc2n1-c1cc(F)c(Cc2ccccc2)cc1O (protonated)
O=c1ccc2cc(S(=O)(=O)/N=c3\ccc(F)c[n-]3)ccc2n1-c1cc(F)c(Cc2ccccc2)cc1O (cis-trans isomerization)
O=c1ccc2cc(S(=O)(=O)/N=c3\ccc(F)c[n-]3)ccc2n1-c1cc(F)c(Cc2ccccc2)cc1O (3D coordinates assigned)
O=c1ccc2cc(S(=O)(=O)/N=c3\ccc(F)c[n-]3)ccc2n1-c1cc(F)c(Cc2ccccc2)cc1O (optimized conformer: 81.97141082323303 kcal/mol)

>  <smiles>  (30) 
O=c1ccc2cc(S(=O)(=O)N=c3ccc(F)c[nH]3)ccc2n1-c1cc(F)c(Cc2ccccc2)cc1O

>  <score_type>  (30) 
oracle

>  <origin>  (30) 
adg

>  <m_score__min__energy>  (30) 
-11.94

>  <m_primary>  (30) 
energy

$$$$
30:0
     RDKit          3D

 42 45  0  0  0  0  0  0  0  0999 V2000
   54.7690   27.4640   46.4170 H   0  0  0  0  0  0  0  0  0  0  0  0
   54.8550   26.5780   45.9340 O   0  0  0  0  0  0  0  0  0  0  0  0
   55.8370   25.6510   46.2750 C   0  0  0  0  0  0  0  0  0  0  0  0
   55.5950   24.5700   47.0330 N   0  0  0  0  0  0  0  0  0  0  0  0
   56.8170   24.0130   47.1620 C   0  0  0  0  0  0  0  0  0  0  0  0
   57.0170   22.9610   47.8230 O   0  0  0  0  0  0  0  0  0  0  0  0
   57.8120   24.6760   46.5330 N   0  0  0  0  0  0  0  0  0  0  0  0
   57.1780   25.7090   45.9510 C   0  0  0  0  0  0  0  0  0  0  0  0
   57.8740   26.7420   45.1650 C   0  0  0  0  0  0  0  0  0  0  0  0
   58.0936   26.5313   44.1079 H   0  0  0  0  0  0  0  0  0  0  0  0
   58.2560   27.9300   45.6700 C   0  0  0  0  0  0  0  0  0  0  0  0
   57.7450   29.1740   45.3270 C   0  0  0  0  0  0  0  0  0  0  0  0
   56.9345   29.3780   44.6118 H   0  0  0  0  0  0  0  0  0  0  0  0
   58.4550   30.1070   46.0610 C   0  0  0  0  0  0  0  0  0  0  0  0
   58.2380   31.5650   46.0450 C   0  0  0  0  0  0  0  0  0  0  0  0
   57.2500   32.0310   45.4140 O   0  0  0  0  0  0  0  0  0  0  0  0
   59.1460   32.4640   46.7070 N   0  0  0  0  0  0  0  0  0  0  0  0
   60.5860   32.3140   46.4700 C   0  0  0  0  0  0  0  0  0  0  0  0
   60.8290   32.7386   45.4848 H   0  0  0  0  0  0  0  0  0  0  0  0
   60.8256   31.2413   46.5137 H   0  0  0  0  0  0  0  0  0  0  0  0
   61.4130   33.0170   47.5200 C   0  0  0  0  0  0  0  0  0  0  0  0
   62.8070   32.8450   47.5090 C   0  0  0  0  0  0  0  0  0  0  0  0
   63.2708   32.1888   46.7578 H   0  0  0  0  0  0  0  0  0  0  0  0
   63.6080   33.5020   48.4460 C   0  0  0  0  0  0  0  0  0  0  0  0
   64.6987   33.3600   48.4317 H   0  0  0  0  0  0  0  0  0  0  0  0
   63.0270   34.3380   49.4000 C   0  0  0  0  0  0  0  0  0  0  0  0
   63.6602   34.8515   50.1385 H   0  0  0  0  0  0  0  0  0  0  0  0
   61.6430   34.5240   49.4190 C   0  0  0  0  0  0  0  0  0  0  0  0
   61.1893   35.1757   50.1803 H   0  0  0  0  0  0  0  0  0  0  0  0
   60.8270   33.8840   48.4720 C   0  0  0  0  0  0  0  0  0  0  0  0
   59.3320   34.0570   48.5540 C   0  0  0  0  0  0  0  0  0  0  0  0
   59.1078   35.0971   48.8331 H   0  0  0  0  0  0  0  0  0  0  0  0
   58.9454   33.3558   49.3082 H   0  0  0  0  0  0  0  0  0  0  0  0
   58.6560   33.7450   47.2210 C   0  0  0  0  0  0  0  0  0  0  0  0
   58.8873   34.5415   46.4984 H   0  0  0  0  0  0  0  0  0  0  0  0
   57.5677   33.6857   47.3695 H   0  0  0  0  0  0  0  0  0  0  0  0
   59.3690   29.4930   46.8390 N   0  0  0  0  0  0  0  0  0  0  0  0
   60.0350   29.9600   47.4970 H   0  0  0  0  0  0  0  0  0  0  0  0
   59.2650   28.1700   46.6040 C   0  0  0  0  0  0  0  0  0  0  0  0
   60.0360   27.2650   47.2160 C   0  0  0  0  0  0  0  0  0  0  0  0
   59.9133   26.1954   46.9906 H   0  0  0  0  0  0  0  0  0  0  0  0
   60.7930   27.5901   47.9449 H   0  0  0  0  0  0  0  0  0  0  0  0
  1  2  1  0
  2  3  1  0
  3  4  1  0
  4  5  1  0
  5  6  2  0
  5  7  1  0
  7  8  1  0
  8  9  1  0
  9 10  1  0
  9 11  2  0
 11 12  1  0
 12 13  1  0
 12 14  2  0
 14 15  1  0
 15 16  2  0
 15 17  1  0
 17 18  1  0
 18 19  1  0
 18 20  1  0
 18 21  1  0
 21 22  2  0
 22 23  1  0
 22 24  1  0
 24 25  1  0
 24 26  2  0
 26 27  1  0
 26 28  1  0
 28 29  1  0
 28 30  2  0
 30 31  1  0
 31 32  1  0
 31 33  1  0
 31 34  1  0
 34 35  1  0
 34 36  1  0
 14 37  1  0
 37 38  1  0
 37 39  1  0
 39 40  2  0
 40 41  1  0
 40 42  1  0
  8  3  2  0
 39 11  1  0
 34 17  1  0
 30 21  1  0
M  CHG  2   4  -1   7  -1
M  END
>  <UniqueID>  (31) 
30

>  <SMILES>  (31) 
C=c1[nH]c(C(=O)N2CCc3ccccc3C2)c/c1=C\c1[n-]c(=O)[n-]c1O

>  <Energy>  (31) 
112.70935752726203

>  <Genealogy>  (31) 
C=c1[nH]c(C(=O)N2CCc3ccccc3C2)cc1=Cc1[n-]c(=O)[n-]c1O (protonated)
C=c1[nH]c(C(=O)N2CCc3ccccc3C2)c/c1=C\c1[n-]c(=O)[n-]c1O (cis-trans isomerization)
C=c1[nH]c(C(=O)N2CCc3ccccc3C2)c/c1=C\c1[n-]c(=O)[n-]c1O (3D coordinates assigned)
C=c1[nH]c(C(=O)N2CCc3ccccc3C2)c/c1=C\c1[n-]c(=O)[n-]c1O (nonaromatic ring conformer: 112.70935752726203 kcal/mol)

>  <smiles>  (31) 
C=c1[nH]c(C(=O)N2CCc3ccccc3C2)cc1=Cc1[nH]c(=O)[nH]c1O

>  <score_type>  (31) 
oracle

>  <origin>  (31) 
adg

>  <m_score__min__energy>  (31) 
-13.609999999999999

>  <m_primary>  (31) 
energy

$$$$
31:0
     RDKit          3D

 36 38  0  0  1  0  0  0  0  0999 V2000
   58.5000   25.6330   45.2280 C   0  0  0  0  0  0  0  0  0  0  0  0
   58.2930   26.9420   45.1770 C   0  0  0  0  0  0  0  0  0  0  0  0
   59.3520   27.8890   45.1350 N   0  0  0  0  0  0  0  0  0  0  0  0
   59.1090   29.1690   45.0860 C   0  0  0  0  0  0  0  0  0  0  0  0
   57.7820   29.7400   45.0670 C   0  0  0  0  0  0  0  0  0  0  0  0
   57.4490   31.1400   45.0180 C   0  0  0  0  0  0  0  0  0  0  0  0
   56.2220   31.4200   44.7540 O   0  0  0  0  0  0  0  0  0  0  0  0
   58.2970   32.2510   45.2230 N   0  0  0  0  0  0  0  0  0  0  0  0
   58.2940   33.5730   44.6430 C   0  0  0  0  0  0  0  0  0  0  0  0
   59.4760   34.2770   45.2570 C   0  0  0  0  0  0  0  0  0  0  0  0
   59.6870   33.5950   46.5590 C   0  0  2  0  0  0  0  0  0  0  0  0
   58.8130   34.0970   47.6660 C   0  0  0  0  0  0  0  0  0  0  0  0
   59.7060   34.0150   48.9100 C   0  0  0  0  0  0  0  0  0  0  0  0
   61.0130   34.3380   48.3220 N   0  0  0  0  0  0  0  0  0  0  0  0
   61.0670   33.8310   46.9940 C   0  0  0  0  0  0  0  0  0  0  0  0
   62.0920   33.6130   46.2970 O   0  0  0  0  0  0  0  0  0  0  0  0
   59.4200   32.1500   46.1980 C   0  0  0  0  0  0  0  0  0  0  0  0
   56.7680   28.8470   45.1050 C   0  0  0  0  0  0  0  0  0  0  0  0
   55.4380   29.2720   45.0920 O   0  0  0  0  0  0  0  0  0  0  0  0
   56.9800   27.4510   45.1600 N   0  0  0  0  0  0  0  0  0  0  0  0
   57.6449   24.9417   45.2590 H   0  0  0  0  0  0  0  0  0  0  0  0
   59.5268   25.2386   45.2393 H   0  0  0  0  0  0  0  0  0  0  0  0
   59.9672   29.8565   45.0574 H   0  0  0  0  0  0  0  0  0  0  0  0
   58.4048   33.5149   43.5501 H   0  0  0  0  0  0  0  0  0  0  0  0
   57.3515   34.1054   44.8387 H   0  0  0  0  0  0  0  0  0  0  0  0
   60.3644   34.1738   44.6167 H   0  0  0  0  0  0  0  0  0  0  0  0
   59.3013   35.3565   45.3764 H   0  0  0  0  0  0  0  0  0  0  0  0
   58.4999   35.1345   47.4771 H   0  0  0  0  0  0  0  0  0  0  0  0
   57.8861   33.5141   47.7711 H   0  0  0  0  0  0  0  0  0  0  0  0
   59.4101   34.7513   49.6718 H   0  0  0  0  0  0  0  0  0  0  0  0
   59.6669   33.0520   49.4401 H   0  0  0  0  0  0  0  0  0  0  0  0
   61.8080   34.8640   48.7840 H   0  0  0  0  0  0  0  0  0  0  0  0
   60.3047   31.6878   45.7358 H   0  0  0  0  0  0  0  0  0  0  0  0
   59.1829   31.5218   47.0693 H   0  0  0  0  0  0  0  0  0  0  0  0
   55.1600   30.0830   45.6260 H   0  0  0  0  0  0  0  0  0  0  0  0
   56.1820   26.7780   45.1890 H   0  0  0  0  0  0  0  0  0  0  0  0
  1  2  2  0
  2  3  1  0
  3  4  2  0
  4  5  1  0
  5  6  1  0
  6  7  2  0
  6  8  1  0
  8  9  1  0
  9 10  1  0
 11 10  1  6
 11 12  1  0
 12 13  1  0
 13 14  1  0
 14 15  1  0
 15 16  2  0
 11 17  1  0
  5 18  2  0
 18 19  1  0
 18 20  1  0
 20  2  1  0
 17  8  1  0
 15 11  1  0
  1 21  1  0
  1 22  1  0
  4 23  1  0
  9 24  1  0
  9 25  1  0
 10 26  1  0
 10 27  1  0
 12 28  1  0
 12 29  1  0
 13 30  1  0
 13 31  1  0
 14 32  1  0
 17 33  1  0
 17 34  1  0
 19 35  1  0
 20 36  1  0
M  END
>  <smiles>  (32) 
C=C1N=CC(C(=O)N2CCC3(CCNC3=O)C2)=C(O)N1

>  <score_type>  (32) 
oracle

>  <origin>  (32) 
adg

>  <m_score__min__energy>  (32) 
-8.4000000000000004

>  <m_primary>  (32) 
energy

$$$$
32:0
     RDKit          3D

 40 43  0  0  0  0  0  0  0  0999 V2000
   62.1460   31.0000   49.9110 C   0  0  0  0  0  0  0  0  0  0  0  0
   60.9720   30.1970   49.9760 O   0  0  0  0  0  0  0  0  0  0  0  0
   60.1660   29.8710   48.8730 C   0  0  0  0  0  0  0  0  0  0  0  0
   60.1450   28.5780   48.3200 C   0  0  0  0  0  0  0  0  0  0  0  0
   59.3320   28.2790   47.2140 C   0  0  0  0  0  0  0  0  0  0  0  0
   58.5220   29.2930   46.6430 C   0  0  0  0  0  0  0  0  0  0  0  0
   58.5400   30.5770   47.2190 C   0  0  0  0  0  0  0  0  0  0  0  0
   59.3590   30.8720   48.3220 C   0  0  0  0  0  0  0  0  0  0  0  0
   59.3980   32.1510   48.9000 O   0  0  0  0  0  0  0  0  0  0  0  0
   59.3100   33.3710   48.1700 C   0  0  0  0  0  0  0  0  0  0  0  0
   57.6390   29.0590   45.4530 C   0  0  0  0  0  0  0  0  0  0  0  0
   57.5490   30.0920   44.3870 C   0  0  0  0  0  0  0  0  0  0  0  0
   58.2910   31.2860   44.4810 C   0  0  0  0  0  0  0  0  0  0  0  0
   58.2100   32.2520   43.4730 C   0  0  0  0  0  0  0  0  0  0  0  0
   57.3960   32.0350   42.3580 C   0  0  0  0  0  0  0  0  0  0  0  0
   56.6640   30.8510   42.2490 C   0  0  0  0  0  0  0  0  0  0  0  0
   56.7410   29.8820   43.2530 C   0  0  0  0  0  0  0  0  0  0  0  0
   56.8600   28.0150   45.3560 N   0  0  0  0  0  0  0  0  0  0  0  0
   56.8740   26.9180   46.2320 N   0  0  0  0  0  0  0  0  0  0  0  0
   57.9460   26.3290   46.7800 C   0  0  0  0  0  0  0  0  0  0  0  0
   57.6280   25.1310   47.3160 N   0  0  0  0  0  0  0  0  0  0  0  0
   56.3330   24.9370   47.0890 N   0  0  0  0  0  0  0  0  0  0  0  0
   55.9000   26.0160   46.4110 C   0  0  0  0  0  0  0  0  0  0  0  0
   54.7250   26.1470   45.9770 O   0  0  0  0  0  0  0  0  0  0  0  0
   59.3260   26.8760   46.6750 C   0  0  0  0  0  0  0  0  0  0  0  0
   62.4874   31.2335   50.9303 H   0  0  0  0  0  0  0  0  0  0  0  0
   62.9358   30.4521   49.3763 H   0  0  0  0  0  0  0  0  0  0  0  0
   61.9217   31.9347   49.3763 H   0  0  0  0  0  0  0  0  0  0  0  0
   60.7739   27.7899   48.7596 H   0  0  0  0  0  0  0  0  0  0  0  0
   57.8998   31.3658   46.7971 H   0  0  0  0  0  0  0  0  0  0  0  0
   59.2491   34.2151   48.8726 H   0  0  0  0  0  0  0  0  0  0  0  0
   60.2023   33.4846   47.5368 H   0  0  0  0  0  0  0  0  0  0  0  0
   58.4107   33.3554   47.5368 H   0  0  0  0  0  0  0  0  0  0  0  0
   58.9384   31.4596   45.3532 H   0  0  0  0  0  0  0  0  0  0  0  0
   58.7879   33.1841   43.5579 H   0  0  0  0  0  0  0  0  0  0  0  0
   57.3320   32.7965   41.5667 H   0  0  0  0  0  0  0  0  0  0  0  0
   56.0248   30.6805   41.3702 H   0  0  0  0  0  0  0  0  0  0  0  0
   56.1665   28.9489   43.1568 H   0  0  0  0  0  0  0  0  0  0  0  0
   60.0169   26.2518   47.2607 H   0  0  0  0  0  0  0  0  0  0  0  0
   59.6489   26.8777   45.6234 H   0  0  0  0  0  0  0  0  0  0  0  0
  1  2  1  0
  2  3  1  0
  3  4  2  0
  4  5  1  0
  5  6  2  0
  6  7  1  0
  7  8  2  0
  8  9  1  0
  9 10  1  0
  6 11  1  0
 11 12  1  0
 12 13  2  0
 13 14  1  0
 14 15  2  0
 15 16  1  0
 16 17  2  0
 11 18  2  0
 18 19  1  0
 19 20  1  0
 20 21  2  0
 21 22  1  0
 22 23  1  0
 23 24  2  0
 20 25  1  0
  8  3  1  0
 17 12  1  0
 23 19  1  0
 25  5  1  0
  1 26  1  0
  1 27  1  0
  1 28  1  0
  4 29  1  0
  7 30  1  0
 10 31  1  0
 10 32  1  0
 10 33  1  0
 13 34  1  0
 14 35  1  0
 15 36  1  0
 16 37  1  0
 17 38  1  0
 25 39  1  0
 25 40  1  0
M  CHG  1  22  -1
M  END
>  <UniqueID>  (33) 
31

>  <SMILES>  (33) 
COc1cc2c(cc1OC)C(c1ccccc1)=Nn1c(n[n-]c1=O)C2

>  <Energy>  (33) 
96.82962485094083

>  <Genealogy>  (33) 
COc1cc2c(cc1OC)C(c1ccccc1)=Nn1c(n[n-]c1=O)C2 (protonated)
COc1cc2c(cc1OC)C(c1ccccc1)=Nn1c(n[n-]c1=O)C2 (3D coordinates assigned)
COc1cc2c(cc1OC)C(c1ccccc1)=Nn1c(n[n-]c1=O)C2 (nonaromatic ring conformer: 96.82962485094083 kcal/mol)

>  <smiles>  (33) 
COc1cc2c(cc1OC)C(c1ccccc1)=Nn1c(n[nH]c1=O)C2

>  <score_type>  (33) 
oracle

>  <origin>  (33) 
adg

>  <m_score__min__energy>  (33) 
-9.3900000000000006

>  <m_primary>  (33) 
energy

$$$$
33:0
     RDKit          3D

 49 52  0  0  0  0  0  0  0  0999 V2000
   58.4810   21.1960   45.2240 H   0  0  0  0  0  0  0  0  0  0  0  0
   57.6760   21.7790   45.5470 N   0  0  0  0  0  0  0  0  0  0  0  0
   57.7370   23.0720   45.5570 C   0  0  0  0  0  0  0  0  0  0  0  0
   58.9430   23.6910   45.6430 N   0  0  0  0  0  0  0  0  0  0  0  0
   59.0500   25.0440   45.6340 C   0  0  0  0  0  0  0  0  0  0  0  0
   60.0385   25.5211   45.7064 H   0  0  0  0  0  0  0  0  0  0  0  0
   57.8940   25.8300   45.5320 C   0  0  0  0  0  0  0  0  0  0  0  0
   57.9790   27.3120   45.5020 C   0  0  0  0  0  0  0  0  0  0  0  0
   59.2380   27.9280   45.3890 C   0  0  0  0  0  0  0  0  0  0  0  0
   60.1451   27.3086   45.3309 H   0  0  0  0  0  0  0  0  0  0  0  0
   59.3460   29.3190   45.3500 C   0  0  0  0  0  0  0  0  0  0  0  0
   60.3356   29.7891   45.2513 H   0  0  0  0  0  0  0  0  0  0  0  0
   58.1990   30.1190   45.4360 C   0  0  0  0  0  0  0  0  0  0  0  0
   58.3090   31.5920   45.3730 C   0  0  0  0  0  0  0  0  0  0  0  0
   58.5360   32.2950   46.5670 C   0  0  0  0  0  0  0  0  0  0  0  0
   58.6310   31.7449   47.5149 H   0  0  0  0  0  0  0  0  0  0  0  0
   58.6420   33.6860   46.5600 C   0  0  0  0  0  0  0  0  0  0  0  0
   58.8143   34.2283   47.5014 H   0  0  0  0  0  0  0  0  0  0  0  0
   58.5300   34.3900   45.3620 C   0  0  0  0  0  0  0  0  0  0  0  0
   58.6119   35.4869   45.3601 H   0  0  0  0  0  0  0  0  0  0  0  0
   58.3140   33.7050   44.1640 C   0  0  0  0  0  0  0  0  0  0  0  0
   58.2402   34.2666   43.2210 H   0  0  0  0  0  0  0  0  0  0  0  0
   58.1900   32.3040   44.1520 C   0  0  0  0  0  0  0  0  0  0  0  0
   58.0370   31.6000   42.8240 C   0  0  0  0  0  0  0  0  0  0  0  0
   57.7683   32.3354   42.0513 H   0  0  0  0  0  0  0  0  0  0  0  0
   58.9883   31.1132   42.5632 H   0  0  0  0  0  0  0  0  0  0  0  0
   57.0320   30.6270   42.9070 O   0  0  0  0  0  0  0  0  0  0  0  0
   57.4390   29.7700   42.6140 H   0  0  0  0  0  0  0  0  0  0  0  0
   56.9390   29.5130   45.5300 C   0  0  0  0  0  0  0  0  0  0  0  0
   56.0347   30.1372   45.5813 H   0  0  0  0  0  0  0  0  0  0  0  0
   56.8240   28.1190   45.5590 C   0  0  0  0  0  0  0  0  0  0  0  0
   55.5560   27.5510   45.6190 O   0  0  0  0  0  0  0  0  0  0  0  0
   56.6830   25.2090   45.4320 N   0  0  0  0  0  0  0  0  0  0  0  0
   55.8110   25.7850   45.3720 H   0  0  0  0  0  0  0  0  0  0  0  0
   56.5690   23.8510   45.4490 C   0  0  0  0  0  0  0  0  0  0  0  0
   55.2670   23.2480   45.3380 N   0  0  0  0  0  0  0  0  0  0  0  0
   54.3340   23.7230   44.3160 C   0  0  0  0  0  0  0  0  0  0  0  0
   54.5573   24.7729   44.0753 H   0  0  0  0  0  0  0  0  0  0  0  0
   54.4391   23.1085   43.4097 H   0  0  0  0  0  0  0  0  0  0  0  0
   52.9000   23.6140   44.8430 C   0  0  0  0  0  0  0  0  0  0  0  0
   52.7606   24.3354   45.6616 H   0  0  0  0  0  0  0  0  0  0  0  0
   52.2037   23.8310   44.0196 H   0  0  0  0  0  0  0  0  0  0  0  0
   52.6410   22.3090   45.3250 O   0  0  0  0  0  0  0  0  0  0  0  0
   53.4530   22.0420   46.4540 C   0  0  0  0  0  0  0  0  0  0  0  0
   53.2889   22.8244   47.2096 H   0  0  0  0  0  0  0  0  0  0  0  0
   53.1811   21.0561   46.8590 H   0  0  0  0  0  0  0  0  0  0  0  0
   54.9350   22.0220   46.0650 C   0  0  0  0  0  0  0  0  0  0  0  0
   55.5514   21.9566   46.9737 H   0  0  0  0  0  0  0  0  0  0  0  0
   55.1330   21.1510   45.4231 H   0  0  0  0  0  0  0  0  0  0  0  0
  1  2  1  0
  2  3  2  0
  3  4  1  0
  4  5  1  0
  5  6  1  0
  5  7  2  0
  7  8  1  0
  8  9  2  0
  9 10  1  0
  9 11  1  0
 11 12  1  0
 11 13  2  0
 13 14  1  0
 14 15  2  0
 15 16  1  0
 15 17  1  0
 17 18  1  0
 17 19  2  0
 19 20  1  0
 19 21  1  0
 21 22  1  0
 21 23  2  0
 23 24  1  0
 24 25  1  0
 24 26  1  0
 24 27  1  0
 27 28  1  0
 13 29  1  0
 29 30  1  0
 29 31  2  0
 31 32  1  0
  7 33  1  0
 33 34  1  0
 33 35  2  0
 35 36  1  0
 36 37  1  0
 37 38  1  0
 37 39  1  0
 37 40  1  0
 40 41  1  0
 40 42  1  0
 40 43  1  0
 43 44  1  0
 44 45  1  0
 44 46  1  0
 44 47  1  0
 47 48  1  0
 47 49  1  0
 35  3  1  0
 47 36  1  0
 31  8  1  0
 23 14  1  0
M  CHG  3   4  -1  32  -1  33   1
M  END
>  <UniqueID>  (34) 
32

>  <SMILES>  (34) 
[H]/N=c1\[n-]cc(-c2ccc(-c3ccccc3CO)cc2[O-])[nH+]c1N1CCOCC1

>  <Energy>  (34) 
74.75844887791597

>  <Genealogy>  (34) 
N=c1[n-]cc(-c2ccc(-c3ccccc3CO)cc2[O-])[nH+]c1N1CCOCC1 (protonated)
[H]/N=c1\[n-]cc(-c2ccc(-c3ccccc3CO)cc2[O-])[nH+]c1N1CCOCC1 (cis-trans isomerization)
[H]/N=c1\[n-]cc(-c2ccc(-c3ccccc3CO)cc2[O-])[nH+]c1N1CCOCC1 (3D coordinates assigned)
[H]/N=c1\[n-]cc(-c2ccc(-c3ccccc3CO)cc2[O-])[nH+]c1N1CCOCC1 (nonaromatic ring conformer: 74.75844887791597 kcal/mol)

>  <smiles>  (34) 
N=c1[nH]cc(-c2ccc(-c3ccccc3CO)cc2O)nc1N1CCOCC1

>  <score_type>  (34) 
oracle

>  <origin>  (34) 
adg

>  <m_score__min__energy>  (34) 
-10.99

>  <m_primary>  (34) 
energy

$$$$
34:0
     RDKit          3D

 40 43  0  0  0  0  0  0  0  0999 V2000
   54.7660   26.3400   45.9990 N   0  0  0  0  0  0  0  0  0  0  0  0
   56.1370   25.3170   46.2370 S   0  0  0  0  0  0  0  0  0  0  0  0
   56.1590   24.2580   45.1710 O   0  0  0  0  0  0  0  0  0  0  0  0
   56.0410   24.6480   47.5790 O   0  0  0  0  0  0  0  0  0  0  0  0
   57.6090   26.2790   46.1590 C   0  0  0  0  0  0  0  0  0  0  0  0
   58.8640   25.6540   46.1290 C   0  0  0  0  0  0  0  0  0  0  0  0
   60.0270   26.4230   46.0500 C   0  0  0  0  0  0  0  0  0  0  0  0
   59.9450   27.8150   45.9850 C   0  0  0  0  0  0  0  0  0  0  0  0
   58.6930   28.4520   45.9850 C   0  0  0  0  0  0  0  0  0  0  0  0
   58.5890   29.9200   45.8740 C   0  0  0  0  0  0  0  0  0  0  0  0
   57.4500   30.5410   45.4760 N   0  0  0  0  0  0  0  0  0  0  0  0
   57.7300   31.8570   45.5490 C   0  0  0  0  0  0  0  0  0  0  0  0
   56.8720   32.9070   45.2320 C   0  0  0  0  0  0  0  0  0  0  0  0
   57.3740   34.2150   45.3640 C   0  0  0  0  0  0  0  0  0  0  0  0
   58.6610   34.4250   45.7830 N   0  0  0  0  0  0  0  0  0  0  0  0
   59.4990   33.3910   46.0900 C   0  0  0  0  0  0  0  0  0  0  0  0
   60.6790   33.6200   46.4610 O   0  0  0  0  0  0  0  0  0  0  0  0
   59.0100   32.0890   45.9770 C   0  0  0  0  0  0  0  0  0  0  0  0
   59.5840   30.8550   46.1750 C   0  0  0  0  0  0  0  0  0  0  0  0
   60.9440   30.6080   46.5640 N   0  0  0  0  0  0  0  0  0  0  0  0
   61.4740   30.9210   47.8640 C   0  0  0  0  0  0  0  0  0  0  0  0
   60.8470   30.4020   49.0080 C   0  0  0  0  0  0  0  0  0  0  0  0
   61.3640   30.6670   50.2780 C   0  0  0  0  0  0  0  0  0  0  0  0
   62.5050   31.4630   50.4190 C   0  0  0  0  0  0  0  0  0  0  0  0
   63.1240   32.0030   49.2880 C   0  0  0  0  0  0  0  0  0  0  0  0
   64.6830   33.0880   49.4790 Br  0  0  0  0  0  0  0  0  0  0  0  0
   62.6030   31.7470   48.0160 C   0  0  0  0  0  0  0  0  0  0  0  0
   57.5280   27.6760   46.0900 C   0  0  0  0  0  0  0  0  0  0  0  0
   54.8060   27.0780   46.7370 H   0  0  0  0  0  0  0  0  0  0  0  0
   58.9324   24.5568   46.1677 H   0  0  0  0  0  0  0  0  0  0  0  0
   61.0105   25.9304   46.0390 H   0  0  0  0  0  0  0  0  0  0  0  0
   60.8650   28.4158   45.9335 H   0  0  0  0  0  0  0  0  0  0  0  0
   55.8425   32.7213   44.8919 H   0  0  0  0  0  0  0  0  0  0  0  0
   56.7287   35.0743   45.1292 H   0  0  0  0  0  0  0  0  0  0  0  0
   61.5800   30.1650   45.8630 H   0  0  0  0  0  0  0  0  0  0  0  0
   59.9436   29.7832   48.9034 H   0  0  0  0  0  0  0  0  0  0  0  0
   60.8728   30.2488   51.1690 H   0  0  0  0  0  0  0  0  0  0  0  0
   62.9153   31.6642   51.4196 H   0  0  0  0  0  0  0  0  0  0  0  0
   63.0779   32.1934   47.1299 H   0  0  0  0  0  0  0  0  0  0  0  0
   56.5446   28.1681   46.1183 H   0  0  0  0  0  0  0  0  0  0  0  0
  1  2  1  0
  2  3  2  0
  2  4  2  0
  2  5  1  0
  5  6  2  0
  6  7  1  0
  7  8  2  0
  8  9  1  0
  9 10  1  0
 10 11  1  0
 11 12  1  0
 12 13  1  0
 13 14  2  0
 14 15  1  0
 15 16  1  0
 16 17  2  0
 16 18  1  0
 18 19  1  0
 19 20  1  0
 20 21  1  0
 21 22  2  0
 22 23  1  0
 23 24  2  0
 24 25  1  0
 25 26  1  0
 25 27  2  0
  9 28  2  0
 28  5  1  0
 19 10  2  0
 27 21  1  0
 18 12  2  0
  1 29  1  0
  6 30  1  0
  7 31  1  0
  8 32  1  0
 13 33  1  0
 14 34  1  0
 20 35  1  0
 22 36  1  0
 23 37  1  0
 24 38  1  0
 27 39  1  0
 28 40  1  0
M  CHG  3   1  -1  11  -1  15  -1
M  END
>  <UniqueID>  (35) 
33

>  <SMILES>  (35) 
[NH-]S(=O)(=O)c1cccc(-c2[n-]c3cc[n-]c(=O)c3c2Nc2cccc(Br)c2)c1

>  <Energy>  (35) 
86.75624303057788

>  <Genealogy>  (35) 
[NH-]S(=O)(=O)c1cccc(-c2[n-]c3cc[n-]c(=O)c3c2Nc2cccc(Br)c2)c1 (protonated)
[NH-]S(=O)(=O)c1cccc(-c2[n-]c3cc[n-]c(=O)c3c2Nc2cccc(Br)c2)c1 (3D coordinates assigned)
[NH-]S(=O)(=O)c1cccc(-c2[n-]c3cc[n-]c(=O)c3c2Nc2cccc(Br)c2)c1 (optimized conformer: 86.75624303057788 kcal/mol)

>  <smiles>  (35) 
NS(=O)(=O)c1cccc(-c2[nH]c3cc[nH]c(=O)c3c2Nc2cccc(Br)c2)c1

>  <score_type>  (35) 
oracle

>  <origin>  (35) 
adg

>  <m_score__min__energy>  (35) 
-13.99

>  <m_primary>  (35) 
energy

$$$$
35:0
     RDKit          3D

 60 63  0  0  0  0  0  0  0  0999 V2000
   55.8920   26.9010   45.2340 H   0  0  0  0  0  0  0  0  0  0  0  0
   55.2690   26.4230   45.8470 O   0  0  0  0  0  0  0  0  0  0  0  0
   55.4410   25.0640   45.5870 C   0  0  0  0  0  0  0  0  0  0  0  0
   54.5311   24.6857   45.0981 H   0  0  0  0  0  0  0  0  0  0  0  0
   55.6326   24.5728   46.5524 H   0  0  0  0  0  0  0  0  0  0  0  0
   56.6160   24.7650   44.7000 C   0  0  0  0  0  0  0  0  0  0  0  0
   56.3158   24.8751   43.6475 H   0  0  0  0  0  0  0  0  0  0  0  0
   56.9558   23.7351   44.8839 H   0  0  0  0  0  0  0  0  0  0  0  0
   57.6780   25.6660   44.9840 O   0  0  0  0  0  0  0  0  0  0  0  0
   57.8210   26.5680   43.8760 C   0  0  0  0  0  0  0  0  0  0  0  0
   57.0010   26.3905   43.1646 H   0  0  0  0  0  0  0  0  0  0  0  0
   58.7988   26.3813   43.4080 H   0  0  0  0  0  0  0  0  0  0  0  0
   57.7810   28.0040   44.3150 C   0  0  0  0  0  0  0  0  0  0  0  0
   57.0190   28.9190   43.6700 C   0  0  0  0  0  0  0  0  0  0  0  0
   56.4303   28.6193   42.7905 H   0  0  0  0  0  0  0  0  0  0  0  0
   56.9770   30.2570   44.1220 C   0  0  0  0  0  0  0  0  0  0  0  0
   56.5709   31.0517   43.4789 H   0  0  0  0  0  0  0  0  0  0  0  0
   57.4540   30.5510   45.3840 N   0  0  0  0  0  0  0  0  0  0  0  0
   58.0680   29.5720   46.1030 C   0  0  0  0  0  0  0  0  0  0  0  0
   58.5000   29.7790   47.3290 N   0  0  0  0  0  0  0  0  0  0  0  0
   58.9650   30.0010   48.6830 C   0  0  0  0  0  0  0  0  0  0  0  0
   59.0700   29.1060   49.5490 O   0  0  0  0  0  0  0  0  0  0  0  0
   59.2900   31.3840   48.9230 C   0  0  0  0  0  0  0  0  0  0  0  0
   59.5060   31.8600   50.2050 C   0  0  0  0  0  0  0  0  0  0  0  0
   59.6222   31.1730   51.0562 H   0  0  0  0  0  0  0  0  0  0  0  0
   59.5710   33.2450   50.3780 C   0  0  0  0  0  0  0  0  0  0  0  0
   59.7110   33.7650   51.7490 C   0  0  0  0  0  0  0  0  0  0  0  0
   59.0235   34.5495   52.0982 H   0  0  0  0  0  0  0  0  0  0  0  0
   60.6610   33.3030   52.5860 C   0  0  0  0  0  0  0  0  0  0  0  0
   60.4567   33.2343   53.6647 H   0  0  0  0  0  0  0  0  0  0  0  0
   61.9820   32.8870   52.0540 C   0  0  0  0  0  0  0  0  0  0  0  0
   62.4590   31.7720   52.4220 O   0  0  0  0  0  0  0  0  0  0  0  0
   62.6920   33.7350   51.1430 N   0  0  0  0  0  0  0  0  0  0  0  0
   62.8050   33.3300   49.7810 C   0  0  0  0  0  0  0  0  0  0  0  0
   63.1960   32.0030   49.4980 C   0  0  0  0  0  0  0  0  0  0  0  0
   63.3721   31.2886   50.3157 H   0  0  0  0  0  0  0  0  0  0  0  0
   63.3570   31.6070   48.1650 C   0  0  0  0  0  0  0  0  0  0  0  0
   63.6409   30.5689   47.9374 H   0  0  0  0  0  0  0  0  0  0  0  0
   63.1620   32.5120   47.1220 C   0  0  0  0  0  0  0  0  0  0  0  0
   63.3130   32.1950   46.0796 H   0  0  0  0  0  0  0  0  0  0  0  0
   62.7710   33.8330   47.4100 C   0  0  0  0  0  0  0  0  0  0  0  0
   62.5926   34.5455   46.5912 H   0  0  0  0  0  0  0  0  0  0  0  0
   62.6090   34.2400   48.7440 C   0  0  0  0  0  0  0  0  0  0  0  0
   62.3269   35.2787   48.9709 H   0  0  0  0  0  0  0  0  0  0  0  0
   59.4210   34.0890   49.3120 N   0  0  0  0  0  0  0  0  0  0  0  0
   59.2150   33.5660   48.0700 C   0  0  0  0  0  0  0  0  0  0  0  0
   58.9280   34.4570   47.0080 N   0  0  0  0  0  0  0  0  0  0  0  0
   58.1300   34.4130   45.7390 C   0  0  0  0  0  0  0  0  0  0  0  0
   57.7360   33.4121   45.5087 H   0  0  0  0  0  0  0  0  0  0  0  0
   57.2103   35.0135   45.6793 H   0  0  0  0  0  0  0  0  0  0  0  0
   59.2960   34.8050   44.8740 C   0  0  0  0  0  0  0  0  0  0  0  0
   59.8904   33.9773   44.4598 H   0  0  0  0  0  0  0  0  0  0  0  0
   59.2247   35.3673   43.9313 H   0  0  0  0  0  0  0  0  0  0  0  0
   59.7690   35.3660   46.1790 C   0  0  0  0  0  0  0  0  0  0  0  0
   60.8475   35.2250   46.3434 H   0  0  0  0  0  0  0  0  0  0  0  0
   59.6715   36.4497   46.3406 H   0  0  0  0  0  0  0  0  0  0  0  0
   59.2180   32.2370   47.8370 N   0  0  0  0  0  0  0  0  0  0  0  0
   59.0050   31.8580   46.8810 H   0  0  0  0  0  0  0  0  0  0  0  0
   58.2590   28.2890   45.6160 C   0  0  0  0  0  0  0  0  0  0  0  0
   58.7639   27.5198   46.2189 H   0  0  0  0  0  0  0  0  0  0  0  0
  1  2  1  0
  2  3  1  0
  3  4  1  0
  3  5  1  0
  3  6  1  0
  6  7  1  0
  6  8  1  0
  6  9  1  0
  9 10  1  0
 10 11  1  0
 10 12  1  0
 10 13  1  0
 13 14  1  0
 14 15  1  0
 14 16  2  0
 16 17  1  0
 16 18  1  0
 18 19  1  0
 19 20  2  3
 20 21  1  0
 21 22  2  0
 21 23  1  0
 23 24  2  0
 24 25  1  0
 24 26  1  0
 26 27  1  0
 27 28  1  0
 27 29  2  3
 29 30  1  0
 29 31  1  0
 31 32  2  0
 31 33  1  0
 33 34  1  0
 34 35  2  0
 35 36  1  0
 35 37  1  0
 37 38  1  0
 37 39  2  0
 39 40  1  0
 39 41  1  0
 41 42  1  0
 41 43  2  0
 43 44  1  0
 26 45  2  0
 45 46  1  0
 46 47  1  0
 47 48  1  0
 48 49  1  0
 48 50  1  0
 48 51  1  0
 51 52  1  0
 51 53  1  0
 51 54  1  0
 54 55  1  0
 54 56  1  0
 46 57  2  0
 57 58  1  0
 19 59  1  0
 59 60  1  0
 59 13  2  0
 57 23  1  0
 43 34  1  0
 54 47  1  0
M  CHG  3  18  -1  33  -1  57   1
M  END
>  <UniqueID>  (36) 
34

>  <SMILES>  (36) 
O=C(C=Cc1cc(C(=O)/N=c2/cc(COCCO)cc[n-]2)[nH+]c(N2CCC2)n1)[N-]c1ccccc1

>  <Energy>  (36) 
229.47178871150442

>  <Genealogy>  (36) 
O=C(C=Cc1cc(C(=O)N=c2cc(COCCO)cc[n-]2)[nH+]c(N2CCC2)n1)[N-]c1ccccc1 (protonated)
O=C(C=Cc1cc(C(=O)/N=c2/cc(COCCO)cc[n-]2)[nH+]c(N2CCC2)n1)[N-]c1ccccc1 (cis-trans isomerization)
O=C(C=Cc1cc(C(=O)/N=c2/cc(COCCO)cc[n-]2)[nH+]c(N2CCC2)n1)[N-]c1ccccc1 (3D coordinates assigned)
O=C(C=Cc1cc(C(=O)/N=c2/cc(COCCO)cc[n-]2)[nH+]c(N2CCC2)n1)[N-]c1ccccc1 (nonaromatic ring conformer: 229.47178871150442 kcal/mol)

>  <smiles>  (36) 
O=C(C=Cc1cc(C(=O)N=c2cc(COCCO)cc[nH]2)nc(N2CCC2)n1)Nc1ccccc1

>  <score_type>  (36) 
oracle

>  <origin>  (36) 
adg

>  <m_score__min__energy>  (36) 
-11.210000000000001

>  <m_primary>  (36) 
energy

$$$$
36:0
     RDKit          3D

 51 54  0  0  1  0  0  0  0  0999 V2000
   63.6190   33.9090   49.2520 N   0  0  0  0  0  0  0  0  0  0  0  0
   62.5030   33.5390   48.7130 C   0  0  0  0  0  0  0  0  0  0  0  0
   61.4400   34.3420   48.7690 N   0  0  0  0  0  0  0  0  0  0  0  0
   60.2330   34.0320   48.2300 C   0  0  0  0  0  0  0  0  0  0  0  0
   59.3130   34.9000   48.3630 N   0  0  0  0  0  0  0  0  0  0  0  0
   60.1290   32.8250   47.6040 C   0  0  0  0  0  0  0  0  0  0  0  0
   58.9370   32.4410   47.0350 C   0  0  0  0  0  0  0  0  0  0  0  0
   58.8090   31.2250   46.3960 C   0  0  0  0  0  0  0  0  0  0  0  0
   57.6900   30.7420   45.8010 O   0  0  0  0  0  0  0  0  0  0  0  0
   57.6020   30.4220   44.4600 C   0  0  2  0  0  0  0  0  0  0  0  0
   57.5630   31.6630   43.5670 C   0  0  0  0  0  0  0  0  0  0  0  0
   57.0000   31.0770   42.2980 C   0  0  0  0  0  0  0  0  0  0  0  0
   56.0540   30.0800   42.7440 N   0  0  0  0  0  0  0  0  0  0  0  0
   56.2680   29.8110   44.1260 C   0  0  0  0  0  0  0  0  0  0  0  0
   55.5060   29.1900   44.9210 O   0  0  0  0  0  0  0  0  0  0  0  0
   59.9460   30.4310   46.3680 C   0  0  0  0  0  0  0  0  0  0  0  0
   59.8940   29.1390   45.7180 N   0  0  0  0  0  0  0  0  0  0  0  0
   60.2400   28.0300   46.4630 C   0  0  0  0  0  0  0  0  0  0  0  0
   60.5980   28.3450   47.6820 O   0  0  0  0  0  0  0  0  0  0  0  0
   60.2870   26.6370   46.2100 C   0  0  0  0  0  0  0  0  0  0  0  0
   59.5290   25.6450   46.5070 C   0  0  0  0  0  0  0  0  0  0  0  0
   58.2930   25.2110   45.9390 C   0  0  0  0  0  0  0  0  0  0  0  0
   57.9850   24.0560   45.2950 C   0  0  0  0  0  0  0  0  0  0  0  0
   56.7430   23.6430   44.9000 C   0  0  0  0  0  0  0  0  0  0  0  0
   55.6760   24.4670   45.1710 C   0  0  0  0  0  0  0  0  0  0  0  0
   55.9500   25.6480   45.8220 C   0  0  0  0  0  0  0  0  0  0  0  0
   54.8730   26.5100   46.1120 O   0  0  0  0  0  0  0  0  0  0  0  0
   57.1950   26.0540   46.2140 C   0  0  0  0  0  0  0  0  0  0  0  0
   61.1420   30.8100   46.9370 C   0  0  0  0  0  0  0  0  0  0  0  0
   61.2410   32.0160   47.5620 C   0  0  0  0  0  0  0  0  0  0  0  0
   62.4270   32.3470   48.1040 N   0  0  0  0  0  0  0  0  0  0  0  0
   63.6290   34.6220   49.9980 H   0  0  0  0  0  0  0  0  0  0  0  0
   61.5650   35.2590   49.2590 H   0  0  0  0  0  0  0  0  0  0  0  0
   59.2990   35.7630   47.8150 H   0  0  0  0  0  0  0  0  0  0  0  0
   58.0700   33.1158   47.0905 H   0  0  0  0  0  0  0  0  0  0  0  0
   58.4712   29.7693   44.2911 H   0  0  0  0  0  0  0  0  0  0  0  0
   56.9041   32.4401   43.9817 H   0  0  0  0  0  0  0  0  0  0  0  0
   58.5324   32.1685   43.4455 H   0  0  0  0  0  0  0  0  0  0  0  0
   56.4952   31.8524   41.7030 H   0  0  0  0  0  0  0  0  0  0  0  0
   57.7823   30.6502   41.6532 H   0  0  0  0  0  0  0  0  0  0  0  0
   55.3280   29.6350   42.1300 H   0  0  0  0  0  0  0  0  0  0  0  0
   59.6470   29.1290   44.7480 H   0  0  0  0  0  0  0  0  0  0  0  0
   61.1718   26.3387   45.6285 H   0  0  0  0  0  0  0  0  0  0  0  0
   59.8927   25.0246   47.3393 H   0  0  0  0  0  0  0  0  0  0  0  0
   58.8233   23.3813   45.0670 H   0  0  0  0  0  0  0  0  0  0  0  0
   56.6018   22.6828   44.3823 H   0  0  0  0  0  0  0  0  0  0  0  0
   54.6505   24.1946   44.8807 H   0  0  0  0  0  0  0  0  0  0  0  0
   54.7630   26.7140   47.1150 H   0  0  0  0  0  0  0  0  0  0  0  0
   57.3376   27.0143   46.7312 H   0  0  0  0  0  0  0  0  0  0  0  0
   62.0138   30.1411   46.8867 H   0  0  0  0  0  0  0  0  0  0  0  0
   63.2600   31.7200   48.0610 H   0  0  0  0  0  0  0  0  0  0  0  0
  1  2  2  3
  2  3  1  0
  3  4  1  0
  4  5  2  3
  4  6  1  0
  6  7  2  0
  7  8  1  0
  8  9  1  0
  9 10  1  0
 10 11  1  0
 11 12  1  0
 12 13  1  0
 13 14  1  0
 14 15  2  0
  8 16  2  0
 16 17  1  0
 17 18  1  0
 18 19  2  0
 18 20  1  0
 20 21  2  0
 21 22  1  0
 22 23  2  0
 23 24  1  0
 24 25  2  0
 25 26  1  0
 26 27  1  0
 26 28  2  0
 16 29  1  0
 29 30  2  0
 30 31  1  0
 31  2  1  0
 30  6  1  0
 14 10  1  0
 28 22  1  0
  1 32  1  0
  3 33  1  0
  5 34  1  0
  7 35  1  0
 10 36  1  6
 11 37  1  0
 11 38  1  0
 12 39  1  0
 12 40  1  0
 13 41  1  0
 17 42  1  0
 20 43  1  0
 21 44  1  0
 23 45  1  0
 24 46  1  0
 25 47  1  0
 27 48  1  0
 28 49  1  0
 29 50  1  0
 31 51  1  0
M  END
>  <smiles>  (37) 
N=c1[nH]c(=N)c2cc(OC3CCNC3=O)c(NC(=O)C=Cc3cccc(O)c3)cc2[nH]1

>  <score_type>  (37) 
oracle

>  <origin>  (37) 
adg

>  <m_score__min__energy>  (37) 
-10.029999999999999

>  <m_primary>  (37) 
energy

$$$$
37:0
     RDKit          3D

 42 45  0  0  0  0  0  0  0  0999 V2000
   55.3170   29.5800   44.7240 O   0  0  0  0  0  0  0  0  0  0  0  0
   56.2290   28.7250   44.8880 C   0  0  0  0  0  0  0  0  0  0  0  0
   57.5680   28.9350   44.2300 C   0  0  0  0  0  0  0  0  0  0  0  0
   57.7630   30.3730   43.8460 C   0  0  0  0  0  0  0  0  0  0  0  0
   57.2320   30.9680   42.6890 C   0  0  0  0  0  0  0  0  0  0  0  0
   57.6010   32.6450   42.6900 S   0  0  0  0  0  0  0  0  0  0  0  0
   58.4020   32.5030   44.1550 C   0  0  0  0  0  0  0  0  0  0  0  0
   59.0170   33.3930   44.9480 N   0  0  0  0  0  0  0  0  0  0  0  0
   59.4350   32.6310   45.9980 C   0  0  0  0  0  0  0  0  0  0  0  0
   60.1840   33.1520   47.1650 C   0  0  0  0  0  0  0  0  0  0  0  0
   59.5020   33.7100   48.2620 C   0  0  0  0  0  0  0  0  0  0  0  0
   60.2130   34.1920   49.3660 C   0  0  0  0  0  0  0  0  0  0  0  0
   61.6090   34.1250   49.3850 C   0  0  0  0  0  0  0  0  0  0  0  0
   62.2950   34.5930   50.4570 F   0  0  0  0  0  0  0  0  0  0  0  0
   62.2960   33.5790   48.2990 C   0  0  0  0  0  0  0  0  0  0  0  0
   61.5900   33.0970   47.1930 C   0  0  0  0  0  0  0  0  0  0  0  0
   59.0450   31.2980   45.8000 C   0  0  0  0  0  0  0  0  0  0  0  0
   58.4000   31.2760   44.6260 N   0  0  0  0  0  0  0  0  0  0  0  0
   55.9200   27.5340   45.6220 N   0  0  0  0  0  0  0  0  0  0  0  0
   56.7930   26.3740   45.7790 C   0  0  0  0  0  0  0  0  0  0  0  0
   58.1050   26.7680   46.4050 C   0  0  0  0  0  0  0  0  0  0  0  0
   59.2880   26.0900   46.0670 C   0  0  0  0  0  0  0  0  0  0  0  0
   60.4960   26.4280   46.6850 C   0  0  0  0  0  0  0  0  0  0  0  0
   60.5310   27.4370   47.6510 C   0  0  0  0  0  0  0  0  0  0  0  0
   59.3590   28.1140   47.9970 C   0  0  0  0  0  0  0  0  0  0  0  0
   58.1490   27.7780   47.3830 C   0  0  0  0  0  0  0  0  0  0  0  0
   58.3627   28.6395   44.9308 H   0  0  0  0  0  0  0  0  0  0  0  0
   57.6085   28.3217   43.3178 H   0  0  0  0  0  0  0  0  0  0  0  0
   56.6679   30.4416   41.9050 H   0  0  0  0  0  0  0  0  0  0  0  0
   59.1490   34.4140   44.7790 H   0  0  0  0  0  0  0  0  0  0  0  0
   58.4036   33.7675   48.2514 H   0  0  0  0  0  0  0  0  0  0  0  0
   59.6725   34.6246   50.2208 H   0  0  0  0  0  0  0  0  0  0  0  0
   63.3947   33.5280   48.3138 H   0  0  0  0  0  0  0  0  0  0  0  0
   62.1371   32.6718   46.3387 H   0  0  0  0  0  0  0  0  0  0  0  0
   59.2306   30.4461   46.4707 H   0  0  0  0  0  0  0  0  0  0  0  0
   56.2953   25.6334   46.4223 H   0  0  0  0  0  0  0  0  0  0  0  0
   56.9925   25.9479   44.7847 H   0  0  0  0  0  0  0  0  0  0  0  0
   59.2640   25.2896   45.3128 H   0  0  0  0  0  0  0  0  0  0  0  0
   61.4203   25.8987   46.4102 H   0  0  0  0  0  0  0  0  0  0  0  0
   61.4815   27.6983   48.1391 H   0  0  0  0  0  0  0  0  0  0  0  0
   59.3884   28.9122   48.7533 H   0  0  0  0  0  0  0  0  0  0  0  0
   57.2265   28.3061   47.6661 H   0  0  0  0  0  0  0  0  0  0  0  0
  1  2  2  0
  2  3  1  0
  3  4  1  0
  4  5  2  0
  5  6  1  0
  6  7  1  0
  7  8  2  0
  8  9  1  0
  9 10  1  0
 10 11  2  0
 11 12  1  0
 12 13  2  0
 13 14  1  0
 13 15  1  0
 15 16  2  0
  9 17  2  0
 17 18  1  0
  2 19  1  0
 19 20  1  0
 20 21  1  0
 21 22  2  0
 22 23  1  0
 23 24  2  0
 24 25  1  0
 25 26  2  0
 18  4  1  0
 26 21  1  0
 18  7  1  0
 16 10  1  0
  3 27  1  0
  3 28  1  0
  5 29  1  0
  8 30  1  0
 11 31  1  0
 12 32  1  0
 15 33  1  0
 16 34  1  0
 17 35  1  0
 20 36  1  0
 20 37  1  0
 22 38  1  0
 23 39  1  0
 24 40  1  0
 25 41  1  0
 26 42  1  0
M  CHG  2   8   1  19  -1
M  END
>  <UniqueID>  (38) 
35

>  <SMILES>  (38) 
O=C(Cc1csc2[nH+]c(-c3ccc(F)cc3)cn12)[N-]Cc1ccccc1

>  <Energy>  (38) 
122.66592672569624

>  <Genealogy>  (38) 
O=C(Cc1csc2[nH+]c(-c3ccc(F)cc3)cn12)[N-]Cc1ccccc1 (protonated)
O=C(Cc1csc2[nH+]c(-c3ccc(F)cc3)cn12)[N-]Cc1ccccc1 (3D coordinates assigned)
O=C(Cc1csc2[nH+]c(-c3ccc(F)cc3)cn12)[N-]Cc1ccccc1 (optimized conformer: 122.66592672569624 kcal/mol)

>  <smiles>  (38) 
O=C(Cc1csc2nc(-c3ccc(F)cc3)cn12)NCc1ccccc1

>  <score_type>  (38) 
oracle

>  <origin>  (38) 
adg

>  <m_score__min__energy>  (38) 
-9.0199999999999996

>  <m_primary>  (38) 
energy

$$$$
38:0
     RDKit          3D

 36 38  0  0  0  0  0  0  0  0999 V2000
   56.1160   29.9320   44.9750 N   0  0  0  0  0  0  0  0  0  0  0  0
   57.2910   29.4960   45.1130 C   0  0  0  0  0  0  0  0  0  0  0  0
   57.4540   28.1680   44.7890 N   0  0  0  0  0  0  0  0  0  0  0  0
   58.6210   27.5380   44.8720 C   0  0  0  0  0  0  0  0  0  0  0  0
   59.7150   28.2350   45.2990 C   0  0  0  0  0  0  0  0  0  0  0  0
   59.5820   29.5570   45.6280 C   0  0  0  0  0  0  0  0  0  0  0  0
   58.3750   30.2500   45.5530 C   0  0  0  0  0  0  0  0  0  0  0  0
   58.2690   31.6500   45.9080 C   0  0  0  0  0  0  0  0  0  0  0  0
   57.6100   32.5240   45.0700 C   0  0  0  0  0  0  0  0  0  0  0  0
   57.5110   33.8790   45.4200 C   0  0  0  0  0  0  0  0  0  0  0  0
   56.9140   34.6890   44.6660 O   0  0  0  0  0  0  0  0  0  0  0  0
   58.0390   34.3660   46.5470 N   0  0  0  0  0  0  0  0  0  0  0  0
   58.6780   33.4980   47.3520 C   0  0  0  0  0  0  0  0  0  0  0  0
   59.3040   33.9390   48.6400 C   0  0  0  0  0  0  0  0  0  0  0  0
   60.7880   33.7350   48.5550 C   0  0  0  0  0  0  0  0  0  0  0  0
   61.4510   33.7300   47.3440 C   0  0  0  0  0  0  0  0  0  0  0  0
   62.8120   33.5360   47.3580 C   0  0  0  0  0  0  0  0  0  0  0  0
   63.5150   33.3490   48.5440 C   0  0  0  0  0  0  0  0  0  0  0  0
   64.8900   33.1520   48.5550 O   0  0  0  0  0  0  0  0  0  0  0  0
   62.8170   33.3570   49.7530 C   0  0  0  0  0  0  0  0  0  0  0  0
   61.4390   33.5520   49.7620 C   0  0  0  0  0  0  0  0  0  0  0  0
   58.7780   32.1980   47.0270 N   0  0  0  0  0  0  0  0  0  0  0  0
   55.3790   30.0940   45.6280 H   0  0  0  0  0  0  0  0  0  0  0  0
   56.6340   27.5970   44.4560 H   0  0  0  0  0  0  0  0  0  0  0  0
   58.7043   26.4750   44.6018 H   0  0  0  0  0  0  0  0  0  0  0  0
   60.6936   27.7388   45.3778 H   0  0  0  0  0  0  0  0  0  0  0  0
   60.4748   30.1012   45.9696 H   0  0  0  0  0  0  0  0  0  0  0  0
   57.1643   32.1610   44.1321 H   0  0  0  0  0  0  0  0  0  0  0  0
   57.9950   35.3470   46.8480 H   0  0  0  0  0  0  0  0  0  0  0  0
   59.0870   35.0038   48.8103 H   0  0  0  0  0  0  0  0  0  0  0  0
   58.8944   33.3501   49.4739 H   0  0  0  0  0  0  0  0  0  0  0  0
   60.9080   33.8765   46.3987 H   0  0  0  0  0  0  0  0  0  0  0  0
   63.3606   33.5284   46.4046 H   0  0  0  0  0  0  0  0  0  0  0  0
   65.2650   32.2670   48.2410 H   0  0  0  0  0  0  0  0  0  0  0  0
   63.3569   33.2090   50.6999 H   0  0  0  0  0  0  0  0  0  0  0  0
   60.8792   33.5604   50.7089 H   0  0  0  0  0  0  0  0  0  0  0  0
  1  2  2  3
  2  3  1  0
  3  4  1  0
  4  5  2  0
  5  6  1  0
  6  7  2  0
  7  8  1  0
  8  9  2  0
  9 10  1  0
 10 11  2  0
 10 12  1  0
 12 13  1  0
 13 14  1  0
 14 15  1  0
 15 16  2  0
 16 17  1  0
 17 18  2  0
 18 19  1  0
 18 20  1  0
 20 21  2  0
 13 22  2  0
  7  2  1  0
 22  8  1  0
 21 15  1  0
  1 23  1  0
  3 24  1  0
  4 25  1  0
  5 26  1  0
  6 27  1  0
  9 28  1  0
 12 29  1  0
 14 30  1  0
 14 31  1  0
 16 32  1  0
 17 33  1  0
 19 34  1  0
 20 35  1  0
 21 36  1  0
M  END
>  <smiles>  (39) 
N=c1[nH]cccc1-c1cc(=O)[nH]c(Cc2ccc(O)cc2)n1

>  <score_type>  (39) 
oracle

>  <origin>  (39) 
adg

>  <m_score__min__energy>  (39) 
-7.7599999999999998

>  <m_primary>  (39) 
energy

$$$$
39:0
     RDKit          3D

 58 61  0  0  1  0  0  0  0  0999 V2000
   59.7720   32.9000   49.3900 C   0  0  0  0  0  0  0  0  0  0  0  0
   60.8740   33.6500   48.6720 C   0  0  0  0  0  0  0  0  0  0  0  0
   61.3410   32.8580   47.5210 N   0  0  0  0  0  0  0  0  0  0  0  0
   62.3940   33.4440   46.7450 C   0  0  0  0  0  0  0  0  0  0  0  0
   63.7520   32.8700   47.0850 C   0  0  0  0  0  0  0  0  0  0  0  0
   60.7360   31.5980   47.2610 C   0  0  0  0  0  0  0  0  0  0  0  0
   59.5280   31.6250   46.6640 N   0  0  0  0  0  0  0  0  0  0  0  0
   58.9000   30.4790   46.3860 C   0  0  0  0  0  0  0  0  0  0  0  0
   57.7290   30.5660   45.8050 N   0  0  0  0  0  0  0  0  0  0  0  0
   57.6390   30.5430   44.3590 C   0  0  2  0  0  0  0  0  0  0  0  0
   57.5770   31.9330   43.7780 C   0  0  0  0  0  0  0  0  0  0  0  0
   58.0150   32.9880   44.7250 C   0  0  0  0  0  0  0  0  0  0  0  0
   57.3100   33.2650   45.9030 C   0  0  0  0  0  0  0  0  0  0  0  0
   57.7960   34.2730   46.7360 C   0  0  0  0  0  0  0  0  0  0  0  0
   58.9450   34.9800   46.4070 C   0  0  0  0  0  0  0  0  0  0  0  0
   59.6460   34.7110   45.2460 C   0  0  0  0  0  0  0  0  0  0  0  0
   59.1680   33.7040   44.4030 C   0  0  0  0  0  0  0  0  0  0  0  0
   56.4790   29.6950   43.9870 C   0  0  0  0  0  0  0  0  0  0  0  0
   56.4660   29.1260   42.8440 O   0  0  0  0  0  0  0  0  0  0  0  0
   55.3900   29.4930   44.8460 O   0  0  0  0  0  0  0  0  0  0  0  0
   59.4310   29.2320   46.6850 C   0  0  0  0  0  0  0  0  0  0  0  0
   58.7440   27.9960   46.3820 C   0  0  0  0  0  0  0  0  0  0  0  0
   59.2790   26.7800   46.2000 N   0  0  0  0  0  0  0  0  0  0  0  0
   58.3020   25.8890   45.9360 C   0  0  0  0  0  0  0  0  0  0  0  0
   58.2400   24.5360   45.6700 C   0  0  0  0  0  0  0  0  0  0  0  0
   57.0210   23.8920   45.4310 C   0  0  0  0  0  0  0  0  0  0  0  0
   55.8300   24.5810   45.4500 C   0  0  0  0  0  0  0  0  0  0  0  0
   55.8900   25.9470   45.7180 C   0  0  0  0  0  0  0  0  0  0  0  0
   57.1040   26.5750   45.9530 C   0  0  0  0  0  0  0  0  0  0  0  0
   57.4140   27.8540   46.2280 N   0  0  0  0  0  0  0  0  0  0  0  0
   60.6670   29.2280   47.2960 C   0  0  0  0  0  0  0  0  0  0  0  0
   61.2580   30.4210   47.5530 N   0  0  0  0  0  0  0  0  0  0  0  0
   59.9117   32.9951   50.4769 H   0  0  0  0  0  0  0  0  0  0  0  0
   58.7965   33.3225   49.1073 H   0  0  0  0  0  0  0  0  0  0  0  0
   59.8072   31.8375   49.1073 H   0  0  0  0  0  0  0  0  0  0  0  0
   60.4883   34.6176   48.3184 H   0  0  0  0  0  0  0  0  0  0  0  0
   61.7123   33.8188   49.3639 H   0  0  0  0  0  0  0  0  0  0  0  0
   62.1906   33.2616   45.6795 H   0  0  0  0  0  0  0  0  0  0  0  0
   62.4189   34.5197   46.9734 H   0  0  0  0  0  0  0  0  0  0  0  0
   63.8664   32.8216   48.1780 H   0  0  0  0  0  0  0  0  0  0  0  0
   63.8388   31.8582   46.6621 H   0  0  0  0  0  0  0  0  0  0  0  0
   64.5381   33.5128   46.6621 H   0  0  0  0  0  0  0  0  0  0  0  0
   58.5498   30.1042   43.9255 H   0  0  0  0  0  0  0  0  0  0  0  0
   58.2264   31.9693   42.8909 H   0  0  0  0  0  0  0  0  0  0  0  0
   56.5242   32.1350   43.5313 H   0  0  0  0  0  0  0  0  0  0  0  0
   56.4001   32.7044   46.1636 H   0  0  0  0  0  0  0  0  0  0  0  0
   57.2611   34.5113   47.6672 H   0  0  0  0  0  0  0  0  0  0  0  0
   59.3045   35.7695   47.0833 H   0  0  0  0  0  0  0  0  0  0  0  0
   60.5559   35.2747   44.9925 H   0  0  0  0  0  0  0  0  0  0  0  0
   59.7083   33.4729   43.4731 H   0  0  0  0  0  0  0  0  0  0  0  0
   55.1780   30.0960   45.6350 H   0  0  0  0  0  0  0  0  0  0  0  0
   59.1708   23.9503   45.6453 H   0  0  0  0  0  0  0  0  0  0  0  0
   57.0146   22.8118   45.2235 H   0  0  0  0  0  0  0  0  0  0  0  0
   54.8716   24.0750   45.2617 H   0  0  0  0  0  0  0  0  0  0  0  0
   54.9612   26.5358   45.7435 H   0  0  0  0  0  0  0  0  0  0  0  0
   56.7160   28.6390   46.3140 H   0  0  0  0  0  0  0  0  0  0  0  0
   61.1601   28.2829   47.5675 H   0  0  0  0  0  0  0  0  0  0  0  0
   62.1890   30.3640   48.0150 H   0  0  0  0  0  0  0  0  0  0  0  0
  1  2  1  0
  2  3  1  0
  3  4  1  0
  4  5  1  0
  3  6  1  0
  6  7  2  0
  7  8  1  0
  8  9  2  0
  9 10  1  0
 10 11  1  0
 11 12  1  0
 12 13  2  0
 13 14  1  0
 14 15  2  0
 15 16  1  0
 16 17  2  0
 10 18  1  0
 18 19  2  0
 18 20  1  0
  8 21  1  0
 21 22  1  0
 22 23  2  0
 23 24  1  0
 24 25  2  0
 25 26  1  0
 26 27  2  0
 27 28  1  0
 28 29  2  0
 29 30  1  0
 21 31  2  0
 31 32  1  0
 32  6  1  0
 17 12  1  0
 30 22  1  0
 29 24  1  0
  1 33  1  0
  1 34  1  0
  1 35  1  0
  2 36  1  0
  2 37  1  0
  4 38  1  0
  4 39  1  0
  5 40  1  0
  5 41  1  0
  5 42  1  0
 10 43  1  6
 11 44  1  0
 11 45  1  0
 13 46  1  0
 14 47  1  0
 15 48  1  0
 16 49  1  0
 17 50  1  0
 20 51  1  0
 25 52  1  0
 26 53  1  0
 27 54  1  0
 28 55  1  0
 30 56  1  0
 31 57  1  0
 32 58  1  0
M  END
>  <smiles>  (40) 
CCN(CC)c1nc(=NC(Cc2ccccc2)C(=O)O)c(-c2nc3ccccc3[nH]2)c[nH]1

>  <score_type>  (40) 
oracle

>  <origin>  (40) 
adg

>  <m_score__min__energy>  (40) 
-9.4499999999999993

>  <m_primary>  (40) 
energy

$$$$
40:0
     RDKit          3D

 42 43  0  0  0  0  0  0  0  0999 V2000
   60.8090   29.8970   48.4410 C   0  0  0  0  0  0  0  0  0  0  0  0
   59.5440   29.4730   48.5160 C   0  0  0  0  0  0  0  0  0  0  0  0
   58.6150   29.9650   49.5880 C   0  0  0  0  0  0  0  0  0  0  0  0
   59.0190   31.2890   50.0530 N   0  0  0  0  0  0  0  0  0  0  0  0
   58.7820   32.5190   49.3550 C   0  0  0  0  0  0  0  0  0  0  0  0
   57.7970   32.5840   48.5720 O   0  0  0  0  0  0  0  0  0  0  0  0
   59.6890   33.7130   49.5410 C   0  0  0  0  0  0  0  0  0  0  0  0
   61.0560   33.5090   48.9090 C   0  0  0  0  0  0  0  0  0  0  0  0
   62.0340   32.8830   49.6960 C   0  0  0  0  0  0  0  0  0  0  0  0
   63.2810   32.6220   49.1490 C   0  0  0  0  0  0  0  0  0  0  0  0
   64.1740   32.0640   49.8390 O   0  0  0  0  0  0  0  0  0  0  0  0
   63.5340   32.9620   47.8660 N   0  0  0  0  0  0  0  0  0  0  0  0
   62.5940   33.5610   47.0910 C   0  0  0  0  0  0  0  0  0  0  0  0
   62.8920   33.8420   45.8980 O   0  0  0  0  0  0  0  0  0  0  0  0
   61.3460   33.8480   47.5980 N   0  0  0  0  0  0  0  0  0  0  0  0
   60.3430   34.5100   46.7310 C   0  0  0  0  0  0  0  0  0  0  0  0
   59.4930   33.5020   46.0010 C   0  0  0  0  0  0  0  0  0  0  0  0
   59.6800   32.1250   46.2130 C   0  0  0  0  0  0  0  0  0  0  0  0
   58.8860   31.1940   45.5400 C   0  0  0  0  0  0  0  0  0  0  0  0
   57.9110   31.6230   44.6300 C   0  0  0  0  0  0  0  0  0  0  0  0
   56.8830   30.4540   43.8090 S   0  0  0  0  0  0  0  0  0  0  0  0
   57.6510   28.9050   43.8280 N   0  0  0  0  0  0  0  0  0  0  0  0
   55.5570   30.3660   44.5120 O   0  0  0  0  0  0  0  0  0  0  0  0
   56.6500   30.8860   42.3880 O   0  0  0  0  0  0  0  0  0  0  0  0
   57.7380   32.9940   44.3980 C   0  0  0  0  0  0  0  0  0  0  0  0
   58.5290   33.9270   45.0730 C   0  0  0  0  0  0  0  0  0  0  0  0
   61.4690   29.5207   47.6455 H   0  0  0  0  0  0  0  0  0  0  0  0
   61.1904   30.6224   49.1748 H   0  0  0  0  0  0  0  0  0  0  0  0
   59.1751   28.7475   47.7760 H   0  0  0  0  0  0  0  0  0  0  0  0
   57.5937   30.0205   49.1833 H   0  0  0  0  0  0  0  0  0  0  0  0
   58.6518   29.2657   50.4363 H   0  0  0  0  0  0  0  0  0  0  0  0
   59.2146   34.5917   49.0797 H   0  0  0  0  0  0  0  0  0  0  0  0
   59.8380   33.8547   50.6216 H   0  0  0  0  0  0  0  0  0  0  0  0
   61.8138   32.6021   50.7365 H   0  0  0  0  0  0  0  0  0  0  0  0
   59.6928   35.1414   47.3543 H   0  0  0  0  0  0  0  0  0  0  0  0
   60.8779   35.1157   45.9846 H   0  0  0  0  0  0  0  0  0  0  0  0
   60.4555   31.7792   46.9123 H   0  0  0  0  0  0  0  0  0  0  0  0
   59.0267   30.1189   45.7252 H   0  0  0  0  0  0  0  0  0  0  0  0
   58.3080   28.8810   43.0170 H   0  0  0  0  0  0  0  0  0  0  0  0
   56.9100   28.1940   43.6370 H   0  0  0  0  0  0  0  0  0  0  0  0
   56.9767   33.3369   43.6819 H   0  0  0  0  0  0  0  0  0  0  0  0
   58.3957   35.0010   44.8762 H   0  0  0  0  0  0  0  0  0  0  0  0
  1  2  2  0
  2  3  1  0
  3  4  1  0
  4  5  1  0
  5  6  2  0
  5  7  1  0
  7  8  1  0
  8  9  2  0
  9 10  1  0
 10 11  2  0
 10 12  1  0
 12 13  1  0
 13 14  2  0
 13 15  1  0
 15 16  1  0
 16 17  1  0
 17 18  2  0
 18 19  1  0
 19 20  2  0
 20 21  1  0
 21 22  1  0
 21 23  2  0
 21 24  2  0
 20 25  1  0
 25 26  2  0
 15  8  1  0
 26 17  1  0
  1 27  1  0
  1 28  1  0
  2 29  1  0
  3 30  1  0
  3 31  1  0
  7 32  1  0
  7 33  1  0
  9 34  1  0
 16 35  1  0
 16 36  1  0
 18 37  1  0
 19 38  1  0
 22 39  1  0
 22 40  1  0
 25 41  1  0
 26 42  1  0
M  CHG  2   4  -1  12  -1
M  END
>  <UniqueID>  (41) 
36

>  <SMILES>  (41) 
C=CC[N-]C(=O)Cc1cc(=O)[n-]c(=O)n1Cc1ccc(S(N)(=O)=O)cc1

>  <Energy>  (41) 
40.1129165236486

>  <Genealogy>  (41) 
C=CC[N-]C(=O)Cc1cc(=O)[n-]c(=O)n1Cc1ccc(S(N)(=O)=O)cc1 (protonated)
C=CC[N-]C(=O)Cc1cc(=O)[n-]c(=O)n1Cc1ccc(S(N)(=O)=O)cc1 (3D coordinates assigned)
C=CC[N-]C(=O)Cc1cc(=O)[n-]c(=O)n1Cc1ccc(S(N)(=O)=O)cc1 (optimized conformer: 40.1129165236486 kcal/mol)

>  <smiles>  (41) 
C=CCNC(=O)Cc1cc(=O)[nH]c(=O)n1Cc1ccc(S(N)(=O)=O)cc1

>  <score_type>  (41) 
oracle

>  <origin>  (41) 
adg

>  <m_score__min__energy>  (41) 
-10.609999999999999

>  <m_primary>  (41) 
energy

$$$$
41:0
     RDKit          3D

 25 26  0  0  0  0  0  0  0  0999 V2000
   59.3650   35.3020   47.0820 N   0  0  0  0  0  0  0  0  0  0  0  0
   58.8180   34.2340   46.3020 C   0  0  0  0  0  0  0  0  0  0  0  0
   58.2850   33.1010   46.9330 C   0  0  0  0  0  0  0  0  0  0  0  0
   57.7520   32.0570   46.1730 C   0  0  0  0  0  0  0  0  0  0  0  0
   57.7360   32.1380   44.7710 C   0  0  0  0  0  0  0  0  0  0  0  0
   57.2000   30.9970   43.9510 C   0  0  0  0  0  0  0  0  0  0  0  0
   57.4360   29.7300   44.6420 N   0  0  0  0  0  0  0  0  0  0  0  0
   56.5200   28.8220   45.0300 C   0  0  0  0  0  0  0  0  0  0  0  0
   55.1460   28.9760   44.8880 O   0  0  0  0  0  0  0  0  0  0  0  0
   57.1550   27.7260   45.5750 C   0  0  0  0  0  0  0  0  0  0  0  0
   58.4840   27.9450   45.5190 N   0  0  0  0  0  0  0  0  0  0  0  0
   58.6200   29.1570   44.9450 C   0  0  0  0  0  0  0  0  0  0  0  0
   59.7370   29.6910   44.7120 O   0  0  0  0  0  0  0  0  0  0  0  0
   58.2810   33.2680   44.1410 C   0  0  0  0  0  0  0  0  0  0  0  0
   58.8140   34.3110   44.9030 C   0  0  0  0  0  0  0  0  0  0  0  0
   58.7510   36.0650   47.4470 H   0  0  0  0  0  0  0  0  0  0  0  0
   60.3850   35.3370   47.2990 H   0  0  0  0  0  0  0  0  0  0  0  0
   58.2865   33.0339   48.0309 H   0  0  0  0  0  0  0  0  0  0  0  0
   57.3431   31.1677   46.6749 H   0  0  0  0  0  0  0  0  0  0  0  0
   56.1190   31.1335   43.7997 H   0  0  0  0  0  0  0  0  0  0  0  0
   57.7136   30.9789   42.9785 H   0  0  0  0  0  0  0  0  0  0  0  0
   56.6636   26.8306   45.9835 H   0  0  0  0  0  0  0  0  0  0  0  0
   59.2430   27.3050   45.8410 H   0  0  0  0  0  0  0  0  0  0  0  0
   58.2885   33.3326   43.0429 H   0  0  0  0  0  0  0  0  0  0  0  0
   59.2324   35.1966   44.4022 H   0  0  0  0  0  0  0  0  0  0  0  0
  1  2  1  0
  2  3  2  0
  3  4  1  0
  4  5  2  0
  5  6  1  0
  6  7  1  0
  7  8  1  0
  8  9  1  0
  8 10  2  0
 10 11  1  0
 11 12  1  0
 12 13  2  0
  5 14  1  0
 14 15  2  0
 15  2  1  0
 12  7  1  0
  1 16  1  0
  1 17  1  0
  3 18  1  0
  4 19  1  0
  6 20  1  0
  6 21  1  0
 10 22  1  0
 11 23  1  0
 14 24  1  0
 15 25  1  0
M  CHG  1   9  -1
M  END
>  <UniqueID>  (42) 
37

>  <SMILES>  (42) 
Nc1ccc(Cn2c([O-])c[nH]c2=O)cc1

>  <Energy>  (42) 
56.27831375807442

>  <Genealogy>  (42) 
Nc1ccc(Cn2c([O-])c[nH]c2=O)cc1 (protonated)
Nc1ccc(Cn2c([O-])c[nH]c2=O)cc1 (3D coordinates assigned)
Nc1ccc(Cn2c([O-])c[nH]c2=O)cc1 (optimized conformer: 56.27831375807442 kcal/mol)

>  <smiles>  (42) 
Nc1ccc(Cn2c(O)c[nH]c2=O)cc1

>  <score_type>  (42) 
oracle

>  <origin>  (42) 
adg

>  <m_score__min__energy>  (42) 
-8.7200000000000006

>  <m_primary>  (42) 
energy

$$$$
42:0
     RDKit          3D

 56 59  0  0  0  0  0  0  0  0999 V2000
   54.0290   26.3170   46.3750 H   0  0  0  0  0  0  0  0  0  0  0  0
   55.0000   26.5800   46.2550 O   0  0  0  0  0  0  0  0  0  0  0  0
   56.0330   25.6630   46.4310 C   0  0  0  0  0  0  0  0  0  0  0  0
   55.8370   24.3340   46.4630 N   0  0  0  0  0  0  0  0  0  0  0  0
   57.0720   23.8560   46.7230 C   0  0  0  0  0  0  0  0  0  0  0  0
   57.3120   22.6250   46.8380 O   0  0  0  0  0  0  0  0  0  0  0  0
   58.0300   24.7980   46.8570 N   0  0  0  0  0  0  0  0  0  0  0  0
   57.3660   25.9480   46.6490 C   0  0  0  0  0  0  0  0  0  0  0  0
   58.0040   27.2730   46.7240 C   0  0  0  0  0  0  0  0  0  0  0  0
   58.8093   27.4217   47.4584 H   0  0  0  0  0  0  0  0  0  0  0  0
   57.6550   28.3130   45.9420 C   0  0  0  0  0  0  0  0  0  0  0  0
   56.5430   28.3750   45.1100 C   0  0  0  0  0  0  0  0  0  0  0  0
   55.7697   27.6024   44.9872 H   0  0  0  0  0  0  0  0  0  0  0  0
   56.5990   29.5960   44.4680 C   0  0  0  0  0  0  0  0  0  0  0  0
   55.5910   30.0880   43.4740 C   0  0  0  0  0  0  0  0  0  0  0  0
   54.7263   30.5101   44.0070 H   0  0  0  0  0  0  0  0  0  0  0  0
   56.0474   30.8646   42.8427 H   0  0  0  0  0  0  0  0  0  0  0  0
   55.2595   29.2504   42.8427 H   0  0  0  0  0  0  0  0  0  0  0  0
   57.6880   30.2890   44.8660 N   0  0  0  0  0  0  0  0  0  0  0  0
   58.0650   31.5950   44.4000 C   0  0  0  0  0  0  0  0  0  0  0  0
   57.9900   31.8540   43.1680 O   0  0  0  0  0  0  0  0  0  0  0  0
   58.5080   32.6070   45.3250 N   0  0  0  0  0  0  0  0  0  0  0  0
   57.9790   32.5970   46.6960 C   0  0  0  0  0  0  0  0  0  0  0  0
   56.8877   32.7305   46.6603 H   0  0  0  0  0  0  0  0  0  0  0  0
   58.2374   31.6345   47.1617 H   0  0  0  0  0  0  0  0  0  0  0  0
   58.5900   33.7170   47.5320 C   0  0  0  0  0  0  0  0  0  0  0  0
   58.1031   34.6721   47.2855 H   0  0  0  0  0  0  0  0  0  0  0  0
   58.4447   33.5108   48.6027 H   0  0  0  0  0  0  0  0  0  0  0  0
   60.0270   33.7980   47.2240 N   0  0  0  0  0  0  0  0  0  0  0  0
   60.7470   34.6140   48.2230 C   0  0  0  0  0  0  0  0  0  0  0  0
   61.1326   35.5232   47.7385 H   0  0  0  0  0  0  0  0  0  0  0  0
   60.0520   34.8829   49.0322 H   0  0  0  0  0  0  0  0  0  0  0  0
   61.9030   33.8320   48.8080 C   0  0  0  0  0  0  0  0  0  0  0  0
   61.8210   33.4460   50.1590 C   0  0  0  0  0  0  0  0  0  0  0  0
   60.9275   33.7062   50.7455 H   0  0  0  0  0  0  0  0  0  0  0  0
   62.8600   32.7370   50.7630 C   0  0  0  0  0  0  0  0  0  0  0  0
   62.7839   32.4447   51.8207 H   0  0  0  0  0  0  0  0  0  0  0  0
   63.9940   32.3990   50.0270 C   0  0  0  0  0  0  0  0  0  0  0  0
   64.8121   31.8401   50.5050 H   0  0  0  0  0  0  0  0  0  0  0  0
   64.0940   32.7680   48.6850 C   0  0  0  0  0  0  0  0  0  0  0  0
   64.9911   32.4936   48.1106 H   0  0  0  0  0  0  0  0  0  0  0  0
   63.0600   33.4870   48.0590 C   0  0  0  0  0  0  0  0  0  0  0  0
   63.2080   33.8610   46.6080 C   0  0  0  0  0  0  0  0  0  0  0  0
   63.6118   34.8814   46.5317 H   0  0  0  0  0  0  0  0  0  0  0  0
   63.8953   33.1570   46.1161 H   0  0  0  0  0  0  0  0  0  0  0  0
   62.2250   33.8179   46.1161 H   0  0  0  0  0  0  0  0  0  0  0  0
   60.2350   34.3430   45.8650 C   0  0  0  0  0  0  0  0  0  0  0  0
   60.1157   35.4358   45.9048 H   0  0  0  0  0  0  0  0  0  0  0  0
   61.2458   34.0484   45.5464 H   0  0  0  0  0  0  0  0  0  0  0  0
   59.2420   33.7780   44.8220 C   0  0  0  0  0  0  0  0  0  0  0  0
   58.5178   34.5639   44.5615 H   0  0  0  0  0  0  0  0  0  0  0  0
   59.8227   33.4587   43.9440 H   0  0  0  0  0  0  0  0  0  0  0  0
   58.3520   29.5100   45.7580 C   0  0  0  0  0  0  0  0  0  0  0  0
   59.5130   29.8560   46.3380 C   0  0  0  0  0  0  0  0  0  0  0  0
   59.9701   30.8314   46.1149 H   0  0  0  0  0  0  0  0  0  0  0  0
   60.0068   29.1640   47.0361 H   0  0  0  0  0  0  0  0  0  0  0  0
  1  2  1  0
  2  3  1  0
  3  4  1  0
  4  5  1  0
  5  6  2  0
  5  7  1  0
  7  8  1  0
  8  9  1  0
  9 10  1  0
  9 11  2  0
 11 12  1  0
 12 13  1  0
 12 14  2  0
 14 15  1  0
 15 16  1  0
 15 17  1  0
 15 18  1  0
 14 19  1  0
 19 20  1  0
 20 21  2  0
 20 22  1  0
 22 23  1  0
 23 24  1  0
 23 25  1  0
 23 26  1  0
 26 27  1  0
 26 28  1  0
 26 29  1  0
 29 30  1  0
 30 31  1  0
 30 32  1  0
 30 33  1  0
 33 34  2  0
 34 35  1  0
 34 36  1  0
 36 37  1  0
 36 38  2  0
 38 39  1  0
 38 40  1  0
 40 41  1  0
 40 42  2  0
 42 43  1  0
 43 44  1  0
 43 45  1  0
 43 46  1  0
 29 47  1  0
 47 48  1  0
 47 49  1  0
 47 50  1  0
 50 51  1  0
 50 52  1  0
 19 53  1  0
 53 54  2  0
 54 55  1  0
 54 56  1  0
  8  3  2  0
 53 11  1  0
 50 22  1  0
 42 33  1  0
M  CHG  2   4  -1   7  -1
M  END
>  <UniqueID>  (43) 
38

>  <SMILES>  (43) 
C=c1/c(=C/c2[n-]c(=O)[n-]c2O)cc(C)n1C(=O)N1CCN(Cc2ccccc2C)CC1

>  <Energy>  (43) 
134.97387701721468

>  <Genealogy>  (43) 
C=c1c(=Cc2[n-]c(=O)[n-]c2O)cc(C)n1C(=O)N1CCN(Cc2ccccc2C)CC1 (protonated)
C=c1/c(=C/c2[n-]c(=O)[n-]c2O)cc(C)n1C(=O)N1CCN(Cc2ccccc2C)CC1 (cis-trans isomerization)
C=c1/c(=C/c2[n-]c(=O)[n-]c2O)cc(C)n1C(=O)N1CCN(Cc2ccccc2C)CC1 (3D coordinates assigned)
C=c1/c(=C/c2[n-]c(=O)[n-]c2O)cc(C)n1C(=O)N1CCN(Cc2ccccc2C)CC1 (nonaromatic ring conformer: 134.97387701721468 kcal/mol)

>  <smiles>  (43) 
C=c1c(=Cc2[nH]c(=O)[nH]c2O)cc(C)n1C(=O)N1CCN(Cc2ccccc2C)CC1

>  <score_type>  (43) 
oracle

>  <origin>  (43) 
adg

>  <m_score__min__energy>  (43) 
-14.69

>  <m_primary>  (43) 
energy

$$$$
43:0
     RDKit          3D

 73 76  0  0  0  0  0  0  0  0999 V2000
   57.0530   33.4490   42.9300 H   0  0  0  0  0  0  0  0  0  0  0  0
   57.8230   32.8020   43.0240 O   0  0  0  0  0  0  0  0  0  0  0  0
   58.0850   32.0790   44.1900 C   0  0  0  0  0  0  0  0  0  0  0  0
   58.1320   30.6830   44.1020 C   0  0  0  0  0  0  0  0  0  0  0  0
   57.9437   30.1920   43.1358 H   0  0  0  0  0  0  0  0  0  0  0  0
   58.4150   29.9080   45.2260 C   0  0  0  0  0  0  0  0  0  0  0  0
   58.4648   28.8126   45.1388 H   0  0  0  0  0  0  0  0  0  0  0  0
   58.6360   30.5210   46.4660 C   0  0  0  0  0  0  0  0  0  0  0  0
   58.9780   29.7140   47.6500 C   0  0  0  0  0  0  0  0  0  0  0  0
   58.4152   29.9067   48.5753 H   0  0  0  0  0  0  0  0  0  0  0  0
   59.9220   28.7630   47.6870 C   0  0  0  0  0  0  0  0  0  0  0  0
   60.1977   28.3703   48.6768 H   0  0  0  0  0  0  0  0  0  0  0  0
   60.6300   28.1910   46.5120 C   0  0  0  0  0  0  0  0  0  0  0  0
   61.0420   28.9290   45.5780 O   0  0  0  0  0  0  0  0  0  0  0  0
   60.9280   26.7470   46.4390 C   0  0  0  0  0  0  0  0  0  0  0  0
   61.9599   26.4328   46.6547 H   0  0  0  0  0  0  0  0  0  0  0  0
   60.0430   25.7860   46.1310 C   0  0  0  0  0  0  0  0  0  0  0  0
   60.4431   24.7947   45.8717 H   0  0  0  0  0  0  0  0  0  0  0  0
   58.5730   25.9520   46.1120 C   0  0  0  0  0  0  0  0  0  0  0  0
   57.9760   27.1520   45.6900 C   0  0  0  0  0  0  0  0  0  0  0  0
   58.6073   28.0018   45.3913 H   0  0  0  0  0  0  0  0  0  0  0  0
   56.5860   27.2710   45.6480 C   0  0  0  0  0  0  0  0  0  0  0  0
   56.1269   28.2190   45.3309 H   0  0  0  0  0  0  0  0  0  0  0  0
   55.7750   26.1910   46.0070 C   0  0  0  0  0  0  0  0  0  0  0  0
   54.3920   26.3360   45.9620 O   0  0  0  0  0  0  0  0  0  0  0  0
   56.3560   24.9720   46.4040 C   0  0  0  0  0  0  0  0  0  0  0  0
   55.4930   23.7930   46.7830 C   0  0  0  0  0  0  0  0  0  0  0  0
   54.4943   24.1567   47.0662 H   0  0  0  0  0  0  0  0  0  0  0  0
   55.9708   23.2702   47.6247 H   0  0  0  0  0  0  0  0  0  0  0  0
   55.3550   22.8210   45.6360 C   0  0  0  0  0  0  0  0  0  0  0  0
   54.5007   22.1283   45.6529 H   0  0  0  0  0  0  0  0  0  0  0  0
   56.2070   22.7420   44.5900 C   0  0  0  0  0  0  0  0  0  0  0  0
   55.9130   23.5630   43.3610 C   0  0  0  0  0  0  0  0  0  0  0  0
   55.5563   24.5590   43.6621 H   0  0  0  0  0  0  0  0  0  0  0  0
   56.8296   23.6674   42.7619 H   0  0  0  0  0  0  0  0  0  0  0  0
   55.1385   23.0618   42.7619 H   0  0  0  0  0  0  0  0  0  0  0  0
   57.4260   21.8520   44.6130 C   0  0  0  0  0  0  0  0  0  0  0  0
   57.7093   21.6451   45.6556 H   0  0  0  0  0  0  0  0  0  0  0  0
   57.1989   20.9058   44.1001 H   0  0  0  0  0  0  0  0  0  0  0  0
   58.2581   22.3565   44.1001 H   0  0  0  0  0  0  0  0  0  0  0  0
   57.7570   24.8640   46.4520 C   0  0  0  0  0  0  0  0  0  0  0  0
   58.2184   23.9142   46.7601 H   0  0  0  0  0  0  0  0  0  0  0  0
   58.6060   31.9180   46.5630 C   0  0  0  0  0  0  0  0  0  0  0  0
   58.8054   32.4007   47.5311 H   0  0  0  0  0  0  0  0  0  0  0  0
   58.3230   32.7120   45.4330 C   0  0  0  0  0  0  0  0  0  0  0  0
   58.2150   34.1850   45.5670 C   0  0  0  0  0  0  0  0  0  0  0  0
   57.2397   34.6618   45.3899 H   0  0  0  0  0  0  0  0  0  0  0  0
   59.2610   34.9590   45.8960 C   0  0  0  0  0  0  0  0  0  0  0  0
   59.3182   35.9687   45.4634 H   0  0  0  0  0  0  0  0  0  0  0  0
   60.3440   34.5250   46.8120 C   0  0  0  0  0  0  0  0  0  0  0  0
   60.1250   34.6020   48.1950 C   0  0  0  0  0  0  0  0  0  0  0  0
   59.1598   34.9687   48.5743 H   0  0  0  0  0  0  0  0  0  0  0  0
   61.1220   34.2170   49.0960 C   0  0  0  0  0  0  0  0  0  0  0  0
   60.9384   34.2914   50.1780 H   0  0  0  0  0  0  0  0  0  0  0  0
   62.3560   33.7360   48.6300 C   0  0  0  0  0  0  0  0  0  0  0  0
   63.3870   33.3550   49.5650 N   0  0  0  0  0  0  0  0  0  0  0  0
   64.2340   32.1920   49.2730 C   0  0  0  0  0  0  0  0  0  0  0  0
   63.7229   31.2762   49.6048 H   0  0  0  0  0  0  0  0  0  0  0  0
   64.4202   32.1429   48.1900 H   0  0  0  0  0  0  0  0  0  0  0  0
   65.5720   32.3220   50.0090 C   0  0  0  0  0  0  0  0  0  0  0  0
   66.1358   31.3839   49.8990 H   0  0  0  0  0  0  0  0  0  0  0  0
   66.1325   33.1616   49.5720 H   0  0  0  0  0  0  0  0  0  0  0  0
   65.3700   32.5820   51.3850 O   0  0  0  0  0  0  0  0  0  0  0  0
   64.7450   33.8410   51.5480 C   0  0  0  0  0  0  0  0  0  0  0  0
   64.6815   34.0765   52.6206 H   0  0  0  0  0  0  0  0  0  0  0  0
   65.3419   34.6026   51.0249 H   0  0  0  0  0  0  0  0  0  0  0  0
   63.3340   33.8260   50.9520 C   0  0  0  0  0  0  0  0  0  0  0  0
   62.6951   33.1527   51.5424 H   0  0  0  0  0  0  0  0  0  0  0  0
   62.9188   34.8444   50.9746 H   0  0  0  0  0  0  0  0  0  0  0  0
   62.5660   33.6280   47.2470 C   0  0  0  0  0  0  0  0  0  0  0  0
   63.5217   33.2355   46.8695 H   0  0  0  0  0  0  0  0  0  0  0  0
   61.5710   34.0150   46.3450 C   0  0  0  0  0  0  0  0  0  0  0  0
   61.7473   33.9207   45.2633 H   0  0  0  0  0  0  0  0  0  0  0  0
  1  2  1  0
  2  3  1  0
  3  4  2  0
  4  5  1  0
  4  6  1  0
  6  7  1  0
  6  8  2  0
  8  9  1  0
  9 10  1  0
  9 11  2  3
 11 12  1  0
 11 13  1  0
 13 14  2  0
 13 15  1  0
 15 16  1  0
 15 17  2  3
 17 18  1  0
 17 19  1  0
 19 20  2  0
 20 21  1  0
 20 22  1  0
 22 23  1  0
 22 24  2  0
 24 25  1  0
 24 26  1  0
 26 27  1  0
 27 28  1  0
 27 29  1  0
 27 30  1  0
 30 31  1  0
 30 32  2  3
 32 33  1  0
 33 34  1  0
 33 35  1  0
 33 36  1  0
 32 37  1  0
 37 38  1  0
 37 39  1  0
 37 40  1  0
 26 41  2  0
 41 42  1  0
  8 43  1  0
 43 44  1  0
 43 45  2  0
 45 46  1  0
 46 47  1  0
 46 48  2  0
 48 49  1  0
 48 50  1  0
 50 51  2  0
 51 52  1  0
 51 53  1  0
 53 54  1  0
 53 55  2  0
 55 56  1  0
 56 57  1  0
 57 58  1  0
 57 59  1  0
 57 60  1  0
 60 61  1  0
 60 62  1  0
 60 63  1  0
 63 64  1  0
 64 65  1  0
 64 66  1  0
 64 67  1  0
 67 68  1  0
 67 69  1  0
 55 70  1  0
 70 71  1  0
 70 72  2  0
 72 73  1  0
 45  3  1  0
 72 50  1  0
 41 19  1  0
 67 56  1  0
M  CHG  1  25  -1
M  END
>  <UniqueID>  (44) 
39

>  <SMILES>  (44) 
CC(C)=CCc1cc(C=CC(=O)C=Cc2ccc(O)c(/C=C/c3ccc(N4CCOCC4)cc3)c2)ccc1[O-]

>  <Energy>  (44) 
101.7402506643949

>  <Genealogy>  (44) 
CC(C)=CCc1cc(C=CC(=O)C=Cc2ccc(O)c(C=Cc3ccc(N4CCOCC4)cc3)c2)ccc1[O-] (protonated)
CC(C)=CCc1cc(C=CC(=O)C=Cc2ccc(O)c(/C=C/c3ccc(N4CCOCC4)cc3)c2)ccc1[O-] (cis-trans isomerization)
CC(C)=CCc1cc(C=CC(=O)C=Cc2ccc(O)c(/C=C/c3ccc(N4CCOCC4)cc3)c2)ccc1[O-] (3D coordinates assigned)
CC(C)=CCc1cc(C=CC(=O)C=Cc2ccc(O)c(/C=C/c3ccc(N4CCOCC4)cc3)c2)ccc1[O-] (nonaromatic ring conformer: 101.7402506643949 kcal/mol)

>  <smiles>  (44) 
CC(C)=CCc1cc(C=CC(=O)C=Cc2ccc(O)c(C=Cc3ccc(N4CCOCC4)cc3)c2)ccc1O

>  <score_type>  (44) 
oracle

>  <origin>  (44) 
adg

>  <m_score__min__energy>  (44) 
-13.380000000000001

>  <m_primary>  (44) 
energy

$$$$
44:0
     RDKit          3D

 43 45  0  0  0  0  0  0  0  0999 V2000
   57.0380   23.1870   47.4290 N   0  0  0  0  0  0  0  0  0  0  0  0
   56.0300   24.0860   46.9740 C   0  0  0  0  0  0  0  0  0  0  0  0
   54.8200   23.7350   47.0090 O   0  0  0  0  0  0  0  0  0  0  0  0
   56.3940   25.4210   46.4720 C   0  0  0  0  0  0  0  0  0  0  0  0
   57.6720   25.9250   46.3450 C   0  0  0  0  0  0  0  0  0  0  0  0
   57.5260   27.1990   45.8220 C   0  0  0  0  0  0  0  0  0  0  0  0
   58.6300   28.1110   45.4970 C   0  0  0  0  0  0  0  0  0  0  0  0
   58.4060   29.1420   44.8070 O   0  0  0  0  0  0  0  0  0  0  0  0
   59.9550   27.8260   45.9610 N   0  0  0  0  0  0  0  0  0  0  0  0
   60.4090   28.0870   47.3220 C   0  0  0  0  0  0  0  0  0  0  0  0
   60.3120   29.5560   47.6320 C   0  0  0  0  0  0  0  0  0  0  0  0
   61.2620   30.4580   47.1300 C   0  0  0  0  0  0  0  0  0  0  0  0
   61.1760   31.8190   47.4390 C   0  0  0  0  0  0  0  0  0  0  0  0
   60.1420   32.2930   48.2570 C   0  0  0  0  0  0  0  0  0  0  0  0
   60.0420   34.0120   48.6280 S   0  0  0  0  0  0  0  0  0  0  0  0
   61.4120   34.6100   48.4770 O   0  0  0  0  0  0  0  0  0  0  0  0
   59.5840   34.2070   50.0480 O   0  0  0  0  0  0  0  0  0  0  0  0
   58.9320   34.7900   47.5210 N   0  0  0  0  0  0  0  0  0  0  0  0
   59.6410   35.2900   46.3400 C   0  0  0  0  0  0  0  0  0  0  0  0
   59.5830   34.2160   45.2640 C   0  0  0  0  0  0  0  0  0  0  0  0
   58.4450   33.2960   45.6720 C   0  0  0  0  0  0  0  0  0  0  0  0
   58.9010   31.9960   45.8080 F   0  0  0  0  0  0  0  0  0  0  0  0
   57.4300   33.3280   44.7310 F   0  0  0  0  0  0  0  0  0  0  0  0
   57.9470   33.8260   47.0140 C   0  0  0  0  0  0  0  0  0  0  0  0
   59.1870   31.3940   48.7570 C   0  0  0  0  0  0  0  0  0  0  0  0
   59.2730   30.0340   48.4480 C   0  0  0  0  0  0  0  0  0  0  0  0
   56.2270   27.5040   45.6200 N   0  0  0  0  0  0  0  0  0  0  0  0
   55.5460   26.4130   46.0190 C   0  0  0  0  0  0  0  0  0  0  0  0
   54.1610   26.3250   45.9690 O   0  0  0  0  0  0  0  0  0  0  0  0
   57.6300   23.4200   48.2570 H   0  0  0  0  0  0  0  0  0  0  0  0
   58.6133   25.4190   46.6056 H   0  0  0  0  0  0  0  0  0  0  0  0
   59.7805   27.5248   48.0283 H   0  0  0  0  0  0  0  0  0  0  0  0
   61.4581   27.7699   47.4163 H   0  0  0  0  0  0  0  0  0  0  0  0
   62.0787   30.0927   46.4900 H   0  0  0  0  0  0  0  0  0  0  0  0
   61.9229   32.5201   47.0384 H   0  0  0  0  0  0  0  0  0  0  0  0
   59.1577   36.2087   45.9762 H   0  0  0  0  0  0  0  0  0  0  0  0
   60.6865   35.5205   46.5924 H   0  0  0  0  0  0  0  0  0  0  0  0
   59.3800   34.6666   44.2813 H   0  0  0  0  0  0  0  0  0  0  0  0
   60.5358   33.6734   45.1763 H   0  0  0  0  0  0  0  0  0  0  0  0
   56.9746   34.3226   46.8805 H   0  0  0  0  0  0  0  0  0  0  0  0
   57.8240   32.9978   47.7274 H   0  0  0  0  0  0  0  0  0  0  0  0
   58.3687   31.7611   49.3938 H   0  0  0  0  0  0  0  0  0  0  0  0
   58.5234   29.3340   48.8457 H   0  0  0  0  0  0  0  0  0  0  0  0
  1  2  1  0
  2  3  2  0
  2  4  1  0
  4  5  1  0
  5  6  2  0
  6  7  1  0
  7  8  2  0
  7  9  1  0
  9 10  1  0
 10 11  1  0
 11 12  2  0
 12 13  1  0
 13 14  2  0
 14 15  1  0
 15 16  2  0
 15 17  2  0
 15 18  1  0
 18 19  1  0
 19 20  1  0
 20 21  1  0
 21 22  1  0
 21 23  1  0
 21 24  1  0
 14 25  1  0
 25 26  2  0
  6 27  1  0
 27 28  1  0
 28 29  1  0
 28  4  2  0
 26 11  1  0
 24 18  1  0
  1 30  1  0
  5 31  1  0
 10 32  1  0
 10 33  1  0
 12 34  1  0
 13 35  1  0
 19 36  1  0
 19 37  1  0
 20 38  1  0
 20 39  1  0
 24 40  1  0
 24 41  1  0
 25 42  1  0
 26 43  1  0
M  CHG  4   1  -1   9  -1  27  -1  29  -1
M  END
>  <UniqueID>  (45) 
40

>  <SMILES>  (45) 
[NH-]C(=O)c1cc(C(=O)[N-]Cc2ccc(S(=O)(=O)N3CCC(F)(F)C3)cc2)[n-]c1[O-]

>  <Energy>  (45) 
67.72844703879005

>  <Genealogy>  (45) 
[NH-]C(=O)c1cc(C(=O)[N-]Cc2ccc(S(=O)(=O)N3CCC(F)(F)C3)cc2)[n-]c1[O-] (protonated)
[NH-]C(=O)c1cc(C(=O)[N-]Cc2ccc(S(=O)(=O)N3CCC(F)(F)C3)cc2)[n-]c1[O-] (3D coordinates assigned)
[NH-]C(=O)c1cc(C(=O)[N-]Cc2ccc(S(=O)(=O)N3CCC(F)(F)C3)cc2)[n-]c1[O-] (nonaromatic ring conformer: 67.72844703879005 kcal/mol)

>  <smiles>  (45) 
NC(=O)c1cc(C(=O)NCc2ccc(S(=O)(=O)N3CCC(F)(F)C3)cc2)[nH]c1O

>  <score_type>  (45) 
oracle

>  <origin>  (45) 
adg

>  <m_score__min__energy>  (45) 
-19.010000000000002

>  <m_primary>  (45) 
energy

$$$$
45:0
     RDKit          3D

 60 63  0  0  1  0  0  0  0  0999 V2000
   59.2620   34.2570   44.4940 C   0  0  0  0  0  0  0  0  0  0  0  0
   58.0980   34.2840   45.0650 C   0  0  0  0  0  0  0  0  0  0  0  0
   57.8540   33.9350   46.5260 C   0  0  0  0  0  0  0  0  0  0  0  0
   58.7810   32.8250   46.5860 N   0  0  0  0  0  0  0  0  0  0  0  0
   58.7450   32.0270   47.5960 C   0  0  0  0  0  0  0  0  0  0  0  0
   58.5210   30.6190   47.4380 N   0  0  0  0  0  0  0  0  0  0  0  0
   58.1740   30.1910   46.2940 C   0  0  0  0  0  0  0  0  0  0  0  0
   57.6460   30.9350   45.3100 N   0  0  0  0  0  0  0  0  0  0  0  0
   57.3100   30.3840   44.1310 C   0  0  0  0  0  0  0  0  0  0  0  0
   57.4920   29.0540   43.8890 N   0  0  0  0  0  0  0  0  0  0  0  0
   58.0210   28.2490   44.8450 C   0  0  0  0  0  0  0  0  0  0  0  0
   58.2020   26.9150   44.5990 C   0  0  0  0  0  0  0  0  0  0  0  0
   58.7450   26.0900   45.5810 C   0  0  0  0  0  0  0  0  0  0  0  0
   58.9330   24.7390   45.3450 O   0  0  0  0  0  0  0  0  0  0  0  0
   57.8920   23.9340   44.9040 C   0  0  0  0  0  0  0  0  0  0  0  0
   58.0800   22.7850   44.1660 C   0  0  0  0  0  0  0  0  0  0  0  0
   56.9500   22.0690   43.7870 C   0  0  0  0  0  0  0  0  0  0  0  0
   55.7000   22.4820   44.1290 N   0  0  0  0  0  0  0  0  0  0  0  0
   55.5000   23.6040   44.8500 C   0  0  0  0  0  0  0  0  0  0  0  0
   54.1750   24.0770   45.2330 C   0  0  0  0  0  0  0  0  0  0  0  0
   53.9510   25.2520   45.6150 O   0  0  0  0  0  0  0  0  0  0  0  0
   53.0550   23.1790   45.1820 N   0  0  0  0  0  0  0  0  0  0  0  0
   51.7560   23.6970   45.5740 C   0  0  0  0  0  0  0  0  0  0  0  0
   56.6050   24.3220   45.2330 C   0  0  0  0  0  0  0  0  0  0  0  0
   59.0870   26.6680   46.7910 C   0  0  0  0  0  0  0  0  0  0  0  0
   58.9030   28.0120   47.0330 C   0  0  0  0  0  0  0  0  0  0  0  0
   58.3620   28.8240   46.0520 C   0  0  0  0  0  0  0  0  0  0  0  0
   58.9470   32.6250   48.8760 N   0  0  0  0  0  0  0  0  0  0  0  0
   59.9790   33.5630   49.1400 C   0  0  0  0  0  0  0  0  0  0  0  0
   61.2590   33.3240   48.4380 C   0  0  0  0  0  0  0  0  0  0  0  0
   61.5540   33.9970   47.2650 C   0  0  0  0  0  0  0  0  0  0  0  0
   62.7660   33.8040   46.5950 C   0  0  0  0  0  0  0  0  0  0  0  0
   63.7170   32.9350   47.0750 C   0  0  0  0  0  0  0  0  0  0  0  0
   63.4400   32.2640   48.2310 C   0  0  0  0  0  0  0  0  0  0  0  0
   62.2420   32.4570   48.8900 C   0  0  0  0  0  0  0  0  0  0  0  0
   59.3595   34.5231   43.4311 H   0  0  0  0  0  0  0  0  0  0  0  0
   60.1518   33.9680   45.0725 H   0  0  0  0  0  0  0  0  0  0  0  0
   57.2316   34.5780   44.4543 H   0  0  0  0  0  0  0  0  0  0  0  0
   58.1291   34.7531   47.2079 H   0  0  0  0  0  0  0  0  0  0  0  0
   56.8143   33.7310   46.8215 H   0  0  0  0  0  0  0  0  0  0  0  0
   57.5050   31.9540   45.4910 H   0  0  0  0  0  0  0  0  0  0  0  0
   56.8787   31.0198   43.3437 H   0  0  0  0  0  0  0  0  0  0  0  0
   57.9180   26.4934   43.6235 H   0  0  0  0  0  0  0  0  0  0  0  0
   59.0887   22.4464   43.8867 H   0  0  0  0  0  0  0  0  0  0  0  0
   57.0696   21.1481   43.1975 H   0  0  0  0  0  0  0  0  0  0  0  0
   53.1770   22.1920   44.8740 H   0  0  0  0  0  0  0  0  0  0  0  0
   51.6881   23.7241   46.6716 H   0  0  0  0  0  0  0  0  0  0  0  0
   51.6307   24.7139   45.1737 H   0  0  0  0  0  0  0  0  0  0  0  0
   50.9654   23.0454   45.1737 H   0  0  0  0  0  0  0  0  0  0  0  0
   56.4626   25.2394   45.8230 H   0  0  0  0  0  0  0  0  0  0  0  0
   59.5179   26.0366   47.5820 H   0  0  0  0  0  0  0  0  0  0  0  0
   59.1862   28.4394   48.0062 H   0  0  0  0  0  0  0  0  0  0  0  0
   58.2930   32.3250   49.6740 H   0  0  0  0  0  0  0  0  0  0  0  0
   59.6138   34.5584   48.8471 H   0  0  0  0  0  0  0  0  0  0  0  0
   60.2033   33.4675   50.2126 H   0  0  0  0  0  0  0  0  0  0  0  0
   60.8173   34.7006   46.8499 H   0  0  0  0  0  0  0  0  0  0  0  0
   62.9624   34.3584   45.6655 H   0  0  0  0  0  0  0  0  0  0  0  0
   64.6693   32.7854   46.5452 H   0  0  0  0  0  0  0  0  0  0  0  0
   64.1797   31.5614   48.6423 H   0  0  0  0  0  0  0  0  0  0  0  0
   62.0587   31.8959   49.8182 H   0  0  0  0  0  0  0  0  0  0  0  0
  1  2  2  0
  2  3  1  0
  3  4  1  0
  4  5  2  0
  5  6  1  0
  6  7  2  0
  7  8  1  0
  8  9  1  0
  9 10  2  0
 10 11  1  0
 11 12  2  0
 12 13  1  0
 13 14  1  0
 14 15  1  0
 15 16  2  0
 16 17  1  0
 17 18  2  0
 18 19  1  0
 19 20  1  0
 20 21  2  0
 20 22  1  0
 22 23  1  0
 19 24  2  0
 13 25  2  0
 25 26  1  0
 26 27  2  0
  5 28  1  0
 28 29  1  0
 29 30  1  0
 30 31  2  0
 31 32  1  0
 32 33  2  0
 33 34  1  0
 34 35  2  0
 27  7  1  0
 35 30  1  0
 27 11  1  0
 24 15  1  0
  1 36  1  0
  1 37  1  0
  2 38  1  0
  3 39  1  0
  3 40  1  0
  8 41  1  0
  9 42  1  0
 12 43  1  0
 16 44  1  0
 17 45  1  0
 22 46  1  0
 23 47  1  0
 23 48  1  0
 23 49  1  0
 24 50  1  0
 25 51  1  0
 26 52  1  0
 28 53  1  0
 29 54  1  0
 29 55  1  0
 31 56  1  0
 32 57  1  0
 33 58  1  0
 34 59  1  0
 35 60  1  0
M  END
>  <smiles>  (46) 
C=CCN=C(N=c1[nH]cnc2cc(Oc3ccnc(C(=O)NC)c3)ccc12)NCc1ccccc1

>  <score_type>  (46) 
oracle

>  <origin>  (46) 
adg

>  <m_score__min__energy>  (46) 
-9.3300000000000001

>  <m_primary>  (46) 
energy

$$$$
46:0
     RDKit          3D

 68 72  0  0  0  0  0  0  0  0999 V2000
   58.0377   22.2081   45.7419 H   0  0  0  0  0  0  0  0  0  0  0  0
   58.2250   23.2520   46.0340 C   0  0  0  0  0  0  0  0  0  0  0  0
   59.3980   23.8510   45.6960 N   0  0  0  0  0  0  0  0  0  0  0  0
   59.6670   25.1400   46.0400 C   0  0  0  0  0  0  0  0  0  0  0  0
   60.6218   25.5994   45.7446 H   0  0  0  0  0  0  0  0  0  0  0  0
   58.7280   25.8840   46.7710 C   0  0  0  0  0  0  0  0  0  0  0  0
   58.9680   27.3090   47.0880 C   0  0  0  0  0  0  0  0  0  0  0  0
   58.5620   28.3130   46.2620 C   0  0  0  0  0  0  0  0  0  0  0  0
   57.3060   28.1730   45.4130 C   0  0  0  0  0  0  0  0  0  0  0  0
   57.1122   27.1054   45.2322 H   0  0  0  0  0  0  0  0  0  0  0  0
   56.4663   28.6331   45.9544 H   0  0  0  0  0  0  0  0  0  0  0  0
   57.4650   28.8860   44.0690 C   0  0  0  0  0  0  0  0  0  0  0  0
   58.1845   28.3351   43.4454 H   0  0  0  0  0  0  0  0  0  0  0  0
   56.4907   28.9263   43.5599 H   0  0  0  0  0  0  0  0  0  0  0  0
   57.9540   30.2470   44.2890 N   0  0  0  0  0  0  0  0  0  0  0  0
   57.0590   31.3720   44.1830 C   0  0  0  0  0  0  0  0  0  0  0  0
   55.8330   31.2200   44.4390 O   0  0  0  0  0  0  0  0  0  0  0  0
   57.5720   32.7340   43.7960 C   0  0  0  0  0  0  0  0  0  0  0  0
   58.3399   32.6206   43.0166 H   0  0  0  0  0  0  0  0  0  0  0  0
   56.7278   33.3323   43.4227 H   0  0  0  0  0  0  0  0  0  0  0  0
   58.1750   33.4440   44.9820 C   0  0  0  0  0  0  0  0  0  0  0  0
   59.2480   34.3380   44.8080 C   0  0  0  0  0  0  0  0  0  0  0  0
   59.6167   34.5616   43.7961 H   0  0  0  0  0  0  0  0  0  0  0  0
   59.8460   34.9420   45.9160 C   0  0  0  0  0  0  0  0  0  0  0  0
   60.6783   35.6473   45.7753 H   0  0  0  0  0  0  0  0  0  0  0  0
   59.3880   34.6510   47.2020 C   0  0  0  0  0  0  0  0  0  0  0  0
   59.8638   35.1230   48.0743 H   0  0  0  0  0  0  0  0  0  0  0  0
   58.3260   33.7610   47.3830 C   0  0  0  0  0  0  0  0  0  0  0  0
   57.9653   33.5369   48.3977 H   0  0  0  0  0  0  0  0  0  0  0  0
   57.7210   33.1550   46.2790 C   0  0  0  0  0  0  0  0  0  0  0  0
   56.8886   32.4511   46.4259 H   0  0  0  0  0  0  0  0  0  0  0  0
   59.2520   30.3690   44.9580 C   0  0  0  0  0  0  0  0  0  0  0  0
   60.0247   29.8727   44.3525 H   0  0  0  0  0  0  0  0  0  0  0  0
   59.5054   31.4330   45.0755 H   0  0  0  0  0  0  0  0  0  0  0  0
   59.1800   29.7060   46.3370 C   0  0  0  0  0  0  0  0  0  0  0  0
   60.1977   29.6229   46.7461 H   0  0  0  0  0  0  0  0  0  0  0  0
   58.5446   30.3286   46.9840 H   0  0  0  0  0  0  0  0  0  0  0  0
   59.7280   27.5740   48.3350 C   0  0  0  0  0  0  0  0  0  0  0  0
   60.4490   26.5440   48.9540 C   0  0  0  0  0  0  0  0  0  0  0  0
   60.5255   25.5562   48.4760 H   0  0  0  0  0  0  0  0  0  0  0  0
   61.0690   26.7810   50.1810 C   0  0  0  0  0  0  0  0  0  0  0  0
   61.6463   25.9817   50.6687 H   0  0  0  0  0  0  0  0  0  0  0  0
   60.9600   27.9990   50.7740 N   0  0  0  0  0  0  0  0  0  0  0  0
   60.2740   29.0280   50.2050 C   0  0  0  0  0  0  0  0  0  0  0  0
   60.1830   30.1480   50.8650 N   0  0  0  0  0  0  0  0  0  0  0  0
   59.9190   31.4460   50.3210 C   0  0  0  0  0  0  0  0  0  0  0  0
   58.8350   32.0390   50.5900 O   0  0  0  0  0  0  0  0  0  0  0  0
   60.9050   32.0700   49.4190 C   0  0  0  0  0  0  0  0  0  0  0  0
   60.9460   31.6160   48.0870 C   0  0  0  0  0  0  0  0  0  0  0  0
   60.2126   30.8725   47.7416 H   0  0  0  0  0  0  0  0  0  0  0  0
   61.9090   32.1010   47.2010 C   0  0  0  0  0  0  0  0  0  0  0  0
   61.9401   31.7299   46.1660 H   0  0  0  0  0  0  0  0  0  0  0  0
   62.8320   33.0560   47.6270 C   0  0  0  0  0  0  0  0  0  0  0  0
   63.5905   33.4362   46.9269 H   0  0  0  0  0  0  0  0  0  0  0  0
   62.7960   33.5310   48.9400 C   0  0  0  0  0  0  0  0  0  0  0  0
   63.5223   34.2914   49.2630 H   0  0  0  0  0  0  0  0  0  0  0  0
   61.8390   33.0470   49.8570 C   0  0  0  0  0  0  0  0  0  0  0  0
   61.7970   33.6260   51.2210 C   0  0  0  0  0  0  0  0  0  0  0  0
   62.8700   33.9040   51.8200 O   0  0  0  0  0  0  0  0  0  0  0  0
   60.5510   33.8440   51.8920 N   0  0  0  0  0  0  0  0  0  0  0  0
   60.5410   34.1670   52.8830 H   0  0  0  0  0  0  0  0  0  0  0  0
   59.6380   33.7390   51.3980 H   0  0  0  0  0  0  0  0  0  0  0  0
   59.6370   28.8250   48.9630 C   0  0  0  0  0  0  0  0  0  0  0  0
   59.0727   29.6422   48.4901 H   0  0  0  0  0  0  0  0  0  0  0  0
   57.5080   25.2800   47.1140 C   0  0  0  0  0  0  0  0  0  0  0  0
   56.7489   25.8500   47.6698 H   0  0  0  0  0  0  0  0  0  0  0  0
   57.2590   23.9580   46.7500 C   0  0  0  0  0  0  0  0  0  0  0  0
   56.3092   23.4760   47.0250 H   0  0  0  0  0  0  0  0  0  0  0  0
  1  2  1  0
  2  3  2  0
  3  4  1  0
  4  5  1  0
  4  6  2  0
  6  7  1  0
  7  8  2  3
  8  9  1  0
  9 10  1  0
  9 11  1  0
  9 12  1  0
 12 13  1  0
 12 14  1  0
 12 15  1  0
 15 16  1  0
 16 17  2  0
 16 18  1  0
 18 19  1  0
 18 20  1  0
 18 21  1  0
 21 22  2  0
 22 23  1  0
 22 24  1  0
 24 25  1  0
 24 26  2  0
 26 27  1  0
 26 28  1  0
 28 29  1  0
 28 30  2  0
 30 31  1  0
 15 32  1  0
 32 33  1  0
 32 34  1  0
 32 35  1  0
 35 36  1  0
 35 37  1  0
  7 38  1  0
 38 39  1  0
 39 40  1  0
 39 41  2  0
 41 42  1  0
 41 43  1  0
 43 44  1  0
 44 45  2  0
 45 46  1  0
 46 47  2  0
 46 48  1  0
 48 49  2  0
 49 50  1  0
 49 51  1  0
 51 52  1  0
 51 53  2  0
 53 54  1  0
 53 55  1  0
 55 56  1  0
 55 57  2  0
 57 58  1  0
 58 59  2  0
 58 60  1  0
 60 61  1  0
 60 62  1  0
 44 63  1  0
 63 64  1  0
  6 65  1  0
 65 66  1  0
 65 67  2  0
 67 68  1  0
 67  2  1  0
 35  8  1  0
 63 38  2  0
 30 21  1  0
 57 48  1  0
M  CHG  1  43  -1
M  END
>  <UniqueID>  (47) 
41

>  <SMILES>  (47) 
NC(=O)c1ccccc1C(=O)/N=c1\cc(C(=C2CCN(C(=O)Cc3ccccc3)CC2)c2cccnc2)cc[n-]1

>  <Energy>  (47) 
111.05903944876844

>  <Genealogy>  (47) 
NC(=O)c1ccccc1C(=O)N=c1cc(C(=C2CCN(C(=O)Cc3ccccc3)CC2)c2cccnc2)cc[n-]1 (protonated)
NC(=O)c1ccccc1C(=O)/N=c1\cc(C(=C2CCN(C(=O)Cc3ccccc3)CC2)c2cccnc2)cc[n-]1 (cis-trans isomerization)
NC(=O)c1ccccc1C(=O)/N=c1\cc(C(=C2CCN(C(=O)Cc3ccccc3)CC2)c2cccnc2)cc[n-]1 (3D coordinates assigned)
NC(=O)c1ccccc1C(=O)/N=c1\cc(C(=C2CCN(C(=O)Cc3ccccc3)CC2)c2cccnc2)cc[n-]1 (nonaromatic ring conformer: 111.05903944876844 kcal/mol)

>  <smiles>  (47) 
NC(=O)c1ccccc1C(=O)N=c1cc(C(=C2CCN(C(=O)Cc3ccccc3)CC2)c2cccnc2)cc[nH]1

>  <score_type>  (47) 
oracle

>  <origin>  (47) 
adg

>  <m_score__min__energy>  (47) 
-12.449999999999999

>  <m_primary>  (47) 
energy

$$$$
47:0
     RDKit          3D

 38 40  0  0  0  0  0  0  0  0999 V2000
   54.5240   27.0760   46.6360 H   0  0  0  0  0  0  0  0  0  0  0  0
   54.8660   26.3200   46.0020 N   0  0  0  0  0  0  0  0  0  0  0  0
   56.2420   26.2400   45.6300 C   0  0  0  0  0  0  0  0  0  0  0  0
   56.8320   25.1270   45.7000 O   0  0  0  0  0  0  0  0  0  0  0  0
   56.9690   27.4440   45.1680 C   0  0  0  0  0  0  0  0  0  0  0  0
   58.2890   27.3360   44.6490 C   0  0  0  0  0  0  0  0  0  0  0  0
   58.7715   26.3491   44.5925 H   0  0  0  0  0  0  0  0  0  0  0  0
   58.9850   28.4760   44.2070 C   0  0  0  0  0  0  0  0  0  0  0  0
   60.0063   28.3991   43.8057 H   0  0  0  0  0  0  0  0  0  0  0  0
   58.3370   29.7040   44.2950 C   0  0  0  0  0  0  0  0  0  0  0  0
   58.8070   30.9070   43.9330 N   0  0  0  0  0  0  0  0  0  0  0  0
   57.7650   31.7310   44.2240 C   0  0  0  0  0  0  0  0  0  0  0  0
   57.8480   33.1900   44.0230 C   0  0  0  0  0  0  0  0  0  0  0  0
   57.7441   33.5644   42.9939 H   0  0  0  0  0  0  0  0  0  0  0  0
   58.0400   34.0990   44.9930 C   0  0  0  0  0  0  0  0  0  0  0  0
   57.6953   35.1256   44.8000 H   0  0  0  0  0  0  0  0  0  0  0  0
   58.6770   33.8300   46.2980 C   0  0  0  0  0  0  0  0  0  0  0  0
   59.1260   34.9050   47.0790 C   0  0  0  0  0  0  0  0  0  0  0  0
   59.0248   35.9344   46.7047 H   0  0  0  0  0  0  0  0  0  0  0  0
   59.7010   34.6730   48.3300 C   0  0  0  0  0  0  0  0  0  0  0  0
   60.0578   35.5199   48.9346 H   0  0  0  0  0  0  0  0  0  0  0  0
   59.8250   33.3690   48.8170 C   0  0  0  0  0  0  0  0  0  0  0  0
   60.2808   33.1935   49.8027 H   0  0  0  0  0  0  0  0  0  0  0  0
   59.3700   32.2810   48.0530 C   0  0  0  0  0  0  0  0  0  0  0  0
   59.4570   30.9330   48.5430 N   0  0  0  0  0  0  0  0  0  0  0  0
   58.8850   30.6770   49.3800 H   0  0  0  0  0  0  0  0  0  0  0  0
   60.1770   29.8830   47.8780 C   0  0  0  0  0  0  0  0  0  0  0  0
   60.6380   30.0530   46.7170 O   0  0  0  0  0  0  0  0  0  0  0  0
   60.3790   28.5680   48.5620 C   0  0  0  0  0  0  0  0  0  0  0  0
   61.4320   28.2641   48.4675 H   0  0  0  0  0  0  0  0  0  0  0  0
   60.1181   28.6657   49.6261 H   0  0  0  0  0  0  0  0  0  0  0  0
   59.3380   27.3380   47.8090 Cl  0  0  0  0  0  0  0  0  0  0  0  0
   58.7640   32.5230   46.8110 C   0  0  0  0  0  0  0  0  0  0  0  0
   58.3529   31.6825   46.2327 H   0  0  0  0  0  0  0  0  0  0  0  0
   56.6890   31.1010   44.7690 N   0  0  0  0  0  0  0  0  0  0  0  0
   57.0790   29.8190   44.7900 C   0  0  0  0  0  0  0  0  0  0  0  0
   56.3550   28.7180   45.2390 C   0  0  0  0  0  0  0  0  0  0  0  0
   55.3362   28.8343   45.6371 H   0  0  0  0  0  0  0  0  0  0  0  0
  1  2  1  0
  2  3  1  0
  3  4  2  0
  3  5  1  0
  5  6  2  0
  6  7  1  0
  6  8  1  0
  8  9  1  0
  8 10  2  0
 10 11  1  0
 11 12  1  0
 12 13  1  0
 13 14  1  0
 13 15  2  0
 15 16  1  0
 15 17  1  0
 17 18  2  0
 18 19  1  0
 18 20  1  0
 20 21  1  0
 20 22  2  0
 22 23  1  0
 22 24  1  0
 24 25  1  0
 25 26  1  0
 25 27  1  0
 27 28  2  0
 27 29  1  0
 29 30  1  0
 29 31  1  0
 29 32  1  0
 24 33  2  0
 33 34  1  0
 12 35  2  0
 35 36  1  0
 36 37  2  0
 37 38  1  0
 37  5  1  0
 36 10  1  0
 33 17  1  0
M  CHG  2   2  -1  11  -1
M  END
>  <UniqueID>  (48) 
42

>  <SMILES>  (48) 
[NH-]C(=O)c1ccc2[n-]c(/C=C\c3cccc(NC(=O)CCl)c3)nc2c1

>  <Energy>  (48) 
83.38605776124093

>  <Genealogy>  (48) 
[NH-]C(=O)c1ccc2[n-]c(C=Cc3cccc(NC(=O)CCl)c3)nc2c1 (protonated)
[NH-]C(=O)c1ccc2[n-]c(/C=C\c3cccc(NC(=O)CCl)c3)nc2c1 (cis-trans isomerization)
[NH-]C(=O)c1ccc2[n-]c(/C=C\c3cccc(NC(=O)CCl)c3)nc2c1 (3D coordinates assigned)
[NH-]C(=O)c1ccc2[n-]c(/C=C\c3cccc(NC(=O)CCl)c3)nc2c1 (optimized conformer: 83.38605776124093 kcal/mol)

>  <smiles>  (48) 
NC(=O)c1ccc2[nH]c(C=Cc3cccc(NC(=O)CCl)c3)nc2c1

>  <score_type>  (48) 
oracle

>  <origin>  (48) 
adg

>  <m_score__min__energy>  (48) 
-12.77

>  <m_primary>  (48) 
energy

$$$$
48:0
     RDKit          3D

 39 40  0  0  0  0  0  0  0  0999 V2000
   58.6820   30.9630   44.5840 O   0  0  0  0  0  0  0  0  0  0  0  0
   57.5000   31.2830   44.8730 C   0  0  0  0  0  0  0  0  0  0  0  0
   57.0830   32.7200   44.7680 C   0  0  0  0  0  0  0  0  0  0  0  0
   57.5970   33.4450   45.9180 N   0  0  0  0  0  0  0  0  0  0  0  0
   58.8490   34.1340   45.9250 C   0  0  0  0  0  0  0  0  0  0  0  0
   59.6630   33.9780   44.9750 O   0  0  0  0  0  0  0  0  0  0  0  0
   59.2260   34.9990   47.0910 C   0  0  0  0  0  0  0  0  0  0  0  0
   59.8770   34.2360   48.1100 O   0  0  0  0  0  0  0  0  0  0  0  0
   61.1050   33.5610   47.9810 C   0  0  0  0  0  0  0  0  0  0  0  0
   62.3220   34.1080   48.4420 C   0  0  0  0  0  0  0  0  0  0  0  0
   63.5200   33.4090   48.2750 C   0  0  0  0  0  0  0  0  0  0  0  0
   63.5200   32.1560   47.6600 C   0  0  0  0  0  0  0  0  0  0  0  0
   62.3210   31.5990   47.2090 C   0  0  0  0  0  0  0  0  0  0  0  0
   61.1170   32.2930   47.3660 C   0  0  0  0  0  0  0  0  0  0  0  0
   59.9390   31.7090   46.9000 O   0  0  0  0  0  0  0  0  0  0  0  0
   56.5690   30.2570   45.2350 N   0  0  0  0  0  0  0  0  0  0  0  0
   56.4840   28.9560   44.5780 C   0  0  0  0  0  0  0  0  0  0  0  0
   57.2230   27.9220   45.3880 C   0  0  0  0  0  0  0  0  0  0  0  0
   58.6190   28.0210   45.5250 C   0  0  0  0  0  0  0  0  0  0  0  0
   59.3250   27.0810   46.2800 C   0  0  0  0  0  0  0  0  0  0  0  0
   58.6450   26.0390   46.9150 C   0  0  0  0  0  0  0  0  0  0  0  0
   57.2560   25.9410   46.8020 C   0  0  0  0  0  0  0  0  0  0  0  0
   56.5400   26.8790   46.0490 C   0  0  0  0  0  0  0  0  0  0  0  0
   55.1560   26.7660   45.9720 O   0  0  0  0  0  0  0  0  0  0  0  0
   57.4908   33.1562   43.8442 H   0  0  0  0  0  0  0  0  0  0  0  0
   55.9854   32.7886   44.7445 H   0  0  0  0  0  0  0  0  0  0  0  0
   59.9067   35.7909   46.7453 H   0  0  0  0  0  0  0  0  0  0  0  0
   58.3084   35.4343   47.5136 H   0  0  0  0  0  0  0  0  0  0  0  0
   62.3271   35.0909   48.9359 H   0  0  0  0  0  0  0  0  0  0  0  0
   64.4650   33.8469   48.6288 H   0  0  0  0  0  0  0  0  0  0  0  0
   64.4644   31.6070   47.5305 H   0  0  0  0  0  0  0  0  0  0  0  0
   62.3238   30.6097   46.7280 H   0  0  0  0  0  0  0  0  0  0  0  0
   59.3330   32.1720   46.2330 H   0  0  0  0  0  0  0  0  0  0  0  0
   55.4280   28.6617   44.4874 H   0  0  0  0  0  0  0  0  0  0  0  0
   56.9383   29.0251   43.5786 H   0  0  0  0  0  0  0  0  0  0  0  0
   59.1589   28.8442   45.0343 H   0  0  0  0  0  0  0  0  0  0  0  0
   60.4180   27.1616   46.3745 H   0  0  0  0  0  0  0  0  0  0  0  0
   59.2030   25.2960   47.5037 H   0  0  0  0  0  0  0  0  0  0  0  0
   56.7223   25.1226   47.3073 H   0  0  0  0  0  0  0  0  0  0  0  0
  1  2  2  0
  2  3  1  0
  3  4  1  0
  4  5  1  0
  5  6  2  0
  5  7  1  0
  7  8  1  0
  8  9  1  0
  9 10  2  0
 10 11  1  0
 11 12  2  0
 12 13  1  0
 13 14  2  0
 14 15  1  0
  2 16  1  0
 16 17  1  0
 17 18  1  0
 18 19  2  0
 19 20  1  0
 20 21  2  0
 21 22  1  0
 22 23  2  0
 23 24  1  0
 14  9  1  0
 23 18  1  0
  3 25  1  0
  3 26  1  0
  7 27  1  0
  7 28  1  0
 10 29  1  0
 11 30  1  0
 12 31  1  0
 13 32  1  0
 15 33  1  0
 17 34  1  0
 17 35  1  0
 19 36  1  0
 20 37  1  0
 21 38  1  0
 22 39  1  0
M  CHG  3   4  -1  16  -1  24  -1
M  END
>  <UniqueID>  (49) 
43

>  <SMILES>  (49) 
O=C(C[N-]C(=O)COc1ccccc1O)[N-]Cc1ccccc1[O-]

>  <Energy>  (49) 
33.50581940360329

>  <Genealogy>  (49) 
O=C(C[N-]C(=O)COc1ccccc1O)[N-]Cc1ccccc1[O-] (protonated)
O=C(C[N-]C(=O)COc1ccccc1O)[N-]Cc1ccccc1[O-] (3D coordinates assigned)
O=C(C[N-]C(=O)COc1ccccc1O)[N-]Cc1ccccc1[O-] (optimized conformer: 33.50581940360329 kcal/mol)

>  <smiles>  (49) 
O=C(CNC(=O)COc1ccccc1O)NCc1ccccc1O

>  <score_type>  (49) 
oracle

>  <origin>  (49) 
adg

>  <m_score__min__energy>  (49) 
-12.710000000000001

>  <m_primary>  (49) 
energy

$$$$
49:0
     RDKit          3D

 50 53  0  0  0  0  0  0  0  0999 V2000
   58.9330   33.4110   46.8970 C   0  0  0  0  0  0  0  0  0  0  0  0
   57.7510   33.2480   46.3040 C   0  0  0  0  0  0  0  0  0  0  0  0
   57.5810   32.6270   44.9680 C   0  0  0  0  0  0  0  0  0  0  0  0
   56.6910   31.5490   44.8540 C   0  0  0  0  0  0  0  0  0  0  0  0
   56.5370   30.8630   43.6390 C   0  0  0  0  0  0  0  0  0  0  0  0
   55.6570   29.6400   43.5590 C   0  0  0  0  0  0  0  0  0  0  0  0
   55.5230   28.9970   44.8670 N   0  0  0  0  0  0  0  0  0  0  0  0
   56.4940   28.1440   45.4950 C   0  0  0  0  0  0  0  0  0  0  0  0
   56.2390   26.9160   45.6030 O   0  0  0  0  0  0  0  0  0  0  0  0
   57.7920   28.6550   45.9710 C   0  0  0  0  0  0  0  0  0  0  0  0
   58.9290   28.5650   45.1570 C   0  0  0  0  0  0  0  0  0  0  0  0
   60.1330   29.1340   45.5820 C   0  0  0  0  0  0  0  0  0  0  0  0
   61.1460   29.0680   44.8340 O   0  0  0  0  0  0  0  0  0  0  0  0
   60.1980   29.7790   46.8320 C   0  0  0  0  0  0  0  0  0  0  0  0
   61.3750   30.3960   47.2930 C   0  0  0  0  0  0  0  0  0  0  0  0
   61.4060   31.0470   48.5430 C   0  0  0  0  0  0  0  0  0  0  0  0
   62.6090   31.7050   49.0050 N   0  0  0  0  0  0  0  0  0  0  0  0
   63.3780   31.2860   50.1760 C   0  0  0  0  0  0  0  0  0  0  0  0
   64.4840   32.3300   50.4520 C   0  0  0  0  0  0  0  0  0  0  0  0
   64.8570   33.0580   49.1550 C   0  0  0  0  0  0  0  0  0  0  0  0
   63.4060   32.9740   48.1670 S   0  0  0  0  0  0  0  0  0  0  0  0
   62.6180   34.2530   48.2300 O   0  0  0  0  0  0  0  0  0  0  0  0
   63.7230   32.5890   46.7490 O   0  0  0  0  0  0  0  0  0  0  0  0
   60.2370   31.0590   49.3290 C   0  0  0  0  0  0  0  0  0  0  0  0
   59.0670   30.4440   48.8790 C   0  0  0  0  0  0  0  0  0  0  0  0
   59.0380   29.8110   47.6350 C   0  0  0  0  0  0  0  0  0  0  0  0
   57.8820   29.2560   47.1860 N   0  0  0  0  0  0  0  0  0  0  0  0
   57.2420   31.3040   42.5100 C   0  0  0  0  0  0  0  0  0  0  0  0
   58.1280   32.3770   42.6090 C   0  0  0  0  0  0  0  0  0  0  0  0
   58.3260   33.0270   43.8360 C   0  0  0  0  0  0  0  0  0  0  0  0
   59.2810   34.0380   43.9310 O   0  0  0  0  0  0  0  0  0  0  0  0
   58.9899   33.8798   47.8904 H   0  0  0  0  0  0  0  0  0  0  0  0
   59.8519   33.0767   46.3931 H   0  0  0  0  0  0  0  0  0  0  0  0
   56.8515   33.5932   46.8348 H   0  0  0  0  0  0  0  0  0  0  0  0
   56.1045   31.2362   45.7304 H   0  0  0  0  0  0  0  0  0  0  0  0
   54.6601   29.9381   43.2021 H   0  0  0  0  0  0  0  0  0  0  0  0
   56.1196   28.9232   42.8646 H   0  0  0  0  0  0  0  0  0  0  0  0
   58.8743   28.0486   44.1873 H   0  0  0  0  0  0  0  0  0  0  0  0
   62.2818   30.3702   46.6709 H   0  0  0  0  0  0  0  0  0  0  0  0
   62.7119   31.2150   51.0485 H   0  0  0  0  0  0  0  0  0  0  0  0
   63.8338   30.3026   49.9887 H   0  0  0  0  0  0  0  0  0  0  0  0
   64.1183   33.0616   51.1876 H   0  0  0  0  0  0  0  0  0  0  0  0
   65.3737   31.8165   50.8453 H   0  0  0  0  0  0  0  0  0  0  0  0
   65.1268   34.1044   49.3607 H   0  0  0  0  0  0  0  0  0  0  0  0
   65.7273   32.6050   48.6577 H   0  0  0  0  0  0  0  0  0  0  0  0
   60.2460   31.5588   50.3089 H   0  0  0  0  0  0  0  0  0  0  0  0
   58.1642   30.4583   49.5074 H   0  0  0  0  0  0  0  0  0  0  0  0
   57.0958   30.8018   41.5423 H   0  0  0  0  0  0  0  0  0  0  0  0
   58.6758   32.7161   41.7174 H   0  0  0  0  0  0  0  0  0  0  0  0
   60.1570   33.8990   44.4220 H   0  0  0  0  0  0  0  0  0  0  0  0
  1  2  2  0
  2  3  1  0
  3  4  2  0
  4  5  1  0
  5  6  1  0
  6  7  1  0
  7  8  1  0
  8  9  2  0
  8 10  1  0
 10 11  2  0
 11 12  1  0
 12 13  2  0
 12 14  1  0
 14 15  2  0
 15 16  1  0
 16 17  1  0
 17 18  1  0
 18 19  1  0
 19 20  1  0
 20 21  1  0
 21 22  2  0
 21 23  2  0
 16 24  2  0
 24 25  1  0
 25 26  2  0
 26 27  1  0
  5 28  2  0
 28 29  1  0
 29 30  2  0
 30 31  1  0
 30  3  1  0
 27 10  1  0
 26 14  1  0
 21 17  1  0
  1 32  1  0
  1 33  1  0
  2 34  1  0
  4 35  1  0
  6 36  1  0
  6 37  1  0
 11 38  1  0
 15 39  1  0
 18 40  1  0
 18 41  1  0
 19 42  1  0
 19 43  1  0
 20 44  1  0
 20 45  1  0
 24 46  1  0
 25 47  1  0
 28 48  1  0
 29 49  1  0
 31 50  1  0
M  CHG  2   7  -1  27  -1
M  END
>  <UniqueID>  (50) 
44

>  <SMILES>  (50) 
C=Cc1cc(C[N-]C(=O)c2cc(=O)c3cc(N4CCCS4(=O)=O)ccc3[n-]2)ccc1O

>  <Energy>  (50) 
67.10125380838942

>  <Genealogy>  (50) 
C=Cc1cc(C[N-]C(=O)c2cc(=O)c3cc(N4CCCS4(=O)=O)ccc3[n-]2)ccc1O (protonated)
C=Cc1cc(C[N-]C(=O)c2cc(=O)c3cc(N4CCCS4(=O)=O)ccc3[n-]2)ccc1O (3D coordinates assigned)
C=Cc1cc(C[N-]C(=O)c2cc(=O)c3cc(N4CCCS4(=O)=O)ccc3[n-]2)ccc1O (nonaromatic ring conformer: 67.10125380838942 kcal/mol)

>  <smiles>  (50) 
C=Cc1cc(CNC(=O)c2cc(=O)c3cc(N4CCCS4(=O)=O)ccc3[nH]2)ccc1O

>  <score_type>  (50) 
oracle

>  <origin>  (50) 
adg

>  <m_score__min__energy>  (50) 
-12.08

>  <m_primary>  (50) 
energy

$$$$
50:0
     RDKit          3D

 37 39  0  0  0  0  0  0  0  0999 V2000
   56.0830   29.4710   44.0310 C   0  0  0  0  0  0  0  0  0  0  0  0
   57.0640   29.6270   44.9290 C   0  0  0  0  0  0  0  0  0  0  0  0
   57.3430   30.9030   45.3130 N   0  0  0  0  0  0  0  0  0  0  0  0
   58.1550   31.1990   46.3580 C   0  0  0  0  0  0  0  0  0  0  0  0
   58.6940   30.1730   47.1380 C   0  0  0  0  0  0  0  0  0  0  0  0
   59.5430   30.4880   48.3090 C   0  0  0  0  0  0  0  0  0  0  0  0
   59.3410   29.8850   49.3990 O   0  0  0  0  0  0  0  0  0  0  0  0
   60.5970   31.4630   48.2270 N   0  0  0  0  0  0  0  0  0  0  0  0
   60.7860   32.4240   49.3250 C   0  0  0  0  0  0  0  0  0  0  0  0
   62.2200   32.3430   49.8590 C   0  0  0  0  0  0  0  0  0  0  0  0
   63.2140   32.3760   48.7300 C   0  0  0  0  0  0  0  0  0  0  0  0
   64.4090   32.4320   48.9750 O   0  0  0  0  0  0  0  0  0  0  0  0
   62.7370   32.3700   47.3030 C   0  0  0  0  0  0  0  0  0  0  0  0
   61.5790   31.3760   47.1310 C   0  0  0  0  0  0  0  0  0  0  0  0
   58.4700   28.8470   46.7480 C   0  0  0  0  0  0  0  0  0  0  0  0
   57.7180   28.5410   45.5940 C   0  0  0  0  0  0  0  0  0  0  0  0
   57.7020   27.2450   45.1930 C   0  0  0  0  0  0  0  0  0  0  0  0
   57.1860   26.1010   45.9690 C   0  0  0  0  0  0  0  0  0  0  0  0
   57.9480   25.1540   46.5460 N   0  0  0  0  0  0  0  0  0  0  0  0
   57.0540   24.4080   47.2310 C   0  0  0  0  0  0  0  0  0  0  0  0
   57.3870   23.3990   47.9040 O   0  0  0  0  0  0  0  0  0  0  0  0
   55.7750   24.8350   47.1440 N   0  0  0  0  0  0  0  0  0  0  0  0
   55.8790   25.9140   46.3520 C   0  0  0  0  0  0  0  0  0  0  0  0
   54.8030   26.7130   45.9910 O   0  0  0  0  0  0  0  0  0  0  0  0
   55.8118   28.4637   43.6821 H   0  0  0  0  0  0  0  0  0  0  0  0
   55.5483   30.3502   43.6422 H   0  0  0  0  0  0  0  0  0  0  0  0
   58.3895   32.2480   46.5917 H   0  0  0  0  0  0  0  0  0  0  0  0
   60.5934   33.4416   48.9543 H   0  0  0  0  0  0  0  0  0  0  0  0
   60.0862   32.1815   50.1383 H   0  0  0  0  0  0  0  0  0  0  0  0
   62.4047   33.1972   50.5270 H   0  0  0  0  0  0  0  0  0  0  0  0
   62.3393   31.3960   50.4058 H   0  0  0  0  0  0  0  0  0  0  0  0
   62.3924   33.3787   47.0316 H   0  0  0  0  0  0  0  0  0  0  0  0
   63.5683   32.0666   46.6497 H   0  0  0  0  0  0  0  0  0  0  0  0
   61.0679   31.5899   46.1808 H   0  0  0  0  0  0  0  0  0  0  0  0
   62.0035   30.3613   47.1404 H   0  0  0  0  0  0  0  0  0  0  0  0
   58.8881   28.0286   47.3525 H   0  0  0  0  0  0  0  0  0  0  0  0
   58.1121   27.0266   44.1960 H   0  0  0  0  0  0  0  0  0  0  0  0
  1  2  2  0
  2  3  1  0
  3  4  2  0
  4  5  1  0
  5  6  1  0
  6  7  2  0
  6  8  1  0
  8  9  1  0
  9 10  1  0
 10 11  1  0
 11 12  2  0
 11 13  1  0
 13 14  1  0
  5 15  2  0
 15 16  1  0
 16 17  2  3
 17 18  1  0
 18 19  1  0
 19 20  1  0
 20 21  2  0
 20 22  1  0
 22 23  1  0
 23 24  1  0
 16  2  1  0
 23 18  2  0
 14  8  1  0
  1 25  1  0
  1 26  1  0
  4 27  1  0
  9 28  1  0
  9 29  1  0
 10 30  1  0
 10 31  1  0
 13 32  1  0
 13 33  1  0
 14 34  1  0
 14 35  1  0
 15 36  1  0
 17 37  1  0
M  CHG  3  19  -1  22  -1  24  -1
M  END
>  <UniqueID>  (51) 
45

>  <SMILES>  (51) 
C=c1ncc(C(=O)N2CCC(=O)CC2)cc1=Cc1[n-]c(=O)[n-]c1[O-]

>  <Energy>  (51) 
91.87649341595397

>  <Genealogy>  (51) 
C=c1ncc(C(=O)N2CCC(=O)CC2)cc1=Cc1[n-]c(=O)[n-]c1[O-] (protonated)
C=c1ncc(C(=O)N2CCC(=O)CC2)cc1=Cc1[n-]c(=O)[n-]c1[O-] (3D coordinates assigned)
C=c1ncc(C(=O)N2CCC(=O)CC2)cc1=Cc1[n-]c(=O)[n-]c1[O-] (nonaromatic ring conformer: 91.87649341595397 kcal/mol)

>  <smiles>  (51) 
C=c1ncc(C(=O)N2CCC(=O)CC2)cc1=Cc1[nH]c(=O)[nH]c1O

>  <score_type>  (51) 
oracle

>  <origin>  (51) 
adg

>  <m_score__min__energy>  (51) 
-16.719999999999999

>  <m_primary>  (51) 
energy

$$$$
51:0
     RDKit          3D

 55 58  0  0  0  0  0  0  0  0999 V2000
   60.2560   29.4270   46.5320 C   0  0  0  0  0  0  0  0  0  0  0  0
   59.6490   30.5120   46.0230 C   0  0  0  0  0  0  0  0  0  0  0  0
   58.5730   30.5410   45.1200 C   0  0  0  0  0  0  0  0  0  0  0  0
   57.9900   29.5590   44.4050 C   0  0  0  0  0  0  0  0  0  0  0  0
   57.4090   28.3200   44.9600 C   0  0  0  0  0  0  0  0  0  0  0  0
   56.0360   28.2230   45.2480 C   0  0  0  0  0  0  0  0  0  0  0  0
   55.1780   29.2830   44.9830 O   0  0  0  0  0  0  0  0  0  0  0  0
   55.5390   27.0860   45.7990 N   0  0  0  0  0  0  0  0  0  0  0  0
   56.3500   26.0380   46.0970 C   0  0  0  0  0  0  0  0  0  0  0  0
   55.8660   24.9940   46.6040 O   0  0  0  0  0  0  0  0  0  0  0  0
   57.6830   26.1200   45.8540 N   0  0  0  0  0  0  0  0  0  0  0  0
   58.2300   27.2350   45.3040 C   0  0  0  0  0  0  0  0  0  0  0  0
   59.4720   27.2790   45.1000 O   0  0  0  0  0  0  0  0  0  0  0  0
   58.1640   31.8620   45.0480 C   0  0  0  0  0  0  0  0  0  0  0  0
   59.0230   32.5920   45.8420 C   0  0  0  0  0  0  0  0  0  0  0  0
   58.9590   34.0790   46.0240 C   0  0  0  0  0  0  0  0  0  0  0  0
   59.9240   31.7770   46.4350 N   0  0  0  0  0  0  0  0  0  0  0  0
   60.9660   32.1930   47.3360 C   0  0  0  0  0  0  0  0  0  0  0  0
   62.1450   32.7620   46.8420 C   0  0  0  0  0  0  0  0  0  0  0  0
   63.1610   33.1560   47.7170 C   0  0  0  0  0  0  0  0  0  0  0  0
   63.0160   32.9900   49.1090 C   0  0  0  0  0  0  0  0  0  0  0  0
   64.0670   33.3980   50.0170 N   0  0  0  0  0  0  0  0  0  0  0  0
   63.8310   34.1450   51.2470 C   0  0  0  0  0  0  0  0  0  0  0  0
   65.1690   34.1930   51.9750 C   0  0  0  0  0  0  0  0  0  0  0  0
   66.2190   33.9110   50.8910 C   0  0  1  0  0  0  0  0  0  0  0  0
   67.4760   33.2900   51.3950 N   0  0  0  0  0  0  0  0  0  0  0  0
   68.6380   33.7190   50.5970 C   0  0  0  0  0  0  0  0  0  0  0  0
   67.4480   31.8190   51.5340 C   0  0  0  0  0  0  0  0  0  0  0  0
   65.4800   33.1200   49.8020 C   0  0  0  0  0  0  0  0  0  0  0  0
   61.8230   32.4180   49.5960 C   0  0  0  0  0  0  0  0  0  0  0  0
   60.8110   32.0220   48.7180 C   0  0  0  0  0  0  0  0  0  0  0  0
   61.0937   29.5445   47.2351 H   0  0  0  0  0  0  0  0  0  0  0  0
   59.9153   28.4211   46.2457 H   0  0  0  0  0  0  0  0  0  0  0  0
   57.9428   29.6916   43.3140 H   0  0  0  0  0  0  0  0  0  0  0  0
   57.3156   32.2542   44.4680 H   0  0  0  0  0  0  0  0  0  0  0  0
   58.9488   34.3169   47.0979 H   0  0  0  0  0  0  0  0  0  0  0  0
   59.8380   34.5441   45.5538 H   0  0  0  0  0  0  0  0  0  0  0  0
   58.0433   34.4669   45.5538 H   0  0  0  0  0  0  0  0  0  0  0  0
   62.2730   32.9001   45.7582 H   0  0  0  0  0  0  0  0  0  0  0  0
   64.0835   33.6003   47.3150 H   0  0  0  0  0  0  0  0  0  0  0  0
   63.4857   35.1633   51.0150 H   0  0  0  0  0  0  0  0  0  0  0  0
   63.0545   33.6690   51.8638 H   0  0  0  0  0  0  0  0  0  0  0  0
   65.3310   35.1850   52.4220 H   0  0  0  0  0  0  0  0  0  0  0  0
   65.2185   33.4656   52.7986 H   0  0  0  0  0  0  0  0  0  0  0  0
   66.6206   34.8456   50.4724 H   0  0  0  0  0  0  0  0  0  0  0  0
   69.4541   34.0203   51.2703 H   0  0  0  0  0  0  0  0  0  0  0  0
   68.9748   32.8859   49.9625 H   0  0  0  0  0  0  0  0  0  0  0  0
   68.3526   34.5711   49.9625 H   0  0  0  0  0  0  0  0  0  0  0  0
   67.4429   31.5516   52.6010 H   0  0  0  0  0  0  0  0  0  0  0  0
   66.5421   31.4224   51.0522 H   0  0  0  0  0  0  0  0  0  0  0  0
   68.3381   31.3882   51.0522 H   0  0  0  0  0  0  0  0  0  0  0  0
   65.7913   33.4575   48.8024 H   0  0  0  0  0  0  0  0  0  0  0  0
   65.6991   32.0435   49.8571 H   0  0  0  0  0  0  0  0  0  0  0  0
   61.6875   32.2820   50.6791 H   0  0  0  0  0  0  0  0  0  0  0  0
   59.8878   31.5736   49.1137 H   0  0  0  0  0  0  0  0  0  0  0  0
  1  2  2  0
  2  3  1  0
  3  4  2  3
  4  5  1  0
  5  6  2  0
  6  7  1  0
  6  8  1  0
  8  9  1  0
  9 10  2  0
  9 11  1  0
 11 12  1  0
 12 13  2  0
  3 14  1  0
 14 15  2  0
 15 16  1  0
 15 17  1  0
 17 18  1  0
 18 19  2  0
 19 20  1  0
 20 21  2  0
 21 22  1  0
 22 23  1  0
 23 24  1  0
 24 25  1  0
 25 26  1  0
 26 27  1  0
 26 28  1  0
 25 29  1  0
 21 30  1  0
 30 31  2  0
 17  2  1  0
 31 18  1  0
 12  5  1  0
 29 22  1  0
  1 32  1  0
  1 33  1  0
  4 34  1  0
 14 35  1  0
 16 36  1  0
 16 37  1  0
 16 38  1  0
 19 39  1  0
 20 40  1  0
 23 41  1  0
 23 42  1  0
 24 43  1  0
 24 44  1  0
 25 45  1  6
 27 46  1  0
 27 47  1  0
 27 48  1  0
 28 49  1  0
 28 50  1  0
 28 51  1  0
 29 52  1  0
 29 53  1  0
 30 54  1  0
 31 55  1  0
M  CHG  3   7  -1   8  -1  11  -1
M  END
>  <UniqueID>  (52) 
46

>  <SMILES>  (52) 
C=c1c(=Cc2c([O-])[n-]c(=O)[n-]c2=O)cc(C)n1-c1ccc(N2CC[C@@H](N(C)C)C2)cc1

>  <Energy>  (52) 
117.53412473316133

>  <Genealogy>  (52) 
C=c1c(=Cc2c([O-])[n-]c(=O)[n-]c2=O)cc(C)n1-c1ccc(N2CCC(N(C)C)C2)cc1 (protonated)
C=c1c(=Cc2c([O-])[n-]c(=O)[n-]c2=O)cc(C)n1-c1ccc(N2CC[C@@H](N(C)C)C2)cc1 (chirality)
C=c1c(=Cc2c([O-])[n-]c(=O)[n-]c2=O)cc(C)n1-c1ccc(N2CC[C@@H](N(C)C)C2)cc1 (3D coordinates assigned)
C=c1c(=Cc2c([O-])[n-]c(=O)[n-]c2=O)cc(C)n1-c1ccc(N2CC[C@@H](N(C)C)C2)cc1 (nonaromatic ring conformer: 117.53412473316133 kcal/mol)

>  <smiles>  (52) 
C=c1c(=Cc2c(O)[nH]c(=O)[nH]c2=O)cc(C)n1-c1ccc(N2CCC(N(C)C)C2)cc1

>  <score_type>  (52) 
oracle

>  <origin>  (52) 
adg

>  <m_score__min__energy>  (52) 
-15.85

>  <m_primary>  (52) 
energy

$$$$
52:0
     RDKit          3D

 27 29  0  0  0  0  0  0  0  0999 V2000
   58.3368   32.0124   43.1102 H   0  0  0  0  0  0  0  0  0  0  0  0
   57.4150   31.5290   43.4660 C   0  0  0  0  0  0  0  0  0  0  0  0
   56.8422   31.9771   44.2913 H   0  0  0  0  0  0  0  0  0  0  0  0
   56.9920   30.4000   42.8970 C   0  0  0  0  0  0  0  0  0  0  0  0
   57.5707   29.9585   42.0723 H   0  0  0  0  0  0  0  0  0  0  0  0
   55.7340   29.7210   43.3670 C   0  0  0  0  0  0  0  0  0  0  0  0
   54.8661   30.3361   43.0869 H   0  0  0  0  0  0  0  0  0  0  0  0
   55.6703   28.7302   42.8934 H   0  0  0  0  0  0  0  0  0  0  0  0
   55.7490   29.5460   44.8200 N   0  0  0  0  0  0  0  0  0  0  0  0
   56.6280   28.9140   45.5500 C   0  0  0  0  0  0  0  0  0  0  0  0
   57.7440   29.5890   45.9560 N   0  0  0  0  0  0  0  0  0  0  0  0
   58.7220   29.0110   46.7230 C   0  0  0  0  0  0  0  0  0  0  0  0
   59.8450   29.7510   47.1070 C   0  0  0  0  0  0  0  0  0  0  0  0
   59.9455   30.8006   46.7936 H   0  0  0  0  0  0  0  0  0  0  0  0
   60.8410   29.1560   47.8900 C   0  0  0  0  0  0  0  0  0  0  0  0
   61.7228   29.7408   48.1907 H   0  0  0  0  0  0  0  0  0  0  0  0
   60.7210   27.8220   48.2920 C   0  0  0  0  0  0  0  0  0  0  0  0
   61.5086   27.3627   48.9075 H   0  0  0  0  0  0  0  0  0  0  0  0
   59.6040   27.0690   47.9150 C   0  0  0  0  0  0  0  0  0  0  0  0
   59.5124   26.0194   48.2313 H   0  0  0  0  0  0  0  0  0  0  0  0
   58.6020   27.6590   47.1320 C   0  0  0  0  0  0  0  0  0  0  0  0
   57.4610   26.9720   46.7180 C   0  0  0  0  0  0  0  0  0  0  0  0
   57.1260   25.6980   46.9800 N   0  0  0  0  0  0  0  0  0  0  0  0
   55.9370   25.5780   46.3410 C   0  0  0  0  0  0  0  0  0  0  0  0
   55.2750   24.5090   46.3420 O   0  0  0  0  0  0  0  0  0  0  0  0
   55.5120   26.6950   45.7010 N   0  0  0  0  0  0  0  0  0  0  0  0
   56.5000   27.5700   45.9550 C   0  0  0  0  0  0  0  0  0  0  0  0
  1  2  1  0
  2  3  1  0
  2  4  2  0
  4  5  1  0
  4  6  1  0
  6  7  1  0
  6  8  1  0
  6  9  1  0
  9 10  2  0
 10 11  1  0
 11 12  1  0
 12 13  2  0
 13 14  1  0
 13 15  1  0
 15 16  1  0
 15 17  2  0
 17 18  1  0
 17 19  1  0
 19 20  1  0
 19 21  2  0
 21 22  1  0
 22 23  1  0
 23 24  1  0
 24 25  2  0
 24 26  1  0
 26 27  1  0
 27 10  1  0
 21 12  1  0
 27 22  2  0
M  CHG  3  11  -1  23  -1  26  -1
M  END
>  <UniqueID>  (53) 
47

>  <SMILES>  (53) 
C=CC/N=c1/[n-]c2ccccc2c2[n-]c(=O)[n-]c12

>  <Energy>  (53) 
69.22565481741995

>  <Genealogy>  (53) 
C=CCN=c1[n-]c2ccccc2c2[n-]c(=O)[n-]c12 (protonated)
C=CC/N=c1/[n-]c2ccccc2c2[n-]c(=O)[n-]c12 (cis-trans isomerization)
C=CC/N=c1/[n-]c2ccccc2c2[n-]c(=O)[n-]c12 (3D coordinates assigned)
C=CC/N=c1/[n-]c2ccccc2c2[n-]c(=O)[n-]c12 (optimized conformer: 69.22565481741995 kcal/mol)

>  <smiles>  (53) 
C=CCN=c1[nH]c2ccccc2c2[nH]c(=O)[nH]c12

>  <score_type>  (53) 
oracle

>  <origin>  (53) 
adg

>  <m_score__min__energy>  (53) 
-11.380000000000001

>  <m_primary>  (53) 
energy

$$$$
53:0
     RDKit          3D

 57 60  0  0  0  0  0  0  0  0999 V2000
   60.2911   33.2045   52.6470 H   0  0  0  0  0  0  0  0  0  0  0  0
   60.3610   33.0190   51.5650 C   0  0  0  0  0  0  0  0  0  0  0  0
   59.3980   32.0610   50.9730 C   0  0  0  0  0  0  0  0  0  0  0  0
   58.1780   32.3740   50.9450 O   0  0  0  0  0  0  0  0  0  0  0  0
   59.8150   30.7360   50.4510 C   0  0  0  0  0  0  0  0  0  0  0  0
   60.7400   29.9440   51.1550 C   0  0  0  0  0  0  0  0  0  0  0  0
   61.2060   30.3370   52.4050 O   0  0  0  0  0  0  0  0  0  0  0  0
   61.1890   28.7810   50.6200 N   0  0  0  0  0  0  0  0  0  0  0  0
   60.7730   28.3390   49.4060 C   0  0  0  0  0  0  0  0  0  0  0  0
   61.1758   27.4000   48.9987 H   0  0  0  0  0  0  0  0  0  0  0  0
   59.8330   29.0720   48.6680 C   0  0  0  0  0  0  0  0  0  0  0  0
   59.4200   28.5970   47.3260 C   0  0  0  0  0  0  0  0  0  0  0  0
   60.2860   28.7190   46.2250 C   0  0  0  0  0  0  0  0  0  0  0  0
   61.2772   29.1776   46.3563 H   0  0  0  0  0  0  0  0  0  0  0  0
   59.8930   28.2600   44.9640 C   0  0  0  0  0  0  0  0  0  0  0  0
   60.5755   28.3574   44.1068 H   0  0  0  0  0  0  0  0  0  0  0  0
   58.6330   27.6770   44.7910 C   0  0  0  0  0  0  0  0  0  0  0  0
   58.1430   27.1000   43.2080 Cl  0  0  0  0  0  0  0  0  0  0  0  0
   57.7640   27.5570   45.8810 C   0  0  0  0  0  0  0  0  0  0  0  0
   56.7724   27.1007   45.7452 H   0  0  0  0  0  0  0  0  0  0  0  0
   58.1540   28.0160   47.1420 C   0  0  0  0  0  0  0  0  0  0  0  0
   57.4661   27.9219   47.9952 H   0  0  0  0  0  0  0  0  0  0  0  0
   59.3420   30.2780   49.2060 C   0  0  0  0  0  0  0  0  0  0  0  0
   58.5190   30.9750   48.5490 O   0  0  0  0  0  0  0  0  0  0  0  0
   61.3130   33.6790   50.8840 C   0  0  0  0  0  0  0  0  0  0  0  0
   61.8979   34.4369   51.4257 H   0  0  0  0  0  0  0  0  0  0  0  0
   61.6280   33.4570   49.4590 C   0  0  0  0  0  0  0  0  0  0  0  0
   62.7710   32.7360   49.0770 C   0  0  0  0  0  0  0  0  0  0  0  0
   63.4237   32.2954   49.8450 H   0  0  0  0  0  0  0  0  0  0  0  0
   63.0810   32.5770   47.7250 C   0  0  0  0  0  0  0  0  0  0  0  0
   63.9893   32.0309   47.4305 H   0  0  0  0  0  0  0  0  0  0  0  0
   62.2400   33.1100   46.7460 C   0  0  0  0  0  0  0  0  0  0  0  0
   62.4994   32.9982   45.6829 H   0  0  0  0  0  0  0  0  0  0  0  0
   61.0650   33.7880   47.1100 C   0  0  0  0  0  0  0  0  0  0  0  0
   60.1460   34.3540   46.0460 C   0  0  0  0  0  0  0  0  0  0  0  0
   60.7512   34.6002   45.1611 H   0  0  0  0  0  0  0  0  0  0  0  0
   59.6578   35.2374   46.4834 H   0  0  0  0  0  0  0  0  0  0  0  0
   59.0670   33.4290   45.6300 N   0  0  0  0  0  0  0  0  0  0  0  0
   57.7260   33.8510   46.0600 C   0  0  0  0  0  0  0  0  0  0  0  0
   57.6021   34.9266   45.8660 H   0  0  0  0  0  0  0  0  0  0  0  0
   57.6106   33.6523   47.1357 H   0  0  0  0  0  0  0  0  0  0  0  0
   56.6550   33.0640   45.2800 C   0  0  0  0  0  0  0  0  0  0  0  0
   56.3938   33.6330   44.3755 H   0  0  0  0  0  0  0  0  0  0  0  0
   55.7940   32.9335   45.9520 H   0  0  0  0  0  0  0  0  0  0  0  0
   57.1010   31.7090   44.8710 N   0  0  0  0  0  0  0  0  0  0  0  0
   57.5790   31.6750   43.4780 C   0  0  0  0  0  0  0  0  0  0  0  0
   58.6762   31.5970   43.4686 H   0  0  0  0  0  0  0  0  0  0  0  0
   57.1451   30.8054   42.9626 H   0  0  0  0  0  0  0  0  0  0  0  0
   57.2726   32.5972   42.9626 H   0  0  0  0  0  0  0  0  0  0  0  0
   58.0860   31.1300   45.8070 C   0  0  0  0  0  0  0  0  0  0  0  0
   58.4021   30.1490   45.4228 H   0  0  0  0  0  0  0  0  0  0  0  0
   57.5998   31.0445   46.7900 H   0  0  0  0  0  0  0  0  0  0  0  0
   59.3370   32.0190   45.9810 C   0  0  0  0  0  0  0  0  0  0  0  0
   60.1371   31.6377   45.3295 H   0  0  0  0  0  0  0  0  0  0  0  0
   59.6349   31.9832   47.0393 H   0  0  0  0  0  0  0  0  0  0  0  0
   60.7670   33.9600   48.4740 C   0  0  0  0  0  0  0  0  0  0  0  0
   59.8515   34.4932   48.7698 H   0  0  0  0  0  0  0  0  0  0  0  0
  1  2  1  0
  2  3  1  0
  3  4  2  0
  3  5  1  0
  5  6  2  0
  6  7  1  0
  6  8  1  0
  8  9  1  0
  9 10  1  0
  9 11  2  0
 11 12  1  0
 12 13  2  0
 13 14  1  0
 13 15  1  0
 15 16  1  0
 15 17  2  0
 17 18  1  0
 17 19  1  0
 19 20  1  0
 19 21  2  0
 21 22  1  0
 11 23  1  0
 23 24  2  0
  2 25  2  0
 25 26  1  0
 25 27  1  0
 27 28  2  0
 28 29  1  0
 28 30  1  0
 30 31  1  0
 30 32  2  0
 32 33  1  0
 32 34  1  0
 34 35  1  0
 35 36  1  0
 35 37  1  0
 35 38  1  0
 38 39  1  0
 39 40  1  0
 39 41  1  0
 39 42  1  0
 42 43  1  0
 42 44  1  0
 42 45  1  0
 45 46  1  0
 46 47  1  0
 46 48  1  0
 46 49  1  0
 45 50  1  0
 50 51  1  0
 50 52  1  0
 50 53  1  0
 53 54  1  0
 53 55  1  0
 34 56  2  0
 56 57  1  0
 23  5  1  0
 56 27  1  0
 21 12  1  0
 53 38  1  0
M  CHG  2   7  -1   8  -1
M  END
>  <UniqueID>  (54) 
48

>  <SMILES>  (54) 
CN1CCN(Cc2cccc(/C=C\C(=O)c3c([O-])[n-]cc(-c4ccc(Cl)cc4)c3=O)c2)CC1

>  <Energy>  (54) 
93.36811912633607

>  <Genealogy>  (54) 
CN1CCN(Cc2cccc(C=CC(=O)c3c([O-])[n-]cc(-c4ccc(Cl)cc4)c3=O)c2)CC1 (protonated)
CN1CCN(Cc2cccc(/C=C\C(=O)c3c([O-])[n-]cc(-c4ccc(Cl)cc4)c3=O)c2)CC1 (cis-trans isomerization)
CN1CCN(Cc2cccc(/C=C\C(=O)c3c([O-])[n-]cc(-c4ccc(Cl)cc4)c3=O)c2)CC1 (3D coordinates assigned)
CN1CCN(Cc2cccc(/C=C\C(=O)c3c([O-])[n-]cc(-c4ccc(Cl)cc4)c3=O)c2)CC1 (nonaromatic ring conformer: 93.36811912633607 kcal/mol)

>  <smiles>  (54) 
CN1CCN(Cc2cccc(C=CC(=O)c3c(O)[nH]cc(-c4ccc(Cl)cc4)c3=O)c2)CC1

>  <score_type>  (54) 
oracle

>  <origin>  (54) 
adg

>  <m_score__min__energy>  (54) 
-13.859999999999999

>  <m_primary>  (54) 
energy

$$$$
54:0
     RDKit          3D

 66 68  0  0  0  0  0  0  0  0999 V2000
   59.3430   33.4710   52.3690 C   0  0  0  0  0  0  0  0  0  0  0  0
   58.3450   32.9890   51.4970 O   0  0  0  0  0  0  0  0  0  0  0  0
   57.1990   32.5920   52.2280 C   0  0  0  0  0  0  0  0  0  0  0  0
   57.2040   30.8250   52.4860 S   0  0  0  0  0  0  0  0  0  0  0  0
   56.9140   30.5220   53.9290 O   0  0  0  0  0  0  0  0  0  0  0  0
   56.1430   30.2170   51.6100 O   0  0  0  0  0  0  0  0  0  0  0  0
   58.7540   30.1820   52.0540 N   0  0  0  0  0  0  0  0  0  0  0  0
   59.2900   30.1390   50.7230 C   0  0  0  0  0  0  0  0  0  0  0  0
   60.5880   29.6460   50.5340 C   0  0  0  0  0  0  0  0  0  0  0  0
   61.1470   29.5970   49.2520 C   0  0  0  0  0  0  0  0  0  0  0  0
   60.4230   30.0670   48.1450 C   0  0  0  0  0  0  0  0  0  0  0  0
   61.0120   30.0010   46.7590 C   0  0  0  0  0  0  0  0  0  0  0  0
   60.1730   29.1220   45.8180 C   0  0  0  0  0  0  0  0  0  0  0  0
   59.4160   28.0890   46.5420 N   0  0  0  0  0  0  0  0  0  0  0  0
   58.3300   27.5220   45.7230 C   0  0  0  0  0  0  0  0  0  0  0  0
   57.0730   28.4190   45.7570 C   0  0  2  0  0  0  0  0  0  0  0  0
   55.9080   27.6490   45.6120 O   0  0  0  0  0  0  0  0  0  0  0  0
   57.1160   29.5320   44.7220 C   0  0  0  0  0  0  0  0  0  0  0  0
   56.4770   29.3880   43.4790 C   0  0  0  0  0  0  0  0  0  0  0  0
   56.5780   30.3900   42.5130 C   0  0  0  0  0  0  0  0  0  0  0  0
   57.2930   31.5580   42.7850 C   0  0  0  0  0  0  0  0  0  0  0  0
   57.9030   31.7440   44.0350 C   0  0  0  0  0  0  0  0  0  0  0  0
   58.6120   32.9670   44.2950 N   0  0  0  0  0  0  0  0  0  0  0  0
   58.0690   34.1750   45.4170 S   0  0  0  0  0  0  0  0  0  0  0  0
   56.6430   34.5460   45.1200 O   0  0  0  0  0  0  0  0  0  0  0  0
   58.9240   35.4010   45.2600 O   0  0  0  0  0  0  0  0  0  0  0  0
   58.2010   33.5730   47.0920 C   0  0  0  0  0  0  0  0  0  0  0  0
   59.6260   33.6520   47.5640 C   0  0  0  0  0  0  0  0  0  0  0  0
   59.9140   33.9190   48.9140 C   0  0  0  0  0  0  0  0  0  0  0  0
   61.2410   33.9850   49.3500 C   0  0  0  0  0  0  0  0  0  0  0  0
   62.2880   33.7680   48.4490 C   0  0  0  0  0  0  0  0  0  0  0  0
   63.5740   33.8380   48.8740 F   0  0  0  0  0  0  0  0  0  0  0  0
   62.0090   33.4830   47.1090 C   0  0  0  0  0  0  0  0  0  0  0  0
   60.6850   33.4200   46.6670 C   0  0  0  0  0  0  0  0  0  0  0  0
   57.8200   30.7200   44.9960 C   0  0  0  0  0  0  0  0  0  0  0  0
   59.1260   30.5660   48.3360 C   0  0  0  0  0  0  0  0  0  0  0  0
   58.5590   30.5910   49.6110 C   0  0  0  0  0  0  0  0  0  0  0  0
   59.0250   33.3174   53.4108 H   0  0  0  0  0  0  0  0  0  0  0  0
   60.2818   32.9270   52.1882 H   0  0  0  0  0  0  0  0  0  0  0  0
   59.5006   34.5445   52.1882 H   0  0  0  0  0  0  0  0  0  0  0  0
   57.1976   33.1004   53.2035 H   0  0  0  0  0  0  0  0  0  0  0  0
   56.2997   32.8659   51.6568 H   0  0  0  0  0  0  0  0  0  0  0  0
   61.1710   29.2954   51.3984 H   0  0  0  0  0  0  0  0  0  0  0  0
   62.1585   29.1883   49.1111 H   0  0  0  0  0  0  0  0  0  0  0  0
   61.0605   31.0189   46.3449 H   0  0  0  0  0  0  0  0  0  0  0  0
   62.0145   29.5549   46.8368 H   0  0  0  0  0  0  0  0  0  0  0  0
   59.4640   29.7634   45.2740 H   0  0  0  0  0  0  0  0  0  0  0  0
   60.8639   28.6117   45.1308 H   0  0  0  0  0  0  0  0  0  0  0  0
   60.0890   27.3170   46.7620 H   0  0  0  0  0  0  0  0  0  0  0  0
   58.6763   27.4301   44.6830 H   0  0  0  0  0  0  0  0  0  0  0  0
   58.0641   26.5368   46.1337 H   0  0  0  0  0  0  0  0  0  0  0  0
   57.0580   28.9052   46.7436 H   0  0  0  0  0  0  0  0  0  0  0  0
   55.1420   28.1830   45.9470 H   0  0  0  0  0  0  0  0  0  0  0  0
   55.8937   28.4801   43.2661 H   0  0  0  0  0  0  0  0  0  0  0  0
   56.0929   30.2593   41.5344 H   0  0  0  0  0  0  0  0  0  0  0  0
   57.3787   32.3379   42.0140 H   0  0  0  0  0  0  0  0  0  0  0  0
   59.4120   33.2270   43.6760 H   0  0  0  0  0  0  0  0  0  0  0  0
   57.5666   34.1861   47.7490 H   0  0  0  0  0  0  0  0  0  0  0  0
   57.8717   32.5239   47.1222 H   0  0  0  0  0  0  0  0  0  0  0  0
   59.0932   34.0764   49.6292 H   0  0  0  0  0  0  0  0  0  0  0  0
   61.4617   34.2082   50.4043 H   0  0  0  0  0  0  0  0  0  0  0  0
   62.8330   33.3081   46.4016 H   0  0  0  0  0  0  0  0  0  0  0  0
   60.4697   33.1881   45.6135 H   0  0  0  0  0  0  0  0  0  0  0  0
   58.3105   30.8489   45.9721 H   0  0  0  0  0  0  0  0  0  0  0  0
   58.5521   30.9400   47.4753 H   0  0  0  0  0  0  0  0  0  0  0  0
   57.5340   30.9666   49.7464 H   0  0  0  0  0  0  0  0  0  0  0  0
  1  2  1  0
  2  3  1  0
  3  4  1  0
  4  5  2  0
  4  6  2  0
  4  7  1  0
  7  8  1  0
  8  9  2  0
  9 10  1  0
 10 11  2  0
 11 12  1  0
 12 13  1  0
 13 14  1  0
 14 15  1  0
 15 16  1  0
 16 17  1  0
 16 18  1  0
 18 19  2  0
 19 20  1  0
 20 21  2  0
 21 22  1  0
 22 23  1  0
 23 24  1  0
 24 25  2  0
 24 26  2  0
 24 27  1  0
 27 28  1  0
 28 29  2  0
 29 30  1  0
 30 31  2  0
 31 32  1  0
 31 33  1  0
 33 34  2  0
 22 35  2  0
 11 36  1  0
 36 37  2  0
 37  8  1  0
 35 18  1  0
 34 28  1  0
  1 38  1  0
  1 39  1  0
  1 40  1  0
  3 41  1  0
  3 42  1  0
  9 43  1  0
 10 44  1  0
 12 45  1  0
 12 46  1  0
 13 47  1  0
 13 48  1  0
 14 49  1  0
 15 50  1  0
 15 51  1  0
 16 52  1  1
 17 53  1  0
 19 54  1  0
 20 55  1  0
 21 56  1  0
 23 57  1  0
 27 58  1  0
 27 59  1  0
 29 60  1  0
 30 61  1  0
 33 62  1  0
 34 63  1  0
 35 64  1  0
 36 65  1  0
 37 66  1  0
M  CHG  1   7  -1
M  END
>  <UniqueID>  (55) 
49

>  <SMILES>  (55) 
COCS(=O)(=O)[N-]c1ccc(CCNC[C@H](O)c2cccc(NS(=O)(=O)Cc3ccc(F)cc3)c2)cc1

>  <Energy>  (55) 
62.23549470191323

>  <Genealogy>  (55) 
COCS(=O)(=O)[N-]c1ccc(CCNCC(O)c2cccc(NS(=O)(=O)Cc3ccc(F)cc3)c2)cc1 (protonated)
COCS(=O)(=O)[N-]c1ccc(CCNC[C@H](O)c2cccc(NS(=O)(=O)Cc3ccc(F)cc3)c2)cc1 (chirality)
COCS(=O)(=O)[N-]c1ccc(CCNC[C@H](O)c2cccc(NS(=O)(=O)Cc3ccc(F)cc3)c2)cc1 (3D coordinates assigned)
COCS(=O)(=O)[N-]c1ccc(CCNC[C@H](O)c2cccc(NS(=O)(=O)Cc3ccc(F)cc3)c2)cc1 (optimized conformer: 62.23549470191323 kcal/mol)

>  <smiles>  (55) 
COCS(=O)(=O)Nc1ccc(CCNCC(O)c2cccc(NS(=O)(=O)Cc3ccc(F)cc3)c2)cc1

>  <score_type>  (55) 
oracle

>  <origin>  (55) 
adg

>  <m_score__min__energy>  (55) 
-11.640000000000001

>  <m_primary>  (55) 
energy

$$$$
55:0
     RDKit          3D

 36 38  0  0  0  0  0  0  0  0999 V2000
   58.1290   19.7580   45.4090 H   0  0  0  0  0  0  0  0  0  0  0  0
   57.9300   20.3670   46.2360 N   0  0  0  0  0  0  0  0  0  0  0  0
   57.9100   21.6590   46.1570 C   0  0  0  0  0  0  0  0  0  0  0  0
   57.2500   22.3800   47.1010 N   0  0  0  0  0  0  0  0  0  0  0  0
   57.2020   23.7370   47.0520 C   0  0  0  0  0  0  0  0  0  0  0  0
   56.6638   24.3000   47.8288 H   0  0  0  0  0  0  0  0  0  0  0  0
   57.8440   24.4170   46.0030 C   0  0  0  0  0  0  0  0  0  0  0  0
   57.8380   25.8960   45.9130 C   0  0  0  0  0  0  0  0  0  0  0  0
   59.0390   26.6010   46.1050 C   0  0  0  0  0  0  0  0  0  0  0  0
   59.9659   26.0497   46.3218 H   0  0  0  0  0  0  0  0  0  0  0  0
   59.0660   27.9940   46.0230 C   0  0  0  0  0  0  0  0  0  0  0  0
   60.0096   28.5338   46.1910 H   0  0  0  0  0  0  0  0  0  0  0  0
   57.8980   28.7080   45.7280 C   0  0  0  0  0  0  0  0  0  0  0  0
   57.9440   30.1790   45.6430 C   0  0  0  0  0  0  0  0  0  0  0  0
   58.4950   30.8940   46.7180 C   0  0  0  0  0  0  0  0  0  0  0  0
   58.8859   30.3521   47.5918 H   0  0  0  0  0  0  0  0  0  0  0  0
   58.5500   32.2890   46.6850 C   0  0  0  0  0  0  0  0  0  0  0  0
   58.9830   32.8424   47.5314 H   0  0  0  0  0  0  0  0  0  0  0  0
   58.0560   32.9810   45.5790 C   0  0  0  0  0  0  0  0  0  0  0  0
   58.0968   34.0800   45.5569 H   0  0  0  0  0  0  0  0  0  0  0  0
   57.5100   32.2830   44.5000 C   0  0  0  0  0  0  0  0  0  0  0  0
   57.1222   32.8365   43.6321 H   0  0  0  0  0  0  0  0  0  0  0  0
   57.4520   30.8790   44.5140 C   0  0  0  0  0  0  0  0  0  0  0  0
   56.7760   30.0290   43.1160 S   0  0  0  0  0  0  0  0  0  0  0  0
   57.4010   28.6670   42.9850 O   0  0  0  0  0  0  0  0  0  0  0  0
   57.0560   30.8120   41.8650 O   0  0  0  0  0  0  0  0  0  0  0  0
   55.0690   29.8360   43.3110 N   0  0  0  0  0  0  0  0  0  0  0  0
   54.8580   28.8210   43.1810 H   0  0  0  0  0  0  0  0  0  0  0  0
   54.8460   30.0680   44.3050 H   0  0  0  0  0  0  0  0  0  0  0  0
   56.6920   28.0140   45.5340 C   0  0  0  0  0  0  0  0  0  0  0  0
   55.5190   28.7100   45.2570 O   0  0  0  0  0  0  0  0  0  0  0  0
   56.6630   26.6160   45.6160 C   0  0  0  0  0  0  0  0  0  0  0  0
   55.4970   25.9700   45.3610 F   0  0  0  0  0  0  0  0  0  0  0  0
   58.5180   23.6900   45.0700 N   0  0  0  0  0  0  0  0  0  0  0  0
   58.5650   22.3330   45.1170 C   0  0  0  0  0  0  0  0  0  0  0  0
   59.1115   21.7690   44.3468 H   0  0  0  0  0  0  0  0  0  0  0  0
  1  2  1  0
  2  3  2  0
  3  4  1  0
  4  5  1  0
  5  6  1  0
  5  7  2  0
  7  8  1  0
  8  9  2  0
  9 10  1  0
  9 11  1  0
 11 12  1  0
 11 13  2  0
 13 14  1  0
 14 15  2  0
 15 16  1  0
 15 17  1  0
 17 18  1  0
 17 19  2  0
 19 20  1  0
 19 21  1  0
 21 22  1  0
 21 23  2  0
 23 24  1  0
 24 25  2  0
 24 26  2  0
 24 27  1  0
 27 28  1  0
 27 29  1  0
 13 30  1  0
 30 31  1  0
 30 32  2  0
 32 33  1  0
  7 34  1  0
 34 35  2  0
 35 36  1  0
 35  3  1  0
 32  8  1  0
 23 14  1  0
M  CHG  2   4  -1  31  -1
M  END
>  <UniqueID>  (56) 
50

>  <SMILES>  (56) 
[H]/N=c1\cnc(-c2ccc(-c3ccccc3S(N)(=O)=O)c([O-])c2F)c[n-]1

>  <Energy>  (56) 
54.35308077259958

>  <Genealogy>  (56) 
N=c1cnc(-c2ccc(-c3ccccc3S(N)(=O)=O)c([O-])c2F)c[n-]1 (protonated)
[H]/N=c1\cnc(-c2ccc(-c3ccccc3S(N)(=O)=O)c([O-])c2F)c[n-]1 (cis-trans isomerization)
[H]/N=c1\cnc(-c2ccc(-c3ccccc3S(N)(=O)=O)c([O-])c2F)c[n-]1 (3D coordinates assigned)
[H]/N=c1\cnc(-c2ccc(-c3ccccc3S(N)(=O)=O)c([O-])c2F)c[n-]1 (optimized conformer: 54.35308077259958 kcal/mol)

>  <smiles>  (56) 
N=c1cnc(-c2ccc(-c3ccccc3S(N)(=O)=O)c(O)c2F)c[nH]1

>  <score_type>  (56) 
oracle

>  <origin>  (56) 
adg

>  <m_score__min__energy>  (56) 
-12.869999999999999

>  <m_primary>  (56) 
energy

$$$$
56:0
     RDKit          3D

 45 47  0  0  0  0  0  0  0  0999 V2000
   61.2623   26.1474   46.4215 H   0  0  0  0  0  0  0  0  0  0  0  0
   60.1640   26.0930   46.3940 C   0  0  0  0  0  0  0  0  0  0  0  0
   59.5480   24.8860   46.3690 N   0  0  0  0  0  0  0  0  0  0  0  0
   58.1950   24.7740   46.3350 C   0  0  0  0  0  0  0  0  0  0  0  0
   57.7324   23.7762   46.3143 H   0  0  0  0  0  0  0  0  0  0  0  0
   57.3780   25.9200   46.3260 C   0  0  0  0  0  0  0  0  0  0  0  0
   55.9000   25.7430   46.2850 C   0  0  0  0  0  0  0  0  0  0  0  0
   55.1340   26.7030   46.0030 O   0  0  0  0  0  0  0  0  0  0  0  0
   55.3350   24.5030   46.5630 O   0  0  0  0  0  0  0  0  0  0  0  0
   58.0010   27.1960   46.3630 C   0  0  0  0  0  0  0  0  0  0  0  0
   57.2680   28.2770   46.3430 N   0  0  0  0  0  0  0  0  0  0  0  0
   57.0550   29.1550   45.2280 C   0  0  0  0  0  0  0  0  0  0  0  0
   55.9290   29.6990   45.0900 O   0  0  0  0  0  0  0  0  0  0  0  0
   58.1500   29.4530   44.2770 C   0  0  0  0  0  0  0  0  0  0  0  0
   58.8050   28.5060   43.7690 O   0  0  0  0  0  0  0  0  0  0  0  0
   58.4540   30.7930   43.8710 N   0  0  0  0  0  0  0  0  0  0  0  0
   58.3270   31.9710   44.6800 C   0  0  0  0  0  0  0  0  0  0  0  0
   57.4820   33.0310   44.3070 C   0  0  0  0  0  0  0  0  0  0  0  0
   56.9156   32.9760   43.3657 H   0  0  0  0  0  0  0  0  0  0  0  0
   57.3600   34.1540   45.1290 C   0  0  0  0  0  0  0  0  0  0  0  0
   56.7086   34.9873   44.8267 H   0  0  0  0  0  0  0  0  0  0  0  0
   58.0640   34.2210   46.3350 C   0  0  0  0  0  0  0  0  0  0  0  0
   57.9739   35.1113   46.9747 H   0  0  0  0  0  0  0  0  0  0  0  0
   58.8840   33.1560   46.7300 C   0  0  0  0  0  0  0  0  0  0  0  0
   59.7900   33.2320   48.2390 S   0  0  0  0  0  0  0  0  0  0  0  0
   59.8200   34.6470   48.7500 O   0  0  0  0  0  0  0  0  0  0  0  0
   59.1030   32.3680   49.2590 O   0  0  0  0  0  0  0  0  0  0  0  0
   61.4200   32.6580   47.9830 N   0  0  0  0  0  0  0  0  0  0  0  0
   62.0650   33.4360   46.9070 C   0  0  0  0  0  0  0  0  0  0  0  0
   61.7365   33.0460   45.9323 H   0  0  0  0  0  0  0  0  0  0  0  0
   61.7763   34.4923   47.0115 H   0  0  0  0  0  0  0  0  0  0  0  0
   63.5950   33.3290   47.0040 C   0  0  0  0  0  0  0  0  0  0  0  0
   63.8747   32.2709   46.8934 H   0  0  0  0  0  0  0  0  0  0  0  0
   64.0078   33.9641   46.2064 H   0  0  0  0  0  0  0  0  0  0  0  0
   64.1360   33.8080   48.2300 O   0  0  0  0  0  0  0  0  0  0  0  0
   63.2020   33.8280   49.3000 C   0  0  0  0  0  0  0  0  0  0  0  0
   63.7556   33.7662   50.2485 H   0  0  0  0  0  0  0  0  0  0  0  0
   62.6290   34.7632   49.2162 H   0  0  0  0  0  0  0  0  0  0  0  0
   62.1930   32.6670   49.2460 C   0  0  0  0  0  0  0  0  0  0  0  0
   62.7406   31.7170   49.3333 H   0  0  0  0  0  0  0  0  0  0  0  0
   61.4832   32.7967   50.0762 H   0  0  0  0  0  0  0  0  0  0  0  0
   59.0090   32.0320   45.9010 C   0  0  0  0  0  0  0  0  0  0  0  0
   59.6475   31.1922   46.2123 H   0  0  0  0  0  0  0  0  0  0  0  0
   59.4110   27.2650   46.3850 C   0  0  0  0  0  0  0  0  0  0  0  0
   59.9144   28.2430   46.3950 H   0  0  0  0  0  0  0  0  0  0  0  0
  1  2  1  0
  2  3  1  0
  3  4  1  0
  4  5  1  0
  4  6  2  0
  6  7  1  0
  7  8  2  0
  7  9  1  0
  6 10  1  0
 10 11  2  0
 11 12  1  0
 12 13  2  0
 12 14  1  0
 14 15  2  0
 14 16  1  0
 16 17  1  0
 17 18  2  0
 18 19  1  0
 18 20  1  0
 20 21  1  0
 20 22  2  0
 22 23  1  0
 22 24  1  0
 24 25  1  0
 25 26  2  0
 25 27  2  0
 25 28  1  0
 28 29  1  0
 29 30  1  0
 29 31  1  0
 29 32  1  0
 32 33  1  0
 32 34  1  0
 32 35  1  0
 35 36  1  0
 36 37  1  0
 36 38  1  0
 36 39  1  0
 39 40  1  0
 39 41  1  0
 24 42  2  0
 42 43  1  0
 10 44  1  0
 44 45  1  0
 44  2  2  0
 42 17  1  0
 39 28  1  0
M  CHG  3   3  -1   9  -1  16  -1
M  END
>  <UniqueID>  (57) 
51

>  <SMILES>  (57) 
O=C(/N=c1\cc[n-]cc1C(=O)[O-])C(=O)[N-]c1cccc(S(=O)(=O)N2CCOCC2)c1

>  <Energy>  (57) 
78.66230234388782

>  <Genealogy>  (57) 
O=C(N=c1cc[n-]cc1C(=O)[O-])C(=O)[N-]c1cccc(S(=O)(=O)N2CCOCC2)c1 (protonated)
O=C(/N=c1\cc[n-]cc1C(=O)[O-])C(=O)[N-]c1cccc(S(=O)(=O)N2CCOCC2)c1 (cis-trans isomerization)
O=C(/N=c1\cc[n-]cc1C(=O)[O-])C(=O)[N-]c1cccc(S(=O)(=O)N2CCOCC2)c1 (3D coordinates assigned)
O=C(/N=c1\cc[n-]cc1C(=O)[O-])C(=O)[N-]c1cccc(S(=O)(=O)N2CCOCC2)c1 (nonaromatic ring conformer: 78.66230234388782 kcal/mol)

>  <smiles>  (57) 
O=C(N=c1cc[nH]cc1C(=O)O)C(=O)Nc1cccc(S(=O)(=O)N2CCOCC2)c1

>  <score_type>  (57) 
oracle

>  <origin>  (57) 
adg

>  <m_score__min__energy>  (57) 
-14.92

>  <m_primary>  (57) 
energy

$$$$
57:0
     RDKit          3D

 52 54  0  0  0  0  0  0  0  0999 V2000
   57.8870   32.9480   46.7120 C   0  0  0  0  0  0  0  0  0  0  0  0
   58.8050   33.9030   45.9770 C   0  0  0  0  0  0  0  0  0  0  0  0
   59.5110   34.7420   46.8600 O   0  0  0  0  0  0  0  0  0  0  0  0
   60.7270   34.3280   47.4280 C   0  0  0  0  0  0  0  0  0  0  0  0
   61.7240   33.8140   46.6870 N   0  0  0  0  0  0  0  0  0  0  0  0
   62.8730   33.4260   47.2460 C   0  0  0  0  0  0  0  0  0  0  0  0
   63.7870   32.9370   46.4740 N   0  0  0  0  0  0  0  0  0  0  0  0
   63.0570   33.5510   48.6240 C   0  0  0  0  0  0  0  0  0  0  0  0
   64.2780   33.1380   49.2210 N   0  0  0  0  0  0  0  0  0  0  0  0
   64.6130   31.9420   49.0000 O   0  0  0  0  0  0  0  0  0  0  0  0
   62.0270   34.0830   49.3970 C   0  0  0  0  0  0  0  0  0  0  0  0
   62.1650   34.2280   50.7730 O   0  0  0  0  0  0  0  0  0  0  0  0
   61.4680   33.4370   51.7090 C   0  0  0  0  0  0  0  0  0  0  0  0
   60.1300   33.0310   51.1980 C   0  0  0  0  0  0  0  0  0  0  0  0
   59.1990   33.8490   50.9750 O   0  0  0  0  0  0  0  0  0  0  0  0
   59.8710   31.6580   50.9440 N   0  0  0  0  0  0  0  0  0  0  0  0
   60.8670   30.6130   51.1670 C   0  0  0  0  0  0  0  0  0  0  0  0
   60.3730   29.2800   50.6510 C   0  0  0  0  0  0  0  0  0  0  0  0
   59.7390   29.4230   49.3490 N   0  0  0  0  0  0  0  0  0  0  0  0
   59.9810   28.4120   48.3890 C   0  0  0  0  0  0  0  0  0  0  0  0
   60.7280   27.4520   48.7560 O   0  0  0  0  0  0  0  0  0  0  0  0
   59.4510   28.3860   47.0440 C   0  0  0  0  0  0  0  0  0  0  0  0
   60.0350   29.2780   46.1350 C   0  0  0  0  0  0  0  0  0  0  0  0
   59.6190   29.3500   44.8220 C   0  0  0  0  0  0  0  0  0  0  0  0
   58.6000   28.5130   44.4070 C   0  0  0  0  0  0  0  0  0  0  0  0
   57.9890   27.6080   45.2810 C   0  0  0  0  0  0  0  0  0  0  0  0
   58.4430   27.5700   46.6030 C   0  0  0  0  0  0  0  0  0  0  0  0
   58.8970   30.5680   49.0840 C   0  0  0  0  0  0  0  0  0  0  0  0
   58.5840   31.2080   50.4380 C   0  0  0  0  0  0  0  0  0  0  0  0
   60.8990   34.4520   48.7600 N   0  0  0  0  0  0  0  0  0  0  0  0
   58.0135   33.0796   47.7967 H   0  0  0  0  0  0  0  0  0  0  0  0
   56.8430   33.1579   46.4365 H   0  0  0  0  0  0  0  0  0  0  0  0
   58.1380   31.9131   46.4365 H   0  0  0  0  0  0  0  0  0  0  0  0
   59.5276   33.3186   45.3886 H   0  0  0  0  0  0  0  0  0  0  0  0
   58.1844   34.5386   45.3283 H   0  0  0  0  0  0  0  0  0  0  0  0
   64.6480   32.5610   46.9270 H   0  0  0  0  0  0  0  0  0  0  0  0
   62.0578   32.5332   51.9215 H   0  0  0  0  0  0  0  0  0  0  0  0
   61.3203   34.0344   52.6208 H   0  0  0  0  0  0  0  0  0  0  0  0
   61.7951   30.8815   50.6412 H   0  0  0  0  0  0  0  0  0  0  0  0
   61.0503   30.5261   52.2481 H   0  0  0  0  0  0  0  0  0  0  0  0
   61.2260   28.5913   50.5612 H   0  0  0  0  0  0  0  0  0  0  0  0
   59.6297   28.8856   51.3594 H   0  0  0  0  0  0  0  0  0  0  0  0
   60.8460   29.9377   46.4772 H   0  0  0  0  0  0  0  0  0  0  0  0
   60.0871   30.0570   44.1213 H   0  0  0  0  0  0  0  0  0  0  0  0
   58.2607   28.5600   43.3617 H   0  0  0  0  0  0  0  0  0  0  0  0
   57.1780   26.9479   44.9396 H   0  0  0  0  0  0  0  0  0  0  0  0
   57.9779   26.8655   47.3082 H   0  0  0  0  0  0  0  0  0  0  0  0
   59.4252   31.2855   48.4388 H   0  0  0  0  0  0  0  0  0  0  0  0
   57.9741   30.2683   48.5658 H   0  0  0  0  0  0  0  0  0  0  0  0
   57.8974   32.0586   50.3149 H   0  0  0  0  0  0  0  0  0  0  0  0
   58.0912   30.5045   51.1252 H   0  0  0  0  0  0  0  0  0  0  0  0
   60.0900   34.8660   49.2820 H   0  0  0  0  0  0  0  0  0  0  0  0
  1  2  1  0
  2  3  1  0
  3  4  1  0
  4  5  2  0
  5  6  1  0
  6  7  2  3
  6  8  1  0
  8  9  1  0
  9 10  2  0
  8 11  2  0
 11 12  1  0
 12 13  1  0
 13 14  1  0
 14 15  2  0
 14 16  1  0
 16 17  1  0
 17 18  1  0
 18 19  1  0
 19 20  1  0
 20 21  2  0
 20 22  1  0
 22 23  2  0
 23 24  1  0
 24 25  2  0
 25 26  1  0
 26 27  2  0
 19 28  1  0
 28 29  1  0
 11 30  1  0
 30  4  1  0
 29 16  1  0
 27 22  1  0
  1 31  1  0
  1 32  1  0
  1 33  1  0
  2 34  1  0
  2 35  1  0
  7 36  1  0
 13 37  1  0
 13 38  1  0
 17 39  1  0
 17 40  1  0
 18 41  1  0
 18 42  1  0
 23 43  1  0
 24 44  1  0
 25 45  1  0
 26 46  1  0
 27 47  1  0
 28 48  1  0
 28 49  1  0
 29 50  1  0
 29 51  1  0
 30 52  1  0
M  END
>  <smiles>  (58) 
CCOc1nc(=N)c(N=O)c(OCC(=O)N2CCN(C(=O)c3ccccc3)CC2)[nH]1

>  <score_type>  (58) 
oracle

>  <origin>  (58) 
adg

>  <m_score__min__energy>  (58) 
-7.8799999999999999

>  <m_primary>  (58) 
energy

$$$$
58:0
     RDKit          3D

 75 78  0  0  0  0  0  0  0  0999 V2000
   58.8457   32.8994   51.2296 H   0  0  0  0  0  0  0  0  0  0  0  0
   59.5760   32.8420   50.4090 C   0  0  0  0  0  0  0  0  0  0  0  0
   59.2540   32.2660   49.2950 N   0  0  0  0  0  0  0  0  0  0  0  0
   59.1000   32.9440   48.0420 C   0  0  0  0  0  0  0  0  0  0  0  0
   59.0150   34.2030   48.0030 O   0  0  0  0  0  0  0  0  0  0  0  0
   59.0080   32.1570   46.7960 C   0  0  0  0  0  0  0  0  0  0  0  0
   59.7880   31.0610   46.4420 C   0  0  0  0  0  0  0  0  0  0  0  0
   60.9460   30.4950   47.2110 C   0  0  0  0  0  0  0  0  0  0  0  0
   60.7515   30.5901   48.2895 H   0  0  0  0  0  0  0  0  0  0  0  0
   61.0732   29.4331   46.9536 H   0  0  0  0  0  0  0  0  0  0  0  0
   61.8620   31.0470   46.9536 H   0  0  0  0  0  0  0  0  0  0  0  0
   59.2570   30.5690   45.2550 C   0  0  0  0  0  0  0  0  0  0  0  0
   59.7030   29.3490   44.4940 C   0  0  0  0  0  0  0  0  0  0  0  0
   59.5009   29.5058   43.4241 H   0  0  0  0  0  0  0  0  0  0  0  0
   60.7774   29.2082   44.6830 H   0  0  0  0  0  0  0  0  0  0  0  0
   58.9890   28.1040   44.9440 C   0  0  0  0  0  0  0  0  0  0  0  0
   57.6140   27.9190   45.0440 C   0  0  0  0  0  0  0  0  0  0  0  0
   56.5520   28.9540   44.8150 C   0  0  0  0  0  0  0  0  0  0  0  0
   56.1791   29.3174   45.7840 H   0  0  0  0  0  0  0  0  0  0  0  0
   56.9760   29.7949   44.2466 H   0  0  0  0  0  0  0  0  0  0  0  0
   55.7223   28.5085   44.2466 H   0  0  0  0  0  0  0  0  0  0  0  0
   57.4380   26.6550   45.5870 C   0  0  0  0  0  0  0  0  0  0  0  0
   56.1660   26.0180   45.9600 C   0  0  0  0  0  0  0  0  0  0  0  0
   55.1230   26.7220   46.0200 O   0  0  0  0  0  0  0  0  0  0  0  0
   56.0890   24.6270   46.2960 N   0  0  0  0  0  0  0  0  0  0  0  0
   55.6270   23.5670   45.3970 C   0  0  0  0  0  0  0  0  0  0  0  0
   54.5302   23.4884   45.4249 H   0  0  0  0  0  0  0  0  0  0  0  0
   56.0110   23.9050   43.9310 C   0  0  0  0  0  0  0  0  0  0  0  0
   55.1730   24.4389   43.4590 H   0  0  0  0  0  0  0  0  0  0  0  0
   56.9184   24.5263   43.9534 H   0  0  0  0  0  0  0  0  0  0  0  0
   56.3200   22.6490   43.1120 C   0  0  0  0  0  0  0  0  0  0  0  0
   55.4330   21.9985   43.1054 H   0  0  0  0  0  0  0  0  0  0  0  0
   56.5843   22.9578   42.0899 H   0  0  0  0  0  0  0  0  0  0  0  0
   57.5090   21.8700   43.7070 C   0  0  0  0  0  0  0  0  0  0  0  0
   57.4151   20.8138   43.4144 H   0  0  0  0  0  0  0  0  0  0  0  0
   58.4275   22.3307   43.3145 H   0  0  0  0  0  0  0  0  0  0  0  0
   57.5840   21.9460   45.2470 C   0  0  0  0  0  0  0  0  0  0  0  0
   57.9692   20.9904   45.6324 H   0  0  0  0  0  0  0  0  0  0  0  0
   58.2508   22.7784   45.5163 H   0  0  0  0  0  0  0  0  0  0  0  0
   56.2100   22.2150   45.8710 C   0  0  0  0  0  0  0  0  0  0  0  0
   55.5215   21.4076   45.5811 H   0  0  0  0  0  0  0  0  0  0  0  0
   56.3290   22.2546   46.9638 H   0  0  0  0  0  0  0  0  0  0  0  0
   58.7010   26.1240   45.7740 C   0  0  0  0  0  0  0  0  0  0  0  0
   59.0130   24.7830   46.3600 C   0  0  0  0  0  0  0  0  0  0  0  0
   58.9974   24.8500   47.4578 H   0  0  0  0  0  0  0  0  0  0  0  0
   58.2607   24.0531   46.0265 H   0  0  0  0  0  0  0  0  0  0  0  0
   60.0103   24.4601   46.0265 H   0  0  0  0  0  0  0  0  0  0  0  0
   59.6380   27.0020   45.3730 N   0  0  0  0  0  0  0  0  0  0  0  0
   60.6730   26.8700   45.4240 H   0  0  0  0  0  0  0  0  0  0  0  0
   58.2400   31.3520   44.8480 N   0  0  0  0  0  0  0  0  0  0  0  0
   57.6660   31.2240   43.9860 H   0  0  0  0  0  0  0  0  0  0  0  0
   58.0790   32.3150   45.7760 C   0  0  0  0  0  0  0  0  0  0  0  0
   57.0150   33.3620   45.7000 C   0  0  0  0  0  0  0  0  0  0  0  0
   56.7164   33.6558   46.7171 H   0  0  0  0  0  0  0  0  0  0  0  0
   57.4027   34.2405   45.1635 H   0  0  0  0  0  0  0  0  0  0  0  0
   56.1428   32.9602   45.1635 H   0  0  0  0  0  0  0  0  0  0  0  0
   60.9470   33.4320   50.5810 C   0  0  0  0  0  0  0  0  0  0  0  0
   60.8624   34.5287   50.5947 H   0  0  0  0  0  0  0  0  0  0  0  0
   61.3636   33.0529   51.5258 H   0  0  0  0  0  0  0  0  0  0  0  0
   61.8650   33.0360   49.4840 N   0  0  0  0  0  0  0  0  0  0  0  0
   61.3820   32.3150   48.8920 H   0  0  0  0  0  0  0  0  0  0  0  0
   62.2260   34.1910   48.6300 C   0  0  0  0  0  0  0  0  0  0  0  0
   61.3058   34.6489   48.2381 H   0  0  0  0  0  0  0  0  0  0  0  0
   62.7890   34.9127   49.2400 H   0  0  0  0  0  0  0  0  0  0  0  0
   63.1160   33.7530   47.4440 C   0  0  0  0  0  0  0  0  0  0  0  0
   62.5051   33.7363   46.5294 H   0  0  0  0  0  0  0  0  0  0  0  0
   63.9438   34.4723   47.3581 H   0  0  0  0  0  0  0  0  0  0  0  0
   63.6960   32.4180   47.6510 N   0  0  0  0  0  0  0  0  0  0  0  0
   64.4930   32.3040   46.9820 H   0  0  0  0  0  0  0  0  0  0  0  0
   64.2230   32.2900   49.0120 C   0  0  0  0  0  0  0  0  0  0  0  0
   64.7027   31.3063   49.1223 H   0  0  0  0  0  0  0  0  0  0  0  0
   64.9544   33.0933   49.1846 H   0  0  0  0  0  0  0  0  0  0  0  0
   63.0900   32.4200   50.0510 C   0  0  0  0  0  0  0  0  0  0  0  0
   62.8389   31.4169   50.4261 H   0  0  0  0  0  0  0  0  0  0  0  0
   63.4505   33.0756   50.8574 H   0  0  0  0  0  0  0  0  0  0  0  0
  1  2  1  0
  2  3  2  0
  3  4  1  0
  4  5  2  0
  4  6  1  0
  6  7  1  0
  7  8  1  0
  8  9  1  0
  8 10  1  0
  8 11  1  0
  7 12  2  0
 12 13  1  0
 13 14  1  0
 13 15  1  0
 13 16  1  0
 16 17  2  0
 17 18  1  0
 18 19  1  0
 18 20  1  0
 18 21  1  0
 17 22  1  0
 22 23  1  0
 23 24  2  0
 23 25  1  0
 25 26  1  0
 26 27  1  0
 26 28  1  0
 28 29  1  0
 28 30  1  0
 28 31  1  0
 31 32  1  0
 31 33  1  0
 31 34  1  0
 34 35  1  0
 34 36  1  0
 34 37  1  0
 37 38  1  0
 37 39  1  0
 37 40  1  0
 40 41  1  0
 40 42  1  0
 22 43  2  0
 43 44  1  0
 44 45  1  0
 44 46  1  0
 44 47  1  0
 43 48  1  0
 48 49  1  0
 12 50  1  0
 50 51  1  0
 50 52  1  0
 52 53  1  0
 53 54  1  0
 53 55  1  0
 53 56  1  0
  2 57  1  0
 57 58  1  0
 57 59  1  0
 57 60  1  0
 60 61  1  0
 60 62  1  0
 62 63  1  0
 62 64  1  0
 62 65  1  0
 65 66  1  0
 65 67  1  0
 65 68  1  0
 68 69  1  0
 68 70  1  0
 70 71  1  0
 70 72  1  0
 70 73  1  0
 73 74  1  0
 73 75  1  0
 52  6  2  0
 73 60  1  0
 48 16  1  0
 40 26  1  0
M  CHG  2  25  -1  60   1
M  END
>  <UniqueID>  (59) 
52

>  <SMILES>  (59) 
Cc1[nH]c(Cc2[nH]c(C)c(C(=O)[N-]C3CCCCC3)c2C)c(C)c1C(=O)/N=C/C[NH+]1CCNCC1

>  <Energy>  (59) 
134.77310740087222

>  <Genealogy>  (59) 
Cc1[nH]c(Cc2[nH]c(C)c(C(=O)[N-]C3CCCCC3)c2C)c(C)c1C(=O)N=CC[NH+]1CCNCC1 (protonated)
Cc1[nH]c(Cc2[nH]c(C)c(C(=O)[N-]C3CCCCC3)c2C)c(C)c1C(=O)/N=C/C[NH+]1CCNCC1 (cis-trans isomerization)
Cc1[nH]c(Cc2[nH]c(C)c(C(=O)[N-]C3CCCCC3)c2C)c(C)c1C(=O)/N=C/C[NH+]1CCNCC1 (3D coordinates assigned)
Cc1[nH]c(Cc2[nH]c(C)c(C(=O)[N-]C3CCCCC3)c2C)c(C)c1C(=O)/N=C/C[NH+]1CCNCC1 (nonaromatic ring conformer: 134.77310740087222 kcal/mol)

>  <smiles>  (59) 
Cc1[nH]c(Cc2[nH]c(C)c(C(=O)NC3CCCCC3)c2C)c(C)c1C(=O)N=CCN1CCNCC1

>  <score_type>  (59) 
oracle

>  <origin>  (59) 
adg

>  <m_score__min__energy>  (59) 
-9.7200000000000006

>  <m_primary>  (59) 
energy

$$$$
59:0
     RDKit          3D

 55 58  0  0  0  0  0  0  0  0999 V2000
   59.9230   34.2320   50.1770 O   0  0  0  0  0  0  0  0  0  0  0  0
   59.2030   33.3720   49.5970 C   0  0  0  0  0  0  0  0  0  0  0  0
   58.5820   32.3310   50.3710 N   0  0  0  0  0  0  0  0  0  0  0  0
   58.6520   32.2980   51.8280 C   0  0  0  0  0  0  0  0  0  0  0  0
   57.6460   31.3330   52.3700 C   0  0  0  0  0  0  0  0  0  0  0  0
   57.2960   31.1870   53.6970 C   0  0  0  0  0  0  0  0  0  0  0  0
   56.3580   30.1790   53.7230 C   0  0  0  0  0  0  0  0  0  0  0  0
   56.1950   29.7710   52.4140 C   0  0  0  0  0  0  0  0  0  0  0  0
   56.9770   30.4780   51.6300 O   0  0  0  0  0  0  0  0  0  0  0  0
   59.0250   33.4470   48.1280 C   0  0  0  0  0  0  0  0  0  0  0  0
   59.4080   34.5910   47.4040 C   0  0  0  0  0  0  0  0  0  0  0  0
   59.2580   34.6340   46.0160 C   0  0  0  0  0  0  0  0  0  0  0  0
   58.7310   33.5370   45.3330 C   0  0  0  0  0  0  0  0  0  0  0  0
   58.3480   32.3900   46.0360 C   0  0  0  0  0  0  0  0  0  0  0  0
   57.7740   30.9760   45.1590 S   0  0  0  0  0  0  0  0  0  0  0  0
   58.8170   30.5100   44.1820 O   0  0  0  0  0  0  0  0  0  0  0  0
   56.5230   31.3200   44.3990 O   0  0  0  0  0  0  0  0  0  0  0  0
   57.4230   29.7180   46.2900 N   0  0  0  0  0  0  0  0  0  0  0  0
   58.2030   28.5210   46.3060 C   0  0  0  0  0  0  0  0  0  0  0  0
   57.9870   27.5520   45.3170 C   0  0  0  0  0  0  0  0  0  0  0  0
   58.7890   26.4100   45.2640 C   0  0  0  0  0  0  0  0  0  0  0  0
   59.8190   26.2360   46.1900 C   0  0  0  0  0  0  0  0  0  0  0  0
   60.0450   27.1990   47.1770 C   0  0  0  0  0  0  0  0  0  0  0  0
   59.2310   28.3410   47.2550 C   0  0  0  0  0  0  0  0  0  0  0  0
   59.5120   29.3580   48.2930 C   0  0  0  0  0  0  0  0  0  0  0  0
   58.6530   29.5610   49.1940 O   0  0  0  0  0  0  0  0  0  0  0  0
   60.7280   30.1300   48.2840 N   0  0  0  0  0  0  0  0  0  0  0  0
   61.3860   30.4990   49.5420 C   0  0  0  0  0  0  0  0  0  0  0  0
   61.9490   31.9190   49.4290 C   0  0  0  0  0  0  0  0  0  0  0  0
   62.7610   32.0490   48.2760 O   0  0  0  0  0  0  0  0  0  0  0  0
   61.9720   31.8830   47.1120 C   0  0  0  0  0  0  0  0  0  0  0  0
   61.4150   30.4580   47.0300 C   0  0  0  0  0  0  0  0  0  0  0  0
   58.4990   32.3460   47.4290 C   0  0  0  0  0  0  0  0  0  0  0  0
   58.1050   31.5380   49.8890 H   0  0  0  0  0  0  0  0  0  0  0  0
   59.6601   31.9841   52.1366 H   0  0  0  0  0  0  0  0  0  0  0  0
   58.4354   33.3022   52.2213 H   0  0  0  0  0  0  0  0  0  0  0  0
   57.6847   31.7564   54.5541 H   0  0  0  0  0  0  0  0  0  0  0  0
   55.8423   29.7793   54.6086 H   0  0  0  0  0  0  0  0  0  0  0  0
   55.5139   28.9750   52.0786 H   0  0  0  0  0  0  0  0  0  0  0  0
   59.8286   35.4578   47.9349 H   0  0  0  0  0  0  0  0  0  0  0  0
   59.5561   35.5350   45.4597 H   0  0  0  0  0  0  0  0  0  0  0  0
   58.6166   33.5744   44.2396 H   0  0  0  0  0  0  0  0  0  0  0  0
   57.1827   27.6914   44.5797 H   0  0  0  0  0  0  0  0  0  0  0  0
   58.6090   25.6472   44.4922 H   0  0  0  0  0  0  0  0  0  0  0  0
   60.4540   25.3390   46.1426 H   0  0  0  0  0  0  0  0  0  0  0  0
   60.8652   27.0619   47.8971 H   0  0  0  0  0  0  0  0  0  0  0  0
   60.6551   30.4591   50.3631 H   0  0  0  0  0  0  0  0  0  0  0  0
   62.2066   29.7954   49.7456 H   0  0  0  0  0  0  0  0  0  0  0  0
   61.1150   32.6333   49.3649 H   0  0  0  0  0  0  0  0  0  0  0  0
   62.5636   32.1258   50.3176 H   0  0  0  0  0  0  0  0  0  0  0  0
   61.1350   32.5962   47.1391 H   0  0  0  0  0  0  0  0  0  0  0  0
   62.6030   32.0659   46.2297 H   0  0  0  0  0  0  0  0  0  0  0  0
   60.7041   30.3895   46.1934 H   0  0  0  0  0  0  0  0  0  0  0  0
   62.2408   29.7497   46.8675 H   0  0  0  0  0  0  0  0  0  0  0  0
   58.2032   31.4415   47.9806 H   0  0  0  0  0  0  0  0  0  0  0  0
  1  2  2  0
  2  3  1  0
  3  4  1  0
  4  5  1  0
  5  6  2  0
  6  7  1  0
  7  8  2  0
  8  9  1  0
  2 10  1  0
 10 11  2  0
 11 12  1  0
 12 13  2  0
 13 14  1  0
 14 15  1  0
 15 16  2  0
 15 17  2  0
 15 18  1  0
 18 19  1  0
 19 20  2  0
 20 21  1  0
 21 22  2  0
 22 23  1  0
 23 24  2  0
 24 25  1  0
 25 26  2  0
 25 27  1  0
 27 28  1  0
 28 29  1  0
 29 30  1  0
 30 31  1  0
 31 32  1  0
 14 33  2  0
  9  5  1  0
 33 10  1  0
 24 19  1  0
 32 27  1  0
  3 34  1  0
  4 35  1  0
  4 36  1  0
  6 37  1  0
  7 38  1  0
  8 39  1  0
 11 40  1  0
 12 41  1  0
 13 42  1  0
 20 43  1  0
 21 44  1  0
 22 45  1  0
 23 46  1  0
 28 47  1  0
 28 48  1  0
 29 49  1  0
 29 50  1  0
 31 51  1  0
 31 52  1  0
 32 53  1  0
 32 54  1  0
 33 55  1  0
M  CHG  1  18  -1
M  END
>  <UniqueID>  (60) 
53

>  <SMILES>  (60) 
O=C(NCc1ccco1)c1cccc(S(=O)(=O)[N-]c2ccccc2C(=O)N2CCOCC2)c1

>  <Energy>  (60) 
97.41023885551395

>  <Genealogy>  (60) 
O=C(NCc1ccco1)c1cccc(S(=O)(=O)[N-]c2ccccc2C(=O)N2CCOCC2)c1 (protonated)
O=C(NCc1ccco1)c1cccc(S(=O)(=O)[N-]c2ccccc2C(=O)N2CCOCC2)c1 (3D coordinates assigned)
O=C(NCc1ccco1)c1cccc(S(=O)(=O)[N-]c2ccccc2C(=O)N2CCOCC2)c1 (nonaromatic ring conformer: 97.41023885551395 kcal/mol)

>  <smiles>  (60) 
O=C(NCc1ccco1)c1cccc(S(=O)(=O)Nc2ccccc2C(=O)N2CCOCC2)c1

>  <score_type>  (60) 
oracle

>  <origin>  (60) 
adg

>  <m_score__min__energy>  (60) 
-11.31

>  <m_primary>  (60) 
energy

$$$$
60:0
     RDKit          3D

 44 45  0  0  0  0  0  0  0  0999 V2000
   63.3930   33.8560   46.3810 C   0  0  0  0  0  0  0  0  0  0  0  0
   63.6020   33.6840   47.6900 C   0  0  0  0  0  0  0  0  0  0  0  0
   63.3470   32.3700   48.3700 C   0  0  0  0  0  0  0  0  0  0  0  0
   61.9830   32.3290   48.8810 N   0  0  0  0  0  0  0  0  0  0  0  0
   61.0360   31.3260   48.4990 C   0  0  0  0  0  0  0  0  0  0  0  0
   59.9750   31.1750   49.1640 O   0  0  0  0  0  0  0  0  0  0  0  0
   61.2380   30.5270   47.2760 C   0  0  0  0  0  0  0  0  0  0  0  0
   60.7480   29.2940   47.0770 C   0  0  0  0  0  0  0  0  0  0  0  0
   59.3680   29.0000   46.6390 C   0  0  0  0  0  0  0  0  0  0  0  0
   58.7050   27.8750   47.1420 C   0  0  0  0  0  0  0  0  0  0  0  0
   57.4240   27.5520   46.6870 C   0  0  0  0  0  0  0  0  0  0  0  0
   56.8050   28.3320   45.7050 C   0  0  0  0  0  0  0  0  0  0  0  0
   55.5390   27.9800   45.2540 O   0  0  0  0  0  0  0  0  0  0  0  0
   57.4670   29.4540   45.1760 C   0  0  0  0  0  0  0  0  0  0  0  0
   56.7170   30.4270   43.9040 S   0  0  0  0  0  0  0  0  0  0  0  0
   55.5390   31.1750   44.4670 O   0  0  0  0  0  0  0  0  0  0  0  0
   56.2480   29.5130   42.8060 O   0  0  0  0  0  0  0  0  0  0  0  0
   57.8620   31.5560   43.2420 N   0  0  0  0  0  0  0  0  0  0  0  0
   57.5590   32.9040   43.7200 C   0  0  0  0  0  0  0  0  0  0  0  0
   58.1520   33.1420   45.0870 C   0  0  0  0  0  0  0  0  0  0  0  0
   57.4550   32.7820   46.2580 C   0  0  0  0  0  0  0  0  0  0  0  0
   57.9860   33.0820   47.5170 C   0  0  0  0  0  0  0  0  0  0  0  0
   59.2010   33.7680   47.6240 C   0  0  0  0  0  0  0  0  0  0  0  0
   59.7150   34.0640   48.8840 O   0  0  0  0  0  0  0  0  0  0  0  0
   59.8840   34.1550   46.4630 C   0  0  0  0  0  0  0  0  0  0  0  0
   59.3600   33.8490   45.2030 C   0  0  0  0  0  0  0  0  0  0  0  0
   58.7510   29.7780   45.6450 C   0  0  0  0  0  0  0  0  0  0  0  0
   63.5908   34.8332   45.9162 H   0  0  0  0  0  0  0  0  0  0  0  0
   63.0233   33.0204   45.7686 H   0  0  0  0  0  0  0  0  0  0  0  0
   63.9719   34.5306   48.2869 H   0  0  0  0  0  0  0  0  0  0  0  0
   63.4901   31.5525   47.6480 H   0  0  0  0  0  0  0  0  0  0  0  0
   64.0499   32.2552   49.2083 H   0  0  0  0  0  0  0  0  0  0  0  0
   61.8343   30.9749   46.4674 H   0  0  0  0  0  0  0  0  0  0  0  0
   61.4212   28.4419   47.2523 H   0  0  0  0  0  0  0  0  0  0  0  0
   59.1939   27.2429   47.8980 H   0  0  0  0  0  0  0  0  0  0  0  0
   56.8995   26.6794   47.1035 H   0  0  0  0  0  0  0  0  0  0  0  0
   57.9765   33.6376   43.0146 H   0  0  0  0  0  0  0  0  0  0  0  0
   56.4666   33.0126   43.7894 H   0  0  0  0  0  0  0  0  0  0  0  0
   56.4885   32.2624   46.1815 H   0  0  0  0  0  0  0  0  0  0  0  0
   57.4466   32.7776   48.4260 H   0  0  0  0  0  0  0  0  0  0  0  0
   60.2120   33.3710   49.4300 H   0  0  0  0  0  0  0  0  0  0  0  0
   60.8354   34.7013   46.5431 H   0  0  0  0  0  0  0  0  0  0  0  0
   59.8976   34.1642   44.2966 H   0  0  0  0  0  0  0  0  0  0  0  0
   59.2785   30.6494   45.2299 H   0  0  0  0  0  0  0  0  0  0  0  0
  1  2  2  0
  2  3  1  0
  3  4  1  0
  4  5  1  0
  5  6  2  0
  5  7  1  0
  7  8  2  3
  8  9  1  0
  9 10  2  0
 10 11  1  0
 11 12  2  0
 12 13  1  0
 12 14  1  0
 14 15  1  0
 15 16  2  0
 15 17  2  0
 15 18  1  0
 18 19  1  0
 19 20  1  0
 20 21  2  0
 21 22  1  0
 22 23  2  0
 23 24  1  0
 23 25  1  0
 25 26  2  0
 14 27  2  0
 27  9  1  0
 26 20  1  0
  1 28  1  0
  1 29  1  0
  2 30  1  0
  3 31  1  0
  3 32  1  0
  7 33  1  0
  8 34  1  0
 10 35  1  0
 11 36  1  0
 19 37  1  0
 19 38  1  0
 21 39  1  0
 22 40  1  0
 24 41  1  0
 25 42  1  0
 26 43  1  0
 27 44  1  0
M  CHG  3   4  -1  13  -1  18  -1
M  END
>  <UniqueID>  (61) 
54

>  <SMILES>  (61) 
C=CC[N-]C(=O)C=Cc1ccc([O-])c(S(=O)(=O)[N-]Cc2ccc(O)cc2)c1

>  <Energy>  (61) 
41.643730411924274

>  <Genealogy>  (61) 
C=CC[N-]C(=O)C=Cc1ccc([O-])c(S(=O)(=O)[N-]Cc2ccc(O)cc2)c1 (protonated)
C=CC[N-]C(=O)C=Cc1ccc([O-])c(S(=O)(=O)[N-]Cc2ccc(O)cc2)c1 (3D coordinates assigned)
C=CC[N-]C(=O)C=Cc1ccc([O-])c(S(=O)(=O)[N-]Cc2ccc(O)cc2)c1 (optimized conformer: 41.643730411924274 kcal/mol)

>  <smiles>  (61) 
C=CCNC(=O)C=Cc1ccc(O)c(S(=O)(=O)NCc2ccc(O)cc2)c1

>  <score_type>  (61) 
oracle

>  <origin>  (61) 
adg

>  <m_score__min__energy>  (61) 
-13.5

>  <m_primary>  (61) 
energy

$$$$
61:0
     RDKit          3D

 64 68  0  0  0  0  0  0  0  0999 V2000
   54.6430   30.7660   51.9690 C   0  0  0  0  0  0  0  0  0  0  0  0
   55.9870   31.3420   52.4120 C   0  0  0  0  0  0  0  0  0  0  0  0
   57.1410   30.8950   51.5050 C   0  0  0  0  0  0  0  0  0  0  0  0
   58.1510   31.9960   51.3000 C   0  0  0  0  0  0  0  0  0  0  0  0
   58.8210   32.5810   52.3900 C   0  0  0  0  0  0  0  0  0  0  0  0
   59.7520   33.6080   52.1450 C   0  0  0  0  0  0  0  0  0  0  0  0
   59.9940   34.0360   50.8730 N   0  0  0  0  0  0  0  0  0  0  0  0
   59.3130   33.4620   49.8510 C   0  0  0  0  0  0  0  0  0  0  0  0
   59.4160   33.7190   48.5030 C   0  0  0  0  0  0  0  0  0  0  0  0
   60.4220   34.6140   47.8290 C   0  0  0  0  0  0  0  0  0  0  0  0
   61.8210   34.0910   48.0250 C   0  0  0  0  0  0  0  0  0  0  0  0
   62.5010   33.4570   46.9700 C   0  0  0  0  0  0  0  0  0  0  0  0
   63.7950   32.9620   47.1620 C   0  0  0  0  0  0  0  0  0  0  0  0
   64.4210   33.1000   48.4030 C   0  0  0  0  0  0  0  0  0  0  0  0
   63.7550   33.7340   49.4550 C   0  0  0  0  0  0  0  0  0  0  0  0
   62.4580   34.2280   49.2690 C   0  0  0  0  0  0  0  0  0  0  0  0
   58.5200   32.8030   47.9340 C   0  0  0  0  0  0  0  0  0  0  0  0
   58.2910   32.5630   46.4960 C   0  0  0  0  0  0  0  0  0  0  0  0
   58.1230   33.6310   45.6030 C   0  0  0  0  0  0  0  0  0  0  0  0
   57.9270   33.3860   44.2420 C   0  0  0  0  0  0  0  0  0  0  0  0
   57.8870   32.0740   43.7630 C   0  0  0  0  0  0  0  0  0  0  0  0
   58.0440   30.9920   44.6460 C   0  0  0  0  0  0  0  0  0  0  0  0
   57.9620   29.6330   44.1860 N   0  0  0  0  0  0  0  0  0  0  0  0
   57.4170   28.5540   44.9600 C   0  0  0  0  0  0  0  0  0  0  0  0
   56.7310   28.7970   45.9910 O   0  0  0  0  0  0  0  0  0  0  0  0
   57.6400   27.2000   44.5390 N   0  0  0  0  0  0  0  0  0  0  0  0
   57.0010   26.0620   45.1450 C   0  0  0  0  0  0  0  0  0  0  0  0
   55.9730   26.2260   45.8590 O   0  0  0  0  0  0  0  0  0  0  0  0
   57.5140   24.6880   44.9160 C   0  0  0  0  0  0  0  0  0  0  0  0
   58.6730   24.2470   45.5820 C   0  0  0  0  0  0  0  0  0  0  0  0
   59.1700   22.9580   45.3640 C   0  0  0  0  0  0  0  0  0  0  0  0
   58.5210   22.0990   44.4740 C   0  0  0  0  0  0  0  0  0  0  0  0
   57.3760   22.5270   43.7990 C   0  0  0  0  0  0  0  0  0  0  0  0
   56.8750   23.8150   44.0120 C   0  0  0  0  0  0  0  0  0  0  0  0
   58.2220   31.2460   46.0140 C   0  0  0  0  0  0  0  0  0  0  0  0
   57.9390   32.0560   48.9050 N   0  0  0  0  0  0  0  0  0  0  0  0
   58.4290   32.4790   50.0590 N   0  0  0  0  0  0  0  0  0  0  0  0
   54.0441   30.5093   52.8552 H   0  0  0  0  0  0  0  0  0  0  0  0
   54.1049   31.5125   51.3664 H   0  0  0  0  0  0  0  0  0  0  0  0
   54.8124   29.8615   51.3664 H   0  0  0  0  0  0  0  0  0  0  0  0
   55.9254   32.4401   52.3904 H   0  0  0  0  0  0  0  0  0  0  0  0
   56.1938   30.9704   53.4265 H   0  0  0  0  0  0  0  0  0  0  0  0
   57.6434   30.0324   51.9671 H   0  0  0  0  0  0  0  0  0  0  0  0
   56.7212   30.6290   50.5236 H   0  0  0  0  0  0  0  0  0  0  0  0
   58.6206   32.2414   53.4169 H   0  0  0  0  0  0  0  0  0  0  0  0
   60.2890   34.0693   52.9869 H   0  0  0  0  0  0  0  0  0  0  0  0
   60.2011   34.6578   46.7523 H   0  0  0  0  0  0  0  0  0  0  0  0
   60.3554   35.6172   48.2752 H   0  0  0  0  0  0  0  0  0  0  0  0
   62.0133   33.3499   45.9898 H   0  0  0  0  0  0  0  0  0  0  0  0
   64.3205   32.4632   46.3343 H   0  0  0  0  0  0  0  0  0  0  0  0
   65.4385   32.7095   48.5521 H   0  0  0  0  0  0  0  0  0  0  0  0
   64.2503   33.8453   50.4309 H   0  0  0  0  0  0  0  0  0  0  0  0
   61.9363   34.7251   50.1001 H   0  0  0  0  0  0  0  0  0  0  0  0
   58.1457   34.6657   45.9758 H   0  0  0  0  0  0  0  0  0  0  0  0
   57.8038   34.2283   43.5453 H   0  0  0  0  0  0  0  0  0  0  0  0
   57.7320   31.8872   42.6901 H   0  0  0  0  0  0  0  0  0  0  0  0
   58.2440   29.4280   43.2000 H   0  0  0  0  0  0  0  0  0  0  0  0
   58.2810   27.0460   43.7300 H   0  0  0  0  0  0  0  0  0  0  0  0
   59.1918   24.9213   46.2792 H   0  0  0  0  0  0  0  0  0  0  0  0
   60.0729   22.6203   45.8939 H   0  0  0  0  0  0  0  0  0  0  0  0
   58.9121   21.0849   44.3048 H   0  0  0  0  0  0  0  0  0  0  0  0
   56.8669   21.8493   43.0980 H   0  0  0  0  0  0  0  0  0  0  0  0
   55.9772   24.1490   43.4712 H   0  0  0  0  0  0  0  0  0  0  0  0
   58.3085   30.4043   46.7168 H   0  0  0  0  0  0  0  0  0  0  0  0
  1  2  1  0
  2  3  1  0
  3  4  1  0
  4  5  2  0
  5  6  1  0
  6  7  2  0
  7  8  1  0
  8  9  2  0
  9 10  1  0
 10 11  1  0
 11 12  2  0
 12 13  1  0
 13 14  2  0
 14 15  1  0
 15 16  2  0
  9 17  1  0
 17 18  1  0
 18 19  2  0
 19 20  1  0
 20 21  2  0
 21 22  1  0
 22 23  1  0
 23 24  1  0
 24 25  2  0
 24 26  1  0
 26 27  1  0
 27 28  2  0
 27 29  1  0
 29 30  2  0
 30 31  1  0
 31 32  2  0
 32 33  1  0
 33 34  2  0
 22 35  2  0
 17 36  2  0
 36 37  1  0
 37  4  1  0
 37  8  1  0
 16 11  1  0
 35 18  1  0
 34 29  1  0
  1 38  1  0
  1 39  1  0
  1 40  1  0
  2 41  1  0
  2 42  1  0
  3 43  1  0
  3 44  1  0
  5 45  1  0
  6 46  1  0
 10 47  1  0
 10 48  1  0
 12 49  1  0
 13 50  1  0
 14 51  1  0
 15 52  1  0
 16 53  1  0
 19 54  1  0
 20 55  1  0
 21 56  1  0
 23 57  1  0
 26 58  1  0
 30 59  1  0
 31 60  1  0
 32 61  1  0
 33 62  1  0
 34 63  1  0
 35 64  1  0
M  END
>  <UniqueID>  (62) 
55

>  <SMILES>  (62) 
CCCc1ccnc2c(Cc3ccccc3)c(-c3cccc(NC(=O)NC(=O)c4ccccc4)c3)nn12

>  <Energy>  (62) 
110.60191813761956

>  <Genealogy>  (62) 
CCCc1ccnc2c(Cc3ccccc3)c(-c3cccc(NC(=O)NC(=O)c4ccccc4)c3)nn12 (3D coordinates assigned)
CCCc1ccnc2c(Cc3ccccc3)c(-c3cccc(NC(=O)NC(=O)c4ccccc4)c3)nn12 (optimized conformer: 110.60191813761956 kcal/mol)

>  <smiles>  (62) 
CCCc1ccnc2c(Cc3ccccc3)c(-c3cccc(NC(=O)NC(=O)c4ccccc4)c3)nn12

>  <score_type>  (62) 
oracle

>  <origin>  (62) 
adg

>  <m_score__min__energy>  (62) 
-10.949999999999999

>  <m_primary>  (62) 
energy

$$$$
62:0
     RDKit          3D

 50 53  0  0  0  0  0  0  0  0999 V2000
   58.8820   27.4700   43.4050 C   0  0  0  0  0  0  0  0  0  0  0  0
   58.1470   26.5050   43.9900 C   0  0  0  0  0  0  0  0  0  0  0  0
   57.5170   25.6120   43.1760 N   0  0  0  0  0  0  0  0  0  0  0  0
   56.9810   24.4590   43.6480 C   0  0  0  0  0  0  0  0  0  0  0  0
   56.4260   23.6680   42.8370 O   0  0  0  0  0  0  0  0  0  0  0  0
   57.0650   24.1480   44.9780 N   0  0  0  0  0  0  0  0  0  0  0  0
   56.5090   22.8690   45.4710 C   0  0  0  0  0  0  0  0  0  0  0  0
   55.0150   22.9740   45.6490 C   0  0  0  0  0  0  0  0  0  0  0  0
   54.2930   23.9970   45.0110 C   0  0  0  0  0  0  0  0  0  0  0  0
   52.9040   24.0790   45.1590 C   0  0  0  0  0  0  0  0  0  0  0  0
   52.2260   23.1400   45.9410 C   0  0  0  0  0  0  0  0  0  0  0  0
   52.9360   22.1180   46.5770 C   0  0  0  0  0  0  0  0  0  0  0  0
   54.3240   22.0340   46.4320 C   0  0  0  0  0  0  0  0  0  0  0  0
   57.6190   25.0470   45.8540 C   0  0  0  0  0  0  0  0  0  0  0  0
   57.6700   24.7630   47.0860 O   0  0  0  0  0  0  0  0  0  0  0  0
   58.1060   26.3010   45.4020 C   0  0  0  0  0  0  0  0  0  0  0  0
   58.4720   27.2330   46.3260 C   0  0  0  0  0  0  0  0  0  0  0  0
   58.2720   28.6920   46.2050 C   0  0  0  0  0  0  0  0  0  0  0  0
   59.4500   29.8500   46.5420 S   0  0  0  0  0  0  0  0  0  0  0  0
   58.5070   31.1300   45.9880 C   0  0  0  0  0  0  0  0  0  0  0  0
   58.9000   32.5180   45.9850 N   0  0  0  0  0  0  0  0  0  0  0  0
   59.7950   33.0140   47.0380 C   0  0  0  0  0  0  0  0  0  0  0  0
   60.5280   34.2730   46.5680 C   0  0  0  0  0  0  0  0  0  0  0  0
   59.6120   35.2240   46.0650 O   0  0  0  0  0  0  0  0  0  0  0  0
   59.0110   34.7240   44.8880 C   0  0  0  0  0  0  0  0  0  0  0  0
   58.1440   33.4980   45.1940 C   0  0  0  0  0  0  0  0  0  0  0  0
   57.3130   30.6960   45.5240 N   0  0  0  0  0  0  0  0  0  0  0  0
   57.1740   29.3450   45.6270 C   0  0  0  0  0  0  0  0  0  0  0  0
   55.9360   28.6800   45.1810 C   0  0  0  0  0  0  0  0  0  0  0  0
   55.1510   29.2810   44.4000 O   0  0  0  0  0  0  0  0  0  0  0  0
   55.6070   27.4040   45.6210 O   0  0  0  0  0  0  0  0  0  0  0  0
   59.4077   28.2122   44.0237 H   0  0  0  0  0  0  0  0  0  0  0  0
   58.9566   27.5160   42.3085 H   0  0  0  0  0  0  0  0  0  0  0  0
   57.4860   25.7740   42.1400 H   0  0  0  0  0  0  0  0  0  0  0  0
   56.7316   22.0738   44.7443 H   0  0  0  0  0  0  0  0  0  0  0  0
   56.9667   22.6343   46.4433 H   0  0  0  0  0  0  0  0  0  0  0  0
   54.8222   24.7367   44.3924 H   0  0  0  0  0  0  0  0  0  0  0  0
   52.3450   24.8837   44.6591 H   0  0  0  0  0  0  0  0  0  0  0  0
   51.1340   23.2053   46.0559 H   0  0  0  0  0  0  0  0  0  0  0  0
   52.4022   21.3788   47.1924 H   0  0  0  0  0  0  0  0  0  0  0  0
   54.8783   21.2273   46.9339 H   0  0  0  0  0  0  0  0  0  0  0  0
   58.9589   26.8674   47.2421 H   0  0  0  0  0  0  0  0  0  0  0  0
   59.2029   33.2527   47.9338 H   0  0  0  0  0  0  0  0  0  0  0  0
   60.5368   32.2359   47.2707 H   0  0  0  0  0  0  0  0  0  0  0  0
   61.0743   34.7110   47.4163 H   0  0  0  0  0  0  0  0  0  0  0  0
   61.2282   33.9967   45.7659 H   0  0  0  0  0  0  0  0  0  0  0  0
   58.3809   35.5088   44.4442 H   0  0  0  0  0  0  0  0  0  0  0  0
   59.8051   34.4264   44.1875 H   0  0  0  0  0  0  0  0  0  0  0  0
   57.2568   33.8147   45.7620 H   0  0  0  0  0  0  0  0  0  0  0  0
   57.8402   33.0313   44.2454 H   0  0  0  0  0  0  0  0  0  0  0  0
  1  2  2  0
  2  3  1  0
  3  4  1  0
  4  5  2  0
  4  6  1  0
  6  7  1  0
  7  8  1  0
  8  9  2  0
  9 10  1  0
 10 11  2  0
 11 12  1  0
 12 13  2  0
  6 14  1  0
 14 15  2  0
 14 16  1  0
 16 17  2  3
 17 18  1  0
 18 19  1  0
 19 20  1  0
 20 21  1  0
 21 22  1  0
 22 23  1  0
 23 24  1  0
 24 25  1  0
 25 26  1  0
 20 27  2  0
 27 28  1  0
 28 29  1  0
 29 30  2  0
 29 31  1  0
 16  2  1  0
 28 18  2  0
 13  8  1  0
 26 21  1  0
  1 32  1  0
  1 33  1  0
  3 34  1  0
  7 35  1  0
  7 36  1  0
  9 37  1  0
 10 38  1  0
 11 39  1  0
 12 40  1  0
 13 41  1  0
 17 42  1  0
 22 43  1  0
 22 44  1  0
 23 45  1  0
 23 46  1  0
 25 47  1  0
 25 48  1  0
 26 49  1  0
 26 50  1  0
M  CHG  1  31  -1
M  END
>  <UniqueID>  (63) 
56

>  <SMILES>  (63) 
C=c1[nH]c(=O)n(Cc2ccccc2)c(=O)c1=Cc1sc(N2CCOCC2)nc1C(=O)[O-]

>  <Energy>  (63) 
112.54525915289277

>  <Genealogy>  (63) 
C=c1[nH]c(=O)n(Cc2ccccc2)c(=O)c1=Cc1sc(N2CCOCC2)nc1C(=O)[O-] (protonated)
C=c1[nH]c(=O)n(Cc2ccccc2)c(=O)c1=Cc1sc(N2CCOCC2)nc1C(=O)[O-] (3D coordinates assigned)
C=c1[nH]c(=O)n(Cc2ccccc2)c(=O)c1=Cc1sc(N2CCOCC2)nc1C(=O)[O-] (nonaromatic ring conformer: 112.54525915289277 kcal/mol)

>  <smiles>  (63) 
C=c1[nH]c(=O)n(Cc2ccccc2)c(=O)c1=Cc1sc(N2CCOCC2)nc1C(=O)O

>  <score_type>  (63) 
oracle

>  <origin>  (63) 
adg

>  <m_score__min__energy>  (63) 
-11.19

>  <m_primary>  (63) 
energy

$$$$
63:0
     RDKit          3D

 57 60  0  0  0  0  0  0  0  0999 V2000
   55.6670   28.7020   45.1830 O   0  0  0  0  0  0  0  0  0  0  0  0
   56.8180   28.1900   45.2450 C   0  0  0  0  0  0  0  0  0  0  0  0
   57.9820   28.9360   44.6450 C   0  0  0  0  0  0  0  0  0  0  0  0
   57.9570   30.3860   45.0640 C   0  0  0  0  0  0  0  0  0  0  0  0
   57.7230   31.3920   44.1090 C   0  0  0  0  0  0  0  0  0  0  0  0
   57.7040   32.7370   44.4870 C   0  0  0  0  0  0  0  0  0  0  0  0
   57.9190   33.0910   45.8180 C   0  0  0  0  0  0  0  0  0  0  0  0
   58.1490   32.1030   46.7790 C   0  0  0  0  0  0  0  0  0  0  0  0
   58.1540   30.7430   46.4150 C   0  0  0  0  0  0  0  0  0  0  0  0
   58.3890   29.7280   47.3570 O   0  0  0  0  0  0  0  0  0  0  0  0
   58.9010   29.9150   48.6490 C   0  0  0  0  0  0  0  0  0  0  0  0
   58.1340   29.8530   49.6490 O   0  0  0  0  0  0  0  0  0  0  0  0
   60.3180   30.1180   48.8370 N   0  0  0  0  0  0  0  0  0  0  0  0
   61.2280   30.0960   47.6790 C   0  0  0  0  0  0  0  0  0  0  0  0
   61.8890   31.4360   47.4890 C   0  0  0  0  0  0  0  0  0  0  0  0
   63.1930   31.6610   47.9640 C   0  0  0  0  0  0  0  0  0  0  0  0
   63.7830   32.9200   47.8350 C   0  0  0  0  0  0  0  0  0  0  0  0
   63.0810   33.9650   47.2240 C   0  0  0  0  0  0  0  0  0  0  0  0
   61.7900   33.7480   46.7410 C   0  0  0  0  0  0  0  0  0  0  0  0
   61.1940   32.4900   46.8710 C   0  0  0  0  0  0  0  0  0  0  0  0
   60.8590   30.4430   50.1670 C   0  0  0  0  0  0  0  0  0  0  0  0
   60.1450   31.6280   50.7660 C   0  0  0  0  0  0  0  0  0  0  0  0
   59.4180   31.4900   51.9630 C   0  0  0  0  0  0  0  0  0  0  0  0
   58.7930   32.6010   52.5410 C   0  0  0  0  0  0  0  0  0  0  0  0
   58.8810   33.8530   51.9280 C   0  0  0  0  0  0  0  0  0  0  0  0
   59.5920   33.9980   50.7330 C   0  0  0  0  0  0  0  0  0  0  0  0
   60.2130   32.8900   50.1480 C   0  0  0  0  0  0  0  0  0  0  0  0
   57.0040   26.8800   45.9220 C   0  0  0  0  0  0  0  0  0  0  0  0
   58.2750   26.4630   46.3460 C   0  0  0  0  0  0  0  0  0  0  0  0
   58.4280   25.2800   47.0010 N   0  0  0  0  0  0  0  0  0  0  0  0
   57.3570   24.4790   47.2490 C   0  0  0  0  0  0  0  0  0  0  0  0
   57.5090   23.3960   47.8710 O   0  0  0  0  0  0  0  0  0  0  0  0
   56.1200   24.8500   46.8300 N   0  0  0  0  0  0  0  0  0  0  0  0
   55.9180   26.0230   46.1770 C   0  0  0  0  0  0  0  0  0  0  0  0
   54.7460   26.3410   45.8290 O   0  0  0  0  0  0  0  0  0  0  0  0
   58.9210   28.4768   44.9878 H   0  0  0  0  0  0  0  0  0  0  0  0
   57.9101   28.8825   43.5487 H   0  0  0  0  0  0  0  0  0  0  0  0
   57.5538   31.1179   43.0572 H   0  0  0  0  0  0  0  0  0  0  0  0
   57.5193   33.5171   43.7338 H   0  0  0  0  0  0  0  0  0  0  0  0
   57.9076   34.1508   46.1126 H   0  0  0  0  0  0  0  0  0  0  0  0
   58.3272   32.3895   47.8260 H   0  0  0  0  0  0  0  0  0  0  0  0
   62.0026   29.3326   47.8441 H   0  0  0  0  0  0  0  0  0  0  0  0
   60.6434   29.8616   46.7772 H   0  0  0  0  0  0  0  0  0  0  0  0
   63.7512   30.8412   48.4396 H   0  0  0  0  0  0  0  0  0  0  0  0
   64.8013   33.0906   48.2143 H   0  0  0  0  0  0  0  0  0  0  0  0
   63.5465   34.9567   47.1245 H   0  0  0  0  0  0  0  0  0  0  0  0
   61.2400   34.5685   46.2569 H   0  0  0  0  0  0  0  0  0  0  0  0
   60.1763   32.3242   46.4878 H   0  0  0  0  0  0  0  0  0  0  0  0
   60.7318   29.5740   50.8293 H   0  0  0  0  0  0  0  0  0  0  0  0
   61.9248   30.6934   50.0601 H   0  0  0  0  0  0  0  0  0  0  0  0
   59.3406   30.5049   52.4464 H   0  0  0  0  0  0  0  0  0  0  0  0
   58.2313   32.4879   53.4800 H   0  0  0  0  0  0  0  0  0  0  0  0
   58.3908   34.7250   52.3855 H   0  0  0  0  0  0  0  0  0  0  0  0
   59.6630   34.9849   50.2523 H   0  0  0  0  0  0  0  0  0  0  0  0
   60.7577   33.0058   49.1994 H   0  0  0  0  0  0  0  0  0  0  0  0
   59.1526   27.0959   46.1478 H   0  0  0  0  0  0  0  0  0  0  0  0
   59.3800   24.9930   47.3170 H   0  0  0  0  0  0  0  0  0  0  0  0
  1  2  2  0
  2  3  1  0
  3  4  1  0
  4  5  2  0
  5  6  1  0
  6  7  2  0
  7  8  1  0
  8  9  2  0
  9 10  1  0
 10 11  1  0
 11 12  2  0
 11 13  1  0
 13 14  1  0
 14 15  1  0
 15 16  2  0
 16 17  1  0
 17 18  2  0
 18 19  1  0
 19 20  2  0
 13 21  1  0
 21 22  1  0
 22 23  2  0
 23 24  1  0
 24 25  2  0
 25 26  1  0
 26 27  2  0
  2 28  1  0
 28 29  2  0
 29 30  1  0
 30 31  1  0
 31 32  2  0
 31 33  1  0
 33 34  1  0
 34 35  2  0
  9  4  1  0
 20 15  1  0
 27 22  1  0
 34 28  1  0
  3 36  1  0
  3 37  1  0
  5 38  1  0
  6 39  1  0
  7 40  1  0
  8 41  1  0
 14 42  1  0
 14 43  1  0
 16 44  1  0
 17 45  1  0
 18 46  1  0
 19 47  1  0
 20 48  1  0
 21 49  1  0
 21 50  1  0
 23 51  1  0
 24 52  1  0
 25 53  1  0
 26 54  1  0
 27 55  1  0
 29 56  1  0
 30 57  1  0
M  CHG  1  33  -1
M  END
>  <UniqueID>  (64) 
57

>  <SMILES>  (64) 
O=C(Cc1ccccc1OC(=O)N(Cc1ccccc1)Cc1ccccc1)c1c[nH]c(=O)[n-]c1=O

>  <Energy>  (64) 
62.869611279310526

>  <Genealogy>  (64) 
O=C(Cc1ccccc1OC(=O)N(Cc1ccccc1)Cc1ccccc1)c1c[nH]c(=O)[n-]c1=O (protonated)
O=C(Cc1ccccc1OC(=O)N(Cc1ccccc1)Cc1ccccc1)c1c[nH]c(=O)[n-]c1=O (3D coordinates assigned)
O=C(Cc1ccccc1OC(=O)N(Cc1ccccc1)Cc1ccccc1)c1c[nH]c(=O)[n-]c1=O (optimized conformer: 62.869611279310526 kcal/mol)

>  <smiles>  (64) 
O=C(Cc1ccccc1OC(=O)N(Cc1ccccc1)Cc1ccccc1)c1c[nH]c(=O)[nH]c1=O

>  <score_type>  (64) 
oracle

>  <origin>  (64) 
adg

>  <m_score__min__energy>  (64) 
-12.02

>  <m_primary>  (64) 
energy

$$$$
64:0
     RDKit          3D

 51 54  0  0  0  0  0  0  0  0999 V2000
   53.7730   25.9580   46.3640 H   0  0  0  0  0  0  0  0  0  0  0  0
   54.1480   25.1900   45.8180 O   0  0  0  0  0  0  0  0  0  0  0  0
   55.5200   25.0150   45.6420 C   0  0  0  0  0  0  0  0  0  0  0  0
   56.0290   23.7180   45.4780 C   0  0  0  0  0  0  0  0  0  0  0  0
   55.3409   22.8607   45.4393 H   0  0  0  0  0  0  0  0  0  0  0  0
   57.4010   23.5110   45.3640 C   0  0  0  0  0  0  0  0  0  0  0  0
   57.8005   22.4946   45.2326 H   0  0  0  0  0  0  0  0  0  0  0  0
   58.2620   24.6030   45.4180 C   0  0  0  0  0  0  0  0  0  0  0  0
   59.3489   24.4507   45.3441 H   0  0  0  0  0  0  0  0  0  0  0  0
   57.7600   25.8570   45.5620 N   0  0  0  0  0  0  0  0  0  0  0  0
   56.4250   26.1090   45.6570 C   0  0  0  0  0  0  0  0  0  0  0  0
   56.0510   27.3530   45.7850 N   0  0  0  0  0  0  0  0  0  0  0  0
   56.6260   28.5120   45.1700 C   0  0  0  0  0  0  0  0  0  0  0  0
   55.9660   29.5850   45.1380 O   0  0  0  0  0  0  0  0  0  0  0  0
   58.0540   28.5040   44.7100 C   0  0  0  0  0  0  0  0  0  0  0  0
   58.3180   27.4949   44.3606 H   0  0  0  0  0  0  0  0  0  0  0  0
   58.1718   29.2271   43.8895 H   0  0  0  0  0  0  0  0  0  0  0  0
   58.9640   28.8920   45.8420 C   0  0  0  0  0  0  0  0  0  0  0  0
   60.0890   29.6960   45.6050 C   0  0  0  0  0  0  0  0  0  0  0  0
   60.3199   30.0259   44.5814 H   0  0  0  0  0  0  0  0  0  0  0  0
   60.9180   30.0800   46.6630 C   0  0  0  0  0  0  0  0  0  0  0  0
   61.8019   30.7049   46.4675 H   0  0  0  0  0  0  0  0  0  0  0  0
   60.6260   29.6700   47.9780 C   0  0  0  0  0  0  0  0  0  0  0  0
   61.4310   30.0240   49.0720 O   0  0  0  0  0  0  0  0  0  0  0  0
   61.7750   31.3660   49.4170 C   0  0  0  0  0  0  0  0  0  0  0  0
   61.9009   31.2667   50.5053 H   0  0  0  0  0  0  0  0  0  0  0  0
   62.8000   31.9340   48.4920 C   0  0  0  0  0  0  0  0  0  0  0  0
   63.6432   32.3968   49.0257 H   0  0  0  0  0  0  0  0  0  0  0  0
   63.3159   31.2292   47.8233 H   0  0  0  0  0  0  0  0  0  0  0  0
   61.9110   32.9280   47.8620 N   0  0  0  0  0  0  0  0  0  0  0  0
   61.9920   33.8320   46.7590 C   0  0  0  0  0  0  0  0  0  0  0  0
   63.0290   33.8460   46.0450 O   0  0  0  0  0  0  0  0  0  0  0  0
   60.8870   34.6670   46.4000 N   0  0  0  0  0  0  0  0  0  0  0  0
   59.5790   34.2000   46.0500 C   0  0  0  0  0  0  0  0  0  0  0  0
   59.2300   33.9430   44.7120 C   0  0  0  0  0  0  0  0  0  0  0  0
   59.9584   34.1299   43.9092 H   0  0  0  0  0  0  0  0  0  0  0  0
   57.9580   33.4500   44.4000 C   0  0  0  0  0  0  0  0  0  0  0  0
   57.6819   33.2661   43.3512 H   0  0  0  0  0  0  0  0  0  0  0  0
   57.0380   33.1910   45.4200 C   0  0  0  0  0  0  0  0  0  0  0  0
   56.0359   32.8103   45.1735 H   0  0  0  0  0  0  0  0  0  0  0  0
   57.3920   33.4160   46.7530 C   0  0  0  0  0  0  0  0  0  0  0  0
   56.6714   33.2026   47.5562 H   0  0  0  0  0  0  0  0  0  0  0  0
   58.6610   33.9120   47.0670 C   0  0  0  0  0  0  0  0  0  0  0  0
   58.9394   34.0767   48.1183 H   0  0  0  0  0  0  0  0  0  0  0  0
   60.8850   32.3790   48.7710 C   0  0  0  0  0  0  0  0  0  0  0  0
   60.5044   33.1261   49.4831 H   0  0  0  0  0  0  0  0  0  0  0  0
   59.9546   32.0110   48.3139 H   0  0  0  0  0  0  0  0  0  0  0  0
   59.4960   28.8800   48.2130 C   0  0  0  0  0  0  0  0  0  0  0  0
   59.2590   28.5574   49.2376 H   0  0  0  0  0  0  0  0  0  0  0  0
   58.6650   28.4970   47.1550 C   0  0  0  0  0  0  0  0  0  0  0  0
   57.7735   27.8837   47.3530 H   0  0  0  0  0  0  0  0  0  0  0  0
  1  2  1  0
  2  3  1  0
  3  4  2  0
  4  5  1  0
  4  6  1  0
  6  7  1  0
  6  8  2  0
  8  9  1  0
  8 10  1  0
 10 11  1  0
 11 12  2  0
 12 13  1  0
 13 14  2  0
 13 15  1  0
 15 16  1  0
 15 17  1  0
 15 18  1  0
 18 19  2  0
 19 20  1  0
 19 21  1  0
 21 22  1  0
 21 23  2  0
 23 24  1  0
 24 25  1  0
 25 26  1  0
 25 27  1  0
 27 28  1  0
 27 29  1  0
 27 30  1  0
 30 31  1  0
 31 32  2  0
 31 33  1  0
 33 34  1  0
 34 35  2  0
 35 36  1  0
 35 37  1  0
 37 38  1  0
 37 39  2  0
 39 40  1  0
 39 41  1  0
 41 42  1  0
 41 43  2  0
 43 44  1  0
 30 45  1  0
 45 46  1  0
 45 47  1  0
 23 48  1  0
 48 49  1  0
 48 50  2  0
 50 51  1  0
 11  3  1  0
 50 18  1  0
 45 25  1  0
 43 34  1  0
M  CHG  2  10  -1  33  -1
M  END
>  <UniqueID>  (65) 
58

>  <SMILES>  (65) 
O=C(Cc1ccc(OC2CN(C(=O)[N-]c3ccccc3)C2)cc1)/N=c1/[n-]cccc1O

>  <Energy>  (65) 
114.84683780454652

>  <Genealogy>  (65) 
O=C(Cc1ccc(OC2CN(C(=O)[N-]c3ccccc3)C2)cc1)N=c1[n-]cccc1O (protonated)
O=C(Cc1ccc(OC2CN(C(=O)[N-]c3ccccc3)C2)cc1)/N=c1/[n-]cccc1O (cis-trans isomerization)
O=C(Cc1ccc(OC2CN(C(=O)[N-]c3ccccc3)C2)cc1)/N=c1/[n-]cccc1O (3D coordinates assigned)
O=C(Cc1ccc(OC2CN(C(=O)[N-]c3ccccc3)C2)cc1)/N=c1/[n-]cccc1O (nonaromatic ring conformer: 114.84683780454652 kcal/mol)

>  <smiles>  (65) 
O=C(Cc1ccc(OC2CN(C(=O)Nc3ccccc3)C2)cc1)N=c1[nH]cccc1O

>  <score_type>  (65) 
oracle

>  <origin>  (65) 
adg

>  <m_score__min__energy>  (65) 
-12.17

>  <m_primary>  (65) 
energy

$$$$
65:0
     RDKit          3D

 49 52  0  0  0  0  0  0  0  0999 V2000
   58.9530   35.1820   44.9180 C   0  0  0  0  0  0  0  0  0  0  0  0
   59.0720   34.3780   45.9880 C   0  0  0  0  0  0  0  0  0  0  0  0
   59.3720   34.9880   47.1620 N   0  0  0  0  0  0  0  0  0  0  0  0
   59.4890   34.3190   48.3280 C   0  0  0  0  0  0  0  0  0  0  0  0
   59.7410   34.9700   49.3790 O   0  0  0  0  0  0  0  0  0  0  0  0
   59.3360   32.9620   48.3630 N   0  0  0  0  0  0  0  0  0  0  0  0
   59.4480   32.2400   49.6470 C   0  0  0  0  0  0  0  0  0  0  0  0
   60.8490   32.4280   50.2380 C   0  0  0  0  0  0  0  0  0  0  0  0
   61.8760   32.5430   49.1450 C   0  0  0  0  0  0  0  0  0  0  0  0
   62.6050   33.7330   48.9780 C   0  0  0  0  0  0  0  0  0  0  0  0
   63.5360   33.8500   47.9410 C   0  0  0  0  0  0  0  0  0  0  0  0
   63.7370   32.7850   47.0580 C   0  0  0  0  0  0  0  0  0  0  0  0
   63.0050   31.6040   47.2070 C   0  0  0  0  0  0  0  0  0  0  0  0
   62.0740   31.4840   48.2440 C   0  0  0  0  0  0  0  0  0  0  0  0
   59.0350   32.2770   47.2110 C   0  0  0  0  0  0  0  0  0  0  0  0
   58.9560   31.0180   47.2570 O   0  0  0  0  0  0  0  0  0  0  0  0
   58.8580   32.9650   45.9720 C   0  0  0  0  0  0  0  0  0  0  0  0
   58.5380   32.3040   44.8210 C   0  0  0  0  0  0  0  0  0  0  0  0
   57.8520   31.0020   44.7250 C   0  0  0  0  0  0  0  0  0  0  0  0
   56.5200   30.8780   44.5410 N   0  0  0  0  0  0  0  0  0  0  0  0
   56.3070   29.5460   44.6260 C   0  0  0  0  0  0  0  0  0  0  0  0
   55.1630   29.0300   44.5100 O   0  0  0  0  0  0  0  0  0  0  0  0
   57.4250   28.8300   44.8610 N   0  0  0  0  0  0  0  0  0  0  0  0
   57.5340   27.3950   45.1120 C   0  0  0  0  0  0  0  0  0  0  0  0
   58.6050   27.1350   46.1230 C   0  0  0  0  0  0  0  0  0  0  0  0
   59.5730   26.1550   46.0390 C   0  0  0  0  0  0  0  0  0  0  0  0
   60.3550   26.3120   47.1620 C   0  0  0  0  0  0  0  0  0  0  0  0
   59.8200   27.3790   47.8570 C   0  0  0  0  0  0  0  0  0  0  0  0
   58.7790   27.8510   47.2100 O   0  0  0  0  0  0  0  0  0  0  0  0
   58.3970   29.7510   44.9590 C   0  0  0  0  0  0  0  0  0  0  0  0
   59.7210   29.4620   45.2870 O   0  0  0  0  0  0  0  0  0  0  0  0
   58.7110   34.7551   43.9335 H   0  0  0  0  0  0  0  0  0  0  0  0
   59.0975   36.2670   45.0266 H   0  0  0  0  0  0  0  0  0  0  0  0
   58.7004   32.6332   50.3516 H   0  0  0  0  0  0  0  0  0  0  0  0
   59.2721   31.1682   49.4731 H   0  0  0  0  0  0  0  0  0  0  0  0
   60.8645   33.3446   50.8459 H   0  0  0  0  0  0  0  0  0  0  0  0
   61.0908   31.5535   50.8599 H   0  0  0  0  0  0  0  0  0  0  0  0
   62.4426   34.5759   49.6659 H   0  0  0  0  0  0  0  0  0  0  0  0
   64.1103   34.7803   47.8201 H   0  0  0  0  0  0  0  0  0  0  0  0
   64.4722   32.8767   46.2450 H   0  0  0  0  0  0  0  0  0  0  0  0
   63.1610   30.7686   46.5086 H   0  0  0  0  0  0  0  0  0  0  0  0
   61.4942   30.5558   48.3543 H   0  0  0  0  0  0  0  0  0  0  0  0
   58.8188   32.7891   43.8745 H   0  0  0  0  0  0  0  0  0  0  0  0
   56.5736   27.0173   45.4927 H   0  0  0  0  0  0  0  0  0  0  0  0
   57.7897   26.8816   44.1734 H   0  0  0  0  0  0  0  0  0  0  0  0
   59.6945   25.4060   45.2427 H   0  0  0  0  0  0  0  0  0  0  0  0
   61.2295   25.7090   47.4478 H   0  0  0  0  0  0  0  0  0  0  0  0
   60.2070   27.7736   48.8081 H   0  0  0  0  0  0  0  0  0  0  0  0
   60.0210   29.3790   46.2490 H   0  0  0  0  0  0  0  0  0  0  0  0
  1  2  2  0
  2  3  1  0
  3  4  1  0
  4  5  2  0
  4  6  1  0
  6  7  1  0
  7  8  1  0
  8  9  1  0
  9 10  2  0
 10 11  1  0
 11 12  2  0
 12 13  1  0
 13 14  2  0
  6 15  1  0
 15 16  2  0
 15 17  1  0
 17 18  2  3
 18 19  1  0
 19 20  1  0
 20 21  1  0
 21 22  2  0
 21 23  1  0
 23 24  1  0
 24 25  1  0
 25 26  2  0
 26 27  1  0
 27 28  2  0
 28 29  1  0
 23 30  1  0
 30 31  1  0
 17  2  1  0
 30 19  2  0
 14  9  1  0
 29 25  1  0
  1 32  1  0
  1 33  1  0
  7 34  1  0
  7 35  1  0
  8 36  1  0
  8 37  1  0
 10 38  1  0
 11 39  1  0
 12 40  1  0
 13 41  1  0
 14 42  1  0
 18 43  1  0
 24 44  1  0
 24 45  1  0
 26 46  1  0
 27 47  1  0
 28 48  1  0
 31 49  1  0
M  CHG  2   3  -1  20  -1
M  END
>  <UniqueID>  (66) 
59

>  <SMILES>  (66) 
C=c1[n-]c(=O)n(CCc2ccccc2)c(=O)c1=Cc1[n-]c(=O)n(Cc2ccco2)c1O

>  <Energy>  (66) 
130.49566821580532

>  <Genealogy>  (66) 
C=c1[n-]c(=O)n(CCc2ccccc2)c(=O)c1=Cc1[n-]c(=O)n(Cc2ccco2)c1O (protonated)
C=c1[n-]c(=O)n(CCc2ccccc2)c(=O)c1=Cc1[n-]c(=O)n(Cc2ccco2)c1O (3D coordinates assigned)
C=c1[n-]c(=O)n(CCc2ccccc2)c(=O)c1=Cc1[n-]c(=O)n(Cc2ccco2)c1O (optimized conformer: 130.49566821580532 kcal/mol)

>  <smiles>  (66) 
C=c1[nH]c(=O)n(CCc2ccccc2)c(=O)c1=Cc1[nH]c(=O)n(Cc2ccco2)c1O

>  <score_type>  (66) 
oracle

>  <origin>  (66) 
adg

>  <m_score__min__energy>  (66) 
-12.300000000000001

>  <m_primary>  (66) 
energy

$$$$
66:0
     RDKit          3D

 43 45  0  0  0  0  0  0  0  0999 V2000
   59.7190   34.3740   47.9480 C   0  0  0  0  0  0  0  0  0  0  0  0
   60.9700   33.5780   47.5410 C   0  0  1  0  0  0  0  0  0  0  0  0
   62.2160   34.1020   48.2890 C   0  0  0  0  0  0  0  0  0  0  0  0
   63.4240   33.1400   48.2210 C   0  0  0  0  0  0  0  0  0  0  0  0
   63.2620   32.0520   47.1530 C   0  0  0  0  0  0  0  0  0  0  0  0
   61.9810   31.2440   47.4060 C   0  0  0  0  0  0  0  0  0  0  0  0
   60.8430   32.1160   47.7330 N   0  0  0  0  0  0  0  0  0  0  0  0
   59.6110   31.4820   48.1150 C   0  0  0  0  0  0  0  0  0  0  0  0
   59.0450   31.8400   49.1830 O   0  0  0  0  0  0  0  0  0  0  0  0
   58.9720   30.4810   47.2270 C   0  0  0  0  0  0  0  0  0  0  0  0
   59.1110   29.1160   47.5320 C   0  0  0  0  0  0  0  0  0  0  0  0
   58.5240   28.1410   46.7250 C   0  0  0  0  0  0  0  0  0  0  0  0
   57.7740   28.5060   45.6050 C   0  0  0  0  0  0  0  0  0  0  0  0
   57.2060   27.4950   44.8150 O   0  0  0  0  0  0  0  0  0  0  0  0
   56.9830   26.1760   45.2350 C   0  0  0  0  0  0  0  0  0  0  0  0
   58.0040   25.2340   45.0590 C   0  0  0  0  0  0  0  0  0  0  0  0
   57.8210   23.9080   45.4630 C   0  0  0  0  0  0  0  0  0  0  0  0
   59.2150   22.6280   45.2000 Br  0  0  0  0  0  0  0  0  0  0  0  0
   56.6180   23.5200   46.0600 C   0  0  0  0  0  0  0  0  0  0  0  0
   55.6030   24.4580   46.2630 C   0  0  0  0  0  0  0  0  0  0  0  0
   55.7830   25.7870   45.8660 C   0  0  0  0  0  0  0  0  0  0  0  0
   54.7800   26.7160   46.1220 O   0  0  0  0  0  0  0  0  0  0  0  0
   57.6390   29.8660   45.2820 C   0  0  0  0  0  0  0  0  0  0  0  0
   58.2240   30.8530   46.0860 C   0  0  0  0  0  0  0  0  0  0  0  0
   57.9350   32.5360   45.6520 Cl  0  0  0  0  0  0  0  0  0  0  0  0
   59.6523   34.4164   49.0452 H   0  0  0  0  0  0  0  0  0  0  0  0
   59.7870   35.3953   47.5450 H   0  0  0  0  0  0  0  0  0  0  0  0
   58.8227   33.8797   47.5450 H   0  0  0  0  0  0  0  0  0  0  0  0
   61.0844   33.7393   46.4589 H   0  0  0  0  0  0  0  0  0  0  0  0
   62.5109   35.0637   47.8438 H   0  0  0  0  0  0  0  0  0  0  0  0
   61.9398   34.2012   49.3491 H   0  0  0  0  0  0  0  0  0  0  0  0
   64.3263   33.7256   47.9912 H   0  0  0  0  0  0  0  0  0  0  0  0
   63.4997   32.6363   49.1960 H   0  0  0  0  0  0  0  0  0  0  0  0
   63.2039   32.5232   46.1607 H   0  0  0  0  0  0  0  0  0  0  0  0
   64.1274   31.3744   47.1981 H   0  0  0  0  0  0  0  0  0  0  0  0
   61.7392   30.6668   46.5014 H   0  0  0  0  0  0  0  0  0  0  0  0
   62.1596   30.5779   48.2630 H   0  0  0  0  0  0  0  0  0  0  0  0
   59.6893   28.8129   48.4173 H   0  0  0  0  0  0  0  0  0  0  0  0
   58.6529   27.0770   46.9727 H   0  0  0  0  0  0  0  0  0  0  0  0
   58.9560   25.5391   44.6000 H   0  0  0  0  0  0  0  0  0  0  0  0
   56.4705   22.4750   46.3702 H   0  0  0  0  0  0  0  0  0  0  0  0
   54.6590   24.1504   46.7366 H   0  0  0  0  0  0  0  0  0  0  0  0
   57.0681   30.1593   44.3886 H   0  0  0  0  0  0  0  0  0  0  0  0
  1  2  1  0
  2  3  1  0
  3  4  1  0
  4  5  1  0
  5  6  1  0
  6  7  1  0
  7  8  1  0
  8  9  2  0
  8 10  1  0
 10 11  2  0
 11 12  1  0
 12 13  2  0
 13 14  1  0
 14 15  1  0
 15 16  2  0
 16 17  1  0
 17 18  1  0
 17 19  2  0
 19 20  1  0
 20 21  2  0
 21 22  1  0
 13 23  1  0
 23 24  2  0
 24 25  1  0
  7  2  1  0
 24 10  1  0
 21 15  1  0
  1 26  1  0
  1 27  1  0
  1 28  1  0
  2 29  1  6
  3 30  1  0
  3 31  1  0
  4 32  1  0
  4 33  1  0
  5 34  1  0
  5 35  1  0
  6 36  1  0
  6 37  1  0
 11 38  1  0
 12 39  1  0
 16 40  1  0
 19 41  1  0
 20 42  1  0
 23 43  1  0
M  CHG  1  22  -1
M  END
>  <UniqueID>  (67) 
60

>  <SMILES>  (67) 
C[C@H]1CCCCN1C(=O)c1ccc(Oc2cc(Br)ccc2[O-])cc1Cl

>  <Energy>  (67) 
62.72472761750107

>  <Genealogy>  (67) 
CC1CCCCN1C(=O)c1ccc(Oc2cc(Br)ccc2[O-])cc1Cl (protonated)
C[C@H]1CCCCN1C(=O)c1ccc(Oc2cc(Br)ccc2[O-])cc1Cl (chirality)
C[C@H]1CCCCN1C(=O)c1ccc(Oc2cc(Br)ccc2[O-])cc1Cl (3D coordinates assigned)
C[C@H]1CCCCN1C(=O)c1ccc(Oc2cc(Br)ccc2[O-])cc1Cl (nonaromatic ring conformer: 62.72472761750107 kcal/mol)

>  <smiles>  (67) 
CC1CCCCN1C(=O)c1ccc(Oc2cc(Br)ccc2O)cc1Cl

>  <score_type>  (67) 
oracle

>  <origin>  (67) 
adg

>  <m_score__min__energy>  (67) 
-12.5

>  <m_primary>  (67) 
energy

$$$$
67:0
     RDKit          3D

 69 73  0  0  0  0  0  0  0  0999 V2000
   54.9991   31.0195   44.5998 H   0  0  0  0  0  0  0  0  0  0  0  0
   56.0450   30.6960   44.4930 C   0  0  0  0  0  0  0  0  0  0  0  0
   56.3910   29.4130   44.2010 N   0  0  0  0  0  0  0  0  0  0  0  0
   57.7350   29.2680   44.1130 C   0  0  0  0  0  0  0  0  0  0  0  0
   58.3420   28.1590   43.8040 N   0  0  0  0  0  0  0  0  0  0  0  0
   58.3660   26.9220   44.5350 C   0  0  0  0  0  0  0  0  0  0  0  0
   57.6770   25.9630   44.0950 O   0  0  0  0  0  0  0  0  0  0  0  0
   59.1850   26.7330   45.7940 C   0  0  0  0  0  0  0  0  0  0  0  0
   60.1623   26.3069   45.5232 H   0  0  0  0  0  0  0  0  0  0  0  0
   58.6334   26.0576   46.4644 H   0  0  0  0  0  0  0  0  0  0  0  0
   59.4040   28.0390   46.5170 C   0  0  0  0  0  0  0  0  0  0  0  0
   58.3510   28.6490   47.2200 C   0  0  0  0  0  0  0  0  0  0  0  0
   57.3909   28.1241   47.3326 H   0  0  0  0  0  0  0  0  0  0  0  0
   58.5190   29.9210   47.7770 C   0  0  0  0  0  0  0  0  0  0  0  0
   57.6967   30.3849   48.3415 H   0  0  0  0  0  0  0  0  0  0  0  0
   59.7280   30.6050   47.6190 C   0  0  0  0  0  0  0  0  0  0  0  0
   59.8489   31.6135   48.0412 H   0  0  0  0  0  0  0  0  0  0  0  0
   60.7880   30.0040   46.9210 C   0  0  0  0  0  0  0  0  0  0  0  0
   61.9980   30.6740   46.7400 O   0  0  0  0  0  0  0  0  0  0  0  0
   62.4000   31.6930   47.6030 C   0  0  0  0  0  0  0  0  0  0  0  0
   63.1290   32.7730   47.0990 C   0  0  0  0  0  0  0  0  0  0  0  0
   63.3834   32.8136   46.0296 H   0  0  0  0  0  0  0  0  0  0  0  0
   63.5340   33.7990   47.9510 C   0  0  0  0  0  0  0  0  0  0  0  0
   64.1142   34.6445   47.5530 H   0  0  0  0  0  0  0  0  0  0  0  0
   63.2060   33.7580   49.3090 C   0  0  0  0  0  0  0  0  0  0  0  0
   63.5320   34.5732   49.9717 H   0  0  0  0  0  0  0  0  0  0  0  0
   62.4600   32.6810   49.8410 C   0  0  0  0  0  0  0  0  0  0  0  0
   62.0240   32.6190   51.2760 C   0  0  0  0  0  0  0  0  0  0  0  0
   62.9220   32.6180   52.1660 O   0  0  0  0  0  0  0  0  0  0  0  0
   60.6350   32.5630   51.7070 N   0  0  2  0  0  0  0  0  0  0  0  0
   60.6570   32.4940   52.7550 H   0  0  0  0  0  0  0  0  0  0  0  0
   59.9450   31.3280   51.2340 C   0  0  0  0  0  0  0  0  0  0  0  0
   60.0104   30.5665   52.0251 H   0  0  0  0  0  0  0  0  0  0  0  0
   60.4468   31.0079   50.3089 H   0  0  0  0  0  0  0  0  0  0  0  0
   58.4570   31.5540   50.8930 C   0  0  0  0  0  0  0  0  0  0  0  0
   57.9413   30.5824   50.8877 H   0  0  0  0  0  0  0  0  0  0  0  0
   58.4017   32.0362   49.9059 H   0  0  0  0  0  0  0  0  0  0  0  0
   57.7680   32.4800   51.9190 C   0  0  1  0  0  0  0  0  0  0  0  0
   56.7663   32.7139   51.5293 H   0  0  0  0  0  0  0  0  0  0  0  0
   57.5890   31.7740   53.2740 C   0  0  0  0  0  0  0  0  0  0  0  0
   57.7708   32.4912   54.0880 H   0  0  0  0  0  0  0  0  0  0  0  0
   56.5635   31.3837   53.3515 H   0  0  0  0  0  0  0  0  0  0  0  0
   58.3047   30.9423   53.3515 H   0  0  0  0  0  0  0  0  0  0  0  0
   58.5240   33.8300   52.0760 C   0  0  0  0  0  0  0  0  0  0  0  0
   58.6443   34.0405   53.1490 H   0  0  0  0  0  0  0  0  0  0  0  0
   57.9255   34.6005   51.5680 H   0  0  0  0  0  0  0  0  0  0  0  0
   59.9190   33.8260   51.4180 C   0  0  0  0  0  0  0  0  0  0  0  0
   60.5049   34.6702   51.8105 H   0  0  0  0  0  0  0  0  0  0  0  0
   59.7945   33.9185   50.3290 H   0  0  0  0  0  0  0  0  0  0  0  0
   62.0780   31.6410   48.9660 C   0  0  0  0  0  0  0  0  0  0  0  0
   61.5202   30.7784   49.3593 H   0  0  0  0  0  0  0  0  0  0  0  0
   60.6290   28.7180   46.3890 C   0  0  0  0  0  0  0  0  0  0  0  0
   61.4686   28.2355   45.8672 H   0  0  0  0  0  0  0  0  0  0  0  0
   58.5500   30.7120   44.3820 S   0  0  0  0  0  0  0  0  0  0  0  0
   57.1220   31.5680   44.6460 C   0  0  0  0  0  0  0  0  0  0  0  0
   57.0320   33.0490   44.8550 C   0  0  0  0  0  0  0  0  0  0  0  0
   57.2011   33.5628   43.8972 H   0  0  0  0  0  0  0  0  0  0  0  0
   56.0329   33.2987   45.2415 H   0  0  0  0  0  0  0  0  0  0  0  0
   58.0700   33.4930   45.8480 C   0  0  0  0  0  0  0  0  0  0  0  0
   59.2630   34.0910   45.4080 C   0  0  0  0  0  0  0  0  0  0  0  0
   59.4238   34.2673   44.3342 H   0  0  0  0  0  0  0  0  0  0  0  0
   60.2470   34.4630   46.3300 C   0  0  0  0  0  0  0  0  0  0  0  0
   61.1751   34.9393   45.9811 H   0  0  0  0  0  0  0  0  0  0  0  0
   60.0520   34.2300   47.6940 C   0  0  0  0  0  0  0  0  0  0  0  0
   60.8262   34.5245   48.4178 H   0  0  0  0  0  0  0  0  0  0  0  0
   58.8760   33.6240   48.1390 C   0  0  0  0  0  0  0  0  0  0  0  0
   58.7260   33.4380   49.2127 H   0  0  0  0  0  0  0  0  0  0  0  0
   57.8880   33.2530   47.2210 C   0  0  0  0  0  0  0  0  0  0  0  0
   56.9646   32.7713   47.5751 H   0  0  0  0  0  0  0  0  0  0  0  0
  1  2  1  0
  2  3  1  0
  3  4  1  0
  4  5  2  0
  5  6  1  0
  6  7  2  0
  6  8  1  0
  8  9  1  0
  8 10  1  0
  8 11  1  0
 11 12  2  0
 12 13  1  0
 12 14  1  0
 14 15  1  0
 14 16  2  0
 16 17  1  0
 16 18  1  0
 18 19  1  0
 19 20  1  0
 20 21  2  0
 21 22  1  0
 21 23  1  0
 23 24  1  0
 23 25  2  0
 25 26  1  0
 25 27  1  0
 27 28  1  0
 28 29  2  0
 28 30  1  0
 30 31  1  6
 30 32  1  0
 32 33  1  0
 32 34  1  0
 32 35  1  0
 35 36  1  0
 35 37  1  0
 35 38  1  0
 38 39  1  1
 38 40  1  0
 40 41  1  0
 40 42  1  0
 40 43  1  0
 38 44  1  0
 44 45  1  0
 44 46  1  0
 44 47  1  0
 47 48  1  0
 47 49  1  0
 27 50  2  0
 50 51  1  0
 18 52  2  0
 52 53  1  0
  4 54  1  0
 54 55  1  0
 55 56  1  0
 56 57  1  0
 56 58  1  0
 56 59  1  0
 59 60  2  0
 60 61  1  0
 60 62  1  0
 62 63  1  0
 62 64  2  0
 64 65  1  0
 64 66  1  0
 66 67  1  0
 66 68  2  0
 68 69  1  0
 55  2  2  0
 68 59  1  0
 52 11  1  0
 50 20  1  0
 47 30  1  0
M  CHG  2   3  -1  30   1
M  END
>  <UniqueID>  (68) 
61

>  <SMILES>  (68) 
CC1CC[NH+](C(=O)c2cccc(Oc3cccc(CC(=O)/N=c4\[n-]cc(Cc5ccccc5)s4)c3)c2)CC1

>  <Energy>  (68) 
135.5434751953167

>  <Genealogy>  (68) 
CC1CC[NH+](C(=O)c2cccc(Oc3cccc(CC(=O)N=c4[n-]cc(Cc5ccccc5)s4)c3)c2)CC1 (protonated)
CC1CC[NH+](C(=O)c2cccc(Oc3cccc(CC(=O)/N=c4\[n-]cc(Cc5ccccc5)s4)c3)c2)CC1 (cis-trans isomerization)
CC1CC[NH+](C(=O)c2cccc(Oc3cccc(CC(=O)/N=c4\[n-]cc(Cc5ccccc5)s4)c3)c2)CC1 (3D coordinates assigned)
CC1CC[NH+](C(=O)c2cccc(Oc3cccc(CC(=O)/N=c4\[n-]cc(Cc5ccccc5)s4)c3)c2)CC1 (nonaromatic ring conformer: 135.5434751953167 kcal/mol)

>  <smiles>  (68) 
CC1CCN(C(=O)c2cccc(Oc3cccc(CC(=O)N=c4[nH]cc(Cc5ccccc5)s4)c3)c2)CC1

>  <score_type>  (68) 
oracle

>  <origin>  (68) 
adg

>  <m_score__min__energy>  (68) 
-11.550000000000001

>  <m_primary>  (68) 
energy

$$$$
68:0
     RDKit          3D

 59 62  0  0  0  0  0  0  0  0999 V2000
   56.8590   21.5140   46.9580 H   0  0  0  0  0  0  0  0  0  0  0  0
   57.0140   22.5050   47.0790 O   0  0  0  0  0  0  0  0  0  0  0  0
   56.1740   23.4780   46.5390 C   0  0  0  0  0  0  0  0  0  0  0  0
   55.0140   23.2170   45.8320 C   0  0  0  0  0  0  0  0  0  0  0  0
   54.4860   21.9370   45.4580 N   0  0  0  0  0  0  0  0  0  0  0  0
   53.5970   21.1410   46.2550 C   0  0  0  0  0  0  0  0  0  0  0  0
   53.2970   19.9870   45.8520 O   0  0  0  0  0  0  0  0  0  0  0  0
   53.0650   21.6170   47.5540 C   0  0  0  0  0  0  0  0  0  0  0  0
   53.9180   21.8100   48.6560 C   0  0  0  0  0  0  0  0  0  0  0  0
   54.9893   21.5769   48.5665 H   0  0  0  0  0  0  0  0  0  0  0  0
   53.4100   22.2970   49.8650 C   0  0  0  0  0  0  0  0  0  0  0  0
   54.0845   22.4549   50.7195 H   0  0  0  0  0  0  0  0  0  0  0  0
   52.0500   22.5830   49.9900 C   0  0  0  0  0  0  0  0  0  0  0  0
   51.6548   22.9742   50.9391 H   0  0  0  0  0  0  0  0  0  0  0  0
   51.1900   22.3720   48.9080 C   0  0  0  0  0  0  0  0  0  0  0  0
   50.1164   22.5894   49.0090 H   0  0  0  0  0  0  0  0  0  0  0  0
   51.6930   21.8850   47.6980 C   0  0  0  0  0  0  0  0  0  0  0  0
   51.0105   21.7104   46.8532 H   0  0  0  0  0  0  0  0  0  0  0  0
   54.4440   24.4300   45.5080 C   0  0  0  0  0  0  0  0  0  0  0  0
   53.5004   24.6022   44.9696 H   0  0  0  0  0  0  0  0  0  0  0  0
   55.3130   25.3830   46.0050 C   0  0  0  0  0  0  0  0  0  0  0  0
   55.1450   26.7560   45.8650 O   0  0  0  0  0  0  0  0  0  0  0  0
   56.3650   24.8140   46.6320 N   0  0  0  0  0  0  0  0  0  0  0  0
   57.5190   25.5300   47.1850 C   0  0  0  0  0  0  0  0  0  0  0  0
   57.7301   25.1515   48.1960 H   0  0  0  0  0  0  0  0  0  0  0  0
   57.2870   26.6045   47.2249 H   0  0  0  0  0  0  0  0  0  0  0  0
   58.7090   25.3270   46.3300 N   0  0  0  0  0  0  0  0  0  0  0  0
   59.8540   26.1980   46.7070 C   0  0  0  0  0  0  0  0  0  0  0  0
   60.7741   25.5975   46.6547 H   0  0  0  0  0  0  0  0  0  0  0  0
   59.6416   26.5729   47.7191 H   0  0  0  0  0  0  0  0  0  0  0  0
   60.0370   27.4380   45.8100 C   0  0  0  0  0  0  0  0  0  0  0  0
   60.7506   27.1989   45.0078 H   0  0  0  0  0  0  0  0  0  0  0  0
   60.4146   28.2648   46.4296 H   0  0  0  0  0  0  0  0  0  0  0  0
   58.7630   27.8490   45.2110 N   0  0  0  0  0  0  0  0  0  0  0  0
   58.4270   29.2440   45.1070 C   0  0  0  0  0  0  0  0  0  0  0  0
   59.1390   30.2060   45.8430 C   0  0  0  0  0  0  0  0  0  0  0  0
   59.9672   29.8919   46.4952 H   0  0  0  0  0  0  0  0  0  0  0  0
   58.8020   31.5590   45.7520 C   0  0  0  0  0  0  0  0  0  0  0  0
   59.3562   32.3017   46.3446 H   0  0  0  0  0  0  0  0  0  0  0  0
   57.7620   31.9750   44.9100 C   0  0  0  0  0  0  0  0  0  0  0  0
   57.3920   33.4050   44.8670 C   0  0  0  0  0  0  0  0  0  0  0  0
   56.8178   33.7610   43.9989 H   0  0  0  0  0  0  0  0  0  0  0  0
   57.7010   34.2730   45.7900 N   0  0  0  0  0  0  0  0  0  0  0  0
   58.9990   34.8050   46.0980 C   0  0  0  0  0  0  0  0  0  0  0  0
   59.6040   35.5530   45.2830 O   0  0  0  0  0  0  0  0  0  0  0  0
   59.6940   34.3600   47.3380 C   0  0  0  0  0  0  0  0  0  0  0  0
   59.1380   34.7160   48.2178 H   0  0  0  0  0  0  0  0  0  0  0  0
   59.7443   33.2613   47.3560 H   0  0  0  0  0  0  0  0  0  0  0  0
   60.7129   34.7741   47.3560 H   0  0  0  0  0  0  0  0  0  0  0  0
   57.0250   31.0130   44.2000 C   0  0  0  0  0  0  0  0  0  0  0  0
   56.1795   31.3261   43.5699 H   0  0  0  0  0  0  0  0  0  0  0  0
   57.3620   29.6580   44.2910 C   0  0  0  0  0  0  0  0  0  0  0  0
   56.7891   28.9126   43.7198 H   0  0  0  0  0  0  0  0  0  0  0  0
   57.9490   26.8480   44.5080 C   0  0  0  0  0  0  0  0  0  0  0  0
   58.0738   26.9797   43.4231 H   0  0  0  0  0  0  0  0  0  0  0  0
   56.8958   26.9879   44.7931 H   0  0  0  0  0  0  0  0  0  0  0  0
   58.3780   25.4230   44.8950 C   0  0  0  0  0  0  0  0  0  0  0  0
   59.2633   25.1439   44.3048 H   0  0  0  0  0  0  0  0  0  0  0  0
   57.5385   24.7427   44.6889 H   0  0  0  0  0  0  0  0  0  0  0  0
  1  2  1  0
  2  3  1  0
  3  4  2  0
  4  5  1  0
  5  6  1  0
  6  7  2  0
  6  8  1  0
  8  9  2  0
  9 10  1  0
  9 11  1  0
 11 12  1  0
 11 13  2  0
 13 14  1  0
 13 15  1  0
 15 16  1  0
 15 17  2  0
 17 18  1  0
  4 19  1  0
 19 20  1  0
 19 21  2  0
 21 22  1  0
 21 23  1  0
 23 24  1  0
 24 25  1  0
 24 26  1  0
 24 27  1  0
 27 28  1  0
 28 29  1  0
 28 30  1  0
 28 31  1  0
 31 32  1  0
 31 33  1  0
 31 34  1  0
 34 35  1  0
 35 36  2  0
 36 37  1  0
 36 38  1  0
 38 39  1  0
 38 40  2  0
 40 41  1  0
 41 42  1  0
 41 43  2  0
 43 44  1  0
 44 45  2  0
 44 46  1  0
 46 47  1  0
 46 48  1  0
 46 49  1  0
 40 50  1  0
 50 51  1  0
 50 52  2  0
 52 53  1  0
 34 54  1  0
 54 55  1  0
 54 56  1  0
 54 57  1  0
 57 58  1  0
 57 59  1  0
 23  3  1  0
 57 27  1  0
 17  8  1  0
 52 35  1  0
M  CHG  2   5  -1  22  -1
M  END
>  <UniqueID>  (69) 
62

>  <SMILES>  (69) 
CC(=O)/N=C\c1ccc(N2CCN(Cn3c([O-])cc([N-]C(=O)c4ccccc4)c3O)CC2)cc1

>  <Energy>  (69) 
116.16034288237735

>  <Genealogy>  (69) 
CC(=O)N=Cc1ccc(N2CCN(Cn3c([O-])cc([N-]C(=O)c4ccccc4)c3O)CC2)cc1 (protonated)
CC(=O)/N=C\c1ccc(N2CCN(Cn3c([O-])cc([N-]C(=O)c4ccccc4)c3O)CC2)cc1 (cis-trans isomerization)
CC(=O)/N=C\c1ccc(N2CCN(Cn3c([O-])cc([N-]C(=O)c4ccccc4)c3O)CC2)cc1 (3D coordinates assigned)
CC(=O)/N=C\c1ccc(N2CCN(Cn3c([O-])cc([N-]C(=O)c4ccccc4)c3O)CC2)cc1 (nonaromatic ring conformer: 116.16034288237735 kcal/mol)

>  <smiles>  (69) 
CC(=O)N=Cc1ccc(N2CCN(Cn3c(O)cc(NC(=O)c4ccccc4)c3O)CC2)cc1

>  <score_type>  (69) 
oracle

>  <origin>  (69) 
adg

>  <m_score__min__energy>  (69) 
-12.300000000000001

>  <m_primary>  (69) 
energy

$$$$
69:0
     RDKit          3D

 51 54  0  0  0  0  0  0  0  0999 V2000
   62.0280   32.5030   47.1680 O   0  0  0  0  0  0  0  0  0  0  0  0
   60.8800   32.2340   47.6160 C   0  0  0  0  0  0  0  0  0  0  0  0
   60.7340   31.6770   48.9310 N   0  0  0  0  0  0  0  0  0  0  0  0
   59.7670   32.0580   49.9200 C   0  0  0  0  0  0  0  0  0  0  0  0
   58.7090   31.1830   50.1980 C   0  0  0  0  0  0  0  0  0  0  0  0
   57.7580   31.5070   51.1710 C   0  0  0  0  0  0  0  0  0  0  0  0
   57.8660   32.7030   51.8850 C   0  0  0  0  0  0  0  0  0  0  0  0
   58.9320   33.5720   51.6320 C   0  0  0  0  0  0  0  0  0  0  0  0
   59.8850   33.2510   50.6590 C   0  0  0  0  0  0  0  0  0  0  0  0
   59.6790   32.5420   46.8040 C   0  0  0  0  0  0  0  0  0  0  0  0
   59.1380   33.8400   46.7910 C   0  0  0  0  0  0  0  0  0  0  0  0
   58.0050   34.1260   46.0280 C   0  0  0  0  0  0  0  0  0  0  0  0
   57.3930   33.1250   45.2730 C   0  0  0  0  0  0  0  0  0  0  0  0
   57.9110   31.8180   45.2690 C   0  0  0  0  0  0  0  0  0  0  0  0
   57.2580   30.7540   44.4690 C   0  0  0  0  0  0  0  0  0  0  0  0
   56.1320   30.9680   43.9400 O   0  0  0  0  0  0  0  0  0  0  0  0
   57.8800   29.4680   44.3420 N   0  0  0  0  0  0  0  0  0  0  0  0
   57.8790   28.4110   45.3130 C   0  0  0  0  0  0  0  0  0  0  0  0
   58.9510   28.2080   46.2010 C   0  0  0  0  0  0  0  0  0  0  0  0
   58.9020   27.1710   47.1340 C   0  0  0  0  0  0  0  0  0  0  0  0
   57.7790   26.3440   47.2110 C   0  0  0  0  0  0  0  0  0  0  0  0
   56.6780   26.5680   46.3640 C   0  0  0  0  0  0  0  0  0  0  0  0
   55.5080   25.7390   46.3990 N   0  0  0  0  0  0  0  0  0  0  0  0
   55.4700   24.3050   46.4250 C   0  0  0  0  0  0  0  0  0  0  0  0
   54.7560   23.7120   47.2780 O   0  0  0  0  0  0  0  0  0  0  0  0
   56.2270   23.5260   45.4080 C   0  0  0  0  0  0  0  0  0  0  0  0
   55.8690   23.6220   44.0480 C   0  0  0  0  0  0  0  0  0  0  0  0
   56.5590   22.8940   43.0750 C   0  0  0  0  0  0  0  0  0  0  0  0
   57.6180   22.0630   43.4420 C   0  0  0  0  0  0  0  0  0  0  0  0
   57.9900   21.9580   44.7830 C   0  0  0  0  0  0  0  0  0  0  0  0
   57.3060   22.6820   45.7670 C   0  0  0  0  0  0  0  0  0  0  0  0
   57.7100   22.5500   47.0910 O   0  0  0  0  0  0  0  0  0  0  0  0
   56.7450   27.5940   45.4120 C   0  0  0  0  0  0  0  0  0  0  0  0
   59.0560   31.5370   46.0370 C   0  0  0  0  0  0  0  0  0  0  0  0
   58.6256   30.2345   49.6472 H   0  0  0  0  0  0  0  0  0  0  0  0
   56.9239   30.8193   51.3744 H   0  0  0  0  0  0  0  0  0  0  0  0
   57.1137   32.9607   52.6450 H   0  0  0  0  0  0  0  0  0  0  0  0
   59.0216   34.5102   52.1993 H   0  0  0  0  0  0  0  0  0  0  0  0
   60.7282   33.9320   50.4709 H   0  0  0  0  0  0  0  0  0  0  0  0
   59.6110   34.6351   47.3861 H   0  0  0  0  0  0  0  0  0  0  0  0
   57.5924   35.1457   46.0218 H   0  0  0  0  0  0  0  0  0  0  0  0
   56.4990   33.3600   44.6767 H   0  0  0  0  0  0  0  0  0  0  0  0
   59.8300   28.8681   46.1600 H   0  0  0  0  0  0  0  0  0  0  0  0
   59.7520   27.0042   47.8120 H   0  0  0  0  0  0  0  0  0  0  0  0
   57.7553   25.5162   47.9350 H   0  0  0  0  0  0  0  0  0  0  0  0
   55.0374   24.2771   43.7493 H   0  0  0  0  0  0  0  0  0  0  0  0
   56.2667   22.9763   42.0177 H   0  0  0  0  0  0  0  0  0  0  0  0
   58.1596   21.4907   42.6745 H   0  0  0  0  0  0  0  0  0  0  0  0
   58.8258   21.3024   45.0687 H   0  0  0  0  0  0  0  0  0  0  0  0
   55.8957   27.7603   44.7331 H   0  0  0  0  0  0  0  0  0  0  0  0
   59.4709   30.5182   46.0388 H   0  0  0  0  0  0  0  0  0  0  0  0
  1  2  2  0
  2  3  1  0
  3  4  1  0
  4  5  2  0
  5  6  1  0
  6  7  2  0
  7  8  1  0
  8  9  2  0
  2 10  1  0
 10 11  2  0
 11 12  1  0
 12 13  2  0
 13 14  1  0
 14 15  1  0
 15 16  2  0
 15 17  1  0
 17 18  1  0
 18 19  2  0
 19 20  1  0
 20 21  2  0
 21 22  1  0
 22 23  1  0
 23 24  1  0
 24 25  2  0
 24 26  1  0
 26 27  2  0
 27 28  1  0
 28 29  2  0
 29 30  1  0
 30 31  2  0
 31 32  1  0
 22 33  2  0
 14 34  2  0
  9  4  1  0
 34 10  1  0
 33 18  1  0
 31 26  1  0
  5 35  1  0
  6 36  1  0
  7 37  1  0
  8 38  1  0
  9 39  1  0
 11 40  1  0
 12 41  1  0
 13 42  1  0
 19 43  1  0
 20 44  1  0
 21 45  1  0
 27 46  1  0
 28 47  1  0
 29 48  1  0
 30 49  1  0
 33 50  1  0
 34 51  1  0
M  CHG  4   3  -1  17  -1  23  -1  32  -1
M  END
>  <UniqueID>  (70) 
63

>  <SMILES>  (70) 
O=C([N-]c1ccccc1)c1cccc(C(=O)[N-]c2cccc([N-]C(=O)c3ccccc3[O-])c2)c1

>  <Energy>  (70) 
71.3846489414324

>  <Genealogy>  (70) 
O=C([N-]c1ccccc1)c1cccc(C(=O)[N-]c2cccc([N-]C(=O)c3ccccc3[O-])c2)c1 (protonated)
O=C([N-]c1ccccc1)c1cccc(C(=O)[N-]c2cccc([N-]C(=O)c3ccccc3[O-])c2)c1 (3D coordinates assigned)
O=C([N-]c1ccccc1)c1cccc(C(=O)[N-]c2cccc([N-]C(=O)c3ccccc3[O-])c2)c1 (optimized conformer: 71.3846489414324 kcal/mol)

>  <smiles>  (70) 
O=C(Nc1ccccc1)c1cccc(C(=O)Nc2cccc(NC(=O)c3ccccc3O)c2)c1

>  <score_type>  (70) 
oracle

>  <origin>  (70) 
adg

>  <m_score__min__energy>  (70) 
-16.280000000000001

>  <m_primary>  (70) 
energy

$$$$
70:0
     RDKit          3D

 44 45  0  0  0  0  0  0  0  0999 V2000
   57.0340   34.1790   44.8750 C   0  0  0  0  0  0  0  0  0  0  0  0
   57.7420   33.1190   45.7220 C   0  0  2  0  0  0  0  0  0  0  0  0
   59.2650   33.1440   45.4650 C   0  0  0  0  0  0  0  0  0  0  0  0
   59.9490   34.4280   45.9690 C   0  0  0  0  0  0  0  0  0  0  0  0
   61.1090   34.1520   46.8930 C   0  0  0  0  0  0  0  0  0  0  0  0
   62.3820   33.8600   46.3710 C   0  0  0  0  0  0  0  0  0  0  0  0
   63.4620   33.6370   47.2300 C   0  0  0  0  0  0  0  0  0  0  0  0
   63.2810   33.7010   48.6140 C   0  0  0  0  0  0  0  0  0  0  0  0
   62.0180   33.9840   49.1410 C   0  0  0  0  0  0  0  0  0  0  0  0
   60.9350   34.2060   48.2870 C   0  0  0  0  0  0  0  0  0  0  0  0
   57.1900   31.8000   45.3950 N   0  0  0  0  0  0  0  0  0  0  0  0
   56.9780   31.3580   44.0450 C   0  0  0  0  0  0  0  0  0  0  0  0
   57.3700   32.0640   43.0770 O   0  0  0  0  0  0  0  0  0  0  0  0
   56.2840   30.0900   43.7770 C   0  0  0  0  0  0  0  0  0  0  0  0
   55.9640   29.7820   42.5970 O   0  0  0  0  0  0  0  0  0  0  0  0
   55.9940   29.1970   44.8590 N   0  0  0  0  0  0  0  0  0  0  0  0
   56.9190   28.1710   45.3270 C   0  0  0  0  0  0  0  0  0  0  0  0
   58.1390   28.8050   45.9370 C   0  0  0  0  0  0  0  0  0  0  0  0
   58.1760   29.1170   47.3060 C   0  0  0  0  0  0  0  0  0  0  0  0
   59.3060   29.7270   47.8590 C   0  0  0  0  0  0  0  0  0  0  0  0
   60.4070   30.0310   47.0510 C   0  0  0  0  0  0  0  0  0  0  0  0
   61.8230   30.7950   47.7480 Cl  0  0  0  0  0  0  0  0  0  0  0  0
   60.3750   29.7260   45.6870 C   0  0  0  0  0  0  0  0  0  0  0  0
   59.2460   29.1180   45.1290 C   0  0  0  0  0  0  0  0  0  0  0  0
   56.5456   34.9102   45.5359 H   0  0  0  0  0  0  0  0  0  0  0  0
   57.7706   34.6932   44.2402 H   0  0  0  0  0  0  0  0  0  0  0  0
   56.2769   33.6955   44.2402 H   0  0  0  0  0  0  0  0  0  0  0  0
   57.5758   33.3343   46.7878 H   0  0  0  0  0  0  0  0  0  0  0  0
   59.7192   32.2829   45.9770 H   0  0  0  0  0  0  0  0  0  0  0  0
   59.4112   33.1043   44.3755 H   0  0  0  0  0  0  0  0  0  0  0  0
   60.3189   34.9926   45.1004 H   0  0  0  0  0  0  0  0  0  0  0  0
   59.2010   34.9979   46.5398 H   0  0  0  0  0  0  0  0  0  0  0  0
   62.5283   33.8069   45.2821 H   0  0  0  0  0  0  0  0  0  0  0  0
   64.4557   33.4108   46.8159 H   0  0  0  0  0  0  0  0  0  0  0  0
   64.1325   33.5286   49.2887 H   0  0  0  0  0  0  0  0  0  0  0  0
   61.8763   34.0321   50.2308 H   0  0  0  0  0  0  0  0  0  0  0  0
   59.9420   34.4240   48.7070 H   0  0  0  0  0  0  0  0  0  0  0  0
   57.0210   31.1280   46.1780 H   0  0  0  0  0  0  0  0  0  0  0  0
   56.4177   27.5483   46.0826 H   0  0  0  0  0  0  0  0  0  0  0  0
   57.2279   27.5517   44.4720 H   0  0  0  0  0  0  0  0  0  0  0  0
   57.3127   28.8805   47.9454 H   0  0  0  0  0  0  0  0  0  0  0  0
   59.3295   29.9685   48.9319 H   0  0  0  0  0  0  0  0  0  0  0  0
   61.2401   29.9649   45.0510 H   0  0  0  0  0  0  0  0  0  0  0  0
   59.2241   28.8839   44.0544 H   0  0  0  0  0  0  0  0  0  0  0  0
  1  2  1  0
  2  3  1  0
  3  4  1  0
  4  5  1  0
  5  6  2  0
  6  7  1  0
  7  8  2  0
  8  9  1  0
  9 10  2  0
  2 11  1  0
 11 12  1  0
 12 13  2  0
 12 14  1  0
 14 15  2  0
 14 16  1  0
 16 17  1  0
 17 18  1  0
 18 19  2  0
 19 20  1  0
 20 21  2  0
 21 22  1  0
 21 23  1  0
 23 24  2  0
 10  5  1  0
 24 18  1  0
  1 25  1  0
  1 26  1  0
  1 27  1  0
  2 28  1  1
  3 29  1  0
  3 30  1  0
  4 31  1  0
  4 32  1  0
  6 33  1  0
  7 34  1  0
  8 35  1  0
  9 36  1  0
 10 37  1  0
 11 38  1  0
 17 39  1  0
 17 40  1  0
 19 41  1  0
 20 42  1  0
 23 43  1  0
 24 44  1  0
M  CHG  1  16  -1
M  END
>  <UniqueID>  (71) 
64

>  <SMILES>  (71) 
C[C@H](CCc1ccccc1)NC(=O)C(=O)[N-]Cc1ccc(Cl)cc1

>  <Energy>  (71) 
31.699770978129294

>  <Genealogy>  (71) 
CC(CCc1ccccc1)NC(=O)C(=O)[N-]Cc1ccc(Cl)cc1 (protonated)
C[C@H](CCc1ccccc1)NC(=O)C(=O)[N-]Cc1ccc(Cl)cc1 (chirality)
C[C@H](CCc1ccccc1)NC(=O)C(=O)[N-]Cc1ccc(Cl)cc1 (3D coordinates assigned)
C[C@H](CCc1ccccc1)NC(=O)C(=O)[N-]Cc1ccc(Cl)cc1 (optimized conformer: 31.699770978129294 kcal/mol)

>  <smiles>  (71) 
CC(CCc1ccccc1)NC(=O)C(=O)NCc1ccc(Cl)cc1

>  <score_type>  (71) 
oracle

>  <origin>  (71) 
adg

>  <m_score__min__energy>  (71) 
-10.289999999999999

>  <m_primary>  (71) 
energy

$$$$
71:0
     RDKit          3D

 48 51  0  0  0  0  0  0  0  0999 V2000
   56.0640   32.2253   52.6031 H   0  0  0  0  0  0  0  0  0  0  0  0
   55.0930   31.7970   52.3140 C   0  0  0  0  0  0  0  0  0  0  0  0
   54.3525   32.4180   51.7886 H   0  0  0  0  0  0  0  0  0  0  0  0
   54.8120   30.5180   52.6020 C   0  0  0  0  0  0  0  0  0  0  0  0
   53.6330   29.8300   52.3050 C   0  0  0  0  0  0  0  0  0  0  0  0
   52.5420   30.3160   51.6850 C   0  0  0  0  0  0  0  0  0  0  0  0
   52.2821   29.9091   50.6966 H   0  0  0  0  0  0  0  0  0  0  0  0
   51.6740   31.3650   52.2570 C   0  0  0  0  0  0  0  0  0  0  0  0
   51.4020   31.5250   53.5670 N   0  0  0  0  0  0  0  0  0  0  0  0
   50.5730   32.5920   53.5850 C   0  0  0  0  0  0  0  0  0  0  0  0
   50.0910   33.0560   54.6510 O   0  0  0  0  0  0  0  0  0  0  0  0
   50.3010   33.1200   52.3730 N   0  0  0  0  0  0  0  0  0  0  0  0
   51.0060   32.3310   51.5450 C   0  0  0  0  0  0  0  0  0  0  0  0
   51.0370   32.4950   50.1650 O   0  0  0  0  0  0  0  0  0  0  0  0
   53.7390   28.5560   52.7420 N   0  0  0  0  0  0  0  0  0  0  0  0
   54.9670   28.4950   53.2920 C   0  0  0  0  0  0  0  0  0  0  0  0
   55.4320   27.4420   53.8030 O   0  0  0  0  0  0  0  0  0  0  0  0
   55.6470   29.6610   53.2360 N   0  0  0  0  0  0  0  0  0  0  0  0
   57.0280   29.8670   53.6900 C   0  0  0  0  0  0  0  0  0  0  0  0
   57.1130   30.8584   54.1589 H   0  0  0  0  0  0  0  0  0  0  0  0
   57.2883   29.0854   54.4189 H   0  0  0  0  0  0  0  0  0  0  0  0
   57.9730   29.7860   52.5210 C   0  0  0  0  0  0  0  0  0  0  0  0
   57.5740   30.2380   51.2560 C   0  0  0  0  0  0  0  0  0  0  0  0
   56.5834   30.6988   51.1276 H   0  0  0  0  0  0  0  0  0  0  0  0
   58.4270   30.1070   50.1560 C   0  0  0  0  0  0  0  0  0  0  0  0
   58.1075   30.4743   49.1696 H   0  0  0  0  0  0  0  0  0  0  0  0
   59.6900   29.5090   50.3030 C   0  0  0  0  0  0  0  0  0  0  0  0
   60.5800   29.3520   49.1270 C   0  0  0  0  0  0  0  0  0  0  0  0
   60.8670   28.1950   48.7180 O   0  0  0  0  0  0  0  0  0  0  0  0
   61.1010   30.4810   48.4120 N   0  0  0  0  0  0  0  0  0  0  0  0
   60.3610   31.6510   48.0260 C   0  0  0  0  0  0  0  0  0  0  0  0
   59.2030   31.5450   47.2360 C   0  0  0  0  0  0  0  0  0  0  0  0
   58.8548   30.5547   46.9072 H   0  0  0  0  0  0  0  0  0  0  0  0
   58.4920   32.6880   46.8660 C   0  0  0  0  0  0  0  0  0  0  0  0
   57.5928   32.5967   46.2390 H   0  0  0  0  0  0  0  0  0  0  0  0
   58.9210   33.9470   47.2910 C   0  0  0  0  0  0  0  0  0  0  0  0
   58.3652   34.8474   46.9904 H   0  0  0  0  0  0  0  0  0  0  0  0
   60.0560   34.0640   48.0980 C   0  0  0  0  0  0  0  0  0  0  0  0
   60.3876   35.0574   48.4345 H   0  0  0  0  0  0  0  0  0  0  0  0
   60.7760   32.9200   48.4820 C   0  0  0  0  0  0  0  0  0  0  0  0
   62.0080   33.0600   49.3310 C   0  0  0  0  0  0  0  0  0  0  0  0
   61.7264   33.0280   50.3939 H   0  0  0  0  0  0  0  0  0  0  0  0
   62.7011   32.2348   49.1103 H   0  0  0  0  0  0  0  0  0  0  0  0
   62.4983   34.0196   49.1103 H   0  0  0  0  0  0  0  0  0  0  0  0
   60.0980   29.0780   51.5770 C   0  0  0  0  0  0  0  0  0  0  0  0
   61.0969   28.6374   51.7113 H   0  0  0  0  0  0  0  0  0  0  0  0
   59.2420   29.2060   52.6740 C   0  0  0  0  0  0  0  0  0  0  0  0
   59.5646   28.8500   53.6636 H   0  0  0  0  0  0  0  0  0  0  0  0
  1  2  1  0
  2  3  1  0
  2  4  2  0
  4  5  1  0
  5  6  2  0
  6  7  1  0
  6  8  1  0
  8  9  1  0
  9 10  1  0
 10 11  2  0
 10 12  1  0
 12 13  1  0
 13 14  1  0
  5 15  1  0
 15 16  1  0
 16 17  2  0
 16 18  1  0
 18 19  1  0
 19 20  1  0
 19 21  1  0
 19 22  1  0
 22 23  2  0
 23 24  1  0
 23 25  1  0
 25 26  1  0
 25 27  2  0
 27 28  1  0
 28 29  2  0
 28 30  1  0
 30 31  1  0
 31 32  2  0
 32 33  1  0
 32 34  1  0
 34 35  1  0
 34 36  2  0
 36 37  1  0
 36 38  1  0
 38 39  1  0
 38 40  2  0
 40 41  1  0
 41 42  1  0
 41 43  1  0
 41 44  1  0
 27 45  1  0
 45 46  1  0
 45 47  2  0
 47 48  1  0
 18  4  1  0
 47 22  1  0
 13  8  2  0
 40 31  1  0
M  CHG  5   9  -1  12  -1  14  -1  15  -1  30  -1
M  END
>  <UniqueID>  (72) 
65

>  <SMILES>  (72) 
C=c1/c(=C/c2[n-]c(=O)[n-]c2[O-])[n-]c(=O)n1Cc1ccc(C(=O)[N-]c2ccccc2C)cc1

>  <Energy>  (72) 
123.1752051925932

>  <Genealogy>  (72) 
C=c1c(=Cc2[n-]c(=O)[n-]c2[O-])[n-]c(=O)n1Cc1ccc(C(=O)[N-]c2ccccc2C)cc1 (protonated)
C=c1/c(=C/c2[n-]c(=O)[n-]c2[O-])[n-]c(=O)n1Cc1ccc(C(=O)[N-]c2ccccc2C)cc1 (cis-trans isomerization)
C=c1/c(=C/c2[n-]c(=O)[n-]c2[O-])[n-]c(=O)n1Cc1ccc(C(=O)[N-]c2ccccc2C)cc1 (3D coordinates assigned)
C=c1/c(=C/c2[n-]c(=O)[n-]c2[O-])[n-]c(=O)n1Cc1ccc(C(=O)[N-]c2ccccc2C)cc1 (optimized conformer: 123.1752051925932 kcal/mol)

>  <smiles>  (72) 
C=c1c(=Cc2[nH]c(=O)[nH]c2O)[nH]c(=O)n1Cc1ccc(C(=O)Nc2ccccc2C)cc1

>  <score_type>  (72) 
oracle

>  <origin>  (72) 
adg

>  <m_score__min__energy>  (72) 
-19.66

>  <m_primary>  (72) 
energy

$$$$
72:0
     RDKit          3D

 41 43  0  0  0  0  0  0  0  0999 V2000
   57.0480   21.0990   43.1840 C   0  0  0  0  0  0  0  0  0  0  0  0
   57.2660   22.4460   43.8080 C   0  0  0  0  0  0  0  0  0  0  0  0
   56.6890   23.5900   43.2390 C   0  0  0  0  0  0  0  0  0  0  0  0
   56.9230   24.8500   43.7990 C   0  0  0  0  0  0  0  0  0  0  0  0
   57.7390   24.9820   44.9330 C   0  0  0  0  0  0  0  0  0  0  0  0
   58.0190   26.3430   45.5100 C   0  0  0  0  0  0  0  0  0  0  0  0
   56.8520   26.8050   46.3860 C   0  0  0  0  0  0  0  0  0  0  0  0
   55.9100   27.5990   45.6040 N   0  0  0  0  0  0  0  0  0  0  0  0
   56.2040   28.8210   44.9110 C   0  0  0  0  0  0  0  0  0  0  0  0
   55.3400   29.7370   44.9150 O   0  0  0  0  0  0  0  0  0  0  0  0
   57.5150   29.0700   44.2160 C   0  0  0  0  0  0  0  0  0  0  0  0
   58.1040   30.3210   44.6870 N   0  0  0  0  0  0  0  0  0  0  0  0
   58.0630   31.5830   44.0170 C   0  0  0  0  0  0  0  0  0  0  0  0
   57.7320   31.7370   42.8120 O   0  0  0  0  0  0  0  0  0  0  0  0
   58.4340   32.6510   44.9390 C   0  0  0  0  0  0  0  0  0  0  0  0
   58.5400   34.0280   44.7430 C   0  0  0  0  0  0  0  0  0  0  0  0
   58.9120   34.8230   45.8420 C   0  0  0  0  0  0  0  0  0  0  0  0
   59.1630   34.2340   47.1000 C   0  0  0  0  0  0  0  0  0  0  0  0
   59.0440   32.8430   47.2720 C   0  0  0  0  0  0  0  0  0  0  0  0
   58.6790   32.0760   46.1680 C   0  0  0  0  0  0  0  0  0  0  0  0
   58.4650   30.6400   46.0340 C   0  0  0  0  0  0  0  0  0  0  0  0
   58.5690   29.7940   46.9610 O   0  0  0  0  0  0  0  0  0  0  0  0
   58.3420   23.8390   45.4820 C   0  0  0  0  0  0  0  0  0  0  0  0
   58.1080   22.5790   44.9220 C   0  0  0  0  0  0  0  0  0  0  0  0
   56.9258   20.3441   43.9747 H   0  0  0  0  0  0  0  0  0  0  0  0
   56.1426   21.1262   42.5599 H   0  0  0  0  0  0  0  0  0  0  0  0
   57.9158   20.8392   42.5599 H   0  0  0  0  0  0  0  0  0  0  0  0
   56.0498   23.4962   42.3487 H   0  0  0  0  0  0  0  0  0  0  0  0
   56.4648   25.7426   43.3480 H   0  0  0  0  0  0  0  0  0  0  0  0
   58.9331   26.2963   46.1201 H   0  0  0  0  0  0  0  0  0  0  0  0
   58.1494   27.0589   44.6851 H   0  0  0  0  0  0  0  0  0  0  0  0
   56.3333   25.9242   46.7922 H   0  0  0  0  0  0  0  0  0  0  0  0
   57.2454   27.4244   47.2055 H   0  0  0  0  0  0  0  0  0  0  0  0
   58.2040   28.2400   44.4311 H   0  0  0  0  0  0  0  0  0  0  0  0
   57.3399   29.1404   43.1323 H   0  0  0  0  0  0  0  0  0  0  0  0
   58.3389   34.4781   43.7596 H   0  0  0  0  0  0  0  0  0  0  0  0
   59.0081   35.9120   45.7203 H   0  0  0  0  0  0  0  0  0  0  0  0
   59.4536   34.8669   47.9514 H   0  0  0  0  0  0  0  0  0  0  0  0
   59.2335   32.3749   48.2492 H   0  0  0  0  0  0  0  0  0  0  0  0
   59.0018   23.9350   46.3569 H   0  0  0  0  0  0  0  0  0  0  0  0
   58.5861   21.6888   45.3568 H   0  0  0  0  0  0  0  0  0  0  0  0
  1  2  1  0
  2  3  2  0
  3  4  1  0
  4  5  2  0
  5  6  1  0
  6  7  1  0
  7  8  1  0
  8  9  1  0
  9 10  2  0
  9 11  1  0
 11 12  1  0
 12 13  1  0
 13 14  2  0
 13 15  1  0
 15 16  2  0
 16 17  1  0
 17 18  2  0
 18 19  1  0
 19 20  2  0
 20 21  1  0
 21 22  2  0
  5 23  1  0
 23 24  2  0
 24  2  1  0
 21 12  1  0
 20 15  1  0
  1 25  1  0
  1 26  1  0
  1 27  1  0
  3 28  1  0
  4 29  1  0
  6 30  1  0
  6 31  1  0
  7 32  1  0
  7 33  1  0
 11 34  1  0
 11 35  1  0
 16 36  1  0
 17 37  1  0
 18 38  1  0
 19 39  1  0
 23 40  1  0
 24 41  1  0
M  CHG  1   8  -1
M  END
>  <UniqueID>  (73) 
66

>  <SMILES>  (73) 
Cc1ccc(CC[N-]C(=O)CN2C(=O)c3ccccc3C2=O)cc1

>  <Energy>  (73) 
69.21100544994326

>  <Genealogy>  (73) 
Cc1ccc(CC[N-]C(=O)CN2C(=O)c3ccccc3C2=O)cc1 (protonated)
Cc1ccc(CC[N-]C(=O)CN2C(=O)c3ccccc3C2=O)cc1 (3D coordinates assigned)
Cc1ccc(CC[N-]C(=O)CN2C(=O)c3ccccc3C2=O)cc1 (nonaromatic ring conformer: 69.21100544994326 kcal/mol)

>  <smiles>  (73) 
Cc1ccc(CCNC(=O)CN2C(=O)c3ccccc3C2=O)cc1

>  <score_type>  (73) 
oracle

>  <origin>  (73) 
adg

>  <m_score__min__energy>  (73) 
-10.16

>  <m_primary>  (73) 
energy

$$$$
73:0
     RDKit          3D

 55 59  0  0  0  0  0  0  0  0999 V2000
   55.5805   31.8413   51.8355 H   0  0  0  0  0  0  0  0  0  0  0  0
   54.5450   31.5000   51.9810 C   0  0  0  0  0  0  0  0  0  0  0  0
   53.7060   32.1495   51.6909 H   0  0  0  0  0  0  0  0  0  0  0  0
   54.3050   30.2900   52.5130 C   0  0  0  0  0  0  0  0  0  0  0  0
   53.0500   29.7250   52.7560 C   0  0  0  0  0  0  0  0  0  0  0  0
   51.8450   30.2650   52.4910 C   0  0  0  0  0  0  0  0  0  0  0  0
   51.1270   30.3563   53.3193 H   0  0  0  0  0  0  0  0  0  0  0  0
   51.4290   30.7410   51.1600 C   0  0  0  0  0  0  0  0  0  0  0  0
   51.4620   29.9720   50.0570 N   0  0  0  0  0  0  0  0  0  0  0  0
   51.0890   30.8170   49.0720 C   0  0  0  0  0  0  0  0  0  0  0  0
   50.9850   30.4560   47.8720 O   0  0  0  0  0  0  0  0  0  0  0  0
   50.8470   32.0840   49.4740 N   0  0  0  0  0  0  0  0  0  0  0  0
   51.0780   32.0230   50.7950 C   0  0  0  0  0  0  0  0  0  0  0  0
   51.0170   33.1270   51.6360 O   0  0  0  0  0  0  0  0  0  0  0  0
   53.2870   28.4550   53.2690 C   0  0  0  0  0  0  0  0  0  0  0  0
   52.5301   27.7128   53.5626 H   0  0  0  0  0  0  0  0  0  0  0  0
   54.6580   28.3070   53.3380 C   0  0  0  0  0  0  0  0  0  0  0  0
   55.3550   27.0670   53.8110 C   0  0  0  0  0  0  0  0  0  0  0  0
   55.3651   27.0490   54.9108 H   0  0  0  0  0  0  0  0  0  0  0  0
   54.8227   26.1810   53.4346 H   0  0  0  0  0  0  0  0  0  0  0  0
   56.3886   27.0611   53.4346 H   0  0  0  0  0  0  0  0  0  0  0  0
   55.2770   29.4160   52.8750 N   0  0  0  0  0  0  0  0  0  0  0  0
   56.7000   29.6110   52.7940 C   0  0  0  0  0  0  0  0  0  0  0  0
   57.5450   29.0450   53.7590 C   0  0  0  0  0  0  0  0  0  0  0  0
   57.1176   28.4637   54.5893 H   0  0  0  0  0  0  0  0  0  0  0  0
   58.9260   29.2170   53.6690 C   0  0  0  0  0  0  0  0  0  0  0  0
   59.5848   28.7720   54.4292 H   0  0  0  0  0  0  0  0  0  0  0  0
   59.4750   29.9530   52.6160 C   0  0  0  0  0  0  0  0  0  0  0  0
   60.5655   30.0823   52.5513 H   0  0  0  0  0  0  0  0  0  0  0  0
   58.6450   30.5300   51.6380 C   0  0  0  0  0  0  0  0  0  0  0  0
   59.2140   31.2850   50.5460 N   0  0  0  0  0  0  0  0  0  0  0  0
   58.8410   32.6890   50.3300 C   0  0  0  0  0  0  0  0  0  0  0  0
   57.9998   32.7363   49.6228 H   0  0  0  0  0  0  0  0  0  0  0  0
   58.5493   33.1339   51.2928 H   0  0  0  0  0  0  0  0  0  0  0  0
   60.0310   33.4750   49.7560 C   0  0  0  0  0  0  0  0  0  0  0  0
   59.6681   34.4605   49.4288 H   0  0  0  0  0  0  0  0  0  0  0  0
   60.7818   33.5424   50.5571 H   0  0  0  0  0  0  0  0  0  0  0  0
   60.6990   32.8120   48.5950 N   0  0  0  0  0  0  0  0  0  0  0  0
   61.6930   32.6480   48.8870 H   0  0  0  0  0  0  0  0  0  0  0  0
   60.8190   33.7570   47.4480 C   0  0  0  0  0  0  0  0  0  0  0  0
   61.9169   33.7778   47.5129 H   0  0  0  0  0  0  0  0  0  0  0  0
   59.8410   33.6690   46.2730 C   0  0  0  0  0  0  0  0  0  0  0  0
   60.1792   33.9169   45.2561 H   0  0  0  0  0  0  0  0  0  0  0  0
   59.1848   32.8866   45.8640 H   0  0  0  0  0  0  0  0  0  0  0  0
   59.6850   34.7700   47.3130 C   0  0  0  0  0  0  0  0  0  0  0  0
   59.9094   35.8133   47.0462 H   0  0  0  0  0  0  0  0  0  0  0  0
   58.8676   35.1114   47.9651 H   0  0  0  0  0  0  0  0  0  0  0  0
   60.1740   31.4590   48.2780 C   0  0  0  0  0  0  0  0  0  0  0  0
   59.1826   31.5579   47.8119 H   0  0  0  0  0  0  0  0  0  0  0  0
   60.8751   30.9631   47.5906 H   0  0  0  0  0  0  0  0  0  0  0  0
   60.0490   30.6080   49.5460 C   0  0  0  0  0  0  0  0  0  0  0  0
   59.5914   29.6414   49.2884 H   0  0  0  0  0  0  0  0  0  0  0  0
   61.0528   30.4548   49.9691 H   0  0  0  0  0  0  0  0  0  0  0  0
   57.2530   30.3480   51.7360 C   0  0  0  0  0  0  0  0  0  0  0  0
   56.5916   30.7882   50.9752 H   0  0  0  0  0  0  0  0  0  0  0  0
  1  2  1  0
  2  3  1  0
  2  4  2  0
  4  5  1  0
  5  6  2  0
  6  7  1  0
  6  8  1  0
  8  9  1  0
  9 10  1  0
 10 11  2  0
 10 12  1  0
 12 13  1  0
 13 14  1  0
  5 15  1  0
 15 16  1  0
 15 17  2  0
 17 18  1  0
 18 19  1  0
 18 20  1  0
 18 21  1  0
 17 22  1  0
 22 23  1  0
 23 24  2  0
 24 25  1  0
 24 26  1  0
 26 27  1  0
 26 28  2  0
 28 29  1  0
 28 30  1  0
 30 31  1  0
 31 32  1  0
 32 33  1  0
 32 34  1  0
 32 35  1  0
 35 36  1  0
 35 37  1  0
 35 38  1  0
 38 39  1  0
 38 40  1  0
 40 41  1  0
 40 42  1  0
 42 43  1  0
 42 44  1  0
 42 45  1  0
 45 46  1  0
 45 47  1  0
 38 48  1  0
 48 49  1  0
 48 50  1  0
 48 51  1  0
 51 52  1  0
 51 53  1  0
 30 54  2  0
 54 55  1  0
 22  4  1  0
 54 23  1  0
 13  8  2  0
 51 31  1  0
 45 40  1  0
M  CHG  4   9  -1  12  -1  14  -1  38   1
M  END
>  <UniqueID>  (74) 
67

>  <SMILES>  (74) 
C=c1/c(=C/c2[n-]c(=O)[n-]c2[O-])cc(C)n1-c1cccc(N2CC[NH+](C3CC3)CC2)c1

>  <Energy>  (74) 
414.5472011191173

>  <Genealogy>  (74) 
C=c1c(=Cc2[n-]c(=O)[n-]c2[O-])cc(C)n1-c1cccc(N2CC[NH+](C3CC3)CC2)c1 (protonated)
C=c1/c(=C/c2[n-]c(=O)[n-]c2[O-])cc(C)n1-c1cccc(N2CC[NH+](C3CC3)CC2)c1 (cis-trans isomerization)
C=c1/c(=C/c2[n-]c(=O)[n-]c2[O-])cc(C)n1-c1cccc(N2CC[NH+](C3CC3)CC2)c1 (3D coordinates assigned)
C=c1/c(=C/c2[n-]c(=O)[n-]c2[O-])cc(C)n1-c1cccc(N2CC[NH+](C3CC3)CC2)c1 (nonaromatic ring conformer: 414.5472011191173 kcal/mol)

>  <smiles>  (74) 
C=c1c(=Cc2[nH]c(=O)[nH]c2O)cc(C)n1-c1cccc(N2CCN(C3CC3)CC2)c1

>  <score_type>  (74) 
oracle

>  <origin>  (74) 
adg

>  <m_score__min__energy>  (74) 
-15.800000000000001

>  <m_primary>  (74) 
energy

$$$$
74:0
     RDKit          3D

 62 66  0  0  0  0  0  0  0  0999 V2000
   55.9060   19.7230   44.3640 C   0  0  0  0  0  0  0  0  0  0  0  0
   55.9650   20.8890   43.5470 O   0  0  0  0  0  0  0  0  0  0  0  0
   56.1700   22.1880   44.0370 C   0  0  0  0  0  0  0  0  0  0  0  0
   56.6570   23.2310   43.2300 C   0  0  0  0  0  0  0  0  0  0  0  0
   56.8430   24.5100   43.7660 C   0  0  0  0  0  0  0  0  0  0  0  0
   56.5390   24.7720   45.1140 C   0  0  0  0  0  0  0  0  0  0  0  0
   56.7460   26.1300   45.6750 C   0  0  0  0  0  0  0  0  0  0  0  0
   55.7780   26.7320   46.2160 O   0  0  0  0  0  0  0  0  0  0  0  0
   58.0450   26.7450   45.6560 N   0  0  0  0  0  0  0  0  0  0  0  0
   58.2600   28.1600   45.7920 C   0  0  0  0  0  0  0  0  0  0  0  0
   58.2530   29.0150   44.6740 C   0  0  0  0  0  0  0  0  0  0  0  0
   58.4810   30.3850   44.8330 C   0  0  0  0  0  0  0  0  0  0  0  0
   58.7400   30.9110   46.1000 C   0  0  0  0  0  0  0  0  0  0  0  0
   58.7980   30.0640   47.2130 C   0  0  0  0  0  0  0  0  0  0  0  0
   59.0620   30.5960   48.5130 N   0  0  0  0  0  0  0  0  0  0  0  0
   58.2720   30.3560   49.5460 N   0  0  0  0  0  0  0  0  0  0  0  0
   58.7960   30.9770   50.6230 C   0  0  0  0  0  0  0  0  0  0  0  0
   58.1790   30.9400   51.9710 C   0  0  0  0  0  0  0  0  0  0  0  0
   56.8470   30.5230   52.1270 C   0  0  0  0  0  0  0  0  0  0  0  0
   56.2650   30.4870   53.3950 C   0  0  0  0  0  0  0  0  0  0  0  0
   57.0190   30.8690   54.5040 C   0  0  0  0  0  0  0  0  0  0  0  0
   58.3070   31.2710   54.3450 N   0  0  0  0  0  0  0  0  0  0  0  0
   58.8990   31.3160   53.1210 C   0  0  0  0  0  0  0  0  0  0  0  0
   59.9620   31.6320   50.2540 C   0  0  0  0  0  0  0  0  0  0  0  0
   60.1100   31.3600   48.9080 C   0  0  0  0  0  0  0  0  0  0  0  0
   61.2260   31.9200   48.0460 C   0  0  0  0  0  0  0  0  0  0  0  0
   62.6130   31.7060   48.6990 C   0  0  0  0  0  0  0  0  0  0  0  0
   63.6740   32.7130   48.2100 C   0  0  0  0  0  0  0  0  0  0  0  0
   63.4240   33.1460   46.7600 C   0  0  0  0  0  0  0  0  0  0  0  0
   62.0470   33.8260   46.5840 C   0  0  0  0  0  0  0  0  0  0  0  0
   61.0120   33.3890   47.6410 C   0  0  0  0  0  0  0  0  0  0  0  0
   58.5420   28.6950   47.0590 C   0  0  0  0  0  0  0  0  0  0  0  0
   56.0620   23.7220   45.9180 C   0  0  0  0  0  0  0  0  0  0  0  0
   55.8770   22.4440   45.3810 C   0  0  0  0  0  0  0  0  0  0  0  0
   55.9209   20.0168   45.4239 H   0  0  0  0  0  0  0  0  0  0  0  0
   54.9788   19.1714   44.1494 H   0  0  0  0  0  0  0  0  0  0  0  0
   56.7728   19.0807   44.1494 H   0  0  0  0  0  0  0  0  0  0  0  0
   56.8929   23.0408   42.1726 H   0  0  0  0  0  0  0  0  0  0  0  0
   57.2304   25.3177   43.1275 H   0  0  0  0  0  0  0  0  0  0  0  0
   58.8840   26.1210   45.6570 H   0  0  0  0  0  0  0  0  0  0  0  0
   58.0673   28.6035   43.6709 H   0  0  0  0  0  0  0  0  0  0  0  0
   58.4563   31.0504   43.9574 H   0  0  0  0  0  0  0  0  0  0  0  0
   58.8987   31.9924   46.2238 H   0  0  0  0  0  0  0  0  0  0  0  0
   56.2600   30.2235   51.2462 H   0  0  0  0  0  0  0  0  0  0  0  0
   55.2218   30.1605   53.5183 H   0  0  0  0  0  0  0  0  0  0  0  0
   56.5707   30.8449   55.5082 H   0  0  0  0  0  0  0  0  0  0  0  0
   59.9439   31.6473   53.0294 H   0  0  0  0  0  0  0  0  0  0  0  0
   60.6234   32.2354   50.8931 H   0  0  0  0  0  0  0  0  0  0  0  0
   61.1984   31.3436   47.1095 H   0  0  0  0  0  0  0  0  0  0  0  0
   62.5068   31.8110   49.7888 H   0  0  0  0  0  0  0  0  0  0  0  0
   62.9583   30.7013   48.4136 H   0  0  0  0  0  0  0  0  0  0  0  0
   63.6456   33.6022   48.8569 H   0  0  0  0  0  0  0  0  0  0  0  0
   64.6573   32.2220   48.2551 H   0  0  0  0  0  0  0  0  0  0  0  0
   64.2102   33.8550   46.4612 H   0  0  0  0  0  0  0  0  0  0  0  0
   63.4387   32.2441   46.1304 H   0  0  0  0  0  0  0  0  0  0  0  0
   62.1832   34.9150   46.6579 H   0  0  0  0  0  0  0  0  0  0  0  0
   61.6570   33.5232   45.6010 H   0  0  0  0  0  0  0  0  0  0  0  0
   61.1156   34.0266   48.5313 H   0  0  0  0  0  0  0  0  0  0  0  0
   60.0053   33.4911   47.2097 H   0  0  0  0  0  0  0  0  0  0  0  0
   58.5621   28.0340   47.9380 H   0  0  0  0  0  0  0  0  0  0  0  0
   55.8325   23.9071   46.9777 H   0  0  0  0  0  0  0  0  0  0  0  0
   55.4980   21.6333   46.0206 H   0  0  0  0  0  0  0  0  0  0  0  0
  1  2  1  0
  2  3  1  0
  3  4  2  0
  4  5  1  0
  5  6  2  0
  6  7  1  0
  7  8  2  0
  7  9  1  0
  9 10  1  0
 10 11  2  0
 11 12  1  0
 12 13  2  0
 13 14  1  0
 14 15  1  0
 15 16  1  0
 16 17  2  0
 17 18  1  0
 18 19  2  0
 19 20  1  0
 20 21  2  0
 21 22  1  0
 22 23  2  0
 17 24  1  0
 24 25  2  0
 25 26  1  0
 26 27  1  0
 27 28  1  0
 28 29  1  0
 29 30  1  0
 30 31  1  0
 14 32  2  0
  6 33  1  0
 33 34  2  0
 34  3  1  0
 32 10  1  0
 25 15  1  0
 31 26  1  0
 23 18  1  0
  1 35  1  0
  1 36  1  0
  1 37  1  0
  4 38  1  0
  5 39  1  0
  9 40  1  0
 11 41  1  0
 12 42  1  0
 13 43  1  0
 19 44  1  0
 20 45  1  0
 21 46  1  0
 23 47  1  0
 24 48  1  0
 26 49  1  0
 27 50  1  0
 27 51  1  0
 28 52  1  0
 28 53  1  0
 29 54  1  0
 29 55  1  0
 30 56  1  0
 30 57  1  0
 31 58  1  0
 31 59  1  0
 32 60  1  0
 33 61  1  0
 34 62  1  0
M  END
>  <UniqueID>  (75) 
68

>  <SMILES>  (75) 
COc1ccc(C(=O)Nc2cccc(-n3nc(-c4cccnc4)cc3C3CCCCC3)c2)cc1

>  <Energy>  (75) 
114.21153649643313

>  <Genealogy>  (75) 
COc1ccc(C(=O)Nc2cccc(-n3nc(-c4cccnc4)cc3C3CCCCC3)c2)cc1 (3D coordinates assigned)
COc1ccc(C(=O)Nc2cccc(-n3nc(-c4cccnc4)cc3C3CCCCC3)c2)cc1 (nonaromatic ring conformer: 114.21153649643313 kcal/mol)

>  <smiles>  (75) 
COc1ccc(C(=O)Nc2cccc(-n3nc(-c4cccnc4)cc3C3CCCCC3)c2)cc1

>  <score_type>  (75) 
oracle

>  <origin>  (75) 
adg

>  <m_score__min__energy>  (75) 
-9.3499999999999996

>  <m_primary>  (75) 
energy

$$$$
75:0
     RDKit          3D

 47 49  0  0  0  0  0  0  0  0999 V2000
   60.2600   26.1030   46.0880 C   0  0  0  0  0  0  0  0  0  0  0  0
   58.9270   26.1890   46.0410 C   0  0  0  0  0  0  0  0  0  0  0  0
   58.3620   27.3720   45.6870 N   0  0  0  0  0  0  0  0  0  0  0  0
   57.0180   27.5690   45.6080 C   0  0  0  0  0  0  0  0  0  0  0  0
   56.5970   28.7950   45.2330 C   0  0  0  0  0  0  0  0  0  0  0  0
   57.3550   30.0540   45.3680 C   0  0  0  0  0  0  0  0  0  0  0  0
   57.2270   31.0750   44.4140 C   0  0  0  0  0  0  0  0  0  0  0  0
   57.9870   32.2420   44.5260 C   0  0  0  0  0  0  0  0  0  0  0  0
   58.8990   32.3980   45.5760 C   0  0  0  0  0  0  0  0  0  0  0  0
   59.6300   33.5970   45.6480 O   0  0  0  0  0  0  0  0  0  0  0  0
   59.4290   34.6260   46.6190 C   0  0  0  0  0  0  0  0  0  0  0  0
   60.0880   34.2810   47.9270 C   0  0  0  0  0  0  0  0  0  0  0  0
   59.5040   34.5830   49.0050 O   0  0  0  0  0  0  0  0  0  0  0  0
   61.3760   33.6320   47.9680 N   0  0  0  0  0  0  0  0  0  0  0  0
   62.3800   33.8910   46.9260 C   0  0  0  0  0  0  0  0  0  0  0  0
   63.3590   32.7160   46.8360 C   0  0  0  0  0  0  0  0  0  0  0  0
   63.8950   32.4080   48.1090 O   0  0  0  0  0  0  0  0  0  0  0  0
   62.8640   31.9430   48.9570 C   0  0  0  0  0  0  0  0  0  0  0  0
   61.8450   33.0520   49.2330 C   0  0  0  0  0  0  0  0  0  0  0  0
   59.0520   31.3580   46.5140 C   0  0  0  0  0  0  0  0  0  0  0  0
   58.2900   30.1910   46.4020 C   0  0  0  0  0  0  0  0  0  0  0  0
   56.1540   26.4980   45.9500 C   0  0  0  0  0  0  0  0  0  0  0  0
   54.7740   26.6710   46.0140 O   0  0  0  0  0  0  0  0  0  0  0  0
   56.7010   25.2440   46.2820 C   0  0  0  0  0  0  0  0  0  0  0  0
   55.7880   24.1030   46.6610 C   0  0  0  0  0  0  0  0  0  0  0  0
   58.0990   25.0920   46.3450 C   0  0  0  0  0  0  0  0  0  0  0  0
   58.6000   23.9820   46.6820 O   0  0  0  0  0  0  0  0  0  0  0  0
   60.7403   25.1551   46.3721 H   0  0  0  0  0  0  0  0  0  0  0  0
   60.8767   26.9802   45.8426 H   0  0  0  0  0  0  0  0  0  0  0  0
   55.5948   28.8623   44.7846 H   0  0  0  0  0  0  0  0  0  0  0  0
   56.5257   30.9562   43.5749 H   0  0  0  0  0  0  0  0  0  0  0  0
   57.8676   33.0444   43.7831 H   0  0  0  0  0  0  0  0  0  0  0  0
   59.8570   35.5654   46.2391 H   0  0  0  0  0  0  0  0  0  0  0  0
   58.3480   34.7325   46.7928 H   0  0  0  0  0  0  0  0  0  0  0  0
   61.8747   34.0188   45.9573 H   0  0  0  0  0  0  0  0  0  0  0  0
   62.9364   34.8051   47.1808 H   0  0  0  0  0  0  0  0  0  0  0  0
   62.8293   31.8347   46.4452 H   0  0  0  0  0  0  0  0  0  0  0  0
   64.1844   32.9962   46.1650 H   0  0  0  0  0  0  0  0  0  0  0  0
   62.3539   31.0967   48.4738 H   0  0  0  0  0  0  0  0  0  0  0  0
   63.3088   31.6273   49.9122 H   0  0  0  0  0  0  0  0  0  0  0  0
   60.9885   32.6313   49.7801 H   0  0  0  0  0  0  0  0  0  0  0  0
   62.3232   33.8389   49.8347 H   0  0  0  0  0  0  0  0  0  0  0  0
   59.7735   31.4645   47.3374 H   0  0  0  0  0  0  0  0  0  0  0  0
   58.4254   29.3768   47.1292 H   0  0  0  0  0  0  0  0  0  0  0  0
   55.7289   24.0292   47.7569 H   0  0  0  0  0  0  0  0  0  0  0  0
   54.7836   24.2854   46.2511 H   0  0  0  0  0  0  0  0  0  0  0  0
   56.1862   23.1631   46.2511 H   0  0  0  0  0  0  0  0  0  0  0  0
  1  2  2  0
  2  3  1  0
  3  4  1  0
  4  5  2  3
  5  6  1  0
  6  7  2  0
  7  8  1  0
  8  9  2  0
  9 10  1  0
 10 11  1  0
 11 12  1  0
 12 13  2  0
 12 14  1  0
 14 15  1  0
 15 16  1  0
 16 17  1  0
 17 18  1  0
 18 19  1  0
  9 20  1  0
 20 21  2  0
  4 22  1  0
 22 23  1  0
 22 24  2  0
 24 25  1  0
 24 26  1  0
 26 27  2  0
 26  2  1  0
 21  6  1  0
 19 14  1  0
  1 28  1  0
  1 29  1  0
  5 30  1  0
  7 31  1  0
  8 32  1  0
 11 33  1  0
 11 34  1  0
 15 35  1  0
 15 36  1  0
 16 37  1  0
 16 38  1  0
 18 39  1  0
 18 40  1  0
 19 41  1  0
 19 42  1  0
 20 43  1  0
 21 44  1  0
 25 45  1  0
 25 46  1  0
 25 47  1  0
M  CHG  2   3  -1  23  -1
M  END
>  <UniqueID>  (76) 
69

>  <SMILES>  (76) 
C=c1[n-]c(=Cc2ccc(OCC(=O)N3CCOCC3)cc2)c([O-])c(C)c1=O

>  <Energy>  (76) 
65.94133105213173

>  <Genealogy>  (76) 
C=c1[n-]c(=Cc2ccc(OCC(=O)N3CCOCC3)cc2)c([O-])c(C)c1=O (protonated)
C=c1[n-]c(=Cc2ccc(OCC(=O)N3CCOCC3)cc2)c([O-])c(C)c1=O (3D coordinates assigned)
C=c1[n-]c(=Cc2ccc(OCC(=O)N3CCOCC3)cc2)c([O-])c(C)c1=O (nonaromatic ring conformer: 65.94133105213173 kcal/mol)

>  <smiles>  (76) 
C=c1[nH]c(=Cc2ccc(OCC(=O)N3CCOCC3)cc2)c(O)c(C)c1=O

>  <score_type>  (76) 
oracle

>  <origin>  (76) 
adg

>  <m_score__min__energy>  (76) 
-13.32

>  <m_primary>  (76) 
energy

$$$$
76:0
     RDKit          3D

 58 63  0  0  0  0  0  0  0  0999 V2000
   58.9340   27.9070   48.1150 C   0  0  0  0  0  0  0  0  0  0  0  0
   58.5630   28.7300   47.1170 C   0  0  0  0  0  0  0  0  0  0  0  0
   57.9910   28.3360   45.8930 C   0  0  0  0  0  0  0  0  0  0  0  0
   57.8550   27.1210   45.3240 C   0  0  0  0  0  0  0  0  0  0  0  0
   57.2130   25.9430   45.9420 C   0  0  0  0  0  0  0  0  0  0  0  0
   57.8990   24.9120   46.4620 N   0  0  0  0  0  0  0  0  0  0  0  0
   56.9400   24.1530   47.0440 C   0  0  0  0  0  0  0  0  0  0  0  0
   57.1930   23.0750   47.6450 O   0  0  0  0  0  0  0  0  0  0  0  0
   55.6910   24.6520   46.9560 N   0  0  0  0  0  0  0  0  0  0  0  0
   55.8830   25.7950   46.2710 C   0  0  0  0  0  0  0  0  0  0  0  0
   54.8700   26.7000   45.9940 O   0  0  0  0  0  0  0  0  0  0  0  0
   57.5740   29.4960   45.2710 C   0  0  0  0  0  0  0  0  0  0  0  0
   57.9550   30.5510   46.0750 C   0  0  0  0  0  0  0  0  0  0  0  0
   57.7950   31.9690   45.6740 C   0  0  0  0  0  0  0  0  0  0  0  0
   57.6640   33.0330   46.5620 C   0  0  0  0  0  0  0  0  0  0  0  0
   57.5990   34.2820   45.9330 C   0  0  0  0  0  0  0  0  0  0  0  0
   57.6870   34.2150   44.5490 C   0  0  0  0  0  0  0  0  0  0  0  0
   57.8550   32.6010   44.1110 S   0  0  0  0  0  0  0  0  0  0  0  0
   58.5680   30.0930   47.2030 N   0  0  0  0  0  0  0  0  0  0  0  0
   59.2540   30.9320   48.2050 C   0  0  0  0  0  0  0  0  0  0  0  0
   60.5490   31.4670   47.6440 C   0  0  0  0  0  0  0  0  0  0  0  0
   60.6460   31.6110   46.4290 O   0  0  0  0  0  0  0  0  0  0  0  0
   61.6820   31.7440   48.5180 N   0  0  1  0  0  0  0  0  0  0  0  0
   62.9870   31.4620   47.8630 C   0  0  0  0  0  0  0  0  0  0  0  0
   63.7620   32.7770   48.0190 C   0  0  1  0  0  0  0  0  0  0  0  0
   62.6560   33.7750   47.7820 C   0  0  0  0  0  0  0  0  0  0  0  0
   61.7870   33.1820   48.8800 C   0  0  2  0  0  0  0  0  0  0  0  0
   62.7560   33.3010   50.0790 C   0  0  0  0  0  0  0  0  0  0  0  0
   64.0310   32.9590   49.4480 N   0  0  0  0  0  0  0  0  0  0  0  0
   65.2320   32.5640   50.1420 C   0  0  0  0  0  0  0  0  0  0  0  0
   66.3380   33.4280   50.1910 C   0  0  0  0  0  0  0  0  0  0  0  0
   67.5060   33.0500   50.8630 C   0  0  0  0  0  0  0  0  0  0  0  0
   67.5780   31.8100   51.5030 C   0  0  0  0  0  0  0  0  0  0  0  0
   66.4860   30.9440   51.4650 C   0  0  0  0  0  0  0  0  0  0  0  0
   65.3190   31.3150   50.7870 C   0  0  0  0  0  0  0  0  0  0  0  0
   59.3735   28.3209   49.0345 H   0  0  0  0  0  0  0  0  0  0  0  0
   58.7977   26.8204   48.0112 H   0  0  0  0  0  0  0  0  0  0  0  0
   58.2584   26.9959   44.3083 H   0  0  0  0  0  0  0  0  0  0  0  0
   57.0379   29.5662   44.3130 H   0  0  0  0  0  0  0  0  0  0  0  0
   57.6161   32.9047   47.6534 H   0  0  0  0  0  0  0  0  0  0  0  0
   57.4886   35.2278   46.4837 H   0  0  0  0  0  0  0  0  0  0  0  0
   57.6527   35.0705   43.8584 H   0  0  0  0  0  0  0  0  0  0  0  0
   58.6024   31.7745   48.4798 H   0  0  0  0  0  0  0  0  0  0  0  0
   59.4747   30.3204   49.0923 H   0  0  0  0  0  0  0  0  0  0  0  0
   61.5980   31.1570   49.3830 H   0  0  0  0  0  0  0  0  0  0  0  0
   63.5094   30.6362   48.3681 H   0  0  0  0  0  0  0  0  0  0  0  0
   62.8795   31.1517   46.8132 H   0  0  0  0  0  0  0  0  0  0  0  0
   64.6706   32.8384   47.4019 H   0  0  0  0  0  0  0  0  0  0  0  0
   62.9560   34.8156   47.9745 H   0  0  0  0  0  0  0  0  0  0  0  0
   62.2386   33.8764   46.7693 H   0  0  0  0  0  0  0  0  0  0  0  0
   60.7933   33.6230   49.0476 H   0  0  0  0  0  0  0  0  0  0  0  0
   62.7692   34.3225   50.4870 H   0  0  0  0  0  0  0  0  0  0  0  0
   62.4923   32.6662   50.9377 H   0  0  0  0  0  0  0  0  0  0  0  0
   66.2859   34.4096   49.6973 H   0  0  0  0  0  0  0  0  0  0  0  0
   68.3696   33.7309   50.8874 H   0  0  0  0  0  0  0  0  0  0  0  0
   68.4948   31.5175   52.0359 H   0  0  0  0  0  0  0  0  0  0  0  0
   66.5416   29.9677   51.9686 H   0  0  0  0  0  0  0  0  0  0  0  0
   64.4626   30.6252   50.7577 H   0  0  0  0  0  0  0  0  0  0  0  0
  1  2  2  0
  2  3  1  0
  3  4  2  3
  4  5  1  0
  5  6  1  0
  6  7  1  0
  7  8  2  0
  7  9  1  0
  9 10  1  0
 10 11  1  0
  3 12  1  0
 12 13  2  0
 13 14  1  0
 14 15  2  0
 15 16  1  0
 16 17  2  0
 17 18  1  0
 13 19  1  0
 19 20  1  0
 20 21  1  0
 21 22  2  0
 21 23  1  0
 23 24  1  0
 24 25  1  0
 25 26  1  0
 26 27  1  0
 27 28  1  0
 28 29  1  0
 29 30  1  0
 30 31  2  0
 31 32  1  0
 32 33  2  0
 33 34  1  0
 34 35  2  0
 19  2  1  0
 27 23  1  0
 35 30  1  0
 10  5  2  0
 18 14  1  0
 29 25  1  0
  1 36  1  0
  1 37  1  0
  4 38  1  0
 12 39  1  0
 15 40  1  0
 16 41  1  0
 17 42  1  0
 20 43  1  0
 20 44  1  0
 23 45  1  1
 24 46  1  0
 24 47  1  0
 25 48  1  6
 26 49  1  0
 26 50  1  0
 27 51  1  1
 28 52  1  0
 28 53  1  0
 31 54  1  0
 32 55  1  0
 33 56  1  0
 34 57  1  0
 35 58  1  0
M  CHG  4   6  -1   9  -1  11  -1  23   1
M  END
>  <UniqueID>  (77) 
70

>  <SMILES>  (77) 
C=c1c(=Cc2[n-]c(=O)[n-]c2[O-])cc(-c2cccs2)n1CC(=O)[N@H+]1C[C@H]2CC1CN2c1ccccc1

>  <Energy>  (77) 
203.7640160566546

>  <Genealogy>  (77) 
C=c1c(=Cc2[n-]c(=O)[n-]c2[O-])cc(-c2cccs2)n1CC(=O)[NH+]1CC2CC1CN2c1ccccc1 (protonated)
C=c1c(=Cc2[n-]c(=O)[n-]c2[O-])cc(-c2cccs2)n1CC(=O)[N@H+]1C[C@H]2CC1CN2c1ccccc1 (chirality)
C=c1c(=Cc2[n-]c(=O)[n-]c2[O-])cc(-c2cccs2)n1CC(=O)[N@H+]1C[C@H]2CC1CN2c1ccccc1 (3D coordinates assigned)
C=c1c(=Cc2[n-]c(=O)[n-]c2[O-])cc(-c2cccs2)n1CC(=O)[N@H+]1C[C@H]2CC1CN2c1ccccc1 (nonaromatic ring conformer: 203.7640160566546 kcal/mol)

>  <smiles>  (77) 
C=c1c(=Cc2[nH]c(=O)[nH]c2O)cc(-c2cccs2)n1CC(=O)N1CC2CC1CN2c1ccccc1

>  <score_type>  (77) 
oracle

>  <origin>  (77) 
adg

>  <m_score__min__energy>  (77) 
-16.079999999999998

>  <m_primary>  (77) 
energy

$$$$
77:0
     RDKit          3D

 39 41  0  0  0  0  0  0  0  0999 V2000
   64.1150   33.4480   47.9760 C   0  0  0  0  0  0  0  0  0  0  0  0
   62.7270   33.2930   48.4360 N   0  0  0  0  0  0  0  0  0  0  0  0
   62.4500   34.2280   49.5370 C   0  0  0  0  0  0  0  0  0  0  0  0
   61.0710   33.9250   50.1230 C   0  0  0  0  0  0  0  0  0  0  0  0
   60.0300   33.7600   49.0510 C   0  0  0  0  0  0  0  0  0  0  0  0
   60.3470   33.5030   47.7690 C   0  0  0  0  0  0  0  0  0  0  0  0
   59.2820   33.3110   46.7530 C   0  0  0  0  0  0  0  0  0  0  0  0
   58.9930   32.1270   46.0900 C   0  0  0  0  0  0  0  0  0  0  0  0
   57.9510   32.3520   45.2690 N   0  0  0  0  0  0  0  0  0  0  0  0
   57.1720   31.1810   44.2590 S   0  0  0  0  0  0  0  0  0  0  0  0
   55.6880   31.1960   44.5000 O   0  0  0  0  0  0  0  0  0  0  0  0
   57.4160   31.5290   42.8170 O   0  0  0  0  0  0  0  0  0  0  0  0
   57.8200   29.5820   44.6210 C   0  0  0  0  0  0  0  0  0  0  0  0
   59.2010   29.3450   44.5340 C   0  0  0  0  0  0  0  0  0  0  0  0
   59.7180   28.0830   44.8400 C   0  0  0  0  0  0  0  0  0  0  0  0
   58.8620   27.0530   45.2390 C   0  0  0  0  0  0  0  0  0  0  0  0
   57.4870   27.2850   45.3370 C   0  0  0  0  0  0  0  0  0  0  0  0
   56.9640   28.5460   45.0320 C   0  0  0  0  0  0  0  0  0  0  0  0
   55.6290   28.7550   45.1460 F   0  0  0  0  0  0  0  0  0  0  0  0
   57.6170   33.6430   45.4520 C   0  0  0  0  0  0  0  0  0  0  0  0
   56.6610   34.2120   44.8620 O   0  0  0  0  0  0  0  0  0  0  0  0
   58.4100   34.2620   46.3460 N   0  0  0  0  0  0  0  0  0  0  0  0
   61.7940   33.5430   47.3180 C   0  0  0  0  0  0  0  0  0  0  0  0
   64.7835   33.5227   48.8463 H   0  0  0  0  0  0  0  0  0  0  0  0
   64.3996   32.5761   47.3688 H   0  0  0  0  0  0  0  0  0  0  0  0
   64.2002   34.3612   47.3688 H   0  0  0  0  0  0  0  0  0  0  0  0
   63.2150   34.1118   50.3188 H   0  0  0  0  0  0  0  0  0  0  0  0
   62.4701   35.2602   49.1574 H   0  0  0  0  0  0  0  0  0  0  0  0
   61.1296   32.9952   50.7078 H   0  0  0  0  0  0  0  0  0  0  0  0
   60.7759   34.7743   50.7568 H   0  0  0  0  0  0  0  0  0  0  0  0
   58.9688   33.8529   49.3252 H   0  0  0  0  0  0  0  0  0  0  0  0
   59.5232   31.1712   46.2139 H   0  0  0  0  0  0  0  0  0  0  0  0
   59.8780   30.1547   44.2242 H   0  0  0  0  0  0  0  0  0  0  0  0
   60.8002   27.9003   44.7666 H   0  0  0  0  0  0  0  0  0  0  0  0
   59.2703   26.0595   45.4760 H   0  0  0  0  0  0  0  0  0  0  0  0
   56.8149   26.4742   45.6546 H   0  0  0  0  0  0  0  0  0  0  0  0
   58.3290   35.2510   46.6680 H   0  0  0  0  0  0  0  0  0  0  0  0
   61.9477   32.7730   46.5476 H   0  0  0  0  0  0  0  0  0  0  0  0
   61.9995   34.5480   46.9209 H   0  0  0  0  0  0  0  0  0  0  0  0
  1  2  1  0
  2  3  1  0
  3  4  1  0
  4  5  1  0
  5  6  2  0
  6  7  1  0
  7  8  2  0
  8  9  1  0
  9 10  1  0
 10 11  2  0
 10 12  2  0
 10 13  1  0
 13 14  2  0
 14 15  1  0
 15 16  2  0
 16 17  1  0
 17 18  2  0
 18 19  1  0
  9 20  1  0
 20 21  2  0
 20 22  1  0
  6 23  1  0
 23  2  1  0
 22  7  1  0
 18 13  1  0
  1 24  1  0
  1 25  1  0
  1 26  1  0
  3 27  1  0
  3 28  1  0
  4 29  1  0
  4 30  1  0
  5 31  1  0
  8 32  1  0
 14 33  1  0
 15 34  1  0
 16 35  1  0
 17 36  1  0
 22 37  1  0
 23 38  1  0
 23 39  1  0
M  END
>  <UniqueID>  (78) 
71

>  <SMILES>  (78) 
CN1CCC=C(c2cn(S(=O)(=O)c3ccccc3F)c(=O)[nH]2)C1

>  <Energy>  (78) 
77.70463752792232

>  <Genealogy>  (78) 
CN1CCC=C(c2cn(S(=O)(=O)c3ccccc3F)c(=O)[nH]2)C1 (3D coordinates assigned)
CN1CCC=C(c2cn(S(=O)(=O)c3ccccc3F)c(=O)[nH]2)C1 (nonaromatic ring conformer: 77.70463752792232 kcal/mol)

>  <smiles>  (78) 
CN1CCC=C(c2cn(S(=O)(=O)c3ccccc3F)c(=O)[nH]2)C1

>  <score_type>  (78) 
oracle

>  <origin>  (78) 
adg

>  <m_score__min__energy>  (78) 
-8.5099999999999998

>  <m_primary>  (78) 
energy

$$$$
78:0
     RDKit          3D

 39 41  0  0  0  0  0  0  0  0999 V2000
   56.9570   33.2093   47.3411 H   0  0  0  0  0  0  0  0  0  0  0  0
   57.3870   33.1830   46.3290 C   0  0  0  0  0  0  0  0  0  0  0  0
   56.9910   32.2270   45.4470 N   0  0  0  0  0  0  0  0  0  0  0  0
   57.5030   32.1600   44.1880 C   0  0  0  0  0  0  0  0  0  0  0  0
   56.9490   30.8720   43.0690 S   0  0  0  0  0  0  0  0  0  0  0  0
   57.7360   29.5150   44.0080 C   0  0  0  0  0  0  0  0  0  0  0  0
   58.6179   29.9097   44.5338 H   0  0  0  0  0  0  0  0  0  0  0  0
   58.0222   28.7262   43.2968 H   0  0  0  0  0  0  0  0  0  0  0  0
   56.7910   28.9170   45.0190 C   0  0  0  0  0  0  0  0  0  0  0  0
   55.5500   29.0720   44.8680 O   0  0  0  0  0  0  0  0  0  0  0  0
   57.2550   28.1850   46.1650 N   0  0  0  0  0  0  0  0  0  0  0  0
   58.2690   28.4730   46.9280 C   0  0  0  0  0  0  0  0  0  0  0  0
   58.9050   27.5160   47.6550 N   0  0  0  0  0  0  0  0  0  0  0  0
   59.9450   27.8430   48.4600 C   0  0  0  0  0  0  0  0  0  0  0  0
   60.5880   26.8420   49.1920 O   0  0  0  0  0  0  0  0  0  0  0  0
   61.1040   27.0580   50.5010 C   0  0  0  0  0  0  0  0  0  0  0  0
   60.3572   26.7454   51.2457 H   0  0  0  0  0  0  0  0  0  0  0  0
   62.0236   26.4693   50.6344 H   0  0  0  0  0  0  0  0  0  0  0  0
   61.3299   28.1262   50.6344 H   0  0  0  0  0  0  0  0  0  0  0  0
   60.3490   29.1380   48.5450 N   0  0  0  0  0  0  0  0  0  0  0  0
   59.7160   30.1070   47.8310 C   0  0  0  0  0  0  0  0  0  0  0  0
   60.1570   31.5210   47.9300 C   0  0  0  0  0  0  0  0  0  0  0  0
   59.5350   32.4040   48.8340 C   0  0  0  0  0  0  0  0  0  0  0  0
   58.7153   32.0436   49.4729 H   0  0  0  0  0  0  0  0  0  0  0  0
   59.9520   33.7350   48.9250 C   0  0  0  0  0  0  0  0  0  0  0  0
   59.4602   34.4170   49.6343 H   0  0  0  0  0  0  0  0  0  0  0  0
   60.9920   34.2010   48.1170 C   0  0  0  0  0  0  0  0  0  0  0  0
   61.3190   35.2487   48.1906 H   0  0  0  0  0  0  0  0  0  0  0  0
   61.6160   33.3360   47.2160 C   0  0  0  0  0  0  0  0  0  0  0  0
   62.4341   33.7039   46.5793 H   0  0  0  0  0  0  0  0  0  0  0  0
   61.2040   32.0040   47.1210 C   0  0  0  0  0  0  0  0  0  0  0  0
   61.7008   31.3281   46.4095 H   0  0  0  0  0  0  0  0  0  0  0  0
   58.6740   29.7640   47.0280 N   0  0  0  0  0  0  0  0  0  0  0  0
   58.4560   33.0950   43.7700 C   0  0  0  0  0  0  0  0  0  0  0  0
   58.8699   33.0505   42.7518 H   0  0  0  0  0  0  0  0  0  0  0  0
   58.8760   34.0860   44.6610 C   0  0  0  0  0  0  0  0  0  0  0  0
   59.6261   34.8273   44.3484 H   0  0  0  0  0  0  0  0  0  0  0  0
   58.3400   34.1320   45.9500 C   0  0  0  0  0  0  0  0  0  0  0  0
   58.6648   34.9073   46.6595 H   0  0  0  0  0  0  0  0  0  0  0  0
  1  2  1  0
  2  3  2  0
  3  4  1  0
  4  5  1  0
  5  6  1  0
  6  7  1  0
  6  8  1  0
  6  9  1  0
  9 10  2  0
  9 11  1  0
 11 12  2  0
 12 13  1  0
 13 14  2  0
 14 15  1  0
 15 16  1  0
 16 17  1  0
 16 18  1  0
 16 19  1  0
 14 20  1  0
 20 21  1  0
 21 22  1  0
 22 23  2  0
 23 24  1  0
 23 25  1  0
 25 26  1  0
 25 27  2  0
 27 28  1  0
 27 29  1  0
 29 30  1  0
 29 31  2  0
 31 32  1  0
 21 33  2  0
  4 34  2  0
 34 35  1  0
 34 36  1  0
 36 37  1  0
 36 38  2  0
 38 39  1  0
 38  2  1  0
 33 12  1  0
 31 22  1  0
M  CHG  1  20  -1
M  END
>  <UniqueID>  (79) 
72

>  <SMILES>  (79) 
COc1n/c(=N\C(=O)CSc2ccccn2)nc(-c2ccccc2)[n-]1

>  <Energy>  (79) 
43.285950858788446

>  <Genealogy>  (79) 
COc1nc(=NC(=O)CSc2ccccn2)nc(-c2ccccc2)[n-]1 (protonated)
COc1n/c(=N\C(=O)CSc2ccccn2)nc(-c2ccccc2)[n-]1 (cis-trans isomerization)
COc1n/c(=N\C(=O)CSc2ccccn2)nc(-c2ccccc2)[n-]1 (3D coordinates assigned)
COc1n/c(=N\C(=O)CSc2ccccn2)nc(-c2ccccc2)[n-]1 (optimized conformer: 43.285950858788446 kcal/mol)

>  <smiles>  (79) 
COc1nc(=NC(=O)CSc2ccccn2)nc(-c2ccccc2)[nH]1

>  <score_type>  (79) 
oracle

>  <origin>  (79) 
adg

>  <m_score__min__energy>  (79) 
-8.9299999999999997

>  <m_primary>  (79) 
energy

$$$$
79:0
     RDKit          3D

 49 52  0  0  0  0  0  0  0  0999 V2000
   59.8450   27.9420   44.4410 H   0  0  0  0  0  0  0  0  0  0  0  0
   59.3700   27.4950   45.2160 O   0  0  0  0  0  0  0  0  0  0  0  0
   57.9850   27.5490   45.3490 C   0  0  0  0  0  0  0  0  0  0  0  0
   57.2440   26.5150   45.7790 N   0  0  0  0  0  0  0  0  0  0  0  0
   55.9840   26.9940   45.7000 C   0  0  0  0  0  0  0  0  0  0  0  0
   54.9780   26.3090   46.0160 O   0  0  0  0  0  0  0  0  0  0  0  0
   55.8880   28.2620   45.2430 N   0  0  0  0  0  0  0  0  0  0  0  0
   57.1690   28.6200   45.0480 C   0  0  0  0  0  0  0  0  0  0  0  0
   57.5680   29.9020   44.4520 C   0  0  0  0  0  0  0  0  0  0  0  0
   57.4844   29.9932   43.3590 H   0  0  0  0  0  0  0  0  0  0  0  0
   58.0270   30.9760   45.1230 C   0  0  0  0  0  0  0  0  0  0  0  0
   57.8350   32.2730   44.6750 C   0  0  0  0  0  0  0  0  0  0  0  0
   57.2702   32.5802   43.7825 H   0  0  0  0  0  0  0  0  0  0  0  0
   58.4860   33.1050   45.5600 C   0  0  0  0  0  0  0  0  0  0  0  0
   58.5800   34.5940   45.4130 C   0  0  0  0  0  0  0  0  0  0  0  0
   58.6094   35.0597   46.4091 H   0  0  0  0  0  0  0  0  0  0  0  0
   59.4961   34.8508   44.8610 H   0  0  0  0  0  0  0  0  0  0  0  0
   57.7034   34.9640   44.8610 H   0  0  0  0  0  0  0  0  0  0  0  0
   59.0650   32.3840   46.5450 N   0  0  0  0  0  0  0  0  0  0  0  0
   59.7970   32.9300   47.6570 C   0  0  0  0  0  0  0  0  0  0  0  0
   61.0650   33.4930   47.4620 C   0  0  0  0  0  0  0  0  0  0  0  0
   61.5056   33.5169   46.4544 H   0  0  0  0  0  0  0  0  0  0  0  0
   61.7710   34.0240   48.5440 C   0  0  0  0  0  0  0  0  0  0  0  0
   62.7603   34.4776   48.3846 H   0  0  0  0  0  0  0  0  0  0  0  0
   61.2230   33.9800   49.8280 C   0  0  0  0  0  0  0  0  0  0  0  0
   61.7788   34.4085   50.6751 H   0  0  0  0  0  0  0  0  0  0  0  0
   59.9670   33.3920   50.0430 C   0  0  0  0  0  0  0  0  0  0  0  0
   59.3930   33.3550   51.4030 C   0  0  0  0  0  0  0  0  0  0  0  0
   59.7580   34.2230   52.2410 O   0  0  0  0  0  0  0  0  0  0  0  0
   58.4480   32.3440   51.7950 N   0  0  0  0  0  0  0  0  0  0  0  0
   58.7430   30.9130   51.7220 C   0  0  0  0  0  0  0  0  0  0  0  0
   59.1426   30.6396   50.7343 H   0  0  0  0  0  0  0  0  0  0  0  0
   59.5068   30.5859   52.4428 H   0  0  0  0  0  0  0  0  0  0  0  0
   57.4180   30.3000   51.9500 C   0  0  0  0  0  0  0  0  0  0  0  0
   57.1990   29.0610   51.9850 O   0  0  0  0  0  0  0  0  0  0  0  0
   56.4100   31.2810   52.1220 N   0  0  0  0  0  0  0  0  0  0  0  0
   54.9980   31.0160   52.3680 C   0  0  0  0  0  0  0  0  0  0  0  0
   54.8148   30.9816   53.4521 H   0  0  0  0  0  0  0  0  0  0  0  0
   54.3911   31.8159   51.9188 H   0  0  0  0  0  0  0  0  0  0  0  0
   54.7224   30.0505   51.9188 H   0  0  0  0  0  0  0  0  0  0  0  0
   57.0210   32.5950   52.0340 C   0  0  0  0  0  0  0  0  0  0  0  0
   56.5858   33.1672   51.2015 H   0  0  0  0  0  0  0  0  0  0  0  0
   56.8560   33.1858   52.9471 H   0  0  0  0  0  0  0  0  0  0  0  0
   59.2500   32.8820   48.9490 C   0  0  0  0  0  0  0  0  0  0  0  0
   58.2539   32.4423   49.1051 H   0  0  0  0  0  0  0  0  0  0  0  0
   58.7710   31.0780   46.3120 C   0  0  0  0  0  0  0  0  0  0  0  0
   59.1050   30.0860   47.1530 C   0  0  0  0  0  0  0  0  0  0  0  0
   59.6951   30.3050   48.0551 H   0  0  0  0  0  0  0  0  0  0  0  0
   58.7885   29.0543   46.9398 H   0  0  0  0  0  0  0  0  0  0  0  0
  1  2  1  0
  2  3  1  0
  3  4  1  0
  4  5  1  0
  5  6  2  0
  5  7  1  0
  7  8  1  0
  8  9  1  0
  9 10  1  0
  9 11  2  0
 11 12  1  0
 12 13  1  0
 12 14  2  0
 14 15  1  0
 15 16  1  0
 15 17  1  0
 15 18  1  0
 14 19  1  0
 19 20  1  0
 20 21  2  0
 21 22  1  0
 21 23  1  0
 23 24  1  0
 23 25  2  0
 25 26  1  0
 25 27  1  0
 27 28  1  0
 28 29  2  0
 28 30  1  0
 30 31  1  0
 31 32  1  0
 31 33  1  0
 31 34  1  0
 34 35  2  0
 34 36  1  0
 36 37  1  0
 37 38  1  0
 37 39  1  0
 37 40  1  0
 36 41  1  0
 41 42  1  0
 41 43  1  0
 27 44  2  0
 44 45  1  0
 19 46  1  0
 46 47  2  0
 47 48  1  0
 47 49  1  0
  8  3  2  0
 46 11  1  0
 44 20  1  0
 41 30  1  0
M  CHG  2   4  -1   7  -1
M  END
>  <UniqueID>  (80) 
73

>  <SMILES>  (80) 
C=c1/c(=C\c2[n-]c(=O)[n-]c2O)cc(C)n1-c1cccc(C(=O)N2CC(=O)N(C)C2)c1

>  <Energy>  (80) 
138.21183555070067

>  <Genealogy>  (80) 
C=c1c(=Cc2[n-]c(=O)[n-]c2O)cc(C)n1-c1cccc(C(=O)N2CC(=O)N(C)C2)c1 (protonated)
C=c1/c(=C\c2[n-]c(=O)[n-]c2O)cc(C)n1-c1cccc(C(=O)N2CC(=O)N(C)C2)c1 (cis-trans isomerization)
C=c1/c(=C\c2[n-]c(=O)[n-]c2O)cc(C)n1-c1cccc(C(=O)N2CC(=O)N(C)C2)c1 (3D coordinates assigned)
C=c1/c(=C\c2[n-]c(=O)[n-]c2O)cc(C)n1-c1cccc(C(=O)N2CC(=O)N(C)C2)c1 (nonaromatic ring conformer: 138.21183555070067 kcal/mol)

>  <smiles>  (80) 
C=c1c(=Cc2[nH]c(=O)[nH]c2O)cc(C)n1-c1cccc(C(=O)N2CC(=O)N(C)C2)c1

>  <score_type>  (80) 
oracle

>  <origin>  (80) 
adg

>  <m_score__min__energy>  (80) 
-14.359999999999999

>  <m_primary>  (80) 
energy

$$$$
80:0
     RDKit          3D

 56 58  0  0  0  0  0  0  0  0999 V2000
   57.4590   27.5940   46.7280 O   0  0  0  0  0  0  0  0  0  0  0  0
   57.5040   27.1030   45.5680 C   0  0  0  0  0  0  0  0  0  0  0  0
   56.7680   25.8410   45.2650 C   0  0  0  0  0  0  0  0  0  0  0  0
   55.5070   25.8410   45.9990 N   0  0  0  0  0  0  0  0  0  0  0  0
   54.7710   24.2730   45.9120 S   0  0  0  0  0  0  0  0  0  0  0  0
   53.3630   24.4020   45.3950 O   0  0  0  0  0  0  0  0  0  0  0  0
   54.7250   23.6740   47.2900 O   0  0  0  0  0  0  0  0  0  0  0  0
   55.7200   23.2210   44.8670 C   0  0  0  0  0  0  0  0  0  0  0  0
   55.5430   23.2850   43.4770 C   0  0  0  0  0  0  0  0  0  0  0  0
   56.2670   22.4360   42.6350 C   0  0  0  0  0  0  0  0  0  0  0  0
   57.1720   21.5200   43.1800 C   0  0  0  0  0  0  0  0  0  0  0  0
   57.3540   21.4540   44.5650 C   0  0  0  0  0  0  0  0  0  0  0  0
   56.6300   22.3010   45.4090 C   0  0  0  0  0  0  0  0  0  0  0  0
   58.1920   27.7880   44.5180 N   0  0  0  0  0  0  0  0  0  0  0  0
   57.5940   28.8450   43.7160 C   0  0  0  0  0  0  0  0  0  0  0  0
   56.6450   29.6870   44.5300 C   0  0  0  0  0  0  0  0  0  0  0  0
   55.4740   29.8560   44.1010 O   0  0  0  0  0  0  0  0  0  0  0  0
   57.0220   30.3190   45.7620 N   0  0  0  0  0  0  0  0  0  0  0  0
   57.7990   31.5170   45.9200 C   0  0  0  0  0  0  0  0  0  0  0  0
   57.9790   32.3580   44.8140 C   0  0  0  0  0  0  0  0  0  0  0  0
   58.7540   33.5190   44.9280 C   0  0  0  0  0  0  0  0  0  0  0  0
   59.3290   33.8620   46.1560 C   0  0  0  0  0  0  0  0  0  0  0  0
   59.1160   33.0530   47.2830 C   0  0  0  0  0  0  0  0  0  0  0  0
   59.8100   33.4990   48.8430 S   0  0  0  0  0  0  0  0  0  0  0  0
   59.6470   34.9800   49.0500 O   0  0  0  0  0  0  0  0  0  0  0  0
   59.0580   32.7900   49.9360 O   0  0  0  0  0  0  0  0  0  0  0  0
   61.5050   33.0760   48.9420 N   0  0  0  0  0  0  0  0  0  0  0  0
   62.2960   33.9070   48.0090 C   0  0  0  0  0  0  0  0  0  0  0  0
   63.6790   33.3010   47.7550 C   0  0  0  0  0  0  0  0  0  0  0  0
   63.5650   31.9150   47.0960 C   0  0  0  0  0  0  0  0  0  0  0  0
   62.2320   31.2140   47.4120 C   0  0  0  0  0  0  0  0  0  0  0  0
   61.7120   31.6130   48.8010 C   0  0  0  0  0  0  0  0  0  0  0  0
   58.3430   31.8850   47.1620 C   0  0  0  0  0  0  0  0  0  0  0  0
   56.5667   25.7812   44.1852 H   0  0  0  0  0  0  0  0  0  0  0  0
   57.3746   24.9744   45.5666 H   0  0  0  0  0  0  0  0  0  0  0  0
   54.8317   24.0061   43.0479 H   0  0  0  0  0  0  0  0  0  0  0  0
   56.1250   22.4884   41.5455 H   0  0  0  0  0  0  0  0  0  0  0  0
   57.7415   20.8505   42.5186 H   0  0  0  0  0  0  0  0  0  0  0  0
   58.0683   20.7341   44.9911 H   0  0  0  0  0  0  0  0  0  0  0  0
   56.7738   22.2462   46.4982 H   0  0  0  0  0  0  0  0  0  0  0  0
   58.3932   29.4888   43.3201 H   0  0  0  0  0  0  0  0  0  0  0  0
   57.0258   28.3779   42.8981 H   0  0  0  0  0  0  0  0  0  0  0  0
   57.5095   32.1053   43.8518 H   0  0  0  0  0  0  0  0  0  0  0  0
   58.9108   34.1625   44.0498 H   0  0  0  0  0  0  0  0  0  0  0  0
   59.9489   34.7669   46.2386 H   0  0  0  0  0  0  0  0  0  0  0  0
   61.7575   33.9827   47.0528 H   0  0  0  0  0  0  0  0  0  0  0  0
   62.4315   34.9007   48.4608 H   0  0  0  0  0  0  0  0  0  0  0  0
   64.2472   33.9688   47.0908 H   0  0  0  0  0  0  0  0  0  0  0  0
   64.1928   33.1870   48.7209 H   0  0  0  0  0  0  0  0  0  0  0  0
   63.6491   32.0358   46.0059 H   0  0  0  0  0  0  0  0  0  0  0  0
   64.3736   31.2880   47.4998 H   0  0  0  0  0  0  0  0  0  0  0  0
   61.4876   31.4997   46.6542 H   0  0  0  0  0  0  0  0  0  0  0  0
   62.3983   30.1267   47.4007 H   0  0  0  0  0  0  0  0  0  0  0  0
   60.7525   31.1043   48.9760 H   0  0  0  0  0  0  0  0  0  0  0  0
   62.4736   31.3150   49.5367 H   0  0  0  0  0  0  0  0  0  0  0  0
   58.1629   31.2550   48.0456 H   0  0  0  0  0  0  0  0  0  0  0  0
  1  2  2  0
  2  3  1  0
  3  4  1  0
  4  5  1  0
  5  6  2  0
  5  7  2  0
  5  8  1  0
  8  9  2  0
  9 10  1  0
 10 11  2  0
 11 12  1  0
 12 13  2  0
  2 14  1  0
 14 15  1  0
 15 16  1  0
 16 17  2  0
 16 18  1  0
 18 19  1  0
 19 20  2  0
 20 21  1  0
 21 22  2  0
 22 23  1  0
 23 24  1  0
 24 25  2  0
 24 26  2  0
 24 27  1  0
 27 28  1  0
 28 29  1  0
 29 30  1  0
 30 31  1  0
 31 32  1  0
 23 33  2  0
 13  8  1  0
 33 19  1  0
 32 27  1  0
  3 34  1  0
  3 35  1  0
  9 36  1  0
 10 37  1  0
 11 38  1  0
 12 39  1  0
 13 40  1  0
 15 41  1  0
 15 42  1  0
 20 43  1  0
 21 44  1  0
 22 45  1  0
 28 46  1  0
 28 47  1  0
 29 48  1  0
 29 49  1  0
 30 50  1  0
 30 51  1  0
 31 52  1  0
 31 53  1  0
 32 54  1  0
 32 55  1  0
 33 56  1  0
M  CHG  3   4  -1  14  -1  18  -1
M  END
>  <UniqueID>  (81) 
74

>  <SMILES>  (81) 
O=C(C[N-]S(=O)(=O)c1ccccc1)[N-]CC(=O)[N-]c1cccc(S(=O)(=O)N2CCCCC2)c1

>  <Energy>  (81) 
58.765278919843425

>  <Genealogy>  (81) 
O=C(C[N-]S(=O)(=O)c1ccccc1)[N-]CC(=O)[N-]c1cccc(S(=O)(=O)N2CCCCC2)c1 (protonated)
O=C(C[N-]S(=O)(=O)c1ccccc1)[N-]CC(=O)[N-]c1cccc(S(=O)(=O)N2CCCCC2)c1 (3D coordinates assigned)
O=C(C[N-]S(=O)(=O)c1ccccc1)[N-]CC(=O)[N-]c1cccc(S(=O)(=O)N2CCCCC2)c1 (nonaromatic ring conformer: 58.765278919843425 kcal/mol)

>  <smiles>  (81) 
O=C(CNS(=O)(=O)c1ccccc1)NCC(=O)Nc1cccc(S(=O)(=O)N2CCCCC2)c1

>  <score_type>  (81) 
oracle

>  <origin>  (81) 
adg

>  <m_score__min__energy>  (81) 
-15.890000000000001

>  <m_primary>  (81) 
energy

$$$$
81:0
     RDKit          3D

 54 57  0  0  0  0  0  0  0  0999 V2000
   60.2740   28.7010   44.7680 C   0  0  0  0  0  0  0  0  0  0  0  0
   59.8330   29.0380   45.9930 C   0  0  0  0  0  0  0  0  0  0  0  0
   60.6020   29.9070   46.7240 N   0  0  0  0  0  0  0  0  0  0  0  0
   60.3800   30.1410   48.0420 C   0  0  0  0  0  0  0  0  0  0  0  0
   59.3540   29.4820   48.7150 C   0  0  0  0  0  0  0  0  0  0  0  0
   59.1510   29.7050   50.1580 C   0  0  0  0  0  0  0  0  0  0  0  0
   59.2650   28.7370   50.9600 O   0  0  0  0  0  0  0  0  0  0  0  0
   58.8440   31.0190   50.6570 N   0  0  0  0  0  0  0  0  0  0  0  0
   58.0740   31.1270   51.9080 C   0  0  0  0  0  0  0  0  0  0  0  0
   57.8740   32.5870   52.3240 C   0  0  0  0  0  0  0  0  0  0  0  0
   59.1600   33.3680   52.0660 C   0  0  0  0  0  0  0  0  0  0  0  0
   59.4560   33.4630   50.5470 C   0  0  1  0  0  0  0  0  0  0  0  0
   60.9140   33.8050   50.2800 C   0  0  0  0  0  0  0  0  0  0  0  0
   61.6370   34.2370   51.2200 O   0  0  0  0  0  0  0  0  0  0  0  0
   61.4930   33.6750   48.9630 N   0  0  0  0  0  0  0  0  0  0  0  0
   60.7580   34.0910   47.7590 C   0  0  0  0  0  0  0  0  0  0  0  0
   61.1340   33.2260   46.5330 C   0  0  0  0  0  0  0  0  0  0  0  0
   62.2210   32.3440   46.7630 O   0  0  0  0  0  0  0  0  0  0  0  0
   63.2780   33.0340   47.3930 C   0  0  0  0  0  0  0  0  0  0  0  0
   62.9080   33.3080   48.8510 C   0  0  0  0  0  0  0  0  0  0  0  0
   59.0080   32.1830   49.7710 C   0  0  0  0  0  0  0  0  0  0  0  0
   58.5270   28.6170   47.9980 C   0  0  0  0  0  0  0  0  0  0  0  0
   58.6930   28.4290   46.6110 C   0  0  0  0  0  0  0  0  0  0  0  0
   57.7520   27.6810   45.9800 C   0  0  0  0  0  0  0  0  0  0  0  0
   57.2170   26.3780   46.4190 C   0  0  0  0  0  0  0  0  0  0  0  0
   57.9650   25.4360   47.0180 N   0  0  0  0  0  0  0  0  0  0  0  0
   57.0670   24.4830   47.3460 C   0  0  0  0  0  0  0  0  0  0  0  0
   57.3960   23.4100   47.9170 O   0  0  0  0  0  0  0  0  0  0  0  0
   55.7880   24.7750   47.0270 N   0  0  0  0  0  0  0  0  0  0  0  0
   55.8970   25.9830   46.4510 C   0  0  0  0  0  0  0  0  0  0  0  0
   54.8090   26.7160   45.9940 O   0  0  0  0  0  0  0  0  0  0  0  0
   59.6906   28.0070   44.1451 H   0  0  0  0  0  0  0  0  0  0  0  0
   61.2181   29.1193   44.3890 H   0  0  0  0  0  0  0  0  0  0  0  0
   61.4160   30.3950   46.2830 H   0  0  0  0  0  0  0  0  0  0  0  0
   61.0156   30.8571   48.5834 H   0  0  0  0  0  0  0  0  0  0  0  0
   57.0890   30.6595   51.7621 H   0  0  0  0  0  0  0  0  0  0  0  0
   58.6376   30.6173   52.7034 H   0  0  0  0  0  0  0  0  0  0  0  0
   57.0536   33.0267   51.7377 H   0  0  0  0  0  0  0  0  0  0  0  0
   57.6242   32.6334   53.3943 H   0  0  0  0  0  0  0  0  0  0  0  0
   59.0530   34.3831   52.4760 H   0  0  0  0  0  0  0  0  0  0  0  0
   59.9939   32.8419   52.5537 H   0  0  0  0  0  0  0  0  0  0  0  0
   58.8476   34.2927   50.1579 H   0  0  0  0  0  0  0  0  0  0  0  0
   59.6789   33.9920   47.9479 H   0  0  0  0  0  0  0  0  0  0  0  0
   61.0248   35.1349   47.5375 H   0  0  0  0  0  0  0  0  0  0  0  0
   60.2560   32.6270   46.2495 H   0  0  0  0  0  0  0  0  0  0  0  0
   61.4476   33.9185   45.7380 H   0  0  0  0  0  0  0  0  0  0  0  0
   64.1906   32.4211   47.3549 H   0  0  0  0  0  0  0  0  0  0  0  0
   63.4556   33.9873   46.8736 H   0  0  0  0  0  0  0  0  0  0  0  0
   63.0953   32.4032   49.4479 H   0  0  0  0  0  0  0  0  0  0  0  0
   63.5216   34.1420   49.2224 H   0  0  0  0  0  0  0  0  0  0  0  0
   58.0475   32.3881   49.2756 H   0  0  0  0  0  0  0  0  0  0  0  0
   59.7942   31.9408   49.0407 H   0  0  0  0  0  0  0  0  0  0  0  0
   57.7304   28.0714   48.5250 H   0  0  0  0  0  0  0  0  0  0  0  0
   57.3457   28.0894   45.0429 H   0  0  0  0  0  0  0  0  0  0  0  0
  1  2  2  0
  2  3  1  0
  3  4  2  0
  4  5  1  0
  5  6  1  0
  6  7  2  0
  6  8  1  0
  8  9  1  0
  9 10  1  0
 10 11  1  0
 11 12  1  0
 12 13  1  0
 13 14  2  0
 13 15  1  0
 15 16  1  0
 16 17  1  0
 17 18  1  0
 18 19  1  0
 19 20  1  0
 12 21  1  0
  5 22  2  0
 22 23  1  0
 23 24  2  3
 24 25  1  0
 25 26  1  0
 26 27  1  0
 27 28  2  0
 27 29  1  0
 29 30  1  0
 30 31  1  0
 23  2  1  0
 30 25  2  0
 21  8  1  0
 20 15  1  0
  1 32  1  0
  1 33  1  0
  3 34  1  0
  4 35  1  0
  9 36  1  0
  9 37  1  0
 10 38  1  0
 10 39  1  0
 11 40  1  0
 11 41  1  0
 12 42  1  6
 16 43  1  0
 16 44  1  0
 17 45  1  0
 17 46  1  0
 19 47  1  0
 19 48  1  0
 20 49  1  0
 20 50  1  0
 21 51  1  0
 21 52  1  0
 22 53  1  0
 24 54  1  0
M  CHG  4   3   1  26  -1  29  -1  31  -1
M  END
>  <UniqueID>  (82) 
75

>  <SMILES>  (82) 
C=c1[nH+]cc(C(=O)N2CCC[C@@H](C(=O)N3CCOCC3)C2)cc1=Cc1[n-]c(=O)[n-]c1[O-]

>  <Energy>  (82) 
125.74753576870631

>  <Genealogy>  (82) 
C=c1[nH+]cc(C(=O)N2CCCC(C(=O)N3CCOCC3)C2)cc1=Cc1[n-]c(=O)[n-]c1[O-] (protonated)
C=c1[nH+]cc(C(=O)N2CCC[C@@H](C(=O)N3CCOCC3)C2)cc1=Cc1[n-]c(=O)[n-]c1[O-] (chirality)
C=c1[nH+]cc(C(=O)N2CCC[C@@H](C(=O)N3CCOCC3)C2)cc1=Cc1[n-]c(=O)[n-]c1[O-] (3D coordinates assigned)
C=c1[nH+]cc(C(=O)N2CCC[C@@H](C(=O)N3CCOCC3)C2)cc1=Cc1[n-]c(=O)[n-]c1[O-] (nonaromatic ring conformer: 125.74753576870631 kcal/mol)

>  <smiles>  (82) 
C=c1ncc(C(=O)N2CCCC(C(=O)N3CCOCC3)C2)cc1=Cc1[nH]c(=O)[nH]c1O

>  <score_type>  (82) 
oracle

>  <origin>  (82) 
adg

>  <m_score__min__energy>  (82) 
-17.460000000000001

>  <m_primary>  (82) 
energy

$$$$
82:0
     RDKit          3D

 46 48  0  0  0  0  0  0  0  0999 V2000
   57.6580   31.9580   42.3270 C   0  0  0  0  0  0  0  0  0  0  0  0
   56.6880   30.9930   42.7110 O   0  0  0  0  0  0  0  0  0  0  0  0
   56.6290   30.4600   44.0030 C   0  0  0  0  0  0  0  0  0  0  0  0
   55.5150   30.1550   44.5130 O   0  0  0  0  0  0  0  0  0  0  0  0
   57.8750   30.2690   44.7750 C   0  0  0  0  0  0  0  0  0  0  0  0
   58.6590   29.1310   44.5110 C   0  0  0  0  0  0  0  0  0  0  0  0
   59.8960   28.9610   45.1370 C   0  0  0  0  0  0  0  0  0  0  0  0
   60.3670   29.9220   46.0310 C   0  0  0  0  0  0  0  0  0  0  0  0
   59.5890   31.0440   46.3260 C   0  0  0  0  0  0  0  0  0  0  0  0
   58.3310   31.2140   45.7350 C   0  0  0  0  0  0  0  0  0  0  0  0
   57.5290   32.3260   46.1610 N   0  0  0  0  0  0  0  0  0  0  0  0
   57.6940   33.6590   45.6660 C   0  0  0  0  0  0  0  0  0  0  0  0
   57.0260   34.0340   44.6660 O   0  0  0  0  0  0  0  0  0  0  0  0
   58.6330   34.5410   46.2990 N   0  0  0  0  0  0  0  0  0  0  0  0
   59.7790   34.2140   46.8180 C   0  0  0  0  0  0  0  0  0  0  0  0
   59.9240   34.2460   48.2070 C   0  0  0  0  0  0  0  0  0  0  0  0
   61.1790   33.9970   48.7880 C   0  0  0  0  0  0  0  0  0  0  0  0
   61.3870   34.0760   50.1770 O   0  0  0  0  0  0  0  0  0  0  0  0
   60.8330   33.1850   51.1470 C   0  0  0  0  0  0  0  0  0  0  0  0
   60.4030   31.8930   50.5040 C   0  0  0  0  0  0  0  0  0  0  0  0
   59.0380   31.6280   50.3080 C   0  0  0  0  0  0  0  0  0  0  0  0
   58.6300   30.4320   49.7080 C   0  0  0  0  0  0  0  0  0  0  0  0
   59.5820   29.4950   49.2940 C   0  0  0  0  0  0  0  0  0  0  0  0
   59.1870   28.3440   48.7000 F   0  0  0  0  0  0  0  0  0  0  0  0
   60.9430   29.7490   49.4890 C   0  0  0  0  0  0  0  0  0  0  0  0
   61.3520   30.9390   50.1010 C   0  0  0  0  0  0  0  0  0  0  0  0
   62.2600   33.6730   47.9530 C   0  0  0  0  0  0  0  0  0  0  0  0
   63.5630   33.4030   48.5040 C   0  0  0  0  0  0  0  0  0  0  0  0
   64.6100   33.1850   48.9470 N   0  0  0  0  0  0  0  0  0  0  0  0
   62.0700   33.6310   46.5660 C   0  0  0  0  0  0  0  0  0  0  0  0
   60.8520   33.9120   46.0340 N   0  0  0  0  0  0  0  0  0  0  0  0
   58.1069   32.4046   43.2264 H   0  0  0  0  0  0  0  0  0  0  0  0
   58.4424   31.4714   41.7287 H   0  0  0  0  0  0  0  0  0  0  0  0
   57.1755   32.7449   41.7287 H   0  0  0  0  0  0  0  0  0  0  0  0
   58.2949   28.3691   43.8060 H   0  0  0  0  0  0  0  0  0  0  0  0
   60.5002   28.0668   44.9242 H   0  0  0  0  0  0  0  0  0  0  0  0
   61.3520   29.7964   46.5043 H   0  0  0  0  0  0  0  0  0  0  0  0
   59.9679   31.8007   47.0288 H   0  0  0  0  0  0  0  0  0  0  0  0
   59.0560   34.4661   48.8458 H   0  0  0  0  0  0  0  0  0  0  0  0
   61.5915   32.9708   51.9143 H   0  0  0  0  0  0  0  0  0  0  0  0
   59.9522   33.6625   51.6012 H   0  0  0  0  0  0  0  0  0  0  0  0
   58.2860   32.3644   50.6278 H   0  0  0  0  0  0  0  0  0  0  0  0
   57.5590   30.2283   49.5617 H   0  0  0  0  0  0  0  0  0  0  0  0
   61.6923   29.0133   49.1613 H   0  0  0  0  0  0  0  0  0  0  0  0
   62.4227   31.1285   50.2675 H   0  0  0  0  0  0  0  0  0  0  0  0
   62.9097   33.3696   45.9053 H   0  0  0  0  0  0  0  0  0  0  0  0
  1  2  1  0
  2  3  1  0
  3  4  2  0
  3  5  1  0
  5  6  2  0
  6  7  1  0
  7  8  2  0
  8  9  1  0
  9 10  2  0
 10 11  1  0
 11 12  1  0
 12 13  2  0
 12 14  1  0
 14 15  2  3
 15 16  1  0
 16 17  2  0
 17 18  1  0
 18 19  1  0
 19 20  1  0
 20 21  2  0
 21 22  1  0
 22 23  2  0
 23 24  1  0
 23 25  1  0
 25 26  2  0
 17 27  1  0
 27 28  1  0
 28 29  3  0
 27 30  2  0
 30 31  1  0
 10  5  1  0
 31 15  1  0
 26 20  1  0
  1 32  1  0
  1 33  1  0
  1 34  1  0
  6 35  1  0
  7 36  1  0
  8 37  1  0
  9 38  1  0
 16 39  1  0
 19 40  1  0
 19 41  1  0
 21 42  1  0
 22 43  1  0
 25 44  1  0
 26 45  1  0
 30 46  1  0
M  CHG  2  11  -1  31  -1
M  END
>  <UniqueID>  (83) 
76

>  <SMILES>  (83) 
COC(=O)c1ccccc1[N-]C(=O)N=c1cc(OCc2ccc(F)cc2)c(C#N)c[n-]1

>  <Energy>  (83) 
55.20838510516916

>  <Genealogy>  (83) 
COC(=O)c1ccccc1[N-]C(=O)N=c1cc(OCc2ccc(F)cc2)c(C#N)c[n-]1 (protonated)
COC(=O)c1ccccc1[N-]C(=O)N=c1cc(OCc2ccc(F)cc2)c(C#N)c[n-]1 (3D coordinates assigned)
COC(=O)c1ccccc1[N-]C(=O)N=c1cc(OCc2ccc(F)cc2)c(C#N)c[n-]1 (optimized conformer: 55.20838510516916 kcal/mol)

>  <smiles>  (83) 
COC(=O)c1ccccc1NC(=O)N=c1cc(OCc2ccc(F)cc2)c(C#N)c[nH]1

>  <score_type>  (83) 
oracle

>  <origin>  (83) 
adg

>  <m_score__min__energy>  (83) 
-10.369999999999999

>  <m_primary>  (83) 
energy

$$$$
83:0
     RDKit          3D

 58 61  0  0  0  0  0  0  0  0999 V2000
   56.5500   25.6250   45.9940 N   0  0  0  0  0  0  0  0  0  0  0  0
   57.0950   25.4080   44.8310 C   0  0  0  0  0  0  0  0  0  0  0  0
   57.4550   26.5100   43.9780 N   0  0  0  0  0  0  0  0  0  0  0  0
   57.8060   27.8180   44.4590 C   0  0  0  0  0  0  0  0  0  0  0  0
   59.1360   28.2460   44.3670 C   0  0  0  0  0  0  0  0  0  0  0  0
   59.5040   29.5160   44.8170 C   0  0  0  0  0  0  0  0  0  0  0  0
   58.5510   30.3740   45.3900 C   0  0  0  0  0  0  0  0  0  0  0  0
   58.9190   31.7040   45.8060 N   0  0  0  0  0  0  0  0  0  0  0  0
   58.7100   32.8490   45.1220 C   0  0  0  0  0  0  0  0  0  0  0  0
   59.2940   33.9090   45.7860 C   0  0  0  0  0  0  0  0  0  0  0  0
   59.9020   33.3760   46.9070 C   0  0  0  0  0  0  0  0  0  0  0  0
   60.7500   34.1240   47.8540 C   0  0  0  0  0  0  0  0  0  0  0  0
   60.1970   34.7430   48.7990 O   0  0  0  0  0  0  0  0  0  0  0  0
   62.1750   34.2260   47.7040 N   0  0  0  0  0  0  0  0  0  0  0  0
   63.0360   33.3620   46.8990 C   0  0  0  0  0  0  0  0  0  0  0  0
   63.0470   31.9230   47.4440 C   0  0  0  0  0  0  0  0  0  0  0  0
   63.7080   31.8490   48.7670 N   0  0  0  0  0  0  0  0  0  0  0  0
   64.5540   33.0430   49.0240 C   0  0  0  0  0  0  0  0  0  0  0  0
   64.6450   33.3690   50.5230 C   0  0  0  0  0  0  0  0  0  0  0  0
   63.3850   33.6570   51.1140 O   0  0  0  0  0  0  0  0  0  0  0  0
   62.3040   32.9450   50.5240 C   0  0  0  0  0  0  0  0  0  0  0  0
   62.7180   31.6240   49.8490 C   0  0  0  0  0  0  0  0  0  0  0  0
   59.6280   32.0230   46.9090 C   0  0  0  0  0  0  0  0  0  0  0  0
   57.2230   29.9290   45.5150 C   0  0  0  0  0  0  0  0  0  0  0  0
   56.8510   28.6590   45.0620 C   0  0  0  0  0  0  0  0  0  0  0  0
   55.5380   28.2370   45.2310 O   0  0  0  0  0  0  0  0  0  0  0  0
   57.3210   24.0210   44.3480 C   0  0  0  0  0  0  0  0  0  0  0  0
   58.3620   23.2280   44.8670 C   0  0  0  0  0  0  0  0  0  0  0  0
   58.5550   21.9230   44.4030 C   0  0  0  0  0  0  0  0  0  0  0  0
   57.7110   21.3950   43.4250 C   0  0  0  0  0  0  0  0  0  0  0  0
   56.6690   22.1700   42.9090 C   0  0  0  0  0  0  0  0  0  0  0  0
   56.4710   23.4750   43.3700 C   0  0  0  0  0  0  0  0  0  0  0  0
   55.9370   26.4520   46.1670 H   0  0  0  0  0  0  0  0  0  0  0  0
   56.7000   24.9710   46.7940 H   0  0  0  0  0  0  0  0  0  0  0  0
   57.3890   26.3690   42.9440 H   0  0  0  0  0  0  0  0  0  0  0  0
   59.8964   27.5773   43.9373 H   0  0  0  0  0  0  0  0  0  0  0  0
   60.5487   29.8469   44.7219 H   0  0  0  0  0  0  0  0  0  0  0  0
   58.1559   32.9260   44.1749 H   0  0  0  0  0  0  0  0  0  0  0  0
   59.2786   34.9665   45.4834 H   0  0  0  0  0  0  0  0  0  0  0  0
   62.6652   33.3505   45.8635 H   0  0  0  0  0  0  0  0  0  0  0  0
   64.0617   33.7575   46.9396 H   0  0  0  0  0  0  0  0  0  0  0  0
   62.0098   31.5701   47.5424 H   0  0  0  0  0  0  0  0  0  0  0  0
   63.6103   31.2919   46.7409 H   0  0  0  0  0  0  0  0  0  0  0  0
   65.5666   32.8507   48.6398 H   0  0  0  0  0  0  0  0  0  0  0  0
   64.0935   33.9029   48.5155 H   0  0  0  0  0  0  0  0  0  0  0  0
   65.0845   32.5045   51.0421 H   0  0  0  0  0  0  0  0  0  0  0  0
   65.2652   34.2720   50.6226 H   0  0  0  0  0  0  0  0  0  0  0  0
   61.5701   32.7162   51.3108 H   0  0  0  0  0  0  0  0  0  0  0  0
   61.8913   33.5901   49.7344 H   0  0  0  0  0  0  0  0  0  0  0  0
   63.1614   30.9603   50.6059 H   0  0  0  0  0  0  0  0  0  0  0  0
   61.8204   31.1694   49.4043 H   0  0  0  0  0  0  0  0  0  0  0  0
   59.9398   31.3137   47.6899 H   0  0  0  0  0  0  0  0  0  0  0  0
   56.4693   30.5861   45.9735 H   0  0  0  0  0  0  0  0  0  0  0  0
   59.0272   23.6371   45.6417 H   0  0  0  0  0  0  0  0  0  0  0  0
   59.3738   21.3114   44.8098 H   0  0  0  0  0  0  0  0  0  0  0  0
   57.8660   20.3688   43.0604 H   0  0  0  0  0  0  0  0  0  0  0  0
   56.0035   21.7527   42.1389 H   0  0  0  0  0  0  0  0  0  0  0  0
   55.6451   24.0783   42.9651 H   0  0  0  0  0  0  0  0  0  0  0  0
  1  2  2  0
  2  3  1  0
  3  4  1  0
  4  5  2  0
  5  6  1  0
  6  7  2  0
  7  8  1  0
  8  9  1  0
  9 10  2  0
 10 11  1  0
 11 12  1  0
 12 13  2  0
 12 14  1  0
 14 15  1  0
 15 16  1  0
 16 17  1  0
 17 18  1  0
 18 19  1  0
 19 20  1  0
 20 21  1  0
 21 22  1  0
 11 23  2  0
  7 24  1  0
 24 25  2  0
 25 26  1  0
  2 27  1  0
 27 28  2  0
 28 29  1  0
 29 30  2  0
 30 31  1  0
 31 32  2  0
 25  4  1  0
 32 27  1  0
 23  8  1  0
 22 17  1  0
  1 33  1  0
  1 34  1  0
  3 35  1  0
  5 36  1  0
  6 37  1  0
  9 38  1  0
 10 39  1  0
 15 40  1  0
 15 41  1  0
 16 42  1  0
 16 43  1  0
 18 44  1  0
 18 45  1  0
 19 46  1  0
 19 47  1  0
 21 48  1  0
 21 49  1  0
 22 50  1  0
 22 51  1  0
 23 52  1  0
 24 53  1  0
 28 54  1  0
 29 55  1  0
 30 56  1  0
 31 57  1  0
 32 58  1  0
M  CHG  3   1   1  14  -1  26  -1
M  END
>  <UniqueID>  (84) 
77

>  <SMILES>  (84) 
[NH2+]=C(Nc1ccc(-n2ccc(C(=O)[N-]CCN3CCOCC3)c2)cc1[O-])c1ccccc1

>  <Energy>  (84) 
114.68149086083218

>  <Genealogy>  (84) 
[NH2+]=C(Nc1ccc(-n2ccc(C(=O)[N-]CCN3CCOCC3)c2)cc1[O-])c1ccccc1 (protonated)
[NH2+]=C(Nc1ccc(-n2ccc(C(=O)[N-]CCN3CCOCC3)c2)cc1[O-])c1ccccc1 (3D coordinates assigned)
[NH2+]=C(Nc1ccc(-n2ccc(C(=O)[N-]CCN3CCOCC3)c2)cc1[O-])c1ccccc1 (nonaromatic ring conformer: 114.68149086083218 kcal/mol)

>  <smiles>  (84) 
N=C(Nc1ccc(-n2ccc(C(=O)NCCN3CCOCC3)c2)cc1O)c1ccccc1

>  <score_type>  (84) 
oracle

>  <origin>  (84) 
adg

>  <m_score__min__energy>  (84) 
-10.99

>  <m_primary>  (84) 
energy

$$$$
84:0
     RDKit          3D

 56 60  0  0  0  0  0  0  0  0999 V2000
   54.9100   25.9270   46.6800 H   0  0  0  0  0  0  0  0  0  0  0  0
   55.1560   26.6650   46.0310 O   0  0  0  0  0  0  0  0  0  0  0  0
   56.4490   27.1800   45.9500 C   0  0  0  0  0  0  0  0  0  0  0  0
   56.6590   28.3910   45.2830 C   0  0  0  0  0  0  0  0  0  0  0  0
   55.8054   28.9250   44.8401 H   0  0  0  0  0  0  0  0  0  0  0  0
   57.9510   28.9310   45.1740 C   0  0  0  0  0  0  0  0  0  0  0  0
   58.1720   30.2120   44.4130 C   0  0  0  0  0  0  0  0  0  0  0  0
   58.3612   29.9671   43.3574 H   0  0  0  0  0  0  0  0  0  0  0  0
   59.0302   30.7277   44.8686 H   0  0  0  0  0  0  0  0  0  0  0  0
   56.9870   31.1400   44.4890 C   0  0  0  0  0  0  0  0  0  0  0  0
   55.8280   30.7060   44.2600 O   0  0  0  0  0  0  0  0  0  0  0  0
   57.1930   32.5550   44.5980 N   0  0  0  0  0  0  0  0  0  0  0  0
   58.0600   33.1590   45.3580 C   0  0  0  0  0  0  0  0  0  0  0  0
   58.6780   34.2720   44.8800 N   0  0  0  0  0  0  0  0  0  0  0  0
   59.6070   34.9520   45.6010 C   0  0  0  0  0  0  0  0  0  0  0  0
   60.0876   35.8445   45.1739 H   0  0  0  0  0  0  0  0  0  0  0  0
   59.9530   34.5210   46.8820 C   0  0  0  0  0  0  0  0  0  0  0  0
   60.7170   35.0617   47.4599 H   0  0  0  0  0  0  0  0  0  0  0  0
   59.3210   33.3940   47.4290 C   0  0  0  0  0  0  0  0  0  0  0  0
   59.6120   32.9760   48.7810 N   0  0  0  0  0  0  0  0  0  0  0  0
   59.8740   31.5510   49.0700 C   0  0  0  0  0  0  0  0  0  0  0  0
   60.9560   31.3902   49.1859 H   0  0  0  0  0  0  0  0  0  0  0  0
   59.5054   30.9279   48.2418 H   0  0  0  0  0  0  0  0  0  0  0  0
   59.1760   31.1810   50.3300 C   0  0  0  0  0  0  0  0  0  0  0  0
   58.4170   29.7390   50.7400 S   0  0  0  0  0  0  0  0  0  0  0  0
   58.0040   30.3300   52.2790 C   0  0  0  0  0  0  0  0  0  0  0  0
   57.3560   29.6750   53.1960 N   0  0  0  0  0  0  0  0  0  0  0  0
   56.1150   30.0840   53.7860 C   0  0  0  0  0  0  0  0  0  0  0  0
   56.1260   30.5100   54.9710 O   0  0  0  0  0  0  0  0  0  0  0  0
   54.8480   30.1030   53.0080 C   0  0  0  0  0  0  0  0  0  0  0  0
   54.6640   31.0460   51.9800 C   0  0  0  0  0  0  0  0  0  0  0  0
   55.4472   31.7909   51.7758 H   0  0  0  0  0  0  0  0  0  0  0  0
   53.4940   31.0430   51.2170 C   0  0  0  0  0  0  0  0  0  0  0  0
   53.3640   31.7791   50.4100 H   0  0  0  0  0  0  0  0  0  0  0  0
   52.4890   30.1090   51.4750 C   0  0  0  0  0  0  0  0  0  0  0  0
   51.5670   30.1128   50.8751 H   0  0  0  0  0  0  0  0  0  0  0  0
   52.6550   29.1690   52.4960 C   0  0  0  0  0  0  0  0  0  0  0  0
   51.3850   28.0070   52.8310 Cl  0  0  0  0  0  0  0  0  0  0  0  0
   53.8330   29.1550   53.2490 C   0  0  0  0  0  0  0  0  0  0  0  0
   53.9688   28.3982   54.0357 H   0  0  0  0  0  0  0  0  0  0  0  0
   58.4510   31.5890   52.4850 N   0  0  0  0  0  0  0  0  0  0  0  0
   59.0890   32.0610   51.3840 C   0  0  0  0  0  0  0  0  0  0  0  0
   59.7220   33.4090   51.2860 C   0  0  0  0  0  0  0  0  0  0  0  0
   60.7943   33.3218   51.5153 H   0  0  0  0  0  0  0  0  0  0  0  0
   59.2314   34.0828   52.0039 H   0  0  0  0  0  0  0  0  0  0  0  0
   59.5530   33.9910   49.8630 C   0  0  0  0  0  0  0  0  0  0  0  0
   60.3549   34.7244   49.6925 H   0  0  0  0  0  0  0  0  0  0  0  0
   58.5498   34.4402   49.8216 H   0  0  0  0  0  0  0  0  0  0  0  0
   58.3580   32.7170   46.6630 C   0  0  0  0  0  0  0  0  0  0  0  0
   57.8370   31.8430   47.0808 H   0  0  0  0  0  0  0  0  0  0  0  0
   59.0280   28.2630   45.7760 C   0  0  0  0  0  0  0  0  0  0  0  0
   60.0382   28.6953   45.7254 H   0  0  0  0  0  0  0  0  0  0  0  0
   58.8220   27.0500   46.4400 C   0  0  0  0  0  0  0  0  0  0  0  0
   59.6721   26.5257   46.9008 H   0  0  0  0  0  0  0  0  0  0  0  0
   57.5370   26.5010   46.5200 C   0  0  0  0  0  0  0  0  0  0  0  0
   57.3500   25.2820   47.1610 O   0  0  0  0  0  0  0  0  0  0  0  0
  1  2  1  0
  2  3  1  0
  3  4  2  0
  4  5  1  0
  4  6  1  0
  6  7  1  0
  7  8  1  0
  7  9  1  0
  7 10  1  0
 10 11  2  0
 10 12  1  0
 12 13  2  3
 13 14  1  0
 14 15  1  0
 15 16  1  0
 15 17  2  0
 17 18  1  0
 17 19  1  0
 19 20  1  0
 20 21  1  0
 21 22  1  0
 21 23  1  0
 21 24  1  0
 24 25  1  0
 25 26  1  0
 26 27  2  0
 27 28  1  0
 28 29  2  0
 28 30  1  0
 30 31  2  0
 31 32  1  0
 31 33  1  0
 33 34  1  0
 33 35  2  0
 35 36  1  0
 35 37  1  0
 37 38  1  0
 37 39  2  0
 39 40  1  0
 26 41  1  0
 41 42  1  0
 42 43  1  0
 43 44  1  0
 43 45  1  0
 43 46  1  0
 46 47  1  0
 46 48  1  0
 19 49  2  0
 49 50  1  0
  6 51  2  0
 51 52  1  0
 51 53  1  0
 53 54  1  0
 53 55  2  0
 55 56  1  0
 55  3  1  0
 49 13  1  0
 46 20  1  0
 42 24  2  0
 39 30  1  0
M  CHG  3  14  -1  41  -1  56  -1
M  END
>  <UniqueID>  (85) 
78

>  <SMILES>  (85) 
O=C(Cc1ccc([O-])c(O)c1)N=c1cc(N2CCc3[n-]/c(=N/C(=O)c4cccc(Cl)c4)sc3C2)cc[n-]1

>  <Energy>  (85) 
115.93003514772337

>  <Genealogy>  (85) 
O=C(Cc1ccc([O-])c(O)c1)N=c1cc(N2CCc3[n-]c(=NC(=O)c4cccc(Cl)c4)sc3C2)cc[n-]1 (protonated)
O=C(Cc1ccc([O-])c(O)c1)N=c1cc(N2CCc3[n-]/c(=N/C(=O)c4cccc(Cl)c4)sc3C2)cc[n-]1 (cis-trans isomerization)
O=C(Cc1ccc([O-])c(O)c1)N=c1cc(N2CCc3[n-]/c(=N/C(=O)c4cccc(Cl)c4)sc3C2)cc[n-]1 (3D coordinates assigned)
O=C(Cc1ccc([O-])c(O)c1)N=c1cc(N2CCc3[n-]/c(=N/C(=O)c4cccc(Cl)c4)sc3C2)cc[n-]1 (nonaromatic ring conformer: 115.93003514772337 kcal/mol)

>  <smiles>  (85) 
O=C(Cc1ccc(O)c(O)c1)N=c1cc(N2CCc3[nH]c(=NC(=O)c4cccc(Cl)c4)sc3C2)cc[nH]1

>  <score_type>  (85) 
oracle

>  <origin>  (85) 
adg

>  <m_score__min__energy>  (85) 
-16.84

>  <m_primary>  (85) 
energy

$$$$
85:0
     RDKit          3D

 48 51  0  0  0  0  0  0  0  0999 V2000
   54.4820   26.1700   45.9790 N   0  0  0  0  0  0  0  0  0  0  0  0
   55.8620   25.1320   46.0320 S   0  0  0  0  0  0  0  0  0  0  0  0
   55.8330   24.3220   47.2970 O   0  0  0  0  0  0  0  0  0  0  0  0
   55.8270   24.1930   44.8580 O   0  0  0  0  0  0  0  0  0  0  0  0
   57.3300   26.1020   45.9750 C   0  0  0  0  0  0  0  0  0  0  0  0
   58.5850   25.4820   46.0270 C   0  0  0  0  0  0  0  0  0  0  0  0
   59.7490   26.2530   45.9910 C   0  0  0  0  0  0  0  0  0  0  0  0
   59.6680   27.6450   45.9150 C   0  0  0  0  0  0  0  0  0  0  0  0
   58.4150   28.2870   45.8820 C   0  0  0  0  0  0  0  0  0  0  0  0
   58.3050   29.7660   45.7960 C   0  0  0  0  0  0  0  0  0  0  0  0
   59.0640   30.6120   46.6260 C   0  0  0  0  0  0  0  0  0  0  0  0
   58.9320   32.0100   46.5170 C   0  0  0  0  0  0  0  0  0  0  0  0
   59.6990   32.9060   47.3470 N   0  0  0  0  0  0  0  0  0  0  0  0
   60.9880   32.7680   47.7280 C   0  0  0  0  0  0  0  0  0  0  0  0
   61.3220   33.8460   48.5230 C   0  0  0  0  0  0  0  0  0  0  0  0
   62.6130   34.1390   49.1720 C   0  0  0  0  0  0  0  0  0  0  0  0
   63.6540   34.2000   48.4630 O   0  0  0  0  0  0  0  0  0  0  0  0
   62.6990   34.3550   50.5900 N   0  0  0  0  0  0  0  0  0  0  0  0
   63.9730   34.5600   51.2720 C   0  0  0  0  0  0  0  0  0  0  0  0
   64.8530   33.3540   51.0970 C   0  0  0  0  0  0  0  0  0  0  0  0
   66.1290   33.5270   50.6530 N   0  0  0  0  0  0  0  0  0  0  0  0
   66.9840   32.4830   50.4880 C   0  0  0  0  0  0  0  0  0  0  0  0
   66.5640   31.1830   50.7830 C   0  0  0  0  0  0  0  0  0  0  0  0
   65.2640   30.9750   51.2440 C   0  0  0  0  0  0  0  0  0  0  0  0
   64.3980   32.0600   51.4050 C   0  0  0  0  0  0  0  0  0  0  0  0
   63.1370   31.8480   51.8570 F   0  0  0  0  0  0  0  0  0  0  0  0
   60.1740   34.6130   48.5900 C   0  0  0  0  0  0  0  0  0  0  0  0
   59.2030   34.0200   47.8710 N   0  0  0  0  0  0  0  0  0  0  0  0
   58.0360   32.5280   45.5680 C   0  0  0  0  0  0  0  0  0  0  0  0
   57.2890   31.6600   44.7730 C   0  0  0  0  0  0  0  0  0  0  0  0
   57.4360   30.3170   44.9040 N   0  0  0  0  0  0  0  0  0  0  0  0
   57.2480   27.5000   45.9060 C   0  0  0  0  0  0  0  0  0  0  0  0
   54.7680   27.0800   46.4070 H   0  0  0  0  0  0  0  0  0  0  0  0
   58.6539   24.3863   46.0963 H   0  0  0  0  0  0  0  0  0  0  0  0
   60.7329   25.7621   46.0226 H   0  0  0  0  0  0  0  0  0  0  0  0
   60.5897   28.2445   45.8807 H   0  0  0  0  0  0  0  0  0  0  0  0
   59.7607   30.1812   47.3602 H   0  0  0  0  0  0  0  0  0  0  0  0
   61.6564   31.9391   47.4521 H   0  0  0  0  0  0  0  0  0  0  0  0
   61.8280   34.3810   51.1660 H   0  0  0  0  0  0  0  0  0  0  0  0
   64.4753   35.4416   50.8471 H   0  0  0  0  0  0  0  0  0  0  0  0
   63.7859   34.7163   52.3446 H   0  0  0  0  0  0  0  0  0  0  0  0
   68.0060   32.6614   50.1224 H   0  0  0  0  0  0  0  0  0  0  0  0
   67.2508   30.3336   50.6531 H   0  0  0  0  0  0  0  0  0  0  0  0
   64.9205   29.9572   51.4808 H   0  0  0  0  0  0  0  0  0  0  0  0
   60.0705   35.5581   49.1432 H   0  0  0  0  0  0  0  0  0  0  0  0
   57.9238   33.6161   45.4522 H   0  0  0  0  0  0  0  0  0  0  0  0
   56.5783   32.0647   44.0373 H   0  0  0  0  0  0  0  0  0  0  0  0
   56.2621   27.9866   45.8703 H   0  0  0  0  0  0  0  0  0  0  0  0
  1  2  1  0
  2  3  2  0
  2  4  2  0
  2  5  1  0
  5  6  2  0
  6  7  1  0
  7  8  2  0
  8  9  1  0
  9 10  1  0
 10 11  2  0
 11 12  1  0
 12 13  1  0
 13 14  1  0
 14 15  2  0
 15 16  1  0
 16 17  2  0
 16 18  1  0
 18 19  1  0
 19 20  1  0
 20 21  2  0
 21 22  1  0
 22 23  2  0
 23 24  1  0
 24 25  2  0
 25 26  1  0
 15 27  1  0
 27 28  2  0
 12 29  2  0
 29 30  1  0
 30 31  2  0
  9 32  2  0
 32  5  1  0
 31 10  1  0
 28 13  1  0
 25 20  1  0
  1 33  1  0
  6 34  1  0
  7 35  1  0
  8 36  1  0
 11 37  1  0
 14 38  1  0
 18 39  1  0
 19 40  1  0
 19 41  1  0
 22 42  1  0
 23 43  1  0
 24 44  1  0
 27 45  1  0
 29 46  1  0
 30 47  1  0
 32 48  1  0
M  CHG  1   1  -1
M  END
>  <UniqueID>  (86) 
79

>  <SMILES>  (86) 
[NH-]S(=O)(=O)c1cccc(-c2cc(-n3cc(C(=O)NCc4ncccc4F)cn3)ccn2)c1

>  <Energy>  (86) 
88.3169901972791

>  <Genealogy>  (86) 
[NH-]S(=O)(=O)c1cccc(-c2cc(-n3cc(C(=O)NCc4ncccc4F)cn3)ccn2)c1 (protonated)
[NH-]S(=O)(=O)c1cccc(-c2cc(-n3cc(C(=O)NCc4ncccc4F)cn3)ccn2)c1 (3D coordinates assigned)
[NH-]S(=O)(=O)c1cccc(-c2cc(-n3cc(C(=O)NCc4ncccc4F)cn3)ccn2)c1 (optimized conformer: 88.3169901972791 kcal/mol)

>  <smiles>  (86) 
NS(=O)(=O)c1cccc(-c2cc(-n3cc(C(=O)NCc4ncccc4F)cn3)ccn2)c1

>  <score_type>  (86) 
oracle

>  <origin>  (86) 
adg

>  <m_score__min__energy>  (86) 
-11.83

>  <m_primary>  (86) 
energy

$$$$
86:0
     RDKit          3D

 63 67  0  0  0  0  0  0  0  0999 V2000
   58.8900   34.2300   52.1520 C   0  0  0  0  0  0  0  0  0  0  0  0
   59.2390   33.7680   50.8520 O   0  0  0  0  0  0  0  0  0  0  0  0
   59.6330   32.4540   50.5560 C   0  0  0  0  0  0  0  0  0  0  0  0
   58.9140   31.3370   51.0170 C   0  0  0  0  0  0  0  0  0  0  0  0
   59.3360   30.0450   50.7010 C   0  0  0  0  0  0  0  0  0  0  0  0
   60.4930   29.8380   49.9310 C   0  0  0  0  0  0  0  0  0  0  0  0
   60.9540   28.4650   49.6170 C   0  0  0  0  0  0  0  0  0  0  0  0
   61.4940   27.7640   50.5140 O   0  0  0  0  0  0  0  0  0  0  0  0
   60.7230   27.9150   48.3110 N   0  0  0  0  0  0  0  0  0  0  0  0
   59.4650   27.7630   47.6420 C   0  0  0  0  0  0  0  0  0  0  0  0
   58.9430   28.8760   46.9410 C   0  0  0  0  0  0  0  0  0  0  0  0
   57.7100   28.7970   46.2590 C   0  0  0  0  0  0  0  0  0  0  0  0
   57.1680   29.9550   45.5200 C   0  0  0  0  0  0  0  0  0  0  0  0
   56.1020   29.8240   44.8640 O   0  0  0  0  0  0  0  0  0  0  0  0
   57.8440   31.2160   45.4910 N   0  0  0  0  0  0  0  0  0  0  0  0
   57.5630   32.3430   46.3860 C   0  0  2  0  0  0  0  0  0  0  0  0
   57.0110   33.5430   45.5800 C   0  0  0  0  0  0  0  0  0  0  0  0
   58.0900   34.5120   45.0600 C   0  0  0  0  0  0  0  0  0  0  0  0
   59.4540   33.8380   44.9140 C   0  0  0  0  0  0  0  0  0  0  0  0
   59.9710   33.2900   46.2590 C   0  0  1  0  0  0  0  0  0  0  0  0
   60.6790   34.2960   46.9330 O   0  0  0  0  0  0  0  0  0  0  0  0
   58.8460   32.7020   47.1660 C   0  0  1  0  0  0  0  0  0  0  0  0
   58.5450   33.5420   48.2570 O   0  0  0  0  0  0  0  0  0  0  0  0
   57.0600   27.5600   46.2610 C   0  0  0  0  0  0  0  0  0  0  0  0
   55.9010   27.2370   45.6710 N   0  0  0  0  0  0  0  0  0  0  0  0
   55.7540   25.9250   45.9970 C   0  0  0  0  0  0  0  0  0  0  0  0
   54.5810   25.0870   45.5800 C   0  0  0  0  0  0  0  0  0  0  0  0
   54.9550   23.8900   44.7230 C   0  0  0  0  0  0  0  0  0  0  0  0
   54.4930   23.6790   46.1550 C   0  0  0  0  0  0  0  0  0  0  0  0
   56.7580   25.4220   46.7610 N   0  0  0  0  0  0  0  0  0  0  0  0
   57.5690   26.4780   46.9120 C   0  0  0  0  0  0  0  0  0  0  0  0
   58.7700   26.5310   47.6130 C   0  0  0  0  0  0  0  0  0  0  0  0
   61.2120   30.9550   49.4740 C   0  0  0  0  0  0  0  0  0  0  0  0
   60.7840   32.2620   49.7800 C   0  0  0  0  0  0  0  0  0  0  0  0
   61.4790   33.3950   49.3280 O   0  0  0  0  0  0  0  0  0  0  0  0
   62.8080   33.3780   48.8150 C   0  0  0  0  0  0  0  0  0  0  0  0
   59.3711   33.5931   52.9089 H   0  0  0  0  0  0  0  0  0  0  0  0
   59.2312   35.2684   52.2760 H   0  0  0  0  0  0  0  0  0  0  0  0
   57.7979   34.1856   52.2760 H   0  0  0  0  0  0  0  0  0  0  0  0
   58.0129   31.4826   51.6308 H   0  0  0  0  0  0  0  0  0  0  0  0
   58.7574   29.1803   51.0581 H   0  0  0  0  0  0  0  0  0  0  0  0
   59.5084   29.8195   46.9275 H   0  0  0  0  0  0  0  0  0  0  0  0
   56.7877   32.0642   47.1148 H   0  0  0  0  0  0  0  0  0  0  0  0
   56.4560   33.1503   44.7153 H   0  0  0  0  0  0  0  0  0  0  0  0
   56.3781   34.1198   46.2704 H   0  0  0  0  0  0  0  0  0  0  0  0
   57.7776   34.8947   44.0772 H   0  0  0  0  0  0  0  0  0  0  0  0
   58.1935   35.3251   45.7936 H   0  0  0  0  0  0  0  0  0  0  0  0
   59.3646   33.0049   44.2013 H   0  0  0  0  0  0  0  0  0  0  0  0
   60.1702   34.5918   44.5549 H   0  0  0  0  0  0  0  0  0  0  0  0
   60.6394   32.4471   46.0295 H   0  0  0  0  0  0  0  0  0  0  0  0
   60.4020   34.2520   47.8840 H   0  0  0  0  0  0  0  0  0  0  0  0
   59.2568   31.7619   47.5628 H   0  0  0  0  0  0  0  0  0  0  0  0
   59.3970   33.8060   48.6840 H   0  0  0  0  0  0  0  0  0  0  0  0
   53.8744   25.9274   45.5137 H   0  0  0  0  0  0  0  0  0  0  0  0
   54.3070   23.5891   43.8866 H   0  0  0  0  0  0  0  0  0  0  0  0
   55.8421   23.5975   44.1420 H   0  0  0  0  0  0  0  0  0  0  0  0
   53.5105   23.2268   46.3553 H   0  0  0  0  0  0  0  0  0  0  0  0
   54.9061   23.1721   47.0396 H   0  0  0  0  0  0  0  0  0  0  0  0
   59.1663   25.6435   48.1280 H   0  0  0  0  0  0  0  0  0  0  0  0
   62.1196   30.8075   48.8703 H   0  0  0  0  0  0  0  0  0  0  0  0
   63.5234   33.3688   49.6505 H   0  0  0  0  0  0  0  0  0  0  0  0
   62.9519   32.4779   48.1992 H   0  0  0  0  0  0  0  0  0  0  0  0
   62.9748   34.2741   48.1992 H   0  0  0  0  0  0  0  0  0  0  0  0
  1  2  1  0
  2  3  1  0
  3  4  2  0
  4  5  1  0
  5  6  2  0
  6  7  1  0
  7  8  2  0
  7  9  1  0
  9 10  1  0
 10 11  2  0
 11 12  1  0
 12 13  1  0
 13 14  2  0
 13 15  1  0
 15 16  1  0
 16 17  1  0
 17 18  1  0
 18 19  1  0
 19 20  1  0
 20 21  1  0
 20 22  1  0
 22 23  1  0
 12 24  2  0
 24 25  1  0
 25 26  2  0
 26 27  1  0
 27 28  1  0
 28 29  1  0
 26 30  1  0
 30 31  1  0
 31 32  2  0
  6 33  1  0
 33 34  2  0
 34 35  1  0
 35 36  1  0
 34  3  1  0
 32 10  1  0
 22 16  1  0
 31 24  1  0
 29 27  1  0
  1 37  1  0
  1 38  1  0
  1 39  1  0
  4 40  1  0
  5 41  1  0
 11 42  1  0
 16 43  1  1
 17 44  1  0
 17 45  1  0
 18 46  1  0
 18 47  1  0
 19 48  1  0
 19 49  1  0
 20 50  1  6
 21 51  1  0
 22 52  1  1
 23 53  1  0
 27 54  1  0
 28 55  1  0
 28 56  1  0
 29 57  1  0
 29 58  1  0
 32 59  1  0
 33 60  1  0
 36 61  1  0
 36 62  1  0
 36 63  1  0
M  CHG  3   9  -1  15  -1  30  -1
M  END
>  <UniqueID>  (87) 
80

>  <SMILES>  (87) 
COc1ccc(C(=O)[N-]c2cc(C(=O)[N-][C@@H]3CCC[C@@H](O)C3O)c3nc(C4CC4)[n-]c3c2)cc1OC

>  <Energy>  (87) 
380.44388663582663

>  <Genealogy>  (87) 
COc1ccc(C(=O)[N-]c2cc(C(=O)[N-]C3CCCC(O)C3O)c3nc(C4CC4)[n-]c3c2)cc1OC (protonated)
COc1ccc(C(=O)[N-]c2cc(C(=O)[N-][C@@H]3CCC[C@@H](O)C3O)c3nc(C4CC4)[n-]c3c2)cc1OC (chirality)
COc1ccc(C(=O)[N-]c2cc(C(=O)[N-][C@@H]3CCC[C@@H](O)C3O)c3nc(C4CC4)[n-]c3c2)cc1OC (3D coordinates assigned)
COc1ccc(C(=O)[N-]c2cc(C(=O)[N-][C@@H]3CCC[C@@H](O)C3O)c3nc(C4CC4)[n-]c3c2)cc1OC (nonaromatic ring conformer: 380.44388663582663 kcal/mol)

>  <smiles>  (87) 
COc1ccc(C(=O)Nc2cc(C(=O)NC3CCCC(O)C3O)c3nc(C4CC4)[nH]c3c2)cc1OC

>  <score_type>  (87) 
oracle

>  <origin>  (87) 
adg

>  <m_score__min__energy>  (87) 
-13.460000000000001

>  <m_primary>  (87) 
energy

$$$$
87:0
     RDKit          3D

 26 27  0  0  0  0  0  0  0  0999 V2000
   59.6710   26.6500   47.3350 C   0  0  0  0  0  0  0  0  0  0  0  0
   58.4080   27.0370   46.6330 C   0  0  0  0  0  0  0  0  0  0  0  0
   57.2250   26.4180   46.8290 N   0  0  0  0  0  0  0  0  0  0  0  0
   56.3300   27.0520   46.0520 C   0  0  0  0  0  0  0  0  0  0  0  0
   54.9830   26.7150   45.9930 O   0  0  0  0  0  0  0  0  0  0  0  0
   56.9250   28.0770   45.3560 C   0  0  0  0  0  0  0  0  0  0  0  0
   56.2310   29.0110   44.5240 N   0  0  0  0  0  0  0  0  0  0  0  0
   55.7820   30.0870   44.9680 O   0  0  0  0  0  0  0  0  0  0  0  0
   58.2680   28.0770   45.7190 C   0  0  0  0  0  0  0  0  0  0  0  0
   59.3410   28.9800   45.2550 C   0  0  0  0  0  0  0  0  0  0  0  0
   60.2340   28.5110   44.4970 O   0  0  0  0  0  0  0  0  0  0  0  0
   59.3740   30.4170   45.6200 C   0  0  0  0  0  0  0  0  0  0  0  0
   60.2430   30.8940   46.6210 C   0  0  0  0  0  0  0  0  0  0  0  0
   60.2590   32.2490   46.9590 C   0  0  0  0  0  0  0  0  0  0  0  0
   59.4050   33.1450   46.3100 C   0  0  0  0  0  0  0  0  0  0  0  0
   59.4290   34.9980   46.7750 Br  0  0  0  0  0  0  0  0  0  0  0  0
   58.5290   32.6830   45.3240 C   0  0  0  0  0  0  0  0  0  0  0  0
   58.5110   31.3270   44.9820 C   0  0  0  0  0  0  0  0  0  0  0  0
   59.5152   26.6977   48.4229 H   0  0  0  0  0  0  0  0  0  0  0  0
   59.9501   25.6251   47.0492 H   0  0  0  0  0  0  0  0  0  0  0  0
   60.4764   27.3426   47.0492 H   0  0  0  0  0  0  0  0  0  0  0  0
   57.0360   25.6120   47.4660 H   0  0  0  0  0  0  0  0  0  0  0  0
   60.9140   30.1939   47.1403 H   0  0  0  0  0  0  0  0  0  0  0  0
   60.9455   32.6120   47.7380 H   0  0  0  0  0  0  0  0  0  0  0  0
   57.8529   33.3866   44.8163 H   0  0  0  0  0  0  0  0  0  0  0  0
   57.8164   30.9689   44.2078 H   0  0  0  0  0  0  0  0  0  0  0  0
  1  2  1  0
  2  3  1  0
  3  4  1  0
  4  5  1  0
  4  6  2  0
  6  7  1  0
  7  8  2  0
  6  9  1  0
  9 10  1  0
 10 11  2  0
 10 12  1  0
 12 13  2  0
 13 14  1  0
 14 15  2  0
 15 16  1  0
 15 17  1  0
 17 18  2  0
  9  2  2  0
 18 12  1  0
  1 19  1  0
  1 20  1  0
  1 21  1  0
  3 22  1  0
 13 23  1  0
 14 24  1  0
 17 25  1  0
 18 26  1  0
M  CHG  1   5  -1
M  END
>  <UniqueID>  (88) 
81

>  <SMILES>  (88) 
Cc1[nH]c([O-])c(N=O)c1C(=O)c1ccc(Br)cc1

>  <Energy>  (88) 
61.731189421611084

>  <Genealogy>  (88) 
Cc1[nH]c([O-])c(N=O)c1C(=O)c1ccc(Br)cc1 (protonated)
Cc1[nH]c([O-])c(N=O)c1C(=O)c1ccc(Br)cc1 (3D coordinates assigned)
Cc1[nH]c([O-])c(N=O)c1C(=O)c1ccc(Br)cc1 (optimized conformer: 61.731189421611084 kcal/mol)

>  <smiles>  (88) 
Cc1[nH]c(O)c(N=O)c1C(=O)c1ccc(Br)cc1

>  <score_type>  (88) 
oracle

>  <origin>  (88) 
adg

>  <m_score__min__energy>  (88) 
-10.98

>  <m_primary>  (88) 
energy

$$$$
